
     RDKit          2D

 26 28  0  0  0  0  0  0  0  0999 V2000
   -3.4408    8.1628    0.0000 C   0  0  0  0  0  0  0  0  0  0  0  0
   -3.7527    6.6955    0.0000 C   0  0  0  0  0  0  0  0  0  0  0  0
   -2.6380    5.6918    0.0000 C   0  0  0  0  0  0  0  0  0  0  0  0
   -1.2114    6.1554    0.0000 C   0  0  0  0  0  0  0  0  0  0  0  0
   -0.8995    7.6226    0.0000 O   0  0  0  0  0  0  0  0  0  0  0  0
   -2.9499    4.2246    0.0000 N   0  0  0  0  0  0  0  0  0  0  0  0
   -1.8351    3.2209    0.0000 C   0  0  0  0  0  0  0  0  0  0  0  0
   -0.4086    3.6844    0.0000 N   0  0  0  0  0  0  0  0  0  0  0  0
    0.7062    2.6807    0.0000 C   0  0  0  0  0  0  0  0  0  0  0  0
    2.1328    3.1443    0.0000 N   0  0  0  0  0  0  0  0  0  0  0  0
    2.4446    4.6115    0.0000 C   0  0  0  0  0  0  0  0  0  0  0  0
    3.8712    5.0750    0.0000 C   0  0  0  0  0  0  0  0  0  0  0  0
    4.9859    4.0713    0.0000 C   0  0  0  0  0  0  0  0  0  0  0  0
    6.4125    4.5348    0.0000 C   0  0  0  0  0  0  0  0  0  0  0  0
    6.7244    6.0021    0.0000 C   0  0  0  0  0  0  0  0  0  0  0  0
    5.6097    7.0058    0.0000 C   0  0  0  0  0  0  0  0  0  0  0  0
    4.1831    6.5422    0.0000 C   0  0  0  0  0  0  0  0  0  0  0  0
    0.3943    1.2135    0.0000 C   0  0  0  0  0  0  0  0  0  0  0  0
    1.2760    0.0000    0.0000 N   0  0  0  0  0  0  0  0  0  0  0  0
    0.3943   -1.2135    0.0000 C   0  0  0  0  0  0  0  0  0  0  0  0
   -1.0323   -0.7500    0.0000 N   0  0  0  0  0  0  0  0  0  0  0  0
   -2.2458   -1.6317    0.0000 C   0  0  0  0  0  0  0  0  0  0  0  0
   -2.0890   -3.1235    0.0000 C   0  0  0  0  0  0  0  0  0  0  0  0
   -3.6161   -1.0216    0.0000 C   0  0  0  0  0  0  0  0  0  0  0  0
   -1.0323    0.7500    0.0000 C   0  0  0  0  0  0  0  0  0  0  0  0
   -2.1470    1.7537    0.0000 N   0  0  0  0  0  0  0  0  0  0  0  0
  1  2  1  0
  2  3  1  0
  3  4  1  0
  4  5  1  0
  3  6  1  0
  6  7  1  0
  7  8  2  0
  8  9  1  0
  9 10  1  0
 10 11  1  0
 11 12  1  0
 12 13  2  0
 13 14  1  0
 14 15  2  0
 15 16  1  0
 16 17  2  0
  9 18  2  0
 18 19  1  0
 19 20  2  0
 20 21  1  0
 21 22  1  0
 22 23  1  0
 22 24  1  0
 21 25  1  0
 25 26  2  0
 26  7  1  0
 17 12  1  0
 25 18  1  0
M  END
>  <Compound_ID>  (1) 
CHEMBL52387

>  <Active>  (1) 
1.0

>  <Smiles>  (1) 
CCC(CO)Nc1nc(NCc2ccccc2)c2ncn(C(C)C)c2n1

>  <canonical_smi>  (1) 
CCC(CO)Nc1nc(NCc2ccccc2)c2ncn(C(C)C)c2n1

>  <Set>  (1) 
G1 active

>  <Set_type>  (1) 
G1

>  <MW>  (1) 
354.46

>  <HBD>  (1) 
3

>  <HBA>  (1) 
6

>  <NRB>  (1) 
8

>  <NR>  (1) 
3

>  <NAR>  (1) 
3

>  <PSA>  (1) 
87.89

>  <Standard Type>  (1) 
nan

>  <Standard Relation>  (1) 
nan

>  <Standard Units>  (1) 
nan

>  <Standard Value>  (1) 
nan

>  <Assay ChEMBL ID>  (1) 
nan

>  <Assay Description>  (1) 
nan

>  <BAO Label>  (1) 
nan

$$$$

     RDKit          2D

 34 37  0  0  0  0  0  0  0  0999 V2000
    4.6740   -4.8322    0.0000 C   0  0  0  0  0  0  0  0  0  0  0  0
    3.3037   -4.2221    0.0000 C   0  0  0  0  0  0  0  0  0  0  0  0
    2.0046   -4.9721    0.0000 N   0  0  0  0  0  0  0  0  0  0  0  0
    0.8899   -3.9684    0.0000 C   0  0  0  0  0  0  0  0  0  0  0  0
    1.5000   -2.5981    0.0000 C   0  0  0  0  0  0  0  0  0  0  0  0
    0.7500   -1.2990    0.0000 C   0  0  0  0  0  0  0  0  0  0  0  0
    1.5000    0.0000    0.0000 N   0  0  0  0  0  0  0  0  0  0  0  0
    0.7500    1.2990    0.0000 C   0  0  0  0  0  0  0  0  0  0  0  0
    1.5000    2.5981    0.0000 N   0  0  0  0  0  0  0  0  0  0  0  0
    3.0000    2.5981    0.0000 C   0  0  0  0  0  0  0  0  0  0  0  0
    3.7500    1.2990    0.0000 C   0  0  0  0  0  0  0  0  0  0  0  0
    5.2500    1.2990    0.0000 C   0  0  0  0  0  0  0  0  0  0  0  0
    6.0000    2.5981    0.0000 C   0  0  0  0  0  0  0  0  0  0  0  0
    7.5000    2.5981    0.0000 C   0  0  0  0  0  0  0  0  0  0  0  0
    8.2500    3.8971    0.0000 O   0  0  0  0  0  0  0  0  0  0  0  0
    8.2500    1.2990    0.0000 N   0  0  0  0  0  0  0  0  0  0  0  0
    9.7500    1.2990    0.0000 C   0  0  0  0  0  0  0  0  0  0  0  0
   10.5000   -0.0000    0.0000 C   0  0  0  0  0  0  0  0  0  0  0  0
   12.0000   -0.0000    0.0000 C   0  0  0  0  0  0  0  0  0  0  0  0
   12.7500    1.2990    0.0000 N   0  0  0  0  0  0  0  0  0  0  0  0
   14.2500    1.2990    0.0000 C   0  0  0  0  0  0  0  0  0  0  0  0
   12.0000    2.5981    0.0000 C   0  0  0  0  0  0  0  0  0  0  0  0
   10.5000    2.5981    0.0000 C   0  0  0  0  0  0  0  0  0  0  0  0
    5.2500    3.8971    0.0000 C   0  0  0  0  0  0  0  0  0  0  0  0
    6.0000    5.1962    0.0000 F   0  0  0  0  0  0  0  0  0  0  0  0
    3.7500    3.8971    0.0000 C   0  0  0  0  0  0  0  0  0  0  0  0
   -0.7500    1.2990    0.0000 N   0  0  0  0  0  0  0  0  0  0  0  0
   -1.5000    0.0000    0.0000 C   0  0  0  0  0  0  0  0  0  0  0  0
   -0.7500   -1.2990    0.0000 C   0  0  0  0  0  0  0  0  0  0  0  0
   -1.5000   -2.5981    0.0000 F   0  0  0  0  0  0  0  0  0  0  0  0
    2.9918   -2.7549    0.0000 N   0  0  0  0  0  0  0  0  0  0  0  0
    3.9955   -1.6402    0.0000 C   0  0  0  0  0  0  0  0  0  0  0  0
    5.4627   -1.9520    0.0000 C   0  0  0  0  0  0  0  0  0  0  0  0
    3.5320   -0.2136    0.0000 C   0  0  0  0  0  0  0  0  0  0  0  0
  1  2  1  0
  2  3  2  0
  3  4  1  0
  4  5  2  0
  5  6  1  0
  6  7  2  0
  7  8  1  0
  8  9  1  0
  9 10  1  0
 10 11  2  0
 11 12  1  0
 12 13  2  0
 13 14  1  0
 14 15  2  0
 14 16  1  0
 16 17  1  0
 17 18  1  0
 18 19  1  0
 19 20  1  0
 20 21  1  0
 20 22  1  0
 22 23  1  0
 13 24  1  0
 24 25  1  0
 24 26  2  0
  8 27  2  0
 27 28  1  0
 28 29  2  0
 29 30  1  0
  5 31  1  0
 31 32  1  0
 32 33  1  0
 32 34  1  0
 31  2  1  0
 29  6  1  0
 26 10  1  0
 23 17  1  0
M  END
>  <Compound_ID>  (2) 
CHEMBL509406

>  <Active>  (2) 
1.0

>  <Smiles>  (2) 
Cc1ncc(-c2nc(Nc3ccc(C(=O)NC4CCN(C)CC4)c(F)c3)ncc2F)n1C(C)C

>  <canonical_smi>  (2) 
Cc1ncc(-c2nc(Nc3ccc(C(=O)NC4CCN(C)CC4)c(F)c3)ncc2F)n1C(C)C

>  <Set>  (2) 
G1 active

>  <Set_type>  (2) 
G1

>  <MW>  (2) 
469.54

>  <HBD>  (2) 
2

>  <HBA>  (2) 
6

>  <NRB>  (2) 
6

>  <NR>  (2) 
4

>  <NAR>  (2) 
3

>  <PSA>  (2) 
87.97

>  <Standard Type>  (2) 
nan

>  <Standard Relation>  (2) 
nan

>  <Standard Units>  (2) 
nan

>  <Standard Value>  (2) 
nan

>  <Assay ChEMBL ID>  (2) 
nan

>  <Assay Description>  (2) 
nan

>  <BAO Label>  (2) 
nan

$$$$

     RDKit          2D

 36 39  0  0  0  0  0  0  0  0999 V2000
    3.7500   -9.0933    0.0000 C   0  0  0  0  0  0  0  0  0  0  0  0
    3.0000   -7.7942    0.0000 O   0  0  0  0  0  0  0  0  0  0  0  0
    1.5000   -7.7942    0.0000 C   0  0  0  0  0  0  0  0  0  0  0  0
    0.7500   -9.0933    0.0000 C   0  0  0  0  0  0  0  0  0  0  0  0
   -0.7500   -9.0933    0.0000 C   0  0  0  0  0  0  0  0  0  0  0  0
   -1.5000   -7.7942    0.0000 C   0  0  0  0  0  0  0  0  0  0  0  0
   -0.7500   -6.4952    0.0000 C   0  0  0  0  0  0  0  0  0  0  0  0
   -1.5000   -5.1962    0.0000 O   0  0  0  0  0  0  0  0  0  0  0  0
   -3.0000   -5.1962    0.0000 C   0  0  0  0  0  0  0  0  0  0  0  0
    0.7500   -6.4952    0.0000 C   0  0  0  0  0  0  0  0  0  0  0  0
    1.5000   -5.1962    0.0000 C   0  0  0  0  0  0  0  0  0  0  0  0
    0.7500   -3.8971    0.0000 N   0  0  0  0  0  0  0  0  0  0  0  0
    1.5000   -2.5981    0.0000 C   0  0  0  0  0  0  0  0  0  0  0  0
    3.0000   -2.5981    0.0000 O   0  0  0  0  0  0  0  0  0  0  0  0
    0.7500   -1.2990    0.0000 C   0  0  0  0  0  0  0  0  0  0  0  0
    1.5000    0.0000    0.0000 C   0  0  0  0  0  0  0  0  0  0  0  0
    0.7500    1.2990    0.0000 C   0  0  0  0  0  0  0  0  0  0  0  0
   -0.7500    1.2990    0.0000 C   0  0  0  0  0  0  0  0  0  0  0  0
   -1.5000    0.0000    0.0000 C   0  0  0  0  0  0  0  0  0  0  0  0
   -0.7500   -1.2990    0.0000 C   0  0  0  0  0  0  0  0  0  0  0  0
   -2.9672    0.3119    0.0000 C   0  0  0  0  0  0  0  0  0  0  0  0
   -4.0819   -0.6918    0.0000 N   0  0  0  0  0  0  0  0  0  0  0  0
   -5.5085   -0.2283    0.0000 N   0  0  0  0  0  0  0  0  0  0  0  0
   -6.6232   -1.2320    0.0000 C   0  0  0  0  0  0  0  0  0  0  0  0
   -8.0498   -0.7685    0.0000 C   0  0  0  0  0  0  0  0  0  0  0  0
   -9.1645   -1.7722    0.0000 C   0  0  0  0  0  0  0  0  0  0  0  0
   -8.8527   -3.2394    0.0000 C   0  0  0  0  0  0  0  0  0  0  0  0
   -9.9674   -4.2431    0.0000 S   0  0  0  0  0  0  0  0  0  0  0  0
  -11.0821   -5.2468    0.0000 N   0  0  0  0  0  0  0  0  0  0  0  0
  -10.9711   -3.1284    0.0000 O   0  0  0  0  0  0  0  0  0  0  0  0
   -8.9637   -5.3578    0.0000 O   0  0  0  0  0  0  0  0  0  0  0  0
   -7.4261   -3.7029    0.0000 C   0  0  0  0  0  0  0  0  0  0  0  0
   -6.3114   -2.6992    0.0000 C   0  0  0  0  0  0  0  0  0  0  0  0
   -3.1240    1.8037    0.0000 C   0  0  0  0  0  0  0  0  0  0  0  0
   -4.4231    2.5537    0.0000 O   0  0  0  0  0  0  0  0  0  0  0  0
   -1.7537    2.4138    0.0000 N   0  0  0  0  0  0  0  0  0  0  0  0
  1  2  1  0
  2  3  1  0
  3  4  2  0
  4  5  1  0
  5  6  2  0
  6  7  1  0
  7  8  1  0
  8  9  1  0
  7 10  2  0
 10 11  1  0
 11 12  1  0
 12 13  1  0
 13 14  2  0
 13 15  1  0
 15 16  2  0
 16 17  1  0
 17 18  2  0
 18 19  1  0
 19 20  2  0
 19 21  1  0
 21 22  2  0
 22 23  1  0
 23 24  1  0
 24 25  2  0
 25 26  1  0
 26 27  2  0
 27 28  1  0
 28 29  1  0
 28 30  2  0
 28 31  2  0
 27 32  1  0
 32 33  2  0
 21 34  1  0
 34 35  2  0
 34 36  1  0
 10  3  1  0
 20 15  1  0
 33 24  1  0
 36 18  1  0
M  END
>  <Compound_ID>  (3) 
CHEMBL271136

>  <Active>  (3) 
1.0

>  <Smiles>  (3) 
COc1cccc(OC)c1CNC(=O)c1ccc2c(c1)/C(=N/Nc1ccc(S(N)(=O)=O)cc1)C(=O)N2

>  <canonical_smi>  (3) 
COc1cccc(OC)c1CNC(=O)c1ccc2c(c1)/C(=N/Nc1ccc(S(N)(=O)=O)cc1)C(=O)N2

>  <Set>  (3) 
G1 active

>  <Set_type>  (3) 
G1

>  <MW>  (3) 
509.54

>  <HBD>  (3) 
4

>  <HBA>  (3) 
7

>  <NRB>  (3) 
8

>  <NR>  (3) 
4

>  <NAR>  (3) 
3

>  <PSA>  (3) 
161.21

>  <Standard Type>  (3) 
nan

>  <Standard Relation>  (3) 
nan

>  <Standard Units>  (3) 
nan

>  <Standard Value>  (3) 
nan

>  <Assay ChEMBL ID>  (3) 
nan

>  <Assay Description>  (3) 
nan

>  <BAO Label>  (3) 
nan

$$$$

     RDKit          2D

 26 29  0  0  0  0  0  0  0  0999 V2000
   -4.7368    5.6908    0.0000 N   0  0  0  0  0  0  0  0  0  0  0  0
   -5.0487    4.2236    0.0000 S   0  0  0  0  0  0  0  0  0  0  0  0
   -3.5814    3.9117    0.0000 O   0  0  0  0  0  0  0  0  0  0  0  0
   -6.5159    4.5355    0.0000 O   0  0  0  0  0  0  0  0  0  0  0  0
   -5.3605    2.7564    0.0000 C   0  0  0  0  0  0  0  0  0  0  0  0
   -4.2458    1.7527    0.0000 C   0  0  0  0  0  0  0  0  0  0  0  0
   -4.5577    0.2855    0.0000 C   0  0  0  0  0  0  0  0  0  0  0  0
   -5.9843   -0.1781    0.0000 C   0  0  0  0  0  0  0  0  0  0  0  0
   -6.2961   -1.6453    0.0000 N   0  0  0  0  0  0  0  0  0  0  0  0
   -5.1814   -2.6490    0.0000 C   0  0  0  0  0  0  0  0  0  0  0  0
   -5.4933   -4.1162    0.0000 N   0  0  0  0  0  0  0  0  0  0  0  0
   -4.3786   -5.1199    0.0000 C   0  0  0  0  0  0  0  0  0  0  0  0
   -2.9520   -4.6564    0.0000 C   0  0  0  0  0  0  0  0  0  0  0  0
   -2.6401   -3.1891    0.0000 C   0  0  0  0  0  0  0  0  0  0  0  0
   -1.2135   -2.7256    0.0000 C   0  0  0  0  0  0  0  0  0  0  0  0
   -0.0000   -3.6073    0.0000 C   0  0  0  0  0  0  0  0  0  0  0  0
    1.2135   -2.7256    0.0000 N   0  0  0  0  0  0  0  0  0  0  0  0
    0.7500   -1.2990    0.0000 C   0  0  0  0  0  0  0  0  0  0  0  0
    1.5000    0.0000    0.0000 C   0  0  0  0  0  0  0  0  0  0  0  0
    0.7500    1.2990    0.0000 C   0  0  0  0  0  0  0  0  0  0  0  0
   -0.7500    1.2990    0.0000 C   0  0  0  0  0  0  0  0  0  0  0  0
   -1.5000    0.0000    0.0000 C   0  0  0  0  0  0  0  0  0  0  0  0
   -0.7500   -1.2990    0.0000 N   0  0  0  0  0  0  0  0  0  0  0  0
   -3.7548   -2.1855    0.0000 N   0  0  0  0  0  0  0  0  0  0  0  0
   -7.0990    0.8256    0.0000 C   0  0  0  0  0  0  0  0  0  0  0  0
   -6.7871    2.2929    0.0000 C   0  0  0  0  0  0  0  0  0  0  0  0
  1  2  1  0
  2  3  2  0
  2  4  2  0
  2  5  1  0
  5  6  2  0
  6  7  1  0
  7  8  2  0
  8  9  1  0
  9 10  1  0
 10 11  2  0
 11 12  1  0
 12 13  2  0
 13 14  1  0
 14 15  1  0
 15 16  2  0
 16 17  1  0
 17 18  2  0
 18 19  1  0
 19 20  2  0
 20 21  1  0
 21 22  2  0
 22 23  1  0
 14 24  2  0
  8 25  1  0
 25 26  2  0
 26  5  1  0
 24 10  1  0
 23 15  1  0
 23 18  1  0
M  END
>  <Compound_ID>  (4) 
CHEMBL73303

>  <Active>  (4) 
1.0

>  <Smiles>  (4) 
NS(=O)(=O)c1ccc(Nc2nccc(-c3cnc4ccccn34)n2)cc1

>  <canonical_smi>  (4) 
NS(=O)(=O)c1ccc(Nc2nccc(-c3cnc4ccccn34)n2)cc1

>  <Set>  (4) 
G1 active

>  <Set_type>  (4) 
G1

>  <MW>  (4) 
366.41

>  <HBD>  (4) 
2

>  <HBA>  (4) 
6

>  <NRB>  (4) 
4

>  <NR>  (4) 
4

>  <NAR>  (4) 
4

>  <PSA>  (4) 
115.27

>  <Standard Type>  (4) 
nan

>  <Standard Relation>  (4) 
nan

>  <Standard Units>  (4) 
nan

>  <Standard Value>  (4) 
nan

>  <Assay ChEMBL ID>  (4) 
nan

>  <Assay Description>  (4) 
nan

>  <BAO Label>  (4) 
nan

$$$$

     RDKit          2D

 25 27  0  0  0  0  0  0  0  0999 V2000
   -6.9204   -5.2665    0.0000 C   0  0  0  0  0  0  0  0  0  0  0  0
   -5.6213   -4.5165    0.0000 O   0  0  0  0  0  0  0  0  0  0  0  0
   -4.3223   -5.2665    0.0000 C   0  0  0  0  0  0  0  0  0  0  0  0
   -4.1655   -6.7583    0.0000 C   0  0  0  0  0  0  0  0  0  0  0  0
   -2.6983   -7.0701    0.0000 C   0  0  0  0  0  0  0  0  0  0  0  0
   -1.9483   -5.7711    0.0000 N   0  0  0  0  0  0  0  0  0  0  0  0
   -2.9520   -4.6564    0.0000 C   0  0  0  0  0  0  0  0  0  0  0  0
   -2.6401   -3.1891    0.0000 C   0  0  0  0  0  0  0  0  0  0  0  0
   -1.2135   -2.7256    0.0000 C   0  0  0  0  0  0  0  0  0  0  0  0
   -0.0000   -3.6073    0.0000 C   0  0  0  0  0  0  0  0  0  0  0  0
    0.0000   -5.1073    0.0000 O   0  0  0  0  0  0  0  0  0  0  0  0
    1.2135   -2.7256    0.0000 N   0  0  0  0  0  0  0  0  0  0  0  0
    0.7500   -1.2990    0.0000 C   0  0  0  0  0  0  0  0  0  0  0  0
    1.5000    0.0000    0.0000 C   0  0  0  0  0  0  0  0  0  0  0  0
    0.7500    1.2990    0.0000 C   0  0  0  0  0  0  0  0  0  0  0  0
   -0.7500    1.2990    0.0000 C   0  0  0  0  0  0  0  0  0  0  0  0
   -1.5000    2.5981    0.0000 F   0  0  0  0  0  0  0  0  0  0  0  0
   -1.5000    0.0000    0.0000 C   0  0  0  0  0  0  0  0  0  0  0  0
   -3.0000    0.0000    0.0000 C   0  0  0  0  0  0  0  0  0  0  0  0
   -4.5000    0.0000    0.0000 C   0  0  0  0  0  0  0  0  0  0  0  0
   -6.0000    0.0000    0.0000 C   0  0  0  0  0  0  0  0  0  0  0  0
   -6.7500   -1.2990    0.0000 N   0  0  0  0  0  0  0  0  0  0  0  0
   -6.7500    1.2990    0.0000 C   0  0  0  0  0  0  0  0  0  0  0  0
   -8.2500    1.2990    0.0000 O   0  0  0  0  0  0  0  0  0  0  0  0
   -0.7500   -1.2990    0.0000 C   0  0  0  0  0  0  0  0  0  0  0  0
  1  2  1  0
  2  3  1  0
  3  4  1  0
  4  5  2  0
  5  6  1  0
  6  7  1  0
  7  8  1  0
  8  9  2  0
  9 10  1  0
 10 11  2  0
 10 12  1  0
 12 13  1  0
 13 14  2  0
 14 15  1  0
 15 16  2  0
 16 17  1  0
 16 18  1  0
 18 19  1  0
 19 20  3  0
 20 21  1  0
 21 22  1  6
 21 23  1  0
 23 24  1  0
 18 25  2  0
  7  3  2  0
 25  9  1  0
 25 13  1  0
M  END
>  <Compound_ID>  (5) 
CHEMBL424207

>  <Active>  (5) 
1.0

>  <Smiles>  (5) 
COc1cc[nH]c1/C=C1\C(=O)Nc2ccc(F)c(C#C[C@H](N)CO)c21

>  <canonical_smi>  (5) 
COc1cc[nH]c1/C=C1\C(=O)Nc2ccc(F)c(C#C[C@H](N)CO)c21

>  <Set>  (5) 
G1 active

>  <Set_type>  (5) 
G1

>  <MW>  (5) 
341.34

>  <HBD>  (5) 
4

>  <HBA>  (5) 
4

>  <NRB>  (5) 
3

>  <NR>  (5) 
3

>  <NAR>  (5) 
2

>  <PSA>  (5) 
100.37

>  <Standard Type>  (5) 
nan

>  <Standard Relation>  (5) 
nan

>  <Standard Units>  (5) 
nan

>  <Standard Value>  (5) 
nan

>  <Assay ChEMBL ID>  (5) 
nan

>  <Assay Description>  (5) 
nan

>  <BAO Label>  (5) 
nan

$$$$

     RDKit          2D

 20 22  0  0  0  0  0  0  0  0999 V2000
    6.0000   -2.5981    0.0000 C   0  0  0  0  0  0  0  0  0  0  0  0
    5.2500   -1.2990    0.0000 C   0  0  0  0  0  0  0  0  0  0  0  0
    3.7500   -1.2990    0.0000 C   0  0  0  0  0  0  0  0  0  0  0  0
    3.0000    0.0000    0.0000 O   0  0  0  0  0  0  0  0  0  0  0  0
    1.5000    0.0000    0.0000 C   0  0  0  0  0  0  0  0  0  0  0  0
    0.7500   -1.2990    0.0000 C   0  0  0  0  0  0  0  0  0  0  0  0
   -0.7500   -1.2990    0.0000 C   0  0  0  0  0  0  0  0  0  0  0  0
   -1.5000    0.0000    0.0000 N   0  0  0  0  0  0  0  0  0  0  0  0
   -0.7500    1.2990    0.0000 C   0  0  0  0  0  0  0  0  0  0  0  0
   -1.2135    2.7256    0.0000 N   0  0  0  0  0  0  0  0  0  0  0  0
   -0.0000    3.6073    0.0000 C   0  0  0  0  0  0  0  0  0  0  0  0
    1.2135    2.7256    0.0000 C   0  0  0  0  0  0  0  0  0  0  0  0
    2.6401    3.1891    0.0000 C   0  0  0  0  0  0  0  0  0  0  0  0
    3.7548    2.1855    0.0000 C   0  0  0  0  0  0  0  0  0  0  0  0
    5.1814    2.6490    0.0000 C   0  0  0  0  0  0  0  0  0  0  0  0
    5.4933    4.1162    0.0000 N   0  0  0  0  0  0  0  0  0  0  0  0
    4.3786    5.1199    0.0000 C   0  0  0  0  0  0  0  0  0  0  0  0
    4.6904    6.5871    0.0000 N   0  0  0  0  0  0  0  0  0  0  0  0
    2.9520    4.6564    0.0000 N   0  0  0  0  0  0  0  0  0  0  0  0
    0.7500    1.2990    0.0000 C   0  0  0  0  0  0  0  0  0  0  0  0
  1  2  1  0
  2  3  1  0
  3  4  1  0
  4  5  1  0
  5  6  2  0
  6  7  1  0
  7  8  2  0
  8  9  1  0
  9 10  1  0
 10 11  1  0
 11 12  2  0
 12 13  1  0
 13 14  2  0
 14 15  1  0
 15 16  2  0
 16 17  1  0
 17 18  1  0
 17 19  2  0
 12 20  1  0
 20  5  1  0
 20  9  2  0
 19 13  1  0
M  END
>  <Compound_ID>  (6) 
CHEMBL270687

>  <Active>  (6) 
1.0

>  <Smiles>  (6) 
CCCOc1ccnc2[nH]cc(-c3ccnc(N)n3)c12

>  <canonical_smi>  (6) 
CCCOc1ccnc2[nH]cc(-c3ccnc(N)n3)c12

>  <Set>  (6) 
G1 active

>  <Set_type>  (6) 
G1

>  <MW>  (6) 
269.31

>  <HBD>  (6) 
2

>  <HBA>  (6) 
5

>  <NRB>  (6) 
4

>  <NR>  (6) 
3

>  <NAR>  (6) 
3

>  <PSA>  (6) 
89.71

>  <Standard Type>  (6) 
nan

>  <Standard Relation>  (6) 
nan

>  <Standard Units>  (6) 
nan

>  <Standard Value>  (6) 
nan

>  <Assay ChEMBL ID>  (6) 
nan

>  <Assay Description>  (6) 
nan

>  <BAO Label>  (6) 
nan

$$$$

     RDKit          2D

 30 35  0  0  0  0  0  0  0  0999 V2000
   -2.6113   -9.8118    0.0000 C   0  0  0  0  0  0  0  0  0  0  0  0
   -1.4817   -8.8249    0.0000 C   0  0  0  0  0  0  0  0  0  0  0  0
   -0.0193   -9.1586    0.0000 C   0  0  0  0  0  0  0  0  0  0  0  0
    0.7500   -7.8710    0.0000 C   0  0  0  0  0  0  0  0  0  0  0  0
   -0.7500   -7.8710    0.0000 C   0  0  0  0  0  0  0  0  0  0  0  0
   -2.1015   -7.2201    0.0000 N   0  0  0  0  0  0  0  0  0  0  0  0
   -3.0367   -6.0474    0.0000 C   0  0  0  0  0  0  0  0  0  0  0  0
   -3.3705   -4.5850    0.0000 C   0  0  0  0  0  0  0  0  0  0  0  0
   -3.0367   -3.1226    0.0000 N   0  0  0  0  0  0  0  0  0  0  0  0
   -2.1015   -1.9499    0.0000 N   0  0  0  0  0  0  0  0  0  0  0  0
   -0.7500   -1.2990    0.0000 C   0  0  0  0  0  0  0  0  0  0  0  0
    0.7500   -1.2990    0.0000 C   0  0  0  0  0  0  0  0  0  0  0  0
    1.5000    0.0000    0.0000 C   0  0  0  0  0  0  0  0  0  0  0  0
    0.7500    1.2990    0.0000 C   0  0  0  0  0  0  0  0  0  0  0  0
   -0.7500    1.2990    0.0000 C   0  0  0  0  0  0  0  0  0  0  0  0
   -1.5000    0.0000    0.0000 C   0  0  0  0  0  0  0  0  0  0  0  0
   -2.8269   -0.6995    0.0000 C   0  0  0  0  0  0  0  0  0  0  0  0
   -4.1728   -0.0372    0.0000 O   0  0  0  0  0  0  0  0  0  0  0  0
    2.1015   -1.9499    0.0000 C   0  0  0  0  0  0  0  0  0  0  0  0
    3.0367   -3.1226    0.0000 N   0  0  0  0  0  0  0  0  0  0  0  0
    3.3705   -4.5850    0.0000 C   0  0  0  0  0  0  0  0  0  0  0  0
    3.0367   -6.0474    0.0000 C   0  0  0  0  0  0  0  0  0  0  0  0
    4.1363   -7.0677    0.0000 C   0  0  0  0  0  0  0  0  0  0  0  0
    5.5696   -6.6255    0.0000 C   0  0  0  0  0  0  0  0  0  0  0  0
    5.9034   -5.1631    0.0000 C   0  0  0  0  0  0  0  0  0  0  0  0
    4.8038   -4.1429    0.0000 C   0  0  0  0  0  0  0  0  0  0  0  0
    4.6671   -2.3590    0.0000 N   0  0  0  0  0  0  0  0  0  0  0  0
    3.5024   -1.4138    0.0000 C   0  0  0  0  0  0  0  0  0  0  0  0
    3.7386    0.0675    0.0000 O   0  0  0  0  0  0  0  0  0  0  0  0
    2.1015   -7.2201    0.0000 O   0  0  0  0  0  0  0  0  0  0  0  0
  2  1  1  1
  2  3  1  0
  4  3  1  1
  4  5  1  0
  5  6  1  0
  6  7  1  0
  7  8  1  0
  8  9  1  0
  9 10  1  0
 10 11  2  0
 11 12  1  0
 12 13  2  0
 13 14  1  0
 14 15  2  0
 15 16  1  0
 16 17  2  0
 17 18  1  0
 12 19  1  0
 19 20  2  0
 20 21  1  0
 21 22  2  0
 22 23  1  0
 23 24  2  0
 24 25  1  0
 25 26  2  0
 26 27  1  0
 27 28  2  0
 28 29  1  0
 22 30  1  0
  6  2  1  0
 17  9  1  0
 28 19  1  0
 30  4  1  0
 16 11  1  0
 26 21  1  0
M  END
>  <Compound_ID>  (7) 
CHEMBL215803

>  <Active>  (7) 
1.0

>  <Smiles>  (7) 
C[C@@H]1C[C@H]2CN1CCn1nc3c(cccc3c1O)-c1nc3c(cccc3nc1O)O2

>  <canonical_smi>  (7) 
C[C@@H]1C[C@H]2CN1CCn1nc3c(cccc3c1O)-c1nc3c(cccc3nc1O)O2

>  <Set>  (7) 
G1 active

>  <Set_type>  (7) 
G1

>  <MW>  (7) 
403.44

>  <HBD>  (7) 
2

>  <HBA>  (7) 
7

>  <NRB>  (7) 
0

>  <NR>  (7) 
6

>  <NAR>  (7) 
4

>  <PSA>  (7) 
96.53

>  <Standard Type>  (7) 
nan

>  <Standard Relation>  (7) 
nan

>  <Standard Units>  (7) 
nan

>  <Standard Value>  (7) 
nan

>  <Assay ChEMBL ID>  (7) 
nan

>  <Assay Description>  (7) 
nan

>  <BAO Label>  (7) 
nan

$$$$

     RDKit          2D

 25 28  0  0  0  0  0  0  0  0999 V2000
   -4.6613    6.0728    0.0000 N   0  0  0  0  0  0  0  0  0  0  0  0
   -3.2910    5.4627    0.0000 C   0  0  0  0  0  0  0  0  0  0  0  0
   -2.0774    6.3444    0.0000 O   0  0  0  0  0  0  0  0  0  0  0  0
   -3.1342    3.9709    0.0000 C   0  0  0  0  0  0  0  0  0  0  0  0
   -4.2489    2.9672    0.0000 N   0  0  0  0  0  0  0  0  0  0  0  0
   -3.6388    1.5969    0.0000 N   0  0  0  0  0  0  0  0  0  0  0  0
   -4.3888    0.2979    0.0000 C   0  0  0  0  0  0  0  0  0  0  0  0
   -5.8888    0.2979    0.0000 C   0  0  0  0  0  0  0  0  0  0  0  0
   -6.6388   -1.0012    0.0000 C   0  0  0  0  0  0  0  0  0  0  0  0
   -5.8888   -2.3002    0.0000 C   0  0  0  0  0  0  0  0  0  0  0  0
   -6.6388   -3.5992    0.0000 S   0  0  0  0  0  0  0  0  0  0  0  0
   -7.3888   -4.8983    0.0000 N   0  0  0  0  0  0  0  0  0  0  0  0
   -7.9378   -2.8492    0.0000 O   0  0  0  0  0  0  0  0  0  0  0  0
   -5.3397   -4.3492    0.0000 O   0  0  0  0  0  0  0  0  0  0  0  0
   -4.3888   -2.3002    0.0000 C   0  0  0  0  0  0  0  0  0  0  0  0
   -3.6388   -1.0012    0.0000 C   0  0  0  0  0  0  0  0  0  0  0  0
   -2.1470    1.7537    0.0000 C   0  0  0  0  0  0  0  0  0  0  0  0
   -1.8351    3.2209    0.0000 C   0  0  0  0  0  0  0  0  0  0  0  0
   -0.4086    3.6844    0.0000 C   0  0  0  0  0  0  0  0  0  0  0  0
    0.7062    2.6807    0.0000 C   0  0  0  0  0  0  0  0  0  0  0  0
    0.3943    1.2135    0.0000 C   0  0  0  0  0  0  0  0  0  0  0  0
    1.2760    0.0000    0.0000 N   0  0  0  0  0  0  0  0  0  0  0  0
    0.3943   -1.2135    0.0000 N   0  0  0  0  0  0  0  0  0  0  0  0
   -1.0323   -0.7500    0.0000 C   0  0  0  0  0  0  0  0  0  0  0  0
   -1.0323    0.7500    0.0000 C   0  0  0  0  0  0  0  0  0  0  0  0
  1  2  1  0
  2  3  2  0
  2  4  1  0
  4  5  2  0
  5  6  1  0
  6  7  1  0
  7  8  2  0
  8  9  1  0
  9 10  2  0
 10 11  1  0
 11 12  1  0
 11 13  2  0
 11 14  2  0
 10 15  1  0
 15 16  2  0
  6 17  1  0
 17 18  2  0
 18 19  1  0
 19 20  1  0
 20 21  1  0
 21 22  1  0
 22 23  1  0
 23 24  2  0
 24 25  1  0
 18  4  1  0
 25 21  2  0
 16  7  1  0
 25 17  1  0
M  END
>  <Compound_ID>  (8) 
CHEMBL361862

>  <Active>  (8) 
1.0

>  <Smiles>  (8) 
NC(=O)c1nn(-c2ccc(S(N)(=O)=O)cc2)c2c1CCc1[nH]ncc1-2

>  <canonical_smi>  (8) 
NC(=O)c1nn(-c2ccc(S(N)(=O)=O)cc2)c2c1CCc1[nH]ncc1-2

>  <Set>  (8) 
G1 active

>  <Set_type>  (8) 
G1

>  <MW>  (8) 
358.38

>  <HBD>  (8) 
3

>  <HBA>  (8) 
5

>  <NRB>  (8) 
3

>  <NR>  (8) 
4

>  <NAR>  (8) 
3

>  <PSA>  (8) 
149.75

>  <Standard Type>  (8) 
nan

>  <Standard Relation>  (8) 
nan

>  <Standard Units>  (8) 
nan

>  <Standard Value>  (8) 
nan

>  <Assay ChEMBL ID>  (8) 
nan

>  <Assay Description>  (8) 
nan

>  <BAO Label>  (8) 
nan

$$$$

     RDKit          2D

 35 39  0  0  0  0  0  0  0  0999 V2000
   -8.8265   -8.2500    0.0000 C   0  0  0  0  0  0  0  0  0  0  0  0
   -8.8265   -6.7500    0.0000 N   0  0  0  0  0  0  0  0  0  0  0  0
  -10.1256   -6.0000    0.0000 C   0  0  0  0  0  0  0  0  0  0  0  0
   -7.5275   -6.0000    0.0000 S   0  0  0  0  0  0  0  0  0  0  0  0
   -8.2775   -4.7010    0.0000 O   0  0  0  0  0  0  0  0  0  0  0  0
   -6.7775   -7.2990    0.0000 O   0  0  0  0  0  0  0  0  0  0  0  0
   -6.2284   -5.2500    0.0000 C   0  0  0  0  0  0  0  0  0  0  0  0
   -6.2284   -3.7500    0.0000 C   0  0  0  0  0  0  0  0  0  0  0  0
   -4.9294   -3.0000    0.0000 C   0  0  0  0  0  0  0  0  0  0  0  0
   -3.6304   -3.7500    0.0000 C   0  0  0  0  0  0  0  0  0  0  0  0
   -2.3313   -3.0000    0.0000 N   0  0  0  0  0  0  0  0  0  0  0  0
   -2.3313   -1.5000    0.0000 C   0  0  0  0  0  0  0  0  0  0  0  0
   -3.6304   -0.7500    0.0000 C   0  0  0  0  0  0  0  0  0  0  0  0
   -3.6304    0.7500    0.0000 C   0  0  0  0  0  0  0  0  0  0  0  0
   -4.9294    1.5000    0.0000 N   0  0  0  0  0  0  0  0  0  0  0  0
   -4.9294    3.0000    0.0000 C   0  0  0  0  0  0  0  0  0  0  0  0
   -3.6304    3.7500    0.0000 C   0  0  0  0  0  0  0  0  0  0  0  0
   -3.6304    5.2500    0.0000 C   0  0  0  0  0  0  0  0  0  0  0  0
   -4.9294    6.0000    0.0000 C   0  0  0  0  0  0  0  0  0  0  0  0
   -4.9294    7.5000    0.0000 N   0  0  0  0  0  0  0  0  0  0  0  0
   -6.2284    5.2500    0.0000 C   0  0  0  0  0  0  0  0  0  0  0  0
   -6.2284    3.7500    0.0000 C   0  0  0  0  0  0  0  0  0  0  0  0
   -2.3313    1.5000    0.0000 N   0  0  0  0  0  0  0  0  0  0  0  0
   -1.0323    0.7500    0.0000 C   0  0  0  0  0  0  0  0  0  0  0  0
    0.3943    1.2135    0.0000 C   0  0  0  0  0  0  0  0  0  0  0  0
    0.8578    2.6401    0.0000 C   0  0  0  0  0  0  0  0  0  0  0  0
   -0.0239    3.8536    0.0000 C   0  0  0  0  0  0  0  0  0  0  0  0
    0.8578    5.0672    0.0000 C   0  0  0  0  0  0  0  0  0  0  0  0
    2.2844    4.6036    0.0000 C   0  0  0  0  0  0  0  0  0  0  0  0
    2.2844    3.1036    0.0000 C   0  0  0  0  0  0  0  0  0  0  0  0
    1.2760    0.0000    0.0000 C   0  0  0  0  0  0  0  0  0  0  0  0
    0.3943   -1.2135    0.0000 N   0  0  0  0  0  0  0  0  0  0  0  0
   -1.0323   -0.7500    0.0000 N   0  0  0  0  0  0  0  0  0  0  0  0
   -3.6304   -5.2500    0.0000 C   0  0  0  0  0  0  0  0  0  0  0  0
   -4.9294   -6.0000    0.0000 C   0  0  0  0  0  0  0  0  0  0  0  0
  1  2  1  0
  2  3  1  0
  2  4  1  0
  4  5  2  0
  4  6  2  0
  4  7  1  0
  7  8  2  0
  8  9  1  0
  9 10  2  0
 10 11  1  0
 11 12  1  0
 12 13  2  0
 13 14  1  0
 14 15  1  0
 15 16  1  0
 16 17  1  0
 17 18  1  0
 18 19  1  0
 19 20  1  0
 19 21  1  0
 21 22  1  0
 14 23  2  0
 23 24  1  0
 24 25  2  0
 25 26  1  0
 26 27  1  0
 27 28  1  0
 28 29  1  0
 29 30  1  0
 25 31  1  0
 31 32  2  0
 32 33  1  0
 10 34  1  0
 34 35  2  0
 35  7  1  0
 33 12  1  0
 22 16  1  0
 33 24  1  0
 30 26  1  0
M  END
>  <Compound_ID>  (9) 
CHEMBL178179

>  <Active>  (9) 
1.0

>  <Smiles>  (9) 
CN(C)S(=O)(=O)c1ccc(Nc2cc(NC3CCC(N)CC3)nc3c(C4CCCC4)cnn23)cc1

>  <canonical_smi>  (9) 
CN(C)S(=O)(=O)c1ccc(Nc2cc(NC3CCC(N)CC3)nc3c(C4CCCC4)cnn23)cc1

>  <Set>  (9) 
G1 active

>  <Set_type>  (9) 
G1

>  <MW>  (9) 
497.67

>  <HBD>  (9) 
3

>  <HBA>  (9) 
7

>  <NRB>  (9) 
7

>  <NR>  (9) 
5

>  <NAR>  (9) 
3

>  <PSA>  (9) 
117.65

>  <Standard Type>  (9) 
nan

>  <Standard Relation>  (9) 
nan

>  <Standard Units>  (9) 
nan

>  <Standard Value>  (9) 
nan

>  <Assay ChEMBL ID>  (9) 
nan

>  <Assay Description>  (9) 
nan

>  <BAO Label>  (9) 
nan

$$$$

     RDKit          2D

 28 32  0  0  0  0  0  0  0  0999 V2000
    3.3287    1.8373    0.0000 O   0  0  0  0  0  0  0  0  0  0  0  0
    2.3250    2.9520    0.0000 C   0  0  0  0  0  0  0  0  0  0  0  0
    0.8578    2.6401    0.0000 N   0  0  0  0  0  0  0  0  0  0  0  0
    0.3943    1.2135    0.0000 C   0  0  0  0  0  0  0  0  0  0  0  0
    1.2760    0.0000    0.0000 N   0  0  0  0  0  0  0  0  0  0  0  0
    0.3943   -1.2135    0.0000 N   0  0  0  0  0  0  0  0  0  0  0  0
   -1.0323   -0.7500    0.0000 C   0  0  0  0  0  0  0  0  0  0  0  0
   -2.3313   -1.5000    0.0000 N   0  0  0  0  0  0  0  0  0  0  0  0
   -3.6304   -0.7500    0.0000 C   0  0  0  0  0  0  0  0  0  0  0  0
   -4.9294   -1.5000    0.0000 C   0  0  0  0  0  0  0  0  0  0  0  0
   -6.2284   -0.7500    0.0000 C   0  0  0  0  0  0  0  0  0  0  0  0
   -7.5275   -1.5000    0.0000 C   0  0  0  0  0  0  0  0  0  0  0  0
   -7.5275   -3.0000    0.0000 C   0  0  0  0  0  0  0  0  0  0  0  0
   -8.8265   -3.7500    0.0000 O   0  0  0  0  0  0  0  0  0  0  0  0
   -6.2284   -3.7500    0.0000 C   0  0  0  0  0  0  0  0  0  0  0  0
   -4.9294   -3.0000    0.0000 C   0  0  0  0  0  0  0  0  0  0  0  0
   -3.6304    0.7500    0.0000 C   0  0  0  0  0  0  0  0  0  0  0  0
   -4.9294    1.5000    0.0000 C   0  0  0  0  0  0  0  0  0  0  0  0
   -4.9294    3.0000    0.0000 C   0  0  0  0  0  0  0  0  0  0  0  0
   -6.2284    3.7500    0.0000 C   0  0  0  0  0  0  0  0  0  0  0  0
   -7.5275    3.0000    0.0000 C   0  0  0  0  0  0  0  0  0  0  0  0
   -7.5275    1.5000    0.0000 C   0  0  0  0  0  0  0  0  0  0  0  0
   -6.2284    0.7500    0.0000 C   0  0  0  0  0  0  0  0  0  0  0  0
   -2.3313    1.5000    0.0000 C   0  0  0  0  0  0  0  0  0  0  0  0
   -1.0323    0.7500    0.0000 C   0  0  0  0  0  0  0  0  0  0  0  0
    2.7886    4.3786    0.0000 C   0  0  0  0  0  0  0  0  0  0  0  0
    2.4767    5.8458    0.0000 C   0  0  0  0  0  0  0  0  0  0  0  0
    3.9033    5.3823    0.0000 C   0  0  0  0  0  0  0  0  0  0  0  0
  1  2  2  0
  2  3  1  0
  3  4  1  0
  4  5  2  0
  5  6  1  0
  6  7  1  0
  7  8  2  0
  8  9  1  0
  9 10  1  0
 10 11  2  0
 11 12  1  0
 12 13  2  0
 13 14  1  0
 13 15  1  0
 15 16  2  0
  9 17  2  0
 17 18  1  0
 18 19  2  0
 19 20  1  0
 20 21  2  0
 21 22  1  0
 22 23  2  0
 17 24  1  0
 24 25  2  0
  2 26  1  0
 26 27  1  0
 27 28  1  0
 25  4  1  0
 28 26  1  0
 25  7  1  0
 16 10  1  0
 23 18  1  0
M  END
>  <Compound_ID>  (10) 
CHEMBL427909

>  <Active>  (10) 
1.0

>  <Smiles>  (10) 
O=C(Nc1n[nH]c2nc(-c3ccc(O)cc3)c(-c3ccccc3)cc12)C1CC1

>  <canonical_smi>  (10) 
O=C(Nc1n[nH]c2nc(-c3ccc(O)cc3)c(-c3ccccc3)cc12)C1CC1

>  <Set>  (10) 
G1 active

>  <Set_type>  (10) 
G1

>  <MW>  (10) 
370.41

>  <HBD>  (10) 
3

>  <HBA>  (10) 
4

>  <NRB>  (10) 
4

>  <NR>  (10) 
5

>  <NAR>  (10) 
4

>  <PSA>  (10) 
90.9

>  <Standard Type>  (10) 
nan

>  <Standard Relation>  (10) 
nan

>  <Standard Units>  (10) 
nan

>  <Standard Value>  (10) 
nan

>  <Assay ChEMBL ID>  (10) 
nan

>  <Assay Description>  (10) 
nan

>  <BAO Label>  (10) 
nan

$$$$

     RDKit          2D

 25 29  0  0  0  0  0  0  0  0999 V2000
   -0.0000   -5.1073    0.0000 O   0  0  0  0  0  0  0  0  0  0  0  0
   -0.0000   -3.6073    0.0000 C   0  0  0  0  0  0  0  0  0  0  0  0
    1.2135   -2.7256    0.0000 N   0  0  0  0  0  0  0  0  0  0  0  0
    0.7500   -1.2990    0.0000 C   0  0  0  0  0  0  0  0  0  0  0  0
    1.5000    0.0000    0.0000 C   0  0  0  0  0  0  0  0  0  0  0  0
    0.7500    1.2990    0.0000 C   0  0  0  0  0  0  0  0  0  0  0  0
   -0.7500    1.2990    0.0000 C   0  0  0  0  0  0  0  0  0  0  0  0
   -1.5000    2.5981    0.0000 F   0  0  0  0  0  0  0  0  0  0  0  0
   -1.5000    0.0000    0.0000 C   0  0  0  0  0  0  0  0  0  0  0  0
   -2.9769   -0.2986    0.0000 C   0  0  0  0  0  0  0  0  0  0  0  0
   -3.8586    0.9150    0.0000 S   0  0  0  0  0  0  0  0  0  0  0  0
   -5.3503    0.7582    0.0000 C   0  0  0  0  0  0  0  0  0  0  0  0
   -6.1003   -0.5409    0.0000 C   0  0  0  0  0  0  0  0  0  0  0  0
   -7.5676   -0.2290    0.0000 C   0  0  0  0  0  0  0  0  0  0  0  0
   -7.7244    1.2628    0.0000 N   0  0  0  0  0  0  0  0  0  0  0  0
   -6.3540    1.8729    0.0000 C   0  0  0  0  0  0  0  0  0  0  0  0
   -3.5870   -1.6689    0.0000 C   0  0  0  0  0  0  0  0  0  0  0  0
   -2.7053   -2.8824    0.0000 C   0  0  0  0  0  0  0  0  0  0  0  0
   -3.3154   -4.2527    0.0000 C   0  0  0  0  0  0  0  0  0  0  0  0
   -2.5654   -5.5518    0.0000 C   0  0  0  0  0  0  0  0  0  0  0  0
   -3.5691   -6.6665    0.0000 C   0  0  0  0  0  0  0  0  0  0  0  0
   -4.9394   -6.0564    0.0000 C   0  0  0  0  0  0  0  0  0  0  0  0
   -4.7826   -4.5646    0.0000 N   0  0  0  0  0  0  0  0  0  0  0  0
   -1.2135   -2.7256    0.0000 C   0  0  0  0  0  0  0  0  0  0  0  0
   -0.7500   -1.2990    0.0000 C   0  0  0  0  0  0  0  0  0  0  0  0
  1  2  2  0
  2  3  1  0
  3  4  1  0
  4  5  2  0
  5  6  1  0
  6  7  2  0
  7  8  1  0
  7  9  1  0
  9 10  2  0
 10 11  1  0
 12 11  1  1
 12 13  1  0
 13 14  1  0
 14 15  1  0
 15 16  1  0
 10 17  1  0
 17 18  2  0
 18 19  1  0
 19 20  2  0
 20 21  1  0
 21 22  2  0
 22 23  1  0
 18 24  1  0
 24 25  2  0
 24  2  1  0
 25  4  1  0
 25  9  1  0
 16 12  1  0
 23 19  1  0
M  END
>  <Compound_ID>  (11) 
CHEMBL79498

>  <Active>  (11) 
1.0

>  <Smiles>  (11) 
O=C1Nc2ccc(F)c3c(S[C@H]4CCNC4)cc(-c4ccc[nH]4)c1c23

>  <canonical_smi>  (11) 
O=C1Nc2ccc(F)c3c(S[C@H]4CCNC4)cc(-c4ccc[nH]4)c1c23

>  <Set>  (11) 
G1 active

>  <Set_type>  (11) 
G1

>  <MW>  (11) 
353.42

>  <HBD>  (11) 
3

>  <HBA>  (11) 
3

>  <NRB>  (11) 
3

>  <NR>  (11) 
5

>  <NAR>  (11) 
3

>  <PSA>  (11) 
56.92

>  <Standard Type>  (11) 
nan

>  <Standard Relation>  (11) 
nan

>  <Standard Units>  (11) 
nan

>  <Standard Value>  (11) 
nan

>  <Assay ChEMBL ID>  (11) 
nan

>  <Assay Description>  (11) 
nan

>  <BAO Label>  (11) 
nan

$$$$

     RDKit          2D

 25 27  0  0  0  0  0  0  0  0999 V2000
    7.5000   -2.5981    0.0000 O   0  0  0  0  0  0  0  0  0  0  0  0
    6.0000   -2.5981    0.0000 C   0  0  0  0  0  0  0  0  0  0  0  0
    5.2500   -1.2990    0.0000 C   0  0  0  0  0  0  0  0  0  0  0  0
    3.7500   -1.2990    0.0000 C   0  0  0  0  0  0  0  0  0  0  0  0
    3.0000    0.0000    0.0000 N   0  0  0  0  0  0  0  0  0  0  0  0
    1.5000    0.0000    0.0000 C   0  0  0  0  0  0  0  0  0  0  0  0
    0.7500   -1.2990    0.0000 C   0  0  0  0  0  0  0  0  0  0  0  0
   -0.7500   -1.2990    0.0000 C   0  0  0  0  0  0  0  0  0  0  0  0
   -1.5000   -2.5981    0.0000 C   0  0  0  0  0  0  0  0  0  0  0  0
   -3.0000   -2.5981    0.0000 N   0  0  0  0  0  0  0  0  0  0  0  0
   -3.7500   -3.8971    0.0000 C   0  0  0  0  0  0  0  0  0  0  0  0
   -3.0000   -5.1962    0.0000 N   0  0  0  0  0  0  0  0  0  0  0  0
   -1.5000   -5.1962    0.0000 C   0  0  0  0  0  0  0  0  0  0  0  0
   -0.7500   -6.4952    0.0000 N   0  0  0  0  0  0  0  0  0  0  0  0
   -1.5000   -7.7942    0.0000 C   0  0  0  0  0  0  0  0  0  0  0  0
   -3.0000   -7.7942    0.0000 C   0  0  0  0  0  0  0  0  0  0  0  0
   -3.7500   -9.0933    0.0000 C   0  0  0  0  0  0  0  0  0  0  0  0
   -3.0000  -10.3923    0.0000 C   0  0  0  0  0  0  0  0  0  0  0  0
   -1.5000  -10.3923    0.0000 C   0  0  0  0  0  0  0  0  0  0  0  0
   -0.7500  -11.6913    0.0000 Cl  0  0  0  0  0  0  0  0  0  0  0  0
   -0.7500   -9.0933    0.0000 C   0  0  0  0  0  0  0  0  0  0  0  0
   -0.7500   -3.8971    0.0000 N   0  0  0  0  0  0  0  0  0  0  0  0
   -1.5000    0.0000    0.0000 C   0  0  0  0  0  0  0  0  0  0  0  0
   -0.7500    1.2990    0.0000 C   0  0  0  0  0  0  0  0  0  0  0  0
    0.7500    1.2990    0.0000 N   0  0  0  0  0  0  0  0  0  0  0  0
  1  2  1  0
  2  3  1  0
  3  4  1  0
  4  5  1  0
  5  6  1  0
  6  7  2  0
  7  8  1  0
  8  9  1  0
  9 10  2  0
 10 11  1  0
 11 12  2  0
 12 13  1  0
 13 14  1  0
 14 15  1  0
 15 16  2  0
 16 17  1  0
 17 18  2  0
 18 19  1  0
 19 20  1  0
 19 21  2  0
 13 22  2  0
  8 23  2  0
 23 24  1  0
 24 25  2  0
 25  6  1  0
 22  9  1  0
 21 15  1  0
M  END
>  <Compound_ID>  (12) 
CHEMBL191336

>  <Active>  (12) 
1.0

>  <Smiles>  (12) 
OCCCNc1cc(-c2ncnc(Nc3cccc(Cl)c3)n2)ccn1

>  <canonical_smi>  (12) 
OCCCNc1cc(-c2ncnc(Nc3cccc(Cl)c3)n2)ccn1

>  <Set>  (12) 
G1 active

>  <Set_type>  (12) 
G1

>  <MW>  (12) 
356.82

>  <HBD>  (12) 
3

>  <HBA>  (12) 
7

>  <NRB>  (12) 
7

>  <NR>  (12) 
3

>  <NAR>  (12) 
3

>  <PSA>  (12) 
95.85

>  <Standard Type>  (12) 
nan

>  <Standard Relation>  (12) 
nan

>  <Standard Units>  (12) 
nan

>  <Standard Value>  (12) 
nan

>  <Assay ChEMBL ID>  (12) 
nan

>  <Assay Description>  (12) 
nan

>  <BAO Label>  (12) 
nan

$$$$

     RDKit          2D

 28 32  0  0  0  0  0  0  0  0999 V2000
    1.0037   -4.7220    0.0000 O   0  0  0  0  0  0  0  0  0  0  0  0
   -0.0000   -3.6073    0.0000 S   0  0  0  0  0  0  0  0  0  0  0  0
   -1.0037   -4.7220    0.0000 O   0  0  0  0  0  0  0  0  0  0  0  0
    1.2135   -2.7256    0.0000 C   0  0  0  0  0  0  0  0  0  0  0  0
    0.7500   -1.2990    0.0000 C   0  0  0  0  0  0  0  0  0  0  0  0
    1.5000    0.0000    0.0000 C   0  0  0  0  0  0  0  0  0  0  0  0
    0.7500    1.2990    0.0000 C   0  0  0  0  0  0  0  0  0  0  0  0
   -0.7500    1.2990    0.0000 C   0  0  0  0  0  0  0  0  0  0  0  0
   -1.5000    2.5981    0.0000 N   0  0  0  0  0  0  0  0  0  0  0  0
   -0.7500    3.8971    0.0000 C   0  0  0  0  0  0  0  0  0  0  0  0
   -1.5000    5.1962    0.0000 C   0  0  0  0  0  0  0  0  0  0  0  0
   -2.9918    5.3529    0.0000 C   0  0  0  0  0  0  0  0  0  0  0  0
   -3.9955    4.2382    0.0000 O   0  0  0  0  0  0  0  0  0  0  0  0
   -3.3037    6.8202    0.0000 N   0  0  0  0  0  0  0  0  0  0  0  0
   -2.0046    7.5702    0.0000 C   0  0  0  0  0  0  0  0  0  0  0  0
   -1.6927    9.0374    0.0000 C   0  0  0  0  0  0  0  0  0  0  0  0
   -0.2662    9.5009    0.0000 C   0  0  0  0  0  0  0  0  0  0  0  0
    0.8486    8.4972    0.0000 C   0  0  0  0  0  0  0  0  0  0  0  0
    2.2751    8.9607    0.0000 C   0  0  0  0  0  0  0  0  0  0  0  0
    2.7387   10.3873    0.0000 C   0  0  0  0  0  0  0  0  0  0  0  0
    4.2387   10.3873    0.0000 N   0  0  0  0  0  0  0  0  0  0  0  0
    4.7022    8.9607    0.0000 C   0  0  0  0  0  0  0  0  0  0  0  0
    3.4887    8.0791    0.0000 O   0  0  0  0  0  0  0  0  0  0  0  0
    0.5367    7.0300    0.0000 C   0  0  0  0  0  0  0  0  0  0  0  0
   -0.8899    6.5665    0.0000 C   0  0  0  0  0  0  0  0  0  0  0  0
   -1.5000    0.0000    0.0000 C   0  0  0  0  0  0  0  0  0  0  0  0
   -0.7500   -1.2990    0.0000 C   0  0  0  0  0  0  0  0  0  0  0  0
   -1.2135   -2.7256    0.0000 C   0  0  0  0  0  0  0  0  0  0  0  0
  1  2  2  0
  2  3  2  0
  2  4  1  0
  4  5  1  0
  5  6  2  0
  6  7  1  0
  7  8  2  0
  8  9  1  0
  9 10  2  0
 10 11  1  0
 11 12  2  0
 12 13  1  0
 12 14  1  0
 14 15  1  0
 15 16  2  0
 16 17  1  0
 17 18  2  0
 18 19  1  0
 19 20  2  0
 20 21  1  0
 21 22  2  0
 22 23  1  0
 18 24  1  0
 24 25  2  0
  8 26  1  0
 26 27  2  0
 27 28  1  0
 28  2  1  0
 27  5  1  0
 25 11  1  0
 25 15  1  0
 23 19  1  0
M  END
>  <Compound_ID>  (13) 
CHEMBL135029

>  <Active>  (13) 
1.0

>  <Smiles>  (13) 
O=S1(=O)Cc2ccc(/N=C/c3c(O)[nH]c4ccc(-c5cnco5)cc34)cc2C1

>  <canonical_smi>  (13) 
O=S1(=O)Cc2ccc(/N=C/c3c(O)[nH]c4ccc(-c5cnco5)cc34)cc2C1

>  <Set>  (13) 
G1 active

>  <Set_type>  (13) 
G1

>  <MW>  (13) 
393.42

>  <HBD>  (13) 
2

>  <HBA>  (13) 
5

>  <NRB>  (13) 
3

>  <NR>  (13) 
5

>  <NAR>  (13) 
4

>  <PSA>  (13) 
108.55

>  <Standard Type>  (13) 
nan

>  <Standard Relation>  (13) 
nan

>  <Standard Units>  (13) 
nan

>  <Standard Value>  (13) 
nan

>  <Assay ChEMBL ID>  (13) 
nan

>  <Assay Description>  (13) 
nan

>  <BAO Label>  (13) 
nan

$$$$

     RDKit          2D

 31 34  0  0  0  0  0  0  0  0999 V2000
  -10.0849   -6.9740    0.0000 N   0  0  0  0  0  0  0  0  0  0  0  0
   -8.6583   -6.5105    0.0000 S   0  0  0  0  0  0  0  0  0  0  0  0
   -9.1218   -5.0839    0.0000 O   0  0  0  0  0  0  0  0  0  0  0  0
   -8.1948   -7.9371    0.0000 O   0  0  0  0  0  0  0  0  0  0  0  0
   -7.2317   -6.0469    0.0000 C   0  0  0  0  0  0  0  0  0  0  0  0
   -6.9199   -4.5797    0.0000 C   0  0  0  0  0  0  0  0  0  0  0  0
   -5.4933   -4.1162    0.0000 C   0  0  0  0  0  0  0  0  0  0  0  0
   -4.3786   -5.1199    0.0000 C   0  0  0  0  0  0  0  0  0  0  0  0
   -2.9520   -4.6564    0.0000 N   0  0  0  0  0  0  0  0  0  0  0  0
   -2.6401   -3.1891    0.0000 N   0  0  0  0  0  0  0  0  0  0  0  0
   -1.2135   -2.7256    0.0000 C   0  0  0  0  0  0  0  0  0  0  0  0
   -0.0000   -3.6073    0.0000 C   0  0  0  0  0  0  0  0  0  0  0  0
    0.0000   -5.1073    0.0000 O   0  0  0  0  0  0  0  0  0  0  0  0
    1.2135   -2.7256    0.0000 N   0  0  0  0  0  0  0  0  0  0  0  0
    0.7500   -1.2990    0.0000 C   0  0  0  0  0  0  0  0  0  0  0  0
    1.5000    0.0000    0.0000 C   0  0  0  0  0  0  0  0  0  0  0  0
    0.7500    1.2990    0.0000 C   0  0  0  0  0  0  0  0  0  0  0  0
   -0.7500    1.2990    0.0000 C   0  0  0  0  0  0  0  0  0  0  0  0
   -1.5000    0.0000    0.0000 C   0  0  0  0  0  0  0  0  0  0  0  0
   -3.0000    0.0000    0.0000 C   0  0  0  0  0  0  0  0  0  0  0  0
   -3.7500    1.2990    0.0000 C   0  0  0  0  0  0  0  0  0  0  0  0
   -5.2500    1.2990    0.0000 C   0  0  0  0  0  0  0  0  0  0  0  0
   -6.0000    2.5981    0.0000 C   0  0  0  0  0  0  0  0  0  0  0  0
   -7.5000    2.5981    0.0000 C   0  0  0  0  0  0  0  0  0  0  0  0
   -8.2500    1.2990    0.0000 C   0  0  0  0  0  0  0  0  0  0  0  0
   -9.7500    1.2990    0.0000 O   0  0  0  0  0  0  0  0  0  0  0  0
   -7.5000    0.0000    0.0000 C   0  0  0  0  0  0  0  0  0  0  0  0
   -6.0000    0.0000    0.0000 C   0  0  0  0  0  0  0  0  0  0  0  0
   -0.7500   -1.2990    0.0000 C   0  0  0  0  0  0  0  0  0  0  0  0
   -4.6904   -6.5871    0.0000 C   0  0  0  0  0  0  0  0  0  0  0  0
   -6.1170   -7.0506    0.0000 C   0  0  0  0  0  0  0  0  0  0  0  0
  1  2  1  0
  2  3  2  0
  2  4  2  0
  2  5  1  0
  5  6  2  0
  6  7  1  0
  7  8  2  0
  8  9  1  0
  9 10  2  3
 10 11  1  0
 11 12  2  0
 12 13  1  0
 12 14  1  0
 14 15  1  0
 15 16  2  0
 16 17  1  0
 17 18  2  0
 18 19  1  0
 19 20  1  0
 20 21  2  0
 21 22  1  0
 22 23  2  0
 23 24  1  0
 24 25  2  0
 25 26  1  0
 25 27  1  0
 27 28  2  0
 19 29  2  0
  8 30  1  0
 30 31  2  0
 31  5  1  0
 29 11  1  0
 29 15  1  0
 28 22  1  0
M  END
>  <Compound_ID>  (14) 
CHEMBL136397

>  <Active>  (14) 
1.0

>  <Smiles>  (14) 
NS(=O)(=O)c1ccc(N=Nc2c(O)[nH]c3cccc(/C=C/c4ccc(O)cc4)c23)cc1

>  <canonical_smi>  (14) 
NS(=O)(=O)c1ccc(N=Nc2c(O)[nH]c3cccc(/C=C/c4ccc(O)cc4)c23)cc1

>  <Set>  (14) 
G1 active

>  <Set_type>  (14) 
G1

>  <MW>  (14) 
434.48

>  <HBD>  (14) 
4

>  <HBA>  (14) 
4

>  <NRB>  (14) 
5

>  <NR>  (14) 
4

>  <NAR>  (14) 
4

>  <PSA>  (14) 
141.13

>  <Standard Type>  (14) 
nan

>  <Standard Relation>  (14) 
nan

>  <Standard Units>  (14) 
nan

>  <Standard Value>  (14) 
nan

>  <Assay ChEMBL ID>  (14) 
nan

>  <Assay Description>  (14) 
nan

>  <BAO Label>  (14) 
nan

$$$$

     RDKit          2D

 25 28  0  0  0  0  0  0  0  0999 V2000
    1.5000    0.0000    0.0000 C   0  0  0  0  0  0  0  0  0  0  0  0
    0.7500   -1.2990    0.0000 C   0  0  0  0  0  0  0  0  0  0  0  0
   -0.7500   -1.2990    0.0000 C   0  0  0  0  0  0  0  0  0  0  0  0
   -1.5000    0.0000    0.0000 C   0  0  0  0  0  0  0  0  0  0  0  0
   -3.0000    0.0000    0.0000 N   0  0  0  0  0  0  0  0  0  0  0  0
   -3.7500    1.2990    0.0000 C   0  0  0  0  0  0  0  0  0  0  0  0
   -5.2418    1.4558    0.0000 N   0  0  0  0  0  0  0  0  0  0  0  0
   -5.5537    2.9231    0.0000 C   0  0  0  0  0  0  0  0  0  0  0  0
   -4.2546    3.6731    0.0000 C   0  0  0  0  0  0  0  0  0  0  0  0
   -4.0978    5.1648    0.0000 C   0  0  0  0  0  0  0  0  0  0  0  0
   -2.7275    5.7749    0.0000 C   0  0  0  0  0  0  0  0  0  0  0  0
   -2.5707    7.2667    0.0000 C   0  0  0  0  0  0  0  0  0  0  0  0
   -3.7842    8.1484    0.0000 N   0  0  0  0  0  0  0  0  0  0  0  0
   -5.1546    7.5383    0.0000 C   0  0  0  0  0  0  0  0  0  0  0  0
   -6.3681    8.4200    0.0000 O   0  0  0  0  0  0  0  0  0  0  0  0
   -6.2113    9.9118    0.0000 C   0  0  0  0  0  0  0  0  0  0  0  0
   -4.8410   10.5219    0.0000 C   0  0  0  0  0  0  0  0  0  0  0  0
   -4.6842   12.0136    0.0000 C   0  0  0  0  0  0  0  0  0  0  0  0
   -5.8977   12.8953    0.0000 C   0  0  0  0  0  0  0  0  0  0  0  0
   -7.2680   12.2852    0.0000 C   0  0  0  0  0  0  0  0  0  0  0  0
   -7.4248   10.7934    0.0000 C   0  0  0  0  0  0  0  0  0  0  0  0
   -5.3113    6.0465    0.0000 N   0  0  0  0  0  0  0  0  0  0  0  0
   -3.1399    2.6694    0.0000 S   0  0  0  0  0  0  0  0  0  0  0  0
   -0.7500    1.2990    0.0000 N   0  0  0  0  0  0  0  0  0  0  0  0
    0.7500    1.2990    0.0000 C   0  0  0  0  0  0  0  0  0  0  0  0
  1  2  2  0
  2  3  1  0
  3  4  2  0
  4  5  1  0
  5  6  1  0
  6  7  2  0
  7  8  1  0
  8  9  2  0
  9 10  1  0
 10 11  2  0
 11 12  1  0
 12 13  2  0
 13 14  1  0
 14 15  1  0
 15 16  1  0
 16 17  1  0
 17 18  1  0
 18 19  1  0
 19 20  1  0
 20 21  1  0
 14 22  2  0
  9 23  1  0
  4 24  1  0
 24 25  2  0
 25  1  1  0
 23  6  1  0
 22 10  1  0
 21 16  1  0
M  END
>  <Compound_ID>  (15) 
CHEMBL424696

>  <Active>  (15) 
1.0

>  <Smiles>  (15) 
c1ccc(Nc2ncc(-c3ccnc(OC4CCCCC4)n3)s2)nc1

>  <canonical_smi>  (15) 
c1ccc(Nc2ncc(-c3ccnc(OC4CCCCC4)n3)s2)nc1

>  <Set>  (15) 
G1 active

>  <Set_type>  (15) 
G1

>  <MW>  (15) 
353.45

>  <HBD>  (15) 
1

>  <HBA>  (15) 
6

>  <NRB>  (15) 
5

>  <NR>  (15) 
4

>  <NAR>  (15) 
3

>  <PSA>  (15) 
72.82

>  <Standard Type>  (15) 
nan

>  <Standard Relation>  (15) 
nan

>  <Standard Units>  (15) 
nan

>  <Standard Value>  (15) 
nan

>  <Assay ChEMBL ID>  (15) 
nan

>  <Assay Description>  (15) 
nan

>  <BAO Label>  (15) 
nan

$$$$

     RDKit          2D

 33 36  0  0  0  0  0  0  0  0999 V2000
    4.3622    1.1369    0.0000 N   0  0  0  0  0  0  0  0  0  0  0  0
    4.6741    2.6041    0.0000 C   0  0  0  0  0  0  0  0  0  0  0  0
    4.9859    4.0713    0.0000 N   0  0  0  0  0  0  0  0  0  0  0  0
    3.8712    5.0750    0.0000 C   0  0  0  0  0  0  0  0  0  0  0  0
    2.4446    4.6115    0.0000 C   0  0  0  0  0  0  0  0  0  0  0  0
    1.3299    5.6152    0.0000 C   0  0  0  0  0  0  0  0  0  0  0  0
    1.6418    7.0824    0.0000 C   0  0  0  0  0  0  0  0  0  0  0  0
    0.5271    8.0861    0.0000 N   0  0  0  0  0  0  0  0  0  0  0  0
   -0.8995    7.6226    0.0000 C   0  0  0  0  0  0  0  0  0  0  0  0
   -2.0143    8.6263    0.0000 N   0  0  0  0  0  0  0  0  0  0  0  0
   -3.4408    8.1628    0.0000 C   0  0  0  0  0  0  0  0  0  0  0  0
   -3.7527    6.6955    0.0000 C   0  0  0  0  0  0  0  0  0  0  0  0
   -5.1793    6.2320    0.0000 C   0  0  0  0  0  0  0  0  0  0  0  0
   -6.6059    5.7685    0.0000 F   0  0  0  0  0  0  0  0  0  0  0  0
   -5.6428    7.6586    0.0000 F   0  0  0  0  0  0  0  0  0  0  0  0
   -4.7158    4.8054    0.0000 F   0  0  0  0  0  0  0  0  0  0  0  0
   -2.6380    5.6918    0.0000 C   0  0  0  0  0  0  0  0  0  0  0  0
   -2.9499    4.2246    0.0000 N   0  0  0  0  0  0  0  0  0  0  0  0
   -1.8351    3.2209    0.0000 C   0  0  0  0  0  0  0  0  0  0  0  0
   -0.4086    3.6844    0.0000 C   0  0  0  0  0  0  0  0  0  0  0  0
    0.7062    2.6807    0.0000 C   0  0  0  0  0  0  0  0  0  0  0  0
    0.3943    1.2135    0.0000 C   0  0  0  0  0  0  0  0  0  0  0  0
    1.2760    0.0000    0.0000 N   0  0  0  0  0  0  0  0  0  0  0  0
    0.3943   -1.2135    0.0000 C   0  0  0  0  0  0  0  0  0  0  0  0
   -1.0323   -0.7500    0.0000 N   0  0  0  0  0  0  0  0  0  0  0  0
   -1.0323    0.7500    0.0000 C   0  0  0  0  0  0  0  0  0  0  0  0
   -2.1470    1.7537    0.0000 C   0  0  0  0  0  0  0  0  0  0  0  0
   -1.2114    6.1554    0.0000 N   0  0  0  0  0  0  0  0  0  0  0  0
    3.0684    7.5459    0.0000 C   0  0  0  0  0  0  0  0  0  0  0  0
    4.1831    6.5422    0.0000 C   0  0  0  0  0  0  0  0  0  0  0  0
    5.6097    7.0058    0.0000 N   0  0  0  0  0  0  0  0  0  0  0  0
    5.9215    8.4730    0.0000 C   0  0  0  0  0  0  0  0  0  0  0  0
    6.2334    9.9402    0.0000 N   0  0  0  0  0  0  0  0  0  0  0  0
  1  2  3  0
  2  3  1  0
  3  4  1  0
  4  5  2  0
  5  6  1  0
  6  7  2  0
  7  8  1  0
  8  9  1  0
  9 10  2  0
 10 11  1  0
 11 12  2  0
 12 13  1  0
 13 14  1  0
 13 15  1  0
 13 16  1  0
 12 17  1  0
 17 18  1  0
 18 19  1  0
 19 20  2  0
 20 21  1  0
 21 22  2  0
 22 23  1  0
 23 24  1  0
 24 25  2  0
 25 26  1  0
 26 27  2  0
 17 28  2  0
  7 29  1  0
 29 30  2  0
 30 31  1  0
 31 32  1  0
 32 33  3  0
 30  4  1  0
 28  9  1  0
 27 19  1  0
 26 22  1  0
M  END
>  <Compound_ID>  (16) 
CHEMBL195641

>  <Active>  (16) 
1.0

>  <Smiles>  (16) 
N#CNc1ccc(Nc2ncc(C(F)(F)F)c(Nc3ccc4[nH]cnc4c3)n2)cc1NC#N

>  <canonical_smi>  (16) 
N#CNc1ccc(Nc2ncc(C(F)(F)F)c(Nc3ccc4[nH]cnc4c3)n2)cc1NC#N

>  <Set>  (16) 
G1 active

>  <Set_type>  (16) 
G1

>  <MW>  (16) 
450.39

>  <HBD>  (16) 
5

>  <HBA>  (16) 
9

>  <NRB>  (16) 
6

>  <NR>  (16) 
4

>  <NAR>  (16) 
4

>  <PSA>  (16) 
150.16

>  <Standard Type>  (16) 
nan

>  <Standard Relation>  (16) 
nan

>  <Standard Units>  (16) 
nan

>  <Standard Value>  (16) 
nan

>  <Assay ChEMBL ID>  (16) 
nan

>  <Assay Description>  (16) 
nan

>  <BAO Label>  (16) 
nan

$$$$

     RDKit          2D

 24 27  0  0  0  0  0  0  0  0999 V2000
   -0.0967    5.1517    0.0000 C   0  0  0  0  0  0  0  0  0  0  0  0
   -0.4086    3.6844    0.0000 C   0  0  0  0  0  0  0  0  0  0  0  0
    0.7062    2.6807    0.0000 C   0  0  0  0  0  0  0  0  0  0  0  0
    0.3943    1.2135    0.0000 C   0  0  0  0  0  0  0  0  0  0  0  0
    1.2760    0.0000    0.0000 N   0  0  0  0  0  0  0  0  0  0  0  0
    0.3943   -1.2135    0.0000 C   0  0  0  0  0  0  0  0  0  0  0  0
   -1.0323   -0.7500    0.0000 N   0  0  0  0  0  0  0  0  0  0  0  0
   -2.2458   -1.6317    0.0000 C   0  0  0  0  0  0  0  0  0  0  0  0
   -2.0890   -3.1235    0.0000 C   0  0  0  0  0  0  0  0  0  0  0  0
   -0.7187   -3.7336    0.0000 O   0  0  0  0  0  0  0  0  0  0  0  0
   -3.3025   -4.0051    0.0000 N   0  0  0  0  0  0  0  0  0  0  0  0
   -3.1458   -5.4969    0.0000 C   0  0  0  0  0  0  0  0  0  0  0  0
   -1.8467   -6.2469    0.0000 N   0  0  0  0  0  0  0  0  0  0  0  0
   -2.1586   -7.7141    0.0000 C   0  0  0  0  0  0  0  0  0  0  0  0
   -3.6504   -7.8709    0.0000 C   0  0  0  0  0  0  0  0  0  0  0  0
   -4.4004   -9.1700    0.0000 C   0  0  0  0  0  0  0  0  0  0  0  0
   -5.8493   -9.5582    0.0000 C   0  0  0  0  0  0  0  0  0  0  0  0
   -5.4610  -11.0071    0.0000 C   0  0  0  0  0  0  0  0  0  0  0  0
   -4.0121  -10.6189    0.0000 C   0  0  0  0  0  0  0  0  0  0  0  0
   -4.2605   -6.5006    0.0000 S   0  0  0  0  0  0  0  0  0  0  0  0
   -1.0323    0.7500    0.0000 C   0  0  0  0  0  0  0  0  0  0  0  0
   -2.1470    1.7537    0.0000 C   0  0  0  0  0  0  0  0  0  0  0  0
   -1.8351    3.2209    0.0000 C   0  0  0  0  0  0  0  0  0  0  0  0
   -2.9499    4.2246    0.0000 C   0  0  0  0  0  0  0  0  0  0  0  0
  1  2  1  0
  2  3  2  0
  3  4  1  0
  4  5  1  0
  5  6  2  0
  6  7  1  0
  7  8  1  0
  8  9  1  0
  9 10  2  0
  9 11  1  0
 11 12  1  0
 12 13  2  0
 13 14  1  0
 14 15  2  0
 15 16  1  0
 16 17  1  0
 17 18  1  0
 18 19  1  0
 15 20  1  0
  7 21  1  0
 21 22  1  0
 22 23  2  0
 23 24  1  0
 23  2  1  0
 21  4  2  0
 20 12  1  0
 19 16  1  0
M  END
>  <Compound_ID>  (17) 
CHEMBL187903

>  <Active>  (17) 
1.0

>  <Smiles>  (17) 
Cc1cc2ncn(CC(=O)Nc3ncc(C4CCC4)s3)c2cc1C

>  <canonical_smi>  (17) 
Cc1cc2ncn(CC(=O)Nc3ncc(C4CCC4)s3)c2cc1C

>  <Set>  (17) 
G1 active

>  <Set_type>  (17) 
G1

>  <MW>  (17) 
340.45

>  <HBD>  (17) 
1

>  <HBA>  (17) 
3

>  <NRB>  (17) 
4

>  <NR>  (17) 
4

>  <NAR>  (17) 
3

>  <PSA>  (17) 
59.81

>  <Standard Type>  (17) 
nan

>  <Standard Relation>  (17) 
nan

>  <Standard Units>  (17) 
nan

>  <Standard Value>  (17) 
nan

>  <Assay ChEMBL ID>  (17) 
nan

>  <Assay Description>  (17) 
nan

>  <BAO Label>  (17) 
nan

$$$$

     RDKit          2D

 30 33  0  0  0  0  0  0  0  0999 V2000
   -0.0000   -5.1073    0.0000 N   0  0  0  0  0  0  0  0  0  0  0  0
   -0.0000   -3.6073    0.0000 C   0  0  0  0  0  0  0  0  0  0  0  0
    1.2135   -2.7256    0.0000 N   0  0  0  0  0  0  0  0  0  0  0  0
    0.7500   -1.2990    0.0000 C   0  0  0  0  0  0  0  0  0  0  0  0
    1.5000    0.0000    0.0000 C   0  0  0  0  0  0  0  0  0  0  0  0
    0.7500    1.2990    0.0000 C   0  0  0  0  0  0  0  0  0  0  0  0
   -0.7500    1.2990    0.0000 C   0  0  0  0  0  0  0  0  0  0  0  0
   -1.5000    2.5981    0.0000 C   0  0  0  0  0  0  0  0  0  0  0  0
   -3.0000    2.5981    0.0000 O   0  0  0  0  0  0  0  0  0  0  0  0
   -0.7500    3.8971    0.0000 C   0  0  0  0  0  0  0  0  0  0  0  0
    0.7500    3.8971    0.0000 C   0  0  0  0  0  0  0  0  0  0  0  0
    1.5000    2.5981    0.0000 F   0  0  0  0  0  0  0  0  0  0  0  0
    1.5000    5.1962    0.0000 C   0  0  0  0  0  0  0  0  0  0  0  0
    0.7500    6.4952    0.0000 C   0  0  0  0  0  0  0  0  0  0  0  0
   -0.7500    6.4952    0.0000 C   0  0  0  0  0  0  0  0  0  0  0  0
   -1.5000    5.1962    0.0000 C   0  0  0  0  0  0  0  0  0  0  0  0
   -3.0000    5.1962    0.0000 F   0  0  0  0  0  0  0  0  0  0  0  0
   -1.5000    0.0000    0.0000 C   0  0  0  0  0  0  0  0  0  0  0  0
   -0.7500   -1.2990    0.0000 N   0  0  0  0  0  0  0  0  0  0  0  0
   -1.2135   -2.7256    0.0000 C   0  0  0  0  0  0  0  0  0  0  0  0
   -2.6401   -3.1891    0.0000 C   0  0  0  0  0  0  0  0  0  0  0  0
   -2.9520   -4.6564    0.0000 S   0  0  0  0  0  0  0  0  0  0  0  0
   -3.7548   -2.1855    0.0000 C   0  0  0  0  0  0  0  0  0  0  0  0
   -3.4430   -0.7182    0.0000 C   0  0  0  0  0  0  0  0  0  0  0  0
   -2.2981   -0.0028    0.0000 F   0  0  0  0  0  0  0  0  0  0  0  0
   -4.5577    0.2855    0.0000 C   0  0  0  0  0  0  0  0  0  0  0  0
   -5.9843   -0.1781    0.0000 C   0  0  0  0  0  0  0  0  0  0  0  0
   -6.2961   -1.6453    0.0000 C   0  0  0  0  0  0  0  0  0  0  0  0
   -5.1814   -2.6490    0.0000 C   0  0  0  0  0  0  0  0  0  0  0  0
   -5.4933   -4.1162    0.0000 F   0  0  0  0  0  0  0  0  0  0  0  0
  1  2  1  0
  2  3  1  0
  3  4  2  0
  4  5  1  0
  5  6  2  0
  6  7  1  0
  7  8  1  0
  8  9  2  0
  8 10  1  0
 10 11  2  0
 11 12  1  0
 11 13  1  0
 13 14  2  0
 14 15  1  0
 15 16  2  0
 16 17  1  0
  7 18  2  0
 18 19  1  0
 19 20  1  0
 20 21  1  0
 21 22  2  0
 21 23  1  0
 23 24  2  0
 24 25  1  0
 24 26  1  0
 26 27  2  0
 27 28  1  0
 28 29  2  0
 29 30  1  0
 20  2  2  0
 29 23  1  0
 19  4  1  0
 16 10  1  0
M  END
>  <Compound_ID>  (18) 
CHEMBL186163

>  <Active>  (18) 
1.0

>  <Smiles>  (18) 
Nc1nc2ccc(C(=O)c3c(F)cccc3F)cn2c1C(=S)c1c(F)cccc1F

>  <canonical_smi>  (18) 
Nc1nc2ccc(C(=O)c3c(F)cccc3F)cn2c1C(=S)c1c(F)cccc1F

>  <Set>  (18) 
G1 active

>  <Set_type>  (18) 
G1

>  <MW>  (18) 
429.4

>  <HBD>  (18) 
1

>  <HBA>  (18) 
4

>  <NRB>  (18) 
4

>  <NR>  (18) 
4

>  <NAR>  (18) 
4

>  <PSA>  (18) 
60.39

>  <Standard Type>  (18) 
nan

>  <Standard Relation>  (18) 
nan

>  <Standard Units>  (18) 
nan

>  <Standard Value>  (18) 
nan

>  <Assay ChEMBL ID>  (18) 
nan

>  <Assay Description>  (18) 
nan

>  <BAO Label>  (18) 
nan

$$$$

     RDKit          2D

 20 22  0  0  0  0  0  0  0  0999 V2000
    3.7500   -1.2990    0.0000 C   0  0  0  0  0  0  0  0  0  0  0  0
    3.0000    0.0000    0.0000 O   0  0  0  0  0  0  0  0  0  0  0  0
    1.5000    0.0000    0.0000 C   0  0  0  0  0  0  0  0  0  0  0  0
    0.7500   -1.2990    0.0000 C   0  0  0  0  0  0  0  0  0  0  0  0
   -0.7500   -1.2990    0.0000 C   0  0  0  0  0  0  0  0  0  0  0  0
   -1.5000    0.0000    0.0000 C   0  0  0  0  0  0  0  0  0  0  0  0
   -0.7500    1.2990    0.0000 C   0  0  0  0  0  0  0  0  0  0  0  0
   -1.5000    2.5981    0.0000 C   0  0  0  0  0  0  0  0  0  0  0  0
   -0.7500    3.8971    0.0000 C   0  0  0  0  0  0  0  0  0  0  0  0
    0.7500    3.8971    0.0000 O   0  0  0  0  0  0  0  0  0  0  0  0
   -1.5000    5.1962    0.0000 N   0  0  0  0  0  0  0  0  0  0  0  0
   -0.7500    6.4952    0.0000 C   0  0  0  0  0  0  0  0  0  0  0  0
   -1.3601    7.8655    0.0000 C   0  0  0  0  0  0  0  0  0  0  0  0
   -0.2454    8.8692    0.0000 C   0  0  0  0  0  0  0  0  0  0  0  0
   -0.4022   10.3610    0.0000 C   0  0  0  0  0  0  0  0  0  0  0  0
   -1.2839   11.5745    0.0000 C   0  0  0  0  0  0  0  0  0  0  0  0
    0.2079   11.7313    0.0000 C   0  0  0  0  0  0  0  0  0  0  0  0
    1.0537    8.1192    0.0000 N   0  0  0  0  0  0  0  0  0  0  0  0
    0.7418    6.6520    0.0000 N   0  0  0  0  0  0  0  0  0  0  0  0
    0.7500    1.2990    0.0000 C   0  0  0  0  0  0  0  0  0  0  0  0
  1  2  1  0
  2  3  1  0
  3  4  2  0
  4  5  1  0
  5  6  2  0
  6  7  1  0
  7  8  1  0
  8  9  1  0
  9 10  2  0
  9 11  1  0
 11 12  1  0
 12 13  1  0
 13 14  2  0
 14 15  1  0
 15 16  1  0
 16 17  1  0
 14 18  1  0
 18 19  1  0
  7 20  2  0
 20  3  1  0
 19 12  2  0
 17 15  1  0
M  END
>  <Compound_ID>  (19) 
CHEMBL114917

>  <Active>  (19) 
1.0

>  <Smiles>  (19) 
COc1cccc(CC(=O)Nc2cc(C3CC3)[nH]n2)c1

>  <canonical_smi>  (19) 
COc1cccc(CC(=O)Nc2cc(C3CC3)[nH]n2)c1

>  <Set>  (19) 
G1 active

>  <Set_type>  (19) 
G1

>  <MW>  (19) 
271.32

>  <HBD>  (19) 
2

>  <HBA>  (19) 
3

>  <NRB>  (19) 
5

>  <NR>  (19) 
3

>  <NAR>  (19) 
2

>  <PSA>  (19) 
67.01

>  <Standard Type>  (19) 
nan

>  <Standard Relation>  (19) 
nan

>  <Standard Units>  (19) 
nan

>  <Standard Value>  (19) 
nan

>  <Assay ChEMBL ID>  (19) 
nan

>  <Assay Description>  (19) 
nan

>  <BAO Label>  (19) 
nan

$$$$

     RDKit          2D

 30 33  0  0  0  0  0  0  0  0999 V2000
    6.4125    4.5348    0.0000 C   0  0  0  0  0  0  0  0  0  0  0  0
    4.9859    4.0713    0.0000 N   0  0  0  0  0  0  0  0  0  0  0  0
    4.6741    2.6041    0.0000 C   0  0  0  0  0  0  0  0  0  0  0  0
    3.2475    2.1406    0.0000 C   0  0  0  0  0  0  0  0  0  0  0  0
    2.1328    3.1443    0.0000 C   0  0  0  0  0  0  0  0  0  0  0  0
    0.7062    2.6807    0.0000 C   0  0  0  0  0  0  0  0  0  0  0  0
   -0.4086    3.6844    0.0000 C   0  0  0  0  0  0  0  0  0  0  0  0
   -0.0967    5.1517    0.0000 O   0  0  0  0  0  0  0  0  0  0  0  0
   -1.8351    3.2209    0.0000 C   0  0  0  0  0  0  0  0  0  0  0  0
   -2.1470    1.7537    0.0000 C   0  0  0  0  0  0  0  0  0  0  0  0
   -3.5736    1.2902    0.0000 O   0  0  0  0  0  0  0  0  0  0  0  0
   -1.0323    0.7500    0.0000 C   0  0  0  0  0  0  0  0  0  0  0  0
    0.3943    1.2135    0.0000 C   0  0  0  0  0  0  0  0  0  0  0  0
    1.2760    0.0000    0.0000 O   0  0  0  0  0  0  0  0  0  0  0  0
    0.3943   -1.2135    0.0000 C   0  0  0  0  0  0  0  0  0  0  0  0
    0.8578   -2.6401    0.0000 C   0  0  0  0  0  0  0  0  0  0  0  0
    2.3250   -2.9520    0.0000 C   0  0  0  0  0  0  0  0  0  0  0  0
    2.7886   -4.3786    0.0000 C   0  0  0  0  0  0  0  0  0  0  0  0
    4.2558   -4.6904    0.0000 C   0  0  0  0  0  0  0  0  0  0  0  0
    5.2595   -3.5757    0.0000 C   0  0  0  0  0  0  0  0  0  0  0  0
    6.7267   -3.8876    0.0000 S   0  0  0  0  0  0  0  0  0  0  0  0
    8.1939   -4.1994    0.0000 N   0  0  0  0  0  0  0  0  0  0  0  0
    6.4148   -5.3548    0.0000 O   0  0  0  0  0  0  0  0  0  0  0  0
    7.0386   -2.4204    0.0000 O   0  0  0  0  0  0  0  0  0  0  0  0
    4.7960   -2.1491    0.0000 C   0  0  0  0  0  0  0  0  0  0  0  0
    3.3287   -1.8373    0.0000 C   0  0  0  0  0  0  0  0  0  0  0  0
   -1.0323   -0.7500    0.0000 C   0  0  0  0  0  0  0  0  0  0  0  0
   -2.2458   -1.6317    0.0000 O   0  0  0  0  0  0  0  0  0  0  0  0
    2.4446    4.6115    0.0000 C   0  0  0  0  0  0  0  0  0  0  0  0
    3.8712    5.0750    0.0000 C   0  0  0  0  0  0  0  0  0  0  0  0
  1  2  1  0
  2  3  1  0
  3  4  1  0
  4  5  1  0
  5  6  1  0
  6  7  2  0
  7  8  1  0
  7  9  1  0
  9 10  2  0
 10 11  1  0
 10 12  1  0
 12 13  2  0
 13 14  1  0
 14 15  1  0
 15 16  2  0
 16 17  1  0
 17 18  2  0
 18 19  1  0
 19 20  2  0
 20 21  1  0
 21 22  1  0
 21 23  2  0
 21 24  2  0
 20 25  1  0
 25 26  2  0
 15 27  1  0
 27 28  2  0
  5 29  1  0
 29 30  1  0
 30  2  1  0
 13  6  1  0
 26 17  1  0
 27 12  1  0
M  END
>  <Compound_ID>  (20) 
CHEMBL48362

>  <Active>  (20) 
1.0

>  <Smiles>  (20) 
CN1CCC(c2c(O)cc(O)c3c2O/C(=C\c2ccc(S(N)(=O)=O)cc2)C3=O)CC1

>  <canonical_smi>  (20) 
CN1CCC(c2c(O)cc(O)c3c2O/C(=C\c2ccc(S(N)(=O)=O)cc2)C3=O)CC1

>  <Set>  (20) 
G1 active

>  <Set_type>  (20) 
G1

>  <MW>  (20) 
430.48

>  <HBD>  (20) 
3

>  <HBA>  (20) 
7

>  <NRB>  (20) 
3

>  <NR>  (20) 
4

>  <NAR>  (20) 
2

>  <PSA>  (20) 
130.16

>  <Standard Type>  (20) 
nan

>  <Standard Relation>  (20) 
nan

>  <Standard Units>  (20) 
nan

>  <Standard Value>  (20) 
nan

>  <Assay ChEMBL ID>  (20) 
nan

>  <Assay Description>  (20) 
nan

>  <BAO Label>  (20) 
nan

$$$$

     RDKit          2D

 34 38  0  0  0  0  0  0  0  0999 V2000
   -4.0819    0.6918    0.0000 C   0  0  0  0  0  0  0  0  0  0  0  0
   -2.9672   -0.3119    0.0000 N   0  0  0  0  0  0  0  0  0  0  0  0
   -3.1240   -1.8037    0.0000 C   0  0  0  0  0  0  0  0  0  0  0  0
   -1.7537   -2.4138    0.0000 C   0  0  0  0  0  0  0  0  0  0  0  0
   -1.4418   -3.8810    0.0000 C   0  0  0  0  0  0  0  0  0  0  0  0
   -2.5565   -4.8847    0.0000 C   0  0  0  0  0  0  0  0  0  0  0  0
   -4.0238   -4.5728    0.0000 O   0  0  0  0  0  0  0  0  0  0  0  0
   -4.7738   -5.8718    0.0000 C   0  0  0  0  0  0  0  0  0  0  0  0
   -6.2410   -6.1837    0.0000 C   0  0  0  0  0  0  0  0  0  0  0  0
   -6.7045   -7.6103    0.0000 C   0  0  0  0  0  0  0  0  0  0  0  0
   -5.7008   -8.7250    0.0000 C   0  0  0  0  0  0  0  0  0  0  0  0
   -4.2336   -8.4131    0.0000 C   0  0  0  0  0  0  0  0  0  0  0  0
   -3.2299   -9.5279    0.0000 O   0  0  0  0  0  0  0  0  0  0  0  0
   -3.7701   -6.9866    0.0000 C   0  0  0  0  0  0  0  0  0  0  0  0
   -2.3998   -6.3765    0.0000 C   0  0  0  0  0  0  0  0  0  0  0  0
   -1.1007   -7.1265    0.0000 O   0  0  0  0  0  0  0  0  0  0  0  0
   -0.7500   -1.2990    0.0000 C   0  0  0  0  0  0  0  0  0  0  0  0
    0.7500   -1.2990    0.0000 C   0  0  0  0  0  0  0  0  0  0  0  0
    1.5000   -2.5981    0.0000 C   0  0  0  0  0  0  0  0  0  0  0  0
    0.7500   -3.8971    0.0000 C   0  0  0  0  0  0  0  0  0  0  0  0
    1.5000   -5.1962    0.0000 C   0  0  0  0  0  0  0  0  0  0  0  0
    3.0000   -5.1962    0.0000 C   0  0  0  0  0  0  0  0  0  0  0  0
    3.7500   -6.4952    0.0000 C   0  0  0  0  0  0  0  0  0  0  0  0
    5.2500   -6.4952    0.0000 O   0  0  0  0  0  0  0  0  0  0  0  0
    3.0000   -7.7942    0.0000 N   0  0  0  0  0  0  0  0  0  0  0  0
    3.7500   -9.0933    0.0000 C   0  0  0  0  0  0  0  0  0  0  0  0
    3.0000  -10.3923    0.0000 C   0  0  0  0  0  0  0  0  0  0  0  0
    3.7500  -11.6913    0.0000 O   0  0  0  0  0  0  0  0  0  0  0  0
    3.7500   -3.8971    0.0000 C   0  0  0  0  0  0  0  0  0  0  0  0
    3.0000   -2.5981    0.0000 C   0  0  0  0  0  0  0  0  0  0  0  0
    1.5000    0.0000    0.0000 C   0  0  0  0  0  0  0  0  0  0  0  0
    0.7500    1.2990    0.0000 C   0  0  0  0  0  0  0  0  0  0  0  0
   -0.7500    1.2990    0.0000 N   0  0  0  0  0  0  0  0  0  0  0  0
   -1.5000    0.0000    0.0000 C   0  0  0  0  0  0  0  0  0  0  0  0
  1  2  1  0
  2  3  1  0
  3  4  2  0
  4  5  1  0
  5  6  2  0
  6  7  1  0
  7  8  1  0
  8  9  2  0
  9 10  1  0
 10 11  2  0
 11 12  1  0
 12 13  1  0
 12 14  2  0
 14 15  1  0
 15 16  2  0
  4 17  1  0
 17 18  2  0
 18 19  1  0
 19 20  2  0
 20 21  1  0
 21 22  2  0
 22 23  1  0
 23 24  2  0
 23 25  1  0
 25 26  1  0
 26 27  1  0
 27 28  1  0
 22 29  1  0
 29 30  2  0
 18 31  1  0
 31 32  2  0
 32 33  1  0
 33 34  2  0
 34  2  1  0
 15  6  1  0
 34 17  1  0
 14  8  1  0
 30 19  1  0
M  END
>  <Compound_ID>  (21) 
CHEMBL1092754

>  <Active>  (21) 
1.0

>  <Smiles>  (21) 
Cn1cc(/C=C2\Oc3cccc(O)c3C2=O)c2c(-c3ccc(C(=O)NCCO)cc3)ccnc21

>  <canonical_smi>  (21) 
Cn1cc(/C=C2\Oc3cccc(O)c3C2=O)c2c(-c3ccc(C(=O)NCCO)cc3)ccnc21

>  <Set>  (21) 
G1 active

>  <Set_type>  (21) 
G1

>  <MW>  (21) 
455.47

>  <HBD>  (21) 
3

>  <HBA>  (21) 
6

>  <NRB>  (21) 
5

>  <NR>  (21) 
5

>  <NAR>  (21) 
4

>  <PSA>  (21) 
113.68

>  <Standard Type>  (21) 
nan

>  <Standard Relation>  (21) 
nan

>  <Standard Units>  (21) 
nan

>  <Standard Value>  (21) 
nan

>  <Assay ChEMBL ID>  (21) 
nan

>  <Assay Description>  (21) 
nan

>  <BAO Label>  (21) 
nan

$$$$

     RDKit          2D

 30 33  0  0  0  0  0  0  0  0999 V2000
   -9.7600  -15.0894    0.0000 C   0  0  0  0  0  0  0  0  0  0  0  0
   -8.2928  -15.4012    0.0000 C   0  0  0  0  0  0  0  0  0  0  0  0
   -7.2891  -14.2865    0.0000 C   0  0  0  0  0  0  0  0  0  0  0  0
   -5.8219  -14.5984    0.0000 C   0  0  0  0  0  0  0  0  0  0  0  0
   -4.8182  -13.4837    0.0000 N   0  0  0  0  0  0  0  0  0  0  0  0
   -3.3510  -13.7955    0.0000 C   0  0  0  0  0  0  0  0  0  0  0  0
   -2.8874  -15.2221    0.0000 O   0  0  0  0  0  0  0  0  0  0  0  0
   -2.3473  -12.6808    0.0000 N   0  0  0  0  0  0  0  0  0  0  0  0
   -0.8555  -12.8376    0.0000 C   0  0  0  0  0  0  0  0  0  0  0  0
   -0.2454  -11.4673    0.0000 C   0  0  0  0  0  0  0  0  0  0  0  0
    1.0537  -10.7173    0.0000 N   0  0  0  0  0  0  0  0  0  0  0  0
    0.7418   -9.2501    0.0000 N   0  0  0  0  0  0  0  0  0  0  0  0
   -0.7500   -9.0933    0.0000 C   0  0  0  0  0  0  0  0  0  0  0  0
   -1.5000   -7.7942    0.0000 N   0  0  0  0  0  0  0  0  0  0  0  0
   -0.7500   -6.4952    0.0000 C   0  0  0  0  0  0  0  0  0  0  0  0
    0.7500   -6.4952    0.0000 O   0  0  0  0  0  0  0  0  0  0  0  0
   -1.5000   -5.1962    0.0000 C   0  0  0  0  0  0  0  0  0  0  0  0
   -3.0000   -5.1962    0.0000 C   0  0  0  0  0  0  0  0  0  0  0  0
   -0.7500   -3.8971    0.0000 C   0  0  0  0  0  0  0  0  0  0  0  0
    0.7500   -3.8971    0.0000 C   0  0  0  0  0  0  0  0  0  0  0  0
    1.5000   -2.5981    0.0000 C   0  0  0  0  0  0  0  0  0  0  0  0
    0.7500   -1.2990    0.0000 C   0  0  0  0  0  0  0  0  0  0  0  0
    1.5000    0.0000    0.0000 C   0  0  0  0  0  0  0  0  0  0  0  0
    0.7500    1.2990    0.0000 C   0  0  0  0  0  0  0  0  0  0  0  0
   -0.7500    1.2990    0.0000 C   0  0  0  0  0  0  0  0  0  0  0  0
   -1.5000    0.0000    0.0000 C   0  0  0  0  0  0  0  0  0  0  0  0
   -0.7500   -1.2990    0.0000 C   0  0  0  0  0  0  0  0  0  0  0  0
   -1.5000   -2.5981    0.0000 C   0  0  0  0  0  0  0  0  0  0  0  0
   -1.3601  -10.4636    0.0000 C   0  0  0  0  0  0  0  0  0  0  0  0
   -2.6591  -11.2136    0.0000 C   0  0  0  0  0  0  0  0  0  0  0  0
  1  2  1  0
  2  3  1  0
  3  4  1  0
  4  5  1  0
  5  6  1  0
  6  7  2  0
  6  8  1  0
  8  9  1  0
  9 10  1  0
 10 11  2  0
 11 12  1  0
 12 13  1  0
 13 14  1  0
 14 15  1  0
 15 16  2  0
 15 17  1  0
 17 18  1  1
 17 19  1  0
 19 20  2  0
 20 21  1  0
 21 22  2  0
 22 23  1  0
 23 24  2  0
 24 25  1  0
 25 26  2  0
 26 27  1  0
 27 28  2  0
 13 29  2  0
 29 30  1  0
 30  8  1  0
 29 10  1  0
 28 19  1  0
 27 22  1  0
M  END
>  <Compound_ID>  (22) 
CHEMBL380946

>  <Active>  (22) 
1.0

>  <Smiles>  (22) 
CCCCNC(=O)N1Cc2n[nH]c(NC(=O)[C@@H](C)c3ccc4ccccc4c3)c2C1

>  <canonical_smi>  (22) 
CCCCNC(=O)N1Cc2n[nH]c(NC(=O)[C@@H](C)c3ccc4ccccc4c3)c2C1

>  <Set>  (22) 
G1 active

>  <Set_type>  (22) 
G1

>  <MW>  (22) 
405.5

>  <HBD>  (22) 
3

>  <HBA>  (22) 
3

>  <NRB>  (22) 
6

>  <NR>  (22) 
4

>  <NAR>  (22) 
3

>  <PSA>  (22) 
90.12

>  <Standard Type>  (22) 
nan

>  <Standard Relation>  (22) 
nan

>  <Standard Units>  (22) 
nan

>  <Standard Value>  (22) 
nan

>  <Assay ChEMBL ID>  (22) 
nan

>  <Assay Description>  (22) 
nan

>  <BAO Label>  (22) 
nan

$$$$

     RDKit          2D

 36 41  0  0  0  0  0  0  0  0999 V2000
    9.7500   -3.8971    0.0000 C   0  0  0  0  0  0  0  0  0  0  0  0
    8.2500   -3.8971    0.0000 N   0  0  0  0  0  0  0  0  0  0  0  0
    7.5000   -5.1962    0.0000 C   0  0  0  0  0  0  0  0  0  0  0  0
    6.0000   -5.1962    0.0000 C   0  0  0  0  0  0  0  0  0  0  0  0
    5.2500   -3.8971    0.0000 N   0  0  0  0  0  0  0  0  0  0  0  0
    3.7500   -3.8971    0.0000 C   0  0  0  0  0  0  0  0  0  0  0  0
    3.0000   -2.5981    0.0000 C   0  0  0  0  0  0  0  0  0  0  0  0
    3.7500   -1.2990    0.0000 O   0  0  0  0  0  0  0  0  0  0  0  0
    1.5000   -2.5981    0.0000 N   0  0  0  0  0  0  0  0  0  0  0  0
    0.7500   -1.2990    0.0000 C   0  0  0  0  0  0  0  0  0  0  0  0
    1.5000    0.0000    0.0000 C   0  0  0  0  0  0  0  0  0  0  0  0
    0.7500    1.2990    0.0000 C   0  0  0  0  0  0  0  0  0  0  0  0
   -0.7500    1.2990    0.0000 C   0  0  0  0  0  0  0  0  0  0  0  0
   -1.5000    0.0000    0.0000 C   0  0  0  0  0  0  0  0  0  0  0  0
   -0.7500   -1.2990    0.0000 C   0  0  0  0  0  0  0  0  0  0  0  0
   -1.7537   -2.4138    0.0000 C   0  0  0  0  0  0  0  0  0  0  0  0
   -1.4418   -3.8810    0.0000 O   0  0  0  0  0  0  0  0  0  0  0  0
   -3.1240   -1.8037    0.0000 C   0  0  0  0  0  0  0  0  0  0  0  0
   -4.5912   -2.1155    0.0000 C   0  0  0  0  0  0  0  0  0  0  0  0
   -5.2013   -3.4858    0.0000 C   0  0  0  0  0  0  0  0  0  0  0  0
   -6.6931   -3.6426    0.0000 C   0  0  0  0  0  0  0  0  0  0  0  0
   -7.3032   -5.0129    0.0000 C   0  0  0  0  0  0  0  0  0  0  0  0
   -6.4216   -6.2265    0.0000 C   0  0  0  0  0  0  0  0  0  0  0  0
   -7.0317   -7.5968    0.0000 N   0  0  0  0  0  0  0  0  0  0  0  0
   -8.5234   -7.7536    0.0000 C   0  0  0  0  0  0  0  0  0  0  0  0
   -9.1335   -9.1239    0.0000 C   0  0  0  0  0  0  0  0  0  0  0  0
   -8.2519  -10.3374    0.0000 O   0  0  0  0  0  0  0  0  0  0  0  0
   -6.7601  -10.1806    0.0000 C   0  0  0  0  0  0  0  0  0  0  0  0
   -6.1500   -8.8103    0.0000 C   0  0  0  0  0  0  0  0  0  0  0  0
   -4.9298   -6.0697    0.0000 C   0  0  0  0  0  0  0  0  0  0  0  0
   -4.3197   -4.6994    0.0000 C   0  0  0  0  0  0  0  0  0  0  0  0
   -5.3412   -0.8165    0.0000 N   0  0  0  0  0  0  0  0  0  0  0  0
   -4.3375    0.2982    0.0000 N   0  0  0  0  0  0  0  0  0  0  0  0
   -2.9672   -0.3119    0.0000 C   0  0  0  0  0  0  0  0  0  0  0  0
    6.0000   -2.5981    0.0000 C   0  0  0  0  0  0  0  0  0  0  0  0
    7.5000   -2.5981    0.0000 C   0  0  0  0  0  0  0  0  0  0  0  0
  1  2  1  0
  2  3  1  0
  3  4  1  0
  4  5  1  0
  5  6  1  0
  6  7  1  0
  7  8  2  0
  7  9  1  0
  9 10  1  0
 10 11  2  0
 11 12  1  0
 12 13  2  0
 13 14  1  0
 14 15  2  0
 15 16  1  0
 16 17  2  0
 16 18  1  0
 18 19  1  0
 19 20  1  0
 20 21  2  0
 21 22  1  0
 22 23  2  0
 23 24  1  0
 24 25  1  0
 25 26  1  0
 26 27  1  0
 27 28  1  0
 28 29  1  0
 23 30  1  0
 30 31  2  0
 19 32  2  0
 32 33  1  0
 33 34  1  0
  5 35  1  0
 35 36  1  0
 36  2  1  0
 15 10  1  0
 34 18  2  0
 34 14  1  0
 31 20  1  0
 29 24  1  0
M  END
>  <Compound_ID>  (23) 
CHEMBL147184

>  <Active>  (23) 
1.0

>  <Smiles>  (23) 
CN1CCN(CC(=O)Nc2cccc3c2C(=O)c2c(-c4ccc(N5CCOCC5)cc4)n[nH]c2-3)CC1

>  <canonical_smi>  (23) 
CN1CCN(CC(=O)Nc2cccc3c2C(=O)c2c(-c4ccc(N5CCOCC5)cc4)n[nH]c2-3)CC1

>  <Set>  (23) 
G1 active

>  <Set_type>  (23) 
G1

>  <MW>  (23) 
486.58

>  <HBD>  (23) 
2

>  <HBA>  (23) 
7

>  <NRB>  (23) 
5

>  <NR>  (23) 
6

>  <NAR>  (23) 
4

>  <PSA>  (23) 
93.8

>  <Standard Type>  (23) 
nan

>  <Standard Relation>  (23) 
nan

>  <Standard Units>  (23) 
nan

>  <Standard Value>  (23) 
nan

>  <Assay ChEMBL ID>  (23) 
nan

>  <Assay Description>  (23) 
nan

>  <BAO Label>  (23) 
nan

$$$$

     RDKit          2D

 25 27  0  0  0  0  0  0  0  0999 V2000
    6.5218   -4.2298    0.0000 C   0  0  0  0  0  0  0  0  0  0  0  0
    5.3083   -3.3481    0.0000 C   0  0  0  0  0  0  0  0  0  0  0  0
    3.8817   -3.8116    0.0000 C   0  0  0  0  0  0  0  0  0  0  0  0
    3.0000   -2.5981    0.0000 C   0  0  0  0  0  0  0  0  0  0  0  0
    1.5000   -2.5981    0.0000 N   0  0  0  0  0  0  0  0  0  0  0  0
    0.7500   -1.2990    0.0000 C   0  0  0  0  0  0  0  0  0  0  0  0
    1.5000    0.0000    0.0000 C   0  0  0  0  0  0  0  0  0  0  0  0
    0.7500    1.2990    0.0000 N   0  0  0  0  0  0  0  0  0  0  0  0
   -0.7500    1.2990    0.0000 C   0  0  0  0  0  0  0  0  0  0  0  0
   -1.5000    2.5981    0.0000 C   0  0  0  0  0  0  0  0  0  0  0  0
   -2.2500    3.8971    0.0000 N   0  0  0  0  0  0  0  0  0  0  0  0
   -1.5000    0.0000    0.0000 C   0  0  0  0  0  0  0  0  0  0  0  0
   -3.0000    0.0000    0.0000 N   0  0  0  0  0  0  0  0  0  0  0  0
   -3.7500   -1.2990    0.0000 C   0  0  0  0  0  0  0  0  0  0  0  0
   -5.2500   -1.2990    0.0000 C   0  0  0  0  0  0  0  0  0  0  0  0
   -3.0000   -2.5981    0.0000 C   0  0  0  0  0  0  0  0  0  0  0  0
   -3.7500   -3.8971    0.0000 N   0  0  0  0  0  0  0  0  0  0  0  0
   -3.0000   -5.1962    0.0000 C   0  0  0  0  0  0  0  0  0  0  0  0
   -1.5000   -5.1962    0.0000 C   0  0  0  0  0  0  0  0  0  0  0  0
   -0.7500   -6.4952    0.0000 F   0  0  0  0  0  0  0  0  0  0  0  0
   -0.7500   -3.8971    0.0000 C   0  0  0  0  0  0  0  0  0  0  0  0
   -1.5000   -2.5981    0.0000 N   0  0  0  0  0  0  0  0  0  0  0  0
   -0.7500   -1.2990    0.0000 N   0  0  0  0  0  0  0  0  0  0  0  0
    3.8817   -1.3846    0.0000 N   0  0  0  0  0  0  0  0  0  0  0  0
    5.3083   -1.8481    0.0000 N   0  0  0  0  0  0  0  0  0  0  0  0
  1  2  1  0
  2  3  2  0
  3  4  1  0
  4  5  1  0
  5  6  1  0
  6  7  2  0
  7  8  1  0
  8  9  2  0
  9 10  1  0
 10 11  3  0
  9 12  1  0
 12 13  1  0
 13 14  1  0
 14 15  1  6
 14 16  1  0
 16 17  2  0
 17 18  1  0
 18 19  2  0
 19 20  1  0
 19 21  1  0
 21 22  2  0
 12 23  2  0
  4 24  2  0
 24 25  1  0
 25  2  1  0
 23  6  1  0
 22 16  1  0
M  END
>  <Compound_ID>  (24) 
CHEMBL570002

>  <Active>  (24) 
1.0

>  <Smiles>  (24) 
Cc1cc(Nc2cnc(C#N)c(N[C@@H](C)c3ncc(F)cn3)n2)n[nH]1

>  <canonical_smi>  (24) 
Cc1cc(Nc2cnc(C#N)c(N[C@@H](C)c3ncc(F)cn3)n2)n[nH]1

>  <Set>  (24) 
G1 active

>  <Set_type>  (24) 
G1

>  <MW>  (24) 
339.34

>  <HBD>  (24) 
3

>  <HBA>  (24) 
8

>  <NRB>  (24) 
5

>  <NR>  (24) 
3

>  <NAR>  (24) 
3

>  <PSA>  (24) 
128.09

>  <Standard Type>  (24) 
nan

>  <Standard Relation>  (24) 
nan

>  <Standard Units>  (24) 
nan

>  <Standard Value>  (24) 
nan

>  <Assay ChEMBL ID>  (24) 
nan

>  <Assay Description>  (24) 
nan

>  <BAO Label>  (24) 
nan

$$$$

     RDKit          2D

 31 36  0  0  0  0  0  0  0  0999 V2000
    2.6401   -3.1891    0.0000 C   0  0  0  0  0  0  0  0  0  0  0  0
    1.2135   -2.7256    0.0000 N   0  0  0  0  0  0  0  0  0  0  0  0
    0.7500   -1.2990    0.0000 C   0  0  0  0  0  0  0  0  0  0  0  0
    1.5000    0.0000    0.0000 C   0  0  0  0  0  0  0  0  0  0  0  0
    0.7500    1.2990    0.0000 C   0  0  0  0  0  0  0  0  0  0  0  0
   -0.7500    1.2990    0.0000 C   0  0  0  0  0  0  0  0  0  0  0  0
   -1.5000    0.0000    0.0000 C   0  0  0  0  0  0  0  0  0  0  0  0
   -0.7500   -1.2990    0.0000 C   0  0  0  0  0  0  0  0  0  0  0  0
   -1.2135   -2.7256    0.0000 C   0  0  0  0  0  0  0  0  0  0  0  0
   -2.5838   -3.3357    0.0000 C   0  0  0  0  0  0  0  0  0  0  0  0
   -2.7406   -4.8275    0.0000 C   0  0  0  0  0  0  0  0  0  0  0  0
   -1.5271   -5.7092    0.0000 C   0  0  0  0  0  0  0  0  0  0  0  0
   -1.3703   -7.2010    0.0000 C   0  0  0  0  0  0  0  0  0  0  0  0
   -2.3740   -8.3157    0.0000 C   0  0  0  0  0  0  0  0  0  0  0  0
   -1.9105   -9.7423    0.0000 C   0  0  0  0  0  0  0  0  0  0  0  0
   -0.4433  -10.0541    0.0000 C   0  0  0  0  0  0  0  0  0  0  0  0
    0.5604   -8.9394    0.0000 C   0  0  0  0  0  0  0  0  0  0  0  0
    0.0969   -7.5128    0.0000 C   0  0  0  0  0  0  0  0  0  0  0  0
    0.8469   -6.2138    0.0000 N   0  0  0  0  0  0  0  0  0  0  0  0
    2.3387   -6.0570    0.0000 C   0  0  0  0  0  0  0  0  0  0  0  0
    3.2204   -7.2705    0.0000 C   0  0  0  0  0  0  0  0  0  0  0  0
    2.6103   -8.6409    0.0000 O   0  0  0  0  0  0  0  0  0  0  0  0
    4.7121   -7.1137    0.0000 C   0  0  0  0  0  0  0  0  0  0  0  0
    5.5938   -8.3273    0.0000 O   0  0  0  0  0  0  0  0  0  0  0  0
   -0.1568   -5.0991    0.0000 C   0  0  0  0  0  0  0  0  0  0  0  0
   -0.0000   -3.6073    0.0000 C   0  0  0  0  0  0  0  0  0  0  0  0
   -4.2079   -5.1394    0.0000 C   0  0  0  0  0  0  0  0  0  0  0  0
   -4.8180   -6.5097    0.0000 O   0  0  0  0  0  0  0  0  0  0  0  0
   -4.9579   -3.8403    0.0000 N   0  0  0  0  0  0  0  0  0  0  0  0
   -3.9542   -2.7256    0.0000 C   0  0  0  0  0  0  0  0  0  0  0  0
   -4.2660   -1.2584    0.0000 O   0  0  0  0  0  0  0  0  0  0  0  0
  1  2  1  0
  2  3  1  0
  3  4  2  0
  4  5  1  0
  5  6  2  0
  6  7  1  0
  7  8  2  0
  8  9  1  0
  9 10  2  0
 10 11  1  0
 11 12  2  0
 12 13  1  0
 13 14  2  0
 14 15  1  0
 15 16  2  0
 16 17  1  0
 17 18  2  0
 18 19  1  0
 19 20  1  0
 20 21  1  0
 21 22  1  0
 21 23  1  0
 23 24  1  0
 19 25  1  0
 25 26  2  0
 11 27  1  0
 27 28  2  0
 27 29  1  0
 29 30  1  0
 30 31  2  0
 26  2  1  0
  8  3  1  0
 26  9  1  0
 30 10  1  0
 25 12  1  0
 18 13  1  0
M  END
>  <Compound_ID>  (25) 
CHEMBL339948

>  <Active>  (25) 
1.0

>  <Smiles>  (25) 
Cn1c2ccccc2c2c3c(c4c5ccccc5n(CC(O)CO)c4c21)C(=O)NC3=O

>  <canonical_smi>  (25) 
Cn1c2ccccc2c2c3c(c4c5ccccc5n(CC(O)CO)c4c21)C(=O)NC3=O

>  <Set>  (25) 
G1 active

>  <Set_type>  (25) 
G1

>  <MW>  (25) 
413.43

>  <HBD>  (25) 
3

>  <HBA>  (25) 
4

>  <NRB>  (25) 
3

>  <NR>  (25) 
6

>  <NAR>  (25) 
5

>  <PSA>  (25) 
96.49

>  <Standard Type>  (25) 
nan

>  <Standard Relation>  (25) 
nan

>  <Standard Units>  (25) 
nan

>  <Standard Value>  (25) 
nan

>  <Assay ChEMBL ID>  (25) 
nan

>  <Assay Description>  (25) 
nan

>  <BAO Label>  (25) 
nan

$$$$

     RDKit          2D

 28 31  0  0  0  0  0  0  0  0999 V2000
    3.0000    0.0000    0.0000 C   0  0  0  0  0  0  0  0  0  0  0  0
    1.5000    0.0000    0.0000 C   0  0  0  0  0  0  0  0  0  0  0  0
    0.7500   -1.2990    0.0000 C   0  0  0  0  0  0  0  0  0  0  0  0
   -0.7500   -1.2990    0.0000 C   0  0  0  0  0  0  0  0  0  0  0  0
   -1.5000   -2.5981    0.0000 N   0  0  0  0  0  0  0  0  0  0  0  0
   -0.8899   -3.9684    0.0000 C   0  0  0  0  0  0  0  0  0  0  0  0
   -2.0046   -4.9721    0.0000 C   0  0  0  0  0  0  0  0  0  0  0  0
   -3.3037   -4.2221    0.0000 C   0  0  0  0  0  0  0  0  0  0  0  0
   -2.9918   -2.7549    0.0000 S   0  0  0  0  0  0  0  0  0  0  0  0
   -4.4836   -2.5981    0.0000 O   0  0  0  0  0  0  0  0  0  0  0  0
   -2.9918   -1.2549    0.0000 O   0  0  0  0  0  0  0  0  0  0  0  0
   -1.5000    0.0000    0.0000 C   0  0  0  0  0  0  0  0  0  0  0  0
   -3.0000    0.0000    0.0000 O   0  0  0  0  0  0  0  0  0  0  0  0
   -3.7500    1.2990    0.0000 C   0  0  0  0  0  0  0  0  0  0  0  0
   -5.2500    1.2990    0.0000 C   0  0  0  0  0  0  0  0  0  0  0  0
   -6.0000    2.5981    0.0000 C   0  0  0  0  0  0  0  0  0  0  0  0
   -7.5000    2.5981    0.0000 C   0  0  0  0  0  0  0  0  0  0  0  0
   -8.2500    1.2990    0.0000 C   0  0  0  0  0  0  0  0  0  0  0  0
   -9.7500    1.2990    0.0000 O   0  0  0  0  0  0  0  0  0  0  0  0
   -7.5000    0.0000    0.0000 C   0  0  0  0  0  0  0  0  0  0  0  0
   -8.2500   -1.2990    0.0000 Br  0  0  0  0  0  0  0  0  0  0  0  0
   -6.0000    0.0000    0.0000 C   0  0  0  0  0  0  0  0  0  0  0  0
   -3.0000    2.5981    0.0000 C   0  0  0  0  0  0  0  0  0  0  0  0
   -3.7500    3.8971    0.0000 O   0  0  0  0  0  0  0  0  0  0  0  0
   -1.5000    2.5981    0.0000 C   0  0  0  0  0  0  0  0  0  0  0  0
   -0.7500    3.8971    0.0000 O   0  0  0  0  0  0  0  0  0  0  0  0
   -0.7500    1.2990    0.0000 C   0  0  0  0  0  0  0  0  0  0  0  0
    0.7500    1.2990    0.0000 C   0  0  0  0  0  0  0  0  0  0  0  0
  1  2  1  0
  2  3  2  0
  3  4  1  0
  4  5  1  0
  5  6  1  0
  6  7  1  0
  7  8  1  0
  8  9  1  0
  9 10  2  0
  9 11  2  0
  4 12  2  0
 12 13  1  0
 13 14  1  0
 14 15  1  0
 15 16  2  0
 16 17  1  0
 17 18  2  0
 18 19  1  0
 18 20  1  0
 20 21  1  0
 20 22  2  0
 14 23  2  0
 23 24  1  0
 23 25  1  0
 25 26  2  0
 25 27  1  0
 27 28  2  0
 28  2  1  0
  9  5  1  0
 27 12  1  0
 22 15  1  0
M  END
>  <Compound_ID>  (26) 
CHEMBL392776

>  <Active>  (26) 
1.0

>  <Smiles>  (26) 
Cc1cc(N2CCCS2(=O)=O)c2oc(-c3ccc(O)c(Br)c3)c(O)c(=O)c2c1

>  <canonical_smi>  (26) 
Cc1cc(N2CCCS2(=O)=O)c2oc(-c3ccc(O)c(Br)c3)c(O)c(=O)c2c1

>  <Set>  (26) 
G1 active

>  <Set_type>  (26) 
G1

>  <MW>  (26) 
466.31

>  <HBD>  (26) 
2

>  <HBA>  (26) 
6

>  <NRB>  (26) 
2

>  <NR>  (26) 
4

>  <NAR>  (26) 
3

>  <PSA>  (26) 
108.05

>  <Standard Type>  (26) 
nan

>  <Standard Relation>  (26) 
nan

>  <Standard Units>  (26) 
nan

>  <Standard Value>  (26) 
nan

>  <Assay ChEMBL ID>  (26) 
nan

>  <Assay Description>  (26) 
nan

>  <BAO Label>  (26) 
nan

$$$$

     RDKit          2D

 16 18  0  0  0  0  0  0  0  0999 V2000
    1.6418    7.0824    0.0000 C   0  0  0  0  0  0  0  0  0  0  0  0
    1.3299    5.6152    0.0000 C   0  0  0  0  0  0  0  0  0  0  0  0
    2.4446    4.6115    0.0000 C   0  0  0  0  0  0  0  0  0  0  0  0
   -0.0967    5.1517    0.0000 C   0  0  0  0  0  0  0  0  0  0  0  0
   -0.4086    3.6844    0.0000 C   0  0  0  0  0  0  0  0  0  0  0  0
    0.7062    2.6807    0.0000 C   0  0  0  0  0  0  0  0  0  0  0  0
    0.3943    1.2135    0.0000 C   0  0  0  0  0  0  0  0  0  0  0  0
    1.2760    0.0000    0.0000 C   0  0  0  0  0  0  0  0  0  0  0  0
    0.3943   -1.2135    0.0000 N   0  0  0  0  0  0  0  0  0  0  0  0
   -1.0323   -0.7500    0.0000 N   0  0  0  0  0  0  0  0  0  0  0  0
   -1.0323    0.7500    0.0000 C   0  0  0  0  0  0  0  0  0  0  0  0
   -2.1470    1.7537    0.0000 C   0  0  0  0  0  0  0  0  0  0  0  0
   -3.6388    1.5969    0.0000 C   0  0  0  0  0  0  0  0  0  0  0  0
   -4.2489    2.9672    0.0000 N   0  0  0  0  0  0  0  0  0  0  0  0
   -3.1342    3.9709    0.0000 N   0  0  0  0  0  0  0  0  0  0  0  0
   -1.8351    3.2209    0.0000 C   0  0  0  0  0  0  0  0  0  0  0  0
  1  2  1  0
  2  3  1  0
  2  4  1  0
  4  5  1  0
  5  6  1  0
  6  7  1  0
  7  8  2  0
  8  9  1  0
  9 10  1  0
 10 11  2  0
 11 12  1  0
 12 13  2  0
 13 14  1  0
 14 15  1  0
 15 16  2  0
 16  5  1  0
 11  7  1  0
 16 12  1  0
M  END
>  <Compound_ID>  (27) 
CHEMBL178452

>  <Active>  (27) 
1.0

>  <Smiles>  (27) 
CC(C)CC1Cc2c[nH]nc2-c2c[nH]nc21

>  <canonical_smi>  (27) 
CC(C)CC1Cc2c[nH]nc2-c2c[nH]nc21

>  <Set>  (27) 
G1 active

>  <Set_type>  (27) 
G1

>  <MW>  (27) 
216.29

>  <HBD>  (27) 
2

>  <HBA>  (27) 
2

>  <NRB>  (27) 
2

>  <NR>  (27) 
3

>  <NAR>  (27) 
2

>  <PSA>  (27) 
57.36

>  <Standard Type>  (27) 
nan

>  <Standard Relation>  (27) 
nan

>  <Standard Units>  (27) 
nan

>  <Standard Value>  (27) 
nan

>  <Assay ChEMBL ID>  (27) 
nan

>  <Assay Description>  (27) 
nan

>  <BAO Label>  (27) 
nan

$$$$

     RDKit          2D

 22 24  0  0  0  0  0  0  0  0999 V2000
   -8.6562    2.3705    0.0000 C   0  0  0  0  0  0  0  0  0  0  0  0
   -7.2296    2.8340    0.0000 C   0  0  0  0  0  0  0  0  0  0  0  0
   -6.1149    1.8303    0.0000 C   0  0  0  0  0  0  0  0  0  0  0  0
   -4.6883    2.2939    0.0000 C   0  0  0  0  0  0  0  0  0  0  0  0
   -3.5736    1.2902    0.0000 O   0  0  0  0  0  0  0  0  0  0  0  0
   -2.1470    1.7537    0.0000 C   0  0  0  0  0  0  0  0  0  0  0  0
   -1.8351    3.2209    0.0000 C   0  0  0  0  0  0  0  0  0  0  0  0
   -2.9499    4.2246    0.0000 C   0  0  0  0  0  0  0  0  0  0  0  0
   -4.3764    3.7611    0.0000 O   0  0  0  0  0  0  0  0  0  0  0  0
   -2.6380    5.6918    0.0000 C   0  0  0  0  0  0  0  0  0  0  0  0
   -1.2114    6.1554    0.0000 C   0  0  0  0  0  0  0  0  0  0  0  0
   -0.8995    7.6226    0.0000 C   0  0  0  0  0  0  0  0  0  0  0  0
   -2.0143    8.6263    0.0000 C   0  0  0  0  0  0  0  0  0  0  0  0
   -3.4408    8.1628    0.0000 C   0  0  0  0  0  0  0  0  0  0  0  0
   -3.7527    6.6955    0.0000 C   0  0  0  0  0  0  0  0  0  0  0  0
   -0.4086    3.6844    0.0000 C   0  0  0  0  0  0  0  0  0  0  0  0
    0.7062    2.6807    0.0000 N   0  0  0  0  0  0  0  0  0  0  0  0
    0.3943    1.2135    0.0000 C   0  0  0  0  0  0  0  0  0  0  0  0
    1.2760    0.0000    0.0000 N   0  0  0  0  0  0  0  0  0  0  0  0
    0.3943   -1.2135    0.0000 N   0  0  0  0  0  0  0  0  0  0  0  0
   -1.0323   -0.7500    0.0000 C   0  0  0  0  0  0  0  0  0  0  0  0
   -1.0323    0.7500    0.0000 C   0  0  0  0  0  0  0  0  0  0  0  0
  1  2  1  0
  2  3  1  0
  3  4  1  0
  4  5  1  0
  5  6  1  0
  6  7  2  0
  7  8  1  0
  8  9  2  0
  8 10  1  0
 10 11  2  0
 11 12  1  0
 12 13  2  0
 13 14  1  0
 14 15  2  0
  7 16  1  0
 16 17  2  0
 17 18  1  0
 18 19  1  0
 19 20  1  0
 20 21  2  0
 21 22  1  0
 22  6  1  0
 15 10  1  0
 22 18  2  0
M  END
>  <Compound_ID>  (28) 
CHEMBL14619

>  <Active>  (28) 
1.0

>  <Smiles>  (28) 
CCCCOc1c(C(=O)c2ccccc2)cnc2[nH]ncc12

>  <canonical_smi>  (28) 
CCCCOc1c(C(=O)c2ccccc2)cnc2[nH]ncc12

>  <Set>  (28) 
G1 active

>  <Set_type>  (28) 
G1

>  <MW>  (28) 
295.34

>  <HBD>  (28) 
1

>  <HBA>  (28) 
4

>  <NRB>  (28) 
6

>  <NR>  (28) 
3

>  <NAR>  (28) 
3

>  <PSA>  (28) 
67.87

>  <Standard Type>  (28) 
nan

>  <Standard Relation>  (28) 
nan

>  <Standard Units>  (28) 
nan

>  <Standard Value>  (28) 
nan

>  <Assay ChEMBL ID>  (28) 
nan

>  <Assay Description>  (28) 
nan

>  <BAO Label>  (28) 
nan

$$$$

     RDKit          2D

 20 22  0  0  0  0  0  0  0  0999 V2000
   -4.6904   -6.5871    0.0000 C   0  0  0  0  0  0  0  0  0  0  0  0
   -4.3786   -5.1199    0.0000 C   0  0  0  0  0  0  0  0  0  0  0  0
   -2.9520   -4.6564    0.0000 C   0  0  0  0  0  0  0  0  0  0  0  0
   -2.6401   -3.1891    0.0000 C   0  0  0  0  0  0  0  0  0  0  0  0
   -1.2135   -2.7256    0.0000 C   0  0  0  0  0  0  0  0  0  0  0  0
   -0.0000   -3.6073    0.0000 C   0  0  0  0  0  0  0  0  0  0  0  0
   -0.0000   -5.1073    0.0000 C   0  0  0  0  0  0  0  0  0  0  0  0
   -1.2990   -5.8573    0.0000 C   0  0  0  0  0  0  0  0  0  0  0  0
   -1.2990   -7.3573    0.0000 C   0  0  0  0  0  0  0  0  0  0  0  0
   -0.0000   -8.1073    0.0000 C   0  0  0  0  0  0  0  0  0  0  0  0
   -0.0000   -9.6073    0.0000 O   0  0  0  0  0  0  0  0  0  0  0  0
    1.2990   -7.3573    0.0000 C   0  0  0  0  0  0  0  0  0  0  0  0
    1.2990   -5.8573    0.0000 C   0  0  0  0  0  0  0  0  0  0  0  0
    1.2135   -2.7256    0.0000 N   0  0  0  0  0  0  0  0  0  0  0  0
    0.7500   -1.2990    0.0000 C   0  0  0  0  0  0  0  0  0  0  0  0
    1.5000    0.0000    0.0000 N   0  0  0  0  0  0  0  0  0  0  0  0
    0.7500    1.2990    0.0000 C   0  0  0  0  0  0  0  0  0  0  0  0
   -0.7500    1.2990    0.0000 C   0  0  0  0  0  0  0  0  0  0  0  0
   -1.5000    0.0000    0.0000 N   0  0  0  0  0  0  0  0  0  0  0  0
   -0.7500   -1.2990    0.0000 C   0  0  0  0  0  0  0  0  0  0  0  0
  1  2  1  0
  2  3  1  0
  3  4  1  0
  4  5  1  0
  5  6  2  0
  6  7  1  0
  7  8  2  0
  8  9  1  0
  9 10  2  0
 10 11  1  0
 10 12  1  0
 12 13  2  0
  6 14  1  0
 14 15  1  0
 15 16  2  0
 16 17  1  0
 17 18  2  0
 18 19  1  0
 19 20  2  0
 20  5  1  0
 13  7  1  0
 20 15  1  0
M  END
>  <Compound_ID>  (29) 
CHEMBL75680

>  <Active>  (29) 
1.0

>  <Smiles>  (29) 
CCCCc1c(-c2ccc(O)cc2)[nH]c2nccnc12

>  <canonical_smi>  (29) 
CCCCc1c(-c2ccc(O)cc2)[nH]c2nccnc12

>  <Set>  (29) 
G1 active

>  <Set_type>  (29) 
G1

>  <MW>  (29) 
267.33

>  <HBD>  (29) 
2

>  <HBA>  (29) 
3

>  <NRB>  (29) 
4

>  <NR>  (29) 
3

>  <NAR>  (29) 
3

>  <PSA>  (29) 
61.8

>  <Standard Type>  (29) 
nan

>  <Standard Relation>  (29) 
nan

>  <Standard Units>  (29) 
nan

>  <Standard Value>  (29) 
nan

>  <Assay ChEMBL ID>  (29) 
nan

>  <Assay Description>  (29) 
nan

>  <BAO Label>  (29) 
nan

$$$$

     RDKit          2D

 32 36  0  0  0  0  0  0  0  0999 V2000
    7.4146   -6.0524    0.0000 N   0  0  0  0  0  0  0  0  0  0  0  0
    6.2011   -6.9341    0.0000 C   0  0  0  0  0  0  0  0  0  0  0  0
    4.8308   -6.3240    0.0000 C   0  0  0  0  0  0  0  0  0  0  0  0
    4.6740   -4.8322    0.0000 N   0  0  0  0  0  0  0  0  0  0  0  0
    3.3037   -4.2221    0.0000 C   0  0  0  0  0  0  0  0  0  0  0  0
    2.0046   -4.9721    0.0000 N   0  0  0  0  0  0  0  0  0  0  0  0
    0.8899   -3.9684    0.0000 N   0  0  0  0  0  0  0  0  0  0  0  0
    1.5000   -2.5981    0.0000 C   0  0  0  0  0  0  0  0  0  0  0  0
    0.7500   -1.2990    0.0000 C   0  0  0  0  0  0  0  0  0  0  0  0
    1.5000    0.0000    0.0000 C   0  0  0  0  0  0  0  0  0  0  0  0
    0.7500    1.2990    0.0000 C   0  0  0  0  0  0  0  0  0  0  0  0
   -0.7500    1.2990    0.0000 C   0  0  0  0  0  0  0  0  0  0  0  0
   -1.7537    2.4138    0.0000 N   0  0  0  0  0  0  0  0  0  0  0  0
   -3.1240    1.8037    0.0000 N   0  0  0  0  0  0  0  0  0  0  0  0
   -2.9672    0.3119    0.0000 C   0  0  0  0  0  0  0  0  0  0  0  0
   -4.0819   -0.6918    0.0000 C   0  0  0  0  0  0  0  0  0  0  0  0
   -4.5455   -2.1184    0.0000 C   0  0  0  0  0  0  0  0  0  0  0  0
   -5.5492   -1.0037    0.0000 C   0  0  0  0  0  0  0  0  0  0  0  0
   -1.5000    0.0000    0.0000 C   0  0  0  0  0  0  0  0  0  0  0  0
   -0.7500   -1.2990    0.0000 C   0  0  0  0  0  0  0  0  0  0  0  0
    2.9918   -2.7549    0.0000 S   0  0  0  0  0  0  0  0  0  0  0  0
    6.3579   -8.4259    0.0000 C   0  0  0  0  0  0  0  0  0  0  0  0
    7.7282   -9.0360    0.0000 C   0  0  0  0  0  0  0  0  0  0  0  0
    7.8850  -10.5278    0.0000 C   0  0  0  0  0  0  0  0  0  0  0  0
    9.2553  -11.1379    0.0000 C   0  0  0  0  0  0  0  0  0  0  0  0
   10.4688  -10.2562    0.0000 C   0  0  0  0  0  0  0  0  0  0  0  0
   11.8391  -10.8663    0.0000 C   0  0  0  0  0  0  0  0  0  0  0  0
   13.2095  -11.4764    0.0000 F   0  0  0  0  0  0  0  0  0  0  0  0
   11.2290  -12.2366    0.0000 F   0  0  0  0  0  0  0  0  0  0  0  0
   12.4492   -9.4960    0.0000 F   0  0  0  0  0  0  0  0  0  0  0  0
   10.3120   -8.7644    0.0000 C   0  0  0  0  0  0  0  0  0  0  0  0
    8.9417   -8.1543    0.0000 C   0  0  0  0  0  0  0  0  0  0  0  0
  2  1  1  1
  2  3  1  0
  3  4  1  0
  4  5  1  0
  5  6  2  0
  6  7  1  0
  7  8  2  0
  8  9  1  0
  9 10  2  0
 10 11  1  0
 11 12  2  0
 12 13  1  0
 13 14  1  0
 14 15  2  0
 15 16  1  0
 16 17  1  0
 17 18  1  0
 15 19  1  0
 19 20  2  0
  8 21  1  0
  2 22  1  0
 22 23  1  0
 23 24  2  0
 24 25  1  0
 25 26  2  0
 26 27  1  0
 27 28  1  0
 27 29  1  0
 27 30  1  0
 26 31  1  0
 31 32  2  0
 21  5  1  0
 32 23  1  0
 20  9  1  0
 19 12  1  0
 18 16  1  0
M  END
>  <Compound_ID>  (30) 
CHEMBL1081437

>  <Active>  (30) 
1.0

>  <Smiles>  (30) 
N[C@H](CNc1nnc(-c2ccc3[nH]nc(C4CC4)c3c2)s1)Cc1ccc(C(F)(F)F)cc1

>  <canonical_smi>  (30) 
N[C@H](CNc1nnc(-c2ccc3[nH]nc(C4CC4)c3c2)s1)Cc1ccc(C(F)(F)F)cc1

>  <Set>  (30) 
G1 active

>  <Set_type>  (30) 
G1

>  <MW>  (30) 
458.51

>  <HBD>  (30) 
3

>  <HBA>  (30) 
5

>  <NRB>  (30) 
7

>  <NR>  (30) 
5

>  <NAR>  (30) 
4

>  <PSA>  (30) 
92.51

>  <Standard Type>  (30) 
nan

>  <Standard Relation>  (30) 
nan

>  <Standard Units>  (30) 
nan

>  <Standard Value>  (30) 
nan

>  <Assay ChEMBL ID>  (30) 
nan

>  <Assay Description>  (30) 
nan

>  <BAO Label>  (30) 
nan

$$$$

     RDKit          2D

 33 35  0  0  0  0  0  0  0  0999 V2000
    3.0000    0.0000    0.0000 C   0  0  0  0  0  0  0  0  0  0  0  0
    1.5000    0.0000    0.0000 C   0  0  0  0  0  0  0  0  0  0  0  0
    0.7500   -1.2990    0.0000 C   0  0  0  0  0  0  0  0  0  0  0  0
   -0.7500   -1.2990    0.0000 C   0  0  0  0  0  0  0  0  0  0  0  0
   -1.5000    0.0000    0.0000 C   0  0  0  0  0  0  0  0  0  0  0  0
   -3.0000    0.0000    0.0000 Cl  0  0  0  0  0  0  0  0  0  0  0  0
   -0.7500    1.2990    0.0000 C   0  0  0  0  0  0  0  0  0  0  0  0
   -1.5000    2.5981    0.0000 N   0  0  0  0  0  0  0  0  0  0  0  0
   -0.7500    3.8971    0.0000 C   0  0  0  0  0  0  0  0  0  0  0  0
   -1.5000    5.1962    0.0000 C   0  0  0  0  0  0  0  0  0  0  0  0
   -2.2500    6.4952    0.0000 N   0  0  0  0  0  0  0  0  0  0  0  0
   -3.0000    2.5981    0.0000 C   0  0  0  0  0  0  0  0  0  0  0  0
   -3.7500    3.8971    0.0000 C   0  0  0  0  0  0  0  0  0  0  0  0
   -5.2500    3.8971    0.0000 C   0  0  0  0  0  0  0  0  0  0  0  0
   -6.0000    5.1962    0.0000 N   0  0  0  0  0  0  0  0  0  0  0  0
   -5.2500    6.4952    0.0000 C   0  0  0  0  0  0  0  0  0  0  0  0
   -3.7500    6.4952    0.0000 C   0  0  0  0  0  0  0  0  0  0  0  0
   -3.0000    7.7942    0.0000 C   0  0  0  0  0  0  0  0  0  0  0  0
   -3.7500    9.0933    0.0000 C   0  0  0  0  0  0  0  0  0  0  0  0
   -3.0000   10.3923    0.0000 O   0  0  0  0  0  0  0  0  0  0  0  0
   -1.5000   10.3923    0.0000 C   0  0  0  0  0  0  0  0  0  0  0  0
   -0.7500   11.6913    0.0000 C   0  0  0  0  0  0  0  0  0  0  0  0
   -1.5000   12.9904    0.0000 O   0  0  0  0  0  0  0  0  0  0  0  0
    0.7500   11.6913    0.0000 C   0  0  0  0  0  0  0  0  0  0  0  0
    1.5000   12.9904    0.0000 N   0  0  0  0  0  0  0  0  0  0  0  0
    3.0000   12.9904    0.0000 C   0  0  0  0  0  0  0  0  0  0  0  0
    0.7500   14.2894    0.0000 C   0  0  0  0  0  0  0  0  0  0  0  0
   -5.2500    9.0933    0.0000 C   0  0  0  0  0  0  0  0  0  0  0  0
   -6.0000    7.7942    0.0000 C   0  0  0  0  0  0  0  0  0  0  0  0
   -6.0000    2.5981    0.0000 N   0  0  0  0  0  0  0  0  0  0  0  0
   -5.2500    1.2990    0.0000 C   0  0  0  0  0  0  0  0  0  0  0  0
   -3.7500    1.2990    0.0000 N   0  0  0  0  0  0  0  0  0  0  0  0
    0.7500    1.2990    0.0000 C   0  0  0  0  0  0  0  0  0  0  0  0
  1  2  1  0
  2  3  2  0
  3  4  1  0
  4  5  2  0
  5  6  1  0
  5  7  1  0
  7  8  1  0
  8  9  1  0
  9 10  1  0
 10 11  3  0
  8 12  1  0
 12 13  2  0
 13 14  1  0
 14 15  1  0
 15 16  1  0
 16 17  2  0
 17 18  1  0
 18 19  2  0
 19 20  1  0
 20 21  1  0
 21 22  1  0
 22 23  1  1
 22 24  1  0
 24 25  1  0
 25 26  1  0
 25 27  1  0
 19 28  1  0
 28 29  2  0
 14 30  2  0
 30 31  1  0
 31 32  2  0
  7 33  2  0
 33  2  1  0
 32 12  1  0
 29 16  1  0
M  END
>  <Compound_ID>  (31) 
CHEMBL211514

>  <Active>  (31) 
1.0

>  <Smiles>  (31) 
Cc1ccc(Cl)c(N(CC#N)c2cc(Nc3ccc(OC[C@@H](O)CN(C)C)cc3)ncn2)c1

>  <canonical_smi>  (31) 
Cc1ccc(Cl)c(N(CC#N)c2cc(Nc3ccc(OC[C@@H](O)CN(C)C)cc3)ncn2)c1

>  <Set>  (31) 
G1 active

>  <Set_type>  (31) 
G1

>  <MW>  (31) 
466.97

>  <HBD>  (31) 
2

>  <HBA>  (31) 
8

>  <NRB>  (31) 
10

>  <NR>  (31) 
3

>  <NAR>  (31) 
3

>  <PSA>  (31) 
97.54

>  <Standard Type>  (31) 
nan

>  <Standard Relation>  (31) 
nan

>  <Standard Units>  (31) 
nan

>  <Standard Value>  (31) 
nan

>  <Assay ChEMBL ID>  (31) 
nan

>  <Assay Description>  (31) 
nan

>  <BAO Label>  (31) 
nan

$$$$

     RDKit          2D

 31 36  0  0  0  0  0  0  0  0999 V2000
   -4.3786   -5.1199    0.0000 N   0  0  0  0  0  0  0  0  0  0  0  0
   -2.9520   -4.6564    0.0000 C   0  0  0  0  0  0  0  0  0  0  0  0
   -2.6401   -3.1891    0.0000 C   0  0  0  0  0  0  0  0  0  0  0  0
   -1.2135   -2.7256    0.0000 N   0  0  0  0  0  0  0  0  0  0  0  0
   -0.0000   -3.6073    0.0000 C   0  0  0  0  0  0  0  0  0  0  0  0
    1.2135   -2.7256    0.0000 C   0  0  0  0  0  0  0  0  0  0  0  0
    2.6401   -3.1891    0.0000 C   0  0  0  0  0  0  0  0  0  0  0  0
    3.7548   -2.1855    0.0000 C   0  0  0  0  0  0  0  0  0  0  0  0
    5.1814   -2.6490    0.0000 C   0  0  0  0  0  0  0  0  0  0  0  0
    6.2961   -1.6453    0.0000 C   0  0  0  0  0  0  0  0  0  0  0  0
    7.7634   -1.9571    0.0000 C   0  0  0  0  0  0  0  0  0  0  0  0
    8.5134   -0.6581    0.0000 C   0  0  0  0  0  0  0  0  0  0  0  0
    9.9806   -0.3462    0.0000 C   0  0  0  0  0  0  0  0  0  0  0  0
   10.4441    1.0803    0.0000 C   0  0  0  0  0  0  0  0  0  0  0  0
    9.4404    2.1951    0.0000 C   0  0  0  0  0  0  0  0  0  0  0  0
    7.9732    1.8832    0.0000 C   0  0  0  0  0  0  0  0  0  0  0  0
    7.5097    0.4566    0.0000 C   0  0  0  0  0  0  0  0  0  0  0  0
    6.1393   -0.1535    0.0000 S   0  0  0  0  0  0  0  0  0  0  0  0
    5.4933   -4.1162    0.0000 C   0  0  0  0  0  0  0  0  0  0  0  0
    6.7923   -4.8662    0.0000 N   0  0  0  0  0  0  0  0  0  0  0  0
    6.4805   -6.3334    0.0000 N   0  0  0  0  0  0  0  0  0  0  0  0
    4.9887   -6.4902    0.0000 C   0  0  0  0  0  0  0  0  0  0  0  0
    4.3786   -5.1199    0.0000 C   0  0  0  0  0  0  0  0  0  0  0  0
    2.9520   -4.6564    0.0000 C   0  0  0  0  0  0  0  0  0  0  0  0
    0.7500   -1.2990    0.0000 C   0  0  0  0  0  0  0  0  0  0  0  0
    1.5000    0.0000    0.0000 N   0  0  0  0  0  0  0  0  0  0  0  0
    0.7500    1.2990    0.0000 C   0  0  0  0  0  0  0  0  0  0  0  0
    1.5000    2.5981    0.0000 N   0  0  0  0  0  0  0  0  0  0  0  0
   -0.7500    1.2990    0.0000 N   0  0  0  0  0  0  0  0  0  0  0  0
   -1.5000    0.0000    0.0000 C   0  0  0  0  0  0  0  0  0  0  0  0
   -0.7500   -1.2990    0.0000 C   0  0  0  0  0  0  0  0  0  0  0  0
  1  2  1  0
  2  3  1  0
  3  4  1  0
  4  5  1  0
  5  6  2  0
  6  7  1  0
  7  8  2  0
  8  9  1  0
  9 10  1  0
 10 11  2  0
 11 12  1  0
 12 13  2  0
 13 14  1  0
 14 15  2  0
 15 16  1  0
 16 17  2  0
 17 18  1  0
  9 19  2  0
 19 20  1  0
 20 21  1  0
 21 22  2  0
 22 23  1  0
 23 24  2  0
  6 25  1  0
 25 26  2  0
 26 27  1  0
 27 28  1  0
 27 29  2  0
 29 30  1  0
 30 31  2  0
 31  4  1  0
 24  7  1  0
 31 25  1  0
 18 10  1  0
 23 19  1  0
 17 12  1  0
M  END
>  <Compound_ID>  (32) 
CHEMBL590109

>  <Active>  (32) 
1.0

>  <Smiles>  (32) 
NCCn1cc(-c2cc(-c3cc4ccccc4s3)c3[nH]ncc3c2)c2nc(N)ncc21

>  <canonical_smi>  (32) 
NCCn1cc(-c2cc(-c3cc4ccccc4s3)c3[nH]ncc3c2)c2nc(N)ncc21

>  <Set>  (32) 
G1 active

>  <Set_type>  (32) 
G1

>  <MW>  (32) 
425.52

>  <HBD>  (32) 
3

>  <HBA>  (32) 
5

>  <NRB>  (32) 
4

>  <NR>  (32) 
6

>  <NAR>  (32) 
6

>  <PSA>  (32) 
111.43

>  <Standard Type>  (32) 
nan

>  <Standard Relation>  (32) 
nan

>  <Standard Units>  (32) 
nan

>  <Standard Value>  (32) 
nan

>  <Assay ChEMBL ID>  (32) 
nan

>  <Assay Description>  (32) 
nan

>  <BAO Label>  (32) 
nan

$$$$

     RDKit          2D

 21 24  0  0  0  0  0  0  0  0999 V2000
   -5.2500   -1.2990    0.0000 C   0  0  0  0  0  0  0  0  0  0  0  0
   -3.7500   -1.2990    0.0000 O   0  0  0  0  0  0  0  0  0  0  0  0
   -3.0000   -2.5981    0.0000 C   0  0  0  0  0  0  0  0  0  0  0  0
   -3.7500   -3.8971    0.0000 C   0  0  0  0  0  0  0  0  0  0  0  0
   -5.2500   -3.8971    0.0000 O   0  0  0  0  0  0  0  0  0  0  0  0
   -3.0000   -5.1962    0.0000 C   0  0  0  0  0  0  0  0  0  0  0  0
   -1.5000   -5.1962    0.0000 C   0  0  0  0  0  0  0  0  0  0  0  0
   -0.7500   -3.8971    0.0000 C   0  0  0  0  0  0  0  0  0  0  0  0
    0.7500   -3.8971    0.0000 C   0  0  0  0  0  0  0  0  0  0  0  0
    1.5000   -2.5981    0.0000 C   0  0  0  0  0  0  0  0  0  0  0  0
    0.7500   -1.2990    0.0000 C   0  0  0  0  0  0  0  0  0  0  0  0
    1.5000    0.0000    0.0000 C   0  0  0  0  0  0  0  0  0  0  0  0
    0.7500    1.2990    0.0000 C   0  0  0  0  0  0  0  0  0  0  0  0
   -0.7500    1.2990    0.0000 C   0  0  0  0  0  0  0  0  0  0  0  0
   -1.5000    2.5981    0.0000 O   0  0  0  0  0  0  0  0  0  0  0  0
   -1.5000    0.0000    0.0000 C   0  0  0  0  0  0  0  0  0  0  0  0
   -0.7500   -1.2990    0.0000 C   0  0  0  0  0  0  0  0  0  0  0  0
   -1.5000   -2.5981    0.0000 C   0  0  0  0  0  0  0  0  0  0  0  0
    1.0619   -5.3643    0.0000 N   0  0  0  0  0  0  0  0  0  0  0  0
   -0.2372   -6.1143    0.0000 C   0  0  0  0  0  0  0  0  0  0  0  0
   -0.3940   -7.6061    0.0000 O   0  0  0  0  0  0  0  0  0  0  0  0
  1  2  1  0
  2  3  1  0
  3  4  2  0
  4  5  1  0
  4  6  1  0
  6  7  2  0
  7  8  1  0
  8  9  2  0
  9 10  1  0
 10 11  2  0
 11 12  1  0
 12 13  2  0
 13 14  1  0
 14 15  1  0
 14 16  2  0
 16 17  1  0
 17 18  2  0
  9 19  1  0
 19 20  1  0
 20 21  2  0
 18  3  1  0
 20  7  1  0
 18  8  1  0
 17 11  1  0
M  END
>  <Compound_ID>  (33) 
CHEMBL388956

>  <Active>  (33) 
1.0

>  <Smiles>  (33) 
COc1c(O)cc2c3c(cc4ccc(O)cc4c13)NC2=O

>  <canonical_smi>  (33) 
COc1c(O)cc2c3c(cc4ccc(O)cc4c13)NC2=O

>  <Set>  (33) 
G1 active

>  <Set_type>  (33) 
G1

>  <MW>  (33) 
281.27

>  <HBD>  (33) 
3

>  <HBA>  (33) 
4

>  <NRB>  (33) 
1

>  <NR>  (33) 
4

>  <NAR>  (33) 
3

>  <PSA>  (33) 
78.79

>  <Standard Type>  (33) 
nan

>  <Standard Relation>  (33) 
nan

>  <Standard Units>  (33) 
nan

>  <Standard Value>  (33) 
nan

>  <Assay ChEMBL ID>  (33) 
nan

>  <Assay Description>  (33) 
nan

>  <BAO Label>  (33) 
nan

$$$$

     RDKit          2D

 35 40  0  0  0  0  0  0  0  0999 V2000
   -1.5000   -5.1962    0.0000 O   0  0  0  0  0  0  0  0  0  0  0  0
   -0.7500   -3.8971    0.0000 C   0  0  0  0  0  0  0  0  0  0  0  0
    0.7500   -3.8971    0.0000 C   0  0  0  0  0  0  0  0  0  0  0  0
    1.5000   -2.5981    0.0000 C   0  0  0  0  0  0  0  0  0  0  0  0
    0.7500   -1.2990    0.0000 C   0  0  0  0  0  0  0  0  0  0  0  0
    1.5000    0.0000    0.0000 C   0  0  0  0  0  0  0  0  0  0  0  0
    0.7500    1.2990    0.0000 N   0  0  0  0  0  0  0  0  0  0  0  0
   -0.7500    1.2990    0.0000 C   0  0  0  0  0  0  0  0  0  0  0  0
   -1.5000    2.5981    0.0000 N   0  0  0  0  0  0  0  0  0  0  0  0
   -0.7500    3.8971    0.0000 C   0  0  0  0  0  0  0  0  0  0  0  0
    0.7500    3.8971    0.0000 C   0  0  0  0  0  0  0  0  0  0  0  0
    1.5000    5.1962    0.0000 C   0  0  0  0  0  0  0  0  0  0  0  0
    0.7500    6.4952    0.0000 C   0  0  0  0  0  0  0  0  0  0  0  0
    1.5000    7.7942    0.0000 N   0  0  0  0  0  0  0  0  0  0  0  0
    3.0000    7.7942    0.0000 C   0  0  0  0  0  0  0  0  0  0  0  0
    3.7500    9.0933    0.0000 C   0  0  0  0  0  0  0  0  0  0  0  0
    3.0000   10.3923    0.0000 C   0  0  0  0  0  0  0  0  0  0  0  0
    3.7500   11.6913    0.0000 C   0  0  0  0  0  0  0  0  0  0  0  0
    5.2500   11.6913    0.0000 C   0  0  0  0  0  0  0  0  0  0  0  0
    6.0000   12.9904    0.0000 C   0  0  0  0  0  0  0  0  0  0  0  0
    7.5000   12.9904    0.0000 O   0  0  0  0  0  0  0  0  0  0  0  0
    1.5000   10.3923    0.0000 C   0  0  0  0  0  0  0  0  0  0  0  0
    0.7500    9.0933    0.0000 C   0  0  0  0  0  0  0  0  0  0  0  0
   -0.7500    6.4952    0.0000 C   0  0  0  0  0  0  0  0  0  0  0  0
   -1.5000    5.1962    0.0000 C   0  0  0  0  0  0  0  0  0  0  0  0
   -1.5000    0.0000    0.0000 N   0  0  0  0  0  0  0  0  0  0  0  0
   -0.7500   -1.2990    0.0000 C   0  0  0  0  0  0  0  0  0  0  0  0
   -1.5000   -2.5981    0.0000 N   0  0  0  0  0  0  0  0  0  0  0  0
   -3.0000   -2.5981    0.0000 C   0  0  0  0  0  0  0  0  0  0  0  0
   -3.8817   -1.3846    0.0000 C   0  0  0  0  0  0  0  0  0  0  0  0
   -5.3083   -1.8481    0.0000 C   0  0  0  0  0  0  0  0  0  0  0  0
   -6.1899   -3.0616    0.0000 C   0  0  0  0  0  0  0  0  0  0  0  0
   -5.3083   -4.2751    0.0000 C   0  0  0  0  0  0  0  0  0  0  0  0
   -3.8817   -3.8116    0.0000 C   0  0  0  0  0  0  0  0  0  0  0  0
   -3.8817   -2.3116    0.0000 C   0  0  0  0  0  0  0  0  0  0  0  0
  1  2  2  0
  2  3  1  0
  3  4  2  0
  4  5  1  0
  5  6  2  0
  6  7  1  0
  7  8  2  0
  8  9  1  0
  9 10  1  0
 10 11  2  0
 11 12  1  0
 12 13  2  0
 13 14  1  0
 14 15  1  0
 15 16  1  0
 16 17  1  0
 17 18  1  0
 18 19  1  0
 19 20  1  0
 20 21  1  0
 17 22  1  0
 22 23  1  0
 13 24  1  0
 24 25  2  0
  8 26  1  0
 26 27  2  0
 27 28  1  0
 28 29  1  0
 29 30  1  0
 30 31  1  0
 31 32  1  0
 32 33  1  0
 33 34  1  0
 34 35  1  0
 28  2  1  0
 34 29  1  0
 27  5  1  0
 35 31  1  0
 25 10  1  0
 23 14  1  0
M  END
>  <Compound_ID>  (34) 
CHEMBL139653

>  <Active>  (34) 
1.0

>  <Smiles>  (34) 
O=c1ccc2cnc(Nc3ccc(N4CCC(CCCO)CC4)cc3)nc2n1C1CC2CCC1C2

>  <canonical_smi>  (34) 
O=c1ccc2cnc(Nc3ccc(N4CCC(CCCO)CC4)cc3)nc2n1C1CC2CCC1C2

>  <Set>  (34) 
G1 active

>  <Set_type>  (34) 
G1

>  <MW>  (34) 
473.62

>  <HBD>  (34) 
2

>  <HBA>  (34) 
6

>  <NRB>  (34) 
7

>  <NR>  (34) 
6

>  <NAR>  (34) 
3

>  <PSA>  (34) 
83.28

>  <Standard Type>  (34) 
nan

>  <Standard Relation>  (34) 
nan

>  <Standard Units>  (34) 
nan

>  <Standard Value>  (34) 
nan

>  <Assay ChEMBL ID>  (34) 
nan

>  <Assay Description>  (34) 
nan

>  <BAO Label>  (34) 
nan

$$$$

     RDKit          2D

 17 19  0  0  0  0  0  0  0  0999 V2000
   -3.7548   -2.1855    0.0000 C   0  0  0  0  0  0  0  0  0  0  0  0
   -2.6401   -3.1891    0.0000 C   0  0  0  0  0  0  0  0  0  0  0  0
   -1.2135   -2.7256    0.0000 N   0  0  0  0  0  0  0  0  0  0  0  0
   -0.0000   -3.6073    0.0000 C   0  0  0  0  0  0  0  0  0  0  0  0
   -0.0000   -5.1073    0.0000 C   0  0  0  0  0  0  0  0  0  0  0  0
    1.2135   -5.9890    0.0000 N   0  0  0  0  0  0  0  0  0  0  0  0
    0.7500   -7.4156    0.0000 O   0  0  0  0  0  0  0  0  0  0  0  0
   -0.7500   -7.4156    0.0000 N   0  0  0  0  0  0  0  0  0  0  0  0
   -1.2135   -5.9890    0.0000 C   0  0  0  0  0  0  0  0  0  0  0  0
   -2.6401   -5.5255    0.0000 N   0  0  0  0  0  0  0  0  0  0  0  0
    1.2135   -2.7256    0.0000 N   0  0  0  0  0  0  0  0  0  0  0  0
    0.7500   -1.2990    0.0000 C   0  0  0  0  0  0  0  0  0  0  0  0
    1.5000    0.0000    0.0000 C   0  0  0  0  0  0  0  0  0  0  0  0
    0.7500    1.2990    0.0000 N   0  0  0  0  0  0  0  0  0  0  0  0
   -0.7500    1.2990    0.0000 C   0  0  0  0  0  0  0  0  0  0  0  0
   -1.5000    0.0000    0.0000 C   0  0  0  0  0  0  0  0  0  0  0  0
   -0.7500   -1.2990    0.0000 C   0  0  0  0  0  0  0  0  0  0  0  0
  1  2  1  0
  2  3  1  0
  3  4  1  0
  4  5  1  0
  5  6  2  0
  6  7  1  0
  7  8  1  0
  8  9  2  0
  9 10  1  0
  4 11  2  0
 11 12  1  0
 12 13  2  0
 13 14  1  0
 14 15  2  0
 15 16  1  0
 16 17  2  0
 17  3  1  0
  9  5  1  0
 17 12  1  0
M  END
>  <Compound_ID>  (35) 
CHEMBL189657

>  <Active>  (35) 
1.0

>  <Smiles>  (35) 
CCn1c(-c2nonc2N)nc2cnccc21

>  <canonical_smi>  (35) 
CCn1c(-c2nonc2N)nc2cnccc21

>  <Set>  (35) 
G1 active

>  <Set_type>  (35) 
G1

>  <MW>  (35) 
230.23

>  <HBD>  (35) 
1

>  <HBA>  (35) 
6

>  <NRB>  (35) 
2

>  <NR>  (35) 
3

>  <NAR>  (35) 
3

>  <PSA>  (35) 
95.65

>  <Standard Type>  (35) 
nan

>  <Standard Relation>  (35) 
nan

>  <Standard Units>  (35) 
nan

>  <Standard Value>  (35) 
nan

>  <Assay ChEMBL ID>  (35) 
nan

>  <Assay Description>  (35) 
nan

>  <BAO Label>  (35) 
nan

$$$$

     RDKit          2D

 29 32  0  0  0  0  0  0  0  0999 V2000
   -3.7500   -6.4952    0.0000 C   0  0  0  0  0  0  0  0  0  0  0  0
   -3.0000   -5.1962    0.0000 O   0  0  0  0  0  0  0  0  0  0  0  0
   -1.5000   -5.1962    0.0000 C   0  0  0  0  0  0  0  0  0  0  0  0
   -0.7500   -3.8971    0.0000 C   0  0  0  0  0  0  0  0  0  0  0  0
    0.7500   -3.8971    0.0000 C   0  0  0  0  0  0  0  0  0  0  0  0
    1.5000   -2.5981    0.0000 N   0  0  0  0  0  0  0  0  0  0  0  0
    0.7500   -1.2990    0.0000 C   0  0  0  0  0  0  0  0  0  0  0  0
    1.5000    0.0000    0.0000 N   0  0  0  0  0  0  0  0  0  0  0  0
    0.7500    1.2990    0.0000 C   0  0  0  0  0  0  0  0  0  0  0  0
   -0.7500    1.2990    0.0000 C   0  0  0  0  0  0  0  0  0  0  0  0
   -1.7537    2.4138    0.0000 C   0  0  0  0  0  0  0  0  0  0  0  0
   -1.4418    3.8810    0.0000 C   0  0  0  0  0  0  0  0  0  0  0  0
   -3.1240    1.8037    0.0000 N   0  0  0  0  0  0  0  0  0  0  0  0
   -2.9672    0.3119    0.0000 C   0  0  0  0  0  0  0  0  0  0  0  0
   -4.0819   -0.6918    0.0000 C   0  0  0  0  0  0  0  0  0  0  0  0
   -5.5085   -0.2283    0.0000 C   0  0  0  0  0  0  0  0  0  0  0  0
   -6.6232   -1.2320    0.0000 C   0  0  0  0  0  0  0  0  0  0  0  0
   -6.3114   -2.6992    0.0000 C   0  0  0  0  0  0  0  0  0  0  0  0
   -4.8848   -3.1627    0.0000 C   0  0  0  0  0  0  0  0  0  0  0  0
   -3.7701   -2.1590    0.0000 C   0  0  0  0  0  0  0  0  0  0  0  0
   -1.5000    0.0000    0.0000 N   0  0  0  0  0  0  0  0  0  0  0  0
   -0.7500   -1.2990    0.0000 N   0  0  0  0  0  0  0  0  0  0  0  0
    1.5000   -5.1962    0.0000 C   0  0  0  0  0  0  0  0  0  0  0  0
    0.7500   -6.4952    0.0000 C   0  0  0  0  0  0  0  0  0  0  0  0
    1.5000   -7.7942    0.0000 O   0  0  0  0  0  0  0  0  0  0  0  0
    0.7500   -9.0933    0.0000 C   0  0  0  0  0  0  0  0  0  0  0  0
   -0.7500   -6.4952    0.0000 C   0  0  0  0  0  0  0  0  0  0  0  0
   -1.5000   -7.7942    0.0000 O   0  0  0  0  0  0  0  0  0  0  0  0
   -3.0000   -7.7942    0.0000 C   0  0  0  0  0  0  0  0  0  0  0  0
  1  2  1  0
  2  3  1  0
  3  4  2  0
  4  5  1  0
  5  6  1  0
  6  7  1  0
  7  8  1  0
  8  9  2  0
  9 10  1  0
 10 11  2  0
 11 12  1  0
 11 13  1  0
 13 14  2  0
 14 15  1  0
 15 16  2  0
 16 17  1  0
 17 18  2  0
 18 19  1  0
 19 20  2  0
 14 21  1  0
 21 22  1  0
  5 23  2  0
 23 24  1  0
 24 25  1  0
 25 26  1  0
 24 27  2  0
 27 28  1  0
 28 29  1  0
 27  3  1  0
 22  7  2  0
 21 10  1  0
 20 15  1  0
M  END
>  <Compound_ID>  (36) 
CHEMBL519715

>  <Active>  (36) 
1.0

>  <Smiles>  (36) 
COc1cc(Nc2ncc3c(C)nc(-c4ccccc4)n3n2)cc(OC)c1OC

>  <canonical_smi>  (36) 
COc1cc(Nc2ncc3c(C)nc(-c4ccccc4)n3n2)cc(OC)c1OC

>  <Set>  (36) 
G1 active

>  <Set_type>  (36) 
G1

>  <MW>  (36) 
391.43

>  <HBD>  (36) 
1

>  <HBA>  (36) 
7

>  <NRB>  (36) 
6

>  <NR>  (36) 
4

>  <NAR>  (36) 
4

>  <PSA>  (36) 
82.8

>  <Standard Type>  (36) 
nan

>  <Standard Relation>  (36) 
nan

>  <Standard Units>  (36) 
nan

>  <Standard Value>  (36) 
nan

>  <Assay ChEMBL ID>  (36) 
nan

>  <Assay Description>  (36) 
nan

>  <BAO Label>  (36) 
nan

$$$$

     RDKit          2D

 16 18  0  0  0  0  0  0  0  0999 V2000
    3.0000    0.0000    0.0000 O   0  0  0  0  0  0  0  0  0  0  0  0
    1.5000    0.0000    0.0000 C   0  0  0  0  0  0  0  0  0  0  0  0
    0.7500   -1.2990    0.0000 N   0  0  0  0  0  0  0  0  0  0  0  0
   -0.7500   -1.2990    0.0000 C   0  0  0  0  0  0  0  0  0  0  0  0
   -1.5000    0.0000    0.0000 C   0  0  0  0  0  0  0  0  0  0  0  0
   -0.7500    1.2990    0.0000 C   0  0  0  0  0  0  0  0  0  0  0  0
   -1.2135    2.7256    0.0000 N   0  0  0  0  0  0  0  0  0  0  0  0
   -0.0000    3.6073    0.0000 C   0  0  0  0  0  0  0  0  0  0  0  0
   -0.0000    5.1073    0.0000 C   0  0  0  0  0  0  0  0  0  0  0  0
    1.2990    5.8573    0.0000 C   0  0  0  0  0  0  0  0  0  0  0  0
    1.2990    7.3573    0.0000 C   0  0  0  0  0  0  0  0  0  0  0  0
   -0.0000    8.1073    0.0000 N   0  0  0  0  0  0  0  0  0  0  0  0
   -1.2990    7.3573    0.0000 C   0  0  0  0  0  0  0  0  0  0  0  0
   -1.2990    5.8573    0.0000 C   0  0  0  0  0  0  0  0  0  0  0  0
    1.2135    2.7256    0.0000 C   0  0  0  0  0  0  0  0  0  0  0  0
    0.7500    1.2990    0.0000 C   0  0  0  0  0  0  0  0  0  0  0  0
  1  2  2  0
  2  3  1  0
  3  4  1  0
  4  5  1  0
  5  6  1  0
  6  7  1  0
  7  8  1  0
  8  9  1  0
  9 10  2  0
 10 11  1  0
 11 12  2  0
 12 13  1  0
 13 14  2  0
  8 15  2  0
 15 16  1  0
 16  2  1  0
 16  6  2  0
 14  9  1  0
M  END
>  <Compound_ID>  (37) 
CHEMBL225519

>  <Active>  (37) 
1.0

>  <Smiles>  (37) 
O=C1NCCc2[nH]c(-c3ccncc3)cc21

>  <canonical_smi>  (37) 
O=C1NCCc2[nH]c(-c3ccncc3)cc21

>  <Set>  (37) 
G1 active

>  <Set_type>  (37) 
G1

>  <MW>  (37) 
213.24

>  <HBD>  (37) 
2

>  <HBA>  (37) 
2

>  <NRB>  (37) 
1

>  <NR>  (37) 
3

>  <NAR>  (37) 
2

>  <PSA>  (37) 
57.78

>  <Standard Type>  (37) 
nan

>  <Standard Relation>  (37) 
nan

>  <Standard Units>  (37) 
nan

>  <Standard Value>  (37) 
nan

>  <Assay ChEMBL ID>  (37) 
nan

>  <Assay Description>  (37) 
nan

>  <BAO Label>  (37) 
nan

$$$$

     RDKit          2D

 42 45  0  0  0  0  0  0  0  0999 V2000
    8.2500   -9.0933    0.0000 C   0  0  0  0  0  0  0  0  0  0  0  0
    7.5000   -7.7942    0.0000 C   0  0  0  0  0  0  0  0  0  0  0  0
    8.2500   -6.4952    0.0000 C   0  0  0  0  0  0  0  0  0  0  0  0
    6.0000   -7.7942    0.0000 C   0  0  0  0  0  0  0  0  0  0  0  0
    5.2500   -6.4952    0.0000 C   0  0  0  0  0  0  0  0  0  0  0  0
    3.7500   -6.4952    0.0000 N   0  0  0  0  0  0  0  0  0  0  0  0
    3.0000   -5.1962    0.0000 C   0  0  0  0  0  0  0  0  0  0  0  0
    3.7500   -3.8971    0.0000 O   0  0  0  0  0  0  0  0  0  0  0  0
    1.5000   -5.1962    0.0000 C   0  0  0  0  0  0  0  0  0  0  0  0
    0.7500   -6.4952    0.0000 C   0  0  0  0  0  0  0  0  0  0  0  0
    0.7500   -3.8971    0.0000 N   0  0  0  0  0  0  0  0  0  0  0  0
    1.5000   -2.5981    0.0000 C   0  0  0  0  0  0  0  0  0  0  0  0
    3.0000   -2.5981    0.0000 O   0  0  0  0  0  0  0  0  0  0  0  0
    0.7500   -1.2990    0.0000 C   0  0  0  0  0  0  0  0  0  0  0  0
    1.5000    0.0000    0.0000 C   0  0  0  0  0  0  0  0  0  0  0  0
    0.7500    1.2990    0.0000 C   0  0  0  0  0  0  0  0  0  0  0  0
   -0.7500    1.2990    0.0000 C   0  0  0  0  0  0  0  0  0  0  0  0
   -1.5000    2.5981    0.0000 C   0  0  0  0  0  0  0  0  0  0  0  0
   -0.7500    3.8971    0.0000 C   0  0  0  0  0  0  0  0  0  0  0  0
    0.7500    3.8971    0.0000 C   0  0  0  0  0  0  0  0  0  0  0  0
    1.5000    5.1962    0.0000 C   0  0  0  0  0  0  0  0  0  0  0  0
    0.7500    6.4952    0.0000 N   0  0  0  0  0  0  0  0  0  0  0  0
   -0.7500    6.4952    0.0000 C   0  0  0  0  0  0  0  0  0  0  0  0
   -1.5000    5.1962    0.0000 C   0  0  0  0  0  0  0  0  0  0  0  0
   -1.5000    0.0000    0.0000 C   0  0  0  0  0  0  0  0  0  0  0  0
   -0.7500   -1.2990    0.0000 C   0  0  0  0  0  0  0  0  0  0  0  0
    6.0000   -5.1962    0.0000 C   0  0  0  0  0  0  0  0  0  0  0  0
    5.2500   -3.8971    0.0000 O   0  0  0  0  0  0  0  0  0  0  0  0
    7.5000   -5.1962    0.0000 N   0  0  0  0  0  0  0  0  0  0  0  0
    8.2500   -3.8971    0.0000 C   0  0  0  0  0  0  0  0  0  0  0  0
    7.5000   -2.5981    0.0000 C   0  0  0  0  0  0  0  0  0  0  0  0
    8.2500   -1.2990    0.0000 C   0  0  0  0  0  0  0  0  0  0  0  0
    9.7500   -1.2990    0.0000 C   0  0  0  0  0  0  0  0  0  0  0  0
   10.5000   -2.5981    0.0000 C   0  0  0  0  0  0  0  0  0  0  0  0
    9.7500   -3.8971    0.0000 C   0  0  0  0  0  0  0  0  0  0  0  0
   10.5000   -5.1962    0.0000 C   0  0  0  0  0  0  0  0  0  0  0  0
    9.7500   -6.4952    0.0000 C   0  0  0  0  0  0  0  0  0  0  0  0
   10.5000   -7.7942    0.0000 C   0  0  0  0  0  0  0  0  0  0  0  0
   12.0000   -7.7942    0.0000 C   0  0  0  0  0  0  0  0  0  0  0  0
   12.7500   -6.4952    0.0000 C   0  0  0  0  0  0  0  0  0  0  0  0
   14.2500   -6.4952    0.0000 Cl  0  0  0  0  0  0  0  0  0  0  0  0
   12.0000   -5.1962    0.0000 C   0  0  0  0  0  0  0  0  0  0  0  0
  1  2  1  0
  2  3  1  0
  2  4  1  0
  5  4  1  6
  5  6  1  0
  6  7  1  0
  7  8  2  0
  7  9  1  0
  9 10  1  6
  9 11  1  0
 11 12  1  0
 12 13  2  0
 12 14  1  0
 14 15  2  0
 15 16  1  0
 16 17  2  0
 17 18  1  0
 18 19  1  0
 19 20  1  0
 20 21  1  0
 21 22  1  0
 22 23  1  0
 23 24  1  0
 17 25  1  0
 25 26  2  0
  5 27  1  0
 27 28  2  0
 27 29  1  0
 30 29  1  6
 30 31  1  0
 31 32  1  0
 32 33  1  0
 33 34  1  0
 34 35  1  0
 35 36  1  1
 36 37  2  0
 37 38  1  0
 38 39  2  0
 39 40  1  0
 40 41  1  0
 40 42  2  0
 26 14  1  0
 35 30  1  0
 42 36  1  0
 24 19  1  0
M  END
>  <Compound_ID>  (38) 
CHEMBL380317

>  <Active>  (38) 
1.0

>  <Smiles>  (38) 
CC(C)C[C@H](NC(=O)[C@H](C)NC(=O)c1ccc(CC2CCNCC2)cc1)C(=O)N[C@@H]1CCCC[C@H]1c1cccc(Cl)c1

>  <canonical_smi>  (38) 
CC(C)C[C@H](NC(=O)[C@H](C)NC(=O)c1ccc(CC2CCNCC2)cc1)C(=O)N[C@@H]1CCCC[C@H]1c1cccc(Cl)c1

>  <Set>  (38) 
G1 active

>  <Set_type>  (38) 
G1

>  <MW>  (38) 
595.23

>  <HBD>  (38) 
4

>  <HBA>  (38) 
4

>  <NRB>  (38) 
11

>  <NR>  (38) 
4

>  <NAR>  (38) 
2

>  <PSA>  (38) 
99.33

>  <Standard Type>  (38) 
nan

>  <Standard Relation>  (38) 
nan

>  <Standard Units>  (38) 
nan

>  <Standard Value>  (38) 
nan

>  <Assay ChEMBL ID>  (38) 
nan

>  <Assay Description>  (38) 
nan

>  <BAO Label>  (38) 
nan

$$$$

     RDKit          2D

 24 27  0  0  0  0  0  0  0  0999 V2000
   -2.8273   -8.1774    0.0000 O   0  0  0  0  0  0  0  0  0  0  0  0
   -1.3601   -7.8655    0.0000 C   0  0  0  0  0  0  0  0  0  0  0  0
   -0.2454   -8.8692    0.0000 N   0  0  0  0  0  0  0  0  0  0  0  0
    1.0537   -8.1192    0.0000 C   0  0  0  0  0  0  0  0  0  0  0  0
    2.4240   -8.7293    0.0000 N   0  0  0  0  0  0  0  0  0  0  0  0
    2.5808  -10.2211    0.0000 C   0  0  0  0  0  0  0  0  0  0  0  0
    3.9511  -10.8312    0.0000 C   0  0  0  0  0  0  0  0  0  0  0  0
    5.2501  -10.0812    0.0000 C   0  0  0  0  0  0  0  0  0  0  0  0
    6.3648  -11.0849    0.0000 C   0  0  0  0  0  0  0  0  0  0  0  0
    5.7547  -12.4552    0.0000 C   0  0  0  0  0  0  0  0  0  0  0  0
    4.2629  -12.2984    0.0000 S   0  0  0  0  0  0  0  0  0  0  0  0
    0.7418   -6.6520    0.0000 S   0  0  0  0  0  0  0  0  0  0  0  0
   -0.7500   -6.4952    0.0000 C   0  0  0  0  0  0  0  0  0  0  0  0
   -1.5000   -5.1962    0.0000 C   0  0  0  0  0  0  0  0  0  0  0  0
   -0.7500   -3.8971    0.0000 C   0  0  0  0  0  0  0  0  0  0  0  0
    0.7500   -3.8971    0.0000 C   0  0  0  0  0  0  0  0  0  0  0  0
    1.5000   -2.5981    0.0000 C   0  0  0  0  0  0  0  0  0  0  0  0
    0.7500   -1.2990    0.0000 C   0  0  0  0  0  0  0  0  0  0  0  0
    1.5000    0.0000    0.0000 N   0  0  0  0  0  0  0  0  0  0  0  0
    0.7500    1.2990    0.0000 C   0  0  0  0  0  0  0  0  0  0  0  0
   -0.7500    1.2990    0.0000 C   0  0  0  0  0  0  0  0  0  0  0  0
   -1.5000    0.0000    0.0000 C   0  0  0  0  0  0  0  0  0  0  0  0
   -0.7500   -1.2990    0.0000 C   0  0  0  0  0  0  0  0  0  0  0  0
   -1.5000   -2.5981    0.0000 C   0  0  0  0  0  0  0  0  0  0  0  0
  1  2  2  0
  2  3  1  0
  3  4  2  0
  4  5  1  0
  5  6  1  0
  6  7  1  0
  7  8  2  0
  8  9  1  0
  9 10  2  0
 10 11  1  0
  4 12  1  0
 12 13  1  0
 13 14  2  0
 14 15  1  0
 15 16  2  0
 16 17  1  0
 17 18  2  0
 18 19  1  0
 19 20  2  0
 20 21  1  0
 21 22  2  0
 22 23  1  0
 23 24  2  0
 13  2  1  0
 24 15  1  0
 11  7  1  0
 23 18  1  0
M  END
>  <Compound_ID>  (39) 
CHEMBL393929

>  <Active>  (39) 
1.0

>  <Smiles>  (39) 
O=C1N=C(NCc2cccs2)S/C1=C\c1ccc2ncccc2c1

>  <canonical_smi>  (39) 
O=C1N=C(NCc2cccs2)S/C1=C\c1ccc2ncccc2c1

>  <Set>  (39) 
G1 active

>  <Set_type>  (39) 
G1

>  <MW>  (39) 
351.46

>  <HBD>  (39) 
1

>  <HBA>  (39) 
4

>  <NRB>  (39) 
3

>  <NR>  (39) 
4

>  <NAR>  (39) 
3

>  <PSA>  (39) 
54.35

>  <Standard Type>  (39) 
nan

>  <Standard Relation>  (39) 
nan

>  <Standard Units>  (39) 
nan

>  <Standard Value>  (39) 
nan

>  <Assay ChEMBL ID>  (39) 
nan

>  <Assay Description>  (39) 
nan

>  <BAO Label>  (39) 
nan

$$$$

     RDKit          2D

 11 12  0  0  0  0  0  0  0  0999 V2000
   -4.0667   -3.6527    0.0000 N   0  0  0  0  0  0  0  0  0  0  0  0
   -2.6401   -3.1891    0.0000 C   0  0  0  0  0  0  0  0  0  0  0  0
   -1.2135   -2.7256    0.0000 C   0  0  0  0  0  0  0  0  0  0  0  0
   -0.0000   -3.6073    0.0000 C   0  0  0  0  0  0  0  0  0  0  0  0
    1.2135   -2.7256    0.0000 N   0  0  0  0  0  0  0  0  0  0  0  0
    0.7500   -1.2990    0.0000 N   0  0  0  0  0  0  0  0  0  0  0  0
    1.5000    0.0000    0.0000 C   0  0  0  0  0  0  0  0  0  0  0  0
    0.7500    1.2990    0.0000 C   0  0  0  0  0  0  0  0  0  0  0  0
   -0.7500    1.2990    0.0000 C   0  0  0  0  0  0  0  0  0  0  0  0
   -1.5000    0.0000    0.0000 N   0  0  0  0  0  0  0  0  0  0  0  0
   -0.7500   -1.2990    0.0000 C   0  0  0  0  0  0  0  0  0  0  0  0
  1  2  3  0
  2  3  1  0
  3  4  1  0
  4  5  2  0
  5  6  1  0
  6  7  1  0
  7  8  2  0
  8  9  1  0
  9 10  2  0
 10 11  1  0
 11  3  2  0
 11  6  1  0
M  END
>  <Compound_ID>  (40) 
CHEMBL503917

>  <Active>  (40) 
1.0

>  <Smiles>  (40) 
N#Cc1cnn2cccnc12

>  <canonical_smi>  (40) 
N#Cc1cnn2cccnc12

>  <Set>  (40) 
G1 active

>  <Set_type>  (40) 
G1

>  <MW>  (40) 
144.14

>  <HBD>  (40) 
0

>  <HBA>  (40) 
3

>  <NRB>  (40) 
0

>  <NR>  (40) 
2

>  <NAR>  (40) 
2

>  <PSA>  (40) 
53.98

>  <Standard Type>  (40) 
nan

>  <Standard Relation>  (40) 
nan

>  <Standard Units>  (40) 
nan

>  <Standard Value>  (40) 
nan

>  <Assay ChEMBL ID>  (40) 
nan

>  <Assay Description>  (40) 
nan

>  <BAO Label>  (40) 
nan

$$$$

     RDKit          2D

 25 27  0  0  0  0  0  0  0  0999 V2000
    1.8478   -6.4639    0.0000 O   0  0  0  0  0  0  0  0  0  0  0  0
    2.0046   -4.9721    0.0000 C   0  0  0  0  0  0  0  0  0  0  0  0
    3.3037   -4.2221    0.0000 N   0  0  0  0  0  0  0  0  0  0  0  0
    2.9918   -2.7549    0.0000 C   0  0  0  0  0  0  0  0  0  0  0  0
    3.9088   -1.9578    0.0000 O   0  0  0  0  0  0  0  0  0  0  0  0
    1.5000   -2.5981    0.0000 C   0  0  0  0  0  0  0  0  0  0  0  0
    0.7500   -1.2990    0.0000 C   0  0  0  0  0  0  0  0  0  0  0  0
   -0.7500   -1.2990    0.0000 C   0  0  0  0  0  0  0  0  0  0  0  0
   -1.5000    0.0000    0.0000 C   0  0  0  0  0  0  0  0  0  0  0  0
   -0.7500    1.2990    0.0000 C   0  0  0  0  0  0  0  0  0  0  0  0
    0.7500    1.2990    0.0000 C   0  0  0  0  0  0  0  0  0  0  0  0
    1.5000    0.0000    0.0000 C   0  0  0  0  0  0  0  0  0  0  0  0
    3.0000    0.0000    0.0000 N   0  0  0  0  0  4  0  0  0  0  0  0
    3.7500    1.2990    0.0000 O   0  0  0  0  0  0  0  0  0  0  0  0
    3.7312   -0.9703    0.0000 O   0  0  0  0  0  1  0  0  0  0  0  0
    0.8899   -3.9684    0.0000 C   0  0  0  0  0  0  0  0  0  0  0  0
   -0.5773   -4.2803    0.0000 N   0  0  0  0  0  0  0  0  0  0  0  0
   -1.0409   -5.7068    0.0000 C   0  0  0  0  0  0  0  0  0  0  0  0
   -2.5081   -6.0187    0.0000 C   0  0  0  0  0  0  0  0  0  0  0  0
   -2.9716   -7.4453    0.0000 C   0  0  0  0  0  0  0  0  0  0  0  0
   -1.9679   -8.5600    0.0000 C   0  0  0  0  0  0  0  0  0  0  0  0
   -2.4314   -9.9866    0.0000 O   0  0  0  0  0  0  0  0  0  0  0  0
   -0.5007   -8.2481    0.0000 C   0  0  0  0  0  0  0  0  0  0  0  0
    0.5030   -9.3629    0.0000 Cl  0  0  0  0  0  0  0  0  0  0  0  0
   -0.0372   -6.8216    0.0000 C   0  0  0  0  0  0  0  0  0  0  0  0
  1  2  2  0
  2  3  1  0
  3  4  1  0
  4  5  2  0
  4  6  1  0
  6  7  1  0
  7  8  2  0
  8  9  1  0
  9 10  2  0
 10 11  1  0
 11 12  2  0
 12 13  1  0
 13 14  2  0
 13 15  1  0
  6 16  2  0
 16 17  1  0
 17 18  1  0
 18 19  2  0
 19 20  1  0
 20 21  2  0
 21 22  1  0
 21 23  1  0
 23 24  1  0
 23 25  2  0
 16  2  1  0
 25 18  1  0
 12  7  1  0
M  CHG  2  13   1  15  -1
M  END
>  <Compound_ID>  (41) 
CHEMBL322970

>  <Active>  (41) 
1.0

>  <Smiles>  (41) 
O=C1NC(=O)C(c2ccccc2[N+](=O)[O-])=C1Nc1ccc(O)c(Cl)c1

>  <canonical_smi>  (41) 
O=C1NC(=O)C(c2ccccc2[N+](=O)[O-])=C1Nc1ccc(O)c(Cl)c1

>  <Set>  (41) 
G1 active

>  <Set_type>  (41) 
G1

>  <MW>  (41) 
359.73

>  <HBD>  (41) 
3

>  <HBA>  (41) 
6

>  <NRB>  (41) 
4

>  <NR>  (41) 
3

>  <NAR>  (41) 
2

>  <PSA>  (41) 
121.57

>  <Standard Type>  (41) 
nan

>  <Standard Relation>  (41) 
nan

>  <Standard Units>  (41) 
nan

>  <Standard Value>  (41) 
nan

>  <Assay ChEMBL ID>  (41) 
nan

>  <Assay Description>  (41) 
nan

>  <BAO Label>  (41) 
nan

$$$$

     RDKit          2D

 36 39  0  0  0  0  0  0  0  0999 V2000
    3.5761  -17.7913    0.0000 N   0  0  0  0  0  0  0  0  0  0  0  0
    4.3261  -16.4922    0.0000 N   0  0  0  0  0  0  0  0  0  0  0  0
    3.5761  -15.1932    0.0000 C   0  0  0  0  0  0  0  0  0  0  0  0
    2.0761  -15.1932    0.0000 O   0  0  0  0  0  0  0  0  0  0  0  0
    4.3261  -13.8941    0.0000 C   0  0  0  0  0  0  0  0  0  0  0  0
    3.5761  -12.5951    0.0000 S   0  0  0  0  0  0  0  0  0  0  0  0
    4.3261  -11.2961    0.0000 C   0  0  0  0  0  0  0  0  0  0  0  0
    5.8179  -11.1393    0.0000 N   0  0  0  0  0  0  0  0  0  0  0  0
    6.1298   -9.6721    0.0000 N   0  0  0  0  0  0  0  0  0  0  0  0
    4.8308   -8.9221    0.0000 C   0  0  0  0  0  0  0  0  0  0  0  0
    4.6740   -7.4303    0.0000 C   0  0  0  0  0  0  0  0  0  0  0  0
    3.3037   -6.8202    0.0000 C   0  0  0  0  0  0  0  0  0  0  0  0
    2.0046   -7.5702    0.0000 C   0  0  0  0  0  0  0  0  0  0  0  0
    0.8899   -6.5665    0.0000 S   0  0  0  0  0  0  0  0  0  0  0  0
    1.5000   -5.1962    0.0000 C   0  0  0  0  0  0  0  0  0  0  0  0
    0.7500   -3.8971    0.0000 N   0  0  0  0  0  0  0  0  0  0  0  0
    1.5000   -2.5981    0.0000 C   0  0  0  0  0  0  0  0  0  0  0  0
    3.0000   -2.5981    0.0000 O   0  0  0  0  0  0  0  0  0  0  0  0
    0.7500   -1.2990    0.0000 C   0  0  0  0  0  0  0  0  0  0  0  0
    1.5000    0.0000    0.0000 C   0  0  0  0  0  0  0  0  0  0  0  0
    0.7500    1.2990    0.0000 C   0  0  0  0  0  0  0  0  0  0  0  0
   -0.7500    1.2990    0.0000 C   0  0  0  0  0  0  0  0  0  0  0  0
   -1.5000    0.0000    0.0000 C   0  0  0  0  0  0  0  0  0  0  0  0
   -0.7500   -1.2990    0.0000 C   0  0  0  0  0  0  0  0  0  0  0  0
    2.9918   -5.3529    0.0000 N   0  0  0  0  0  0  0  0  0  0  0  0
    3.7160   -9.9258    0.0000 N   0  0  0  0  0  0  0  0  0  0  0  0
    2.2488   -9.6139    0.0000 N   0  0  0  0  0  0  0  0  0  0  0  0
    1.2451  -10.7286    0.0000 C   0  0  0  0  0  0  0  0  0  0  0  0
    1.7087  -12.1552    0.0000 O   0  0  0  0  0  0  0  0  0  0  0  0
   -0.2221  -10.4167    0.0000 C   0  0  0  0  0  0  0  0  0  0  0  0
   -0.6856   -8.9901    0.0000 C   0  0  0  0  0  0  0  0  0  0  0  0
   -2.1528   -8.6783    0.0000 C   0  0  0  0  0  0  0  0  0  0  0  0
   -3.1565   -9.7930    0.0000 C   0  0  0  0  0  0  0  0  0  0  0  0
   -4.6238   -9.4811    0.0000 Cl  0  0  0  0  0  0  0  0  0  0  0  0
   -2.6930  -11.2196    0.0000 C   0  0  0  0  0  0  0  0  0  0  0  0
   -1.2258  -11.5314    0.0000 C   0  0  0  0  0  0  0  0  0  0  0  0
  1  2  1  0
  2  3  1  0
  3  4  2  0
  3  5  1  0
  5  6  1  0
  6  7  1  0
  7  8  2  0
  8  9  1  0
  9 10  2  0
 10 11  1  0
 11 12  1  0
 12 13  2  0
 13 14  1  0
 14 15  1  0
 15 16  1  0
 16 17  1  0
 17 18  2  0
 17 19  1  0
 19 20  2  0
 20 21  1  0
 21 22  2  0
 22 23  1  0
 23 24  2  0
 15 25  2  0
 10 26  1  0
 26 27  1  0
 27 28  1  0
 28 29  2  0
 28 30  1  0
 30 31  2  0
 31 32  1  0
 32 33  2  0
 33 34  1  0
 33 35  1  0
 35 36  2  0
 26  7  1  0
 36 30  1  0
 25 12  1  0
 24 19  1  0
M  END
>  <Compound_ID>  (42) 
CHEMBL398774

>  <Active>  (42) 
1.0

>  <Smiles>  (42) 
NNC(=O)CSc1nnc(Cc2csc(NC(=O)c3ccccc3)n2)n1NC(=O)c1ccc(Cl)cc1

>  <canonical_smi>  (42) 
NNC(=O)CSc1nnc(Cc2csc(NC(=O)c3ccccc3)n2)n1NC(=O)c1ccc(Cl)cc1

>  <Set>  (42) 
G1 active

>  <Set_type>  (42) 
G1

>  <MW>  (42) 
543.03

>  <HBD>  (42) 
4

>  <HBA>  (42) 
8

>  <NRB>  (42) 
9

>  <NR>  (42) 
4

>  <NAR>  (42) 
4

>  <PSA>  (42) 
156.92

>  <Standard Type>  (42) 
nan

>  <Standard Relation>  (42) 
nan

>  <Standard Units>  (42) 
nan

>  <Standard Value>  (42) 
nan

>  <Assay ChEMBL ID>  (42) 
nan

>  <Assay Description>  (42) 
nan

>  <BAO Label>  (42) 
nan

$$$$

     RDKit          2D

 24 26  0  0  0  0  0  0  0  0999 V2000
   -5.0490   -3.1471    0.0000 C   0  0  0  0  0  0  0  0  0  0  0  0
   -3.7500   -3.8971    0.0000 C   0  0  0  0  0  0  0  0  0  0  0  0
   -2.4510   -4.6471    0.0000 C   0  0  0  0  0  0  0  0  0  0  0  0
   -4.5000   -5.1962    0.0000 C   0  0  0  0  0  0  0  0  0  0  0  0
   -3.0000   -2.5981    0.0000 N   0  0  0  0  0  0  0  0  0  0  0  0
   -1.5000   -2.5981    0.0000 C   0  0  0  0  0  0  0  0  0  0  0  0
   -0.7500   -3.8971    0.0000 N   0  0  0  0  0  0  0  0  0  0  0  0
    0.7500   -3.8971    0.0000 C   0  0  0  0  0  0  0  0  0  0  0  0
    1.5000   -5.1962    0.0000 C   0  0  0  0  0  0  0  0  0  0  0  0
    2.2500   -6.4952    0.0000 F   0  0  0  0  0  0  0  0  0  0  0  0
    0.2010   -5.9462    0.0000 F   0  0  0  0  0  0  0  0  0  0  0  0
    2.7990   -4.4462    0.0000 F   0  0  0  0  0  0  0  0  0  0  0  0
    1.5000   -2.5981    0.0000 N   0  0  0  0  0  0  0  0  0  0  0  0
    0.7500   -1.2990    0.0000 C   0  0  0  0  0  0  0  0  0  0  0  0
    1.5000    0.0000    0.0000 C   0  0  0  0  0  0  0  0  0  0  0  0
    0.7500    1.2990    0.0000 C   0  0  0  0  0  0  0  0  0  0  0  0
   -0.7500    1.2990    0.0000 C   0  0  0  0  0  0  0  0  0  0  0  0
   -1.5000    2.5981    0.0000 C   0  0  0  0  0  0  0  0  0  0  0  0
   -2.9918    2.7549    0.0000 C   0  0  0  0  0  0  0  0  0  0  0  0
   -3.3037    4.2221    0.0000 C   0  0  0  0  0  0  0  0  0  0  0  0
   -2.0046    4.9721    0.0000 S   0  0  0  0  0  0  0  0  0  0  0  0
   -0.8899    3.9684    0.0000 C   0  0  0  0  0  0  0  0  0  0  0  0
   -1.5000    0.0000    0.0000 C   0  0  0  0  0  0  0  0  0  0  0  0
   -0.7500   -1.2990    0.0000 C   0  0  0  0  0  0  0  0  0  0  0  0
  1  2  1  0
  2  3  1  0
  2  4  1  0
  2  5  1  0
  5  6  1  0
  6  7  2  0
  7  8  1  0
  8  9  1  0
  9 10  1  0
  9 11  1  0
  9 12  1  0
  8 13  2  0
 13 14  1  0
 14 15  2  0
 15 16  1  0
 16 17  2  0
 17 18  1  0
 18 19  1  0
 19 20  2  0
 20 21  1  0
 21 22  1  0
 17 23  1  0
 23 24  2  0
 24  6  1  0
 24 14  1  0
 22 18  2  0
M  END
>  <Compound_ID>  (43) 
CHEMBL274456

>  <Active>  (43) 
1.0

>  <Smiles>  (43) 
CC(C)(C)Nc1nc(C(F)(F)F)nc2ccc(-c3ccsc3)cc12

>  <canonical_smi>  (43) 
CC(C)(C)Nc1nc(C(F)(F)F)nc2ccc(-c3ccsc3)cc12

>  <Set>  (43) 
G1 active

>  <Set_type>  (43) 
G1

>  <MW>  (43) 
351.4

>  <HBD>  (43) 
1

>  <HBA>  (43) 
3

>  <NRB>  (43) 
2

>  <NR>  (43) 
3

>  <NAR>  (43) 
3

>  <PSA>  (43) 
37.81

>  <Standard Type>  (43) 
nan

>  <Standard Relation>  (43) 
nan

>  <Standard Units>  (43) 
nan

>  <Standard Value>  (43) 
nan

>  <Assay ChEMBL ID>  (43) 
nan

>  <Assay Description>  (43) 
nan

>  <BAO Label>  (43) 
nan

$$$$

     RDKit          2D

 16 18  0  0  0  0  0  0  0  0999 V2000
    2.7760    0.0000    0.0000 C   0  0  0  0  0  0  0  0  0  0  0  0
    1.2760    0.0000    0.0000 C   0  0  0  0  0  0  0  0  0  0  0  0
    0.3943    1.2135    0.0000 N   0  0  0  0  0  0  0  0  0  0  0  0
   -1.0323    0.7500    0.0000 N   0  0  0  0  0  0  0  0  0  0  0  0
   -1.0323   -0.7500    0.0000 C   0  0  0  0  0  0  0  0  0  0  0  0
   -1.9140   -1.9635    0.0000 S   0  0  0  0  0  0  0  0  0  0  0  0
   -1.0323   -3.1771    0.0000 C   0  0  0  0  0  0  0  0  0  0  0  0
   -1.4958   -4.6036    0.0000 C   0  0  0  0  0  0  0  0  0  0  0  0
   -2.9630   -4.9155    0.0000 C   0  0  0  0  0  0  0  0  0  0  0  0
   -3.4266   -6.3421    0.0000 C   0  0  0  0  0  0  0  0  0  0  0  0
   -2.4229   -7.4568    0.0000 C   0  0  0  0  0  0  0  0  0  0  0  0
   -2.8864   -8.8834    0.0000 N   0  0  0  0  0  0  0  0  0  0  0  0
   -0.9556   -7.1449    0.0000 C   0  0  0  0  0  0  0  0  0  0  0  0
   -0.4921   -5.7184    0.0000 C   0  0  0  0  0  0  0  0  0  0  0  0
    0.3943   -2.7135    0.0000 N   0  0  0  0  0  0  0  0  0  0  0  0
    0.3943   -1.2135    0.0000 N   0  0  0  0  0  0  0  0  0  0  0  0
  1  2  1  0
  2  3  2  0
  3  4  1  0
  4  5  2  0
  5  6  1  0
  6  7  1  0
  7  8  1  0
  8  9  2  0
  9 10  1  0
 10 11  2  0
 11 12  1  0
 11 13  1  0
 13 14  2  0
  7 15  2  0
 15 16  1  0
 16  2  1  0
 16  5  1  0
 14  8  1  0
M  END
>  <Compound_ID>  (44) 
CHEMBL553906

>  <Active>  (44) 
1.0

>  <Smiles>  (44) 
Cc1nnc2sc(-c3ccc(N)cc3)nn12

>  <canonical_smi>  (44) 
Cc1nnc2sc(-c3ccc(N)cc3)nn12

>  <Set>  (44) 
G1 active

>  <Set_type>  (44) 
G1

>  <MW>  (44) 
231.28

>  <HBD>  (44) 
1

>  <HBA>  (44) 
4

>  <NRB>  (44) 
1

>  <NR>  (44) 
3

>  <NAR>  (44) 
3

>  <PSA>  (44) 
69.1

>  <Standard Type>  (44) 
nan

>  <Standard Relation>  (44) 
nan

>  <Standard Units>  (44) 
nan

>  <Standard Value>  (44) 
nan

>  <Assay ChEMBL ID>  (44) 
nan

>  <Assay Description>  (44) 
nan

>  <BAO Label>  (44) 
nan

$$$$

     RDKit          2D

 28 31  0  0  0  0  0  0  0  0999 V2000
   -2.9520   -4.6564    0.0000 C   0  0  0  0  0  0  0  0  0  0  0  0
   -2.6401   -3.1891    0.0000 C   0  0  0  0  0  0  0  0  0  0  0  0
   -1.2135   -2.7256    0.0000 C   0  0  0  0  0  0  0  0  0  0  0  0
   -0.0000   -3.6073    0.0000 N   0  0  0  0  0  0  0  0  0  0  0  0
    1.2135   -2.7256    0.0000 N   0  0  0  0  0  0  0  0  0  0  0  0
    2.6401   -3.1891    0.0000 C   0  0  0  0  0  0  0  0  0  0  0  0
    2.9520   -4.6564    0.0000 C   0  0  0  0  0  0  0  0  0  0  0  0
    1.8373   -5.6601    0.0000 Cl  0  0  0  0  0  0  0  0  0  0  0  0
    4.3786   -5.1199    0.0000 C   0  0  0  0  0  0  0  0  0  0  0  0
    5.4933   -4.1162    0.0000 C   0  0  0  0  0  0  0  0  0  0  0  0
    6.9199   -4.5797    0.0000 Cl  0  0  0  0  0  0  0  0  0  0  0  0
    5.1814   -2.6490    0.0000 C   0  0  0  0  0  0  0  0  0  0  0  0
    3.7548   -2.1855    0.0000 C   0  0  0  0  0  0  0  0  0  0  0  0
    3.4430   -0.7182    0.0000 Cl  0  0  0  0  0  0  0  0  0  0  0  0
    0.7500   -1.2990    0.0000 C   0  0  0  0  0  0  0  0  0  0  0  0
    1.5000    0.0000    0.0000 N   0  0  0  0  0  0  0  0  0  0  0  0
    0.7500    1.2990    0.0000 C   0  0  0  0  0  0  0  0  0  0  0  0
    1.5000    2.5981    0.0000 C   0  0  0  0  0  0  0  0  0  0  0  0
    3.0000    2.5981    0.0000 C   0  0  0  0  0  0  0  0  0  0  0  0
    3.7500    3.8971    0.0000 C   0  0  0  0  0  0  0  0  0  0  0  0
    3.1399    5.2674    0.0000 C   0  0  0  0  0  0  0  0  0  0  0  0
    4.2546    6.2711    0.0000 N   0  0  0  0  0  0  0  0  0  0  0  0
    5.5537    5.5211    0.0000 C   0  0  0  0  0  0  0  0  0  0  0  0
    5.2418    4.0539    0.0000 N   0  0  0  0  0  0  0  0  0  0  0  0
   -0.7500    1.2990    0.0000 N   0  0  0  0  0  0  0  0  0  0  0  0
   -1.5000    0.0000    0.0000 C   0  0  0  0  0  0  0  0  0  0  0  0
   -3.0000    0.0000    0.0000 O   0  0  0  0  0  0  0  0  0  0  0  0
   -0.7500   -1.2990    0.0000 C   0  0  0  0  0  0  0  0  0  0  0  0
  1  2  1  0
  2  3  1  0
  3  4  2  0
  4  5  1  0
  5  6  1  0
  6  7  2  0
  7  8  1  0
  7  9  1  0
  9 10  2  0
 10 11  1  0
 10 12  1  0
 12 13  2  0
 13 14  1  0
  5 15  1  0
 15 16  2  0
 16 17  1  0
 17 18  1  0
 18 19  1  0
 19 20  1  0
 20 21  2  0
 21 22  1  0
 22 23  1  0
 23 24  2  0
 17 25  2  0
 25 26  1  0
 26 27  1  0
 26 28  2  0
 28  3  1  0
 13  6  1  0
 28 15  1  0
 24 20  1  0
M  END
>  <Compound_ID>  (45) 
CHEMBL188102

>  <Active>  (45) 
1.0

>  <Smiles>  (45) 
CCc1nn(-c2c(Cl)cc(Cl)cc2Cl)c2nc(CCc3c[nH]cn3)nc(O)c12

>  <canonical_smi>  (45) 
CCc1nn(-c2c(Cl)cc(Cl)cc2Cl)c2nc(CCc3c[nH]cn3)nc(O)c12

>  <Set>  (45) 
G1 active

>  <Set_type>  (45) 
G1

>  <MW>  (45) 
437.72

>  <HBD>  (45) 
2

>  <HBA>  (45) 
5

>  <NRB>  (45) 
5

>  <NR>  (45) 
4

>  <NAR>  (45) 
4

>  <PSA>  (45) 
92.51

>  <Standard Type>  (45) 
nan

>  <Standard Relation>  (45) 
nan

>  <Standard Units>  (45) 
nan

>  <Standard Value>  (45) 
nan

>  <Assay ChEMBL ID>  (45) 
nan

>  <Assay Description>  (45) 
nan

>  <BAO Label>  (45) 
nan

$$$$

     RDKit          2D

 17 18  0  0  0  0  0  0  0  0999 V2000
    0.3207  -11.1638    0.0000 C   0  0  0  0  0  0  0  0  0  0  0  0
    0.4775   -9.6721    0.0000 C   0  0  0  0  0  0  0  0  0  0  0  0
   -0.7360   -8.7904    0.0000 O   0  0  0  0  0  0  0  0  0  0  0  0
    1.8478   -9.0619    0.0000 N   0  0  0  0  0  0  0  0  0  0  0  0
    2.0046   -7.5702    0.0000 C   0  0  0  0  0  0  0  0  0  0  0  0
    3.3037   -6.8202    0.0000 N   0  0  0  0  0  0  0  0  0  0  0  0
    2.9918   -5.3529    0.0000 C   0  0  0  0  0  0  0  0  0  0  0  0
    1.5000   -5.1962    0.0000 C   0  0  0  0  0  0  0  0  0  0  0  0
    0.7500   -3.8971    0.0000 S   0  0  0  0  0  0  0  0  0  0  0  0
    1.5000   -2.5981    0.0000 C   0  0  0  0  0  0  0  0  0  0  0  0
    0.7500   -1.2990    0.0000 C   0  0  0  0  0  0  0  0  0  0  0  0
    1.5000    0.0000    0.0000 C   0  0  0  0  0  0  0  0  0  0  0  0
    0.7500    1.2990    0.0000 C   0  0  0  0  0  0  0  0  0  0  0  0
   -0.7500    1.2990    0.0000 C   0  0  0  0  0  0  0  0  0  0  0  0
   -1.5000    0.0000    0.0000 N   0  0  0  0  0  0  0  0  0  0  0  0
   -0.7500   -1.2990    0.0000 C   0  0  0  0  0  0  0  0  0  0  0  0
    0.8899   -6.5665    0.0000 S   0  0  0  0  0  0  0  0  0  0  0  0
  1  2  1  0
  2  3  2  0
  2  4  1  0
  4  5  1  0
  5  6  2  0
  6  7  1  0
  7  8  2  0
  8  9  1  0
  9 10  1  0
 10 11  1  0
 11 12  2  0
 12 13  1  0
 13 14  2  0
 14 15  1  0
 15 16  2  0
  8 17  1  0
 17  5  1  0
 16 11  1  0
M  END
>  <Compound_ID>  (46) 
CHEMBL340741

>  <Active>  (46) 
1.0

>  <Smiles>  (46) 
CC(=O)Nc1ncc(SCc2cccnc2)s1

>  <canonical_smi>  (46) 
CC(=O)Nc1ncc(SCc2cccnc2)s1

>  <Set>  (46) 
G1 active

>  <Set_type>  (46) 
G1

>  <MW>  (46) 
265.36

>  <HBD>  (46) 
1

>  <HBA>  (46) 
4

>  <NRB>  (46) 
4

>  <NR>  (46) 
2

>  <NAR>  (46) 
2

>  <PSA>  (46) 
54.88

>  <Standard Type>  (46) 
nan

>  <Standard Relation>  (46) 
nan

>  <Standard Units>  (46) 
nan

>  <Standard Value>  (46) 
nan

>  <Assay ChEMBL ID>  (46) 
nan

>  <Assay Description>  (46) 
nan

>  <BAO Label>  (46) 
nan

$$$$

     RDKit          2D

 38 41  0  0  0  0  0  0  0  0999 V2000
    3.7500   -1.2990    0.0000 C   0  0  0  0  0  0  0  0  0  0  0  0
    3.0000    0.0000    0.0000 C   0  0  0  0  0  0  0  0  0  0  0  0
    1.5000    0.0000    0.0000 N   0  0  0  0  0  0  0  0  0  0  0  0
    0.7500   -1.2990    0.0000 C   0  0  0  0  0  0  0  0  0  0  0  0
   -0.7500   -1.2990    0.0000 C   0  0  0  0  0  0  0  0  0  0  0  0
   -1.5000    0.0000    0.0000 N   0  0  0  0  0  0  0  0  0  0  0  0
   -3.0000    0.0000    0.0000 C   0  0  0  0  0  0  0  0  0  0  0  0
   -3.7500    1.2990    0.0000 C   0  0  0  0  0  0  0  0  0  0  0  0
   -3.0000    2.5981    0.0000 C   0  0  0  0  0  0  0  0  0  0  0  0
   -3.7500    3.8971    0.0000 C   0  0  0  0  0  0  0  0  0  0  0  0
   -5.2500    3.8971    0.0000 C   0  0  0  0  0  0  0  0  0  0  0  0
   -6.0000    5.1962    0.0000 N   0  0  0  0  0  0  0  0  0  0  0  0
   -5.2500    6.4952    0.0000 C   0  0  0  0  0  0  0  0  0  0  0  0
   -3.7500    6.4952    0.0000 O   0  0  0  0  0  0  0  0  0  0  0  0
   -6.0000    7.7942    0.0000 N   0  0  0  0  0  0  0  0  0  0  0  0
   -5.2500    9.0933    0.0000 C   0  0  0  0  0  0  0  0  0  0  0  0
   -3.7500    9.0933    0.0000 C   0  0  0  0  0  0  0  0  0  0  0  0
   -3.0000   10.3923    0.0000 C   0  0  0  0  0  0  0  0  0  0  0  0
   -3.7500   11.6913    0.0000 C   0  0  0  0  0  0  0  0  0  0  0  0
   -3.0000   12.9904    0.0000 O   0  0  0  0  0  0  0  0  0  0  0  0
   -1.5000   12.9904    0.0000 C   0  0  0  0  0  0  0  0  0  0  0  0
   -0.7500   11.6913    0.0000 C   0  0  0  0  0  0  0  0  0  0  0  0
    0.7500   11.6913    0.0000 C   0  0  0  0  0  0  0  0  0  0  0  0
    1.5000   10.3923    0.0000 N   0  0  0  0  0  0  0  0  0  0  0  0
    0.7500    9.0933    0.0000 C   0  0  0  0  0  0  0  0  0  0  0  0
    1.5000   12.9904    0.0000 N   0  0  0  0  0  0  0  0  0  0  0  0
    0.7500   14.2894    0.0000 C   0  0  0  0  0  0  0  0  0  0  0  0
   -0.7500   14.2894    0.0000 N   0  0  0  0  0  0  0  0  0  0  0  0
   -5.2500   11.6913    0.0000 C   0  0  0  0  0  0  0  0  0  0  0  0
   -6.0000   10.3923    0.0000 C   0  0  0  0  0  0  0  0  0  0  0  0
   -6.0000    2.5981    0.0000 C   0  0  0  0  0  0  0  0  0  0  0  0
   -5.2500    1.2990    0.0000 C   0  0  0  0  0  0  0  0  0  0  0  0
   -6.0000    0.0000    0.0000 C   0  0  0  0  0  0  0  0  0  0  0  0
   -6.7500   -1.2990    0.0000 F   0  0  0  0  0  0  0  0  0  0  0  0
   -7.2990    0.7500    0.0000 F   0  0  0  0  0  0  0  0  0  0  0  0
   -4.7010   -0.7500    0.0000 F   0  0  0  0  0  0  0  0  0  0  0  0
   -0.7500    1.2990    0.0000 C   0  0  0  0  0  0  0  0  0  0  0  0
    0.7500    1.2990    0.0000 C   0  0  0  0  0  0  0  0  0  0  0  0
  1  2  1  0
  2  3  1  0
  3  4  1  0
  4  5  1  0
  5  6  1  0
  6  7  1  0
  7  8  1  0
  8  9  2  0
  9 10  1  0
 10 11  2  0
 11 12  1  0
 12 13  1  0
 13 14  2  0
 13 15  1  0
 15 16  1  0
 16 17  2  0
 17 18  1  0
 18 19  2  0
 19 20  1  0
 20 21  1  0
 21 22  2  0
 22 23  1  0
 23 24  1  0
 24 25  1  0
 23 26  2  0
 26 27  1  0
 27 28  2  0
 19 29  1  0
 29 30  2  0
 11 31  1  0
 31 32  2  0
 32 33  1  0
 33 34  1  0
 33 35  1  0
 33 36  1  0
  6 37  1  0
 37 38  1  0
 38  3  1  0
 32  8  1  0
 30 16  1  0
 28 21  1  0
M  END
>  <Compound_ID>  (47) 
CHEMBL574738

>  <Active>  (47) 
1.0

>  <Smiles>  (47) 
CCN1CCN(Cc2ccc(NC(=O)Nc3ccc(Oc4cc(NC)ncn4)cc3)cc2C(F)(F)F)CC1

>  <canonical_smi>  (47) 
CCN1CCN(Cc2ccc(NC(=O)Nc3ccc(Oc4cc(NC)ncn4)cc3)cc2C(F)(F)F)CC1

>  <Set>  (47) 
G1 active

>  <Set_type>  (47) 
G1

>  <MW>  (47) 
529.57

>  <HBD>  (47) 
3

>  <HBA>  (47) 
7

>  <NRB>  (47) 
8

>  <NR>  (47) 
4

>  <NAR>  (47) 
3

>  <PSA>  (47) 
94.65

>  <Standard Type>  (47) 
nan

>  <Standard Relation>  (47) 
nan

>  <Standard Units>  (47) 
nan

>  <Standard Value>  (47) 
nan

>  <Assay ChEMBL ID>  (47) 
nan

>  <Assay Description>  (47) 
nan

>  <BAO Label>  (47) 
nan

$$$$

     RDKit          2D

 37 40  0  0  0  0  0  0  0  0999 V2000
    3.0000    0.0000    0.0000 C   0  0  0  0  0  0  0  0  0  0  0  0
    1.5000    0.0000    0.0000 C   0  0  0  0  0  0  0  0  0  0  0  0
    0.7500   -1.2990    0.0000 N   0  0  0  0  0  0  0  0  0  0  0  0
   -0.7500   -1.2990    0.0000 C   0  0  0  0  0  0  0  0  0  0  0  0
   -1.5000   -2.5981    0.0000 S   0  0  0  0  0  0  0  0  0  0  0  0
   -0.2010   -3.3481    0.0000 O   0  0  0  0  0  0  0  0  0  0  0  0
   -2.7990   -1.8481    0.0000 O   0  0  0  0  0  0  0  0  0  0  0  0
   -2.2500   -3.8971    0.0000 C   0  0  0  0  0  0  0  0  0  0  0  0
   -1.5000   -5.1962    0.0000 C   0  0  0  0  0  0  0  0  0  0  0  0
   -2.2500   -6.4952    0.0000 C   0  0  0  0  0  0  0  0  0  0  0  0
   -1.5000   -7.7942    0.0000 C   0  0  0  0  0  0  0  0  0  0  0  0
   -0.0000   -7.7942    0.0000 C   0  0  0  0  0  0  0  0  0  0  0  0
    0.7500   -6.4952    0.0000 C   0  0  0  0  0  0  0  0  0  0  0  0
   -0.0000   -5.1962    0.0000 C   0  0  0  0  0  0  0  0  0  0  0  0
   -1.5000    0.0000    0.0000 N   0  0  0  0  0  0  0  0  0  0  0  0
   -0.7500    1.2990    0.0000 C   0  0  0  0  0  0  0  0  0  0  0  0
   -1.5000    2.5981    0.0000 C   0  0  0  0  0  0  0  0  0  0  0  0
   -0.7500    3.8971    0.0000 C   0  0  0  0  0  0  0  0  0  0  0  0
   -1.5000    5.1962    0.0000 C   0  0  0  0  0  0  0  0  0  0  0  0
   -3.0000    5.1962    0.0000 C   0  0  0  0  0  0  0  0  0  0  0  0
   -3.7500    6.4952    0.0000 O   0  0  0  0  0  0  0  0  0  0  0  0
   -3.7500    3.8971    0.0000 C   0  0  0  0  0  0  0  0  0  0  0  0
   -3.0000    2.5981    0.0000 C   0  0  0  0  0  0  0  0  0  0  0  0
   -3.7500    1.2990    0.0000 O   0  0  0  0  0  0  0  0  0  0  0  0
    0.7500    1.2990    0.0000 C   0  0  0  0  0  0  0  0  0  0  0  0
    1.5000    2.5981    0.0000 C   0  0  0  0  0  0  0  0  0  0  0  0
    0.7500    3.8971    0.0000 O   0  0  0  0  0  0  0  0  0  0  0  0
    3.0000    2.5981    0.0000 N   0  0  0  0  0  0  0  0  0  0  0  0
    3.7500    3.8971    0.0000 C   0  0  0  0  0  0  0  0  0  0  0  0
    5.2500    3.8971    0.0000 C   0  0  0  0  0  0  0  0  0  0  0  0
    6.0000    5.1962    0.0000 C   0  0  0  0  0  0  0  0  0  0  0  0
    5.2500    6.4952    0.0000 C   0  0  0  0  0  0  0  0  0  0  0  0
    3.7500    6.4952    0.0000 C   0  0  0  0  0  0  0  0  0  0  0  0
    3.0000    7.7942    0.0000 N   0  0  0  0  0  4  0  0  0  0  0  0
    1.5000    7.7942    0.0000 O   0  0  0  0  0  0  0  0  0  0  0  0
    3.7500    9.0933    0.0000 O   0  0  0  0  0  1  0  0  0  0  0  0
    3.0000    5.1962    0.0000 C   0  0  0  0  0  0  0  0  0  0  0  0
  1  2  1  0
  2  3  2  0
  3  4  1  0
  4  5  1  0
  5  6  2  0
  5  7  2  0
  5  8  1  0
  8  9  1  0
  9 10  2  0
 10 11  1  0
 11 12  2  0
 12 13  1  0
 13 14  2  0
  4 15  2  0
 15 16  1  0
 16 17  1  0
 17 18  2  0
 18 19  1  0
 19 20  2  0
 20 21  1  0
 20 22  1  0
 22 23  2  0
 23 24  1  0
 16 25  2  0
 25 26  1  0
 26 27  2  0
 26 28  1  0
 28 29  1  0
 29 30  2  0
 30 31  1  0
 31 32  2  0
 32 33  1  0
 33 34  1  0
 34 35  2  0
 34 36  1  0
 33 37  2  0
 25  2  1  0
 37 29  1  0
 14  9  1  0
 23 17  1  0
M  CHG  2  34   1  36  -1
M  END
>  <Compound_ID>  (48) 
CHEMBL1083509

>  <Active>  (48) 
1.0

>  <Smiles>  (48) 
Cc1nc(S(=O)(=O)Cc2ccccc2)nc(-c2ccc(O)cc2O)c1C(=O)Nc1cccc([N+](=O)[O-])c1

>  <canonical_smi>  (48) 
Cc1nc(S(=O)(=O)Cc2ccccc2)nc(-c2ccc(O)cc2O)c1C(=O)Nc1cccc([N+](=O)[O-])c1

>  <Set>  (48) 
G1 active

>  <Set_type>  (48) 
G1

>  <MW>  (48) 
520.52

>  <HBD>  (48) 
3

>  <HBA>  (48) 
9

>  <NRB>  (48) 
7

>  <NR>  (48) 
4

>  <NAR>  (48) 
4

>  <PSA>  (48) 
172.62

>  <Standard Type>  (48) 
nan

>  <Standard Relation>  (48) 
nan

>  <Standard Units>  (48) 
nan

>  <Standard Value>  (48) 
nan

>  <Assay ChEMBL ID>  (48) 
nan

>  <Assay Description>  (48) 
nan

>  <BAO Label>  (48) 
nan

$$$$

     RDKit          2D

 24 27  0  0  0  0  0  0  0  0999 V2000
   -2.0143    8.6263    0.0000 C   0  0  0  0  0  0  0  0  0  0  0  0
   -0.8995    7.6226    0.0000 C   0  0  0  0  0  0  0  0  0  0  0  0
   -1.2114    6.1554    0.0000 C   0  0  0  0  0  0  0  0  0  0  0  0
   -2.6380    5.6918    0.0000 C   0  0  0  0  0  0  0  0  0  0  0  0
   -2.9499    4.2246    0.0000 N   0  0  0  0  0  0  0  0  0  0  0  0
   -1.8351    3.2209    0.0000 C   0  0  0  0  0  0  0  0  0  0  0  0
   -0.4086    3.6844    0.0000 N   0  0  0  0  0  0  0  0  0  0  0  0
    0.7062    2.6807    0.0000 C   0  0  0  0  0  0  0  0  0  0  0  0
    2.1328    3.1443    0.0000 O   0  0  0  0  0  0  0  0  0  0  0  0
    2.4446    4.6115    0.0000 C   0  0  0  0  0  0  0  0  0  0  0  0
    3.8712    5.0750    0.0000 C   0  0  0  0  0  0  0  0  0  0  0  0
    4.9859    4.0713    0.0000 C   0  0  0  0  0  0  0  0  0  0  0  0
    6.4125    4.5348    0.0000 C   0  0  0  0  0  0  0  0  0  0  0  0
    6.7244    6.0021    0.0000 C   0  0  0  0  0  0  0  0  0  0  0  0
    5.6097    7.0058    0.0000 C   0  0  0  0  0  0  0  0  0  0  0  0
    4.1831    6.5422    0.0000 C   0  0  0  0  0  0  0  0  0  0  0  0
    0.3943    1.2135    0.0000 C   0  0  0  0  0  0  0  0  0  0  0  0
    1.2760    0.0000    0.0000 N   0  0  0  0  0  0  0  0  0  0  0  0
    0.3943   -1.2135    0.0000 C   0  0  0  0  0  0  0  0  0  0  0  0
   -1.0323   -0.7500    0.0000 N   0  0  0  0  0  0  0  0  0  0  0  0
   -1.0323    0.7500    0.0000 C   0  0  0  0  0  0  0  0  0  0  0  0
   -2.1470    1.7537    0.0000 N   0  0  0  0  0  0  0  0  0  0  0  0
   -3.7527    6.6955    0.0000 C   0  0  0  0  0  0  0  0  0  0  0  0
   -3.4408    8.1628    0.0000 C   0  0  0  0  0  0  0  0  0  0  0  0
  1  2  2  0
  2  3  1  0
  3  4  2  0
  4  5  1  0
  5  6  1  0
  6  7  2  0
  7  8  1  0
  8  9  1  0
  9 10  1  0
 10 11  1  0
 11 12  1  0
 12 13  1  0
 13 14  1  0
 14 15  1  0
 15 16  1  0
  8 17  2  0
 17 18  1  0
 18 19  2  0
 19 20  1  0
 20 21  1  0
 21 22  2  0
  4 23  1  0
 23 24  2  0
 24  1  1  0
 22  6  1  0
 16 11  1  0
 21 17  1  0
M  END
>  <Compound_ID>  (49) 
CHEMBL122264

>  <Active>  (49) 
1.0

>  <Smiles>  (49) 
c1ccc(Nc2nc(OCC3CCCCC3)c3nc[nH]c3n2)cc1

>  <canonical_smi>  (49) 
c1ccc(Nc2nc(OCC3CCCCC3)c3nc[nH]c3n2)cc1

>  <Set>  (49) 
G1 active

>  <Set_type>  (49) 
G1

>  <MW>  (49) 
323.4

>  <HBD>  (49) 
2

>  <HBA>  (49) 
5

>  <NRB>  (49) 
5

>  <NR>  (49) 
4

>  <NAR>  (49) 
3

>  <PSA>  (49) 
75.72

>  <Standard Type>  (49) 
nan

>  <Standard Relation>  (49) 
nan

>  <Standard Units>  (49) 
nan

>  <Standard Value>  (49) 
nan

>  <Assay ChEMBL ID>  (49) 
nan

>  <Assay Description>  (49) 
nan

>  <BAO Label>  (49) 
nan

$$$$

     RDKit          2D

 18 20  0  0  0  0  0  0  0  0999 V2000
   -5.1814   -6.0656    0.0000 C   0  0  0  0  0  0  0  0  0  0  0  0
   -3.7548   -6.5291    0.0000 C   0  0  0  0  0  0  0  0  0  0  0  0
   -3.4430   -7.9964    0.0000 O   0  0  0  0  0  0  0  0  0  0  0  0
   -2.6401   -5.5255    0.0000 N   0  0  0  0  0  0  0  0  0  0  0  0
   -1.2135   -5.9890    0.0000 C   0  0  0  0  0  0  0  0  0  0  0  0
   -0.7500   -7.4156    0.0000 C   0  0  0  0  0  0  0  0  0  0  0  0
    0.7500   -7.4156    0.0000 N   0  0  0  0  0  0  0  0  0  0  0  0
    1.2135   -5.9890    0.0000 N   0  0  0  0  0  0  0  0  0  0  0  0
   -0.0000   -5.1073    0.0000 C   0  0  0  0  0  0  0  0  0  0  0  0
   -0.0000   -3.6073    0.0000 C   0  0  0  0  0  0  0  0  0  0  0  0
    1.2135   -2.7256    0.0000 N   0  0  0  0  0  0  0  0  0  0  0  0
    0.7500   -1.2990    0.0000 C   0  0  0  0  0  0  0  0  0  0  0  0
    1.5000    0.0000    0.0000 C   0  0  0  0  0  0  0  0  0  0  0  0
    0.7500    1.2990    0.0000 C   0  0  0  0  0  0  0  0  0  0  0  0
   -0.7500    1.2990    0.0000 C   0  0  0  0  0  0  0  0  0  0  0  0
   -1.5000    0.0000    0.0000 C   0  0  0  0  0  0  0  0  0  0  0  0
   -0.7500   -1.2990    0.0000 C   0  0  0  0  0  0  0  0  0  0  0  0
   -1.2135   -2.7256    0.0000 N   0  0  0  0  0  0  0  0  0  0  0  0
  1  2  1  0
  2  3  2  0
  2  4  1  0
  4  5  1  0
  5  6  2  0
  6  7  1  0
  7  8  1  0
  8  9  2  0
  9 10  1  0
 10 11  2  0
 11 12  1  0
 12 13  2  0
 13 14  1  0
 14 15  2  0
 15 16  1  0
 16 17  2  0
 17 18  1  0
  9  5  1  0
 18 10  1  0
 17 12  1  0
M  END
>  <Compound_ID>  (50) 
CHEMBL504155

>  <Active>  (50) 
1.0

>  <Smiles>  (50) 
CC(=O)Nc1c[nH]nc1-c1nc2ccccc2[nH]1

>  <canonical_smi>  (50) 
CC(=O)Nc1c[nH]nc1-c1nc2ccccc2[nH]1

>  <Set>  (50) 
G1 active

>  <Set_type>  (50) 
G1

>  <MW>  (50) 
241.25

>  <HBD>  (50) 
3

>  <HBA>  (50) 
3

>  <NRB>  (50) 
2

>  <NR>  (50) 
3

>  <NAR>  (50) 
3

>  <PSA>  (50) 
86.46

>  <Standard Type>  (50) 
nan

>  <Standard Relation>  (50) 
nan

>  <Standard Units>  (50) 
nan

>  <Standard Value>  (50) 
nan

>  <Assay ChEMBL ID>  (50) 
nan

>  <Assay Description>  (50) 
nan

>  <BAO Label>  (50) 
nan

$$$$

     RDKit          2D

 28 30  0  0  0  0  0  0  0  0999 V2000
   -6.0000    0.0000    0.0000 C   0  0  0  0  0  0  0  0  0  0  0  0
   -5.2500    1.2990    0.0000 C   0  0  0  0  0  0  0  0  0  0  0  0
   -6.0000    2.5981    0.0000 C   0  0  0  0  0  0  0  0  0  0  0  0
   -5.2500    3.8971    0.0000 C   0  0  0  0  0  0  0  0  0  0  0  0
   -3.7500    3.8971    0.0000 C   0  0  0  0  0  0  0  0  0  0  0  0
   -3.0000    5.1962    0.0000 F   0  0  0  0  0  0  0  0  0  0  0  0
   -3.0000    2.5981    0.0000 C   0  0  0  0  0  0  0  0  0  0  0  0
   -1.5000    2.5981    0.0000 C   0  0  0  0  0  0  0  0  0  0  0  0
   -0.7500    1.2990    0.0000 O   0  0  0  0  0  0  0  0  0  0  0  0
   -0.7500    3.8971    0.0000 N   0  0  0  0  0  0  0  0  0  0  0  0
   -1.3601    5.2674    0.0000 N   0  0  0  0  0  0  0  0  0  0  0  0
   -0.2454    6.2711    0.0000 C   0  0  0  0  0  0  0  0  0  0  0  0
   -0.4022    7.7629    0.0000 N   0  0  0  0  0  0  0  0  0  0  0  0
    0.8113    8.6446    0.0000 C   0  0  0  0  0  0  0  0  0  0  0  0
    2.1817    8.0345    0.0000 C   0  0  0  0  0  0  0  0  0  0  0  0
    3.3952    8.9162    0.0000 C   0  0  0  0  0  0  0  0  0  0  0  0
    3.2384   10.4079    0.0000 C   0  0  0  0  0  0  0  0  0  0  0  0
    4.4519   11.2896    0.0000 S   0  0  0  0  0  0  0  0  0  0  0  0
    5.6654   12.1713    0.0000 N   0  0  0  0  0  0  0  0  0  0  0  0
    5.3336   10.0761    0.0000 O   0  0  0  0  0  0  0  0  0  0  0  0
    3.5702   12.5031    0.0000 O   0  0  0  0  0  0  0  0  0  0  0  0
    1.8681   11.0180    0.0000 C   0  0  0  0  0  0  0  0  0  0  0  0
    0.6546   10.1364    0.0000 C   0  0  0  0  0  0  0  0  0  0  0  0
    1.0537    5.5211    0.0000 N   0  0  0  0  0  0  0  0  0  0  0  0
    0.7418    4.0539    0.0000 C   0  0  0  0  0  0  0  0  0  0  0  0
    1.7455    2.9392    0.0000 C   0  0  0  0  0  0  0  0  0  0  0  0
   -3.7500    1.2990    0.0000 C   0  0  0  0  0  0  0  0  0  0  0  0
   -3.0000   -0.0000    0.0000 F   0  0  0  0  0  0  0  0  0  0  0  0
  1  2  1  0
  2  3  2  0
  3  4  1  0
  4  5  2  0
  5  6  1  0
  5  7  1  0
  7  8  1  0
  8  9  2  0
  8 10  1  0
 10 11  1  0
 11 12  2  0
 12 13  1  0
 13 14  1  0
 14 15  2  0
 15 16  1  0
 16 17  2  0
 17 18  1  0
 18 19  1  0
 18 20  2  0
 18 21  2  0
 17 22  1  0
 22 23  2  0
 12 24  1  0
 24 25  2  0
 25 26  1  0
  7 27  2  0
 27 28  1  0
 27  2  1  0
 25 10  1  0
 23 14  1  0
M  END
>  <Compound_ID>  (51) 
CHEMBL363607

>  <Active>  (51) 
1.0

>  <Smiles>  (51) 
Cc1ccc(F)c(C(=O)n2nc(Nc3ccc(S(N)(=O)=O)cc3)nc2C)c1F

>  <canonical_smi>  (51) 
Cc1ccc(F)c(C(=O)n2nc(Nc3ccc(S(N)(=O)=O)cc3)nc2C)c1F

>  <Set>  (51) 
G2 active

>  <Set_type>  (51) 
Train

>  <MW>  (51) 
407.4

>  <HBD>  (51) 
2

>  <HBA>  (51) 
6

>  <NRB>  (51) 
4

>  <NR>  (51) 
3

>  <NAR>  (51) 
3

>  <PSA>  (51) 
119.97

>  <Standard Type>  (51) 
nan

>  <Standard Relation>  (51) 
nan

>  <Standard Units>  (51) 
nan

>  <Standard Value>  (51) 
nan

>  <Assay ChEMBL ID>  (51) 
nan

>  <Assay Description>  (51) 
nan

>  <BAO Label>  (51) 
nan

$$$$

     RDKit          2D

 25 28  0  0  0  0  0  0  0  0999 V2000
   -9.3284    2.8330    0.0000 O   0  0  0  0  0  0  0  0  0  0  0  0
   -7.9018    3.2966    0.0000 N   0  0  0  0  0  4  0  0  0  0  0  0
   -7.5900    4.7638    0.0000 O   0  0  0  0  0  1  0  0  0  0  0  0
   -6.7871    2.2929    0.0000 C   0  0  0  0  0  0  0  0  0  0  0  0
   -5.3605    2.7564    0.0000 C   0  0  0  0  0  0  0  0  0  0  0  0
   -4.2458    1.7527    0.0000 C   0  0  0  0  0  0  0  0  0  0  0  0
   -4.5577    0.2855    0.0000 C   0  0  0  0  0  0  0  0  0  0  0  0
   -5.9843   -0.1781    0.0000 C   0  0  0  0  0  0  0  0  0  0  0  0
   -6.2961   -1.6453    0.0000 N   0  0  0  0  0  0  0  0  0  0  0  0
   -5.1814   -2.6490    0.0000 C   0  0  0  0  0  0  0  0  0  0  0  0
   -5.4933   -4.1162    0.0000 N   0  0  0  0  0  0  0  0  0  0  0  0
   -4.3786   -5.1199    0.0000 C   0  0  0  0  0  0  0  0  0  0  0  0
   -2.9520   -4.6564    0.0000 C   0  0  0  0  0  0  0  0  0  0  0  0
   -2.6401   -3.1891    0.0000 C   0  0  0  0  0  0  0  0  0  0  0  0
   -1.2135   -2.7256    0.0000 C   0  0  0  0  0  0  0  0  0  0  0  0
   -0.0000   -3.6073    0.0000 C   0  0  0  0  0  0  0  0  0  0  0  0
    1.2135   -2.7256    0.0000 N   0  0  0  0  0  0  0  0  0  0  0  0
    0.7500   -1.2990    0.0000 N   0  0  0  0  0  0  0  0  0  0  0  0
    1.5000    0.0000    0.0000 N   0  0  0  0  0  0  0  0  0  0  0  0
    0.7500    1.2990    0.0000 C   0  0  0  0  0  0  0  0  0  0  0  0
   -0.7500    1.2990    0.0000 C   0  0  0  0  0  0  0  0  0  0  0  0
   -1.5000    0.0000    0.0000 C   0  0  0  0  0  0  0  0  0  0  0  0
   -0.7500   -1.2990    0.0000 C   0  0  0  0  0  0  0  0  0  0  0  0
   -3.7548   -2.1855    0.0000 N   0  0  0  0  0  0  0  0  0  0  0  0
   -7.0990    0.8256    0.0000 C   0  0  0  0  0  0  0  0  0  0  0  0
  1  2  2  0
  2  3  1  0
  2  4  1  0
  4  5  2  0
  5  6  1  0
  6  7  2  0
  7  8  1  0
  8  9  1  0
  9 10  1  0
 10 11  2  0
 11 12  1  0
 12 13  2  0
 13 14  1  0
 14 15  1  0
 15 16  1  0
 16 17  2  0
 17 18  1  0
 18 19  1  0
 19 20  2  0
 20 21  1  0
 21 22  2  0
 22 23  1  0
 14 24  2  0
  8 25  2  0
 25  4  1  0
 24 10  1  0
 23 15  2  0
 23 18  1  0
M  CHG  2   2   1   3  -1
M  END
>  <Compound_ID>  (52) 
CHEMBL526110

>  <Active>  (52) 
1.0

>  <Smiles>  (52) 
O=[N+]([O-])c1cccc(Nc2nccc(-c3cnn4ncccc34)n2)c1

>  <canonical_smi>  (52) 
O=[N+]([O-])c1cccc(Nc2nccc(-c3cnn4ncccc34)n2)c1

>  <Set>  (52) 
G2 active

>  <Set_type>  (52) 
Train

>  <MW>  (52) 
333.31

>  <HBD>  (52) 
1

>  <HBA>  (52) 
7

>  <NRB>  (52) 
4

>  <NR>  (52) 
4

>  <NAR>  (52) 
4

>  <PSA>  (52) 
111.14

>  <Standard Type>  (52) 
nan

>  <Standard Relation>  (52) 
nan

>  <Standard Units>  (52) 
nan

>  <Standard Value>  (52) 
nan

>  <Assay ChEMBL ID>  (52) 
nan

>  <Assay Description>  (52) 
nan

>  <BAO Label>  (52) 
nan

$$$$

     RDKit          2D

 25 27  0  0  0  0  0  0  0  0999 V2000
    4.5000    0.0000    0.0000 N   0  0  0  0  0  0  0  0  0  0  0  0
    3.0000    0.0000    0.0000 S   0  0  0  0  0  0  0  0  0  0  0  0
    3.0000   -1.5000    0.0000 O   0  0  0  0  0  0  0  0  0  0  0  0
    3.0000    1.5000    0.0000 O   0  0  0  0  0  0  0  0  0  0  0  0
    1.5000    0.0000    0.0000 C   0  0  0  0  0  0  0  0  0  0  0  0
    0.7500   -1.2990    0.0000 C   0  0  0  0  0  0  0  0  0  0  0  0
   -0.7500   -1.2990    0.0000 C   0  0  0  0  0  0  0  0  0  0  0  0
   -1.5000    0.0000    0.0000 C   0  0  0  0  0  0  0  0  0  0  0  0
   -3.0000    0.0000    0.0000 N   0  0  0  0  0  0  0  0  0  0  0  0
   -3.7500    1.2990    0.0000 C   0  0  0  0  0  0  0  0  0  0  0  0
   -5.2418    1.4558    0.0000 C   0  0  0  0  0  0  0  0  0  0  0  0
   -5.5537    2.9231    0.0000 C   0  0  0  0  0  0  0  0  0  0  0  0
   -6.9240    3.5332    0.0000 C   0  0  0  0  0  0  0  0  0  0  0  0
   -7.0808    5.0249    0.0000 C   0  0  0  0  0  0  0  0  0  0  0  0
   -8.4511    5.6350    0.0000 C   0  0  0  0  0  0  0  0  0  0  0  0
   -9.6646    4.7534    0.0000 C   0  0  0  0  0  0  0  0  0  0  0  0
  -11.0349    5.3635    0.0000 N   0  0  0  0  0  4  0  0  0  0  0  0
  -12.2484    4.4818    0.0000 O   0  0  0  0  0  0  0  0  0  0  0  0
  -11.1917    6.8553    0.0000 O   0  0  0  0  0  1  0  0  0  0  0  0
   -9.5078    3.2616    0.0000 C   0  0  0  0  0  0  0  0  0  0  0  0
   -8.1375    2.6515    0.0000 C   0  0  0  0  0  0  0  0  0  0  0  0
   -4.2546    3.6731    0.0000 N   0  0  0  0  0  0  0  0  0  0  0  0
   -3.1399    2.6694    0.0000 N   0  0  0  0  0  0  0  0  0  0  0  0
   -0.7500    1.2990    0.0000 C   0  0  0  0  0  0  0  0  0  0  0  0
    0.7500    1.2990    0.0000 C   0  0  0  0  0  0  0  0  0  0  0  0
  1  2  1  0
  2  3  2  0
  2  4  2  0
  2  5  1  0
  5  6  2  0
  6  7  1  0
  7  8  2  0
  8  9  1  0
  9 10  1  0
 10 11  1  0
 11 12  2  0
 12 13  1  0
 13 14  2  0
 14 15  1  0
 15 16  2  0
 16 17  1  0
 17 18  2  0
 17 19  1  0
 16 20  1  0
 20 21  2  0
 12 22  1  0
 22 23  1  0
  8 24  1  0
 24 25  2  0
 25  5  1  0
 23 10  2  0
 21 13  1  0
M  CHG  2  17   1  19  -1
M  END
>  <Compound_ID>  (53) 
CHEMBL317703

>  <Active>  (53) 
1.0

>  <Smiles>  (53) 
NS(=O)(=O)c1ccc(Nc2cc(-c3ccc([N+](=O)[O-])cc3)[nH]n2)cc1

>  <canonical_smi>  (53) 
NS(=O)(=O)c1ccc(Nc2cc(-c3ccc([N+](=O)[O-])cc3)[nH]n2)cc1

>  <Set>  (53) 
G2 active

>  <Set_type>  (53) 
Train

>  <MW>  (53) 
359.37

>  <HBD>  (53) 
3

>  <HBA>  (53) 
6

>  <NRB>  (53) 
5

>  <NR>  (53) 
3

>  <NAR>  (53) 
3

>  <PSA>  (53) 
144.01

>  <Standard Type>  (53) 
nan

>  <Standard Relation>  (53) 
nan

>  <Standard Units>  (53) 
nan

>  <Standard Value>  (53) 
nan

>  <Assay ChEMBL ID>  (53) 
nan

>  <Assay Description>  (53) 
nan

>  <BAO Label>  (53) 
nan

$$$$

     RDKit          2D

 23 25  0  0  0  0  0  0  0  0999 V2000
    3.0000    0.0000    0.0000 N   0  0  0  0  0  0  0  0  0  0  0  0
    1.5000    0.0000    0.0000 C   0  0  0  0  0  0  0  0  0  0  0  0
    0.7500   -1.2990    0.0000 C   0  0  0  0  0  0  0  0  0  0  0  0
   -0.7500   -1.2990    0.0000 C   0  0  0  0  0  0  0  0  0  0  0  0
   -1.5000    0.0000    0.0000 C   0  0  0  0  0  0  0  0  0  0  0  0
   -3.0000    0.0000    0.0000 C   0  0  0  0  0  0  0  0  0  0  0  0
   -3.8817   -1.2135    0.0000 C   0  0  0  0  0  0  0  0  0  0  0  0
   -5.3083   -0.7500    0.0000 C   0  0  0  0  0  0  0  0  0  0  0  0
   -6.5218   -1.6317    0.0000 N   0  0  0  0  0  0  0  0  0  0  0  0
   -7.8921   -1.0216    0.0000 C   0  0  0  0  0  0  0  0  0  0  0  0
   -8.0489    0.4702    0.0000 C   0  0  0  0  0  0  0  0  0  0  0  0
   -9.4192    1.0803    0.0000 C   0  0  0  0  0  0  0  0  0  0  0  0
  -10.6327    0.1986    0.0000 C   0  0  0  0  0  0  0  0  0  0  0  0
  -12.0031    0.8087    0.0000 S   0  0  0  0  0  0  0  0  0  0  0  0
  -13.3734    1.4188    0.0000 N   0  0  0  0  0  0  0  0  0  0  0  0
  -11.3930    2.1791    0.0000 O   0  0  0  0  0  0  0  0  0  0  0  0
  -12.6132   -0.5616    0.0000 O   0  0  0  0  0  0  0  0  0  0  0  0
  -10.4760   -1.2931    0.0000 C   0  0  0  0  0  0  0  0  0  0  0  0
   -9.1056   -1.9033    0.0000 C   0  0  0  0  0  0  0  0  0  0  0  0
   -5.3083    0.7500    0.0000 N   0  0  0  0  0  0  0  0  0  0  0  0
   -3.8817    1.2135    0.0000 N   0  0  0  0  0  0  0  0  0  0  0  0
   -0.7500    1.2990    0.0000 C   0  0  0  0  0  0  0  0  0  0  0  0
    0.7500    1.2990    0.0000 C   0  0  0  0  0  0  0  0  0  0  0  0
  1  2  1  0
  2  3  2  0
  3  4  1  0
  4  5  2  0
  5  6  1  0
  6  7  1  0
  7  8  2  0
  8  9  1  0
  9 10  1  0
 10 11  2  0
 11 12  1  0
 12 13  2  0
 13 14  1  0
 14 15  1  0
 14 16  2  0
 14 17  2  0
 13 18  1  0
 18 19  2  0
  8 20  1  0
 20 21  1  0
  5 22  1  0
 22 23  2  0
 23  2  1  0
 21  6  2  0
 19 10  1  0
M  END
>  <Compound_ID>  (54) 
CHEMBL321517

>  <Active>  (54) 
1.0

>  <Smiles>  (54) 
Nc1ccc(-c2cc(Nc3ccc(S(N)(=O)=O)cc3)[nH]n2)cc1

>  <canonical_smi>  (54) 
Nc1ccc(-c2cc(Nc3ccc(S(N)(=O)=O)cc3)[nH]n2)cc1

>  <Set>  (54) 
G2 active

>  <Set_type>  (54) 
Train

>  <MW>  (54) 
329.38

>  <HBD>  (54) 
4

>  <HBA>  (54) 
5

>  <NRB>  (54) 
4

>  <NR>  (54) 
3

>  <NAR>  (54) 
3

>  <PSA>  (54) 
126.89

>  <Standard Type>  (54) 
nan

>  <Standard Relation>  (54) 
nan

>  <Standard Units>  (54) 
nan

>  <Standard Value>  (54) 
nan

>  <Assay ChEMBL ID>  (54) 
nan

>  <Assay Description>  (54) 
nan

>  <BAO Label>  (54) 
nan

$$$$

     RDKit          2D

 35 42  0  0  0  0  0  0  0  0999 V2000
    7.0384   -5.9220    0.0000 C   0  0  0  0  0  0  0  0  0  0  0  0
    6.3474   -4.5907    0.0000 N   0  0  0  0  0  0  0  0  0  0  0  0
    4.8489   -4.5234    0.0000 C   0  0  0  0  0  0  0  0  0  0  0  0
    4.0414   -5.7874    0.0000 C   0  0  0  0  0  0  0  0  0  0  0  0
    2.5382   -5.8249    0.0000 C   0  0  0  0  0  0  0  0  0  0  0  0
    3.2490   -4.5040    0.0000 O   0  0  0  0  0  0  0  0  0  0  0  0
    2.6595   -3.1247    0.0000 C   0  0  0  0  0  0  0  0  0  0  0  0
    3.6464   -1.9951    0.0000 C   0  0  0  0  0  0  0  0  0  0  0  0
    4.1580   -3.1920    0.0000 C   0  0  0  0  0  0  0  0  0  0  0  0
    4.9655   -1.9279    0.0000 O   0  0  0  0  0  0  0  0  0  0  0  0
    6.4640   -1.9952    0.0000 C   0  0  0  0  0  0  0  0  0  0  0  0
    1.2135   -2.7256    0.0000 N   0  0  0  0  0  0  0  0  0  0  0  0
    0.7500   -1.2990    0.0000 C   0  0  0  0  0  0  0  0  0  0  0  0
    1.5000    0.0000    0.0000 C   0  0  0  0  0  0  0  0  0  0  0  0
    0.7500    1.2990    0.0000 C   0  0  0  0  0  0  0  0  0  0  0  0
   -0.7500    1.2990    0.0000 C   0  0  0  0  0  0  0  0  0  0  0  0
   -1.5000    0.0000    0.0000 C   0  0  0  0  0  0  0  0  0  0  0  0
   -0.7500   -1.2990    0.0000 C   0  0  0  0  0  0  0  0  0  0  0  0
   -1.2135   -2.7256    0.0000 C   0  0  0  0  0  0  0  0  0  0  0  0
   -2.5518   -3.5691    0.0000 C   0  0  0  0  0  0  0  0  0  0  0  0
   -2.6191   -5.0676    0.0000 C   0  0  0  0  0  0  0  0  0  0  0  0
   -1.3550   -5.8751    0.0000 C   0  0  0  0  0  0  0  0  0  0  0  0
   -1.0212   -7.3375    0.0000 C   0  0  0  0  0  0  0  0  0  0  0  0
   -1.8846   -8.5641    0.0000 C   0  0  0  0  0  0  0  0  0  0  0  0
   -1.2541   -9.9251    0.0000 C   0  0  0  0  0  0  0  0  0  0  0  0
    0.2399  -10.0596    0.0000 C   0  0  0  0  0  0  0  0  0  0  0  0
    1.1033   -8.8330    0.0000 C   0  0  0  0  0  0  0  0  0  0  0  0
    0.4728   -7.4720    0.0000 C   0  0  0  0  0  0  0  0  0  0  0  0
    1.0623   -6.0927    0.0000 N   0  0  0  0  0  0  0  0  0  0  0  0
   -0.0673   -5.1058    0.0000 C   0  0  0  0  0  0  0  0  0  0  0  0
   -0.0000   -3.6073    0.0000 C   0  0  0  0  0  0  0  0  0  0  0  0
   -4.0650   -5.4667    0.0000 C   0  0  0  0  0  0  0  0  0  0  0  0
   -4.5921   -6.8710    0.0000 O   0  0  0  0  0  0  0  0  0  0  0  0
   -4.8913   -4.2148    0.0000 N   0  0  0  0  0  0  0  0  0  0  0  0
   -3.9561   -3.0421    0.0000 C   0  0  0  0  0  0  0  0  0  0  0  0
  1  2  1  0
  3  2  1  6
  3  4  1  0
  4  5  1  0
  5  6  1  0
  6  7  1  0
  7  8  1  1
  7  9  1  0
  9 10  1  6
 10 11  1  0
  7 12  1  0
 12 13  1  0
 13 14  2  0
 14 15  1  0
 15 16  2  0
 16 17  1  0
 17 18  2  0
 18 19  1  0
 19 20  2  0
 20 21  1  0
 21 22  2  0
 22 23  1  0
 23 24  2  0
 24 25  1  0
 25 26  2  0
 26 27  1  0
 27 28  2  0
 28 29  1  0
 29 30  1  0
 30 31  2  0
 21 32  1  0
 32 33  2  0
 32 34  1  0
 34 35  1  0
  9  3  1  0
 31 12  1  0
 29  5  1  0
 18 13  1  0
 31 19  1  0
 35 20  1  0
 30 22  1  0
 28 23  1  0
M  END
>  <Compound_ID>  (55) 
CHEMBL162

>  <Active>  (55) 
1.0

>  <Smiles>  (55) 
CN[C@@H]1CC2O[C@@](C)([C@@H]1OC)n1c3ccccc3c3c4c(c5c6ccccc6n2c5c31)C(=O)NC4

>  <canonical_smi>  (55) 
CN[C@@H]1CC2O[C@@](C)([C@@H]1OC)n1c3ccccc3c3c4c(c5c6ccccc6n2c5c31)C(=O)NC4

>  <Set>  (55) 
G2 active

>  <Set_type>  (55) 
Train

>  <MW>  (55) 
466.54

>  <HBD>  (55) 
2

>  <HBA>  (55) 
4

>  <NRB>  (55) 
2

>  <NR>  (55) 
8

>  <NAR>  (55) 
5

>  <PSA>  (55) 
69.45

>  <Standard Type>  (55) 
nan

>  <Standard Relation>  (55) 
nan

>  <Standard Units>  (55) 
nan

>  <Standard Value>  (55) 
nan

>  <Assay ChEMBL ID>  (55) 
nan

>  <Assay Description>  (55) 
nan

>  <BAO Label>  (55) 
nan

$$$$

     RDKit          2D

 25 27  0  0  0  0  0  0  0  0999 V2000
   -2.4240   -2.8679    0.0000 C   0  0  0  0  0  0  0  0  0  0  0  0
   -3.6375   -3.7496    0.0000 C   0  0  0  0  0  0  0  0  0  0  0  0
   -5.0641   -3.2860    0.0000 C   0  0  0  0  0  0  0  0  0  0  0  0
   -5.9458   -4.4996    0.0000 C   0  0  0  0  0  0  0  0  0  0  0  0
   -5.0641   -5.7131    0.0000 S   0  0  0  0  0  0  0  0  0  0  0  0
   -3.6375   -5.2496    0.0000 C   0  0  0  0  0  0  0  0  0  0  0  0
   -2.4240   -6.1312    0.0000 C   0  0  0  0  0  0  0  0  0  0  0  0
   -2.5808   -7.6230    0.0000 O   0  0  0  0  0  0  0  0  0  0  0  0
   -1.0537   -5.5211    0.0000 N   0  0  0  0  0  0  0  0  0  0  0  0
   -0.7418   -4.0539    0.0000 N   0  0  0  0  0  0  0  0  0  0  0  0
    0.7500   -3.8971    0.0000 C   0  0  0  0  0  0  0  0  0  0  0  0
    1.5000   -2.5981    0.0000 N   0  0  0  0  0  0  0  0  0  0  0  0
    0.7500   -1.2990    0.0000 C   0  0  0  0  0  0  0  0  0  0  0  0
    1.5000    0.0000    0.0000 C   0  0  0  0  0  0  0  0  0  0  0  0
    0.7500    1.2990    0.0000 C   0  0  0  0  0  0  0  0  0  0  0  0
   -0.7500    1.2990    0.0000 C   0  0  0  0  0  0  0  0  0  0  0  0
   -1.5000    2.5981    0.0000 S   0  0  0  0  0  0  0  0  0  0  0  0
   -2.2500    3.8971    0.0000 N   0  0  0  0  0  0  0  0  0  0  0  0
   -0.2010    3.3481    0.0000 O   0  0  0  0  0  0  0  0  0  0  0  0
   -2.7990    1.8481    0.0000 O   0  0  0  0  0  0  0  0  0  0  0  0
   -1.5000    0.0000    0.0000 C   0  0  0  0  0  0  0  0  0  0  0  0
   -0.7500   -1.2990    0.0000 C   0  0  0  0  0  0  0  0  0  0  0  0
    1.3601   -5.2674    0.0000 N   0  0  0  0  0  0  0  0  0  0  0  0
    0.2454   -6.2711    0.0000 C   0  0  0  0  0  0  0  0  0  0  0  0
    0.4022   -7.7629    0.0000 N   0  0  0  0  0  0  0  0  0  0  0  0
  1  2  1  0
  2  3  1  0
  3  4  2  0
  4  5  1  0
  5  6  1  0
  6  7  1  0
  7  8  2  0
  7  9  1  0
  9 10  1  0
 10 11  2  0
 11 12  1  0
 12 13  1  0
 13 14  2  0
 14 15  1  0
 15 16  2  0
 16 17  1  0
 17 18  1  0
 17 19  2  0
 17 20  2  0
 16 21  1  0
 21 22  2  0
 11 23  1  0
 23 24  2  0
 24 25  1  0
  6  2  2  0
 24  9  1  0
 22 13  1  0
M  END
>  <Compound_ID>  (56) 
CHEMBL363130

>  <Active>  (56) 
1.0

>  <Smiles>  (56) 
Cc1ccsc1C(=O)n1nc(Nc2ccc(S(N)(=O)=O)cc2)nc1N

>  <canonical_smi>  (56) 
Cc1ccsc1C(=O)n1nc(Nc2ccc(S(N)(=O)=O)cc2)nc1N

>  <Set>  (56) 
G2 active

>  <Set_type>  (56) 
Train

>  <MW>  (56) 
378.44

>  <HBD>  (56) 
3

>  <HBA>  (56) 
7

>  <NRB>  (56) 
4

>  <NR>  (56) 
3

>  <NAR>  (56) 
3

>  <PSA>  (56) 
145.99

>  <Standard Type>  (56) 
nan

>  <Standard Relation>  (56) 
nan

>  <Standard Units>  (56) 
nan

>  <Standard Value>  (56) 
nan

>  <Assay ChEMBL ID>  (56) 
nan

>  <Assay Description>  (56) 
nan

>  <BAO Label>  (56) 
nan

$$$$

     RDKit          2D

 31 34  0  0  0  0  0  0  0  0999 V2000
    3.3107   -8.3323    0.0000 C   0  0  0  0  0  0  0  0  0  0  0  0
    2.5607   -7.0333    0.0000 C   0  0  0  0  0  0  0  0  0  0  0  0
    1.0607   -7.0333    0.0000 O   0  0  0  0  0  0  0  0  0  0  0  0
    3.3107   -5.7342    0.0000 N   0  0  0  0  0  0  0  0  0  0  0  0
    2.5607   -4.4352    0.0000 C   0  0  0  0  0  0  0  0  0  0  0  0
    1.1118   -4.0470    0.0000 C   0  0  0  0  0  0  0  0  0  0  0  0
    1.5000   -2.5981    0.0000 N   0  0  0  0  0  0  0  0  0  0  0  0
    0.7500   -1.2990    0.0000 C   0  0  0  0  0  0  0  0  0  0  0  0
    1.5000    0.0000    0.0000 C   0  0  0  0  0  0  0  0  0  0  0  0
    0.7500    1.2990    0.0000 C   0  0  0  0  0  0  0  0  0  0  0  0
   -0.7500    1.2990    0.0000 C   0  0  0  0  0  0  0  0  0  0  0  0
   -1.5000    2.5981    0.0000 N   0  0  0  0  0  0  0  0  0  0  0  0
   -0.7500    3.8971    0.0000 C   0  0  0  0  0  0  0  0  0  0  0  0
    0.7500    3.8971    0.0000 N   0  0  0  0  0  0  0  0  0  0  0  0
    1.5000    5.1962    0.0000 C   0  0  0  0  0  0  0  0  0  0  0  0
    0.7500    6.4952    0.0000 C   0  0  0  0  0  0  0  0  0  0  0  0
    1.5000    7.7942    0.0000 F   0  0  0  0  0  0  0  0  0  0  0  0
   -0.7500    6.4952    0.0000 C   0  0  0  0  0  0  0  0  0  0  0  0
   -1.5000    7.7942    0.0000 C   0  0  0  0  0  0  0  0  0  0  0  0
   -0.8899    9.1645    0.0000 C   0  0  0  0  0  0  0  0  0  0  0  0
   -2.0046   10.1682    0.0000 N   0  0  0  0  0  0  0  0  0  0  0  0
   -3.3037    9.4182    0.0000 C   0  0  0  0  0  0  0  0  0  0  0  0
   -4.6740   10.0283    0.0000 C   0  0  0  0  0  0  0  0  0  0  0  0
   -2.9918    7.9510    0.0000 N   0  0  0  0  0  0  0  0  0  0  0  0
   -3.9955    6.8363    0.0000 C   0  0  0  0  0  0  0  0  0  0  0  0
   -5.4627    7.1482    0.0000 C   0  0  0  0  0  0  0  0  0  0  0  0
   -3.5320    5.4097    0.0000 C   0  0  0  0  0  0  0  0  0  0  0  0
   -1.5000    5.1962    0.0000 N   0  0  0  0  0  0  0  0  0  0  0  0
   -1.5000    0.0000    0.0000 C   0  0  0  0  0  0  0  0  0  0  0  0
   -0.7500   -1.2990    0.0000 C   0  0  0  0  0  0  0  0  0  0  0  0
    2.9489   -2.9863    0.0000 C   0  0  0  0  0  0  0  0  0  0  0  0
  1  2  1  0
  2  3  2  0
  2  4  1  0
  4  5  1  0
  5  6  1  0
  6  7  1  0
  7  8  1  0
  8  9  2  0
  9 10  1  0
 10 11  2  0
 11 12  1  0
 12 13  1  0
 13 14  2  0
 14 15  1  0
 15 16  2  0
 16 17  1  0
 16 18  1  0
 18 19  1  0
 19 20  2  0
 20 21  1  0
 21 22  2  0
 22 23  1  0
 22 24  1  0
 24 25  1  0
 25 26  1  0
 25 27  1  0
 18 28  2  0
 11 29  1  0
 29 30  2  0
  7 31  1  0
 31  5  1  0
 30  8  1  0
 28 13  1  0
 24 19  1  0
M  END
>  <Compound_ID>  (57) 
CHEMBL476577

>  <Active>  (57) 
1.0

>  <Smiles>  (57) 
CC(=O)NC1CN(c2ccc(Nc3ncc(F)c(-c4cnc(C)n4C(C)C)n3)cc2)C1

>  <canonical_smi>  (57) 
CC(=O)NC1CN(c2ccc(Nc3ncc(F)c(-c4cnc(C)n4C(C)C)n3)cc2)C1

>  <Set>  (57) 
G2 active

>  <Set_type>  (57) 
Train

>  <MW>  (57) 
423.5

>  <HBD>  (57) 
2

>  <HBA>  (57) 
6

>  <NRB>  (57) 
6

>  <NR>  (57) 
4

>  <NAR>  (57) 
3

>  <PSA>  (57) 
87.97

>  <Standard Type>  (57) 
nan

>  <Standard Relation>  (57) 
nan

>  <Standard Units>  (57) 
nan

>  <Standard Value>  (57) 
nan

>  <Assay ChEMBL ID>  (57) 
nan

>  <Assay Description>  (57) 
nan

>  <BAO Label>  (57) 
nan

$$$$

     RDKit          2D

 28 30  0  0  0  0  0  0  0  0999 V2000
    0.4022   -7.7629    0.0000 N   0  0  0  0  0  0  0  0  0  0  0  0
    0.2454   -6.2711    0.0000 C   0  0  0  0  0  0  0  0  0  0  0  0
    1.3601   -5.2674    0.0000 N   0  0  0  0  0  0  0  0  0  0  0  0
    0.7500   -3.8971    0.0000 C   0  0  0  0  0  0  0  0  0  0  0  0
    1.5000   -2.5981    0.0000 N   0  0  0  0  0  0  0  0  0  0  0  0
    0.7500   -1.2990    0.0000 C   0  0  0  0  0  0  0  0  0  0  0  0
    1.5000    0.0000    0.0000 C   0  0  0  0  0  0  0  0  0  0  0  0
    0.7500    1.2990    0.0000 C   0  0  0  0  0  0  0  0  0  0  0  0
   -0.7500    1.2990    0.0000 C   0  0  0  0  0  0  0  0  0  0  0  0
   -1.5000    2.5981    0.0000 S   0  0  0  0  0  0  0  0  0  0  0  0
   -2.2500    3.8971    0.0000 N   0  0  0  0  0  0  0  0  0  0  0  0
   -0.2010    3.3481    0.0000 O   0  0  0  0  0  0  0  0  0  0  0  0
   -2.7990    1.8481    0.0000 O   0  0  0  0  0  0  0  0  0  0  0  0
   -1.5000    0.0000    0.0000 C   0  0  0  0  0  0  0  0  0  0  0  0
   -0.7500   -1.2990    0.0000 C   0  0  0  0  0  0  0  0  0  0  0  0
   -0.7418   -4.0539    0.0000 N   0  0  0  0  0  0  0  0  0  0  0  0
   -1.0537   -5.5211    0.0000 N   0  0  0  0  0  0  0  0  0  0  0  0
   -2.4240   -6.1312    0.0000 C   0  0  0  0  0  0  0  0  0  0  0  0
   -2.5808   -7.6230    0.0000 S   0  0  0  0  0  0  0  0  0  0  0  0
   -3.6375   -5.2496    0.0000 N   0  0  0  0  0  0  0  0  0  0  0  0
   -5.0078   -5.8597    0.0000 C   0  0  0  0  0  0  0  0  0  0  0  0
   -6.2213   -4.9780    0.0000 C   0  0  0  0  0  0  0  0  0  0  0  0
   -6.0645   -3.4862    0.0000 F   0  0  0  0  0  0  0  0  0  0  0  0
   -7.5917   -5.5881    0.0000 C   0  0  0  0  0  0  0  0  0  0  0  0
   -7.7484   -7.0799    0.0000 C   0  0  0  0  0  0  0  0  0  0  0  0
   -6.5349   -7.9615    0.0000 C   0  0  0  0  0  0  0  0  0  0  0  0
   -5.1646   -7.3514    0.0000 C   0  0  0  0  0  0  0  0  0  0  0  0
   -3.9511   -8.2331    0.0000 F   0  0  0  0  0  0  0  0  0  0  0  0
  1  2  1  0
  2  3  2  0
  3  4  1  0
  4  5  1  0
  5  6  1  0
  6  7  2  0
  7  8  1  0
  8  9  2  0
  9 10  1  0
 10 11  1  0
 10 12  2  0
 10 13  2  0
  9 14  1  0
 14 15  2  0
  4 16  2  0
 16 17  1  0
 17 18  1  0
 18 19  2  0
 18 20  1  0
 20 21  1  0
 21 22  2  0
 22 23  1  0
 22 24  1  0
 24 25  2  0
 25 26  1  0
 26 27  2  0
 27 28  1  0
 17  2  1  0
 27 21  1  0
 15  6  1  0
M  END
>  <Compound_ID>  (58) 
CHEMBL261720

>  <Active>  (58) 
1.0

>  <Smiles>  (58) 
Nc1nc(Nc2ccc(S(N)(=O)=O)cc2)nn1C(=S)Nc1c(F)cccc1F

>  <canonical_smi>  (58) 
Nc1nc(Nc2ccc(S(N)(=O)=O)cc2)nn1C(=S)Nc1c(F)cccc1F

>  <Set>  (58) 
G2 active

>  <Set_type>  (58) 
Train

>  <MW>  (58) 
425.45

>  <HBD>  (58) 
4

>  <HBA>  (58) 
8

>  <NRB>  (58) 
4

>  <NR>  (58) 
3

>  <NAR>  (58) 
3

>  <PSA>  (58) 
140.95

>  <Standard Type>  (58) 
nan

>  <Standard Relation>  (58) 
nan

>  <Standard Units>  (58) 
nan

>  <Standard Value>  (58) 
nan

>  <Assay ChEMBL ID>  (58) 
nan

>  <Assay Description>  (58) 
nan

>  <BAO Label>  (58) 
nan

$$$$

     RDKit          2D

 30 32  0  0  0  0  0  0  0  0999 V2000
    9.0000    2.5981    0.0000 C   0  0  0  0  0  0  0  0  0  0  0  0
    7.5000    2.5981    0.0000 O   0  0  0  0  0  0  0  0  0  0  0  0
    6.7500    1.2990    0.0000 C   0  0  0  0  0  0  0  0  0  0  0  0
    5.2500    1.2990    0.0000 C   0  0  0  0  0  0  0  0  0  0  0  0
    4.5000    0.0000    0.0000 N   0  0  0  0  0  0  0  0  0  0  0  0
    3.0000    0.0000    0.0000 S   0  0  0  0  0  0  0  0  0  0  0  0
    3.0000   -1.5000    0.0000 O   0  0  0  0  0  0  0  0  0  0  0  0
    3.0000    1.5000    0.0000 O   0  0  0  0  0  0  0  0  0  0  0  0
    1.5000    0.0000    0.0000 C   0  0  0  0  0  0  0  0  0  0  0  0
    0.7500   -1.2990    0.0000 C   0  0  0  0  0  0  0  0  0  0  0  0
   -0.7500   -1.2990    0.0000 C   0  0  0  0  0  0  0  0  0  0  0  0
   -1.5000    0.0000    0.0000 C   0  0  0  0  0  0  0  0  0  0  0  0
   -3.0000    0.0000    0.0000 N   0  0  0  0  0  0  0  0  0  0  0  0
   -3.7500    1.2990    0.0000 C   0  0  0  0  0  0  0  0  0  0  0  0
   -3.0000    2.5981    0.0000 N   0  0  0  0  0  0  0  0  0  0  0  0
   -3.7500    3.8971    0.0000 C   0  0  0  0  0  0  0  0  0  0  0  0
   -5.2500    3.8971    0.0000 C   0  0  0  0  0  0  0  0  0  0  0  0
   -6.0000    2.5981    0.0000 C   0  0  0  0  0  0  0  0  0  0  0  0
   -7.5000    2.5981    0.0000 C   0  0  0  0  0  0  0  0  0  0  0  0
   -8.3817    1.3846    0.0000 C   0  0  0  0  0  0  0  0  0  0  0  0
   -9.8083    1.8481    0.0000 N   0  0  0  0  0  0  0  0  0  0  0  0
   -9.8083    3.3481    0.0000 C   0  0  0  0  0  0  0  0  0  0  0  0
  -11.0218    4.2298    0.0000 C   0  0  0  0  0  0  0  0  0  0  0  0
   -8.3817    3.8116    0.0000 N   0  0  0  0  0  0  0  0  0  0  0  0
   -7.9182    5.2382    0.0000 C   0  0  0  0  0  0  0  0  0  0  0  0
   -8.9218    6.3529    0.0000 C   0  0  0  0  0  0  0  0  0  0  0  0
   -6.4509    5.5501    0.0000 C   0  0  0  0  0  0  0  0  0  0  0  0
   -5.2500    1.2990    0.0000 N   0  0  0  0  0  0  0  0  0  0  0  0
   -0.7500    1.2990    0.0000 C   0  0  0  0  0  0  0  0  0  0  0  0
    0.7500    1.2990    0.0000 C   0  0  0  0  0  0  0  0  0  0  0  0
  1  2  1  0
  2  3  1  0
  3  4  1  0
  4  5  1  0
  5  6  1  0
  6  7  2  0
  6  8  2  0
  6  9  1  0
  9 10  2  0
 10 11  1  0
 11 12  2  0
 12 13  1  0
 13 14  1  0
 14 15  2  0
 15 16  1  0
 16 17  2  0
 17 18  1  0
 18 19  1  0
 19 20  2  0
 20 21  1  0
 21 22  2  0
 22 23  1  0
 22 24  1  0
 24 25  1  0
 25 26  1  0
 25 27  1  0
 18 28  2  0
 12 29  1  0
 29 30  2  0
 30  9  1  0
 28 14  1  0
 24 19  1  0
M  END
>  <Compound_ID>  (59) 
CHEMBL478409

>  <Active>  (59) 
1.0

>  <Smiles>  (59) 
COCCNS(=O)(=O)c1ccc(Nc2nccc(-c3cnc(C)n3C(C)C)n2)cc1

>  <canonical_smi>  (59) 
COCCNS(=O)(=O)c1ccc(Nc2nccc(-c3cnc(C)n3C(C)C)n2)cc1

>  <Set>  (59) 
G2 active

>  <Set_type>  (59) 
Train

>  <MW>  (59) 
430.53

>  <HBD>  (59) 
2

>  <HBA>  (59) 
7

>  <NRB>  (59) 
9

>  <NR>  (59) 
3

>  <NAR>  (59) 
3

>  <PSA>  (59) 
111.03

>  <Standard Type>  (59) 
nan

>  <Standard Relation>  (59) 
nan

>  <Standard Units>  (59) 
nan

>  <Standard Value>  (59) 
nan

>  <Assay ChEMBL ID>  (59) 
nan

>  <Assay Description>  (59) 
nan

>  <BAO Label>  (59) 
nan

$$$$

     RDKit          2D

 33 37  0  0  0  0  0  0  0  0999 V2000
    1.8478   -6.4639    0.0000 C   0  0  0  0  0  0  0  0  0  0  0  0
    2.0046   -4.9721    0.0000 C   0  0  0  0  0  0  0  0  0  0  0  0
    3.3037   -4.2221    0.0000 N   0  0  0  0  0  0  0  0  0  0  0  0
    2.9918   -2.7549    0.0000 C   0  0  0  0  0  0  0  0  0  0  0  0
    1.5000   -2.5981    0.0000 C   0  0  0  0  0  0  0  0  0  0  0  0
    0.7500   -1.2990    0.0000 C   0  0  0  0  0  0  0  0  0  0  0  0
    1.5000    0.0000    0.0000 C   0  0  0  0  0  0  0  0  0  0  0  0
    0.7500    1.2990    0.0000 C   0  0  0  0  0  0  0  0  0  0  0  0
   -0.7500    1.2990    0.0000 N   0  0  0  0  0  0  0  0  0  0  0  0
   -1.5000    0.0000    0.0000 C   0  0  0  0  0  0  0  0  0  0  0  0
   -3.0000    0.0000    0.0000 N   0  0  0  0  0  0  0  0  0  0  0  0
   -3.7500    1.2990    0.0000 C   0  0  0  0  0  0  0  0  0  0  0  0
   -3.0000    2.5981    0.0000 C   0  0  0  0  0  0  0  0  0  0  0  0
   -3.7500    3.8971    0.0000 C   0  0  0  0  0  0  0  0  0  0  0  0
   -5.2500    3.8971    0.0000 C   0  0  0  0  0  0  0  0  0  0  0  0
   -6.0000    5.1962    0.0000 C   0  0  0  0  0  0  0  0  0  0  0  0
   -7.5000    5.1962    0.0000 O   0  0  0  0  0  0  0  0  0  0  0  0
   -5.2500    6.4952    0.0000 N   0  0  0  0  0  0  0  0  0  0  0  0
   -5.8601    7.8655    0.0000 C   0  0  0  0  0  0  0  0  0  0  0  0
   -4.7454    8.8692    0.0000 C   0  0  0  0  0  0  0  0  0  0  0  0
   -3.4463    8.1192    0.0000 C   0  0  0  0  0  0  0  0  0  0  0  0
   -2.0760    8.7293    0.0000 N   0  0  0  0  0  0  0  0  0  0  0  0
   -0.8625    7.8476    0.0000 C   0  0  0  0  0  0  0  0  0  0  0  0
    0.6293    7.6908    0.0000 C   0  0  0  0  0  0  0  0  0  0  0  0
   -0.2524    6.4773    0.0000 C   0  0  0  0  0  0  0  0  0  0  0  0
   -3.7582    6.6520    0.0000 C   0  0  0  0  0  0  0  0  0  0  0  0
   -6.0000    2.5981    0.0000 C   0  0  0  0  0  0  0  0  0  0  0  0
   -5.2500    1.2990    0.0000 C   0  0  0  0  0  0  0  0  0  0  0  0
   -0.7500   -1.2990    0.0000 N   0  0  0  0  0  0  0  0  0  0  0  0
    0.8899   -3.9684    0.0000 N   0  0  0  0  0  0  0  0  0  0  0  0
   -0.5773   -4.2803    0.0000 C   0  0  0  0  0  0  0  0  0  0  0  0
   -1.0409   -5.7068    0.0000 C   0  0  0  0  0  0  0  0  0  0  0  0
   -1.5810   -3.1655    0.0000 C   0  0  0  0  0  0  0  0  0  0  0  0
  1  2  1  0
  2  3  2  0
  3  4  1  0
  4  5  2  0
  5  6  1  0
  6  7  2  0
  7  8  1  0
  8  9  2  0
  9 10  1  0
 10 11  1  0
 11 12  1  0
 12 13  2  0
 13 14  1  0
 14 15  2  0
 15 16  1  0
 16 17  2  0
 16 18  1  0
 18 19  1  0
 19 20  1  0
 20 21  1  0
 21 22  1  6
 22 23  1  0
 23 24  1  0
 24 25  1  0
 21 26  1  0
 15 27  1  0
 27 28  2  0
 10 29  2  0
  5 30  1  0
 30 31  1  0
 31 32  1  0
 31 33  1  0
 30  2  1  0
 29  6  1  0
 28 12  1  0
 26 18  1  0
 25 23  1  0
M  END
>  <Compound_ID>  (60) 
CHEMBL460086

>  <Active>  (60) 
1.0

>  <Smiles>  (60) 
Cc1ncc(-c2ccnc(Nc3ccc(C(=O)N4CC[C@H](NC5CC5)C4)cc3)n2)n1C(C)C

>  <canonical_smi>  (60) 
Cc1ncc(-c2ccnc(Nc3ccc(C(=O)N4CC[C@H](NC5CC5)C4)cc3)n2)n1C(C)C

>  <Set>  (60) 
G2 active

>  <Set_type>  (60) 
Train

>  <MW>  (60) 
445.57

>  <HBD>  (60) 
2

>  <HBA>  (60) 
6

>  <NRB>  (60) 
7

>  <NR>  (60) 
5

>  <NAR>  (60) 
3

>  <PSA>  (60) 
87.97

>  <Standard Type>  (60) 
nan

>  <Standard Relation>  (60) 
nan

>  <Standard Units>  (60) 
nan

>  <Standard Value>  (60) 
nan

>  <Assay ChEMBL ID>  (60) 
nan

>  <Assay Description>  (60) 
nan

>  <BAO Label>  (60) 
nan

$$$$

     RDKit          2D

 28 30  0  0  0  0  0  0  0  0999 V2000
    3.0000    0.0000    0.0000 N   0  0  0  0  0  0  0  0  0  0  0  0
    1.5000    0.0000    0.0000 C   0  0  0  0  0  0  0  0  0  0  0  0
    0.7500   -1.2990    0.0000 N   0  0  0  0  0  0  0  0  0  0  0  0
   -0.7500   -1.2990    0.0000 C   0  0  0  0  0  0  0  0  0  0  0  0
   -1.5000   -2.5981    0.0000 N   0  0  0  0  0  0  0  0  0  0  0  0
   -3.0000   -2.5981    0.0000 C   0  0  0  0  0  0  0  0  0  0  0  0
   -3.7500   -1.2990    0.0000 C   0  0  0  0  0  0  0  0  0  0  0  0
   -5.2500   -1.2990    0.0000 C   0  0  0  0  0  0  0  0  0  0  0  0
   -6.0000   -2.5981    0.0000 C   0  0  0  0  0  0  0  0  0  0  0  0
   -7.5000   -2.5981    0.0000 S   0  0  0  0  0  0  0  0  0  0  0  0
   -9.0000   -2.5981    0.0000 N   0  0  0  0  0  0  0  0  0  0  0  0
   -7.5000   -1.0981    0.0000 O   0  0  0  0  0  0  0  0  0  0  0  0
   -7.5000   -4.0981    0.0000 O   0  0  0  0  0  0  0  0  0  0  0  0
   -5.2500   -3.8971    0.0000 C   0  0  0  0  0  0  0  0  0  0  0  0
   -3.7500   -3.8971    0.0000 C   0  0  0  0  0  0  0  0  0  0  0  0
   -1.5000    0.0000    0.0000 N   0  0  0  0  0  0  0  0  0  0  0  0
   -0.7500    1.2990    0.0000 C   0  0  0  0  0  0  0  0  0  0  0  0
   -1.5000    2.5981    0.0000 O   0  0  0  0  0  0  0  0  0  0  0  0
   -3.0000    2.5981    0.0000 C   0  0  0  0  0  0  0  0  0  0  0  0
   -3.7500    3.8971    0.0000 C   0  0  0  0  0  0  0  0  0  0  0  0
   -3.0000    5.1962    0.0000 C   0  0  0  0  0  0  0  0  0  0  0  0
   -3.7500    6.4952    0.0000 C   0  0  0  0  0  0  0  0  0  0  0  0
   -5.2500    6.4952    0.0000 C   0  0  0  0  0  0  0  0  0  0  0  0
   -6.0000    5.1962    0.0000 C   0  0  0  0  0  0  0  0  0  0  0  0
   -5.2500    3.8971    0.0000 C   0  0  0  0  0  0  0  0  0  0  0  0
    0.7500    1.2990    0.0000 C   0  0  0  0  0  0  0  0  0  0  0  0
    1.5000    2.5981    0.0000 N   0  0  0  0  0  0  0  0  0  0  0  0
    3.0000    2.5981    0.0000 O   0  0  0  0  0  0  0  0  0  0  0  0
  1  2  1  0
  2  3  2  0
  3  4  1  0
  4  5  1  0
  5  6  1  0
  6  7  2  0
  7  8  1  0
  8  9  2  0
  9 10  1  0
 10 11  1  0
 10 12  2  0
 10 13  2  0
  9 14  1  0
 14 15  2  0
  4 16  2  0
 16 17  1  0
 17 18  1  0
 18 19  1  0
 19 20  1  0
 20 21  1  0
 21 22  1  0
 22 23  1  0
 23 24  1  0
 24 25  1  0
 17 26  2  0
 26 27  1  0
 27 28  2  0
 26  2  1  0
 15  6  1  0
 25 20  1  0
M  END
>  <Compound_ID>  (61) 
CHEMBL318999

>  <Active>  (61) 
1.0

>  <Smiles>  (61) 
Nc1nc(Nc2ccc(S(N)(=O)=O)cc2)nc(OCC2CCCCC2)c1N=O

>  <canonical_smi>  (61) 
Nc1nc(Nc2ccc(S(N)(=O)=O)cc2)nc(OCC2CCCCC2)c1N=O

>  <Set>  (61) 
G2 active

>  <Set_type>  (61) 
Train

>  <MW>  (61) 
406.47

>  <HBD>  (61) 
3

>  <HBA>  (61) 
8

>  <NRB>  (61) 
7

>  <NR>  (61) 
3

>  <NAR>  (61) 
2

>  <PSA>  (61) 
162.65

>  <Standard Type>  (61) 
nan

>  <Standard Relation>  (61) 
nan

>  <Standard Units>  (61) 
nan

>  <Standard Value>  (61) 
nan

>  <Assay ChEMBL ID>  (61) 
nan

>  <Assay Description>  (61) 
nan

>  <BAO Label>  (61) 
nan

$$$$

     RDKit          2D

 26 28  0  0  0  0  0  0  0  0999 V2000
    5.2500   -1.2990    0.0000 C   0  0  0  0  0  0  0  0  0  0  0  0
    3.7500   -1.2990    0.0000 C   0  0  0  0  0  0  0  0  0  0  0  0
    3.0000   -2.5981    0.0000 C   0  0  0  0  0  0  0  0  0  0  0  0
    3.0000    0.0000    0.0000 C   0  0  0  0  0  0  0  0  0  0  0  0
    1.5000    0.0000    0.0000 C   0  0  0  0  0  0  0  0  0  0  0  0
    0.7500   -1.2990    0.0000 C   0  0  0  0  0  0  0  0  0  0  0  0
   -0.7500   -1.2990    0.0000 C   0  0  0  0  0  0  0  0  0  0  0  0
   -1.5000    0.0000    0.0000 C   0  0  0  0  0  0  0  0  0  0  0  0
   -0.7500    1.2990    0.0000 C   0  0  0  0  0  0  0  0  0  0  0  0
   -1.2135    2.7256    0.0000 N   0  0  0  0  0  0  0  0  0  0  0  0
   -0.0000    3.6073    0.0000 C   0  0  0  0  0  0  0  0  0  0  0  0
   -0.0000    5.1073    0.0000 O   0  0  0  0  0  0  0  0  0  0  0  0
    1.2135    2.7256    0.0000 C   0  0  0  0  0  0  0  0  0  0  0  0
    2.6401    3.1891    0.0000 N   0  0  0  0  0  0  0  0  0  0  0  0
    2.9520    4.6564    0.0000 N   0  0  0  0  0  0  0  0  0  0  0  0
    4.3786    5.1199    0.0000 C   0  0  0  0  0  0  0  0  0  0  0  0
    5.4933    4.1162    0.0000 C   0  0  0  0  0  0  0  0  0  0  0  0
    6.9199    4.5797    0.0000 C   0  0  0  0  0  0  0  0  0  0  0  0
    7.2317    6.0469    0.0000 C   0  0  0  0  0  0  0  0  0  0  0  0
    8.6583    6.5105    0.0000 S   0  0  0  0  0  0  0  0  0  0  0  0
   10.0849    6.9740    0.0000 N   0  0  0  0  0  0  0  0  0  0  0  0
    9.1218    5.0839    0.0000 O   0  0  0  0  0  0  0  0  0  0  0  0
    8.1948    7.9371    0.0000 O   0  0  0  0  0  0  0  0  0  0  0  0
    6.1170    7.0506    0.0000 C   0  0  0  0  0  0  0  0  0  0  0  0
    4.6904    6.5871    0.0000 C   0  0  0  0  0  0  0  0  0  0  0  0
    0.7500    1.2990    0.0000 C   0  0  0  0  0  0  0  0  0  0  0  0
  1  2  1  0
  2  3  1  0
  2  4  1  0
  4  5  1  0
  5  6  2  0
  6  7  1  0
  7  8  2  0
  8  9  1  0
  9 10  1  0
 10 11  1  0
 11 12  1  0
 11 13  2  0
 13 14  1  0
 14 15  2  3
 15 16  1  0
 16 17  2  0
 17 18  1  0
 18 19  2  0
 19 20  1  0
 20 21  1  0
 20 22  2  0
 20 23  2  0
 19 24  1  0
 24 25  2  0
 13 26  1  0
 26  5  1  0
 26  9  2  0
 25 16  1  0
M  END
>  <Compound_ID>  (62) 
CHEMBL87472

>  <Active>  (62) 
1.0

>  <Smiles>  (62) 
CC(C)Cc1cccc2[nH]c(O)c(N=Nc3ccc(S(N)(=O)=O)cc3)c12

>  <canonical_smi>  (62) 
CC(C)Cc1cccc2[nH]c(O)c(N=Nc3ccc(S(N)(=O)=O)cc3)c12

>  <Set>  (62) 
G2 active

>  <Set_type>  (62) 
Train

>  <MW>  (62) 
372.45

>  <HBD>  (62) 
3

>  <HBA>  (62) 
3

>  <NRB>  (62) 
5

>  <NR>  (62) 
3

>  <NAR>  (62) 
3

>  <PSA>  (62) 
120.9

>  <Standard Type>  (62) 
nan

>  <Standard Relation>  (62) 
nan

>  <Standard Units>  (62) 
nan

>  <Standard Value>  (62) 
nan

>  <Assay ChEMBL ID>  (62) 
nan

>  <Assay Description>  (62) 
nan

>  <BAO Label>  (62) 
nan

$$$$

     RDKit          2D

 26 28  0  0  0  0  0  0  0  0999 V2000
    5.2500   -1.2990    0.0000 C   0  0  0  0  0  0  0  0  0  0  0  0
    3.7500   -1.2990    0.0000 C   0  0  0  0  0  0  0  0  0  0  0  0
    3.0000   -2.5981    0.0000 C   0  0  0  0  0  0  0  0  0  0  0  0
    3.0000    0.0000    0.0000 C   0  0  0  0  0  0  0  0  0  0  0  0
    1.5000    0.0000    0.0000 C   0  0  0  0  0  0  0  0  0  0  0  0
    0.7500   -1.2990    0.0000 C   0  0  0  0  0  0  0  0  0  0  0  0
   -0.7500   -1.2990    0.0000 C   0  0  0  0  0  0  0  0  0  0  0  0
   -1.5000    0.0000    0.0000 C   0  0  0  0  0  0  0  0  0  0  0  0
   -0.7500    1.2990    0.0000 C   0  0  0  0  0  0  0  0  0  0  0  0
    0.7500    1.2990    0.0000 C   0  0  0  0  0  0  0  0  0  0  0  0
    1.2135    2.7256    0.0000 C   0  0  0  0  0  0  0  0  0  0  0  0
    2.6401    3.1891    0.0000 N   0  0  0  0  0  0  0  0  0  0  0  0
    2.9520    4.6564    0.0000 N   0  0  0  0  0  0  0  0  0  0  0  0
    4.3786    5.1199    0.0000 C   0  0  0  0  0  0  0  0  0  0  0  0
    5.4933    4.1162    0.0000 C   0  0  0  0  0  0  0  0  0  0  0  0
    6.9199    4.5797    0.0000 C   0  0  0  0  0  0  0  0  0  0  0  0
    7.2317    6.0469    0.0000 C   0  0  0  0  0  0  0  0  0  0  0  0
    8.6583    6.5105    0.0000 S   0  0  0  0  0  0  0  0  0  0  0  0
   10.0849    6.9740    0.0000 N   0  0  0  0  0  0  0  0  0  0  0  0
    9.1218    5.0839    0.0000 O   0  0  0  0  0  0  0  0  0  0  0  0
    8.1948    7.9371    0.0000 O   0  0  0  0  0  0  0  0  0  0  0  0
    6.1170    7.0506    0.0000 C   0  0  0  0  0  0  0  0  0  0  0  0
    4.6904    6.5871    0.0000 C   0  0  0  0  0  0  0  0  0  0  0  0
   -0.0000    3.6073    0.0000 C   0  0  0  0  0  0  0  0  0  0  0  0
   -0.0000    5.1073    0.0000 O   0  0  0  0  0  0  0  0  0  0  0  0
   -1.2135    2.7256    0.0000 N   0  0  0  0  0  0  0  0  0  0  0  0
  1  2  1  0
  2  3  1  0
  2  4  1  0
  4  5  1  0
  5  6  2  0
  6  7  1  0
  7  8  2  0
  8  9  1  0
  9 10  2  0
 10 11  1  0
 11 12  2  0
 12 13  1  0
 13 14  1  0
 14 15  2  0
 15 16  1  0
 16 17  2  0
 17 18  1  0
 18 19  1  0
 18 20  2  0
 18 21  2  0
 17 22  1  0
 22 23  2  0
 11 24  1  0
 24 25  2  0
 24 26  1  0
 10  5  1  0
 23 14  1  0
 26  9  1  0
M  END
>  <Compound_ID>  (63) 
CHEMBL411224

>  <Active>  (63) 
1.0

>  <Smiles>  (63) 
CC(C)Cc1cccc2c1/C(=N/Nc1ccc(S(N)(=O)=O)cc1)C(=O)N2

>  <canonical_smi>  (63) 
CC(C)Cc1cccc2c1/C(=N/Nc1ccc(S(N)(=O)=O)cc1)C(=O)N2

>  <Set>  (63) 
G2 active

>  <Set_type>  (63) 
Train

>  <MW>  (63) 
372.45

>  <HBD>  (63) 
3

>  <HBA>  (63) 
4

>  <NRB>  (63) 
5

>  <NR>  (63) 
3

>  <NAR>  (63) 
2

>  <PSA>  (63) 
113.65

>  <Standard Type>  (63) 
nan

>  <Standard Relation>  (63) 
nan

>  <Standard Units>  (63) 
nan

>  <Standard Value>  (63) 
nan

>  <Assay ChEMBL ID>  (63) 
nan

>  <Assay Description>  (63) 
nan

>  <BAO Label>  (63) 
nan

$$$$

     RDKit          2D

 26 29  0  0  0  0  0  0  0  0999 V2000
  -11.0821    2.6487    0.0000 N   0  0  0  0  0  0  0  0  0  0  0  0
   -9.9674    1.6450    0.0000 S   0  0  0  0  0  0  0  0  0  0  0  0
   -8.9637    2.7597    0.0000 O   0  0  0  0  0  0  0  0  0  0  0  0
  -10.9711    0.5303    0.0000 O   0  0  0  0  0  0  0  0  0  0  0  0
   -8.8527    0.6413    0.0000 C   0  0  0  0  0  0  0  0  0  0  0  0
   -7.4261    1.1048    0.0000 C   0  0  0  0  0  0  0  0  0  0  0  0
   -6.3114    0.1011    0.0000 C   0  0  0  0  0  0  0  0  0  0  0  0
   -6.6232   -1.3661    0.0000 C   0  0  0  0  0  0  0  0  0  0  0  0
   -5.5085   -2.3698    0.0000 N   0  0  0  0  0  0  0  0  0  0  0  0
   -4.0819   -1.9062    0.0000 C   0  0  0  0  0  0  0  0  0  0  0  0
   -2.9672   -2.9099    0.0000 C   0  0  0  0  0  0  0  0  0  0  0  0
   -3.1240   -4.4017    0.0000 C   0  0  0  0  0  0  0  0  0  0  0  0
   -4.4231   -5.1517    0.0000 O   0  0  0  0  0  0  0  0  0  0  0  0
   -1.7537   -5.0118    0.0000 N   0  0  0  0  0  0  0  0  0  0  0  0
   -0.7500   -3.8971    0.0000 C   0  0  0  0  0  0  0  0  0  0  0  0
    0.7500   -3.8971    0.0000 C   0  0  0  0  0  0  0  0  0  0  0  0
    1.5000   -2.5981    0.0000 C   0  0  0  0  0  0  0  0  0  0  0  0
    0.7500   -1.2990    0.0000 C   0  0  0  0  0  0  0  0  0  0  0  0
    1.5000    0.0000    0.0000 N   0  0  0  0  0  0  0  0  0  0  0  0
    0.7500    1.2990    0.0000 C   0  0  0  0  0  0  0  0  0  0  0  0
   -0.7500    1.2990    0.0000 C   0  0  0  0  0  0  0  0  0  0  0  0
   -1.5000    0.0000    0.0000 C   0  0  0  0  0  0  0  0  0  0  0  0
   -0.7500   -1.2990    0.0000 C   0  0  0  0  0  0  0  0  0  0  0  0
   -1.5000   -2.5981    0.0000 C   0  0  0  0  0  0  0  0  0  0  0  0
   -8.0498   -1.8296    0.0000 C   0  0  0  0  0  0  0  0  0  0  0  0
   -9.1645   -0.8259    0.0000 C   0  0  0  0  0  0  0  0  0  0  0  0
  1  2  1  0
  2  3  2  0
  2  4  2  0
  2  5  1  0
  5  6  2  0
  6  7  1  0
  7  8  2  0
  8  9  1  0
  9 10  2  0
 10 11  1  0
 11 12  2  0
 12 13  1  0
 12 14  1  0
 14 15  1  0
 15 16  2  0
 16 17  1  0
 17 18  2  0
 18 19  1  0
 19 20  2  0
 20 21  1  0
 21 22  2  0
 22 23  1  0
 23 24  2  0
  8 25  1  0
 25 26  2  0
 26  5  1  0
 24 11  1  0
 24 15  1  0
 23 18  1  0
M  END
>  <Compound_ID>  (64) 
CHEMBL344579

>  <Active>  (64) 
1.0

>  <Smiles>  (64) 
NS(=O)(=O)c1ccc(/N=C/c2c(O)[nH]c3ccc4ncccc4c23)cc1

>  <canonical_smi>  (64) 
NS(=O)(=O)c1ccc(/N=C/c2c(O)[nH]c3ccc4ncccc4c23)cc1

>  <Set>  (64) 
G2 active

>  <Set_type>  (64) 
Train

>  <MW>  (64) 
366.4

>  <HBD>  (64) 
3

>  <HBA>  (64) 
4

>  <NRB>  (64) 
3

>  <NR>  (64) 
4

>  <NAR>  (64) 
4

>  <PSA>  (64) 
121.43

>  <Standard Type>  (64) 
nan

>  <Standard Relation>  (64) 
nan

>  <Standard Units>  (64) 
nan

>  <Standard Value>  (64) 
nan

>  <Assay ChEMBL ID>  (64) 
nan

>  <Assay Description>  (64) 
nan

>  <BAO Label>  (64) 
nan

$$$$

     RDKit          2D

 26 29  0  0  0  0  0  0  0  0999 V2000
  -11.0821    2.6487    0.0000 N   0  0  0  0  0  0  0  0  0  0  0  0
   -9.9674    1.6450    0.0000 S   0  0  0  0  0  0  0  0  0  0  0  0
   -8.9637    2.7597    0.0000 O   0  0  0  0  0  0  0  0  0  0  0  0
  -10.9711    0.5303    0.0000 O   0  0  0  0  0  0  0  0  0  0  0  0
   -8.8527    0.6413    0.0000 C   0  0  0  0  0  0  0  0  0  0  0  0
   -7.4261    1.1048    0.0000 C   0  0  0  0  0  0  0  0  0  0  0  0
   -6.3114    0.1011    0.0000 C   0  0  0  0  0  0  0  0  0  0  0  0
   -6.6232   -1.3661    0.0000 C   0  0  0  0  0  0  0  0  0  0  0  0
   -5.5085   -2.3698    0.0000 N   0  0  0  0  0  0  0  0  0  0  0  0
   -4.0819   -1.9062    0.0000 C   0  0  0  0  0  0  0  0  0  0  0  0
   -2.9672   -2.9099    0.0000 C   0  0  0  0  0  0  0  0  0  0  0  0
   -3.1240   -4.4017    0.0000 C   0  0  0  0  0  0  0  0  0  0  0  0
   -4.4231   -5.1517    0.0000 O   0  0  0  0  0  0  0  0  0  0  0  0
   -1.7537   -5.0118    0.0000 N   0  0  0  0  0  0  0  0  0  0  0  0
   -0.7500   -3.8971    0.0000 C   0  0  0  0  0  0  0  0  0  0  0  0
    0.7500   -3.8971    0.0000 C   0  0  0  0  0  0  0  0  0  0  0  0
    1.5000   -2.5981    0.0000 C   0  0  0  0  0  0  0  0  0  0  0  0
    0.7500   -1.2990    0.0000 C   0  0  0  0  0  0  0  0  0  0  0  0
    1.5000    0.0000    0.0000 N   0  0  0  0  0  0  0  0  0  0  0  0
    0.7500    1.2990    0.0000 C   0  0  0  0  0  0  0  0  0  0  0  0
   -0.7500    1.2990    0.0000 C   0  0  0  0  0  0  0  0  0  0  0  0
   -1.5000    0.0000    0.0000 C   0  0  0  0  0  0  0  0  0  0  0  0
   -0.7500   -1.2990    0.0000 C   0  0  0  0  0  0  0  0  0  0  0  0
   -1.5000   -2.5981    0.0000 C   0  0  0  0  0  0  0  0  0  0  0  0
   -8.0498   -1.8296    0.0000 C   0  0  0  0  0  0  0  0  0  0  0  0
   -9.1645   -0.8259    0.0000 C   0  0  0  0  0  0  0  0  0  0  0  0
  1  2  1  0
  2  3  2  0
  2  4  2  0
  2  5  1  0
  5  6  2  0
  6  7  1  0
  7  8  2  0
  8  9  1  0
  9 10  1  0
 10 11  2  0
 11 12  1  0
 12 13  2  0
 12 14  1  0
 14 15  1  0
 15 16  2  0
 16 17  1  0
 17 18  2  0
 18 19  1  0
 19 20  2  0
 20 21  1  0
 21 22  2  0
 22 23  1  0
 23 24  2  0
  8 25  1  0
 25 26  2  0
 26  5  1  0
 24 11  1  0
 24 15  1  0
 23 18  1  0
M  END
>  <Compound_ID>  (65) 
CHEMBL445945

>  <Active>  (65) 
1.0

>  <Smiles>  (65) 
NS(=O)(=O)c1ccc(N/C=C2\C(=O)Nc3ccc4ncccc4c32)cc1

>  <canonical_smi>  (65) 
NS(=O)(=O)c1ccc(N/C=C2\C(=O)Nc3ccc4ncccc4c32)cc1

>  <Set>  (65) 
G2 active

>  <Set_type>  (65) 
Train

>  <MW>  (65) 
366.4

>  <HBD>  (65) 
3

>  <HBA>  (65) 
5

>  <NRB>  (65) 
3

>  <NR>  (65) 
4

>  <NAR>  (65) 
3

>  <PSA>  (65) 
114.18

>  <Standard Type>  (65) 
nan

>  <Standard Relation>  (65) 
nan

>  <Standard Units>  (65) 
nan

>  <Standard Value>  (65) 
nan

>  <Assay ChEMBL ID>  (65) 
nan

>  <Assay Description>  (65) 
nan

>  <BAO Label>  (65) 
nan

$$$$

     RDKit          2D

 26 29  0  0  0  0  0  0  0  0999 V2000
  -11.0821    2.6487    0.0000 N   0  0  0  0  0  0  0  0  0  0  0  0
   -9.9674    1.6450    0.0000 S   0  0  0  0  0  0  0  0  0  0  0  0
   -8.9637    2.7597    0.0000 O   0  0  0  0  0  0  0  0  0  0  0  0
  -10.9711    0.5303    0.0000 O   0  0  0  0  0  0  0  0  0  0  0  0
   -8.8527    0.6413    0.0000 C   0  0  0  0  0  0  0  0  0  0  0  0
   -7.4261    1.1048    0.0000 C   0  0  0  0  0  0  0  0  0  0  0  0
   -6.3114    0.1011    0.0000 C   0  0  0  0  0  0  0  0  0  0  0  0
   -6.6232   -1.3661    0.0000 C   0  0  0  0  0  0  0  0  0  0  0  0
   -5.5085   -2.3698    0.0000 N   0  0  0  0  0  0  0  0  0  0  0  0
   -4.0819   -1.9062    0.0000 N   0  0  0  0  0  0  0  0  0  0  0  0
   -2.9672   -2.9099    0.0000 C   0  0  0  0  0  0  0  0  0  0  0  0
   -3.1240   -4.4017    0.0000 C   0  0  0  0  0  0  0  0  0  0  0  0
   -4.4231   -5.1517    0.0000 O   0  0  0  0  0  0  0  0  0  0  0  0
   -1.7537   -5.0118    0.0000 N   0  0  0  0  0  0  0  0  0  0  0  0
   -0.7500   -3.8971    0.0000 C   0  0  0  0  0  0  0  0  0  0  0  0
    0.7500   -3.8971    0.0000 C   0  0  0  0  0  0  0  0  0  0  0  0
    1.5000   -2.5981    0.0000 C   0  0  0  0  0  0  0  0  0  0  0  0
    0.7500   -1.2990    0.0000 C   0  0  0  0  0  0  0  0  0  0  0  0
    1.5000    0.0000    0.0000 N   0  0  0  0  0  0  0  0  0  0  0  0
    0.7500    1.2990    0.0000 C   0  0  0  0  0  0  0  0  0  0  0  0
   -0.7500    1.2990    0.0000 C   0  0  0  0  0  0  0  0  0  0  0  0
   -1.5000    0.0000    0.0000 C   0  0  0  0  0  0  0  0  0  0  0  0
   -0.7500   -1.2990    0.0000 C   0  0  0  0  0  0  0  0  0  0  0  0
   -1.5000   -2.5981    0.0000 C   0  0  0  0  0  0  0  0  0  0  0  0
   -8.0498   -1.8296    0.0000 C   0  0  0  0  0  0  0  0  0  0  0  0
   -9.1645   -0.8259    0.0000 C   0  0  0  0  0  0  0  0  0  0  0  0
  1  2  1  0
  2  3  2  0
  2  4  2  0
  2  5  1  0
  5  6  2  0
  6  7  1  0
  7  8  2  0
  8  9  1  0
  9 10  2  3
 10 11  1  0
 11 12  2  0
 12 13  1  0
 12 14  1  0
 14 15  1  0
 15 16  2  0
 16 17  1  0
 17 18  2  0
 18 19  1  0
 19 20  2  0
 20 21  1  0
 21 22  2  0
 22 23  1  0
 23 24  2  0
  8 25  1  0
 25 26  2  0
 26  5  1  0
 24 11  1  0
 24 15  1  0
 23 18  1  0
M  END
>  <Compound_ID>  (66) 
CHEMBL343151

>  <Active>  (66) 
1.0

>  <Smiles>  (66) 
NS(=O)(=O)c1ccc(N=Nc2c(O)[nH]c3ccc4ncccc4c23)cc1

>  <canonical_smi>  (66) 
NS(=O)(=O)c1ccc(N=Nc2c(O)[nH]c3ccc4ncccc4c23)cc1

>  <Set>  (66) 
G2 active

>  <Set_type>  (66) 
Train

>  <MW>  (66) 
367.39

>  <HBD>  (66) 
3

>  <HBA>  (66) 
4

>  <NRB>  (66) 
3

>  <NR>  (66) 
4

>  <NAR>  (66) 
4

>  <PSA>  (66) 
133.79

>  <Standard Type>  (66) 
nan

>  <Standard Relation>  (66) 
nan

>  <Standard Units>  (66) 
nan

>  <Standard Value>  (66) 
nan

>  <Assay ChEMBL ID>  (66) 
nan

>  <Assay Description>  (66) 
nan

>  <BAO Label>  (66) 
nan

$$$$

     RDKit          2D

 26 29  0  0  0  0  0  0  0  0999 V2000
  -11.0821    2.6487    0.0000 N   0  0  0  0  0  0  0  0  0  0  0  0
   -9.9674    1.6450    0.0000 S   0  0  0  0  0  0  0  0  0  0  0  0
   -8.9637    2.7597    0.0000 O   0  0  0  0  0  0  0  0  0  0  0  0
  -10.9711    0.5303    0.0000 O   0  0  0  0  0  0  0  0  0  0  0  0
   -8.8527    0.6413    0.0000 C   0  0  0  0  0  0  0  0  0  0  0  0
   -7.4261    1.1048    0.0000 C   0  0  0  0  0  0  0  0  0  0  0  0
   -6.3114    0.1011    0.0000 C   0  0  0  0  0  0  0  0  0  0  0  0
   -6.6232   -1.3661    0.0000 C   0  0  0  0  0  0  0  0  0  0  0  0
   -5.5085   -2.3698    0.0000 N   0  0  0  0  0  0  0  0  0  0  0  0
   -4.0819   -1.9062    0.0000 N   0  0  0  0  0  0  0  0  0  0  0  0
   -2.9672   -2.9099    0.0000 C   0  0  0  0  0  0  0  0  0  0  0  0
   -3.1240   -4.4017    0.0000 C   0  0  0  0  0  0  0  0  0  0  0  0
   -4.4231   -5.1517    0.0000 O   0  0  0  0  0  0  0  0  0  0  0  0
   -1.7537   -5.0118    0.0000 N   0  0  0  0  0  0  0  0  0  0  0  0
   -0.7500   -3.8971    0.0000 C   0  0  0  0  0  0  0  0  0  0  0  0
    0.7500   -3.8971    0.0000 C   0  0  0  0  0  0  0  0  0  0  0  0
    1.5000   -2.5981    0.0000 C   0  0  0  0  0  0  0  0  0  0  0  0
    0.7500   -1.2990    0.0000 C   0  0  0  0  0  0  0  0  0  0  0  0
    1.5000    0.0000    0.0000 N   0  0  0  0  0  0  0  0  0  0  0  0
    0.7500    1.2990    0.0000 C   0  0  0  0  0  0  0  0  0  0  0  0
   -0.7500    1.2990    0.0000 C   0  0  0  0  0  0  0  0  0  0  0  0
   -1.5000    0.0000    0.0000 C   0  0  0  0  0  0  0  0  0  0  0  0
   -0.7500   -1.2990    0.0000 C   0  0  0  0  0  0  0  0  0  0  0  0
   -1.5000   -2.5981    0.0000 C   0  0  0  0  0  0  0  0  0  0  0  0
   -8.0498   -1.8296    0.0000 C   0  0  0  0  0  0  0  0  0  0  0  0
   -9.1645   -0.8259    0.0000 C   0  0  0  0  0  0  0  0  0  0  0  0
  1  2  1  0
  2  3  2  0
  2  4  2  0
  2  5  1  0
  5  6  2  0
  6  7  1  0
  7  8  2  0
  8  9  1  0
  9 10  1  0
 10 11  2  0
 11 12  1  0
 12 13  2  0
 12 14  1  0
 14 15  1  0
 15 16  2  0
 16 17  1  0
 17 18  2  0
 18 19  1  0
 19 20  2  0
 20 21  1  0
 21 22  2  0
 22 23  1  0
 23 24  2  0
  8 25  1  0
 25 26  2  0
 26  5  1  0
 24 11  1  0
 24 15  1  0
 23 18  1  0
M  END
>  <Compound_ID>  (67) 
CHEMBL409892

>  <Active>  (67) 
1.0

>  <Smiles>  (67) 
NS(=O)(=O)c1ccc(N/N=C2\C(=O)Nc3ccc4ncccc4c32)cc1

>  <canonical_smi>  (67) 
NS(=O)(=O)c1ccc(N/N=C2\C(=O)Nc3ccc4ncccc4c32)cc1

>  <Set>  (67) 
G2 active

>  <Set_type>  (67) 
Train

>  <MW>  (67) 
367.39

>  <HBD>  (67) 
3

>  <HBA>  (67) 
5

>  <NRB>  (67) 
3

>  <NR>  (67) 
4

>  <NAR>  (67) 
3

>  <PSA>  (67) 
126.54

>  <Standard Type>  (67) 
nan

>  <Standard Relation>  (67) 
nan

>  <Standard Units>  (67) 
nan

>  <Standard Value>  (67) 
nan

>  <Assay ChEMBL ID>  (67) 
nan

>  <Assay Description>  (67) 
nan

>  <BAO Label>  (67) 
nan

$$$$

     RDKit          2D

 36 39  0  0  0  0  0  0  0  0999 V2000
    3.7500   -9.0933    0.0000 C   0  0  0  0  0  0  0  0  0  0  0  0
    3.0000   -7.7942    0.0000 O   0  0  0  0  0  0  0  0  0  0  0  0
    1.5000   -7.7942    0.0000 C   0  0  0  0  0  0  0  0  0  0  0  0
    0.7500   -9.0933    0.0000 C   0  0  0  0  0  0  0  0  0  0  0  0
   -0.7500   -9.0933    0.0000 C   0  0  0  0  0  0  0  0  0  0  0  0
   -1.5000   -7.7942    0.0000 C   0  0  0  0  0  0  0  0  0  0  0  0
   -0.7500   -6.4952    0.0000 C   0  0  0  0  0  0  0  0  0  0  0  0
   -1.5000   -5.1962    0.0000 O   0  0  0  0  0  0  0  0  0  0  0  0
   -3.0000   -5.1962    0.0000 C   0  0  0  0  0  0  0  0  0  0  0  0
    0.7500   -6.4952    0.0000 C   0  0  0  0  0  0  0  0  0  0  0  0
    1.5000   -5.1962    0.0000 C   0  0  0  0  0  0  0  0  0  0  0  0
    0.7500   -3.8971    0.0000 N   0  0  0  0  0  0  0  0  0  0  0  0
    1.5000   -2.5981    0.0000 C   0  0  0  0  0  0  0  0  0  0  0  0
    3.0000   -2.5981    0.0000 O   0  0  0  0  0  0  0  0  0  0  0  0
    0.7500   -1.2990    0.0000 C   0  0  0  0  0  0  0  0  0  0  0  0
    1.5000    0.0000    0.0000 C   0  0  0  0  0  0  0  0  0  0  0  0
    0.7500    1.2990    0.0000 C   0  0  0  0  0  0  0  0  0  0  0  0
   -0.7500    1.2990    0.0000 C   0  0  0  0  0  0  0  0  0  0  0  0
   -1.7537    2.4138    0.0000 N   0  0  0  0  0  0  0  0  0  0  0  0
   -3.1240    1.8037    0.0000 C   0  0  0  0  0  0  0  0  0  0  0  0
   -4.4231    2.5537    0.0000 O   0  0  0  0  0  0  0  0  0  0  0  0
   -2.9672    0.3119    0.0000 C   0  0  0  0  0  0  0  0  0  0  0  0
   -4.0819   -0.6918    0.0000 N   0  0  0  0  0  0  0  0  0  0  0  0
   -5.5085   -0.2283    0.0000 N   0  0  0  0  0  0  0  0  0  0  0  0
   -6.6232   -1.2320    0.0000 C   0  0  0  0  0  0  0  0  0  0  0  0
   -8.0498   -0.7685    0.0000 C   0  0  0  0  0  0  0  0  0  0  0  0
   -9.1645   -1.7722    0.0000 C   0  0  0  0  0  0  0  0  0  0  0  0
   -8.8527   -3.2394    0.0000 C   0  0  0  0  0  0  0  0  0  0  0  0
   -9.9674   -4.2431    0.0000 S   0  0  0  0  0  0  0  0  0  0  0  0
  -11.0821   -5.2468    0.0000 N   0  0  0  0  0  0  0  0  0  0  0  0
  -10.9711   -3.1284    0.0000 O   0  0  0  0  0  0  0  0  0  0  0  0
   -8.9637   -5.3578    0.0000 O   0  0  0  0  0  0  0  0  0  0  0  0
   -7.4261   -3.7029    0.0000 C   0  0  0  0  0  0  0  0  0  0  0  0
   -6.3114   -2.6992    0.0000 C   0  0  0  0  0  0  0  0  0  0  0  0
   -1.5000    0.0000    0.0000 C   0  0  0  0  0  0  0  0  0  0  0  0
   -0.7500   -1.2990    0.0000 C   0  0  0  0  0  0  0  0  0  0  0  0
  1  2  1  0
  2  3  1  0
  3  4  2  0
  4  5  1  0
  5  6  2  0
  6  7  1  0
  7  8  1  0
  8  9  1  0
  7 10  2  0
 10 11  1  0
 11 12  1  0
 12 13  1  0
 13 14  2  0
 13 15  1  0
 15 16  2  0
 16 17  1  0
 17 18  2  0
 18 19  1  0
 19 20  1  0
 20 21  1  0
 20 22  2  0
 22 23  1  0
 23 24  2  3
 24 25  1  0
 25 26  2  0
 26 27  1  0
 27 28  2  0
 28 29  1  0
 29 30  1  0
 29 31  2  0
 29 32  2  0
 28 33  1  0
 33 34  2  0
 22 35  1  0
 35 36  2  0
 10  3  1  0
 36 15  1  0
 35 18  1  0
 34 25  1  0
M  END
>  <Compound_ID>  (68) 
CHEMBL337325

>  <Active>  (68) 
1.0

>  <Smiles>  (68) 
COc1cccc(OC)c1CNC(=O)c1ccc2[nH]c(O)c(N=Nc3ccc(S(N)(=O)=O)cc3)c2c1

>  <canonical_smi>  (68) 
COc1cccc(OC)c1CNC(=O)c1ccc2[nH]c(O)c(N=Nc3ccc(S(N)(=O)=O)cc3)c2c1

>  <Set>  (68) 
G2 active

>  <Set_type>  (68) 
Train

>  <MW>  (68) 
509.54

>  <HBD>  (68) 
4

>  <HBA>  (68) 
6

>  <NRB>  (68) 
8

>  <NR>  (68) 
4

>  <NAR>  (68) 
4

>  <PSA>  (68) 
168.46

>  <Standard Type>  (68) 
nan

>  <Standard Relation>  (68) 
nan

>  <Standard Units>  (68) 
nan

>  <Standard Value>  (68) 
nan

>  <Assay ChEMBL ID>  (68) 
nan

>  <Assay Description>  (68) 
nan

>  <BAO Label>  (68) 
nan

$$$$

     RDKit          2D

 25 28  0  0  0  0  0  0  0  0999 V2000
   -0.0000   -5.1073    0.0000 O   0  0  0  0  0  0  0  0  0  0  0  0
   -0.0000   -3.6073    0.0000 C   0  0  0  0  0  0  0  0  0  0  0  0
    1.2135   -2.7256    0.0000 N   0  0  0  0  0  0  0  0  0  0  0  0
    0.7500   -1.2990    0.0000 C   0  0  0  0  0  0  0  0  0  0  0  0
    1.5000    0.0000    0.0000 C   0  0  0  0  0  0  0  0  0  0  0  0
    0.7500    1.2990    0.0000 C   0  0  0  0  0  0  0  0  0  0  0  0
   -0.7500    1.2990    0.0000 C   0  0  0  0  0  0  0  0  0  0  0  0
   -1.5000    2.5981    0.0000 N   0  0  0  0  0  4  0  0  0  0  0  0
   -3.0000    2.5981    0.0000 O   0  0  0  0  0  0  0  0  0  0  0  0
   -0.7500    3.8971    0.0000 O   0  0  0  0  0  1  0  0  0  0  0  0
   -1.5000    0.0000    0.0000 C   0  0  0  0  0  0  0  0  0  0  0  0
   -0.7500   -1.2990    0.0000 C   0  0  0  0  0  0  0  0  0  0  0  0
   -1.2135   -2.7256    0.0000 C   0  0  0  0  0  0  0  0  0  0  0  0
   -2.6401   -3.1891    0.0000 C   0  0  0  0  0  0  0  0  0  0  0  0
   -3.1036   -4.6157    0.0000 N   0  0  0  0  0  0  0  0  0  0  0  0
   -4.6036   -4.6157    0.0000 C   0  0  0  0  0  0  0  0  0  0  0  0
   -5.6073   -5.7305    0.0000 C   0  0  0  0  0  0  0  0  0  0  0  0
   -7.0746   -5.4186    0.0000 C   0  0  0  0  0  0  0  0  0  0  0  0
   -7.5381   -3.9920    0.0000 C   0  0  0  0  0  0  0  0  0  0  0  0
   -9.0053   -3.6801    0.0000 F   0  0  0  0  0  0  0  0  0  0  0  0
   -6.5344   -2.8773    0.0000 C   0  0  0  0  0  0  0  0  0  0  0  0
   -5.0672   -3.1891    0.0000 C   0  0  0  0  0  0  0  0  0  0  0  0
   -3.8536   -2.3075    0.0000 C   0  0  0  0  0  0  0  0  0  0  0  0
   -3.8536   -0.8075    0.0000 N   0  0  0  0  0  0  0  0  0  0  0  0
   -2.5546   -0.0575    0.0000 O   0  0  0  0  0  0  0  0  0  0  0  0
  1  2  2  0
  2  3  1  0
  3  4  1  0
  4  5  2  0
  5  6  1  0
  6  7  2  0
  7  8  1  0
  8  9  2  0
  8 10  1  0
  7 11  1  0
 11 12  2  0
 12 13  1  0
 13 14  2  0
 14 15  1  0
 15 16  1  0
 16 17  2  0
 17 18  1  0
 18 19  2  0
 19 20  1  0
 19 21  1  0
 21 22  2  0
 22 23  1  0
 23 24  2  0
 24 25  1  0
 13  2  1  0
 23 14  1  0
 12  4  1  0
 22 16  1  0
M  CHG  2   8   1  10  -1
M  END
>  <Compound_ID>  (69) 
CHEMBL1087073

>  <Active>  (69) 
1.0

>  <Smiles>  (69) 
O=C1Nc2ccc([N+](=O)[O-])cc2/C1=C1/Nc2ccc(F)cc2/C1=N/O

>  <canonical_smi>  (69) 
O=C1Nc2ccc([N+](=O)[O-])cc2/C1=C1/Nc2ccc(F)cc2/C1=N/O

>  <Set>  (69) 
G2 active

>  <Set_type>  (69) 
Train

>  <MW>  (69) 
340.27

>  <HBD>  (69) 
3

>  <HBA>  (69) 
5

>  <NRB>  (69) 
1

>  <NR>  (69) 
4

>  <NAR>  (69) 
2

>  <PSA>  (69) 
116.86

>  <Standard Type>  (69) 
nan

>  <Standard Relation>  (69) 
nan

>  <Standard Units>  (69) 
nan

>  <Standard Value>  (69) 
nan

>  <Assay ChEMBL ID>  (69) 
nan

>  <Assay Description>  (69) 
nan

>  <BAO Label>  (69) 
nan

$$$$

     RDKit          2D

 28 30  0  0  0  0  0  0  0  0999 V2000
    6.0000   -2.5981    0.0000 C   0  0  0  0  0  0  0  0  0  0  0  0
    5.2500   -1.2990    0.0000 C   0  0  0  0  0  0  0  0  0  0  0  0
    6.0000    0.0000    0.0000 C   0  0  0  0  0  0  0  0  0  0  0  0
    3.7500   -1.2990    0.0000 C   0  0  0  0  0  0  0  0  0  0  0  0
    3.0000    0.0000    0.0000 C   0  0  0  0  0  0  0  0  0  0  0  0
    3.7500    1.2990    0.0000 O   0  0  0  0  0  0  0  0  0  0  0  0
    1.5000    0.0000    0.0000 C   0  0  0  0  0  0  0  0  0  0  0  0
    0.7500   -1.2990    0.0000 C   0  0  0  0  0  0  0  0  0  0  0  0
   -0.7500   -1.2990    0.0000 C   0  0  0  0  0  0  0  0  0  0  0  0
   -1.5000    0.0000    0.0000 C   0  0  0  0  0  0  0  0  0  0  0  0
   -2.9672    0.3119    0.0000 N   0  0  0  0  0  0  0  0  0  0  0  0
   -3.1240    1.8037    0.0000 C   0  0  0  0  0  0  0  0  0  0  0  0
   -4.4231    2.5537    0.0000 O   0  0  0  0  0  0  0  0  0  0  0  0
   -1.7537    2.4138    0.0000 C   0  0  0  0  0  0  0  0  0  0  0  0
   -1.4418    3.8810    0.0000 C   0  0  0  0  0  0  0  0  0  0  0  0
   -2.5565    4.8847    0.0000 N   0  0  0  0  0  0  0  0  0  0  0  0
   -2.2447    6.3519    0.0000 C   0  0  0  0  0  0  0  0  0  0  0  0
   -0.8181    6.8154    0.0000 C   0  0  0  0  0  0  0  0  0  0  0  0
   -0.5062    8.2826    0.0000 C   0  0  0  0  0  0  0  0  0  0  0  0
   -1.6209    9.2863    0.0000 C   0  0  0  0  0  0  0  0  0  0  0  0
   -1.3091   10.7536    0.0000 S   0  0  0  0  0  0  0  0  0  0  0  0
   -0.9972   12.2208    0.0000 N   0  0  0  0  0  0  0  0  0  0  0  0
    0.1581   10.4417    0.0000 O   0  0  0  0  0  0  0  0  0  0  0  0
   -2.7763   11.0654    0.0000 O   0  0  0  0  0  0  0  0  0  0  0  0
   -3.0475    8.8228    0.0000 C   0  0  0  0  0  0  0  0  0  0  0  0
   -3.3594    7.3556    0.0000 C   0  0  0  0  0  0  0  0  0  0  0  0
   -0.7500    1.2990    0.0000 C   0  0  0  0  0  0  0  0  0  0  0  0
    0.7500    1.2990    0.0000 C   0  0  0  0  0  0  0  0  0  0  0  0
  1  2  1  0
  2  3  1  0
  2  4  1  0
  4  5  1  0
  5  6  2  0
  5  7  1  0
  7  8  2  0
  8  9  1  0
  9 10  2  0
 10 11  1  0
 11 12  1  0
 12 13  1  0
 12 14  2  0
 14 15  1  0
 15 16  2  0
 16 17  1  0
 17 18  2  0
 18 19  1  0
 19 20  2  0
 20 21  1  0
 21 22  1  0
 21 23  2  0
 21 24  2  0
 20 25  1  0
 25 26  2  0
 14 27  1  0
 27 28  2  0
 28  7  1  0
 27 10  1  0
 26 17  1  0
M  END
>  <Compound_ID>  (70) 
CHEMBL434257

>  <Active>  (70) 
1.0

>  <Smiles>  (70) 
CC(C)CC(=O)c1ccc2[nH]c(O)c(/C=N/c3ccc(S(N)(=O)=O)cc3)c2c1

>  <canonical_smi>  (70) 
CC(C)CC(=O)c1ccc2[nH]c(O)c(/C=N/c3ccc(S(N)(=O)=O)cc3)c2c1

>  <Set>  (70) 
G2 active

>  <Set_type>  (70) 
Train

>  <MW>  (70) 
399.47

>  <HBD>  (70) 
3

>  <HBA>  (70) 
4

>  <NRB>  (70) 
6

>  <NR>  (70) 
3

>  <NAR>  (70) 
3

>  <PSA>  (70) 
125.61

>  <Standard Type>  (70) 
nan

>  <Standard Relation>  (70) 
nan

>  <Standard Units>  (70) 
nan

>  <Standard Value>  (70) 
nan

>  <Assay ChEMBL ID>  (70) 
nan

>  <Assay Description>  (70) 
nan

>  <BAO Label>  (70) 
nan

$$$$

     RDKit          2D

 28 30  0  0  0  0  0  0  0  0999 V2000
    6.0000   -2.5981    0.0000 C   0  0  0  0  0  0  0  0  0  0  0  0
    5.2500   -1.2990    0.0000 C   0  0  0  0  0  0  0  0  0  0  0  0
    6.0000    0.0000    0.0000 C   0  0  0  0  0  0  0  0  0  0  0  0
    3.7500   -1.2990    0.0000 C   0  0  0  0  0  0  0  0  0  0  0  0
    3.0000    0.0000    0.0000 C   0  0  0  0  0  0  0  0  0  0  0  0
    3.7500    1.2990    0.0000 O   0  0  0  0  0  0  0  0  0  0  0  0
    1.5000    0.0000    0.0000 C   0  0  0  0  0  0  0  0  0  0  0  0
    0.7500   -1.2990    0.0000 C   0  0  0  0  0  0  0  0  0  0  0  0
   -0.7500   -1.2990    0.0000 C   0  0  0  0  0  0  0  0  0  0  0  0
   -1.5000    0.0000    0.0000 C   0  0  0  0  0  0  0  0  0  0  0  0
   -0.7500    1.2990    0.0000 C   0  0  0  0  0  0  0  0  0  0  0  0
    0.7500    1.2990    0.0000 C   0  0  0  0  0  0  0  0  0  0  0  0
   -1.7537    2.4138    0.0000 C   0  0  0  0  0  0  0  0  0  0  0  0
   -1.4418    3.8810    0.0000 C   0  0  0  0  0  0  0  0  0  0  0  0
   -2.5565    4.8847    0.0000 N   0  0  0  0  0  0  0  0  0  0  0  0
   -2.2447    6.3519    0.0000 C   0  0  0  0  0  0  0  0  0  0  0  0
   -0.8181    6.8154    0.0000 C   0  0  0  0  0  0  0  0  0  0  0  0
   -0.5062    8.2826    0.0000 C   0  0  0  0  0  0  0  0  0  0  0  0
   -1.6209    9.2863    0.0000 C   0  0  0  0  0  0  0  0  0  0  0  0
   -1.3091   10.7536    0.0000 S   0  0  0  0  0  0  0  0  0  0  0  0
   -0.9972   12.2208    0.0000 N   0  0  0  0  0  0  0  0  0  0  0  0
    0.1581   10.4417    0.0000 O   0  0  0  0  0  0  0  0  0  0  0  0
   -2.7763   11.0654    0.0000 O   0  0  0  0  0  0  0  0  0  0  0  0
   -3.0475    8.8228    0.0000 C   0  0  0  0  0  0  0  0  0  0  0  0
   -3.3594    7.3556    0.0000 C   0  0  0  0  0  0  0  0  0  0  0  0
   -3.1240    1.8037    0.0000 C   0  0  0  0  0  0  0  0  0  0  0  0
   -4.4231    2.5537    0.0000 O   0  0  0  0  0  0  0  0  0  0  0  0
   -2.9672    0.3119    0.0000 N   0  0  0  0  0  0  0  0  0  0  0  0
  1  2  1  0
  2  3  1  0
  2  4  1  0
  4  5  1  0
  5  6  2  0
  5  7  1  0
  7  8  2  0
  8  9  1  0
  9 10  2  0
 10 11  1  0
 11 12  2  0
 11 13  1  0
 13 14  2  0
 14 15  1  0
 15 16  1  0
 16 17  2  0
 17 18  1  0
 18 19  2  0
 19 20  1  0
 20 21  1  0
 20 22  2  0
 20 23  2  0
 19 24  1  0
 24 25  2  0
 13 26  1  0
 26 27  2  0
 26 28  1  0
 12  7  1  0
 25 16  1  0
 28 10  1  0
M  END
>  <Compound_ID>  (71) 
CHEMBL429142

>  <Active>  (71) 
1.0

>  <Smiles>  (71) 
CC(C)CC(=O)c1ccc2c(c1)/C(=C/Nc1ccc(S(N)(=O)=O)cc1)C(=O)N2

>  <canonical_smi>  (71) 
CC(C)CC(=O)c1ccc2c(c1)/C(=C/Nc1ccc(S(N)(=O)=O)cc1)C(=O)N2

>  <Set>  (71) 
G2 active

>  <Set_type>  (71) 
Train

>  <MW>  (71) 
399.47

>  <HBD>  (71) 
3

>  <HBA>  (71) 
5

>  <NRB>  (71) 
6

>  <NR>  (71) 
3

>  <NAR>  (71) 
2

>  <PSA>  (71) 
118.36

>  <Standard Type>  (71) 
nan

>  <Standard Relation>  (71) 
nan

>  <Standard Units>  (71) 
nan

>  <Standard Value>  (71) 
nan

>  <Assay ChEMBL ID>  (71) 
nan

>  <Assay Description>  (71) 
nan

>  <BAO Label>  (71) 
nan

$$$$

     RDKit          2D

 26 29  0  0  0  0  0  0  0  0999 V2000
   -6.9204   -5.2665    0.0000 C   0  0  0  0  0  0  0  0  0  0  0  0
   -5.6213   -4.5165    0.0000 O   0  0  0  0  0  0  0  0  0  0  0  0
   -4.3223   -5.2665    0.0000 C   0  0  0  0  0  0  0  0  0  0  0  0
   -4.1655   -6.7583    0.0000 C   0  0  0  0  0  0  0  0  0  0  0  0
   -2.6983   -7.0701    0.0000 C   0  0  0  0  0  0  0  0  0  0  0  0
   -1.9483   -5.7711    0.0000 N   0  0  0  0  0  0  0  0  0  0  0  0
   -2.9520   -4.6564    0.0000 C   0  0  0  0  0  0  0  0  0  0  0  0
   -2.6401   -3.1891    0.0000 C   0  0  0  0  0  0  0  0  0  0  0  0
   -1.2135   -2.7256    0.0000 C   0  0  0  0  0  0  0  0  0  0  0  0
   -0.0000   -3.6073    0.0000 C   0  0  0  0  0  0  0  0  0  0  0  0
    0.0000   -5.1073    0.0000 O   0  0  0  0  0  0  0  0  0  0  0  0
    1.2135   -2.7256    0.0000 N   0  0  0  0  0  0  0  0  0  0  0  0
    0.7500   -1.2990    0.0000 C   0  0  0  0  0  0  0  0  0  0  0  0
    1.5000    0.0000    0.0000 C   0  0  0  0  0  0  0  0  0  0  0  0
    0.7500    1.2990    0.0000 C   0  0  0  0  0  0  0  0  0  0  0  0
   -0.7500    1.2990    0.0000 C   0  0  0  0  0  0  0  0  0  0  0  0
   -1.5000    2.5981    0.0000 F   0  0  0  0  0  0  0  0  0  0  0  0
   -1.5000    0.0000    0.0000 C   0  0  0  0  0  0  0  0  0  0  0  0
   -3.0000    0.0000    0.0000 C   0  0  0  0  0  0  0  0  0  0  0  0
   -4.5000    0.0000    0.0000 C   0  0  0  0  0  0  0  0  0  0  0  0
   -6.0000    0.0000    0.0000 C   0  0  0  0  0  0  0  0  0  0  0  0
   -6.8817   -1.2135    0.0000 C   0  0  0  0  0  0  0  0  0  0  0  0
   -8.3083   -0.7500    0.0000 C   0  0  0  0  0  0  0  0  0  0  0  0
   -8.3083    0.7500    0.0000 C   0  0  0  0  0  0  0  0  0  0  0  0
   -6.8817    1.2135    0.0000 N   0  0  0  0  0  0  0  0  0  0  0  0
   -0.7500   -1.2990    0.0000 C   0  0  0  0  0  0  0  0  0  0  0  0
  1  2  1  0
  2  3  1  0
  3  4  1  0
  4  5  2  0
  5  6  1  0
  6  7  1  0
  7  8  1  0
  8  9  2  0
  9 10  1  0
 10 11  2  0
 10 12  1  0
 12 13  1  0
 13 14  2  0
 14 15  1  0
 15 16  2  0
 16 17  1  0
 16 18  1  0
 18 19  1  0
 19 20  3  0
 21 20  1  6
 21 22  1  0
 22 23  1  0
 23 24  1  0
 24 25  1  0
 18 26  2  0
  7  3  2  0
 26  9  1  0
 26 13  1  0
 25 21  1  0
M  END
>  <Compound_ID>  (72) 
CHEMBL355631

>  <Active>  (72) 
1.0

>  <Smiles>  (72) 
COc1cc[nH]c1/C=C1\C(=O)Nc2ccc(F)c(C#C[C@@H]3CCCN3)c21

>  <canonical_smi>  (72) 
COc1cc[nH]c1/C=C1\C(=O)Nc2ccc(F)c(C#C[C@@H]3CCCN3)c21

>  <Set>  (72) 
G2 active

>  <Set_type>  (72) 
Train

>  <MW>  (72) 
351.38

>  <HBD>  (72) 
3

>  <HBA>  (72) 
3

>  <NRB>  (72) 
2

>  <NR>  (72) 
4

>  <NAR>  (72) 
2

>  <PSA>  (72) 
66.15

>  <Standard Type>  (72) 
nan

>  <Standard Relation>  (72) 
nan

>  <Standard Units>  (72) 
nan

>  <Standard Value>  (72) 
nan

>  <Assay ChEMBL ID>  (72) 
nan

>  <Assay Description>  (72) 
nan

>  <BAO Label>  (72) 
nan

$$$$

     RDKit          2D

 28 30  0  0  0  0  0  0  0  0999 V2000
   -3.2082  -15.6575    0.0000 C   0  0  0  0  0  0  0  0  0  0  0  0
   -1.9092  -16.4075    0.0000 C   0  0  0  0  0  0  0  0  0  0  0  0
   -0.6101  -17.1575    0.0000 C   0  0  0  0  0  0  0  0  0  0  0  0
   -2.6592  -17.7065    0.0000 C   0  0  0  0  0  0  0  0  0  0  0  0
   -1.1592  -15.1085    0.0000 C   0  0  0  0  0  0  0  0  0  0  0  0
    0.3326  -14.9517    0.0000 C   0  0  0  0  0  0  0  0  0  0  0  0
    0.6445  -13.4844    0.0000 N   0  0  0  0  0  0  0  0  0  0  0  0
   -0.6546  -12.7344    0.0000 C   0  0  0  0  0  0  0  0  0  0  0  0
   -0.8113  -11.2427    0.0000 C   0  0  0  0  0  0  0  0  0  0  0  0
    0.4022  -10.3610    0.0000 S   0  0  0  0  0  0  0  0  0  0  0  0
    0.2454   -8.8692    0.0000 C   0  0  0  0  0  0  0  0  0  0  0  0
   -1.0537   -8.1192    0.0000 C   0  0  0  0  0  0  0  0  0  0  0  0
   -0.7418   -6.6520    0.0000 N   0  0  0  0  0  0  0  0  0  0  0  0
    0.7500   -6.4952    0.0000 C   0  0  0  0  0  0  0  0  0  0  0  0
    1.5000   -5.1962    0.0000 N   0  0  0  0  0  0  0  0  0  0  0  0
    0.7500   -3.8971    0.0000 C   0  0  0  0  0  0  0  0  0  0  0  0
   -0.7500   -3.8971    0.0000 O   0  0  0  0  0  0  0  0  0  0  0  0
    1.5000   -2.5981    0.0000 N   0  0  0  0  0  0  0  0  0  0  0  0
    0.7500   -1.2990    0.0000 C   0  0  0  0  0  0  0  0  0  0  0  0
    1.5000    0.0000    0.0000 C   0  0  0  0  0  0  0  0  0  0  0  0
    3.0000    0.0000    0.0000 F   0  0  0  0  0  0  0  0  0  0  0  0
    0.7500    1.2990    0.0000 C   0  0  0  0  0  0  0  0  0  0  0  0
   -0.7500    1.2990    0.0000 C   0  0  0  0  0  0  0  0  0  0  0  0
   -1.5000    0.0000    0.0000 C   0  0  0  0  0  0  0  0  0  0  0  0
   -0.7500   -1.2990    0.0000 C   0  0  0  0  0  0  0  0  0  0  0  0
   -1.5000   -2.5981    0.0000 F   0  0  0  0  0  0  0  0  0  0  0  0
    1.3601   -7.8655    0.0000 S   0  0  0  0  0  0  0  0  0  0  0  0
   -1.7693  -13.7381    0.0000 O   0  0  0  0  0  0  0  0  0  0  0  0
  1  2  1  0
  2  3  1  0
  2  4  1  0
  2  5  1  0
  5  6  2  0
  6  7  1  0
  7  8  2  0
  8  9  1  0
  9 10  1  0
 10 11  1  0
 11 12  2  0
 12 13  1  0
 13 14  2  0
 14 15  1  0
 15 16  1  0
 16 17  2  0
 16 18  1  0
 18 19  1  0
 19 20  2  0
 20 21  1  0
 20 22  1  0
 22 23  2  0
 23 24  1  0
 24 25  2  0
 25 26  1  0
 14 27  1  0
  8 28  1  0
 28  5  1  0
 27 11  1  0
 25 19  1  0
M  END
>  <Compound_ID>  (73) 
CHEMBL126997

>  <Active>  (73) 
1.0

>  <Smiles>  (73) 
CC(C)(C)c1cnc(CSc2cnc(NC(=O)Nc3c(F)cccc3F)s2)o1

>  <canonical_smi>  (73) 
CC(C)(C)c1cnc(CSc2cnc(NC(=O)Nc3c(F)cccc3F)s2)o1

>  <Set>  (73) 
G2 active

>  <Set_type>  (73) 
Train

>  <MW>  (73) 
424.5

>  <HBD>  (73) 
2

>  <HBA>  (73) 
5

>  <NRB>  (73) 
5

>  <NR>  (73) 
3

>  <NAR>  (73) 
3

>  <PSA>  (73) 
80.05

>  <Standard Type>  (73) 
nan

>  <Standard Relation>  (73) 
nan

>  <Standard Units>  (73) 
nan

>  <Standard Value>  (73) 
nan

>  <Assay ChEMBL ID>  (73) 
nan

>  <Assay Description>  (73) 
nan

>  <BAO Label>  (73) 
nan

$$$$

     RDKit          2D

 30 32  0  0  0  0  0  0  0  0999 V2000
   -3.2082  -13.0594    0.0000 C   0  0  0  0  0  0  0  0  0  0  0  0
   -1.9092  -13.8094    0.0000 C   0  0  0  0  0  0  0  0  0  0  0  0
   -0.6101  -14.5594    0.0000 C   0  0  0  0  0  0  0  0  0  0  0  0
   -2.6592  -15.1085    0.0000 C   0  0  0  0  0  0  0  0  0  0  0  0
   -1.1592  -12.5104    0.0000 C   0  0  0  0  0  0  0  0  0  0  0  0
    0.3326  -12.3536    0.0000 C   0  0  0  0  0  0  0  0  0  0  0  0
    0.6445  -10.8864    0.0000 N   0  0  0  0  0  0  0  0  0  0  0  0
   -0.6546  -10.1364    0.0000 C   0  0  0  0  0  0  0  0  0  0  0  0
   -0.8113   -8.6446    0.0000 C   0  0  0  0  0  0  0  0  0  0  0  0
    0.4022   -7.7629    0.0000 S   0  0  0  0  0  0  0  0  0  0  0  0
    0.2454   -6.2711    0.0000 C   0  0  0  0  0  0  0  0  0  0  0  0
   -1.0537   -5.5211    0.0000 C   0  0  0  0  0  0  0  0  0  0  0  0
   -0.7418   -4.0539    0.0000 N   0  0  0  0  0  0  0  0  0  0  0  0
    0.7500   -3.8971    0.0000 C   0  0  0  0  0  0  0  0  0  0  0  0
    1.5000   -2.5981    0.0000 N   0  0  0  0  0  0  0  0  0  0  0  0
    0.7500   -1.2990    0.0000 C   0  0  0  0  0  0  0  0  0  0  0  0
    1.5000    0.0000    0.0000 C   0  0  0  0  0  0  0  0  0  0  0  0
    0.7500    1.2990    0.0000 C   0  0  0  0  0  0  0  0  0  0  0  0
   -0.7500    1.2990    0.0000 C   0  0  0  0  0  0  0  0  0  0  0  0
   -1.5000    2.5981    0.0000 S   0  0  0  0  0  0  0  0  0  0  0  0
   -0.2010    3.3481    0.0000 O   0  0  0  0  0  0  0  0  0  0  0  0
   -2.7990    1.8481    0.0000 O   0  0  0  0  0  0  0  0  0  0  0  0
   -2.2500    3.8971    0.0000 N   0  0  0  0  0  0  0  0  0  0  0  0
   -3.7500    3.8971    0.0000 C   0  0  0  0  0  0  0  0  0  0  0  0
   -4.5000    5.1962    0.0000 C   0  0  0  0  0  0  0  0  0  0  0  0
   -6.0000    5.1962    0.0000 O   0  0  0  0  0  0  0  0  0  0  0  0
   -1.5000    0.0000    0.0000 C   0  0  0  0  0  0  0  0  0  0  0  0
   -0.7500   -1.2990    0.0000 C   0  0  0  0  0  0  0  0  0  0  0  0
    1.3601   -5.2674    0.0000 S   0  0  0  0  0  0  0  0  0  0  0  0
   -1.7693  -11.1401    0.0000 O   0  0  0  0  0  0  0  0  0  0  0  0
  1  2  1  0
  2  3  1  0
  2  4  1  0
  2  5  1  0
  5  6  2  0
  6  7  1  0
  7  8  2  0
  8  9  1  0
  9 10  1  0
 10 11  1  0
 11 12  2  0
 12 13  1  0
 13 14  2  0
 14 15  1  0
 15 16  1  0
 16 17  2  0
 17 18  1  0
 18 19  2  0
 19 20  1  0
 20 21  2  0
 20 22  2  0
 20 23  1  0
 23 24  1  0
 24 25  1  0
 25 26  1  0
 19 27  1  0
 27 28  2  0
 14 29  1  0
  8 30  1  0
 30  5  1  0
 29 11  1  0
 28 16  1  0
M  END
>  <Compound_ID>  (74) 
CHEMBL420463

>  <Active>  (74) 
1.0

>  <Smiles>  (74) 
CC(C)(C)c1cnc(CSc2cnc(Nc3ccc(S(=O)(=O)NCCO)cc3)s2)o1

>  <canonical_smi>  (74) 
CC(C)(C)c1cnc(CSc2cnc(Nc3ccc(S(=O)(=O)NCCO)cc3)s2)o1

>  <Set>  (74) 
G2 active

>  <Set_type>  (74) 
Train

>  <MW>  (74) 
468.63

>  <HBD>  (74) 
3

>  <HBA>  (74) 
8

>  <NRB>  (74) 
9

>  <NR>  (74) 
3

>  <NAR>  (74) 
3

>  <PSA>  (74) 
117.35

>  <Standard Type>  (74) 
nan

>  <Standard Relation>  (74) 
nan

>  <Standard Units>  (74) 
nan

>  <Standard Value>  (74) 
nan

>  <Assay ChEMBL ID>  (74) 
nan

>  <Assay Description>  (74) 
nan

>  <BAO Label>  (74) 
nan

$$$$

     RDKit          2D

 23 25  0  0  0  0  0  0  0  0999 V2000
   -3.2082  -13.0594    0.0000 C   0  0  0  0  0  0  0  0  0  0  0  0
   -1.9092  -13.8094    0.0000 C   0  0  0  0  0  0  0  0  0  0  0  0
   -0.6101  -14.5594    0.0000 C   0  0  0  0  0  0  0  0  0  0  0  0
   -2.6592  -15.1085    0.0000 C   0  0  0  0  0  0  0  0  0  0  0  0
   -1.1592  -12.5104    0.0000 C   0  0  0  0  0  0  0  0  0  0  0  0
    0.3326  -12.3536    0.0000 C   0  0  0  0  0  0  0  0  0  0  0  0
    0.6445  -10.8864    0.0000 N   0  0  0  0  0  0  0  0  0  0  0  0
   -0.6546  -10.1364    0.0000 C   0  0  0  0  0  0  0  0  0  0  0  0
   -0.8113   -8.6446    0.0000 C   0  0  0  0  0  0  0  0  0  0  0  0
    0.4022   -7.7629    0.0000 S   0  0  0  0  0  0  0  0  0  0  0  0
    0.2454   -6.2711    0.0000 C   0  0  0  0  0  0  0  0  0  0  0  0
   -1.0537   -5.5211    0.0000 C   0  0  0  0  0  0  0  0  0  0  0  0
   -0.7418   -4.0539    0.0000 N   0  0  0  0  0  0  0  0  0  0  0  0
    0.7500   -3.8971    0.0000 C   0  0  0  0  0  0  0  0  0  0  0  0
    1.5000   -2.5981    0.0000 N   0  0  0  0  0  0  0  0  0  0  0  0
    0.7500   -1.2990    0.0000 C   0  0  0  0  0  0  0  0  0  0  0  0
    1.5000    0.0000    0.0000 C   0  0  0  0  0  0  0  0  0  0  0  0
    0.7500    1.2990    0.0000 C   0  0  0  0  0  0  0  0  0  0  0  0
   -0.7500    1.2990    0.0000 C   0  0  0  0  0  0  0  0  0  0  0  0
   -1.5000    0.0000    0.0000 C   0  0  0  0  0  0  0  0  0  0  0  0
   -0.7500   -1.2990    0.0000 N   0  0  0  0  0  0  0  0  0  0  0  0
    1.3601   -5.2674    0.0000 S   0  0  0  0  0  0  0  0  0  0  0  0
   -1.7693  -11.1401    0.0000 O   0  0  0  0  0  0  0  0  0  0  0  0
  1  2  1  0
  2  3  1  0
  2  4  1  0
  2  5  1  0
  5  6  2  0
  6  7  1  0
  7  8  2  0
  8  9  1  0
  9 10  1  0
 10 11  1  0
 11 12  2  0
 12 13  1  0
 13 14  2  0
 14 15  1  0
 15 16  1  0
 16 17  2  0
 17 18  1  0
 18 19  2  0
 19 20  1  0
 20 21  2  0
 14 22  1  0
  8 23  1  0
 23  5  1  0
 22 11  1  0
 21 16  1  0
M  END
>  <Compound_ID>  (75) 
CHEMBL430653

>  <Active>  (75) 
1.0

>  <Smiles>  (75) 
CC(C)(C)c1cnc(CSc2cnc(Nc3ccccn3)s2)o1

>  <canonical_smi>  (75) 
CC(C)(C)c1cnc(CSc2cnc(Nc3ccccn3)s2)o1

>  <Set>  (75) 
G2 active

>  <Set_type>  (75) 
Train

>  <MW>  (75) 
346.48

>  <HBD>  (75) 
1

>  <HBA>  (75) 
6

>  <NRB>  (75) 
5

>  <NR>  (75) 
3

>  <NAR>  (75) 
3

>  <PSA>  (75) 
63.84

>  <Standard Type>  (75) 
nan

>  <Standard Relation>  (75) 
nan

>  <Standard Units>  (75) 
nan

>  <Standard Value>  (75) 
nan

>  <Assay ChEMBL ID>  (75) 
nan

>  <Assay Description>  (75) 
nan

>  <BAO Label>  (75) 
nan

$$$$

     RDKit          2D

 23 25  0  0  0  0  0  0  0  0999 V2000
   -0.5773   -4.2803    0.0000 C   0  0  0  0  0  0  0  0  0  0  0  0
    0.8899   -3.9684    0.0000 C   0  0  0  0  0  0  0  0  0  0  0  0
    2.0046   -4.9721    0.0000 N   0  0  0  0  0  0  0  0  0  0  0  0
    3.3037   -4.2221    0.0000 C   0  0  0  0  0  0  0  0  0  0  0  0
    4.6740   -4.8322    0.0000 N   0  0  0  0  0  0  0  0  0  0  0  0
    2.9918   -2.7549    0.0000 S   0  0  0  0  0  0  0  0  0  0  0  0
    1.5000   -2.5981    0.0000 C   0  0  0  0  0  0  0  0  0  0  0  0
    0.7500   -1.2990    0.0000 C   0  0  0  0  0  0  0  0  0  0  0  0
    1.5000    0.0000    0.0000 C   0  0  0  0  0  0  0  0  0  0  0  0
    0.7500    1.2990    0.0000 C   0  0  0  0  0  0  0  0  0  0  0  0
   -0.7500    1.2990    0.0000 N   0  0  0  0  0  0  0  0  0  0  0  0
   -1.5000    0.0000    0.0000 C   0  0  0  0  0  0  0  0  0  0  0  0
   -3.0000    0.0000    0.0000 N   0  0  0  0  0  0  0  0  0  0  0  0
   -3.7500    1.2990    0.0000 C   0  0  0  0  0  0  0  0  0  0  0  0
   -3.0000    2.5981    0.0000 C   0  0  0  0  0  0  0  0  0  0  0  0
   -3.7500    3.8971    0.0000 C   0  0  0  0  0  0  0  0  0  0  0  0
   -5.2500    3.8971    0.0000 C   0  0  0  0  0  0  0  0  0  0  0  0
   -6.0000    2.5981    0.0000 C   0  0  0  0  0  0  0  0  0  0  0  0
   -7.5000    2.5981    0.0000 N   0  0  0  0  0  4  0  0  0  0  0  0
   -8.2500    1.2990    0.0000 O   0  0  0  0  0  0  0  0  0  0  0  0
   -8.2500    3.8971    0.0000 O   0  0  0  0  0  1  0  0  0  0  0  0
   -5.2500    1.2990    0.0000 C   0  0  0  0  0  0  0  0  0  0  0  0
   -0.7500   -1.2990    0.0000 N   0  0  0  0  0  0  0  0  0  0  0  0
  1  2  1  0
  2  3  1  0
  3  4  2  0
  4  5  1  0
  4  6  1  0
  6  7  1  0
  7  8  1  0
  8  9  2  0
  9 10  1  0
 10 11  2  0
 11 12  1  0
 12 13  1  0
 13 14  1  0
 14 15  2  0
 15 16  1  0
 16 17  2  0
 17 18  1  0
 18 19  1  0
 19 20  2  0
 19 21  1  0
 18 22  2  0
 12 23  2  0
  7  2  2  0
 23  8  1  0
 22 14  1  0
M  CHG  2  19   1  21  -1
M  END
>  <Compound_ID>  (76) 
CHEMBL298445

>  <Active>  (76) 
1.0

>  <Smiles>  (76) 
Cc1nc(N)sc1-c1ccnc(Nc2cccc([N+](=O)[O-])c2)n1

>  <canonical_smi>  (76) 
Cc1nc(N)sc1-c1ccnc(Nc2cccc([N+](=O)[O-])c2)n1

>  <Set>  (76) 
G2 active

>  <Set_type>  (76) 
Train

>  <MW>  (76) 
328.36

>  <HBD>  (76) 
2

>  <HBA>  (76) 
7

>  <NRB>  (76) 
4

>  <NR>  (76) 
3

>  <NAR>  (76) 
3

>  <PSA>  (76) 
119.86

>  <Standard Type>  (76) 
nan

>  <Standard Relation>  (76) 
nan

>  <Standard Units>  (76) 
nan

>  <Standard Value>  (76) 
nan

>  <Assay ChEMBL ID>  (76) 
nan

>  <Assay Description>  (76) 
nan

>  <BAO Label>  (76) 
nan

$$$$

     RDKit          2D

 23 25  0  0  0  0  0  0  0  0999 V2000
   -5.1388   -6.1973    0.0000 C   0  0  0  0  0  0  0  0  0  0  0  0
   -4.3888   -4.8983    0.0000 C   0  0  0  0  0  0  0  0  0  0  0  0
   -5.1388   -3.5992    0.0000 C   0  0  0  0  0  0  0  0  0  0  0  0
   -4.3888   -2.3002    0.0000 C   0  0  0  0  0  0  0  0  0  0  0  0
   -5.1388   -1.0012    0.0000 N   0  0  0  0  0  0  0  0  0  0  0  0
   -4.3888    0.2979    0.0000 S   0  0  0  0  0  0  0  0  0  0  0  0
   -3.0897   -0.4521    0.0000 O   0  0  0  0  0  0  0  0  0  0  0  0
   -5.6878    1.0479    0.0000 O   0  0  0  0  0  0  0  0  0  0  0  0
   -3.6388    1.5969    0.0000 N   0  0  0  0  0  0  0  0  0  0  0  0
   -4.2489    2.9672    0.0000 N   0  0  0  0  0  0  0  0  0  0  0  0
   -3.1342    3.9709    0.0000 C   0  0  0  0  0  0  0  0  0  0  0  0
   -3.2910    5.4627    0.0000 C   0  0  0  0  0  0  0  0  0  0  0  0
   -4.6613    6.0728    0.0000 N   0  0  0  0  0  0  0  0  0  0  0  0
   -2.0774    6.3444    0.0000 O   0  0  0  0  0  0  0  0  0  0  0  0
   -1.8351    3.2209    0.0000 C   0  0  0  0  0  0  0  0  0  0  0  0
   -0.4086    3.6844    0.0000 C   0  0  0  0  0  0  0  0  0  0  0  0
    0.7062    2.6807    0.0000 C   0  0  0  0  0  0  0  0  0  0  0  0
    0.3943    1.2135    0.0000 C   0  0  0  0  0  0  0  0  0  0  0  0
    1.2760    0.0000    0.0000 N   0  0  0  0  0  0  0  0  0  0  0  0
    0.3943   -1.2135    0.0000 N   0  0  0  0  0  0  0  0  0  0  0  0
   -1.0323   -0.7500    0.0000 C   0  0  0  0  0  0  0  0  0  0  0  0
   -1.0323    0.7500    0.0000 C   0  0  0  0  0  0  0  0  0  0  0  0
   -2.1470    1.7537    0.0000 C   0  0  0  0  0  0  0  0  0  0  0  0
  1  2  1  0
  2  3  1  0
  3  4  1  0
  4  5  1  0
  5  6  1  0
  6  7  2  0
  6  8  2  0
  6  9  1  0
  9 10  1  0
 10 11  2  0
 11 12  1  0
 12 13  1  0
 12 14  2  0
 11 15  1  0
 15 16  2  0
 16 17  1  0
 17 18  2  0
 18 19  1  0
 19 20  1  0
 20 21  2  0
 21 22  1  0
 22 23  2  0
 23  9  1  0
 23 15  1  0
 22 18  1  0
M  END
>  <Compound_ID>  (77) 
CHEMBL181036

>  <Active>  (77) 
1.0

>  <Smiles>  (77) 
CCCCNS(=O)(=O)n1nc(C(N)=O)c2ccc3[nH]ncc3c21

>  <canonical_smi>  (77) 
CCCCNS(=O)(=O)n1nc(C(N)=O)c2ccc3[nH]ncc3c21

>  <Set>  (77) 
G2 active

>  <Set_type>  (77) 
Train

>  <MW>  (77) 
336.38

>  <HBD>  (77) 
3

>  <HBA>  (77) 
5

>  <NRB>  (77) 
6

>  <NR>  (77) 
3

>  <NAR>  (77) 
3

>  <PSA>  (77) 
135.76

>  <Standard Type>  (77) 
nan

>  <Standard Relation>  (77) 
nan

>  <Standard Units>  (77) 
nan

>  <Standard Value>  (77) 
nan

>  <Assay ChEMBL ID>  (77) 
nan

>  <Assay Description>  (77) 
nan

>  <BAO Label>  (77) 
nan

$$$$

     RDKit          2D

 28 31  0  0  0  0  0  0  0  0999 V2000
   -3.7548   -2.1855    0.0000 C   0  0  0  0  0  0  0  0  0  0  0  0
   -2.6401   -3.1891    0.0000 C   0  0  0  0  0  0  0  0  0  0  0  0
   -2.9520   -4.6564    0.0000 N   0  0  0  0  0  0  0  0  0  0  0  0
   -4.3786   -5.1199    0.0000 C   0  0  0  0  0  0  0  0  0  0  0  0
   -5.4933   -4.1162    0.0000 C   0  0  0  0  0  0  0  0  0  0  0  0
   -6.9199   -4.5797    0.0000 C   0  0  0  0  0  0  0  0  0  0  0  0
   -7.2317   -6.0469    0.0000 C   0  0  0  0  0  0  0  0  0  0  0  0
   -8.6583   -6.5105    0.0000 S   0  0  0  0  0  0  0  0  0  0  0  0
  -10.0849   -6.9740    0.0000 N   0  0  0  0  0  0  0  0  0  0  0  0
   -9.1218   -5.0839    0.0000 O   0  0  0  0  0  0  0  0  0  0  0  0
   -8.1948   -7.9371    0.0000 O   0  0  0  0  0  0  0  0  0  0  0  0
   -6.1170   -7.0506    0.0000 C   0  0  0  0  0  0  0  0  0  0  0  0
   -4.6904   -6.5871    0.0000 C   0  0  0  0  0  0  0  0  0  0  0  0
   -1.2135   -2.7256    0.0000 C   0  0  0  0  0  0  0  0  0  0  0  0
   -0.0000   -3.6073    0.0000 C   0  0  0  0  0  0  0  0  0  0  0  0
    0.0000   -5.1073    0.0000 O   0  0  0  0  0  0  0  0  0  0  0  0
    1.2135   -2.7256    0.0000 N   0  0  0  0  0  0  0  0  0  0  0  0
    0.7500   -1.2990    0.0000 C   0  0  0  0  0  0  0  0  0  0  0  0
    1.5000    0.0000    0.0000 C   0  0  0  0  0  0  0  0  0  0  0  0
    0.7500    1.2990    0.0000 C   0  0  0  0  0  0  0  0  0  0  0  0
   -0.7500    1.2990    0.0000 C   0  0  0  0  0  0  0  0  0  0  0  0
   -1.5000    2.5981    0.0000 C   0  0  0  0  0  0  0  0  0  0  0  0
   -2.9918    2.7549    0.0000 C   0  0  0  0  0  0  0  0  0  0  0  0
   -3.3037    4.2221    0.0000 N   0  0  0  0  0  0  0  0  0  0  0  0
   -2.0046    4.9721    0.0000 C   0  0  0  0  0  0  0  0  0  0  0  0
   -0.8899    3.9684    0.0000 O   0  0  0  0  0  0  0  0  0  0  0  0
   -1.5000    0.0000    0.0000 C   0  0  0  0  0  0  0  0  0  0  0  0
   -0.7500   -1.2990    0.0000 C   0  0  0  0  0  0  0  0  0  0  0  0
  1  2  1  0
  2  3  2  0
  3  4  1  0
  4  5  2  0
  5  6  1  0
  6  7  2  0
  7  8  1  0
  8  9  1  0
  8 10  2  0
  8 11  2  0
  7 12  1  0
 12 13  2  0
  2 14  1  0
 14 15  2  0
 15 16  1  0
 15 17  1  0
 17 18  1  0
 18 19  2  0
 19 20  1  0
 20 21  2  0
 21 22  1  0
 22 23  2  0
 23 24  1  0
 24 25  2  0
 25 26  1  0
 21 27  1  0
 27 28  2  0
 13  4  1  0
 28 14  1  0
 28 18  1  0
 26 22  1  0
M  END
>  <Compound_ID>  (78) 
CHEMBL335275

>  <Active>  (78) 
1.0

>  <Smiles>  (78) 
C/C(=N\c1ccc(S(N)(=O)=O)cc1)c1c(O)[nH]c2ccc(-c3cnco3)cc12

>  <canonical_smi>  (78) 
C/C(=N\c1ccc(S(N)(=O)=O)cc1)c1c(O)[nH]c2ccc(-c3cnco3)cc12

>  <Set>  (78) 
G2 active

>  <Set_type>  (78) 
Train

>  <MW>  (78) 
396.43

>  <HBD>  (78) 
3

>  <HBA>  (78) 
5

>  <NRB>  (78) 
4

>  <NR>  (78) 
4

>  <NAR>  (78) 
4

>  <PSA>  (78) 
134.57

>  <Standard Type>  (78) 
nan

>  <Standard Relation>  (78) 
nan

>  <Standard Units>  (78) 
nan

>  <Standard Value>  (78) 
nan

>  <Assay ChEMBL ID>  (78) 
nan

>  <Assay Description>  (78) 
nan

>  <BAO Label>  (78) 
nan

$$$$

     RDKit          2D

 23 26  0  0  0  0  0  0  0  0999 V2000
   -1.8373   -5.6601    0.0000 O   0  0  0  0  0  0  0  0  0  0  0  0
   -2.9520   -4.6564    0.0000 C   0  0  0  0  0  0  0  0  0  0  0  0
   -2.6401   -3.1891    0.0000 N   0  0  0  0  0  0  0  0  0  0  0  0
   -1.2135   -2.7256    0.0000 C   0  0  0  0  0  0  0  0  0  0  0  0
   -0.0000   -3.6073    0.0000 N   0  0  0  0  0  0  0  0  0  0  0  0
    1.2135   -2.7256    0.0000 N   0  0  0  0  0  0  0  0  0  0  0  0
    0.7500   -1.2990    0.0000 C   0  0  0  0  0  0  0  0  0  0  0  0
    1.5000    0.0000    0.0000 N   0  0  0  0  0  0  0  0  0  0  0  0
    0.7500    1.2990    0.0000 C   0  0  0  0  0  0  0  0  0  0  0  0
    1.5000    2.5981    0.0000 C   0  0  0  0  0  0  0  0  0  0  0  0
    3.0000    2.5981    0.0000 C   0  0  0  0  0  0  0  0  0  0  0  0
    3.7500    3.8971    0.0000 C   0  0  0  0  0  0  0  0  0  0  0  0
    3.0000    5.1962    0.0000 C   0  0  0  0  0  0  0  0  0  0  0  0
    3.7500    6.4952    0.0000 O   0  0  0  0  0  0  0  0  0  0  0  0
    1.5000    5.1962    0.0000 C   0  0  0  0  0  0  0  0  0  0  0  0
    0.7500    6.4952    0.0000 Br  0  0  0  0  0  0  0  0  0  0  0  0
    0.7500    3.8971    0.0000 C   0  0  0  0  0  0  0  0  0  0  0  0
   -0.7500    1.2990    0.0000 C   0  0  0  0  0  0  0  0  0  0  0  0
   -1.5000    0.0000    0.0000 C   0  0  0  0  0  0  0  0  0  0  0  0
   -0.7500   -1.2990    0.0000 C   0  0  0  0  0  0  0  0  0  0  0  0
   -4.3786   -5.1199    0.0000 C   0  0  0  0  0  0  0  0  0  0  0  0
   -5.3823   -6.2346    0.0000 C   0  0  0  0  0  0  0  0  0  0  0  0
   -5.8458   -4.8080    0.0000 C   0  0  0  0  0  0  0  0  0  0  0  0
  1  2  2  0
  2  3  1  0
  3  4  1  0
  4  5  2  0
  5  6  1  0
  6  7  1  0
  7  8  2  0
  8  9  1  0
  9 10  1  0
 10 11  2  0
 11 12  1  0
 12 13  2  0
 13 14  1  0
 13 15  1  0
 15 16  1  0
 15 17  2  0
  9 18  2  0
 18 19  1  0
 19 20  2  0
  2 21  1  0
 21 22  1  0
 22 23  1  0
 20  4  1  0
 23 21  1  0
 20  7  1  0
 17 10  1  0
M  END
>  <Compound_ID>  (79) 
CHEMBL260416

>  <Active>  (79) 
1.0

>  <Smiles>  (79) 
O=C(Nc1n[nH]c2nc(-c3ccc(O)c(Br)c3)ccc12)C1CC1

>  <canonical_smi>  (79) 
O=C(Nc1n[nH]c2nc(-c3ccc(O)c(Br)c3)ccc12)C1CC1

>  <Set>  (79) 
G2 active

>  <Set_type>  (79) 
Train

>  <MW>  (79) 
373.21

>  <HBD>  (79) 
3

>  <HBA>  (79) 
4

>  <NRB>  (79) 
3

>  <NR>  (79) 
4

>  <NAR>  (79) 
3

>  <PSA>  (79) 
90.9

>  <Standard Type>  (79) 
nan

>  <Standard Relation>  (79) 
nan

>  <Standard Units>  (79) 
nan

>  <Standard Value>  (79) 
nan

>  <Assay ChEMBL ID>  (79) 
nan

>  <Assay Description>  (79) 
nan

>  <BAO Label>  (79) 
nan

$$$$

     RDKit          2D

 28 31  0  0  0  0  0  0  0  0999 V2000
   -3.7548   -2.1855    0.0000 C   0  0  0  0  0  0  0  0  0  0  0  0
   -2.6401   -3.1891    0.0000 C   0  0  0  0  0  0  0  0  0  0  0  0
   -2.9520   -4.6564    0.0000 N   0  0  0  0  0  0  0  0  0  0  0  0
   -4.3786   -5.1199    0.0000 C   0  0  0  0  0  0  0  0  0  0  0  0
   -5.4933   -4.1162    0.0000 C   0  0  0  0  0  0  0  0  0  0  0  0
   -6.9199   -4.5797    0.0000 C   0  0  0  0  0  0  0  0  0  0  0  0
   -7.2317   -6.0469    0.0000 C   0  0  0  0  0  0  0  0  0  0  0  0
   -8.6583   -6.5105    0.0000 S   0  0  0  0  0  0  0  0  0  0  0  0
  -10.0849   -6.9740    0.0000 N   0  0  0  0  0  0  0  0  0  0  0  0
   -9.1218   -5.0839    0.0000 O   0  0  0  0  0  0  0  0  0  0  0  0
   -8.1948   -7.9371    0.0000 O   0  0  0  0  0  0  0  0  0  0  0  0
   -6.1170   -7.0506    0.0000 C   0  0  0  0  0  0  0  0  0  0  0  0
   -4.6904   -6.5871    0.0000 C   0  0  0  0  0  0  0  0  0  0  0  0
   -1.2135   -2.7256    0.0000 C   0  0  0  0  0  0  0  0  0  0  0  0
   -0.0000   -3.6073    0.0000 C   0  0  0  0  0  0  0  0  0  0  0  0
    0.0000   -5.1073    0.0000 O   0  0  0  0  0  0  0  0  0  0  0  0
    1.2135   -2.7256    0.0000 N   0  0  0  0  0  0  0  0  0  0  0  0
    0.7500   -1.2990    0.0000 C   0  0  0  0  0  0  0  0  0  0  0  0
    1.5000    0.0000    0.0000 C   0  0  0  0  0  0  0  0  0  0  0  0
    0.7500    1.2990    0.0000 C   0  0  0  0  0  0  0  0  0  0  0  0
   -0.7500    1.2990    0.0000 C   0  0  0  0  0  0  0  0  0  0  0  0
   -1.5000    2.5981    0.0000 C   0  0  0  0  0  0  0  0  0  0  0  0
   -2.9918    2.7549    0.0000 C   0  0  0  0  0  0  0  0  0  0  0  0
   -3.3037    4.2221    0.0000 N   0  0  0  0  0  0  0  0  0  0  0  0
   -2.0046    4.9721    0.0000 C   0  0  0  0  0  0  0  0  0  0  0  0
   -0.8899    3.9684    0.0000 O   0  0  0  0  0  0  0  0  0  0  0  0
   -1.5000    0.0000    0.0000 C   0  0  0  0  0  0  0  0  0  0  0  0
   -0.7500   -1.2990    0.0000 C   0  0  0  0  0  0  0  0  0  0  0  0
  1  2  1  0
  2  3  1  0
  3  4  1  0
  4  5  2  0
  5  6  1  0
  6  7  2  0
  7  8  1  0
  8  9  1  0
  8 10  2  0
  8 11  2  0
  7 12  1  0
 12 13  2  0
  2 14  2  0
 14 15  1  0
 15 16  2  0
 15 17  1  0
 17 18  1  0
 18 19  2  0
 19 20  1  0
 20 21  2  0
 21 22  1  0
 22 23  2  0
 23 24  1  0
 24 25  2  0
 25 26  1  0
 21 27  1  0
 27 28  2  0
 13  4  1  0
 28 14  1  0
 28 18  1  0
 26 22  1  0
M  END
>  <Compound_ID>  (80) 
CHEMBL411887

>  <Active>  (80) 
1.0

>  <Smiles>  (80) 
C/C(Nc1ccc(S(N)(=O)=O)cc1)=C1/C(=O)Nc2ccc(-c3cnco3)cc21

>  <canonical_smi>  (80) 
C/C(Nc1ccc(S(N)(=O)=O)cc1)=C1/C(=O)Nc2ccc(-c3cnco3)cc21

>  <Set>  (80) 
G2 active

>  <Set_type>  (80) 
Train

>  <MW>  (80) 
396.43

>  <HBD>  (80) 
3

>  <HBA>  (80) 
6

>  <NRB>  (80) 
4

>  <NR>  (80) 
4

>  <NAR>  (80) 
3

>  <PSA>  (80) 
127.32

>  <Standard Type>  (80) 
nan

>  <Standard Relation>  (80) 
nan

>  <Standard Units>  (80) 
nan

>  <Standard Value>  (80) 
nan

>  <Assay ChEMBL ID>  (80) 
nan

>  <Assay Description>  (80) 
nan

>  <BAO Label>  (80) 
nan

$$$$

     RDKit          2D

 28 31  0  0  0  0  0  0  0  0999 V2000
    5.2500   -1.2990    0.0000 C   0  0  0  0  0  0  0  0  0  0  0  0
    3.7500   -1.2990    0.0000 N   0  0  0  0  0  0  0  0  0  0  0  0
    3.0000    0.0000    0.0000 C   0  0  0  0  0  0  0  0  0  0  0  0
    3.7500    1.2990    0.0000 O   0  0  0  0  0  0  0  0  0  0  0  0
    1.5000    0.0000    0.0000 C   0  0  0  0  0  0  0  0  0  0  0  0
    0.7500   -1.2990    0.0000 C   0  0  0  0  0  0  0  0  0  0  0  0
   -0.7500   -1.2990    0.0000 C   0  0  0  0  0  0  0  0  0  0  0  0
   -1.5000    0.0000    0.0000 C   0  0  0  0  0  0  0  0  0  0  0  0
   -3.0000    0.0000    0.0000 N   0  0  0  0  0  0  0  0  0  0  0  0
   -3.7500    1.2990    0.0000 C   0  0  0  0  0  0  0  0  0  0  0  0
   -3.0000    2.5981    0.0000 N   0  0  0  0  0  0  0  0  0  0  0  0
   -3.7500    3.8971    0.0000 C   0  0  0  0  0  0  0  0  0  0  0  0
   -5.2500    3.8971    0.0000 C   0  0  0  0  0  0  0  0  0  0  0  0
   -6.0000    2.5981    0.0000 C   0  0  0  0  0  0  0  0  0  0  0  0
   -7.5000    2.5981    0.0000 C   0  0  0  0  0  0  0  0  0  0  0  0
   -8.3817    1.3846    0.0000 C   0  0  0  0  0  0  0  0  0  0  0  0
   -9.8083    1.8481    0.0000 N   0  0  0  0  0  0  0  0  0  0  0  0
   -9.8083    3.3481    0.0000 C   0  0  0  0  0  0  0  0  0  0  0  0
  -11.0218    4.2298    0.0000 C   0  0  0  0  0  0  0  0  0  0  0  0
   -8.3817    3.8116    0.0000 N   0  0  0  0  0  0  0  0  0  0  0  0
   -7.9182    5.2382    0.0000 C   0  0  0  0  0  0  0  0  0  0  0  0
   -8.7998    6.4517    0.0000 C   0  0  0  0  0  0  0  0  0  0  0  0
   -7.9182    7.6652    0.0000 C   0  0  0  0  0  0  0  0  0  0  0  0
   -6.4916    7.2017    0.0000 C   0  0  0  0  0  0  0  0  0  0  0  0
   -6.4916    5.7017    0.0000 C   0  0  0  0  0  0  0  0  0  0  0  0
   -5.2500    1.2990    0.0000 N   0  0  0  0  0  0  0  0  0  0  0  0
   -0.7500    1.2990    0.0000 C   0  0  0  0  0  0  0  0  0  0  0  0
    0.7500    1.2990    0.0000 C   0  0  0  0  0  0  0  0  0  0  0  0
  1  2  1  0
  2  3  1  0
  3  4  2  0
  3  5  1  0
  5  6  2  0
  6  7  1  0
  7  8  2  0
  8  9  1  0
  9 10  1  0
 10 11  2  0
 11 12  1  0
 12 13  2  0
 13 14  1  0
 14 15  1  0
 15 16  2  0
 16 17  1  0
 17 18  2  0
 18 19  1  0
 18 20  1  0
 20 21  1  0
 21 22  1  0
 22 23  1  0
 23 24  1  0
 24 25  1  0
 14 26  2  0
  8 27  1  0
 27 28  2  0
 28  5  1  0
 26 10  1  0
 20 15  1  0
 25 21  1  0
M  END
>  <Compound_ID>  (81) 
CHEMBL488257

>  <Active>  (81) 
1.0

>  <Smiles>  (81) 
CNC(=O)c1ccc(Nc2nccc(-c3cnc(C)n3C3CCCC3)n2)cc1

>  <canonical_smi>  (81) 
CNC(=O)c1ccc(Nc2nccc(-c3cnc(C)n3C3CCCC3)n2)cc1

>  <Set>  (81) 
G2 active

>  <Set_type>  (81) 
Train

>  <MW>  (81) 
376.46

>  <HBD>  (81) 
2

>  <HBA>  (81) 
5

>  <NRB>  (81) 
5

>  <NR>  (81) 
4

>  <NAR>  (81) 
3

>  <PSA>  (81) 
84.73

>  <Standard Type>  (81) 
nan

>  <Standard Relation>  (81) 
nan

>  <Standard Units>  (81) 
nan

>  <Standard Value>  (81) 
nan

>  <Assay ChEMBL ID>  (81) 
nan

>  <Assay Description>  (81) 
nan

>  <BAO Label>  (81) 
nan

$$$$

     RDKit          2D

 33 36  0  0  0  0  0  0  0  0999 V2000
    4.6740   -4.8322    0.0000 C   0  0  0  0  0  0  0  0  0  0  0  0
    3.3037   -4.2221    0.0000 C   0  0  0  0  0  0  0  0  0  0  0  0
    2.0046   -4.9721    0.0000 N   0  0  0  0  0  0  0  0  0  0  0  0
    0.8899   -3.9684    0.0000 C   0  0  0  0  0  0  0  0  0  0  0  0
    1.5000   -2.5981    0.0000 C   0  0  0  0  0  0  0  0  0  0  0  0
    0.7500   -1.2990    0.0000 C   0  0  0  0  0  0  0  0  0  0  0  0
    1.5000    0.0000    0.0000 N   0  0  0  0  0  0  0  0  0  0  0  0
    0.7500    1.2990    0.0000 C   0  0  0  0  0  0  0  0  0  0  0  0
    1.5000    2.5981    0.0000 N   0  0  0  0  0  0  0  0  0  0  0  0
    3.0000    2.5981    0.0000 C   0  0  0  0  0  0  0  0  0  0  0  0
    3.7500    1.2990    0.0000 C   0  0  0  0  0  0  0  0  0  0  0  0
    5.2500    1.2990    0.0000 C   0  0  0  0  0  0  0  0  0  0  0  0
    6.0000    2.5981    0.0000 C   0  0  0  0  0  0  0  0  0  0  0  0
    7.5000    2.5981    0.0000 C   0  0  0  0  0  0  0  0  0  0  0  0
    8.2500    3.8971    0.0000 O   0  0  0  0  0  0  0  0  0  0  0  0
    8.2500    1.2990    0.0000 N   0  0  0  0  0  0  0  0  0  0  0  0
    9.7418    1.1422    0.0000 C   0  0  0  0  0  0  0  0  0  0  0  0
   10.0537   -0.3250    0.0000 C   0  0  0  0  0  0  0  0  0  0  0  0
    8.7546   -1.0750    0.0000 C   0  0  0  0  0  0  0  0  0  0  0  0
    8.5978   -2.5668    0.0000 N   0  0  0  0  0  0  0  0  0  0  0  0
    7.2275   -3.1769    0.0000 C   0  0  0  0  0  0  0  0  0  0  0  0
    9.8113   -3.4484    0.0000 C   0  0  0  0  0  0  0  0  0  0  0  0
    7.6399   -0.0713    0.0000 C   0  0  0  0  0  0  0  0  0  0  0  0
    5.2500    3.8971    0.0000 C   0  0  0  0  0  0  0  0  0  0  0  0
    3.7500    3.8971    0.0000 C   0  0  0  0  0  0  0  0  0  0  0  0
   -0.7500    1.2990    0.0000 N   0  0  0  0  0  0  0  0  0  0  0  0
   -1.5000    0.0000    0.0000 C   0  0  0  0  0  0  0  0  0  0  0  0
   -0.7500   -1.2990    0.0000 C   0  0  0  0  0  0  0  0  0  0  0  0
   -1.5000   -2.5981    0.0000 F   0  0  0  0  0  0  0  0  0  0  0  0
    2.9918   -2.7549    0.0000 N   0  0  0  0  0  0  0  0  0  0  0  0
    3.9955   -1.6402    0.0000 C   0  0  0  0  0  0  0  0  0  0  0  0
    5.4627   -1.9520    0.0000 C   0  0  0  0  0  0  0  0  0  0  0  0
    3.5320   -0.2136    0.0000 C   0  0  0  0  0  0  0  0  0  0  0  0
  1  2  1  0
  2  3  2  0
  3  4  1  0
  4  5  2  0
  5  6  1  0
  6  7  2  0
  7  8  1  0
  8  9  1  0
  9 10  1  0
 10 11  2  0
 11 12  1  0
 12 13  2  0
 13 14  1  0
 14 15  2  0
 14 16  1  0
 16 17  1  0
 17 18  1  0
 18 19  1  0
 19 20  1  6
 20 21  1  0
 20 22  1  0
 19 23  1  0
 13 24  1  0
 24 25  2  0
  8 26  2  0
 26 27  1  0
 27 28  2  0
 28 29  1  0
  5 30  1  0
 30 31  1  0
 31 32  1  0
 31 33  1  0
 30  2  1  0
 28  6  1  0
 25 10  1  0
 23 16  1  0
M  END
>  <Compound_ID>  (82) 
CHEMBL460102

>  <Active>  (82) 
1.0

>  <Smiles>  (82) 
Cc1ncc(-c2nc(Nc3ccc(C(=O)N4CC[C@H](N(C)C)C4)cc3)ncc2F)n1C(C)C

>  <canonical_smi>  (82) 
Cc1ncc(-c2nc(Nc3ccc(C(=O)N4CC[C@H](N(C)C)C4)cc3)ncc2F)n1C(C)C

>  <Set>  (82) 
G2 active

>  <Set_type>  (82) 
Train

>  <MW>  (82) 
451.55

>  <HBD>  (82) 
1

>  <HBA>  (82) 
6

>  <NRB>  (82) 
6

>  <NR>  (82) 
4

>  <NAR>  (82) 
3

>  <PSA>  (82) 
79.18

>  <Standard Type>  (82) 
nan

>  <Standard Relation>  (82) 
nan

>  <Standard Units>  (82) 
nan

>  <Standard Value>  (82) 
nan

>  <Assay ChEMBL ID>  (82) 
nan

>  <Assay Description>  (82) 
nan

>  <BAO Label>  (82) 
nan

$$$$

     RDKit          2D

 33 36  0  0  0  0  0  0  0  0999 V2000
   15.7341   -0.5212    0.0000 C   0  0  0  0  0  0  0  0  0  0  0  0
   14.4027   -1.2122    0.0000 C   0  0  0  0  0  0  0  0  0  0  0  0
   14.1792   -2.6955    0.0000 N   0  0  0  0  0  0  0  0  0  0  0  0
   12.6994   -2.9412    0.0000 C   0  0  0  0  0  0  0  0  0  0  0  0
   12.0085   -1.6098    0.0000 C   0  0  0  0  0  0  0  0  0  0  0  0
   10.5252   -1.3862    0.0000 C   0  0  0  0  0  0  0  0  0  0  0  0
    9.9772    0.0101    0.0000 N   0  0  0  0  0  0  0  0  0  0  0  0
    8.4940    0.2336    0.0000 C   0  0  0  0  0  0  0  0  0  0  0  0
    7.9460    1.6299    0.0000 N   0  0  0  0  0  0  0  0  0  0  0  0
    6.4627    1.8535    0.0000 C   0  0  0  0  0  0  0  0  0  0  0  0
    5.9147    3.2498    0.0000 C   0  0  0  0  0  0  0  0  0  0  0  0
    4.4315    3.4734    0.0000 C   0  0  0  0  0  0  0  0  0  0  0  0
    3.4962    2.3006    0.0000 C   0  0  0  0  0  0  0  0  0  0  0  0
    2.0130    2.5242    0.0000 C   0  0  0  0  0  0  0  0  0  0  0  0
    1.4650    3.9205    0.0000 O   0  0  0  0  0  0  0  0  0  0  0  0
    1.0777    1.3515    0.0000 N   0  0  0  0  0  0  0  0  0  0  0  0
    1.7286    0.0000    0.0000 C   0  0  0  0  0  0  0  0  0  0  0  0
    1.0777   -1.3515    0.0000 C   0  0  0  0  0  0  0  0  0  0  0  0
   -0.3846   -1.6852    0.0000 C   0  0  0  0  0  0  0  0  0  0  0  0
   -1.5574   -0.7500    0.0000 N   0  0  0  0  0  0  0  0  0  0  0  0
   -2.9088   -1.4008    0.0000 C   0  0  0  0  0  0  0  0  0  0  0  0
   -1.5574    0.7500    0.0000 C   0  0  0  0  0  0  0  0  0  0  0  0
   -0.3846    1.6852    0.0000 C   0  0  0  0  0  0  0  0  0  0  0  0
    4.0442    0.9043    0.0000 C   0  0  0  0  0  0  0  0  0  0  0  0
    5.5275    0.6808    0.0000 C   0  0  0  0  0  0  0  0  0  0  0  0
    7.5587   -0.9391    0.0000 N   0  0  0  0  0  0  0  0  0  0  0  0
    8.1068   -2.3354    0.0000 C   0  0  0  0  0  0  0  0  0  0  0  0
    9.5900   -2.5590    0.0000 C   0  0  0  0  0  0  0  0  0  0  0  0
   10.1380   -3.9553    0.0000 F   0  0  0  0  0  0  0  0  0  0  0  0
   13.0612   -0.5412    0.0000 N   0  0  0  0  0  0  0  0  0  0  0  0
   12.8155    0.9385    0.0000 C   0  0  0  0  0  0  0  0  0  0  0  0
   11.4111    1.4656    0.0000 C   0  0  0  0  0  0  0  0  0  0  0  0
   13.9741    1.8912    0.0000 C   0  0  0  0  0  0  0  0  0  0  0  0
  1  2  1  0
  2  3  2  0
  3  4  1  0
  4  5  2  0
  5  6  1  0
  6  7  2  0
  7  8  1  0
  8  9  1  0
  9 10  1  0
 10 11  2  0
 11 12  1  0
 12 13  2  0
 13 14  1  0
 14 15  2  0
 14 16  1  0
 16 17  1  0
 17 18  1  0
 18 19  1  0
 19 20  1  0
 20 21  1  0
 20 22  1  0
 22 23  1  0
 13 24  1  0
 24 25  2  0
  8 26  2  0
 26 27  1  0
 27 28  2  0
 28 29  1  0
  5 30  1  0
 30 31  1  0
 31 32  1  0
 31 33  1  0
 30  2  1  0
 28  6  1  0
 25 10  1  0
 23 16  1  0
M  END
>  <Compound_ID>  (83) 
CHEMBL462192

>  <Active>  (83) 
1.0

>  <Smiles>  (83) 
Cc1ncc(-c2nc(Nc3ccc(C(=O)N4CCCN(C)CC4)cc3)ncc2F)n1C(C)C

>  <canonical_smi>  (83) 
Cc1ncc(-c2nc(Nc3ccc(C(=O)N4CCCN(C)CC4)cc3)ncc2F)n1C(C)C

>  <Set>  (83) 
G2 active

>  <Set_type>  (83) 
Train

>  <MW>  (83) 
451.55

>  <HBD>  (83) 
1

>  <HBA>  (83) 
6

>  <NRB>  (83) 
5

>  <NR>  (83) 
4

>  <NAR>  (83) 
3

>  <PSA>  (83) 
79.18

>  <Standard Type>  (83) 
nan

>  <Standard Relation>  (83) 
nan

>  <Standard Units>  (83) 
nan

>  <Standard Value>  (83) 
nan

>  <Assay ChEMBL ID>  (83) 
nan

>  <Assay Description>  (83) 
nan

>  <BAO Label>  (83) 
nan

$$$$

     RDKit          2D

 31 35  0  0  0  0  0  0  0  0999 V2000
   -3.7500  -11.6913    0.0000 C   0  0  0  0  0  0  0  0  0  0  0  0
   -3.0000  -10.3923    0.0000 N   0  0  0  0  0  0  0  0  0  0  0  0
   -3.7500   -9.0933    0.0000 C   0  0  0  0  0  0  0  0  0  0  0  0
   -3.0000   -7.7942    0.0000 C   0  0  0  0  0  0  0  0  0  0  0  0
   -1.5000   -7.7942    0.0000 N   0  0  0  0  0  0  0  0  0  0  0  0
   -0.7500   -6.4952    0.0000 C   0  0  0  0  0  0  0  0  0  0  0  0
    0.7500   -6.4952    0.0000 C   0  0  0  0  0  0  0  0  0  0  0  0
    1.5000   -5.1962    0.0000 C   0  0  0  0  0  0  0  0  0  0  0  0
    0.7500   -3.8971    0.0000 C   0  0  0  0  0  0  0  0  0  0  0  0
    1.5000   -2.5981    0.0000 N   0  0  0  0  0  0  0  0  0  0  0  0
    0.7500   -1.2990    0.0000 C   0  0  0  0  0  0  0  0  0  0  0  0
    1.5000    0.0000    0.0000 N   0  0  0  0  0  0  0  0  0  0  0  0
    0.7500    1.2990    0.0000 C   0  0  0  0  0  0  0  0  0  0  0  0
   -0.7500    1.2990    0.0000 C   0  0  0  0  0  0  0  0  0  0  0  0
   -1.5000    0.0000    0.0000 C   0  0  0  0  0  0  0  0  0  0  0  0
   -0.7500   -1.2990    0.0000 N   0  0  0  0  0  0  0  0  0  0  0  0
   -3.0000    0.0000    0.0000 C   0  0  0  0  0  0  0  0  0  0  0  0
   -3.7500    1.2990    0.0000 C   0  0  0  0  0  0  0  0  0  0  0  0
   -5.2172    0.9872    0.0000 C   0  0  0  0  0  0  0  0  0  0  0  0
   -6.3319    1.9909    0.0000 C   0  0  0  0  0  0  0  0  0  0  0  0
   -7.7585    1.5273    0.0000 N   0  0  0  0  0  0  0  0  0  0  0  0
   -6.0201    3.4581    0.0000 O   0  0  0  0  0  0  0  0  0  0  0  0
   -5.3740   -0.5046    0.0000 N   0  0  0  0  0  0  0  0  0  0  0  0
   -4.0037   -1.1147    0.0000 N   0  0  0  0  0  0  0  0  0  0  0  0
   -3.6918   -2.5819    0.0000 C   0  0  0  0  0  0  0  0  0  0  0  0
   -3.0000    2.5981    0.0000 C   0  0  0  0  0  0  0  0  0  0  0  0
   -1.5000    2.5981    0.0000 C   0  0  0  0  0  0  0  0  0  0  0  0
   -0.7500   -3.8971    0.0000 C   0  0  0  0  0  0  0  0  0  0  0  0
   -1.5000   -5.1962    0.0000 C   0  0  0  0  0  0  0  0  0  0  0  0
   -0.7500   -9.0933    0.0000 C   0  0  0  0  0  0  0  0  0  0  0  0
   -1.5000  -10.3923    0.0000 C   0  0  0  0  0  0  0  0  0  0  0  0
  1  2  1  0
  2  3  1  0
  3  4  1  0
  4  5  1  0
  5  6  1  0
  6  7  2  0
  7  8  1  0
  8  9  2  0
  9 10  1  0
 10 11  1  0
 11 12  2  0
 12 13  1  0
 13 14  2  0
 14 15  1  0
 15 16  2  0
 15 17  1  0
 17 18  2  0
 18 19  1  0
 19 20  1  0
 20 21  1  0
 20 22  2  0
 19 23  2  0
 23 24  1  0
 24 25  1  0
 18 26  1  0
 26 27  1  0
  9 28  1  0
 28 29  2  0
  5 30  1  0
 30 31  1  0
 31  2  1  0
 29  6  1  0
 16 11  1  0
 24 17  1  0
 27 14  1  0
M  END
>  <Compound_ID>  (84) 
CHEMBL560817

>  <Active>  (84) 
1.0

>  <Smiles>  (84) 
CN1CCN(c2ccc(Nc3ncc4c(n3)-c3c(c(C(N)=O)nn3C)CC4)cc2)CC1

>  <canonical_smi>  (84) 
CN1CCN(c2ccc(Nc3ncc4c(n3)-c3c(c(C(N)=O)nn3C)CC4)cc2)CC1

>  <Set>  (84) 
G2 active

>  <Set_type>  (84) 
Train

>  <MW>  (84) 
418.51

>  <HBD>  (84) 
2

>  <HBA>  (84) 
7

>  <NRB>  (84) 
4

>  <NR>  (84) 
5

>  <NAR>  (84) 
3

>  <PSA>  (84) 
105.2

>  <Standard Type>  (84) 
nan

>  <Standard Relation>  (84) 
nan

>  <Standard Units>  (84) 
nan

>  <Standard Value>  (84) 
nan

>  <Assay ChEMBL ID>  (84) 
nan

>  <Assay Description>  (84) 
nan

>  <BAO Label>  (84) 
nan

$$$$

     RDKit          2D

 32 35  0  0  0  0  0  0  0  0999 V2000
  -10.5738    5.8451    0.0000 C   0  0  0  0  0  0  0  0  0  0  0  0
   -9.1472    6.3086    0.0000 N   0  0  0  0  0  0  0  0  0  0  0  0
   -8.8353    7.7759    0.0000 C   0  0  0  0  0  0  0  0  0  0  0  0
   -8.0325    5.3050    0.0000 S   0  0  0  0  0  0  0  0  0  0  0  0
   -7.0288    6.4197    0.0000 O   0  0  0  0  0  0  0  0  0  0  0  0
   -9.0362    4.1902    0.0000 O   0  0  0  0  0  0  0  0  0  0  0  0
   -6.9177    4.3013    0.0000 C   0  0  0  0  0  0  0  0  0  0  0  0
   -5.4912    4.7648    0.0000 C   0  0  0  0  0  0  0  0  0  0  0  0
   -4.3764    3.7611    0.0000 C   0  0  0  0  0  0  0  0  0  0  0  0
   -4.6883    2.2939    0.0000 C   0  0  0  0  0  0  0  0  0  0  0  0
   -3.5736    1.2902    0.0000 N   0  0  0  0  0  0  0  0  0  0  0  0
   -2.1470    1.7537    0.0000 C   0  0  0  0  0  0  0  0  0  0  0  0
   -1.8351    3.2209    0.0000 C   0  0  0  0  0  0  0  0  0  0  0  0
   -0.4086    3.6844    0.0000 C   0  0  0  0  0  0  0  0  0  0  0  0
   -0.0967    5.1517    0.0000 N   0  0  0  0  0  0  0  0  0  0  0  0
    1.3299    5.6152    0.0000 C   0  0  0  0  0  0  0  0  0  0  0  0
    2.4446    4.6115    0.0000 C   0  0  0  0  0  0  0  0  0  0  0  0
    3.8712    5.0750    0.0000 C   0  0  0  0  0  0  0  0  0  0  0  0
    4.1831    6.5422    0.0000 C   0  0  0  0  0  0  0  0  0  0  0  0
    5.6097    7.0058    0.0000 N   0  0  0  0  0  0  0  0  0  0  0  0
    3.0684    7.5459    0.0000 C   0  0  0  0  0  0  0  0  0  0  0  0
    1.6418    7.0824    0.0000 C   0  0  0  0  0  0  0  0  0  0  0  0
    0.7062    2.6807    0.0000 N   0  0  0  0  0  0  0  0  0  0  0  0
    0.3943    1.2135    0.0000 C   0  0  0  0  0  0  0  0  0  0  0  0
    1.2760    0.0000    0.0000 C   0  0  0  0  0  0  0  0  0  0  0  0
    2.7760    0.0000    0.0000 Br  0  0  0  0  0  0  0  0  0  0  0  0
    0.3943   -1.2135    0.0000 C   0  0  0  0  0  0  0  0  0  0  0  0
   -1.0323   -0.7500    0.0000 N   0  0  0  0  0  0  0  0  0  0  0  0
   -1.0323    0.7500    0.0000 N   0  0  0  0  0  0  0  0  0  0  0  0
   -6.1149    1.8303    0.0000 C   0  0  0  0  0  0  0  0  0  0  0  0
   -7.2296    2.8340    0.0000 C   0  0  0  0  0  0  0  0  0  0  0  0
   -8.6562    2.3705    0.0000 Cl  0  0  0  0  0  0  0  0  0  0  0  0
  1  2  1  0
  2  3  1  0
  2  4  1  0
  4  5  2  0
  4  6  2  0
  4  7  1  0
  7  8  2  0
  8  9  1  0
  9 10  2  0
 10 11  1  0
 11 12  1  0
 12 13  2  0
 13 14  1  0
 14 15  1  0
 15 16  1  0
 16 17  1  0
 17 18  1  0
 18 19  1  0
 19 20  1  0
 19 21  1  0
 21 22  1  0
 14 23  2  0
 23 24  1  0
 24 25  2  0
 25 26  1  0
 25 27  1  0
 27 28  2  0
 28 29  1  0
 10 30  1  0
 30 31  2  0
 31 32  1  0
 31  7  1  0
 29 12  1  0
 22 16  1  0
 29 24  1  0
M  END
>  <Compound_ID>  (85) 
CHEMBL178769

>  <Active>  (85) 
1.0

>  <Smiles>  (85) 
CN(C)S(=O)(=O)c1ccc(Nc2cc(NC3CCC(N)CC3)nc3c(Br)cnn23)cc1Cl

>  <canonical_smi>  (85) 
CN(C)S(=O)(=O)c1ccc(Nc2cc(NC3CCC(N)CC3)nc3c(Br)cnn23)cc1Cl

>  <Set>  (85) 
G2 active

>  <Set_type>  (85) 
Train

>  <MW>  (85) 
542.89

>  <HBD>  (85) 
3

>  <HBA>  (85) 
7

>  <NRB>  (85) 
6

>  <NR>  (85) 
4

>  <NAR>  (85) 
3

>  <PSA>  (85) 
117.65

>  <Standard Type>  (85) 
nan

>  <Standard Relation>  (85) 
nan

>  <Standard Units>  (85) 
nan

>  <Standard Value>  (85) 
nan

>  <Assay ChEMBL ID>  (85) 
nan

>  <Assay Description>  (85) 
nan

>  <BAO Label>  (85) 
nan

$$$$

     RDKit          2D

 31 33  0  0  0  0  0  0  0  0999 V2000
    3.7500   -1.2990    0.0000 C   0  0  0  0  0  0  0  0  0  0  0  0
    3.0000    0.0000    0.0000 O   0  0  0  0  0  0  0  0  0  0  0  0
    1.5000    0.0000    0.0000 C   0  0  0  0  0  0  0  0  0  0  0  0
    0.7500   -1.2990    0.0000 C   0  0  0  0  0  0  0  0  0  0  0  0
   -0.7500   -1.2990    0.0000 C   0  0  0  0  0  0  0  0  0  0  0  0
   -1.5000   -2.5981    0.0000 F   0  0  0  0  0  0  0  0  0  0  0  0
   -1.5000    0.0000    0.0000 C   0  0  0  0  0  0  0  0  0  0  0  0
   -3.0000    0.0000    0.0000 F   0  0  0  0  0  0  0  0  0  0  0  0
   -0.7500    1.2990    0.0000 C   0  0  0  0  0  0  0  0  0  0  0  0
   -1.5000    2.5981    0.0000 F   0  0  0  0  0  0  0  0  0  0  0  0
    0.7500    1.2990    0.0000 C   0  0  0  0  0  0  0  0  0  0  0  0
    1.5000    2.5981    0.0000 C   0  0  0  0  0  0  0  0  0  0  0  0
    0.7500    3.8971    0.0000 O   0  0  0  0  0  0  0  0  0  0  0  0
    3.0000    2.5981    0.0000 C   0  0  0  0  0  0  0  0  0  0  0  0
    3.7500    1.2990    0.0000 C   0  0  0  0  0  0  0  0  0  0  0  0
    5.2500    1.2990    0.0000 N   0  0  0  0  0  0  0  0  0  0  0  0
    6.0000    2.5981    0.0000 C   0  0  0  0  0  0  0  0  0  0  0  0
    7.5000    2.5981    0.0000 N   0  0  0  0  0  0  0  0  0  0  0  0
    8.2500    1.2990    0.0000 C   0  0  0  0  0  0  0  0  0  0  0  0
    7.5000   -0.0000    0.0000 C   0  0  0  0  0  0  0  0  0  0  0  0
    8.2500   -1.2990    0.0000 C   0  0  0  0  0  0  0  0  0  0  0  0
    9.7500   -1.2990    0.0000 N   0  0  0  0  0  0  0  0  0  0  0  0
   10.5000   -2.5981    0.0000 S   0  0  0  0  0  0  0  0  0  0  0  0
   11.2500   -3.8971    0.0000 C   0  0  0  0  0  0  0  0  0  0  0  0
   11.7990   -1.8481    0.0000 O   0  0  0  0  0  0  0  0  0  0  0  0
    9.2010   -3.3481    0.0000 O   0  0  0  0  0  0  0  0  0  0  0  0
   10.5000   -0.0000    0.0000 C   0  0  0  0  0  0  0  0  0  0  0  0
    9.7500    1.2990    0.0000 C   0  0  0  0  0  0  0  0  0  0  0  0
    5.2500    3.8971    0.0000 N   0  0  0  0  0  0  0  0  0  0  0  0
    3.7500    3.8971    0.0000 C   0  0  0  0  0  0  0  0  0  0  0  0
    3.0000    5.1962    0.0000 N   0  0  0  0  0  0  0  0  0  0  0  0
  1  2  1  0
  2  3  1  0
  3  4  2  0
  4  5  1  0
  5  6  1  0
  5  7  2  0
  7  8  1  0
  7  9  1  0
  9 10  1  0
  9 11  2  0
 11 12  1  0
 12 13  2  0
 12 14  1  0
 14 15  2  0
 15 16  1  0
 16 17  2  0
 17 18  1  0
 18 19  1  0
 19 20  1  0
 20 21  1  0
 21 22  1  0
 22 23  1  0
 23 24  1  0
 23 25  2  0
 23 26  2  0
 22 27  1  0
 27 28  1  0
 17 29  1  0
 29 30  2  0
 30 31  1  0
 11  3  1  0
 30 14  1  0
 28 19  1  0
M  END
>  <Compound_ID>  (86) 
CHEMBL213713

>  <Active>  (86) 
1.0

>  <Smiles>  (86) 
COc1cc(F)c(F)c(F)c1C(=O)c1cnc(NC2CCN(S(C)(=O)=O)CC2)nc1N

>  <canonical_smi>  (86) 
COc1cc(F)c(F)c(F)c1C(=O)c1cnc(NC2CCN(S(C)(=O)=O)CC2)nc1N

>  <Set>  (86) 
G2 active

>  <Set_type>  (86) 
Train

>  <MW>  (86) 
459.45

>  <HBD>  (86) 
2

>  <HBA>  (86) 
8

>  <NRB>  (86) 
6

>  <NR>  (86) 
3

>  <NAR>  (86) 
2

>  <PSA>  (86) 
127.51

>  <Standard Type>  (86) 
nan

>  <Standard Relation>  (86) 
nan

>  <Standard Units>  (86) 
nan

>  <Standard Value>  (86) 
nan

>  <Assay ChEMBL ID>  (86) 
nan

>  <Assay Description>  (86) 
nan

>  <BAO Label>  (86) 
nan

$$$$

     RDKit          2D

 26 29  0  0  0  0  0  0  0  0999 V2000
   -9.6388   -6.1973    0.0000 N   0  0  0  0  0  0  0  0  0  0  0  0
   -8.8888   -4.8983    0.0000 S   0  0  0  0  0  0  0  0  0  0  0  0
  -10.1878   -4.1483    0.0000 O   0  0  0  0  0  0  0  0  0  0  0  0
   -7.5897   -5.6483    0.0000 O   0  0  0  0  0  0  0  0  0  0  0  0
   -8.1388   -3.5992    0.0000 C   0  0  0  0  0  0  0  0  0  0  0  0
   -8.8888   -2.3002    0.0000 C   0  0  0  0  0  0  0  0  0  0  0  0
   -8.1388   -1.0012    0.0000 C   0  0  0  0  0  0  0  0  0  0  0  0
   -6.6388   -1.0012    0.0000 C   0  0  0  0  0  0  0  0  0  0  0  0
   -5.8888    0.2979    0.0000 N   0  0  0  0  0  0  0  0  0  0  0  0
   -4.3888    0.2979    0.0000 N   0  0  0  0  0  0  0  0  0  0  0  0
   -3.6388    1.5969    0.0000 C   0  0  0  0  0  0  0  0  0  0  0  0
   -4.2489    2.9672    0.0000 C   0  0  0  0  0  0  0  0  0  0  0  0
   -5.7161    3.2791    0.0000 O   0  0  0  0  0  0  0  0  0  0  0  0
   -3.1342    3.9709    0.0000 N   0  0  0  0  0  0  0  0  0  0  0  0
   -1.8351    3.2209    0.0000 C   0  0  0  0  0  0  0  0  0  0  0  0
   -0.4086    3.6844    0.0000 C   0  0  0  0  0  0  0  0  0  0  0  0
    0.7062    2.6807    0.0000 C   0  0  0  0  0  0  0  0  0  0  0  0
    0.3943    1.2135    0.0000 C   0  0  0  0  0  0  0  0  0  0  0  0
    1.2760    0.0000    0.0000 N   0  0  0  0  0  0  0  0  0  0  0  0
    0.3943   -1.2135    0.0000 N   0  0  0  0  0  0  0  0  0  0  0  0
   -1.0323   -0.7500    0.0000 C   0  0  0  0  0  0  0  0  0  0  0  0
   -2.2458   -1.6317    0.0000 Cl  0  0  0  0  0  0  0  0  0  0  0  0
   -1.0323    0.7500    0.0000 C   0  0  0  0  0  0  0  0  0  0  0  0
   -2.1470    1.7537    0.0000 C   0  0  0  0  0  0  0  0  0  0  0  0
   -5.8888   -2.3002    0.0000 C   0  0  0  0  0  0  0  0  0  0  0  0
   -6.6388   -3.5992    0.0000 C   0  0  0  0  0  0  0  0  0  0  0  0
  1  2  1  0
  2  3  2  0
  2  4  2  0
  2  5  1  0
  5  6  2  0
  6  7  1  0
  7  8  2  0
  8  9  1  0
  9 10  2  3
 10 11  1  0
 11 12  2  0
 12 13  1  0
 12 14  1  0
 14 15  1  0
 15 16  2  0
 16 17  1  0
 17 18  2  0
 18 19  1  0
 19 20  1  0
 20 21  2  0
 21 22  1  0
 21 23  1  0
 23 24  2  0
  8 25  1  0
 25 26  2  0
 26  5  1  0
 24 11  1  0
 24 15  1  0
 23 18  1  0
M  END
>  <Compound_ID>  (87) 
CHEMBL336906

>  <Active>  (87) 
1.0

>  <Smiles>  (87) 
NS(=O)(=O)c1ccc(N=Nc2c(O)[nH]c3ccc4[nH]nc(Cl)c4c23)cc1

>  <canonical_smi>  (87) 
NS(=O)(=O)c1ccc(N=Nc2c(O)[nH]c3ccc4[nH]nc(Cl)c4c23)cc1

>  <Set>  (87) 
G2 active

>  <Set_type>  (87) 
Train

>  <MW>  (87) 
390.81

>  <HBD>  (87) 
4

>  <HBA>  (87) 
4

>  <NRB>  (87) 
3

>  <NR>  (87) 
4

>  <NAR>  (87) 
4

>  <PSA>  (87) 
149.58

>  <Standard Type>  (87) 
nan

>  <Standard Relation>  (87) 
nan

>  <Standard Units>  (87) 
nan

>  <Standard Value>  (87) 
nan

>  <Assay ChEMBL ID>  (87) 
nan

>  <Assay Description>  (87) 
nan

>  <BAO Label>  (87) 
nan

$$$$

     RDKit          2D

 26 29  0  0  0  0  0  0  0  0999 V2000
   -9.6388   -6.1973    0.0000 N   0  0  0  0  0  0  0  0  0  0  0  0
   -8.8888   -4.8983    0.0000 S   0  0  0  0  0  0  0  0  0  0  0  0
  -10.1878   -4.1483    0.0000 O   0  0  0  0  0  0  0  0  0  0  0  0
   -7.5897   -5.6483    0.0000 O   0  0  0  0  0  0  0  0  0  0  0  0
   -8.1388   -3.5992    0.0000 C   0  0  0  0  0  0  0  0  0  0  0  0
   -8.8888   -2.3002    0.0000 C   0  0  0  0  0  0  0  0  0  0  0  0
   -8.1388   -1.0012    0.0000 C   0  0  0  0  0  0  0  0  0  0  0  0
   -6.6388   -1.0012    0.0000 C   0  0  0  0  0  0  0  0  0  0  0  0
   -5.8888    0.2979    0.0000 N   0  0  0  0  0  0  0  0  0  0  0  0
   -4.3888    0.2979    0.0000 N   0  0  0  0  0  0  0  0  0  0  0  0
   -3.6388    1.5969    0.0000 C   0  0  0  0  0  0  0  0  0  0  0  0
   -4.2489    2.9672    0.0000 C   0  0  0  0  0  0  0  0  0  0  0  0
   -5.7161    3.2791    0.0000 O   0  0  0  0  0  0  0  0  0  0  0  0
   -3.1342    3.9709    0.0000 N   0  0  0  0  0  0  0  0  0  0  0  0
   -1.8351    3.2209    0.0000 C   0  0  0  0  0  0  0  0  0  0  0  0
   -0.4086    3.6844    0.0000 C   0  0  0  0  0  0  0  0  0  0  0  0
    0.7062    2.6807    0.0000 C   0  0  0  0  0  0  0  0  0  0  0  0
    0.3943    1.2135    0.0000 C   0  0  0  0  0  0  0  0  0  0  0  0
    1.2760    0.0000    0.0000 N   0  0  0  0  0  0  0  0  0  0  0  0
    0.3943   -1.2135    0.0000 N   0  0  0  0  0  0  0  0  0  0  0  0
   -1.0323   -0.7500    0.0000 C   0  0  0  0  0  0  0  0  0  0  0  0
   -2.2458   -1.6317    0.0000 Cl  0  0  0  0  0  0  0  0  0  0  0  0
   -1.0323    0.7500    0.0000 C   0  0  0  0  0  0  0  0  0  0  0  0
   -2.1470    1.7537    0.0000 C   0  0  0  0  0  0  0  0  0  0  0  0
   -5.8888   -2.3002    0.0000 C   0  0  0  0  0  0  0  0  0  0  0  0
   -6.6388   -3.5992    0.0000 C   0  0  0  0  0  0  0  0  0  0  0  0
  1  2  1  0
  2  3  2  0
  2  4  2  0
  2  5  1  0
  5  6  2  0
  6  7  1  0
  7  8  2  0
  8  9  1  0
  9 10  1  0
 10 11  2  0
 11 12  1  0
 12 13  2  0
 12 14  1  0
 14 15  1  0
 15 16  2  0
 16 17  1  0
 17 18  2  0
 18 19  1  0
 19 20  1  0
 20 21  2  0
 21 22  1  0
 21 23  1  0
 23 24  2  0
  8 25  1  0
 25 26  2  0
 26  5  1  0
 24 11  1  0
 24 15  1  0
 23 18  1  0
M  END
>  <Compound_ID>  (88) 
CHEMBL269882

>  <Active>  (88) 
1.0

>  <Smiles>  (88) 
NS(=O)(=O)c1ccc(N/N=C2\C(=O)Nc3ccc4[nH]nc(Cl)c4c32)cc1

>  <canonical_smi>  (88) 
NS(=O)(=O)c1ccc(N/N=C2\C(=O)Nc3ccc4[nH]nc(Cl)c4c32)cc1

>  <Set>  (88) 
G2 active

>  <Set_type>  (88) 
Train

>  <MW>  (88) 
390.81

>  <HBD>  (88) 
4

>  <HBA>  (88) 
5

>  <NRB>  (88) 
3

>  <NR>  (88) 
4

>  <NAR>  (88) 
3

>  <PSA>  (88) 
142.33

>  <Standard Type>  (88) 
nan

>  <Standard Relation>  (88) 
nan

>  <Standard Units>  (88) 
nan

>  <Standard Value>  (88) 
nan

>  <Assay ChEMBL ID>  (88) 
nan

>  <Assay Description>  (88) 
nan

>  <BAO Label>  (88) 
nan

$$$$

     RDKit          2D

 27 30  0  0  0  0  0  0  0  0999 V2000
  -10.0849   -6.9740    0.0000 N   0  0  0  0  0  0  0  0  0  0  0  0
   -8.6583   -6.5105    0.0000 S   0  0  0  0  0  0  0  0  0  0  0  0
   -9.1218   -5.0839    0.0000 O   0  0  0  0  0  0  0  0  0  0  0  0
   -8.1948   -7.9371    0.0000 O   0  0  0  0  0  0  0  0  0  0  0  0
   -7.2317   -6.0469    0.0000 C   0  0  0  0  0  0  0  0  0  0  0  0
   -6.9199   -4.5797    0.0000 C   0  0  0  0  0  0  0  0  0  0  0  0
   -5.4933   -4.1162    0.0000 C   0  0  0  0  0  0  0  0  0  0  0  0
   -4.3786   -5.1199    0.0000 C   0  0  0  0  0  0  0  0  0  0  0  0
   -2.9520   -4.6564    0.0000 N   0  0  0  0  0  0  0  0  0  0  0  0
   -2.6401   -3.1891    0.0000 N   0  0  0  0  0  0  0  0  0  0  0  0
   -1.2135   -2.7256    0.0000 C   0  0  0  0  0  0  0  0  0  0  0  0
   -0.0000   -3.6073    0.0000 C   0  0  0  0  0  0  0  0  0  0  0  0
    0.0000   -5.1073    0.0000 O   0  0  0  0  0  0  0  0  0  0  0  0
    1.2135   -2.7256    0.0000 N   0  0  0  0  0  0  0  0  0  0  0  0
    0.7500   -1.2990    0.0000 C   0  0  0  0  0  0  0  0  0  0  0  0
    1.5000    0.0000    0.0000 C   0  0  0  0  0  0  0  0  0  0  0  0
    0.7500    1.2990    0.0000 C   0  0  0  0  0  0  0  0  0  0  0  0
   -0.7500    1.2990    0.0000 C   0  0  0  0  0  0  0  0  0  0  0  0
   -1.5000    2.5981    0.0000 C   0  0  0  0  0  0  0  0  0  0  0  0
   -2.9918    2.7549    0.0000 C   0  0  0  0  0  0  0  0  0  0  0  0
   -3.3037    4.2221    0.0000 N   0  0  0  0  0  0  0  0  0  0  0  0
   -2.0046    4.9721    0.0000 C   0  0  0  0  0  0  0  0  0  0  0  0
   -0.8899    3.9684    0.0000 O   0  0  0  0  0  0  0  0  0  0  0  0
   -1.5000    0.0000    0.0000 C   0  0  0  0  0  0  0  0  0  0  0  0
   -0.7500   -1.2990    0.0000 C   0  0  0  0  0  0  0  0  0  0  0  0
   -4.6904   -6.5871    0.0000 C   0  0  0  0  0  0  0  0  0  0  0  0
   -6.1170   -7.0506    0.0000 C   0  0  0  0  0  0  0  0  0  0  0  0
  1  2  1  0
  2  3  2  0
  2  4  2  0
  2  5  1  0
  5  6  2  0
  6  7  1  0
  7  8  2  0
  8  9  1  0
  9 10  2  3
 10 11  1  0
 11 12  2  0
 12 13  1  0
 12 14  1  0
 14 15  1  0
 15 16  2  0
 16 17  1  0
 17 18  2  0
 18 19  1  0
 19 20  2  0
 20 21  1  0
 21 22  2  0
 22 23  1  0
 18 24  1  0
 24 25  2  0
  8 26  1  0
 26 27  2  0
 27  5  1  0
 25 11  1  0
 25 15  1  0
 23 19  1  0
M  END
>  <Compound_ID>  (89) 
CHEMBL315411

>  <Active>  (89) 
1.0

>  <Smiles>  (89) 
NS(=O)(=O)c1ccc(N=Nc2c(O)[nH]c3ccc(-c4cnco4)cc23)cc1

>  <canonical_smi>  (89) 
NS(=O)(=O)c1ccc(N=Nc2c(O)[nH]c3ccc(-c4cnco4)cc23)cc1

>  <Set>  (89) 
G2 active

>  <Set_type>  (89) 
Train

>  <MW>  (89) 
383.39

>  <HBD>  (89) 
3

>  <HBA>  (89) 
5

>  <NRB>  (89) 
4

>  <NR>  (89) 
4

>  <NAR>  (89) 
4

>  <PSA>  (89) 
146.93

>  <Standard Type>  (89) 
nan

>  <Standard Relation>  (89) 
nan

>  <Standard Units>  (89) 
nan

>  <Standard Value>  (89) 
nan

>  <Assay ChEMBL ID>  (89) 
nan

>  <Assay Description>  (89) 
nan

>  <BAO Label>  (89) 
nan

$$$$

     RDKit          2D

 27 30  0  0  0  0  0  0  0  0999 V2000
  -10.0849   -6.9740    0.0000 N   0  0  0  0  0  0  0  0  0  0  0  0
   -8.6583   -6.5105    0.0000 S   0  0  0  0  0  0  0  0  0  0  0  0
   -9.1218   -5.0839    0.0000 O   0  0  0  0  0  0  0  0  0  0  0  0
   -8.1948   -7.9371    0.0000 O   0  0  0  0  0  0  0  0  0  0  0  0
   -7.2317   -6.0469    0.0000 C   0  0  0  0  0  0  0  0  0  0  0  0
   -6.9199   -4.5797    0.0000 C   0  0  0  0  0  0  0  0  0  0  0  0
   -5.4933   -4.1162    0.0000 C   0  0  0  0  0  0  0  0  0  0  0  0
   -4.3786   -5.1199    0.0000 C   0  0  0  0  0  0  0  0  0  0  0  0
   -2.9520   -4.6564    0.0000 N   0  0  0  0  0  0  0  0  0  0  0  0
   -2.6401   -3.1891    0.0000 N   0  0  0  0  0  0  0  0  0  0  0  0
   -1.2135   -2.7256    0.0000 C   0  0  0  0  0  0  0  0  0  0  0  0
   -0.0000   -3.6073    0.0000 C   0  0  0  0  0  0  0  0  0  0  0  0
    0.0000   -5.1073    0.0000 O   0  0  0  0  0  0  0  0  0  0  0  0
    1.2135   -2.7256    0.0000 N   0  0  0  0  0  0  0  0  0  0  0  0
    0.7500   -1.2990    0.0000 C   0  0  0  0  0  0  0  0  0  0  0  0
    1.5000    0.0000    0.0000 C   0  0  0  0  0  0  0  0  0  0  0  0
    0.7500    1.2990    0.0000 C   0  0  0  0  0  0  0  0  0  0  0  0
   -0.7500    1.2990    0.0000 C   0  0  0  0  0  0  0  0  0  0  0  0
   -1.5000    2.5981    0.0000 C   0  0  0  0  0  0  0  0  0  0  0  0
   -2.9918    2.7549    0.0000 C   0  0  0  0  0  0  0  0  0  0  0  0
   -3.3037    4.2221    0.0000 N   0  0  0  0  0  0  0  0  0  0  0  0
   -2.0046    4.9721    0.0000 C   0  0  0  0  0  0  0  0  0  0  0  0
   -0.8899    3.9684    0.0000 O   0  0  0  0  0  0  0  0  0  0  0  0
   -1.5000    0.0000    0.0000 C   0  0  0  0  0  0  0  0  0  0  0  0
   -0.7500   -1.2990    0.0000 C   0  0  0  0  0  0  0  0  0  0  0  0
   -4.6904   -6.5871    0.0000 C   0  0  0  0  0  0  0  0  0  0  0  0
   -6.1170   -7.0506    0.0000 C   0  0  0  0  0  0  0  0  0  0  0  0
  1  2  1  0
  2  3  2  0
  2  4  2  0
  2  5  1  0
  5  6  2  0
  6  7  1  0
  7  8  2  0
  8  9  1  0
  9 10  1  0
 10 11  2  0
 11 12  1  0
 12 13  2  0
 12 14  1  0
 14 15  1  0
 15 16  2  0
 16 17  1  0
 17 18  2  0
 18 19  1  0
 19 20  2  0
 20 21  1  0
 21 22  2  0
 22 23  1  0
 18 24  1  0
 24 25  2  0
  8 26  1  0
 26 27  2  0
 27  5  1  0
 25 11  1  0
 25 15  1  0
 23 19  1  0
M  END
>  <Compound_ID>  (90) 
CHEMBL269827

>  <Active>  (90) 
1.0

>  <Smiles>  (90) 
NS(=O)(=O)c1ccc(N/N=C2\C(=O)Nc3ccc(-c4cnco4)cc32)cc1

>  <canonical_smi>  (90) 
NS(=O)(=O)c1ccc(N/N=C2\C(=O)Nc3ccc(-c4cnco4)cc32)cc1

>  <Set>  (90) 
G2 active

>  <Set_type>  (90) 
Train

>  <MW>  (90) 
383.39

>  <HBD>  (90) 
3

>  <HBA>  (90) 
6

>  <NRB>  (90) 
4

>  <NR>  (90) 
4

>  <NAR>  (90) 
3

>  <PSA>  (90) 
139.68

>  <Standard Type>  (90) 
nan

>  <Standard Relation>  (90) 
nan

>  <Standard Units>  (90) 
nan

>  <Standard Value>  (90) 
nan

>  <Assay ChEMBL ID>  (90) 
nan

>  <Assay Description>  (90) 
nan

>  <BAO Label>  (90) 
nan

$$$$

     RDKit          2D

 25 28  0  0  0  0  0  0  0  0999 V2000
   -9.6388   -6.1973    0.0000 N   0  0  0  0  0  0  0  0  0  0  0  0
   -8.8888   -4.8983    0.0000 S   0  0  0  0  0  0  0  0  0  0  0  0
  -10.1878   -4.1483    0.0000 O   0  0  0  0  0  0  0  0  0  0  0  0
   -7.5897   -5.6483    0.0000 O   0  0  0  0  0  0  0  0  0  0  0  0
   -8.1388   -3.5992    0.0000 C   0  0  0  0  0  0  0  0  0  0  0  0
   -8.8888   -2.3002    0.0000 C   0  0  0  0  0  0  0  0  0  0  0  0
   -8.1388   -1.0012    0.0000 C   0  0  0  0  0  0  0  0  0  0  0  0
   -6.6388   -1.0012    0.0000 C   0  0  0  0  0  0  0  0  0  0  0  0
   -5.8888    0.2979    0.0000 N   0  0  0  0  0  0  0  0  0  0  0  0
   -4.3888    0.2979    0.0000 C   0  0  0  0  0  0  0  0  0  0  0  0
   -3.6388    1.5969    0.0000 C   0  0  0  0  0  0  0  0  0  0  0  0
   -4.2489    2.9672    0.0000 C   0  0  0  0  0  0  0  0  0  0  0  0
   -5.7161    3.2791    0.0000 O   0  0  0  0  0  0  0  0  0  0  0  0
   -3.1342    3.9709    0.0000 N   0  0  0  0  0  0  0  0  0  0  0  0
   -1.8351    3.2209    0.0000 C   0  0  0  0  0  0  0  0  0  0  0  0
   -0.4086    3.6844    0.0000 C   0  0  0  0  0  0  0  0  0  0  0  0
    0.7062    2.6807    0.0000 C   0  0  0  0  0  0  0  0  0  0  0  0
    0.3943    1.2135    0.0000 C   0  0  0  0  0  0  0  0  0  0  0  0
    1.2760    0.0000    0.0000 N   0  0  0  0  0  0  0  0  0  0  0  0
    0.3943   -1.2135    0.0000 C   0  0  0  0  0  0  0  0  0  0  0  0
   -1.0323   -0.7500    0.0000 S   0  0  0  0  0  0  0  0  0  0  0  0
   -1.0323    0.7500    0.0000 C   0  0  0  0  0  0  0  0  0  0  0  0
   -2.1470    1.7537    0.0000 C   0  0  0  0  0  0  0  0  0  0  0  0
   -5.8888   -2.3002    0.0000 C   0  0  0  0  0  0  0  0  0  0  0  0
   -6.6388   -3.5992    0.0000 C   0  0  0  0  0  0  0  0  0  0  0  0
  1  2  1  0
  2  3  2  0
  2  4  2  0
  2  5  1  0
  5  6  2  0
  6  7  1  0
  7  8  2  0
  8  9  1  0
  9 10  1  0
 10 11  2  0
 11 12  1  0
 12 13  2  0
 12 14  1  0
 14 15  1  0
 15 16  2  0
 16 17  1  0
 17 18  2  0
 18 19  1  0
 19 20  2  0
 20 21  1  0
 21 22  1  0
 22 23  2  0
  8 24  1  0
 24 25  2  0
 25  5  1  0
 23 11  1  0
 23 15  1  0
 22 18  1  0
M  END
>  <Compound_ID>  (91) 
CHEMBL271595

>  <Active>  (91) 
1.0

>  <Smiles>  (91) 
NS(=O)(=O)c1ccc(N/C=C2\C(=O)Nc3ccc4ncsc4c32)cc1

>  <canonical_smi>  (91) 
NS(=O)(=O)c1ccc(N/C=C2\C(=O)Nc3ccc4ncsc4c32)cc1

>  <Set>  (91) 
G2 active

>  <Set_type>  (91) 
Train

>  <MW>  (91) 
372.43

>  <HBD>  (91) 
3

>  <HBA>  (91) 
5

>  <NRB>  (91) 
3

>  <NR>  (91) 
4

>  <NAR>  (91) 
3

>  <PSA>  (91) 
114.18

>  <Standard Type>  (91) 
nan

>  <Standard Relation>  (91) 
nan

>  <Standard Units>  (91) 
nan

>  <Standard Value>  (91) 
nan

>  <Assay ChEMBL ID>  (91) 
nan

>  <Assay Description>  (91) 
nan

>  <BAO Label>  (91) 
nan

$$$$

     RDKit          2D

 33 35  0  0  0  0  0  0  0  0999 V2000
   -3.2082  -15.6575    0.0000 C   0  0  0  0  0  0  0  0  0  0  0  0
   -1.9092  -16.4075    0.0000 C   0  0  0  0  0  0  0  0  0  0  0  0
   -0.6101  -17.1575    0.0000 C   0  0  0  0  0  0  0  0  0  0  0  0
   -2.6592  -17.7065    0.0000 C   0  0  0  0  0  0  0  0  0  0  0  0
   -1.1592  -15.1085    0.0000 C   0  0  0  0  0  0  0  0  0  0  0  0
    0.3326  -14.9517    0.0000 C   0  0  0  0  0  0  0  0  0  0  0  0
    0.6445  -13.4844    0.0000 N   0  0  0  0  0  0  0  0  0  0  0  0
   -0.6546  -12.7344    0.0000 C   0  0  0  0  0  0  0  0  0  0  0  0
   -0.8113  -11.2427    0.0000 C   0  0  0  0  0  0  0  0  0  0  0  0
    0.4022  -10.3610    0.0000 S   0  0  0  0  0  0  0  0  0  0  0  0
    0.2454   -8.8692    0.0000 C   0  0  0  0  0  0  0  0  0  0  0  0
   -1.0537   -8.1192    0.0000 C   0  0  0  0  0  0  0  0  0  0  0  0
   -0.7418   -6.6520    0.0000 N   0  0  0  0  0  0  0  0  0  0  0  0
    0.7500   -6.4952    0.0000 C   0  0  0  0  0  0  0  0  0  0  0  0
    1.5000   -5.1962    0.0000 N   0  0  0  0  0  0  0  0  0  0  0  0
    0.7500   -3.8971    0.0000 C   0  0  0  0  0  0  0  0  0  0  0  0
   -0.7500   -3.8971    0.0000 O   0  0  0  0  0  0  0  0  0  0  0  0
    1.5000   -2.5981    0.0000 C   0  0  0  0  0  0  0  0  0  0  0  0
    0.7500   -1.2990    0.0000 C   0  0  0  0  0  0  0  0  0  0  0  0
    1.5000    0.0000    0.0000 C   0  0  0  0  0  0  0  0  0  0  0  0
    0.7500    1.2990    0.0000 C   0  0  0  0  0  0  0  0  0  0  0  0
   -0.7500    1.2990    0.0000 C   0  0  0  0  0  0  0  0  0  0  0  0
   -1.5000    2.5981    0.0000 C   0  0  0  0  0  0  0  0  0  0  0  0
   -0.7500    3.8971    0.0000 N   0  0  0  0  0  0  0  0  0  0  0  0
   -1.5000    5.1962    0.0000 C   0  0  0  0  0  0  0  0  0  0  0  0
   -0.7500    6.4952    0.0000 C   0  0  0  0  0  0  0  0  0  0  0  0
   -1.5000    7.7942    0.0000 O   0  0  0  0  0  0  0  0  0  0  0  0
   -3.0000    5.1962    0.0000 C   0  0  0  0  0  0  0  0  0  0  0  0
   -3.7500    6.4952    0.0000 O   0  0  0  0  0  0  0  0  0  0  0  0
   -1.5000    0.0000    0.0000 C   0  0  0  0  0  0  0  0  0  0  0  0
   -0.7500   -1.2990    0.0000 C   0  0  0  0  0  0  0  0  0  0  0  0
    1.3601   -7.8655    0.0000 S   0  0  0  0  0  0  0  0  0  0  0  0
   -1.7693  -13.7381    0.0000 O   0  0  0  0  0  0  0  0  0  0  0  0
  1  2  1  0
  2  3  1  0
  2  4  1  0
  2  5  1  0
  5  6  2  0
  6  7  1  0
  7  8  2  0
  8  9  1  0
  9 10  1  0
 10 11  1  0
 11 12  2  0
 12 13  1  0
 13 14  2  0
 14 15  1  0
 15 16  1  0
 16 17  2  0
 16 18  1  0
 18 19  1  0
 19 20  2  0
 20 21  1  0
 21 22  2  0
 22 23  1  0
 23 24  1  0
 24 25  1  0
 25 26  1  0
 26 27  1  0
 25 28  1  0
 28 29  1  0
 22 30  1  0
 30 31  2  0
 14 32  1  0
  8 33  1  0
 33  5  1  0
 32 11  1  0
 31 19  1  0
M  END
>  <Compound_ID>  (92) 
CHEMBL300936

>  <Active>  (92) 
1.0

>  <Smiles>  (92) 
CC(C)(C)c1cnc(CSc2cnc(NC(=O)Cc3ccc(CNC(CO)CO)cc3)s2)o1

>  <canonical_smi>  (92) 
CC(C)(C)c1cnc(CSc2cnc(NC(=O)Cc3ccc(CNC(CO)CO)cc3)s2)o1

>  <Set>  (92) 
G2 active

>  <Set_type>  (92) 
Train

>  <MW>  (92) 
490.65

>  <HBD>  (92) 
4

>  <HBA>  (92) 
8

>  <NRB>  (92) 
11

>  <NR>  (92) 
3

>  <NAR>  (92) 
3

>  <PSA>  (92) 
120.51

>  <Standard Type>  (92) 
nan

>  <Standard Relation>  (92) 
nan

>  <Standard Units>  (92) 
nan

>  <Standard Value>  (92) 
nan

>  <Assay ChEMBL ID>  (92) 
nan

>  <Assay Description>  (92) 
nan

>  <BAO Label>  (92) 
nan

$$$$

     RDKit          2D

 26 28  0  0  0  0  0  0  0  0999 V2000
   -3.2082  -15.6575    0.0000 C   0  0  0  0  0  0  0  0  0  0  0  0
   -1.9092  -16.4075    0.0000 C   0  0  0  0  0  0  0  0  0  0  0  0
   -0.6101  -17.1575    0.0000 C   0  0  0  0  0  0  0  0  0  0  0  0
   -2.6592  -17.7065    0.0000 C   0  0  0  0  0  0  0  0  0  0  0  0
   -1.1592  -15.1085    0.0000 C   0  0  0  0  0  0  0  0  0  0  0  0
    0.3326  -14.9517    0.0000 N   0  0  0  0  0  0  0  0  0  0  0  0
    0.6445  -13.4844    0.0000 C   0  0  0  0  0  0  0  0  0  0  0  0
   -0.6546  -12.7344    0.0000 C   0  0  0  0  0  0  0  0  0  0  0  0
   -0.8113  -11.2427    0.0000 C   0  0  0  0  0  0  0  0  0  0  0  0
    0.4022  -10.3610    0.0000 S   0  0  0  0  0  0  0  0  0  0  0  0
    0.2454   -8.8692    0.0000 C   0  0  0  0  0  0  0  0  0  0  0  0
   -1.0537   -8.1192    0.0000 C   0  0  0  0  0  0  0  0  0  0  0  0
   -0.7418   -6.6520    0.0000 N   0  0  0  0  0  0  0  0  0  0  0  0
    0.7500   -6.4952    0.0000 C   0  0  0  0  0  0  0  0  0  0  0  0
    1.5000   -5.1962    0.0000 N   0  0  0  0  0  0  0  0  0  0  0  0
    0.7500   -3.8971    0.0000 C   0  0  0  0  0  0  0  0  0  0  0  0
   -0.7500   -3.8971    0.0000 O   0  0  0  0  0  0  0  0  0  0  0  0
    1.5000   -2.5981    0.0000 C   0  0  0  0  0  0  0  0  0  0  0  0
    0.7500   -1.2990    0.0000 C   0  0  0  0  0  0  0  0  0  0  0  0
    1.5000    0.0000    0.0000 C   0  0  0  0  0  0  0  0  0  0  0  0
    0.7500    1.2990    0.0000 C   0  0  0  0  0  0  0  0  0  0  0  0
   -0.7500    1.2990    0.0000 C   0  0  0  0  0  0  0  0  0  0  0  0
   -1.5000    0.0000    0.0000 C   0  0  0  0  0  0  0  0  0  0  0  0
   -0.7500   -1.2990    0.0000 C   0  0  0  0  0  0  0  0  0  0  0  0
    1.3601   -7.8655    0.0000 S   0  0  0  0  0  0  0  0  0  0  0  0
   -1.7693  -13.7381    0.0000 O   0  0  0  0  0  0  0  0  0  0  0  0
  1  2  1  0
  2  3  1  0
  2  4  1  0
  2  5  1  0
  5  6  2  0
  6  7  1  0
  7  8  2  0
  8  9  1  0
  9 10  1  0
 10 11  1  0
 11 12  2  0
 12 13  1  0
 13 14  2  0
 14 15  1  0
 15 16  1  0
 16 17  2  0
 16 18  1  0
 18 19  1  0
 19 20  2  0
 20 21  1  0
 21 22  2  0
 22 23  1  0
 23 24  2  0
 14 25  1  0
  8 26  1  0
 26  5  1  0
 25 11  1  0
 24 19  1  0
M  END
>  <Compound_ID>  (93) 
CHEMBL340904

>  <Active>  (93) 
1.0

>  <Smiles>  (93) 
CC(C)(C)c1ncc(CSc2cnc(NC(=O)Cc3ccccc3)s2)o1

>  <canonical_smi>  (93) 
CC(C)(C)c1ncc(CSc2cnc(NC(=O)Cc3ccccc3)s2)o1

>  <Set>  (93) 
G2 active

>  <Set_type>  (93) 
Train

>  <MW>  (93) 
387.53

>  <HBD>  (93) 
1

>  <HBA>  (93) 
5

>  <NRB>  (93) 
6

>  <NR>  (93) 
3

>  <NAR>  (93) 
3

>  <PSA>  (93) 
68.02

>  <Standard Type>  (93) 
nan

>  <Standard Relation>  (93) 
nan

>  <Standard Units>  (93) 
nan

>  <Standard Value>  (93) 
nan

>  <Assay ChEMBL ID>  (93) 
nan

>  <Assay Description>  (93) 
nan

>  <BAO Label>  (93) 
nan

$$$$

     RDKit          2D

 31 34  0  0  0  0  0  0  0  0999 V2000
    3.7500   -1.2990    0.0000 C   0  0  0  0  0  0  0  0  0  0  0  0
    3.0000    0.0000    0.0000 C   0  0  0  0  0  0  0  0  0  0  0  0
    3.7500    1.2990    0.0000 O   0  0  0  0  0  0  0  0  0  0  0  0
    1.5000    0.0000    0.0000 N   0  0  0  0  0  0  0  0  0  0  0  0
    0.7500   -1.2990    0.0000 C   0  0  0  0  0  0  0  0  0  0  0  0
   -0.7500   -1.2990    0.0000 C   0  0  0  0  0  0  0  0  0  0  0  0
   -1.5000    0.0000    0.0000 N   0  0  0  0  0  0  0  0  0  0  0  0
   -3.0000    0.0000    0.0000 C   0  0  0  0  0  0  0  0  0  0  0  0
   -3.7500    1.2990    0.0000 C   0  0  0  0  0  0  0  0  0  0  0  0
   -5.2500    1.2990    0.0000 C   0  0  0  0  0  0  0  0  0  0  0  0
   -6.0000    0.0000    0.0000 C   0  0  0  0  0  0  0  0  0  0  0  0
   -7.5000    0.0000    0.0000 N   0  0  0  0  0  0  0  0  0  0  0  0
   -8.2500    1.2990    0.0000 C   0  0  0  0  0  0  0  0  0  0  0  0
   -7.5000    2.5981    0.0000 N   0  0  0  0  0  0  0  0  0  0  0  0
   -8.2500    3.8971    0.0000 C   0  0  0  0  0  0  0  0  0  0  0  0
   -9.7500    3.8971    0.0000 C   0  0  0  0  0  0  0  0  0  0  0  0
  -10.5000    2.5981    0.0000 C   0  0  0  0  0  0  0  0  0  0  0  0
  -12.0000    2.5981    0.0000 C   0  0  0  0  0  0  0  0  0  0  0  0
  -12.8817    1.3846    0.0000 C   0  0  0  0  0  0  0  0  0  0  0  0
  -14.3083    1.8481    0.0000 N   0  0  0  0  0  0  0  0  0  0  0  0
  -14.3083    3.3481    0.0000 C   0  0  0  0  0  0  0  0  0  0  0  0
  -15.5218    4.2298    0.0000 C   0  0  0  0  0  0  0  0  0  0  0  0
  -12.8817    3.8116    0.0000 N   0  0  0  0  0  0  0  0  0  0  0  0
  -12.4182    5.2382    0.0000 C   0  0  0  0  0  0  0  0  0  0  0  0
  -13.4218    6.3529    0.0000 C   0  0  0  0  0  0  0  0  0  0  0  0
  -10.9509    5.5501    0.0000 C   0  0  0  0  0  0  0  0  0  0  0  0
   -9.7500    1.2990    0.0000 N   0  0  0  0  0  0  0  0  0  0  0  0
   -5.2500   -1.2990    0.0000 C   0  0  0  0  0  0  0  0  0  0  0  0
   -3.7500   -1.2990    0.0000 C   0  0  0  0  0  0  0  0  0  0  0  0
   -0.7500    1.2990    0.0000 C   0  0  0  0  0  0  0  0  0  0  0  0
    0.7500    1.2990    0.0000 C   0  0  0  0  0  0  0  0  0  0  0  0
  1  2  1  0
  2  3  2  0
  2  4  1  0
  4  5  1  0
  5  6  1  0
  6  7  1  0
  7  8  1  0
  8  9  2  0
  9 10  1  0
 10 11  2  0
 11 12  1  0
 12 13  1  0
 13 14  2  0
 14 15  1  0
 15 16  2  0
 16 17  1  0
 17 18  1  0
 18 19  2  0
 19 20  1  0
 20 21  2  0
 21 22  1  0
 21 23  1  0
 23 24  1  0
 24 25  1  0
 24 26  1  0
 17 27  2  0
 11 28  1  0
 28 29  2  0
  7 30  1  0
 30 31  1  0
 31  4  1  0
 29  8  1  0
 27 13  1  0
 23 18  1  0
M  END
>  <Compound_ID>  (94) 
CHEMBL477568

>  <Active>  (94) 
1.0

>  <Smiles>  (94) 
CC(=O)N1CCN(c2ccc(Nc3nccc(-c4cnc(C)n4C(C)C)n3)cc2)CC1

>  <canonical_smi>  (94) 
CC(=O)N1CCN(c2ccc(Nc3nccc(-c4cnc(C)n4C(C)C)n3)cc2)CC1

>  <Set>  (94) 
G2 active

>  <Set_type>  (94) 
Train

>  <MW>  (94) 
419.53

>  <HBD>  (94) 
1

>  <HBA>  (94) 
6

>  <NRB>  (94) 
5

>  <NR>  (94) 
4

>  <NAR>  (94) 
3

>  <PSA>  (94) 
79.18

>  <Standard Type>  (94) 
nan

>  <Standard Relation>  (94) 
nan

>  <Standard Units>  (94) 
nan

>  <Standard Value>  (94) 
nan

>  <Assay ChEMBL ID>  (94) 
nan

>  <Assay Description>  (94) 
nan

>  <BAO Label>  (94) 
nan

$$$$

     RDKit          2D

 26 28  0  0  0  0  0  0  0  0999 V2000
   -0.7500   -3.8971    0.0000 O   0  0  0  0  0  0  0  0  0  0  0  0
    0.7500   -3.8971    0.0000 C   0  0  0  0  0  0  0  0  0  0  0  0
    1.5000   -2.5981    0.0000 N   0  0  0  0  0  0  0  0  0  0  0  0
    0.7500   -1.2990    0.0000 C   0  0  0  0  0  0  0  0  0  0  0  0
    1.5000    0.0000    0.0000 C   0  0  0  0  0  0  0  0  0  0  0  0
    0.7500    1.2990    0.0000 C   0  0  0  0  0  0  0  0  0  0  0  0
   -0.7500    1.2990    0.0000 C   0  0  0  0  0  0  0  0  0  0  0  0
   -1.5000    2.5981    0.0000 F   0  0  0  0  0  0  0  0  0  0  0  0
   -1.5000    0.0000    0.0000 C   0  0  0  0  0  0  0  0  0  0  0  0
   -0.7500   -1.2990    0.0000 C   0  0  0  0  0  0  0  0  0  0  0  0
    1.5000   -5.1962    0.0000 C   0  0  0  0  0  0  0  0  0  0  0  0
    2.9918   -5.3529    0.0000 N   0  0  0  0  0  0  0  0  0  0  0  0
    3.3037   -6.8202    0.0000 N   0  0  0  0  0  0  0  0  0  0  0  0
    2.0046   -7.5702    0.0000 C   0  0  0  0  0  0  0  0  0  0  0  0
    0.8899   -6.5665    0.0000 C   0  0  0  0  0  0  0  0  0  0  0  0
   -0.5773   -6.8783    0.0000 N   0  0  0  0  0  0  0  0  0  0  0  0
   -1.0409   -8.3049    0.0000 C   0  0  0  0  0  0  0  0  0  0  0  0
   -0.0372   -9.4196    0.0000 O   0  0  0  0  0  0  0  0  0  0  0  0
   -2.5081   -8.6168    0.0000 C   0  0  0  0  0  0  0  0  0  0  0  0
   -3.5118   -7.5021    0.0000 C   0  0  0  0  0  0  0  0  0  0  0  0
   -3.0482   -6.0755    0.0000 F   0  0  0  0  0  0  0  0  0  0  0  0
   -4.9790   -7.8139    0.0000 C   0  0  0  0  0  0  0  0  0  0  0  0
   -5.4425   -9.2405    0.0000 C   0  0  0  0  0  0  0  0  0  0  0  0
   -4.4388  -10.3552    0.0000 C   0  0  0  0  0  0  0  0  0  0  0  0
   -2.9716  -10.0434    0.0000 C   0  0  0  0  0  0  0  0  0  0  0  0
   -1.9679  -11.1581    0.0000 F   0  0  0  0  0  0  0  0  0  0  0  0
  1  2  2  0
  2  3  1  0
  3  4  1  0
  4  5  2  0
  5  6  1  0
  6  7  2  0
  7  8  1  0
  7  9  1  0
  9 10  2  0
  2 11  1  0
 11 12  2  0
 12 13  1  0
 13 14  1  0
 14 15  2  0
 15 16  1  0
 16 17  1  0
 17 18  2  0
 17 19  1  0
 19 20  2  0
 20 21  1  0
 20 22  1  0
 22 23  2  0
 23 24  1  0
 24 25  2  0
 25 26  1  0
 10  4  1  0
 15 11  1  0
 25 19  1  0
M  END
>  <Compound_ID>  (95) 
CHEMBL518383

>  <Active>  (95) 
1.0

>  <Smiles>  (95) 
O=C(Nc1ccc(F)cc1)c1n[nH]cc1NC(=O)c1c(F)cccc1F

>  <canonical_smi>  (95) 
O=C(Nc1ccc(F)cc1)c1n[nH]cc1NC(=O)c1c(F)cccc1F

>  <Set>  (95) 
G2 active

>  <Set_type>  (95) 
Train

>  <MW>  (95) 
360.3

>  <HBD>  (95) 
3

>  <HBA>  (95) 
3

>  <NRB>  (95) 
4

>  <NR>  (95) 
3

>  <NAR>  (95) 
3

>  <PSA>  (95) 
86.88

>  <Standard Type>  (95) 
nan

>  <Standard Relation>  (95) 
nan

>  <Standard Units>  (95) 
nan

>  <Standard Value>  (95) 
nan

>  <Assay ChEMBL ID>  (95) 
nan

>  <Assay Description>  (95) 
nan

>  <BAO Label>  (95) 
nan

$$$$

     RDKit          2D

 24 27  0  0  0  0  0  0  0  0999 V2000
   -0.7500   -3.8971    0.0000 O   0  0  0  0  0  0  0  0  0  0  0  0
    0.7500   -3.8971    0.0000 C   0  0  0  0  0  0  0  0  0  0  0  0
    1.5000   -2.5981    0.0000 C   0  0  0  0  0  0  0  0  0  0  0  0
    0.7500   -1.2990    0.0000 C   0  0  0  0  0  0  0  0  0  0  0  0
    1.5000    0.0000    0.0000 C   0  0  0  0  0  0  0  0  0  0  0  0
    0.7500    1.2990    0.0000 C   0  0  0  0  0  0  0  0  0  0  0  0
   -0.7500    1.2990    0.0000 C   0  0  0  0  0  0  0  0  0  0  0  0
   -1.5000    2.5981    0.0000 C   0  0  0  0  0  0  0  0  0  0  0  0
   -0.7500    3.8971    0.0000 C   0  0  0  0  0  0  0  0  0  0  0  0
   -1.3601    5.2674    0.0000 C   0  0  0  0  0  0  0  0  0  0  0  0
   -0.2454    6.2711    0.0000 C   0  0  0  0  0  0  0  0  0  0  0  0
    1.0537    5.5211    0.0000 C   0  0  0  0  0  0  0  0  0  0  0  0
    0.7418    4.0539    0.0000 S   0  0  0  0  0  0  0  0  0  0  0  0
   -1.5000    0.0000    0.0000 C   0  0  0  0  0  0  0  0  0  0  0  0
   -0.7500   -1.2990    0.0000 C   0  0  0  0  0  0  0  0  0  0  0  0
    1.5000   -5.1962    0.0000 N   0  0  0  0  0  0  0  0  0  0  0  0
    0.7500   -6.4952    0.0000 C   0  0  0  0  0  0  0  0  0  0  0  0
    1.3601   -7.8655    0.0000 C   0  0  0  0  0  0  0  0  0  0  0  0
    0.2454   -8.8692    0.0000 C   0  0  0  0  0  0  0  0  0  0  0  0
    0.4022  -10.3610    0.0000 C   0  0  0  0  0  0  0  0  0  0  0  0
    1.2839  -11.5745    0.0000 C   0  0  0  0  0  0  0  0  0  0  0  0
   -0.2079  -11.7313    0.0000 C   0  0  0  0  0  0  0  0  0  0  0  0
   -1.0537   -8.1192    0.0000 N   0  0  0  0  0  0  0  0  0  0  0  0
   -0.7418   -6.6520    0.0000 N   0  0  0  0  0  0  0  0  0  0  0  0
  1  2  2  0
  2  3  1  0
  3  4  1  0
  4  5  2  0
  5  6  1  0
  6  7  2  0
  7  8  1  0
  8  9  1  0
  9 10  2  0
 10 11  1  0
 11 12  2  0
 12 13  1  0
  7 14  1  0
 14 15  2  0
  2 16  1  0
 16 17  1  0
 17 18  1  0
 18 19  2  0
 19 20  1  0
 20 21  1  0
 21 22  1  0
 19 23  1  0
 23 24  1  0
 15  4  1  0
 24 17  2  0
 13  9  1  0
 22 20  1  0
M  END
>  <Compound_ID>  (96) 
CHEMBL490481

>  <Active>  (96) 
1.0

>  <Smiles>  (96) 
O=C(Cc1ccc(Cc2cccs2)cc1)Nc1cc(C2CC2)[nH]n1

>  <canonical_smi>  (96) 
O=C(Cc1ccc(Cc2cccs2)cc1)Nc1cc(C2CC2)[nH]n1

>  <Set>  (96) 
G2 active

>  <Set_type>  (96) 
Train

>  <MW>  (96) 
337.45

>  <HBD>  (96) 
2

>  <HBA>  (96) 
2

>  <NRB>  (96) 
6

>  <NR>  (96) 
4

>  <NAR>  (96) 
3

>  <PSA>  (96) 
57.78

>  <Standard Type>  (96) 
nan

>  <Standard Relation>  (96) 
nan

>  <Standard Units>  (96) 
nan

>  <Standard Value>  (96) 
nan

>  <Assay ChEMBL ID>  (96) 
nan

>  <Assay Description>  (96) 
nan

>  <BAO Label>  (96) 
nan

$$$$

     RDKit          2D

 27 29  0  0  0  0  0  0  0  0999 V2000
    3.7500   -1.2990    0.0000 C   0  0  0  0  0  0  0  0  0  0  0  0
    3.0000    0.0000    0.0000 C   0  0  0  0  0  0  0  0  0  0  0  0
    1.5000    0.0000    0.0000 C   0  0  0  0  0  0  0  0  0  0  0  0
    0.7500   -1.2990    0.0000 C   0  0  0  0  0  0  0  0  0  0  0  0
   -0.7500   -1.2990    0.0000 C   0  0  0  0  0  0  0  0  0  0  0  0
   -1.5000   -2.5981    0.0000 C   0  0  0  0  0  0  0  0  0  0  0  0
   -0.7500   -3.8971    0.0000 O   0  0  0  0  0  0  0  0  0  0  0  0
   -3.0000   -2.5981    0.0000 N   0  0  0  0  0  0  0  0  0  0  0  0
   -3.7500   -3.8971    0.0000 C   0  0  0  0  0  0  0  0  0  0  0  0
   -3.1399   -5.2674    0.0000 N   0  0  0  0  0  0  0  0  0  0  0  0
   -4.2546   -6.2711    0.0000 C   0  0  0  0  0  0  0  0  0  0  0  0
   -5.5537   -5.5211    0.0000 C   0  0  0  0  0  0  0  0  0  0  0  0
   -6.9240   -6.1312    0.0000 S   0  0  0  0  0  0  0  0  0  0  0  0
   -8.1375   -5.2496    0.0000 C   0  0  0  0  0  0  0  0  0  0  0  0
   -9.5078   -5.8597    0.0000 C   0  0  0  0  0  0  0  0  0  0  0  0
   -9.8197   -7.3269    0.0000 N   0  0  0  0  0  0  0  0  0  0  0  0
  -11.3115   -7.4837    0.0000 C   0  0  0  0  0  0  0  0  0  0  0  0
  -11.9216   -6.1134    0.0000 C   0  0  0  0  0  0  0  0  0  0  0  0
  -13.3888   -5.8015    0.0000 C   0  0  0  0  0  0  0  0  0  0  0  0
  -13.0769   -4.3343    0.0000 C   0  0  0  0  0  0  0  0  0  0  0  0
  -13.7007   -7.2687    0.0000 C   0  0  0  0  0  0  0  0  0  0  0  0
  -14.8560   -5.4896    0.0000 C   0  0  0  0  0  0  0  0  0  0  0  0
  -10.8069   -5.1097    0.0000 O   0  0  0  0  0  0  0  0  0  0  0  0
   -5.2418   -4.0539    0.0000 S   0  0  0  0  0  0  0  0  0  0  0  0
   -1.5000    0.0000    0.0000 C   0  0  0  0  0  0  0  0  0  0  0  0
   -0.7500    1.2990    0.0000 C   0  0  0  0  0  0  0  0  0  0  0  0
    0.7500    1.2990    0.0000 N   0  0  0  0  0  0  0  0  0  0  0  0
  1  2  1  0
  2  3  1  0
  3  4  1  0
  4  5  1  0
  5  6  1  0
  6  7  2  0
  6  8  1  0
  8  9  1  0
  9 10  2  0
 10 11  1  0
 11 12  2  0
 12 13  1  0
 13 14  1  0
 14 15  1  0
 15 16  2  0
 16 17  1  0
 17 18  2  0
 18 19  1  0
 19 20  1  0
 19 21  1  0
 19 22  1  0
 18 23  1  0
 12 24  1  0
  5 25  1  0
 25 26  1  0
 26 27  1  0
 27  3  1  0
 24  9  1  0
 23 15  1  0
M  END
>  <Compound_ID>  (97) 
CHEMBL455195

>  <Active>  (97) 
1.0

>  <Smiles>  (97) 
CCC1CC(C(=O)Nc2ncc(SCc3ncc(C(C)(C)C)o3)s2)CCN1

>  <canonical_smi>  (97) 
CCC1CC(C(=O)Nc2ncc(SCc3ncc(C(C)(C)C)o3)s2)CCN1

>  <Set>  (97) 
G2 active

>  <Set_type>  (97) 
Train

>  <MW>  (97) 
408.59

>  <HBD>  (97) 
2

>  <HBA>  (97) 
6

>  <NRB>  (97) 
6

>  <NR>  (97) 
3

>  <NAR>  (97) 
2

>  <PSA>  (97) 
80.05

>  <Standard Type>  (97) 
nan

>  <Standard Relation>  (97) 
nan

>  <Standard Units>  (97) 
nan

>  <Standard Value>  (97) 
nan

>  <Assay ChEMBL ID>  (97) 
nan

>  <Assay Description>  (97) 
nan

>  <BAO Label>  (97) 
nan

$$$$

     RDKit          2D

 23 25  0  0  0  0  0  0  0  0999 V2000
   -3.2082  -13.0594    0.0000 C   0  0  0  0  0  0  0  0  0  0  0  0
   -1.9092  -13.8094    0.0000 C   0  0  0  0  0  0  0  0  0  0  0  0
   -0.6101  -14.5594    0.0000 C   0  0  0  0  0  0  0  0  0  0  0  0
   -2.6592  -15.1085    0.0000 C   0  0  0  0  0  0  0  0  0  0  0  0
   -1.1592  -12.5104    0.0000 C   0  0  0  0  0  0  0  0  0  0  0  0
    0.3326  -12.3536    0.0000 C   0  0  0  0  0  0  0  0  0  0  0  0
    0.6445  -10.8864    0.0000 N   0  0  0  0  0  0  0  0  0  0  0  0
   -0.6546  -10.1364    0.0000 C   0  0  0  0  0  0  0  0  0  0  0  0
   -0.8113   -8.6446    0.0000 C   0  0  0  0  0  0  0  0  0  0  0  0
    0.4022   -7.7629    0.0000 S   0  0  0  0  0  0  0  0  0  0  0  0
    0.2454   -6.2711    0.0000 C   0  0  0  0  0  0  0  0  0  0  0  0
   -1.0537   -5.5211    0.0000 C   0  0  0  0  0  0  0  0  0  0  0  0
   -0.7418   -4.0539    0.0000 N   0  0  0  0  0  0  0  0  0  0  0  0
    0.7500   -3.8971    0.0000 C   0  0  0  0  0  0  0  0  0  0  0  0
    1.5000   -2.5981    0.0000 N   0  0  0  0  0  0  0  0  0  0  0  0
    0.7500   -1.2990    0.0000 C   0  0  0  0  0  0  0  0  0  0  0  0
    1.5000    0.0000    0.0000 C   0  0  0  0  0  0  0  0  0  0  0  0
    0.7500    1.2990    0.0000 C   0  0  0  0  0  0  0  0  0  0  0  0
   -0.7500    1.2990    0.0000 C   0  0  0  0  0  0  0  0  0  0  0  0
   -1.5000    0.0000    0.0000 N   0  0  0  0  0  0  0  0  0  0  0  0
   -0.7500   -1.2990    0.0000 C   0  0  0  0  0  0  0  0  0  0  0  0
    1.3601   -5.2674    0.0000 S   0  0  0  0  0  0  0  0  0  0  0  0
   -1.7693  -11.1401    0.0000 O   0  0  0  0  0  0  0  0  0  0  0  0
  1  2  1  0
  2  3  1  0
  2  4  1  0
  2  5  1  0
  5  6  2  0
  6  7  1  0
  7  8  2  0
  8  9  1  0
  9 10  1  0
 10 11  1  0
 11 12  2  0
 12 13  1  0
 13 14  2  0
 14 15  1  0
 15 16  1  0
 16 17  2  0
 17 18  1  0
 18 19  2  0
 19 20  1  0
 20 21  2  0
 14 22  1  0
  8 23  1  0
 23  5  1  0
 22 11  1  0
 21 16  1  0
M  END
>  <Compound_ID>  (98) 
CHEMBL100012

>  <Active>  (98) 
1.0

>  <Smiles>  (98) 
CC(C)(C)c1cnc(CSc2cnc(Nc3cccnc3)s2)o1

>  <canonical_smi>  (98) 
CC(C)(C)c1cnc(CSc2cnc(Nc3cccnc3)s2)o1

>  <Set>  (98) 
G2 active

>  <Set_type>  (98) 
Train

>  <MW>  (98) 
346.48

>  <HBD>  (98) 
1

>  <HBA>  (98) 
6

>  <NRB>  (98) 
5

>  <NR>  (98) 
3

>  <NAR>  (98) 
3

>  <PSA>  (98) 
63.84

>  <Standard Type>  (98) 
nan

>  <Standard Relation>  (98) 
nan

>  <Standard Units>  (98) 
nan

>  <Standard Value>  (98) 
nan

>  <Assay ChEMBL ID>  (98) 
nan

>  <Assay Description>  (98) 
nan

>  <BAO Label>  (98) 
nan

$$$$

     RDKit          2D

 23 26  0  0  0  0  0  0  0  0999 V2000
   -7.5000    2.5981    0.0000 N   0  0  0  0  0  0  0  0  0  0  0  0
   -6.0000    2.5981    0.0000 C   0  0  0  0  0  0  0  0  0  0  0  0
   -5.2500    1.2990    0.0000 C   0  0  0  0  0  0  0  0  0  0  0  0
   -3.7500    1.2990    0.0000 S   0  0  0  0  0  0  0  0  0  0  0  0
   -3.0000    0.0000    0.0000 C   0  0  0  0  0  0  0  0  0  0  0  0
   -3.7500   -1.2990    0.0000 C   0  0  0  0  0  0  0  0  0  0  0  0
   -3.0000   -2.5981    0.0000 C   0  0  0  0  0  0  0  0  0  0  0  0
   -3.7500   -3.8971    0.0000 C   0  0  0  0  0  0  0  0  0  0  0  0
   -3.1399   -5.2674    0.0000 C   0  0  0  0  0  0  0  0  0  0  0  0
   -4.2546   -6.2711    0.0000 C   0  0  0  0  0  0  0  0  0  0  0  0
   -5.5537   -5.5211    0.0000 C   0  0  0  0  0  0  0  0  0  0  0  0
   -5.2418   -4.0539    0.0000 N   0  0  0  0  0  0  0  0  0  0  0  0
   -1.5000   -2.5981    0.0000 C   0  0  0  0  0  0  0  0  0  0  0  0
   -0.7500   -1.2990    0.0000 C   0  0  0  0  0  0  0  0  0  0  0  0
    0.7500   -1.2990    0.0000 C   0  0  0  0  0  0  0  0  0  0  0  0
    1.5000    0.0000    0.0000 C   0  0  0  0  0  0  0  0  0  0  0  0
    0.7500    1.2990    0.0000 C   0  0  0  0  0  0  0  0  0  0  0  0
   -0.7500    1.2990    0.0000 C   0  0  0  0  0  0  0  0  0  0  0  0
   -1.5000    2.5981    0.0000 F   0  0  0  0  0  0  0  0  0  0  0  0
   -1.5000    0.0000    0.0000 C   0  0  0  0  0  0  0  0  0  0  0  0
    1.0619   -2.7663    0.0000 N   0  0  0  0  0  0  0  0  0  0  0  0
   -0.2372   -3.5163    0.0000 C   0  0  0  0  0  0  0  0  0  0  0  0
   -0.3940   -5.0080    0.0000 O   0  0  0  0  0  0  0  0  0  0  0  0
  1  2  1  0
  2  3  1  0
  3  4  1  0
  4  5  1  0
  5  6  2  0
  6  7  1  0
  7  8  1  0
  8  9  2  0
  9 10  1  0
 10 11  2  0
 11 12  1  0
  7 13  2  0
 13 14  1  0
 14 15  2  0
 15 16  1  0
 16 17  2  0
 17 18  1  0
 18 19  1  0
 18 20  2  0
 15 21  1  0
 21 22  1  0
 22 23  2  0
 20  5  1  0
 12  8  1  0
 22 13  1  0
 20 14  1  0
M  END
>  <Compound_ID>  (99) 
CHEMBL311464

>  <Active>  (99) 
1.0

>  <Smiles>  (99) 
NCCSc1cc(-c2ccc[nH]2)c2c3c(ccc(F)c13)NC2=O

>  <canonical_smi>  (99) 
NCCSc1cc(-c2ccc[nH]2)c2c3c(ccc(F)c13)NC2=O

>  <Set>  (99) 
G2 active

>  <Set_type>  (99) 
Train

>  <MW>  (99) 
327.38

>  <HBD>  (99) 
3

>  <HBA>  (99) 
3

>  <NRB>  (99) 
4

>  <NR>  (99) 
4

>  <NAR>  (99) 
3

>  <PSA>  (99) 
70.91

>  <Standard Type>  (99) 
nan

>  <Standard Relation>  (99) 
nan

>  <Standard Units>  (99) 
nan

>  <Standard Value>  (99) 
nan

>  <Assay ChEMBL ID>  (99) 
nan

>  <Assay Description>  (99) 
nan

>  <BAO Label>  (99) 
nan

$$$$

     RDKit          2D

 23 26  0  0  0  0  0  0  0  0999 V2000
   -0.7500   -3.8971    0.0000 O   0  0  0  0  0  0  0  0  0  0  0  0
    0.7500   -3.8971    0.0000 C   0  0  0  0  0  0  0  0  0  0  0  0
    1.5000   -2.5981    0.0000 C   0  0  0  0  0  0  0  0  0  0  0  0
    0.7500   -1.2990    0.0000 C   0  0  0  0  0  0  0  0  0  0  0  0
    1.5000    0.0000    0.0000 C   0  0  0  0  0  0  0  0  0  0  0  0
    0.7500    1.2990    0.0000 C   0  0  0  0  0  0  0  0  0  0  0  0
   -0.7500    1.2990    0.0000 C   0  0  0  0  0  0  0  0  0  0  0  0
   -1.5000    2.5981    0.0000 C   0  0  0  0  0  0  0  0  0  0  0  0
   -2.9918    2.7549    0.0000 C   0  0  0  0  0  0  0  0  0  0  0  0
   -3.3037    4.2221    0.0000 C   0  0  0  0  0  0  0  0  0  0  0  0
   -2.0046    4.9721    0.0000 C   0  0  0  0  0  0  0  0  0  0  0  0
   -0.8899    3.9684    0.0000 S   0  0  0  0  0  0  0  0  0  0  0  0
   -1.5000    0.0000    0.0000 C   0  0  0  0  0  0  0  0  0  0  0  0
   -0.7500   -1.2990    0.0000 C   0  0  0  0  0  0  0  0  0  0  0  0
    1.5000   -5.1962    0.0000 N   0  0  0  0  0  0  0  0  0  0  0  0
    0.7500   -6.4952    0.0000 C   0  0  0  0  0  0  0  0  0  0  0  0
    1.3601   -7.8655    0.0000 C   0  0  0  0  0  0  0  0  0  0  0  0
    0.2454   -8.8692    0.0000 C   0  0  0  0  0  0  0  0  0  0  0  0
    0.4022  -10.3610    0.0000 C   0  0  0  0  0  0  0  0  0  0  0  0
    1.2839  -11.5745    0.0000 C   0  0  0  0  0  0  0  0  0  0  0  0
   -0.2079  -11.7313    0.0000 C   0  0  0  0  0  0  0  0  0  0  0  0
   -1.0537   -8.1192    0.0000 N   0  0  0  0  0  0  0  0  0  0  0  0
   -0.7418   -6.6520    0.0000 N   0  0  0  0  0  0  0  0  0  0  0  0
  1  2  2  0
  2  3  1  0
  3  4  1  0
  4  5  2  0
  5  6  1  0
  6  7  2  0
  7  8  1  0
  8  9  2  0
  9 10  1  0
 10 11  2  0
 11 12  1  0
  7 13  1  0
 13 14  2  0
  2 15  1  0
 15 16  1  0
 16 17  1  0
 17 18  2  0
 18 19  1  0
 19 20  1  0
 20 21  1  0
 18 22  1  0
 22 23  1  0
 14  4  1  0
 23 16  2  0
 12  8  1  0
 21 19  1  0
M  END
>  <Compound_ID>  (100) 
CHEMBL114636

>  <Active>  (100) 
1.0

>  <Smiles>  (100) 
O=C(Cc1ccc(-c2cccs2)cc1)Nc1cc(C2CC2)[nH]n1

>  <canonical_smi>  (100) 
O=C(Cc1ccc(-c2cccs2)cc1)Nc1cc(C2CC2)[nH]n1

>  <Set>  (100) 
G2 active

>  <Set_type>  (100) 
Train

>  <MW>  (100) 
323.42

>  <HBD>  (100) 
2

>  <HBA>  (100) 
2

>  <NRB>  (100) 
5

>  <NR>  (100) 
4

>  <NAR>  (100) 
3

>  <PSA>  (100) 
57.78

>  <Standard Type>  (100) 
nan

>  <Standard Relation>  (100) 
nan

>  <Standard Units>  (100) 
nan

>  <Standard Value>  (100) 
nan

>  <Assay ChEMBL ID>  (100) 
nan

>  <Assay Description>  (100) 
nan

>  <BAO Label>  (100) 
nan

$$$$

     RDKit          2D

 27 30  0  0  0  0  0  0  0  0999 V2000
   -5.8515    6.6945    0.0000 C   0  0  0  0  0  0  0  0  0  0  0  0
   -4.7368    5.6908    0.0000 N   0  0  0  0  0  0  0  0  0  0  0  0
   -5.0487    4.2236    0.0000 S   0  0  0  0  0  0  0  0  0  0  0  0
   -3.5814    3.9117    0.0000 O   0  0  0  0  0  0  0  0  0  0  0  0
   -6.5159    4.5355    0.0000 O   0  0  0  0  0  0  0  0  0  0  0  0
   -5.3605    2.7564    0.0000 C   0  0  0  0  0  0  0  0  0  0  0  0
   -4.2458    1.7527    0.0000 C   0  0  0  0  0  0  0  0  0  0  0  0
   -4.5577    0.2855    0.0000 C   0  0  0  0  0  0  0  0  0  0  0  0
   -5.9843   -0.1781    0.0000 C   0  0  0  0  0  0  0  0  0  0  0  0
   -6.2961   -1.6453    0.0000 N   0  0  0  0  0  0  0  0  0  0  0  0
   -5.1814   -2.6490    0.0000 C   0  0  0  0  0  0  0  0  0  0  0  0
   -5.4933   -4.1162    0.0000 N   0  0  0  0  0  0  0  0  0  0  0  0
   -4.3786   -5.1199    0.0000 C   0  0  0  0  0  0  0  0  0  0  0  0
   -2.9520   -4.6564    0.0000 C   0  0  0  0  0  0  0  0  0  0  0  0
   -2.6401   -3.1891    0.0000 C   0  0  0  0  0  0  0  0  0  0  0  0
   -1.2135   -2.7256    0.0000 C   0  0  0  0  0  0  0  0  0  0  0  0
   -0.0000   -3.6073    0.0000 C   0  0  0  0  0  0  0  0  0  0  0  0
    1.2135   -2.7256    0.0000 N   0  0  0  0  0  0  0  0  0  0  0  0
    0.7500   -1.2990    0.0000 C   0  0  0  0  0  0  0  0  0  0  0  0
    1.5000    0.0000    0.0000 C   0  0  0  0  0  0  0  0  0  0  0  0
    0.7500    1.2990    0.0000 C   0  0  0  0  0  0  0  0  0  0  0  0
   -0.7500    1.2990    0.0000 C   0  0  0  0  0  0  0  0  0  0  0  0
   -1.5000    0.0000    0.0000 N   0  0  0  0  0  0  0  0  0  0  0  0
   -0.7500   -1.2990    0.0000 N   0  0  0  0  0  0  0  0  0  0  0  0
   -3.7548   -2.1855    0.0000 N   0  0  0  0  0  0  0  0  0  0  0  0
   -7.0990    0.8256    0.0000 C   0  0  0  0  0  0  0  0  0  0  0  0
   -6.7871    2.2929    0.0000 C   0  0  0  0  0  0  0  0  0  0  0  0
  1  2  1  0
  2  3  1  0
  3  4  2  0
  3  5  2  0
  3  6  1  0
  6  7  2  0
  7  8  1  0
  8  9  2  0
  9 10  1  0
 10 11  1  0
 11 12  2  0
 12 13  1  0
 13 14  2  0
 14 15  1  0
 15 16  1  0
 16 17  2  0
 17 18  1  0
 18 19  2  0
 19 20  1  0
 20 21  2  0
 21 22  1  0
 22 23  2  0
 23 24  1  0
 15 25  2  0
  9 26  1  0
 26 27  2  0
 27  6  1  0
 25 11  1  0
 24 16  1  0
 24 19  1  0
M  END
>  <Compound_ID>  (101) 
CHEMBL520003

>  <Active>  (101) 
1.0

>  <Smiles>  (101) 
CNS(=O)(=O)c1ccc(Nc2nccc(-c3cnc4cccnn34)n2)cc1

>  <canonical_smi>  (101) 
CNS(=O)(=O)c1ccc(Nc2nccc(-c3cnc4cccnn34)n2)cc1

>  <Set>  (101) 
G2 active

>  <Set_type>  (101) 
Train

>  <MW>  (101) 
381.42

>  <HBD>  (101) 
2

>  <HBA>  (101) 
7

>  <NRB>  (101) 
5

>  <NR>  (101) 
4

>  <NAR>  (101) 
4

>  <PSA>  (101) 
114.17

>  <Standard Type>  (101) 
nan

>  <Standard Relation>  (101) 
nan

>  <Standard Units>  (101) 
nan

>  <Standard Value>  (101) 
nan

>  <Assay ChEMBL ID>  (101) 
nan

>  <Assay Description>  (101) 
nan

>  <BAO Label>  (101) 
nan

$$$$

     RDKit          2D

 27 31  0  0  0  0  0  0  0  0999 V2000
   -4.2458    1.7527    0.0000 C   0  0  0  0  0  0  0  0  0  0  0  0
   -4.5577    0.2855    0.0000 C   0  0  0  0  0  0  0  0  0  0  0  0
   -5.9843   -0.1781    0.0000 C   0  0  0  0  0  0  0  0  0  0  0  0
   -6.2961   -1.6453    0.0000 N   0  0  0  0  0  0  0  0  0  0  0  0
   -5.1814   -2.6490    0.0000 C   0  0  0  0  0  0  0  0  0  0  0  0
   -5.4933   -4.1162    0.0000 N   0  0  0  0  0  0  0  0  0  0  0  0
   -4.3786   -5.1199    0.0000 C   0  0  0  0  0  0  0  0  0  0  0  0
   -2.9520   -4.6564    0.0000 C   0  0  0  0  0  0  0  0  0  0  0  0
   -2.6401   -3.1891    0.0000 C   0  0  0  0  0  0  0  0  0  0  0  0
   -1.2135   -2.7256    0.0000 C   0  0  0  0  0  0  0  0  0  0  0  0
   -0.0000   -3.6073    0.0000 C   0  0  0  0  0  0  0  0  0  0  0  0
    1.2135   -2.7256    0.0000 N   0  0  0  0  0  0  0  0  0  0  0  0
    0.7500   -1.2990    0.0000 N   0  0  0  0  0  0  0  0  0  0  0  0
    1.5000    0.0000    0.0000 N   0  0  0  0  0  0  0  0  0  0  0  0
    0.7500    1.2990    0.0000 C   0  0  0  0  0  0  0  0  0  0  0  0
   -0.7500    1.2990    0.0000 C   0  0  0  0  0  0  0  0  0  0  0  0
   -1.5000    0.0000    0.0000 C   0  0  0  0  0  0  0  0  0  0  0  0
   -0.7500   -1.2990    0.0000 C   0  0  0  0  0  0  0  0  0  0  0  0
   -3.7548   -2.1855    0.0000 N   0  0  0  0  0  0  0  0  0  0  0  0
   -7.0990    0.8256    0.0000 C   0  0  0  0  0  0  0  0  0  0  0  0
   -6.7871    2.2929    0.0000 C   0  0  0  0  0  0  0  0  0  0  0  0
   -7.9018    3.2966    0.0000 C   0  0  0  0  0  0  0  0  0  0  0  0
   -9.3691    2.9847    0.0000 C   0  0  0  0  0  0  0  0  0  0  0  0
  -10.1191    4.2837    0.0000 O   0  0  0  0  0  0  0  0  0  0  0  0
   -9.1154    5.3984    0.0000 C   0  0  0  0  0  0  0  0  0  0  0  0
   -7.7450    4.7883    0.0000 N   0  0  0  0  0  0  0  0  0  0  0  0
   -5.3605    2.7564    0.0000 C   0  0  0  0  0  0  0  0  0  0  0  0
  1  2  2  0
  2  3  1  0
  3  4  1  0
  4  5  1  0
  5  6  2  0
  6  7  1  0
  7  8  2  0
  8  9  1  0
  9 10  1  0
 10 11  1  0
 11 12  2  0
 12 13  1  0
 13 14  1  0
 14 15  2  0
 15 16  1  0
 16 17  2  0
 17 18  1  0
  9 19  2  0
  3 20  2  0
 20 21  1  0
 21 22  1  0
 22 23  2  0
 23 24  1  0
 24 25  1  0
 25 26  2  0
 21 27  2  0
 27  1  1  0
 19  5  1  0
 26 22  1  0
 18 10  2  0
 18 13  1  0
M  END
>  <Compound_ID>  (102) 
CHEMBL497564

>  <Active>  (102) 
1.0

>  <Smiles>  (102) 
c1cc(Nc2nccc(-c3cnn4ncccc34)n2)cc(-c2cocn2)c1

>  <canonical_smi>  (102) 
c1cc(Nc2nccc(-c3cnn4ncccc34)n2)cc(-c2cocn2)c1

>  <Set>  (102) 
G2 active

>  <Set_type>  (102) 
Train

>  <MW>  (102) 
355.36

>  <HBD>  (102) 
1

>  <HBA>  (102) 
7

>  <NRB>  (102) 
4

>  <NR>  (102) 
5

>  <NAR>  (102) 
5

>  <PSA>  (102) 
94.03

>  <Standard Type>  (102) 
nan

>  <Standard Relation>  (102) 
nan

>  <Standard Units>  (102) 
nan

>  <Standard Value>  (102) 
nan

>  <Assay ChEMBL ID>  (102) 
nan

>  <Assay Description>  (102) 
nan

>  <BAO Label>  (102) 
nan

$$$$

     RDKit          2D

 32 36  0  0  0  0  0  0  0  0999 V2000
  -10.1878   -4.1483    0.0000 O   0  0  0  0  0  0  0  0  0  0  0  0
   -8.8888   -4.8983    0.0000 S   0  0  0  0  0  0  0  0  0  0  0  0
   -7.5897   -5.6483    0.0000 O   0  0  0  0  0  0  0  0  0  0  0  0
   -9.6388   -6.1973    0.0000 N   0  0  0  0  0  0  0  0  0  0  0  0
   -8.8888   -7.4964    0.0000 C   0  0  0  0  0  0  0  0  0  0  0  0
   -9.6388   -8.7954    0.0000 C   0  0  0  0  0  0  0  0  0  0  0  0
   -8.8888  -10.0944    0.0000 C   0  0  0  0  0  0  0  0  0  0  0  0
   -7.3970  -10.2512    0.0000 C   0  0  0  0  0  0  0  0  0  0  0  0
   -7.0851  -11.7185    0.0000 N   0  0  0  0  0  0  0  0  0  0  0  0
   -8.3842  -12.4685    0.0000 C   0  0  0  0  0  0  0  0  0  0  0  0
   -9.4989  -11.4648    0.0000 N   0  0  0  0  0  0  0  0  0  0  0  0
   -8.1388   -3.5992    0.0000 C   0  0  0  0  0  0  0  0  0  0  0  0
   -6.6388   -3.5992    0.0000 C   0  0  0  0  0  0  0  0  0  0  0  0
   -5.8888   -2.3002    0.0000 C   0  0  0  0  0  0  0  0  0  0  0  0
   -6.6388   -1.0012    0.0000 C   0  0  0  0  0  0  0  0  0  0  0  0
   -5.8888    0.2979    0.0000 N   0  0  0  0  0  0  0  0  0  0  0  0
   -4.3888    0.2979    0.0000 C   0  0  0  0  0  0  0  0  0  0  0  0
   -3.6388    1.5969    0.0000 C   0  0  0  0  0  0  0  0  0  0  0  0
   -4.2489    2.9672    0.0000 C   0  0  0  0  0  0  0  0  0  0  0  0
   -5.7161    3.2791    0.0000 O   0  0  0  0  0  0  0  0  0  0  0  0
   -3.1342    3.9709    0.0000 N   0  0  0  0  0  0  0  0  0  0  0  0
   -1.8351    3.2209    0.0000 C   0  0  0  0  0  0  0  0  0  0  0  0
   -0.4086    3.6844    0.0000 C   0  0  0  0  0  0  0  0  0  0  0  0
    0.7062    2.6807    0.0000 C   0  0  0  0  0  0  0  0  0  0  0  0
    0.3943    1.2135    0.0000 C   0  0  0  0  0  0  0  0  0  0  0  0
    1.2760    0.0000    0.0000 N   0  0  0  0  0  0  0  0  0  0  0  0
    0.3943   -1.2135    0.0000 C   0  0  0  0  0  0  0  0  0  0  0  0
   -1.0323   -0.7500    0.0000 S   0  0  0  0  0  0  0  0  0  0  0  0
   -1.0323    0.7500    0.0000 C   0  0  0  0  0  0  0  0  0  0  0  0
   -2.1470    1.7537    0.0000 C   0  0  0  0  0  0  0  0  0  0  0  0
   -8.1388   -1.0012    0.0000 C   0  0  0  0  0  0  0  0  0  0  0  0
   -8.8888   -2.3002    0.0000 C   0  0  0  0  0  0  0  0  0  0  0  0
  1  2  2  0
  2  3  2  0
  2  4  1  0
  4  5  1  0
  5  6  1  0
  6  7  1  0
  7  8  2  0
  8  9  1  0
  9 10  1  0
 10 11  2  0
  2 12  1  0
 12 13  2  0
 13 14  1  0
 14 15  2  0
 15 16  1  0
 16 17  2  0
 17 18  1  0
 18 19  2  0
 19 20  1  0
 19 21  1  0
 21 22  1  0
 22 23  2  0
 23 24  1  0
 24 25  2  0
 25 26  1  0
 26 27  2  0
 27 28  1  0
 28 29  1  0
 29 30  2  0
 15 31  1  0
 31 32  2  0
 11  7  1  0
 32 12  1  0
 30 18  1  0
 30 22  1  0
 29 25  1  0
M  END
>  <Compound_ID>  (103) 
CHEMBL136575

>  <Active>  (103) 
1.0

>  <Smiles>  (103) 
O=S(=O)(NCCc1c[nH]cn1)c1ccc(/N=C/c2c(O)[nH]c3ccc4ncsc4c23)cc1

>  <canonical_smi>  (103) 
O=S(=O)(NCCc1c[nH]cn1)c1ccc(/N=C/c2c(O)[nH]c3ccc4ncsc4c23)cc1

>  <Set>  (103) 
G2 active

>  <Set_type>  (103) 
Train

>  <MW>  (103) 
466.55

>  <HBD>  (103) 
4

>  <HBA>  (103) 
5

>  <NRB>  (103) 
7

>  <NR>  (103) 
5

>  <NAR>  (103) 
5

>  <PSA>  (103) 
136.12

>  <Standard Type>  (103) 
nan

>  <Standard Relation>  (103) 
nan

>  <Standard Units>  (103) 
nan

>  <Standard Value>  (103) 
nan

>  <Assay ChEMBL ID>  (103) 
nan

>  <Assay Description>  (103) 
nan

>  <BAO Label>  (103) 
nan

$$$$

     RDKit          2D

 23 25  0  0  0  0  0  0  0  0999 V2000
   -4.1592  -15.1085    0.0000 C   0  0  0  0  0  0  0  0  0  0  0  0
   -3.4092  -13.8094    0.0000 C   0  0  0  0  0  0  0  0  0  0  0  0
   -4.1592  -12.5104    0.0000 O   0  0  0  0  0  0  0  0  0  0  0  0
   -1.9092  -13.8094    0.0000 N   0  0  0  0  0  0  0  0  0  0  0  0
   -1.1592  -12.5104    0.0000 C   0  0  0  0  0  0  0  0  0  0  0  0
    0.3326  -12.3536    0.0000 N   0  0  0  0  0  0  0  0  0  0  0  0
    0.6445  -10.8864    0.0000 C   0  0  0  0  0  0  0  0  0  0  0  0
   -0.6546  -10.1364    0.0000 C   0  0  0  0  0  0  0  0  0  0  0  0
   -0.8113   -8.6446    0.0000 S   0  0  0  0  0  0  0  0  0  0  0  0
    0.4022   -7.7629    0.0000 C   0  0  0  0  0  0  0  0  0  0  0  0
    0.2454   -6.2711    0.0000 C   0  0  0  0  0  0  0  0  0  0  0  0
   -1.0537   -5.5211    0.0000 N   0  0  0  0  0  0  0  0  0  0  0  0
   -0.7418   -4.0539    0.0000 C   0  0  0  0  0  0  0  0  0  0  0  0
    0.7500   -3.8971    0.0000 C   0  0  0  0  0  0  0  0  0  0  0  0
    1.5000   -2.5981    0.0000 C   0  0  0  0  0  0  0  0  0  0  0  0
    0.7500   -1.2990    0.0000 C   0  0  0  0  0  0  0  0  0  0  0  0
    1.5000    0.0000    0.0000 C   0  0  0  0  0  0  0  0  0  0  0  0
    0.7500    1.2990    0.0000 C   0  0  0  0  0  0  0  0  0  0  0  0
   -0.7500    1.2990    0.0000 C   0  0  0  0  0  0  0  0  0  0  0  0
   -1.5000    0.0000    0.0000 C   0  0  0  0  0  0  0  0  0  0  0  0
   -0.7500   -1.2990    0.0000 C   0  0  0  0  0  0  0  0  0  0  0  0
    1.3601   -5.2674    0.0000 O   0  0  0  0  0  0  0  0  0  0  0  0
   -1.7693  -11.1401    0.0000 S   0  0  0  0  0  0  0  0  0  0  0  0
  1  2  1  0
  2  3  2  0
  2  4  1  0
  4  5  1  0
  5  6  2  0
  6  7  1  0
  7  8  2  0
  8  9  1  0
  9 10  1  0
 10 11  1  0
 11 12  2  0
 12 13  1  0
 13 14  2  0
 14 15  1  0
 15 16  1  0
 16 17  1  0
 17 18  1  0
 18 19  1  0
 19 20  1  0
 20 21  1  0
 14 22  1  0
  8 23  1  0
 23  5  1  0
 22 11  1  0
 21 16  1  0
M  END
>  <Compound_ID>  (104) 
CHEMBL126328

>  <Active>  (104) 
1.0

>  <Smiles>  (104) 
CC(=O)Nc1ncc(SCc2ncc(CC3CCCCC3)o2)s1

>  <canonical_smi>  (104) 
CC(=O)Nc1ncc(SCc2ncc(CC3CCCCC3)o2)s1

>  <Set>  (104) 
G2 active

>  <Set_type>  (104) 
Train

>  <MW>  (104) 
351.5

>  <HBD>  (104) 
1

>  <HBA>  (104) 
5

>  <NRB>  (104) 
6

>  <NR>  (104) 
3

>  <NAR>  (104) 
2

>  <PSA>  (104) 
68.02

>  <Standard Type>  (104) 
nan

>  <Standard Relation>  (104) 
nan

>  <Standard Units>  (104) 
nan

>  <Standard Value>  (104) 
nan

>  <Assay ChEMBL ID>  (104) 
nan

>  <Assay Description>  (104) 
nan

>  <BAO Label>  (104) 
nan

$$$$

     RDKit          2D

 25 28  0  0  0  0  0  0  0  0999 V2000
   -0.7500   -3.8971    0.0000 O   0  0  0  0  0  0  0  0  0  0  0  0
    0.7500   -3.8971    0.0000 C   0  0  0  0  0  0  0  0  0  0  0  0
    1.5000   -2.5981    0.0000 C   0  0  0  0  0  0  0  0  0  0  0  0
    0.7500   -1.2990    0.0000 C   0  0  0  0  0  0  0  0  0  0  0  0
    1.5000    0.0000    0.0000 C   0  0  0  0  0  0  0  0  0  0  0  0
    0.7500    1.2990    0.0000 C   0  0  0  0  0  0  0  0  0  0  0  0
   -0.7500    1.2990    0.0000 C   0  0  0  0  0  0  0  0  0  0  0  0
   -1.5000    2.5981    0.0000 C   0  0  0  0  0  0  0  0  0  0  0  0
   -0.7500    3.8971    0.0000 C   0  0  0  0  0  0  0  0  0  0  0  0
   -1.5000    5.1962    0.0000 C   0  0  0  0  0  0  0  0  0  0  0  0
   -3.0000    5.1962    0.0000 C   0  0  0  0  0  0  0  0  0  0  0  0
   -3.7500    3.8971    0.0000 C   0  0  0  0  0  0  0  0  0  0  0  0
   -3.0000    2.5981    0.0000 C   0  0  0  0  0  0  0  0  0  0  0  0
   -1.5000    0.0000    0.0000 C   0  0  0  0  0  0  0  0  0  0  0  0
   -3.0000    0.0000    0.0000 F   0  0  0  0  0  0  0  0  0  0  0  0
   -0.7500   -1.2990    0.0000 C   0  0  0  0  0  0  0  0  0  0  0  0
    1.5000   -5.1962    0.0000 N   0  0  0  0  0  0  0  0  0  0  0  0
    0.7500   -6.4952    0.0000 C   0  0  0  0  0  0  0  0  0  0  0  0
    1.3601   -7.8655    0.0000 C   0  0  0  0  0  0  0  0  0  0  0  0
    0.2454   -8.8692    0.0000 C   0  0  0  0  0  0  0  0  0  0  0  0
    0.4022  -10.3610    0.0000 C   0  0  0  0  0  0  0  0  0  0  0  0
    1.2839  -11.5745    0.0000 C   0  0  0  0  0  0  0  0  0  0  0  0
   -0.2079  -11.7313    0.0000 C   0  0  0  0  0  0  0  0  0  0  0  0
   -1.0537   -8.1192    0.0000 N   0  0  0  0  0  0  0  0  0  0  0  0
   -0.7418   -6.6520    0.0000 N   0  0  0  0  0  0  0  0  0  0  0  0
  1  2  2  0
  2  3  1  0
  3  4  1  0
  4  5  2  0
  5  6  1  0
  6  7  2  0
  7  8  1  0
  8  9  2  0
  9 10  1  0
 10 11  2  0
 11 12  1  0
 12 13  2  0
  7 14  1  0
 14 15  1  0
 14 16  2  0
  2 17  1  0
 17 18  1  0
 18 19  1  0
 19 20  2  0
 20 21  1  0
 21 22  1  0
 22 23  1  0
 20 24  1  0
 24 25  1  0
 16  4  1  0
 25 18  2  0
 13  8  1  0
 23 21  1  0
M  END
>  <Compound_ID>  (105) 
CHEMBL489477

>  <Active>  (105) 
1.0

>  <Smiles>  (105) 
O=C(Cc1ccc(-c2ccccc2)c(F)c1)Nc1cc(C2CC2)[nH]n1

>  <canonical_smi>  (105) 
O=C(Cc1ccc(-c2ccccc2)c(F)c1)Nc1cc(C2CC2)[nH]n1

>  <Set>  (105) 
G2 active

>  <Set_type>  (105) 
Train

>  <MW>  (105) 
335.38

>  <HBD>  (105) 
2

>  <HBA>  (105) 
2

>  <NRB>  (105) 
5

>  <NR>  (105) 
4

>  <NAR>  (105) 
3

>  <PSA>  (105) 
57.78

>  <Standard Type>  (105) 
nan

>  <Standard Relation>  (105) 
nan

>  <Standard Units>  (105) 
nan

>  <Standard Value>  (105) 
nan

>  <Assay ChEMBL ID>  (105) 
nan

>  <Assay Description>  (105) 
nan

>  <BAO Label>  (105) 
nan

$$$$

     RDKit          2D

 33 37  0  0  0  0  0  0  0  0999 V2000
   -4.1131    8.6253    0.0000 C   0  0  0  0  0  0  0  0  0  0  0  0
   -4.4249    7.1580    0.0000 N   0  0  0  0  0  0  0  0  0  0  0  0
   -3.3102    6.1544    0.0000 C   0  0  0  0  0  0  0  0  0  0  0  0
   -3.6221    4.6871    0.0000 C   0  0  0  0  0  0  0  0  0  0  0  0
   -5.0487    4.2236    0.0000 N   0  0  0  0  0  0  0  0  0  0  0  0
   -5.3605    2.7564    0.0000 C   0  0  0  0  0  0  0  0  0  0  0  0
   -6.7871    2.2929    0.0000 C   0  0  0  0  0  0  0  0  0  0  0  0
   -7.0990    0.8256    0.0000 C   0  0  0  0  0  0  0  0  0  0  0  0
   -5.9843   -0.1781    0.0000 C   0  0  0  0  0  0  0  0  0  0  0  0
   -6.2961   -1.6453    0.0000 N   0  0  0  0  0  0  0  0  0  0  0  0
   -5.1814   -2.6490    0.0000 C   0  0  0  0  0  0  0  0  0  0  0  0
   -5.4933   -4.1162    0.0000 N   0  0  0  0  0  0  0  0  0  0  0  0
   -4.3786   -5.1199    0.0000 C   0  0  0  0  0  0  0  0  0  0  0  0
   -2.9520   -4.6564    0.0000 C   0  0  0  0  0  0  0  0  0  0  0  0
   -2.6401   -3.1891    0.0000 C   0  0  0  0  0  0  0  0  0  0  0  0
   -1.2135   -2.7256    0.0000 C   0  0  0  0  0  0  0  0  0  0  0  0
   -0.0000   -3.6073    0.0000 C   0  0  0  0  0  0  0  0  0  0  0  0
    1.2135   -2.7256    0.0000 N   0  0  0  0  0  0  0  0  0  0  0  0
    0.7500   -1.2990    0.0000 N   0  0  0  0  0  0  0  0  0  0  0  0
    1.5000    0.0000    0.0000 N   0  0  0  0  0  0  0  0  0  0  0  0
    0.7500    1.2990    0.0000 C   0  0  0  0  0  0  0  0  0  0  0  0
   -0.7500    1.2990    0.0000 C   0  0  0  0  0  0  0  0  0  0  0  0
   -1.5000    0.0000    0.0000 C   0  0  0  0  0  0  0  0  0  0  0  0
   -0.7500   -1.2990    0.0000 C   0  0  0  0  0  0  0  0  0  0  0  0
   -3.7548   -2.1855    0.0000 N   0  0  0  0  0  0  0  0  0  0  0  0
   -4.5577    0.2855    0.0000 C   0  0  0  0  0  0  0  0  0  0  0  0
   -4.2458    1.7527    0.0000 C   0  0  0  0  0  0  0  0  0  0  0  0
   -2.8192    2.2162    0.0000 C   0  0  0  0  0  0  0  0  0  0  0  0
   -1.3926    2.6797    0.0000 F   0  0  0  0  0  0  0  0  0  0  0  0
   -2.3557    0.7896    0.0000 F   0  0  0  0  0  0  0  0  0  0  0  0
   -3.2828    3.6428    0.0000 F   0  0  0  0  0  0  0  0  0  0  0  0
   -6.1634    5.2273    0.0000 C   0  0  0  0  0  0  0  0  0  0  0  0
   -5.8515    6.6945    0.0000 C   0  0  0  0  0  0  0  0  0  0  0  0
  1  2  1  0
  2  3  1  0
  3  4  1  0
  4  5  1  0
  5  6  1  0
  6  7  2  0
  7  8  1  0
  8  9  2  0
  9 10  1  0
 10 11  1  0
 11 12  2  0
 12 13  1  0
 13 14  2  0
 14 15  1  0
 15 16  1  0
 16 17  1  0
 17 18  2  0
 18 19  1  0
 19 20  1  0
 20 21  2  0
 21 22  1  0
 22 23  2  0
 23 24  1  0
 15 25  2  0
  9 26  1  0
 26 27  2  0
 27 28  1  0
 28 29  1  0
 28 30  1  0
 28 31  1  0
  5 32  1  0
 32 33  1  0
 33  2  1  0
 27  6  1  0
 25 11  1  0
 24 16  2  0
 24 19  1  0
M  END
>  <Compound_ID>  (106) 
CHEMBL468963

>  <Active>  (106) 
1.0

>  <Smiles>  (106) 
CN1CCN(c2ccc(Nc3nccc(-c4cnn5ncccc45)n3)cc2C(F)(F)F)CC1

>  <canonical_smi>  (106) 
CN1CCN(c2ccc(Nc3nccc(-c4cnn5ncccc45)n3)cc2C(F)(F)F)CC1

>  <Set>  (106) 
G2 active

>  <Set_type>  (106) 
Train

>  <MW>  (106) 
454.46

>  <HBD>  (106) 
1

>  <HBA>  (106) 
7

>  <NRB>  (106) 
4

>  <NR>  (106) 
5

>  <NAR>  (106) 
4

>  <PSA>  (106) 
74.48

>  <Standard Type>  (106) 
nan

>  <Standard Relation>  (106) 
nan

>  <Standard Units>  (106) 
nan

>  <Standard Value>  (106) 
nan

>  <Assay ChEMBL ID>  (106) 
nan

>  <Assay Description>  (106) 
nan

>  <BAO Label>  (106) 
nan

$$$$

     RDKit          2D

 34 39  0  0  0  0  0  0  0  0999 V2000
   -0.7500   -6.4952    0.0000 C   0  0  0  0  0  0  0  0  0  0  0  0
    0.7500   -6.4952    0.0000 O   0  0  0  0  0  0  0  0  0  0  0  0
    1.5000   -5.1962    0.0000 C   0  0  0  0  0  0  0  0  0  0  0  0
    0.7500   -3.8971    0.0000 C   0  0  0  0  0  0  0  0  0  0  0  0
    1.5000   -2.5981    0.0000 C   0  0  0  0  0  0  0  0  0  0  0  0
    0.7500   -1.2990    0.0000 C   0  0  0  0  0  0  0  0  0  0  0  0
    1.5000    0.0000    0.0000 C   0  0  0  0  0  0  0  0  0  0  0  0
    0.7500    1.2990    0.0000 C   0  0  0  0  0  0  0  0  0  0  0  0
   -0.7500    1.2990    0.0000 C   0  0  0  0  0  0  0  0  0  0  0  0
   -1.7537    2.4138    0.0000 C   0  0  0  0  0  0  0  0  0  0  0  0
   -1.4418    3.8810    0.0000 C   0  0  0  0  0  0  0  0  0  0  0  0
   -0.0715    4.4911    0.0000 N   0  0  0  0  0  0  0  0  0  0  0  0
   -0.2283    5.9829    0.0000 C   0  0  0  0  0  0  0  0  0  0  0  0
    0.7754    7.0976    0.0000 C   0  0  0  0  0  0  0  0  0  0  0  0
    2.2426    6.7857    0.0000 N   0  0  0  0  0  0  0  0  0  0  0  0
    2.7061    5.3591    0.0000 C   0  0  0  0  0  0  0  0  0  0  0  0
    4.1734    5.0473    0.0000 C   0  0  0  0  0  0  0  0  0  0  0  0
    5.1771    6.1620    0.0000 N   0  0  0  0  0  0  0  0  0  0  0  0
    6.6443    5.8501    0.0000 C   0  0  0  0  0  0  0  0  0  0  0  0
    4.7135    7.5886    0.0000 C   0  0  0  0  0  0  0  0  0  0  0  0
    3.2463    7.9004    0.0000 C   0  0  0  0  0  0  0  0  0  0  0  0
    0.3119    8.5242    0.0000 C   0  0  0  0  0  0  0  0  0  0  0  0
   -1.1554    8.8360    0.0000 C   0  0  0  0  0  0  0  0  0  0  0  0
   -2.1590    7.7213    0.0000 C   0  0  0  0  0  0  0  0  0  0  0  0
   -1.6955    6.2947    0.0000 C   0  0  0  0  0  0  0  0  0  0  0  0
   -2.4455    4.9957    0.0000 N   0  0  0  0  0  0  0  0  0  0  0  0
   -3.1240    1.8037    0.0000 N   0  0  0  0  0  0  0  0  0  0  0  0
   -2.9672    0.3119    0.0000 N   0  0  0  0  0  0  0  0  0  0  0  0
   -1.5000    0.0000    0.0000 C   0  0  0  0  0  0  0  0  0  0  0  0
   -0.7500   -1.2990    0.0000 C   0  0  0  0  0  0  0  0  0  0  0  0
    3.0000   -2.5981    0.0000 C   0  0  0  0  0  0  0  0  0  0  0  0
    3.7500   -3.8971    0.0000 C   0  0  0  0  0  0  0  0  0  0  0  0
    3.0000   -5.1962    0.0000 C   0  0  0  0  0  0  0  0  0  0  0  0
    3.7500   -6.4952    0.0000 O   0  0  0  0  0  0  0  0  0  0  0  0
  1  2  1  0
  2  3  1  0
  3  4  2  0
  4  5  1  0
  5  6  1  0
  6  7  2  0
  7  8  1  0
  8  9  2  0
  9 10  1  0
 10 11  1  0
 11 12  2  0
 12 13  1  0
 13 14  2  0
 14 15  1  0
 15 16  1  0
 16 17  1  0
 17 18  1  0
 18 19  1  0
 18 20  1  0
 20 21  1  0
 14 22  1  0
 22 23  2  0
 23 24  1  0
 24 25  2  0
 25 26  1  0
 10 27  2  0
 27 28  1  0
 28 29  1  0
 29 30  2  0
  5 31  2  0
 31 32  1  0
 32 33  2  0
 33 34  1  0
 33  3  1  0
 30  6  1  0
 29  9  1  0
 26 11  1  0
 25 13  1  0
 21 15  1  0
M  END
>  <Compound_ID>  (107) 
CHEMBL514197

>  <Active>  (107) 
1.0

>  <Smiles>  (107) 
COc1cc(-c2ccc3c(-c4nc5c(N6CCN(C)CC6)cccc5[nH]4)n[nH]c3c2)ccc1O

>  <canonical_smi>  (107) 
COc1cc(-c2ccc3c(-c4nc5c(N6CCN(C)CC6)cccc5[nH]4)n[nH]c3c2)ccc1O

>  <Set>  (107) 
G2 active

>  <Set_type>  (107) 
Train

>  <MW>  (107) 
454.53

>  <HBD>  (107) 
3

>  <HBA>  (107) 
6

>  <NRB>  (107) 
4

>  <NR>  (107) 
6

>  <NAR>  (107) 
5

>  <PSA>  (107) 
93.3

>  <Standard Type>  (107) 
nan

>  <Standard Relation>  (107) 
nan

>  <Standard Units>  (107) 
nan

>  <Standard Value>  (107) 
nan

>  <Assay ChEMBL ID>  (107) 
nan

>  <Assay Description>  (107) 
nan

>  <BAO Label>  (107) 
nan

$$$$

     RDKit          2D

 24 26  0  0  0  0  0  0  0  0999 V2000
   -3.4092  -16.4075    0.0000 C   0  0  0  0  0  0  0  0  0  0  0  0
   -1.9092  -16.4075    0.0000 C   0  0  0  0  0  0  0  0  0  0  0  0
   -1.1592  -15.1085    0.0000 C   0  0  0  0  0  0  0  0  0  0  0  0
    0.3326  -14.9517    0.0000 C   0  0  0  0  0  0  0  0  0  0  0  0
    0.6445  -13.4844    0.0000 N   0  0  0  0  0  0  0  0  0  0  0  0
   -0.6546  -12.7344    0.0000 C   0  0  0  0  0  0  0  0  0  0  0  0
   -0.8113  -11.2427    0.0000 C   0  0  0  0  0  0  0  0  0  0  0  0
    0.4022  -10.3610    0.0000 S   0  0  0  0  0  0  0  0  0  0  0  0
    0.2454   -8.8692    0.0000 C   0  0  0  0  0  0  0  0  0  0  0  0
   -1.0537   -8.1192    0.0000 C   0  0  0  0  0  0  0  0  0  0  0  0
   -0.7418   -6.6520    0.0000 N   0  0  0  0  0  0  0  0  0  0  0  0
    0.7500   -6.4952    0.0000 C   0  0  0  0  0  0  0  0  0  0  0  0
    1.5000   -5.1962    0.0000 N   0  0  0  0  0  0  0  0  0  0  0  0
    0.7500   -3.8971    0.0000 C   0  0  0  0  0  0  0  0  0  0  0  0
   -0.7500   -3.8971    0.0000 O   0  0  0  0  0  0  0  0  0  0  0  0
    1.5000   -2.5981    0.0000 C   0  0  0  0  0  0  0  0  0  0  0  0
    0.7500   -1.2990    0.0000 C   0  0  0  0  0  0  0  0  0  0  0  0
    1.5000    0.0000    0.0000 C   0  0  0  0  0  0  0  0  0  0  0  0
    0.7500    1.2990    0.0000 C   0  0  0  0  0  0  0  0  0  0  0  0
   -0.7500    1.2990    0.0000 C   0  0  0  0  0  0  0  0  0  0  0  0
   -1.5000    0.0000    0.0000 N   0  0  0  0  0  0  0  0  0  0  0  0
   -0.7500   -1.2990    0.0000 C   0  0  0  0  0  0  0  0  0  0  0  0
    1.3601   -7.8655    0.0000 S   0  0  0  0  0  0  0  0  0  0  0  0
   -1.7693  -13.7381    0.0000 O   0  0  0  0  0  0  0  0  0  0  0  0
  1  2  1  0
  2  3  1  0
  3  4  2  0
  4  5  1  0
  5  6  2  0
  6  7  1  0
  7  8  1  0
  8  9  1  0
  9 10  2  0
 10 11  1  0
 11 12  2  0
 12 13  1  0
 13 14  1  0
 14 15  2  0
 14 16  1  0
 16 17  1  0
 17 18  2  0
 18 19  1  0
 19 20  2  0
 20 21  1  0
 21 22  2  0
 12 23  1  0
  6 24  1  0
 24  3  1  0
 23  9  1  0
 22 17  1  0
M  END
>  <Compound_ID>  (108) 
CHEMBL129396

>  <Active>  (108) 
1.0

>  <Smiles>  (108) 
CCc1cnc(CSc2cnc(NC(=O)Cc3cccnc3)s2)o1

>  <canonical_smi>  (108) 
CCc1cnc(CSc2cnc(NC(=O)Cc3cccnc3)s2)o1

>  <Set>  (108) 
G2 active

>  <Set_type>  (108) 
Train

>  <MW>  (108) 
360.46

>  <HBD>  (108) 
1

>  <HBA>  (108) 
6

>  <NRB>  (108) 
7

>  <NR>  (108) 
3

>  <NAR>  (108) 
3

>  <PSA>  (108) 
80.91

>  <Standard Type>  (108) 
nan

>  <Standard Relation>  (108) 
nan

>  <Standard Units>  (108) 
nan

>  <Standard Value>  (108) 
nan

>  <Assay ChEMBL ID>  (108) 
nan

>  <Assay Description>  (108) 
nan

>  <BAO Label>  (108) 
nan

$$$$

     RDKit          2D

 22 25  0  0  0  0  0  0  0  0999 V2000
   -1.8373   -5.6601    0.0000 O   0  0  0  0  0  0  0  0  0  0  0  0
   -2.9520   -4.6564    0.0000 C   0  0  0  0  0  0  0  0  0  0  0  0
   -2.6401   -3.1891    0.0000 N   0  0  0  0  0  0  0  0  0  0  0  0
   -1.2135   -2.7256    0.0000 C   0  0  0  0  0  0  0  0  0  0  0  0
   -0.0000   -3.6073    0.0000 N   0  0  0  0  0  0  0  0  0  0  0  0
    1.2135   -2.7256    0.0000 N   0  0  0  0  0  0  0  0  0  0  0  0
    0.7500   -1.2990    0.0000 C   0  0  0  0  0  0  0  0  0  0  0  0
    1.5000    0.0000    0.0000 C   0  0  0  0  0  0  0  0  0  0  0  0
    0.7500    1.2990    0.0000 C   0  0  0  0  0  0  0  0  0  0  0  0
    1.5000    2.5981    0.0000 C   0  0  0  0  0  0  0  0  0  0  0  0
    3.0000    2.5981    0.0000 C   0  0  0  0  0  0  0  0  0  0  0  0
    3.7500    3.8971    0.0000 C   0  0  0  0  0  0  0  0  0  0  0  0
    3.0000    5.1962    0.0000 C   0  0  0  0  0  0  0  0  0  0  0  0
    3.7500    6.4952    0.0000 O   0  0  0  0  0  0  0  0  0  0  0  0
    1.5000    5.1962    0.0000 C   0  0  0  0  0  0  0  0  0  0  0  0
    0.7500    3.8971    0.0000 C   0  0  0  0  0  0  0  0  0  0  0  0
   -0.7500    1.2990    0.0000 C   0  0  0  0  0  0  0  0  0  0  0  0
   -1.5000    0.0000    0.0000 C   0  0  0  0  0  0  0  0  0  0  0  0
   -0.7500   -1.2990    0.0000 C   0  0  0  0  0  0  0  0  0  0  0  0
   -4.3786   -5.1199    0.0000 C   0  0  0  0  0  0  0  0  0  0  0  0
   -5.3823   -6.2346    0.0000 C   0  0  0  0  0  0  0  0  0  0  0  0
   -5.8458   -4.8080    0.0000 C   0  0  0  0  0  0  0  0  0  0  0  0
  1  2  2  0
  2  3  1  0
  3  4  1  0
  4  5  2  0
  5  6  1  0
  6  7  1  0
  7  8  2  0
  8  9  1  0
  9 10  1  0
 10 11  2  0
 11 12  1  0
 12 13  2  0
 13 14  1  0
 13 15  1  0
 15 16  2  0
  9 17  2  0
 17 18  1  0
 18 19  2  0
  2 20  1  0
 20 21  1  0
 21 22  1  0
 19  4  1  0
 22 20  1  0
 19  7  1  0
 16 10  1  0
M  END
>  <Compound_ID>  (109) 
CHEMBL260163

>  <Active>  (109) 
1.0

>  <Smiles>  (109) 
O=C(Nc1n[nH]c2cc(-c3ccc(O)cc3)ccc12)C1CC1

>  <canonical_smi>  (109) 
O=C(Nc1n[nH]c2cc(-c3ccc(O)cc3)ccc12)C1CC1

>  <Set>  (109) 
G2 active

>  <Set_type>  (109) 
Train

>  <MW>  (109) 
293.33

>  <HBD>  (109) 
3

>  <HBA>  (109) 
3

>  <NRB>  (109) 
3

>  <NR>  (109) 
4

>  <NAR>  (109) 
3

>  <PSA>  (109) 
78.01

>  <Standard Type>  (109) 
nan

>  <Standard Relation>  (109) 
nan

>  <Standard Units>  (109) 
nan

>  <Standard Value>  (109) 
nan

>  <Assay ChEMBL ID>  (109) 
nan

>  <Assay Description>  (109) 
nan

>  <BAO Label>  (109) 
nan

$$$$

     RDKit          2D

 14 16  0  0  0  0  0  0  0  0999 V2000
   -3.4140    4.5616    0.0000 O   0  0  0  0  0  0  0  0  0  0  0  0
   -4.1640    3.2626    0.0000 C   0  0  0  0  0  0  0  0  0  0  0  0
   -3.4140    1.9635    0.0000 N   0  0  0  0  0  0  0  0  0  0  0  0
   -1.9140    1.9635    0.0000 C   0  0  0  0  0  0  0  0  0  0  0  0
   -1.0323    3.1771    0.0000 N   0  0  0  0  0  0  0  0  0  0  0  0
    0.3943    2.7135    0.0000 N   0  0  0  0  0  0  0  0  0  0  0  0
    0.3943    1.2135    0.0000 C   0  0  0  0  0  0  0  0  0  0  0  0
    1.2760    0.0000    0.0000 C   0  0  0  0  0  0  0  0  0  0  0  0
    0.3943   -1.2135    0.0000 C   0  0  0  0  0  0  0  0  0  0  0  0
   -1.0323   -0.7500    0.0000 C   0  0  0  0  0  0  0  0  0  0  0  0
   -1.0323    0.7500    0.0000 C   0  0  0  0  0  0  0  0  0  0  0  0
   -5.6640    3.2626    0.0000 C   0  0  0  0  0  0  0  0  0  0  0  0
   -6.9630    2.5126    0.0000 C   0  0  0  0  0  0  0  0  0  0  0  0
   -6.9630    4.0126    0.0000 C   0  0  0  0  0  0  0  0  0  0  0  0
  1  2  2  0
  2  3  1  0
  3  4  1  0
  4  5  2  0
  5  6  1  0
  6  7  1  0
  7  8  2  0
  8  9  1  0
  9 10  2  0
 10 11  1  0
  2 12  1  0
 12 13  1  0
 13 14  1  0
 11  4  1  0
 14 12  1  0
 11  7  1  0
M  END
>  <Compound_ID>  (110) 
CHEMBL500804

>  <Active>  (110) 
1.0

>  <Smiles>  (110) 
O=C(NC1=NNC2=CC=CC21)C1CC1

>  <canonical_smi>  (110) 
O=C(NC1=NNC2=CC=CC21)C1CC1

>  <Set>  (110) 
G2 active

>  <Set_type>  (110) 
Train

>  <MW>  (110) 
189.22

>  <HBD>  (110) 
2

>  <HBA>  (110) 
2

>  <NRB>  (110) 
1

>  <NR>  (110) 
3

>  <NAR>  (110) 
0

>  <PSA>  (110) 
53.49

>  <Standard Type>  (110) 
nan

>  <Standard Relation>  (110) 
nan

>  <Standard Units>  (110) 
nan

>  <Standard Value>  (110) 
nan

>  <Assay ChEMBL ID>  (110) 
nan

>  <Assay Description>  (110) 
nan

>  <BAO Label>  (110) 
nan

$$$$

     RDKit          2D

 23 26  0  0  0  0  0  0  0  0999 V2000
   -0.1459    3.7548    0.0000 O   0  0  0  0  0  0  0  0  0  0  0  0
    0.8578    2.6401    0.0000 C   0  0  0  0  0  0  0  0  0  0  0  0
    2.3250    2.9520    0.0000 N   0  0  0  0  0  0  0  0  0  0  0  0
    2.7886    4.3786    0.0000 C   0  0  0  0  0  0  0  0  0  0  0  0
    2.4767    5.8458    0.0000 C   0  0  0  0  0  0  0  0  0  0  0  0
    3.9033    5.3823    0.0000 C   0  0  0  0  0  0  0  0  0  0  0  0
    0.3943    1.2135    0.0000 C   0  0  0  0  0  0  0  0  0  0  0  0
    1.2760    0.0000    0.0000 N   0  0  0  0  0  0  0  0  0  0  0  0
    0.3943   -1.2135    0.0000 N   0  0  0  0  0  0  0  0  0  0  0  0
   -1.0323   -0.7500    0.0000 C   0  0  0  0  0  0  0  0  0  0  0  0
   -2.3313   -1.5000    0.0000 C   0  0  0  0  0  0  0  0  0  0  0  0
   -3.6304   -0.7500    0.0000 C   0  0  0  0  0  0  0  0  0  0  0  0
   -4.9294   -1.5000    0.0000 C   0  0  0  0  0  0  0  0  0  0  0  0
   -6.2284   -0.7500    0.0000 C   0  0  0  0  0  0  0  0  0  0  0  0
   -7.5275   -1.5000    0.0000 C   0  0  0  0  0  0  0  0  0  0  0  0
   -7.5275   -3.0000    0.0000 C   0  0  0  0  0  0  0  0  0  0  0  0
   -8.8265   -3.7500    0.0000 O   0  0  0  0  0  0  0  0  0  0  0  0
   -6.2284   -3.7500    0.0000 C   0  0  0  0  0  0  0  0  0  0  0  0
   -4.9294   -3.0000    0.0000 C   0  0  0  0  0  0  0  0  0  0  0  0
   -3.6304    0.7500    0.0000 C   0  0  0  0  0  0  0  0  0  0  0  0
   -4.9294    1.5000    0.0000 Br  0  0  0  0  0  0  0  0  0  0  0  0
   -2.3313    1.5000    0.0000 C   0  0  0  0  0  0  0  0  0  0  0  0
   -1.0323    0.7500    0.0000 C   0  0  0  0  0  0  0  0  0  0  0  0
  1  2  2  0
  2  3  1  0
  3  4  1  0
  4  5  1  0
  5  6  1  0
  2  7  1  0
  7  8  2  0
  8  9  1  0
  9 10  1  0
 10 11  2  0
 11 12  1  0
 12 13  1  0
 13 14  2  0
 14 15  1  0
 15 16  2  0
 16 17  1  0
 16 18  1  0
 18 19  2  0
 12 20  2  0
 20 21  1  0
 20 22  1  0
 22 23  2  0
  6  4  1  0
 23  7  1  0
 23 10  1  0
 19 13  1  0
M  END
>  <Compound_ID>  (111) 
CHEMBL481562

>  <Active>  (111) 
1.0

>  <Smiles>  (111) 
O=C(NC1CC1)c1n[nH]c2cc(-c3ccc(O)cc3)c(Br)cc12

>  <canonical_smi>  (111) 
O=C(NC1CC1)c1n[nH]c2cc(-c3ccc(O)cc3)c(Br)cc12

>  <Set>  (111) 
G2 active

>  <Set_type>  (111) 
Train

>  <MW>  (111) 
372.22

>  <HBD>  (111) 
3

>  <HBA>  (111) 
3

>  <NRB>  (111) 
3

>  <NR>  (111) 
4

>  <NAR>  (111) 
3

>  <PSA>  (111) 
78.01

>  <Standard Type>  (111) 
nan

>  <Standard Relation>  (111) 
nan

>  <Standard Units>  (111) 
nan

>  <Standard Value>  (111) 
nan

>  <Assay ChEMBL ID>  (111) 
nan

>  <Assay Description>  (111) 
nan

>  <BAO Label>  (111) 
nan

$$$$

     RDKit          2D

 28 31  0  0  0  0  0  0  0  0999 V2000
   -1.3905   11.5607    0.0000 N   0  0  0  0  0  0  0  0  0  0  0  0
   -1.7024   10.0935    0.0000 S   0  0  0  0  0  0  0  0  0  0  0  0
   -0.2352    9.7816    0.0000 O   0  0  0  0  0  0  0  0  0  0  0  0
   -3.1696   10.4054    0.0000 O   0  0  0  0  0  0  0  0  0  0  0  0
   -2.0143    8.6263    0.0000 C   0  0  0  0  0  0  0  0  0  0  0  0
   -0.8995    7.6226    0.0000 C   0  0  0  0  0  0  0  0  0  0  0  0
   -1.2114    6.1554    0.0000 C   0  0  0  0  0  0  0  0  0  0  0  0
   -2.6380    5.6918    0.0000 C   0  0  0  0  0  0  0  0  0  0  0  0
   -2.9499    4.2246    0.0000 N   0  0  0  0  0  0  0  0  0  0  0  0
   -1.8351    3.2209    0.0000 C   0  0  0  0  0  0  0  0  0  0  0  0
   -0.4086    3.6844    0.0000 N   0  0  0  0  0  0  0  0  0  0  0  0
    0.7062    2.6807    0.0000 C   0  0  0  0  0  0  0  0  0  0  0  0
    2.1328    3.1443    0.0000 O   0  0  0  0  0  0  0  0  0  0  0  0
    2.4446    4.6115    0.0000 C   0  0  0  0  0  0  0  0  0  0  0  0
    3.8712    5.0750    0.0000 C   0  0  0  0  0  0  0  0  0  0  0  0
    4.9859    4.0713    0.0000 C   0  0  0  0  0  0  0  0  0  0  0  0
    6.4125    4.5348    0.0000 C   0  0  0  0  0  0  0  0  0  0  0  0
    6.7244    6.0021    0.0000 C   0  0  0  0  0  0  0  0  0  0  0  0
    5.6097    7.0058    0.0000 C   0  0  0  0  0  0  0  0  0  0  0  0
    4.1831    6.5422    0.0000 C   0  0  0  0  0  0  0  0  0  0  0  0
    0.3943    1.2135    0.0000 C   0  0  0  0  0  0  0  0  0  0  0  0
    1.2760    0.0000    0.0000 N   0  0  0  0  0  0  0  0  0  0  0  0
    0.3943   -1.2135    0.0000 C   0  0  0  0  0  0  0  0  0  0  0  0
   -1.0323   -0.7500    0.0000 N   0  0  0  0  0  0  0  0  0  0  0  0
   -1.0323    0.7500    0.0000 C   0  0  0  0  0  0  0  0  0  0  0  0
   -2.1470    1.7537    0.0000 N   0  0  0  0  0  0  0  0  0  0  0  0
   -3.7527    6.6955    0.0000 C   0  0  0  0  0  0  0  0  0  0  0  0
   -3.4408    8.1628    0.0000 C   0  0  0  0  0  0  0  0  0  0  0  0
  1  2  1  0
  2  3  2  0
  2  4  2  0
  2  5  1  0
  5  6  2  0
  6  7  1  0
  7  8  2  0
  8  9  1  0
  9 10  1  0
 10 11  2  0
 11 12  1  0
 12 13  1  0
 13 14  1  0
 14 15  1  0
 15 16  1  0
 16 17  1  0
 17 18  1  0
 18 19  1  0
 19 20  1  0
 12 21  2  0
 21 22  1  0
 22 23  1  0
 23 24  2  0
 24 25  1  0
 25 26  2  0
  8 27  1  0
 27 28  2  0
 28  5  1  0
 26 10  1  0
 20 15  1  0
 25 21  1  0
M  END
>  <Compound_ID>  (112) 
CHEMBL319467

>  <Active>  (112) 
1.0

>  <Smiles>  (112) 
NS(=O)(=O)c1ccc(Nc2nc(OCC3CCCCC3)c3[nH]cnc3n2)cc1

>  <canonical_smi>  (112) 
NS(=O)(=O)c1ccc(Nc2nc(OCC3CCCCC3)c3[nH]cnc3n2)cc1

>  <Set>  (112) 
G2 active

>  <Set_type>  (112) 
Train

>  <MW>  (112) 
402.48

>  <HBD>  (112) 
3

>  <HBA>  (112) 
7

>  <NRB>  (112) 
6

>  <NR>  (112) 
4

>  <NAR>  (112) 
3

>  <PSA>  (112) 
135.88

>  <Standard Type>  (112) 
nan

>  <Standard Relation>  (112) 
nan

>  <Standard Units>  (112) 
nan

>  <Standard Value>  (112) 
nan

>  <Assay ChEMBL ID>  (112) 
nan

>  <Assay Description>  (112) 
nan

>  <BAO Label>  (112) 
nan

$$$$

     RDKit          2D

 32 36  0  0  0  0  0  0  0  0999 V2000
  -10.1878   -4.1483    0.0000 O   0  0  0  0  0  0  0  0  0  0  0  0
   -8.8888   -4.8983    0.0000 S   0  0  0  0  0  0  0  0  0  0  0  0
   -7.5897   -5.6483    0.0000 O   0  0  0  0  0  0  0  0  0  0  0  0
   -9.6388   -6.1973    0.0000 N   0  0  0  0  0  0  0  0  0  0  0  0
   -8.8888   -7.4964    0.0000 C   0  0  0  0  0  0  0  0  0  0  0  0
   -9.6388   -8.7954    0.0000 C   0  0  0  0  0  0  0  0  0  0  0  0
  -11.1388   -8.7954    0.0000 C   0  0  0  0  0  0  0  0  0  0  0  0
  -11.8888  -10.0944    0.0000 C   0  0  0  0  0  0  0  0  0  0  0  0
  -11.1388  -11.3935    0.0000 C   0  0  0  0  0  0  0  0  0  0  0  0
   -9.6388  -11.3935    0.0000 C   0  0  0  0  0  0  0  0  0  0  0  0
   -8.8888  -10.0944    0.0000 C   0  0  0  0  0  0  0  0  0  0  0  0
   -8.1388   -3.5992    0.0000 C   0  0  0  0  0  0  0  0  0  0  0  0
   -6.6388   -3.5992    0.0000 C   0  0  0  0  0  0  0  0  0  0  0  0
   -5.8888   -2.3002    0.0000 C   0  0  0  0  0  0  0  0  0  0  0  0
   -6.6388   -1.0012    0.0000 C   0  0  0  0  0  0  0  0  0  0  0  0
   -5.8888    0.2979    0.0000 N   0  0  0  0  0  0  0  0  0  0  0  0
   -4.3888    0.2979    0.0000 C   0  0  0  0  0  0  0  0  0  0  0  0
   -3.6388    1.5969    0.0000 C   0  0  0  0  0  0  0  0  0  0  0  0
   -4.2489    2.9672    0.0000 C   0  0  0  0  0  0  0  0  0  0  0  0
   -5.7161    3.2791    0.0000 O   0  0  0  0  0  0  0  0  0  0  0  0
   -3.1342    3.9709    0.0000 N   0  0  0  0  0  0  0  0  0  0  0  0
   -1.8351    3.2209    0.0000 C   0  0  0  0  0  0  0  0  0  0  0  0
   -0.4086    3.6844    0.0000 C   0  0  0  0  0  0  0  0  0  0  0  0
    0.7062    2.6807    0.0000 C   0  0  0  0  0  0  0  0  0  0  0  0
    0.3943    1.2135    0.0000 C   0  0  0  0  0  0  0  0  0  0  0  0
    1.2760    0.0000    0.0000 N   0  0  0  0  0  0  0  0  0  0  0  0
    0.3943   -1.2135    0.0000 C   0  0  0  0  0  0  0  0  0  0  0  0
   -1.0323   -0.7500    0.0000 S   0  0  0  0  0  0  0  0  0  0  0  0
   -1.0323    0.7500    0.0000 C   0  0  0  0  0  0  0  0  0  0  0  0
   -2.1470    1.7537    0.0000 C   0  0  0  0  0  0  0  0  0  0  0  0
   -8.1388   -1.0012    0.0000 C   0  0  0  0  0  0  0  0  0  0  0  0
   -8.8888   -2.3002    0.0000 C   0  0  0  0  0  0  0  0  0  0  0  0
  1  2  2  0
  2  3  2  0
  2  4  1  0
  4  5  1  0
  5  6  1  0
  6  7  2  0
  7  8  1  0
  8  9  2  0
  9 10  1  0
 10 11  2  0
  2 12  1  0
 12 13  2  0
 13 14  1  0
 14 15  2  0
 15 16  1  0
 16 17  2  0
 17 18  1  0
 18 19  2  0
 19 20  1  0
 19 21  1  0
 21 22  1  0
 22 23  2  0
 23 24  1  0
 24 25  2  0
 25 26  1  0
 26 27  2  0
 27 28  1  0
 28 29  1  0
 29 30  2  0
 15 31  1  0
 31 32  2  0
 11  6  1  0
 32 12  1  0
 30 18  1  0
 30 22  1  0
 29 25  1  0
M  END
>  <Compound_ID>  (113) 
CHEMBL83190

>  <Active>  (113) 
1.0

>  <Smiles>  (113) 
O=S(=O)(NCc1ccccc1)c1ccc(/N=C/c2c(O)[nH]c3ccc4ncsc4c23)cc1

>  <canonical_smi>  (113) 
O=S(=O)(NCc1ccccc1)c1ccc(/N=C/c2c(O)[nH]c3ccc4ncsc4c23)cc1

>  <Set>  (113) 
G2 active

>  <Set_type>  (113) 
Train

>  <MW>  (113) 
462.56

>  <HBD>  (113) 
3

>  <HBA>  (113) 
4

>  <NRB>  (113) 
6

>  <NR>  (113) 
5

>  <NAR>  (113) 
5

>  <PSA>  (113) 
107.44

>  <Standard Type>  (113) 
nan

>  <Standard Relation>  (113) 
nan

>  <Standard Units>  (113) 
nan

>  <Standard Value>  (113) 
nan

>  <Assay ChEMBL ID>  (113) 
nan

>  <Assay Description>  (113) 
nan

>  <BAO Label>  (113) 
nan

$$$$

     RDKit          2D

 32 36  0  0  0  0  0  0  0  0999 V2000
   -8.8888   -7.4964    0.0000 C   0  0  0  0  0  0  0  0  0  0  0  0
   -9.6388   -6.1973    0.0000 N   0  0  0  0  0  0  0  0  0  0  0  0
  -11.1388   -6.1973    0.0000 C   0  0  0  0  0  0  0  0  0  0  0  0
  -11.8888   -4.8983    0.0000 C   0  0  0  0  0  0  0  0  0  0  0  0
  -13.3888   -4.8983    0.0000 C   0  0  0  0  0  0  0  0  0  0  0  0
  -14.1388   -6.1973    0.0000 C   0  0  0  0  0  0  0  0  0  0  0  0
  -13.3888   -7.4964    0.0000 C   0  0  0  0  0  0  0  0  0  0  0  0
  -11.8888   -7.4964    0.0000 N   0  0  0  0  0  0  0  0  0  0  0  0
   -8.8888   -4.8983    0.0000 S   0  0  0  0  0  0  0  0  0  0  0  0
  -10.1878   -4.1483    0.0000 O   0  0  0  0  0  0  0  0  0  0  0  0
   -7.5897   -5.6483    0.0000 O   0  0  0  0  0  0  0  0  0  0  0  0
   -8.1388   -3.5992    0.0000 C   0  0  0  0  0  0  0  0  0  0  0  0
   -6.6388   -3.5992    0.0000 C   0  0  0  0  0  0  0  0  0  0  0  0
   -5.8888   -2.3002    0.0000 C   0  0  0  0  0  0  0  0  0  0  0  0
   -6.6388   -1.0012    0.0000 C   0  0  0  0  0  0  0  0  0  0  0  0
   -5.8888    0.2979    0.0000 N   0  0  0  0  0  0  0  0  0  0  0  0
   -4.3888    0.2979    0.0000 C   0  0  0  0  0  0  0  0  0  0  0  0
   -3.6388    1.5969    0.0000 C   0  0  0  0  0  0  0  0  0  0  0  0
   -4.2489    2.9672    0.0000 C   0  0  0  0  0  0  0  0  0  0  0  0
   -5.7161    3.2791    0.0000 O   0  0  0  0  0  0  0  0  0  0  0  0
   -3.1342    3.9709    0.0000 N   0  0  0  0  0  0  0  0  0  0  0  0
   -1.8351    3.2209    0.0000 C   0  0  0  0  0  0  0  0  0  0  0  0
   -0.4086    3.6844    0.0000 C   0  0  0  0  0  0  0  0  0  0  0  0
    0.7062    2.6807    0.0000 C   0  0  0  0  0  0  0  0  0  0  0  0
    0.3943    1.2135    0.0000 C   0  0  0  0  0  0  0  0  0  0  0  0
    1.2760    0.0000    0.0000 N   0  0  0  0  0  0  0  0  0  0  0  0
    0.3943   -1.2135    0.0000 C   0  0  0  0  0  0  0  0  0  0  0  0
   -1.0323   -0.7500    0.0000 S   0  0  0  0  0  0  0  0  0  0  0  0
   -1.0323    0.7500    0.0000 C   0  0  0  0  0  0  0  0  0  0  0  0
   -2.1470    1.7537    0.0000 C   0  0  0  0  0  0  0  0  0  0  0  0
   -8.1388   -1.0012    0.0000 C   0  0  0  0  0  0  0  0  0  0  0  0
   -8.8888   -2.3002    0.0000 C   0  0  0  0  0  0  0  0  0  0  0  0
  1  2  1  0
  2  3  1  0
  3  4  2  0
  4  5  1  0
  5  6  2  0
  6  7  1  0
  7  8  2  0
  2  9  1  0
  9 10  2  0
  9 11  2  0
  9 12  1  0
 12 13  2  0
 13 14  1  0
 14 15  2  0
 15 16  1  0
 16 17  2  0
 17 18  1  0
 18 19  2  0
 19 20  1  0
 19 21  1  0
 21 22  1  0
 22 23  2  0
 23 24  1  0
 24 25  2  0
 25 26  1  0
 26 27  2  0
 27 28  1  0
 28 29  1  0
 29 30  2  0
 15 31  1  0
 31 32  2  0
  8  3  1  0
 32 12  1  0
 30 18  1  0
 30 22  1  0
 29 25  1  0
M  END
>  <Compound_ID>  (114) 
CHEMBL134976

>  <Active>  (114) 
1.0

>  <Smiles>  (114) 
CN(c1ccccn1)S(=O)(=O)c1ccc(/N=C/c2c(O)[nH]c3ccc4ncsc4c23)cc1

>  <canonical_smi>  (114) 
CN(c1ccccn1)S(=O)(=O)c1ccc(/N=C/c2c(O)[nH]c3ccc4ncsc4c23)cc1

>  <Set>  (114) 
G2 active

>  <Set_type>  (114) 
Train

>  <MW>  (114) 
463.54

>  <HBD>  (114) 
2

>  <HBA>  (114) 
5

>  <NRB>  (114) 
5

>  <NR>  (114) 
5

>  <NAR>  (114) 
5

>  <PSA>  (114) 
111.54

>  <Standard Type>  (114) 
nan

>  <Standard Relation>  (114) 
nan

>  <Standard Units>  (114) 
nan

>  <Standard Value>  (114) 
nan

>  <Assay ChEMBL ID>  (114) 
nan

>  <Assay Description>  (114) 
nan

>  <BAO Label>  (114) 
nan

$$$$

     RDKit          2D

 27 30  0  0  0  0  0  0  0  0999 V2000
  -12.6388   -3.5992    0.0000 C   0  0  0  0  0  0  0  0  0  0  0  0
  -11.8888   -4.8983    0.0000 N   0  0  0  0  0  0  0  0  0  0  0  0
  -10.3888   -4.8983    0.0000 S   0  0  0  0  0  0  0  0  0  0  0  0
  -10.3888   -6.3983    0.0000 O   0  0  0  0  0  0  0  0  0  0  0  0
  -10.3888   -3.3983    0.0000 O   0  0  0  0  0  0  0  0  0  0  0  0
   -8.8888   -4.8983    0.0000 C   0  0  0  0  0  0  0  0  0  0  0  0
   -8.1388   -3.5992    0.0000 C   0  0  0  0  0  0  0  0  0  0  0  0
   -8.8888   -2.3002    0.0000 C   0  0  0  0  0  0  0  0  0  0  0  0
   -8.1388   -1.0012    0.0000 C   0  0  0  0  0  0  0  0  0  0  0  0
   -6.6388   -1.0012    0.0000 C   0  0  0  0  0  0  0  0  0  0  0  0
   -5.8888    0.2979    0.0000 N   0  0  0  0  0  0  0  0  0  0  0  0
   -4.3888    0.2979    0.0000 N   0  0  0  0  0  0  0  0  0  0  0  0
   -3.6388    1.5969    0.0000 C   0  0  0  0  0  0  0  0  0  0  0  0
   -4.2489    2.9672    0.0000 C   0  0  0  0  0  0  0  0  0  0  0  0
   -5.7161    3.2791    0.0000 O   0  0  0  0  0  0  0  0  0  0  0  0
   -3.1342    3.9709    0.0000 N   0  0  0  0  0  0  0  0  0  0  0  0
   -1.8351    3.2209    0.0000 C   0  0  0  0  0  0  0  0  0  0  0  0
   -0.4086    3.6844    0.0000 C   0  0  0  0  0  0  0  0  0  0  0  0
    0.7062    2.6807    0.0000 C   0  0  0  0  0  0  0  0  0  0  0  0
    0.3943    1.2135    0.0000 C   0  0  0  0  0  0  0  0  0  0  0  0
    1.2760    0.0000    0.0000 N   0  0  0  0  0  0  0  0  0  0  0  0
    0.3943   -1.2135    0.0000 C   0  0  0  0  0  0  0  0  0  0  0  0
   -1.0323   -0.7500    0.0000 S   0  0  0  0  0  0  0  0  0  0  0  0
   -1.0323    0.7500    0.0000 C   0  0  0  0  0  0  0  0  0  0  0  0
   -2.1470    1.7537    0.0000 C   0  0  0  0  0  0  0  0  0  0  0  0
   -5.8888   -2.3002    0.0000 C   0  0  0  0  0  0  0  0  0  0  0  0
   -6.6388   -3.5992    0.0000 C   0  0  0  0  0  0  0  0  0  0  0  0
  1  2  1  0
  2  3  1  0
  3  4  2  0
  3  5  2  0
  3  6  1  0
  6  7  1  0
  7  8  2  0
  8  9  1  0
  9 10  2  0
 10 11  1  0
 11 12  2  3
 12 13  1  0
 13 14  2  0
 14 15  1  0
 14 16  1  0
 16 17  1  0
 17 18  2  0
 18 19  1  0
 19 20  2  0
 20 21  1  0
 21 22  2  0
 22 23  1  0
 23 24  1  0
 24 25  2  0
 10 26  1  0
 26 27  2  0
 27  7  1  0
 25 13  1  0
 25 17  1  0
 24 20  1  0
M  END
>  <Compound_ID>  (115) 
CHEMBL422455

>  <Active>  (115) 
1.0

>  <Smiles>  (115) 
CNS(=O)(=O)Cc1ccc(N=Nc2c(O)[nH]c3ccc4ncsc4c23)cc1

>  <canonical_smi>  (115) 
CNS(=O)(=O)Cc1ccc(N=Nc2c(O)[nH]c3ccc4ncsc4c23)cc1

>  <Set>  (115) 
G2 active

>  <Set_type>  (115) 
Train

>  <MW>  (115) 
401.47

>  <HBD>  (115) 
3

>  <HBA>  (115) 
4

>  <NRB>  (115) 
5

>  <NR>  (115) 
4

>  <NAR>  (115) 
4

>  <PSA>  (115) 
119.8

>  <Standard Type>  (115) 
nan

>  <Standard Relation>  (115) 
nan

>  <Standard Units>  (115) 
nan

>  <Standard Value>  (115) 
nan

>  <Assay ChEMBL ID>  (115) 
nan

>  <Assay Description>  (115) 
nan

>  <BAO Label>  (115) 
nan

$$$$

     RDKit          2D

 28 31  0  0  0  0  0  0  0  0999 V2000
   -6.9204   -5.2665    0.0000 C   0  0  0  0  0  0  0  0  0  0  0  0
   -5.6213   -4.5165    0.0000 O   0  0  0  0  0  0  0  0  0  0  0  0
   -4.3223   -5.2665    0.0000 C   0  0  0  0  0  0  0  0  0  0  0  0
   -4.1655   -6.7583    0.0000 C   0  0  0  0  0  0  0  0  0  0  0  0
   -2.6983   -7.0701    0.0000 C   0  0  0  0  0  0  0  0  0  0  0  0
   -1.9483   -5.7711    0.0000 N   0  0  0  0  0  0  0  0  0  0  0  0
   -2.9520   -4.6564    0.0000 C   0  0  0  0  0  0  0  0  0  0  0  0
   -2.6401   -3.1891    0.0000 C   0  0  0  0  0  0  0  0  0  0  0  0
   -1.2135   -2.7256    0.0000 C   0  0  0  0  0  0  0  0  0  0  0  0
   -0.0000   -3.6073    0.0000 C   0  0  0  0  0  0  0  0  0  0  0  0
    0.0000   -5.1073    0.0000 O   0  0  0  0  0  0  0  0  0  0  0  0
    1.2135   -2.7256    0.0000 N   0  0  0  0  0  0  0  0  0  0  0  0
    0.7500   -1.2990    0.0000 C   0  0  0  0  0  0  0  0  0  0  0  0
    1.5000    0.0000    0.0000 C   0  0  0  0  0  0  0  0  0  0  0  0
    0.7500    1.2990    0.0000 C   0  0  0  0  0  0  0  0  0  0  0  0
   -0.7500    1.2990    0.0000 C   0  0  0  0  0  0  0  0  0  0  0  0
   -1.5000    2.5981    0.0000 F   0  0  0  0  0  0  0  0  0  0  0  0
   -1.5000    0.0000    0.0000 C   0  0  0  0  0  0  0  0  0  0  0  0
   -3.0000    0.0000    0.0000 C   0  0  0  0  0  0  0  0  0  0  0  0
   -4.5000    0.0000    0.0000 C   0  0  0  0  0  0  0  0  0  0  0  0
   -6.0000    0.0000    0.0000 C   0  0  0  0  0  0  0  0  0  0  0  0
   -5.7395   -1.4772    0.0000 O   0  0  0  0  0  0  0  0  0  0  0  0
   -5.7395    1.4772    0.0000 C   0  0  0  0  0  0  0  0  0  0  0  0
   -6.8886    2.4414    0.0000 C   0  0  0  0  0  0  0  0  0  0  0  0
   -8.2981    1.9284    0.0000 N   0  0  0  0  0  0  0  0  0  0  0  0
   -8.5586    0.4512    0.0000 C   0  0  0  0  0  0  0  0  0  0  0  0
   -7.4095   -0.5130    0.0000 C   0  0  0  0  0  0  0  0  0  0  0  0
   -0.7500   -1.2990    0.0000 C   0  0  0  0  0  0  0  0  0  0  0  0
  1  2  1  0
  2  3  1  0
  3  4  1  0
  4  5  2  0
  5  6  1  0
  6  7  1  0
  7  8  1  0
  8  9  2  0
  9 10  1  0
 10 11  2  0
 10 12  1  0
 12 13  1  0
 13 14  2  0
 14 15  1  0
 15 16  2  0
 16 17  1  0
 16 18  1  0
 18 19  1  0
 19 20  3  0
 20 21  1  0
 21 22  1  0
 21 23  1  0
 23 24  1  0
 24 25  1  0
 25 26  1  0
 26 27  1  0
 18 28  2  0
  7  3  2  0
 28  9  1  0
 28 13  1  0
 27 21  1  0
M  END
>  <Compound_ID>  (116) 
CHEMBL536029

>  <Active>  (116) 
1.0

>  <Smiles>  (116) 
COc1cc[nH]c1/C=C1\C(=O)Nc2ccc(F)c(C#CC3(O)CCNCC3)c21

>  <canonical_smi>  (116) 
COc1cc[nH]c1/C=C1\C(=O)Nc2ccc(F)c(C#CC3(O)CCNCC3)c21

>  <Set>  (116) 
G2 active

>  <Set_type>  (116) 
Train

>  <MW>  (116) 
381.41

>  <HBD>  (116) 
4

>  <HBA>  (116) 
4

>  <NRB>  (116) 
2

>  <NR>  (116) 
4

>  <NAR>  (116) 
2

>  <PSA>  (116) 
86.38

>  <Standard Type>  (116) 
nan

>  <Standard Relation>  (116) 
nan

>  <Standard Units>  (116) 
nan

>  <Standard Value>  (116) 
nan

>  <Assay ChEMBL ID>  (116) 
nan

>  <Assay Description>  (116) 
nan

>  <BAO Label>  (116) 
nan

$$$$

     RDKit          2D

 26 31  0  0  0  0  0  0  0  0999 V2000
   -3.4337   -1.3792    0.0000 O   0  0  0  0  0  0  0  0  0  0  0  0
   -4.1837   -0.0801    0.0000 C   0  0  0  0  0  0  0  0  0  0  0  0
   -5.6755    0.0766    0.0000 N   0  0  0  0  0  0  0  0  0  0  0  0
   -5.9873    1.5439    0.0000 C   0  0  0  0  0  0  0  0  0  0  0  0
   -7.3577    2.1540    0.0000 O   0  0  0  0  0  0  0  0  0  0  0  0
   -4.6883    2.2939    0.0000 C   0  0  0  0  0  0  0  0  0  0  0  0
   -3.5736    1.2902    0.0000 C   0  0  0  0  0  0  0  0  0  0  0  0
   -2.1470    1.7537    0.0000 C   0  0  0  0  0  0  0  0  0  0  0  0
   -1.8351    3.2209    0.0000 C   0  0  0  0  0  0  0  0  0  0  0  0
   -0.4086    3.6844    0.0000 C   0  0  0  0  0  0  0  0  0  0  0  0
    0.7062    2.6807    0.0000 C   0  0  0  0  0  0  0  0  0  0  0  0
    0.3943    1.2135    0.0000 C   0  0  0  0  0  0  0  0  0  0  0  0
    1.2760    0.0000    0.0000 C   0  0  0  0  0  0  0  0  0  0  0  0
    0.3943   -1.2135    0.0000 C   0  0  0  0  0  0  0  0  0  0  0  0
   -1.0323   -0.7500    0.0000 N   0  0  0  0  0  0  0  0  0  0  0  0
   -1.0323    0.7500    0.0000 C   0  0  0  0  0  0  0  0  0  0  0  0
   -2.9499    4.2246    0.0000 C   0  0  0  0  0  0  0  0  0  0  0  0
   -2.9499    5.7246    0.0000 N   0  0  0  0  0  0  0  0  0  0  0  0
   -4.3764    6.1881    0.0000 C   0  0  0  0  0  0  0  0  0  0  0  0
   -4.9865    7.5585    0.0000 C   0  0  0  0  0  0  0  0  0  0  0  0
   -6.4783    7.7152    0.0000 C   0  0  0  0  0  0  0  0  0  0  0  0
   -7.0884    9.0856    0.0000 O   0  0  0  0  0  0  0  0  0  0  0  0
   -7.3600    6.5017    0.0000 C   0  0  0  0  0  0  0  0  0  0  0  0
   -6.7499    5.1314    0.0000 C   0  0  0  0  0  0  0  0  0  0  0  0
   -5.2581    4.9746    0.0000 C   0  0  0  0  0  0  0  0  0  0  0  0
   -4.3764    3.7611    0.0000 C   0  0  0  0  0  0  0  0  0  0  0  0
  1  2  2  0
  2  3  1  0
  3  4  1  0
  4  5  2  0
  4  6  1  0
  6  7  2  0
  7  8  1  0
  8  9  2  0
  9 10  1  0
 10 11  2  0
 11 12  1  0
 12 13  1  0
 13 14  2  0
 14 15  1  0
 15 16  1  0
  9 17  1  0
 17 18  1  0
 18 19  1  0
 19 20  2  0
 20 21  1  0
 21 22  1  0
 21 23  2  0
 23 24  1  0
 24 25  2  0
 25 26  1  0
  7  2  1  0
 16  8  1  0
 26 17  2  0
 26  6  1  0
 16 12  2  0
 25 19  1  0
M  END
>  <Compound_ID>  (117) 
CHEMBL74637

>  <Active>  (117) 
1.0

>  <Smiles>  (117) 
O=C1NC(=O)c2c1c1c(ccc3cc[nH]c31)c1[nH]c3cc(O)ccc3c21

>  <canonical_smi>  (117) 
O=C1NC(=O)c2c1c1c(ccc3cc[nH]c31)c1[nH]c3cc(O)ccc3c21

>  <Set>  (117) 
G2 active

>  <Set_type>  (117) 
Train

>  <MW>  (117) 
341.33

>  <HBD>  (117) 
4

>  <HBA>  (117) 
3

>  <NRB>  (117) 
0

>  <NR>  (117) 
6

>  <NAR>  (117) 
5

>  <PSA>  (117) 
97.98

>  <Standard Type>  (117) 
nan

>  <Standard Relation>  (117) 
nan

>  <Standard Units>  (117) 
nan

>  <Standard Value>  (117) 
nan

>  <Assay ChEMBL ID>  (117) 
nan

>  <Assay Description>  (117) 
nan

>  <BAO Label>  (117) 
nan

$$$$

     RDKit          2D

 26 28  0  0  0  0  0  0  0  0999 V2000
    3.0000    0.0000    0.0000 C   0  0  0  0  0  0  0  0  0  0  0  0
    1.5000    0.0000    0.0000 C   0  0  0  0  0  0  0  0  0  0  0  0
    0.7500   -1.2990    0.0000 C   0  0  0  0  0  0  0  0  0  0  0  0
   -0.7500   -1.2990    0.0000 C   0  0  0  0  0  0  0  0  0  0  0  0
   -1.5000    0.0000    0.0000 C   0  0  0  0  0  0  0  0  0  0  0  0
   -3.0000    0.0000    0.0000 F   0  0  0  0  0  0  0  0  0  0  0  0
   -0.7500    1.2990    0.0000 C   0  0  0  0  0  0  0  0  0  0  0  0
   -1.5000    2.5981    0.0000 N   0  0  0  0  0  0  0  0  0  0  0  0
   -0.7500    3.8971    0.0000 C   0  0  0  0  0  0  0  0  0  0  0  0
    0.7500    3.8971    0.0000 C   0  0  0  0  0  0  0  0  0  0  0  0
    1.5000    5.1962    0.0000 C   0  0  0  0  0  0  0  0  0  0  0  0
    0.7500    6.4952    0.0000 N   0  0  0  0  0  0  0  0  0  0  0  0
   -0.7500    6.4952    0.0000 C   0  0  0  0  0  0  0  0  0  0  0  0
   -1.5000    7.7942    0.0000 N   0  0  0  0  0  0  0  0  0  0  0  0
   -0.7500    9.0933    0.0000 C   0  0  0  0  0  0  0  0  0  0  0  0
    0.7500    9.0933    0.0000 C   0  0  0  0  0  0  0  0  0  0  0  0
    1.5000   10.3923    0.0000 C   0  0  0  0  0  0  0  0  0  0  0  0
    0.7500   11.6913    0.0000 C   0  0  0  0  0  0  0  0  0  0  0  0
    1.5000   12.9904    0.0000 S   0  0  0  0  0  0  0  0  0  0  0  0
    2.2500   14.2894    0.0000 N   0  0  0  0  0  0  0  0  0  0  0  0
    2.7990   12.2404    0.0000 O   0  0  0  0  0  0  0  0  0  0  0  0
    0.2010   13.7404    0.0000 O   0  0  0  0  0  0  0  0  0  0  0  0
   -0.7500   11.6913    0.0000 C   0  0  0  0  0  0  0  0  0  0  0  0
   -1.5000   10.3923    0.0000 C   0  0  0  0  0  0  0  0  0  0  0  0
   -1.5000    5.1962    0.0000 N   0  0  0  0  0  0  0  0  0  0  0  0
    0.7500    1.2990    0.0000 C   0  0  0  0  0  0  0  0  0  0  0  0
  1  2  1  0
  2  3  2  0
  3  4  1  0
  4  5  2  0
  5  6  1  0
  5  7  1  0
  7  8  1  0
  8  9  1  0
  9 10  2  0
 10 11  1  0
 11 12  2  0
 12 13  1  0
 13 14  1  0
 14 15  1  0
 15 16  2  0
 16 17  1  0
 17 18  2  0
 18 19  1  0
 19 20  1  0
 19 21  2  0
 19 22  2  0
 18 23  1  0
 23 24  2  0
 13 25  2  0
  7 26  2  0
 26  2  1  0
 25  9  1  0
 24 15  1  0
M  END
>  <Compound_ID>  (118) 
CHEMBL103355

>  <Active>  (118) 
1.0

>  <Smiles>  (118) 
Cc1ccc(F)c(Nc2ccnc(Nc3ccc(S(N)(=O)=O)cc3)n2)c1

>  <canonical_smi>  (118) 
Cc1ccc(F)c(Nc2ccnc(Nc3ccc(S(N)(=O)=O)cc3)n2)c1

>  <Set>  (118) 
G2 active

>  <Set_type>  (118) 
Train

>  <MW>  (118) 
373.41

>  <HBD>  (118) 
3

>  <HBA>  (118) 
6

>  <NRB>  (118) 
5

>  <NR>  (118) 
3

>  <NAR>  (118) 
3

>  <PSA>  (118) 
110.0

>  <Standard Type>  (118) 
nan

>  <Standard Relation>  (118) 
nan

>  <Standard Units>  (118) 
nan

>  <Standard Value>  (118) 
nan

>  <Assay ChEMBL ID>  (118) 
nan

>  <Assay Description>  (118) 
nan

>  <BAO Label>  (118) 
nan

$$$$

     RDKit          2D

 25 28  0  0  0  0  0  0  0  0999 V2000
   -9.6388   -6.1973    0.0000 N   0  0  0  0  0  0  0  0  0  0  0  0
   -8.8888   -4.8983    0.0000 S   0  0  0  0  0  0  0  0  0  0  0  0
  -10.1878   -4.1483    0.0000 O   0  0  0  0  0  0  0  0  0  0  0  0
   -7.5897   -5.6483    0.0000 O   0  0  0  0  0  0  0  0  0  0  0  0
   -8.1388   -3.5992    0.0000 C   0  0  0  0  0  0  0  0  0  0  0  0
   -8.8888   -2.3002    0.0000 C   0  0  0  0  0  0  0  0  0  0  0  0
   -8.1388   -1.0012    0.0000 C   0  0  0  0  0  0  0  0  0  0  0  0
   -6.6388   -1.0012    0.0000 C   0  0  0  0  0  0  0  0  0  0  0  0
   -5.8888    0.2979    0.0000 N   0  0  0  0  0  0  0  0  0  0  0  0
   -4.3888    0.2979    0.0000 N   0  0  0  0  0  0  0  0  0  0  0  0
   -3.6388    1.5969    0.0000 C   0  0  0  0  0  0  0  0  0  0  0  0
   -4.2489    2.9672    0.0000 C   0  0  0  0  0  0  0  0  0  0  0  0
   -5.7161    3.2791    0.0000 O   0  0  0  0  0  0  0  0  0  0  0  0
   -3.1342    3.9709    0.0000 N   0  0  0  0  0  0  0  0  0  0  0  0
   -1.8351    3.2209    0.0000 C   0  0  0  0  0  0  0  0  0  0  0  0
   -0.4086    3.6844    0.0000 C   0  0  0  0  0  0  0  0  0  0  0  0
    0.7062    2.6807    0.0000 C   0  0  0  0  0  0  0  0  0  0  0  0
    0.3943    1.2135    0.0000 C   0  0  0  0  0  0  0  0  0  0  0  0
    1.2760    0.0000    0.0000 N   0  0  0  0  0  0  0  0  0  0  0  0
    0.3943   -1.2135    0.0000 C   0  0  0  0  0  0  0  0  0  0  0  0
   -1.0323   -0.7500    0.0000 S   0  0  0  0  0  0  0  0  0  0  0  0
   -1.0323    0.7500    0.0000 C   0  0  0  0  0  0  0  0  0  0  0  0
   -2.1470    1.7537    0.0000 C   0  0  0  0  0  0  0  0  0  0  0  0
   -5.8888   -2.3002    0.0000 C   0  0  0  0  0  0  0  0  0  0  0  0
   -6.6388   -3.5992    0.0000 C   0  0  0  0  0  0  0  0  0  0  0  0
  1  2  1  0
  2  3  2  0
  2  4  2  0
  2  5  1  0
  5  6  2  0
  6  7  1  0
  7  8  2  0
  8  9  1  0
  9 10  1  0
 10 11  2  0
 11 12  1  0
 12 13  2  0
 12 14  1  0
 14 15  1  0
 15 16  2  0
 16 17  1  0
 17 18  2  0
 18 19  1  0
 19 20  2  0
 20 21  1  0
 21 22  1  0
 22 23  2  0
  8 24  1  0
 24 25  2  0
 25  5  1  0
 23 11  1  0
 23 15  1  0
 22 18  1  0
M  END
>  <Compound_ID>  (119) 
CHEMBL407709

>  <Active>  (119) 
1.0

>  <Smiles>  (119) 
NS(=O)(=O)c1ccc(N/N=C2\C(=O)Nc3ccc4ncsc4c32)cc1

>  <canonical_smi>  (119) 
NS(=O)(=O)c1ccc(N/N=C2\C(=O)Nc3ccc4ncsc4c32)cc1

>  <Set>  (119) 
G2 active

>  <Set_type>  (119) 
Train

>  <MW>  (119) 
373.42

>  <HBD>  (119) 
3

>  <HBA>  (119) 
5

>  <NRB>  (119) 
3

>  <NR>  (119) 
4

>  <NAR>  (119) 
3

>  <PSA>  (119) 
126.54

>  <Standard Type>  (119) 
nan

>  <Standard Relation>  (119) 
nan

>  <Standard Units>  (119) 
nan

>  <Standard Value>  (119) 
nan

>  <Assay ChEMBL ID>  (119) 
nan

>  <Assay Description>  (119) 
nan

>  <BAO Label>  (119) 
nan

$$$$

     RDKit          2D

 29 32  0  0  0  0  0  0  0  0999 V2000
    4.6740   -4.8322    0.0000 C   0  0  0  0  0  0  0  0  0  0  0  0
    3.3037   -4.2221    0.0000 C   0  0  0  0  0  0  0  0  0  0  0  0
    2.0046   -4.9721    0.0000 N   0  0  0  0  0  0  0  0  0  0  0  0
    0.8899   -3.9684    0.0000 C   0  0  0  0  0  0  0  0  0  0  0  0
    1.5000   -2.5981    0.0000 C   0  0  0  0  0  0  0  0  0  0  0  0
    0.7500   -1.2990    0.0000 C   0  0  0  0  0  0  0  0  0  0  0  0
    1.5000    0.0000    0.0000 N   0  0  0  0  0  0  0  0  0  0  0  0
    0.7500    1.2990    0.0000 C   0  0  0  0  0  0  0  0  0  0  0  0
    1.5000    2.5981    0.0000 N   0  0  0  0  0  0  0  0  0  0  0  0
    3.0000    2.5981    0.0000 C   0  0  0  0  0  0  0  0  0  0  0  0
    3.7500    1.2990    0.0000 C   0  0  0  0  0  0  0  0  0  0  0  0
    5.2500    1.2990    0.0000 C   0  0  0  0  0  0  0  0  0  0  0  0
    6.0000    2.5981    0.0000 C   0  0  0  0  0  0  0  0  0  0  0  0
    7.5000    2.5981    0.0000 N   0  0  0  0  0  0  0  0  0  0  0  0
    8.2500    1.2990    0.0000 C   0  0  0  0  0  0  0  0  0  0  0  0
    9.7500    1.2990    0.0000 C   0  0  0  0  0  0  0  0  0  0  0  0
   10.5000    2.5981    0.0000 O   0  0  0  0  0  0  0  0  0  0  0  0
    9.7500    3.8971    0.0000 C   0  0  0  0  0  0  0  0  0  0  0  0
    8.2500    3.8971    0.0000 C   0  0  0  0  0  0  0  0  0  0  0  0
    5.2500    3.8971    0.0000 C   0  0  0  0  0  0  0  0  0  0  0  0
    3.7500    3.8971    0.0000 C   0  0  0  0  0  0  0  0  0  0  0  0
   -0.7500    1.2990    0.0000 N   0  0  0  0  0  0  0  0  0  0  0  0
   -1.5000    0.0000    0.0000 C   0  0  0  0  0  0  0  0  0  0  0  0
   -0.7500   -1.2990    0.0000 C   0  0  0  0  0  0  0  0  0  0  0  0
   -1.5000   -2.5981    0.0000 F   0  0  0  0  0  0  0  0  0  0  0  0
    2.9918   -2.7549    0.0000 N   0  0  0  0  0  0  0  0  0  0  0  0
    3.9955   -1.6402    0.0000 C   0  0  0  0  0  0  0  0  0  0  0  0
    5.4627   -1.9520    0.0000 C   0  0  0  0  0  0  0  0  0  0  0  0
    3.5320   -0.2136    0.0000 C   0  0  0  0  0  0  0  0  0  0  0  0
  1  2  1  0
  2  3  2  0
  3  4  1  0
  4  5  2  0
  5  6  1  0
  6  7  2  0
  7  8  1  0
  8  9  1  0
  9 10  1  0
 10 11  2  0
 11 12  1  0
 12 13  2  0
 13 14  1  0
 14 15  1  0
 15 16  1  0
 16 17  1  0
 17 18  1  0
 18 19  1  0
 13 20  1  0
 20 21  2  0
  8 22  2  0
 22 23  1  0
 23 24  2  0
 24 25  1  0
  5 26  1  0
 26 27  1  0
 27 28  1  0
 27 29  1  0
 26  2  1  0
 24  6  1  0
 21 10  1  0
 19 14  1  0
M  END
>  <Compound_ID>  (120) 
CHEMBL515001

>  <Active>  (120) 
1.0

>  <Smiles>  (120) 
Cc1ncc(-c2nc(Nc3ccc(N4CCOCC4)cc3)ncc2F)n1C(C)C

>  <canonical_smi>  (120) 
Cc1ncc(-c2nc(Nc3ccc(N4CCOCC4)cc3)ncc2F)n1C(C)C

>  <Set>  (120) 
G2 active

>  <Set_type>  (120) 
Train

>  <MW>  (120) 
396.47

>  <HBD>  (120) 
1

>  <HBA>  (120) 
6

>  <NRB>  (120) 
5

>  <NR>  (120) 
4

>  <NAR>  (120) 
3

>  <PSA>  (120) 
68.1

>  <Standard Type>  (120) 
nan

>  <Standard Relation>  (120) 
nan

>  <Standard Units>  (120) 
nan

>  <Standard Value>  (120) 
nan

>  <Assay ChEMBL ID>  (120) 
nan

>  <Assay Description>  (120) 
nan

>  <BAO Label>  (120) 
nan

$$$$

     RDKit          2D

 21 24  0  0  0  0  0  0  0  0999 V2000
   -4.6613    6.0728    0.0000 N   0  0  0  0  0  0  0  0  0  0  0  0
   -3.2910    5.4627    0.0000 C   0  0  0  0  0  0  0  0  0  0  0  0
   -2.0774    6.3444    0.0000 O   0  0  0  0  0  0  0  0  0  0  0  0
   -3.1342    3.9709    0.0000 C   0  0  0  0  0  0  0  0  0  0  0  0
   -4.2489    2.9672    0.0000 N   0  0  0  0  0  0  0  0  0  0  0  0
   -3.6388    1.5969    0.0000 N   0  0  0  0  0  0  0  0  0  0  0  0
   -4.3888    0.2979    0.0000 C   0  0  0  0  0  0  0  0  0  0  0  0
   -5.8888    0.2979    0.0000 C   0  0  0  0  0  0  0  0  0  0  0  0
   -6.6388   -1.0012    0.0000 C   0  0  0  0  0  0  0  0  0  0  0  0
   -5.8888   -2.3002    0.0000 C   0  0  0  0  0  0  0  0  0  0  0  0
   -4.3888   -2.3002    0.0000 C   0  0  0  0  0  0  0  0  0  0  0  0
   -3.6388   -1.0012    0.0000 N   0  0  0  0  0  0  0  0  0  0  0  0
   -2.1470    1.7537    0.0000 C   0  0  0  0  0  0  0  0  0  0  0  0
   -1.8351    3.2209    0.0000 C   0  0  0  0  0  0  0  0  0  0  0  0
   -0.4086    3.6844    0.0000 C   0  0  0  0  0  0  0  0  0  0  0  0
    0.7062    2.6807    0.0000 C   0  0  0  0  0  0  0  0  0  0  0  0
    0.3943    1.2135    0.0000 C   0  0  0  0  0  0  0  0  0  0  0  0
    1.2760    0.0000    0.0000 N   0  0  0  0  0  0  0  0  0  0  0  0
    0.3943   -1.2135    0.0000 N   0  0  0  0  0  0  0  0  0  0  0  0
   -1.0323   -0.7500    0.0000 C   0  0  0  0  0  0  0  0  0  0  0  0
   -1.0323    0.7500    0.0000 C   0  0  0  0  0  0  0  0  0  0  0  0
  1  2  1  0
  2  3  2  0
  2  4  1  0
  4  5  2  0
  5  6  1  0
  6  7  1  0
  7  8  2  0
  8  9  1  0
  9 10  2  0
 10 11  1  0
 11 12  2  0
  6 13  1  0
 13 14  2  0
 14 15  1  0
 15 16  2  0
 16 17  1  0
 17 18  1  0
 18 19  1  0
 19 20  2  0
 20 21  1  0
 14  4  1  0
 21 17  2  0
 12  7  1  0
 21 13  1  0
M  END
>  <Compound_ID>  (121) 
CHEMBL178190

>  <Active>  (121) 
1.0

>  <Smiles>  (121) 
NC(=O)c1nn(-c2ccccn2)c2c1ccc1[nH]ncc12

>  <canonical_smi>  (121) 
NC(=O)c1nn(-c2ccccn2)c2c1ccc1[nH]ncc12

>  <Set>  (121) 
G2 active

>  <Set_type>  (121) 
Train

>  <MW>  (121) 
278.28

>  <HBD>  (121) 
2

>  <HBA>  (121) 
4

>  <NRB>  (121) 
2

>  <NR>  (121) 
4

>  <NAR>  (121) 
4

>  <PSA>  (121) 
102.48

>  <Standard Type>  (121) 
nan

>  <Standard Relation>  (121) 
nan

>  <Standard Units>  (121) 
nan

>  <Standard Value>  (121) 
nan

>  <Assay ChEMBL ID>  (121) 
nan

>  <Assay Description>  (121) 
nan

>  <BAO Label>  (121) 
nan

$$$$

     RDKit          2D

 32 35  0  0  0  0  0  0  0  0999 V2000
  -10.0849   -6.9740    0.0000 N   0  0  0  0  0  0  0  0  0  0  0  0
   -8.6583   -6.5105    0.0000 S   0  0  0  0  0  0  0  0  0  0  0  0
   -9.1218   -5.0839    0.0000 O   0  0  0  0  0  0  0  0  0  0  0  0
   -8.1948   -7.9371    0.0000 O   0  0  0  0  0  0  0  0  0  0  0  0
   -7.2317   -6.0469    0.0000 C   0  0  0  0  0  0  0  0  0  0  0  0
   -6.9199   -4.5797    0.0000 C   0  0  0  0  0  0  0  0  0  0  0  0
   -5.4933   -4.1162    0.0000 C   0  0  0  0  0  0  0  0  0  0  0  0
   -4.3786   -5.1199    0.0000 C   0  0  0  0  0  0  0  0  0  0  0  0
   -2.9520   -4.6564    0.0000 N   0  0  0  0  0  0  0  0  0  0  0  0
   -2.6401   -3.1891    0.0000 N   0  0  0  0  0  0  0  0  0  0  0  0
   -1.2135   -2.7256    0.0000 C   0  0  0  0  0  0  0  0  0  0  0  0
   -0.0000   -3.6073    0.0000 C   0  0  0  0  0  0  0  0  0  0  0  0
    0.0000   -5.1073    0.0000 O   0  0  0  0  0  0  0  0  0  0  0  0
    1.2135   -2.7256    0.0000 N   0  0  0  0  0  0  0  0  0  0  0  0
    0.7500   -1.2990    0.0000 C   0  0  0  0  0  0  0  0  0  0  0  0
    1.5000    0.0000    0.0000 C   0  0  0  0  0  0  0  0  0  0  0  0
    0.7500    1.2990    0.0000 C   0  0  0  0  0  0  0  0  0  0  0  0
   -0.7500    1.2990    0.0000 C   0  0  0  0  0  0  0  0  0  0  0  0
   -1.5000    2.5981    0.0000 C   0  0  0  0  0  0  0  0  0  0  0  0
   -3.0000    2.5981    0.0000 O   0  0  0  0  0  0  0  0  0  0  0  0
   -0.7500    3.8971    0.0000 N   0  0  0  0  0  0  0  0  0  0  0  0
   -1.5000    5.1962    0.0000 C   0  0  0  0  0  0  0  0  0  0  0  0
   -0.7500    6.4952    0.0000 C   0  0  0  0  0  0  0  0  0  0  0  0
    0.7500    6.4952    0.0000 C   0  0  0  0  0  0  0  0  0  0  0  0
    1.5000    7.7942    0.0000 C   0  0  0  0  0  0  0  0  0  0  0  0
    0.7500    9.0933    0.0000 N   0  0  0  0  0  0  0  0  0  0  0  0
   -0.7500    9.0933    0.0000 C   0  0  0  0  0  0  0  0  0  0  0  0
   -1.5000    7.7942    0.0000 C   0  0  0  0  0  0  0  0  0  0  0  0
   -1.5000    0.0000    0.0000 C   0  0  0  0  0  0  0  0  0  0  0  0
   -0.7500   -1.2990    0.0000 C   0  0  0  0  0  0  0  0  0  0  0  0
   -4.6904   -6.5871    0.0000 C   0  0  0  0  0  0  0  0  0  0  0  0
   -6.1170   -7.0506    0.0000 C   0  0  0  0  0  0  0  0  0  0  0  0
  1  2  1  0
  2  3  2  0
  2  4  2  0
  2  5  1  0
  5  6  2  0
  6  7  1  0
  7  8  2  0
  8  9  1  0
  9 10  2  3
 10 11  1  0
 11 12  2  0
 12 13  1  0
 12 14  1  0
 14 15  1  0
 15 16  2  0
 16 17  1  0
 17 18  2  0
 18 19  1  0
 19 20  2  0
 19 21  1  0
 21 22  1  0
 22 23  1  0
 23 24  2  0
 24 25  1  0
 25 26  2  0
 26 27  1  0
 27 28  2  0
 18 29  1  0
 29 30  2  0
  8 31  1  0
 31 32  2  0
 32  5  1  0
 30 11  1  0
 30 15  1  0
 28 23  1  0
M  END
>  <Compound_ID>  (122) 
CHEMBL82729

>  <Active>  (122) 
1.0

>  <Smiles>  (122) 
NS(=O)(=O)c1ccc(N=Nc2c(O)[nH]c3ccc(C(=O)NCc4ccncc4)cc23)cc1

>  <canonical_smi>  (122) 
NS(=O)(=O)c1ccc(N=Nc2c(O)[nH]c3ccc(C(=O)NCc4ccncc4)cc23)cc1

>  <Set>  (122) 
G2 active

>  <Set_type>  (122) 
Train

>  <MW>  (122) 
450.48

>  <HBD>  (122) 
4

>  <HBA>  (122) 
5

>  <NRB>  (122) 
6

>  <NR>  (122) 
4

>  <NAR>  (122) 
4

>  <PSA>  (122) 
162.89

>  <Standard Type>  (122) 
nan

>  <Standard Relation>  (122) 
nan

>  <Standard Units>  (122) 
nan

>  <Standard Value>  (122) 
nan

>  <Assay ChEMBL ID>  (122) 
nan

>  <Assay Description>  (122) 
nan

>  <BAO Label>  (122) 
nan

$$$$

     RDKit          2D

 32 35  0  0  0  0  0  0  0  0999 V2000
  -10.0849   -6.9740    0.0000 N   0  0  0  0  0  0  0  0  0  0  0  0
   -8.6583   -6.5105    0.0000 S   0  0  0  0  0  0  0  0  0  0  0  0
   -9.1218   -5.0839    0.0000 O   0  0  0  0  0  0  0  0  0  0  0  0
   -8.1948   -7.9371    0.0000 O   0  0  0  0  0  0  0  0  0  0  0  0
   -7.2317   -6.0469    0.0000 C   0  0  0  0  0  0  0  0  0  0  0  0
   -6.9199   -4.5797    0.0000 C   0  0  0  0  0  0  0  0  0  0  0  0
   -5.4933   -4.1162    0.0000 C   0  0  0  0  0  0  0  0  0  0  0  0
   -4.3786   -5.1199    0.0000 C   0  0  0  0  0  0  0  0  0  0  0  0
   -2.9520   -4.6564    0.0000 N   0  0  0  0  0  0  0  0  0  0  0  0
   -2.6401   -3.1891    0.0000 N   0  0  0  0  0  0  0  0  0  0  0  0
   -1.2135   -2.7256    0.0000 C   0  0  0  0  0  0  0  0  0  0  0  0
   -0.0000   -3.6073    0.0000 C   0  0  0  0  0  0  0  0  0  0  0  0
    0.0000   -5.1073    0.0000 O   0  0  0  0  0  0  0  0  0  0  0  0
    1.2135   -2.7256    0.0000 N   0  0  0  0  0  0  0  0  0  0  0  0
    0.7500   -1.2990    0.0000 C   0  0  0  0  0  0  0  0  0  0  0  0
    1.5000    0.0000    0.0000 C   0  0  0  0  0  0  0  0  0  0  0  0
    0.7500    1.2990    0.0000 C   0  0  0  0  0  0  0  0  0  0  0  0
   -0.7500    1.2990    0.0000 C   0  0  0  0  0  0  0  0  0  0  0  0
   -1.5000    2.5981    0.0000 C   0  0  0  0  0  0  0  0  0  0  0  0
   -3.0000    2.5981    0.0000 O   0  0  0  0  0  0  0  0  0  0  0  0
   -0.7500    3.8971    0.0000 N   0  0  0  0  0  0  0  0  0  0  0  0
   -1.5000    5.1962    0.0000 C   0  0  0  0  0  0  0  0  0  0  0  0
   -0.7500    6.4952    0.0000 C   0  0  0  0  0  0  0  0  0  0  0  0
    0.7500    6.4952    0.0000 C   0  0  0  0  0  0  0  0  0  0  0  0
    1.5000    7.7942    0.0000 C   0  0  0  0  0  0  0  0  0  0  0  0
    0.7500    9.0933    0.0000 N   0  0  0  0  0  0  0  0  0  0  0  0
   -0.7500    9.0933    0.0000 C   0  0  0  0  0  0  0  0  0  0  0  0
   -1.5000    7.7942    0.0000 C   0  0  0  0  0  0  0  0  0  0  0  0
   -1.5000    0.0000    0.0000 C   0  0  0  0  0  0  0  0  0  0  0  0
   -0.7500   -1.2990    0.0000 C   0  0  0  0  0  0  0  0  0  0  0  0
   -4.6904   -6.5871    0.0000 C   0  0  0  0  0  0  0  0  0  0  0  0
   -6.1170   -7.0506    0.0000 C   0  0  0  0  0  0  0  0  0  0  0  0
  1  2  1  0
  2  3  2  0
  2  4  2  0
  2  5  1  0
  5  6  2  0
  6  7  1  0
  7  8  2  0
  8  9  1  0
  9 10  1  0
 10 11  2  0
 11 12  1  0
 12 13  2  0
 12 14  1  0
 14 15  1  0
 15 16  2  0
 16 17  1  0
 17 18  2  0
 18 19  1  0
 19 20  2  0
 19 21  1  0
 21 22  1  0
 22 23  1  0
 23 24  2  0
 24 25  1  0
 25 26  2  0
 26 27  1  0
 27 28  2  0
 18 29  1  0
 29 30  2  0
  8 31  1  0
 31 32  2  0
 32  5  1  0
 30 11  1  0
 30 15  1  0
 28 23  1  0
M  END
>  <Compound_ID>  (123) 
CHEMBL272165

>  <Active>  (123) 
1.0

>  <Smiles>  (123) 
NS(=O)(=O)c1ccc(N/N=C2\C(=O)Nc3ccc(C(=O)NCc4ccncc4)cc32)cc1

>  <canonical_smi>  (123) 
NS(=O)(=O)c1ccc(N/N=C2\C(=O)Nc3ccc(C(=O)NCc4ccncc4)cc32)cc1

>  <Set>  (123) 
G2 active

>  <Set_type>  (123) 
Train

>  <MW>  (123) 
450.48

>  <HBD>  (123) 
4

>  <HBA>  (123) 
6

>  <NRB>  (123) 
6

>  <NR>  (123) 
4

>  <NAR>  (123) 
3

>  <PSA>  (123) 
155.64

>  <Standard Type>  (123) 
nan

>  <Standard Relation>  (123) 
nan

>  <Standard Units>  (123) 
nan

>  <Standard Value>  (123) 
nan

>  <Assay ChEMBL ID>  (123) 
nan

>  <Assay Description>  (123) 
nan

>  <BAO Label>  (123) 
nan

$$$$

     RDKit          2D

 22 25  0  0  0  0  0  0  0  0999 V2000
    5.2500   -1.2990    0.0000 N   0  0  0  0  0  0  0  0  0  0  0  0
    3.7500   -1.2990    0.0000 C   0  0  0  0  0  0  0  0  0  0  0  0
    3.0000   -2.5981    0.0000 O   0  0  0  0  0  0  0  0  0  0  0  0
    3.0000    0.0000    0.0000 N   0  0  0  0  0  0  0  0  0  0  0  0
    1.5000    0.0000    0.0000 C   0  0  0  0  0  0  0  0  0  0  0  0
    0.7500   -1.2990    0.0000 C   0  0  0  0  0  0  0  0  0  0  0  0
   -0.7500   -1.2990    0.0000 C   0  0  0  0  0  0  0  0  0  0  0  0
   -1.5000    0.0000    0.0000 C   0  0  0  0  0  0  0  0  0  0  0  0
   -0.7500    1.2990    0.0000 C   0  0  0  0  0  0  0  0  0  0  0  0
    0.7500    1.2990    0.0000 C   0  0  0  0  0  0  0  0  0  0  0  0
    1.2135    2.7256    0.0000 C   0  0  0  0  0  0  0  0  0  0  0  0
    2.6401    3.1891    0.0000 O   0  0  0  0  0  0  0  0  0  0  0  0
    0.0000    3.6073    0.0000 C   0  0  0  0  0  0  0  0  0  0  0  0
   -0.4635    5.0339    0.0000 C   0  0  0  0  0  0  0  0  0  0  0  0
    0.4182    6.2474    0.0000 C   0  0  0  0  0  0  0  0  0  0  0  0
   -0.0454    7.6740    0.0000 C   0  0  0  0  0  0  0  0  0  0  0  0
    1.1682    8.5557    0.0000 C   0  0  0  0  0  0  0  0  0  0  0  0
    2.3817    7.6740    0.0000 S   0  0  0  0  0  0  0  0  0  0  0  0
    1.9182    6.2474    0.0000 C   0  0  0  0  0  0  0  0  0  0  0  0
   -1.9635    5.0339    0.0000 N   0  0  0  0  0  0  0  0  0  0  0  0
   -2.4271    3.6073    0.0000 N   0  0  0  0  0  0  0  0  0  0  0  0
   -1.2135    2.7256    0.0000 C   0  0  0  0  0  0  0  0  0  0  0  0
  1  2  1  0
  2  3  2  0
  2  4  1  0
  4  5  1  0
  5  6  2  0
  6  7  1  0
  7  8  2  0
  8  9  1  0
  9 10  2  0
 10 11  1  0
 11 12  2  0
 11 13  1  0
 13 14  1  0
 14 15  1  0
 15 16  1  0
 16 17  2  0
 17 18  1  0
 18 19  1  0
 14 20  2  0
 20 21  1  0
 21 22  1  0
 10  5  1  0
 22 13  2  0
 22  9  1  0
 19 15  2  0
M  END
>  <Compound_ID>  (124) 
CHEMBL150867

>  <Active>  (124) 
1.0

>  <Smiles>  (124) 
NC(=O)Nc1cccc2c1C(=O)c1c(-c3ccsc3)n[nH]c1-2

>  <canonical_smi>  (124) 
NC(=O)Nc1cccc2c1C(=O)c1c(-c3ccsc3)n[nH]c1-2

>  <Set>  (124) 
G2 active

>  <Set_type>  (124) 
Train

>  <MW>  (124) 
310.34

>  <HBD>  (124) 
3

>  <HBA>  (124) 
3

>  <NRB>  (124) 
2

>  <NR>  (124) 
4

>  <NAR>  (124) 
4

>  <PSA>  (124) 
100.87

>  <Standard Type>  (124) 
nan

>  <Standard Relation>  (124) 
nan

>  <Standard Units>  (124) 
nan

>  <Standard Value>  (124) 
nan

>  <Assay ChEMBL ID>  (124) 
nan

>  <Assay Description>  (124) 
nan

>  <BAO Label>  (124) 
nan

$$$$

     RDKit          2D

 25 27  0  0  0  0  0  0  0  0999 V2000
   -8.6562    2.3705    0.0000 C   0  0  0  0  0  0  0  0  0  0  0  0
   -7.2296    2.8340    0.0000 C   0  0  0  0  0  0  0  0  0  0  0  0
   -6.1149    1.8303    0.0000 C   0  0  0  0  0  0  0  0  0  0  0  0
   -4.6883    2.2939    0.0000 C   0  0  0  0  0  0  0  0  0  0  0  0
   -3.5736    1.2902    0.0000 O   0  0  0  0  0  0  0  0  0  0  0  0
   -2.1470    1.7537    0.0000 C   0  0  0  0  0  0  0  0  0  0  0  0
   -1.8351    3.2209    0.0000 C   0  0  0  0  0  0  0  0  0  0  0  0
   -2.9499    4.2246    0.0000 C   0  0  0  0  0  0  0  0  0  0  0  0
   -4.3764    3.7611    0.0000 O   0  0  0  0  0  0  0  0  0  0  0  0
   -2.6380    5.6918    0.0000 C   0  0  0  0  0  0  0  0  0  0  0  0
   -1.2114    6.1554    0.0000 C   0  0  0  0  0  0  0  0  0  0  0  0
   -0.0967    5.1517    0.0000 F   0  0  0  0  0  0  0  0  0  0  0  0
   -0.8995    7.6226    0.0000 C   0  0  0  0  0  0  0  0  0  0  0  0
   -2.0143    8.6263    0.0000 C   0  0  0  0  0  0  0  0  0  0  0  0
   -1.7024   10.0935    0.0000 C   0  0  0  0  0  0  0  0  0  0  0  0
   -3.4408    8.1628    0.0000 C   0  0  0  0  0  0  0  0  0  0  0  0
   -3.7527    6.6955    0.0000 C   0  0  0  0  0  0  0  0  0  0  0  0
   -5.1793    6.2320    0.0000 F   0  0  0  0  0  0  0  0  0  0  0  0
   -0.4086    3.6844    0.0000 C   0  0  0  0  0  0  0  0  0  0  0  0
    0.7062    2.6807    0.0000 N   0  0  0  0  0  0  0  0  0  0  0  0
    0.3943    1.2135    0.0000 C   0  0  0  0  0  0  0  0  0  0  0  0
    1.2760    0.0000    0.0000 N   0  0  0  0  0  0  0  0  0  0  0  0
    0.3943   -1.2135    0.0000 N   0  0  0  0  0  0  0  0  0  0  0  0
   -1.0323   -0.7500    0.0000 C   0  0  0  0  0  0  0  0  0  0  0  0
   -1.0323    0.7500    0.0000 C   0  0  0  0  0  0  0  0  0  0  0  0
  1  2  1  0
  2  3  1  0
  3  4  1  0
  4  5  1  0
  5  6  1  0
  6  7  1  0
  7  8  1  0
  8  9  2  0
  8 10  1  0
 10 11  2  0
 11 12  1  0
 11 13  1  0
 13 14  2  0
 14 15  1  0
 14 16  1  0
 16 17  2  0
 17 18  1  0
  7 19  2  0
 19 20  1  0
 20 21  1  0
 21 22  2  0
 22 23  1  0
 23 24  2  0
 24 25  1  0
 25  6  2  0
 17 10  1  0
 25 21  1  0
M  END
>  <Compound_ID>  (125) 
CHEMBL310840

>  <Active>  (125) 
1.0

>  <Smiles>  (125) 
CCCCOc1c(C(=O)c2c(F)cc(C)cc2F)c[nH]c2nncc1-2

>  <canonical_smi>  (125) 
CCCCOc1c(C(=O)c2c(F)cc(C)cc2F)c[nH]c2nncc1-2

>  <Set>  (125) 
G2 active

>  <Set_type>  (125) 
Train

>  <MW>  (125) 
345.35

>  <HBD>  (125) 
1

>  <HBA>  (125) 
4

>  <NRB>  (125) 
6

>  <NR>  (125) 
3

>  <NAR>  (125) 
3

>  <PSA>  (125) 
67.87

>  <Standard Type>  (125) 
nan

>  <Standard Relation>  (125) 
nan

>  <Standard Units>  (125) 
nan

>  <Standard Value>  (125) 
nan

>  <Assay ChEMBL ID>  (125) 
nan

>  <Assay Description>  (125) 
nan

>  <BAO Label>  (125) 
nan

$$$$

     RDKit          2D

 26 29  0  0  0  0  0  0  0  0999 V2000
    5.2500    1.2990    0.0000 C   0  0  0  0  0  0  0  0  0  0  0  0
    4.5000    0.0000    0.0000 N   0  0  0  0  0  0  0  0  0  0  0  0
    3.0000    0.0000    0.0000 S   0  0  0  0  0  0  0  0  0  0  0  0
    3.0000   -1.5000    0.0000 O   0  0  0  0  0  0  0  0  0  0  0  0
    3.0000    1.5000    0.0000 O   0  0  0  0  0  0  0  0  0  0  0  0
    1.5000    0.0000    0.0000 C   0  0  0  0  0  0  0  0  0  0  0  0
    0.7500   -1.2990    0.0000 C   0  0  0  0  0  0  0  0  0  0  0  0
   -0.7500   -1.2990    0.0000 C   0  0  0  0  0  0  0  0  0  0  0  0
   -1.5000    0.0000    0.0000 C   0  0  0  0  0  0  0  0  0  0  0  0
   -0.7500    1.2990    0.0000 C   0  0  0  0  0  0  0  0  0  0  0  0
    0.7500    1.2990    0.0000 C   0  0  0  0  0  0  0  0  0  0  0  0
   -1.7537    2.4138    0.0000 C   0  0  0  0  0  0  0  0  0  0  0  0
   -1.4418    3.8810    0.0000 C   0  0  0  0  0  0  0  0  0  0  0  0
   -2.5565    4.8847    0.0000 C   0  0  0  0  0  0  0  0  0  0  0  0
   -4.0238    4.5728    0.0000 N   0  0  0  0  0  0  0  0  0  0  0  0
   -4.7738    5.8718    0.0000 C   0  0  0  0  0  0  0  0  0  0  0  0
   -3.7701    6.9866    0.0000 C   0  0  0  0  0  0  0  0  0  0  0  0
   -2.3998    6.3765    0.0000 C   0  0  0  0  0  0  0  0  0  0  0  0
   -1.1862    7.2581    0.0000 C   0  0  0  0  0  0  0  0  0  0  0  0
   -1.3430    8.7499    0.0000 C   0  0  0  0  0  0  0  0  0  0  0  0
   -2.7133    9.3600    0.0000 N   0  0  0  0  0  0  0  0  0  0  0  0
   -3.9269    8.4783    0.0000 C   0  0  0  0  0  0  0  0  0  0  0  0
   -5.2972    9.0884    0.0000 O   0  0  0  0  0  0  0  0  0  0  0  0
   -3.1240    1.8037    0.0000 C   0  0  0  0  0  0  0  0  0  0  0  0
   -4.4231    2.5537    0.0000 O   0  0  0  0  0  0  0  0  0  0  0  0
   -2.9672    0.3119    0.0000 N   0  0  0  0  0  0  0  0  0  0  0  0
  1  2  1  0
  2  3  1  0
  3  4  2  0
  3  5  2  0
  3  6  1  0
  6  7  2  0
  7  8  1  0
  8  9  2  0
  9 10  1  0
 10 11  2  0
 10 12  1  0
 12 13  2  0
 13 14  1  0
 14 15  1  0
 15 16  1  0
 16 17  2  0
 17 18  1  0
 18 19  1  0
 19 20  1  0
 20 21  1  0
 21 22  1  0
 22 23  2  0
 12 24  1  0
 24 25  2  0
 24 26  1  0
 11  6  1  0
 18 14  2  0
 26  9  1  0
 22 17  1  0
M  END
>  <Compound_ID>  (126) 
CHEMBL294884

>  <Active>  (126) 
1.0

>  <Smiles>  (126) 
CNS(=O)(=O)c1ccc2c(c1)/C(=C/c1[nH]cc3c1CCNC3=O)C(=O)N2

>  <canonical_smi>  (126) 
CNS(=O)(=O)c1ccc2c(c1)/C(=C/c1[nH]cc3c1CCNC3=O)C(=O)N2

>  <Set>  (126) 
G2 active

>  <Set_type>  (126) 
Train

>  <MW>  (126) 
372.41

>  <HBD>  (126) 
4

>  <HBA>  (126) 
4

>  <NRB>  (126) 
3

>  <NR>  (126) 
4

>  <NAR>  (126) 
2

>  <PSA>  (126) 
120.16

>  <Standard Type>  (126) 
nan

>  <Standard Relation>  (126) 
nan

>  <Standard Units>  (126) 
nan

>  <Standard Value>  (126) 
nan

>  <Assay ChEMBL ID>  (126) 
nan

>  <Assay Description>  (126) 
nan

>  <BAO Label>  (126) 
nan

$$$$

     RDKit          2D

 31 34  0  0  0  0  0  0  0  0999 V2000
    1.8478   -6.4639    0.0000 C   0  0  0  0  0  0  0  0  0  0  0  0
    2.0046   -4.9721    0.0000 C   0  0  0  0  0  0  0  0  0  0  0  0
    3.3037   -4.2221    0.0000 N   0  0  0  0  0  0  0  0  0  0  0  0
    2.9918   -2.7549    0.0000 C   0  0  0  0  0  0  0  0  0  0  0  0
    1.5000   -2.5981    0.0000 C   0  0  0  0  0  0  0  0  0  0  0  0
    0.7500   -1.2990    0.0000 C   0  0  0  0  0  0  0  0  0  0  0  0
    1.5000    0.0000    0.0000 C   0  0  0  0  0  0  0  0  0  0  0  0
    0.7500    1.2990    0.0000 C   0  0  0  0  0  0  0  0  0  0  0  0
   -0.7500    1.2990    0.0000 N   0  0  0  0  0  0  0  0  0  0  0  0
   -1.5000    0.0000    0.0000 C   0  0  0  0  0  0  0  0  0  0  0  0
   -3.0000    0.0000    0.0000 N   0  0  0  0  0  0  0  0  0  0  0  0
   -3.7500    1.2990    0.0000 C   0  0  0  0  0  0  0  0  0  0  0  0
   -3.0000    2.5981    0.0000 C   0  0  0  0  0  0  0  0  0  0  0  0
   -3.7500    3.8971    0.0000 C   0  0  0  0  0  0  0  0  0  0  0  0
   -5.2500    3.8971    0.0000 C   0  0  0  0  0  0  0  0  0  0  0  0
   -6.0000    5.1962    0.0000 C   0  0  0  0  0  0  0  0  0  0  0  0
   -7.5000    5.1962    0.0000 O   0  0  0  0  0  0  0  0  0  0  0  0
   -5.2500    6.4952    0.0000 N   0  0  0  0  0  0  0  0  0  0  0  0
   -3.7500    6.4952    0.0000 C   0  0  0  0  0  0  0  0  0  0  0  0
   -3.0000    7.7942    0.0000 C   0  0  0  0  0  0  0  0  0  0  0  0
   -3.7500    9.0933    0.0000 N   0  0  0  0  0  0  0  0  0  0  0  0
   -3.0000   10.3923    0.0000 C   0  0  0  0  0  0  0  0  0  0  0  0
   -5.2500    9.0933    0.0000 C   0  0  0  0  0  0  0  0  0  0  0  0
   -6.0000    7.7942    0.0000 C   0  0  0  0  0  0  0  0  0  0  0  0
   -6.0000    2.5981    0.0000 C   0  0  0  0  0  0  0  0  0  0  0  0
   -5.2500    1.2990    0.0000 C   0  0  0  0  0  0  0  0  0  0  0  0
   -0.7500   -1.2990    0.0000 N   0  0  0  0  0  0  0  0  0  0  0  0
    0.8899   -3.9684    0.0000 N   0  0  0  0  0  0  0  0  0  0  0  0
   -0.5773   -4.2803    0.0000 C   0  0  0  0  0  0  0  0  0  0  0  0
   -1.0409   -5.7068    0.0000 C   0  0  0  0  0  0  0  0  0  0  0  0
   -1.5810   -3.1655    0.0000 C   0  0  0  0  0  0  0  0  0  0  0  0
  1  2  1  0
  2  3  2  0
  3  4  1  0
  4  5  2  0
  5  6  1  0
  6  7  2  0
  7  8  1  0
  8  9  2  0
  9 10  1  0
 10 11  1  0
 11 12  1  0
 12 13  2  0
 13 14  1  0
 14 15  2  0
 15 16  1  0
 16 17  2  0
 16 18  1  0
 18 19  1  0
 19 20  1  0
 20 21  1  0
 21 22  1  0
 21 23  1  0
 23 24  1  0
 15 25  1  0
 25 26  2  0
 10 27  2  0
  5 28  1  0
 28 29  1  0
 29 30  1  0
 29 31  1  0
 28  2  1  0
 27  6  1  0
 26 12  1  0
 24 18  1  0
M  END
>  <Compound_ID>  (127) 
CHEMBL455467

>  <Active>  (127) 
1.0

>  <Smiles>  (127) 
Cc1ncc(-c2ccnc(Nc3ccc(C(=O)N4CCN(C)CC4)cc3)n2)n1C(C)C

>  <canonical_smi>  (127) 
Cc1ncc(-c2ccnc(Nc3ccc(C(=O)N4CCN(C)CC4)cc3)n2)n1C(C)C

>  <Set>  (127) 
G2 active

>  <Set_type>  (127) 
Train

>  <MW>  (127) 
419.53

>  <HBD>  (127) 
1

>  <HBA>  (127) 
6

>  <NRB>  (127) 
5

>  <NR>  (127) 
4

>  <NAR>  (127) 
3

>  <PSA>  (127) 
79.18

>  <Standard Type>  (127) 
nan

>  <Standard Relation>  (127) 
nan

>  <Standard Units>  (127) 
nan

>  <Standard Value>  (127) 
nan

>  <Assay ChEMBL ID>  (127) 
nan

>  <Assay Description>  (127) 
nan

>  <BAO Label>  (127) 
nan

$$$$

     RDKit          2D

 31 34  0  0  0  0  0  0  0  0999 V2000
  -10.0849   -6.9740    0.0000 N   0  0  0  0  0  0  0  0  0  0  0  0
   -8.6583   -6.5105    0.0000 S   0  0  0  0  0  0  0  0  0  0  0  0
   -9.1218   -5.0839    0.0000 O   0  0  0  0  0  0  0  0  0  0  0  0
   -8.1948   -7.9371    0.0000 O   0  0  0  0  0  0  0  0  0  0  0  0
   -7.2317   -6.0469    0.0000 C   0  0  0  0  0  0  0  0  0  0  0  0
   -6.9199   -4.5797    0.0000 C   0  0  0  0  0  0  0  0  0  0  0  0
   -5.4933   -4.1162    0.0000 C   0  0  0  0  0  0  0  0  0  0  0  0
   -4.3786   -5.1199    0.0000 C   0  0  0  0  0  0  0  0  0  0  0  0
   -2.9520   -4.6564    0.0000 N   0  0  0  0  0  0  0  0  0  0  0  0
   -2.6401   -3.1891    0.0000 N   0  0  0  0  0  0  0  0  0  0  0  0
   -1.2135   -2.7256    0.0000 C   0  0  0  0  0  0  0  0  0  0  0  0
   -0.0000   -3.6073    0.0000 C   0  0  0  0  0  0  0  0  0  0  0  0
    0.0000   -5.1073    0.0000 O   0  0  0  0  0  0  0  0  0  0  0  0
    1.2135   -2.7256    0.0000 N   0  0  0  0  0  0  0  0  0  0  0  0
    0.7500   -1.2990    0.0000 C   0  0  0  0  0  0  0  0  0  0  0  0
    1.5000    0.0000    0.0000 C   0  0  0  0  0  0  0  0  0  0  0  0
    0.7500    1.2990    0.0000 C   0  0  0  0  0  0  0  0  0  0  0  0
   -0.7500    1.2990    0.0000 C   0  0  0  0  0  0  0  0  0  0  0  0
   -1.5000    0.0000    0.0000 C   0  0  0  0  0  0  0  0  0  0  0  0
   -3.0000    0.0000    0.0000 C   0  0  0  0  0  0  0  0  0  0  0  0
   -3.7500    1.2990    0.0000 C   0  0  0  0  0  0  0  0  0  0  0  0
   -5.2500    1.2990    0.0000 C   0  0  0  0  0  0  0  0  0  0  0  0
   -6.0000    2.5981    0.0000 C   0  0  0  0  0  0  0  0  0  0  0  0
   -7.5000    2.5981    0.0000 C   0  0  0  0  0  0  0  0  0  0  0  0
   -8.2500    1.2990    0.0000 C   0  0  0  0  0  0  0  0  0  0  0  0
   -9.7500    1.2990    0.0000 O   0  0  0  0  0  0  0  0  0  0  0  0
   -7.5000    0.0000    0.0000 C   0  0  0  0  0  0  0  0  0  0  0  0
   -6.0000    0.0000    0.0000 C   0  0  0  0  0  0  0  0  0  0  0  0
   -0.7500   -1.2990    0.0000 C   0  0  0  0  0  0  0  0  0  0  0  0
   -4.6904   -6.5871    0.0000 C   0  0  0  0  0  0  0  0  0  0  0  0
   -6.1170   -7.0506    0.0000 C   0  0  0  0  0  0  0  0  0  0  0  0
  1  2  1  0
  2  3  2  0
  2  4  2  0
  2  5  1  0
  5  6  2  0
  6  7  1  0
  7  8  2  0
  8  9  1  0
  9 10  1  0
 10 11  2  0
 11 12  1  0
 12 13  2  0
 12 14  1  0
 14 15  1  0
 15 16  2  0
 16 17  1  0
 17 18  2  0
 18 19  1  0
 19 20  1  0
 20 21  2  0
 21 22  1  0
 22 23  2  0
 23 24  1  0
 24 25  2  0
 25 26  1  0
 25 27  1  0
 27 28  2  0
 19 29  2  0
  8 30  1  0
 30 31  2  0
 31  5  1  0
 29 11  1  0
 29 15  1  0
 28 22  1  0
M  END
>  <Compound_ID>  (128) 
CHEMBL272380

>  <Active>  (128) 
1.0

>  <Smiles>  (128) 
NS(=O)(=O)c1ccc(N/N=C2\C(=O)Nc3cccc(/C=C/c4ccc(O)cc4)c32)cc1

>  <canonical_smi>  (128) 
NS(=O)(=O)c1ccc(N/N=C2\C(=O)Nc3cccc(/C=C/c4ccc(O)cc4)c32)cc1

>  <Set>  (128) 
G2 active

>  <Set_type>  (128) 
Train

>  <MW>  (128) 
434.48

>  <HBD>  (128) 
4

>  <HBA>  (128) 
5

>  <NRB>  (128) 
5

>  <NR>  (128) 
4

>  <NAR>  (128) 
3

>  <PSA>  (128) 
133.88

>  <Standard Type>  (128) 
nan

>  <Standard Relation>  (128) 
nan

>  <Standard Units>  (128) 
nan

>  <Standard Value>  (128) 
nan

>  <Assay ChEMBL ID>  (128) 
nan

>  <Assay Description>  (128) 
nan

>  <BAO Label>  (128) 
nan

$$$$

     RDKit          2D

 35 40  0  0  0  0  0  0  0  0999 V2000
  -10.1878   -4.1483    0.0000 O   0  0  0  0  0  0  0  0  0  0  0  0
   -8.8888   -4.8983    0.0000 S   0  0  0  0  0  0  0  0  0  0  0  0
   -7.5897   -5.6483    0.0000 O   0  0  0  0  0  0  0  0  0  0  0  0
   -9.6388   -6.1973    0.0000 N   0  0  0  0  0  0  0  0  0  0  0  0
   -8.8888   -7.4964    0.0000 N   0  0  0  0  0  0  0  0  0  0  0  0
   -7.3888   -7.4964    0.0000 C   0  0  0  0  0  0  0  0  0  0  0  0
   -6.6388   -8.7954    0.0000 C   0  0  0  0  0  0  0  0  0  0  0  0
   -7.3888  -10.0944    0.0000 C   0  0  0  0  0  0  0  0  0  0  0  0
   -6.6388  -11.3935    0.0000 C   0  0  0  0  0  0  0  0  0  0  0  0
   -7.3888  -12.6925    0.0000 C   0  0  0  0  0  0  0  0  0  0  0  0
   -8.8888  -12.6925    0.0000 C   0  0  0  0  0  0  0  0  0  0  0  0
   -9.6388  -11.3935    0.0000 C   0  0  0  0  0  0  0  0  0  0  0  0
   -8.8888  -10.0944    0.0000 C   0  0  0  0  0  0  0  0  0  0  0  0
   -9.6388   -8.7954    0.0000 C   0  0  0  0  0  0  0  0  0  0  0  0
   -8.1388   -3.5992    0.0000 C   0  0  0  0  0  0  0  0  0  0  0  0
   -6.6388   -3.5992    0.0000 C   0  0  0  0  0  0  0  0  0  0  0  0
   -5.8888   -2.3002    0.0000 C   0  0  0  0  0  0  0  0  0  0  0  0
   -6.6388   -1.0012    0.0000 C   0  0  0  0  0  0  0  0  0  0  0  0
   -5.8888    0.2979    0.0000 N   0  0  0  0  0  0  0  0  0  0  0  0
   -4.3888    0.2979    0.0000 C   0  0  0  0  0  0  0  0  0  0  0  0
   -3.6388    1.5969    0.0000 C   0  0  0  0  0  0  0  0  0  0  0  0
   -4.2489    2.9672    0.0000 C   0  0  0  0  0  0  0  0  0  0  0  0
   -5.7161    3.2791    0.0000 O   0  0  0  0  0  0  0  0  0  0  0  0
   -3.1342    3.9709    0.0000 N   0  0  0  0  0  0  0  0  0  0  0  0
   -1.8351    3.2209    0.0000 C   0  0  0  0  0  0  0  0  0  0  0  0
   -0.4086    3.6844    0.0000 C   0  0  0  0  0  0  0  0  0  0  0  0
    0.7062    2.6807    0.0000 C   0  0  0  0  0  0  0  0  0  0  0  0
    0.3943    1.2135    0.0000 C   0  0  0  0  0  0  0  0  0  0  0  0
    1.2760    0.0000    0.0000 N   0  0  0  0  0  0  0  0  0  0  0  0
    0.3943   -1.2135    0.0000 C   0  0  0  0  0  0  0  0  0  0  0  0
   -1.0323   -0.7500    0.0000 S   0  0  0  0  0  0  0  0  0  0  0  0
   -1.0323    0.7500    0.0000 C   0  0  0  0  0  0  0  0  0  0  0  0
   -2.1470    1.7537    0.0000 C   0  0  0  0  0  0  0  0  0  0  0  0
   -8.1388   -1.0012    0.0000 C   0  0  0  0  0  0  0  0  0  0  0  0
   -8.8888   -2.3002    0.0000 C   0  0  0  0  0  0  0  0  0  0  0  0
  1  2  2  0
  2  3  2  0
  2  4  1  0
  4  5  1  0
  5  6  1  0
  6  7  2  0
  7  8  1  0
  8  9  2  0
  9 10  1  0
 10 11  2  0
 11 12  1  0
 12 13  2  0
 13 14  1  0
  2 15  1  0
 15 16  2  0
 16 17  1  0
 17 18  2  0
 18 19  1  0
 19 20  2  0
 20 21  1  0
 21 22  2  0
 22 23  1  0
 22 24  1  0
 24 25  1  0
 25 26  2  0
 26 27  1  0
 27 28  2  0
 28 29  1  0
 29 30  2  0
 30 31  1  0
 31 32  1  0
 32 33  2  0
 18 34  1  0
 34 35  2  0
 14  5  1  0
 35 15  1  0
 13  8  1  0
 33 21  1  0
 33 25  1  0
 32 28  1  0
M  END
>  <Compound_ID>  (129) 
CHEMBL139527

>  <Active>  (129) 
1.0

>  <Smiles>  (129) 
O=S(=O)(NN1C=Cc2ccccc2C1)c1ccc(/N=C/c2c(O)[nH]c3ccc4ncsc4c23)cc1

>  <canonical_smi>  (129) 
O=S(=O)(NN1C=Cc2ccccc2C1)c1ccc(/N=C/c2c(O)[nH]c3ccc4ncsc4c23)cc1

>  <Set>  (129) 
G2 active

>  <Set_type>  (129) 
Train

>  <MW>  (129) 
501.59

>  <HBD>  (129) 
3

>  <HBA>  (129) 
5

>  <NRB>  (129) 
5

>  <NR>  (129) 
6

>  <NAR>  (129) 
5

>  <PSA>  (129) 
110.68

>  <Standard Type>  (129) 
nan

>  <Standard Relation>  (129) 
nan

>  <Standard Units>  (129) 
nan

>  <Standard Value>  (129) 
nan

>  <Assay ChEMBL ID>  (129) 
nan

>  <Assay Description>  (129) 
nan

>  <BAO Label>  (129) 
nan

$$$$

     RDKit          2D

 25 28  0  0  0  0  0  0  0  0999 V2000
   -9.6388   -6.1973    0.0000 N   0  0  0  0  0  0  0  0  0  0  0  0
   -8.8888   -4.8983    0.0000 S   0  0  0  0  0  0  0  0  0  0  0  0
  -10.1878   -4.1483    0.0000 O   0  0  0  0  0  0  0  0  0  0  0  0
   -7.5897   -5.6483    0.0000 O   0  0  0  0  0  0  0  0  0  0  0  0
   -8.1388   -3.5992    0.0000 C   0  0  0  0  0  0  0  0  0  0  0  0
   -8.8888   -2.3002    0.0000 C   0  0  0  0  0  0  0  0  0  0  0  0
   -8.1388   -1.0012    0.0000 C   0  0  0  0  0  0  0  0  0  0  0  0
   -6.6388   -1.0012    0.0000 C   0  0  0  0  0  0  0  0  0  0  0  0
   -5.8888    0.2979    0.0000 N   0  0  0  0  0  0  0  0  0  0  0  0
   -4.3888    0.2979    0.0000 N   0  0  0  0  0  0  0  0  0  0  0  0
   -3.6388    1.5969    0.0000 C   0  0  0  0  0  0  0  0  0  0  0  0
   -4.2489    2.9672    0.0000 C   0  0  0  0  0  0  0  0  0  0  0  0
   -5.7161    3.2791    0.0000 O   0  0  0  0  0  0  0  0  0  0  0  0
   -3.1342    3.9709    0.0000 N   0  0  0  0  0  0  0  0  0  0  0  0
   -1.8351    3.2209    0.0000 C   0  0  0  0  0  0  0  0  0  0  0  0
   -0.4086    3.6844    0.0000 C   0  0  0  0  0  0  0  0  0  0  0  0
    0.7062    2.6807    0.0000 C   0  0  0  0  0  0  0  0  0  0  0  0
    0.3943    1.2135    0.0000 C   0  0  0  0  0  0  0  0  0  0  0  0
    1.2760    0.0000    0.0000 N   0  0  0  0  0  0  0  0  0  0  0  0
    0.3943   -1.2135    0.0000 N   0  0  0  0  0  0  0  0  0  0  0  0
   -1.0323   -0.7500    0.0000 N   0  0  0  0  0  0  0  0  0  0  0  0
   -1.0323    0.7500    0.0000 C   0  0  0  0  0  0  0  0  0  0  0  0
   -2.1470    1.7537    0.0000 C   0  0  0  0  0  0  0  0  0  0  0  0
   -5.8888   -2.3002    0.0000 C   0  0  0  0  0  0  0  0  0  0  0  0
   -6.6388   -3.5992    0.0000 C   0  0  0  0  0  0  0  0  0  0  0  0
  1  2  1  0
  2  3  2  0
  2  4  2  0
  2  5  1  0
  5  6  2  0
  6  7  1  0
  7  8  2  0
  8  9  1  0
  9 10  2  3
 10 11  1  0
 11 12  2  0
 12 13  1  0
 12 14  1  0
 14 15  1  0
 15 16  2  0
 16 17  1  0
 17 18  2  0
 18 19  1  0
 19 20  1  0
 20 21  2  0
 21 22  1  0
 22 23  2  0
  8 24  1  0
 24 25  2  0
 25  5  1  0
 23 11  1  0
 23 15  1  0
 22 18  1  0
M  END
>  <Compound_ID>  (130) 
CHEMBL424469

>  <Active>  (130) 
1.0

>  <Smiles>  (130) 
NS(=O)(=O)c1ccc(N=Nc2c(O)[nH]c3ccc4[nH]nnc4c23)cc1

>  <canonical_smi>  (130) 
NS(=O)(=O)c1ccc(N=Nc2c(O)[nH]c3ccc4[nH]nnc4c23)cc1

>  <Set>  (130) 
G2 active

>  <Set_type>  (130) 
Train

>  <MW>  (130) 
357.36

>  <HBD>  (130) 
4

>  <HBA>  (130) 
5

>  <NRB>  (130) 
3

>  <NR>  (130) 
4

>  <NAR>  (130) 
4

>  <PSA>  (130) 
162.47

>  <Standard Type>  (130) 
nan

>  <Standard Relation>  (130) 
nan

>  <Standard Units>  (130) 
nan

>  <Standard Value>  (130) 
nan

>  <Assay ChEMBL ID>  (130) 
nan

>  <Assay Description>  (130) 
nan

>  <BAO Label>  (130) 
nan

$$$$

     RDKit          2D

 25 28  0  0  0  0  0  0  0  0999 V2000
   -9.6388   -6.1973    0.0000 N   0  0  0  0  0  0  0  0  0  0  0  0
   -8.8888   -4.8983    0.0000 S   0  0  0  0  0  0  0  0  0  0  0  0
  -10.1878   -4.1483    0.0000 O   0  0  0  0  0  0  0  0  0  0  0  0
   -7.5897   -5.6483    0.0000 O   0  0  0  0  0  0  0  0  0  0  0  0
   -8.1388   -3.5992    0.0000 C   0  0  0  0  0  0  0  0  0  0  0  0
   -8.8888   -2.3002    0.0000 C   0  0  0  0  0  0  0  0  0  0  0  0
   -8.1388   -1.0012    0.0000 C   0  0  0  0  0  0  0  0  0  0  0  0
   -6.6388   -1.0012    0.0000 C   0  0  0  0  0  0  0  0  0  0  0  0
   -5.8888    0.2979    0.0000 N   0  0  0  0  0  0  0  0  0  0  0  0
   -4.3888    0.2979    0.0000 N   0  0  0  0  0  0  0  0  0  0  0  0
   -3.6388    1.5969    0.0000 C   0  0  0  0  0  0  0  0  0  0  0  0
   -4.2489    2.9672    0.0000 C   0  0  0  0  0  0  0  0  0  0  0  0
   -5.7161    3.2791    0.0000 O   0  0  0  0  0  0  0  0  0  0  0  0
   -3.1342    3.9709    0.0000 N   0  0  0  0  0  0  0  0  0  0  0  0
   -1.8351    3.2209    0.0000 C   0  0  0  0  0  0  0  0  0  0  0  0
   -0.4086    3.6844    0.0000 C   0  0  0  0  0  0  0  0  0  0  0  0
    0.7062    2.6807    0.0000 C   0  0  0  0  0  0  0  0  0  0  0  0
    0.3943    1.2135    0.0000 C   0  0  0  0  0  0  0  0  0  0  0  0
    1.2760    0.0000    0.0000 N   0  0  0  0  0  0  0  0  0  0  0  0
    0.3943   -1.2135    0.0000 N   0  0  0  0  0  0  0  0  0  0  0  0
   -1.0323   -0.7500    0.0000 N   0  0  0  0  0  0  0  0  0  0  0  0
   -1.0323    0.7500    0.0000 C   0  0  0  0  0  0  0  0  0  0  0  0
   -2.1470    1.7537    0.0000 C   0  0  0  0  0  0  0  0  0  0  0  0
   -5.8888   -2.3002    0.0000 C   0  0  0  0  0  0  0  0  0  0  0  0
   -6.6388   -3.5992    0.0000 C   0  0  0  0  0  0  0  0  0  0  0  0
  1  2  1  0
  2  3  2  0
  2  4  2  0
  2  5  1  0
  5  6  2  0
  6  7  1  0
  7  8  2  0
  8  9  1  0
  9 10  1  0
 10 11  2  0
 11 12  1  0
 12 13  2  0
 12 14  1  0
 14 15  1  0
 15 16  2  0
 16 17  1  0
 17 18  2  0
 18 19  1  0
 19 20  1  0
 20 21  2  0
 21 22  1  0
 22 23  2  0
  8 24  1  0
 24 25  2  0
 25  5  1  0
 23 11  1  0
 23 15  1  0
 22 18  1  0
M  END
>  <Compound_ID>  (131) 
CHEMBL271952

>  <Active>  (131) 
1.0

>  <Smiles>  (131) 
NS(=O)(=O)c1ccc(N/N=C2\C(=O)Nc3ccc4[nH]nnc4c32)cc1

>  <canonical_smi>  (131) 
NS(=O)(=O)c1ccc(N/N=C2\C(=O)Nc3ccc4[nH]nnc4c32)cc1

>  <Set>  (131) 
G2 active

>  <Set_type>  (131) 
Train

>  <MW>  (131) 
357.36

>  <HBD>  (131) 
4

>  <HBA>  (131) 
6

>  <NRB>  (131) 
3

>  <NR>  (131) 
4

>  <NAR>  (131) 
3

>  <PSA>  (131) 
155.22

>  <Standard Type>  (131) 
nan

>  <Standard Relation>  (131) 
nan

>  <Standard Units>  (131) 
nan

>  <Standard Value>  (131) 
nan

>  <Assay ChEMBL ID>  (131) 
nan

>  <Assay Description>  (131) 
nan

>  <BAO Label>  (131) 
nan

$$$$

     RDKit          2D

 37 41  0  0  0  0  0  0  0  0999 V2000
   -8.5234   -7.7536    0.0000 C   0  0  0  0  0  0  0  0  0  0  0  0
   -7.0317   -7.5968    0.0000 O   0  0  0  0  0  0  0  0  0  0  0  0
   -6.4216   -6.2265    0.0000 C   0  0  0  0  0  0  0  0  0  0  0  0
   -7.3032   -5.0129    0.0000 C   0  0  0  0  0  0  0  0  0  0  0  0
   -6.6931   -3.6426    0.0000 C   0  0  0  0  0  0  0  0  0  0  0  0
   -5.2013   -3.4858    0.0000 C   0  0  0  0  0  0  0  0  0  0  0  0
   -4.5912   -2.1155    0.0000 C   0  0  0  0  0  0  0  0  0  0  0  0
   -5.3412   -0.8165    0.0000 N   0  0  0  0  0  0  0  0  0  0  0  0
   -4.3375    0.2982    0.0000 N   0  0  0  0  0  0  0  0  0  0  0  0
   -2.9672   -0.3119    0.0000 C   0  0  0  0  0  0  0  0  0  0  0  0
   -3.1240   -1.8037    0.0000 C   0  0  0  0  0  0  0  0  0  0  0  0
   -1.7537   -2.4138    0.0000 C   0  0  0  0  0  0  0  0  0  0  0  0
   -1.4418   -3.8810    0.0000 O   0  0  0  0  0  0  0  0  0  0  0  0
   -0.7500   -1.2990    0.0000 C   0  0  0  0  0  0  0  0  0  0  0  0
    0.7500   -1.2990    0.0000 C   0  0  0  0  0  0  0  0  0  0  0  0
    1.5000   -2.5981    0.0000 N   0  0  0  0  0  0  0  0  0  0  0  0
    3.0000   -2.5981    0.0000 C   0  0  0  0  0  0  0  0  0  0  0  0
    3.7500   -1.2990    0.0000 O   0  0  0  0  0  0  0  0  0  0  0  0
    3.7500   -3.8971    0.0000 N   0  0  0  0  0  0  0  0  0  0  0  0
    5.2500   -3.8971    0.0000 N   0  0  0  0  0  0  0  0  0  0  0  0
    6.0000   -5.1962    0.0000 C   0  0  0  0  0  0  0  0  0  0  0  0
    5.2500   -6.4952    0.0000 O   0  0  0  0  0  0  0  0  0  0  0  0
    7.5000   -5.1962    0.0000 C   0  0  0  0  0  0  0  0  0  0  0  0
    8.2500   -6.4952    0.0000 C   0  0  0  0  0  0  0  0  0  0  0  0
    9.7500   -6.4952    0.0000 C   0  0  0  0  0  0  0  0  0  0  0  0
   10.5000   -7.7942    0.0000 C   0  0  0  0  0  0  0  0  0  0  0  0
   12.0000   -7.7942    0.0000 C   0  0  0  0  0  0  0  0  0  0  0  0
   12.7500   -6.4952    0.0000 C   0  0  0  0  0  0  0  0  0  0  0  0
   14.2500   -6.4952    0.0000 O   0  0  0  0  0  0  0  0  0  0  0  0
   12.0000   -5.1962    0.0000 C   0  0  0  0  0  0  0  0  0  0  0  0
   10.5000   -5.1962    0.0000 C   0  0  0  0  0  0  0  0  0  0  0  0
    1.5000    0.0000    0.0000 C   0  0  0  0  0  0  0  0  0  0  0  0
    0.7500    1.2990    0.0000 C   0  0  0  0  0  0  0  0  0  0  0  0
   -0.7500    1.2990    0.0000 C   0  0  0  0  0  0  0  0  0  0  0  0
   -1.5000    0.0000    0.0000 C   0  0  0  0  0  0  0  0  0  0  0  0
   -4.3197   -4.6994    0.0000 C   0  0  0  0  0  0  0  0  0  0  0  0
   -4.9298   -6.0697    0.0000 C   0  0  0  0  0  0  0  0  0  0  0  0
  1  2  1  0
  2  3  1  0
  3  4  2  0
  4  5  1  0
  5  6  2  0
  6  7  1  0
  7  8  1  0
  8  9  1  0
  9 10  2  0
 10 11  1  0
 11 12  1  0
 12 13  2  0
 12 14  1  0
 14 15  2  0
 15 16  1  0
 16 17  1  0
 17 18  2  0
 17 19  1  0
 19 20  1  0
 20 21  1  0
 21 22  2  0
 21 23  1  0
 23 24  1  0
 24 25  1  0
 25 26  2  0
 26 27  1  0
 27 28  2  0
 28 29  1  0
 28 30  1  0
 30 31  2  0
 15 32  1  0
 32 33  2  0
 33 34  1  0
 34 35  2  0
  6 36  1  0
 36 37  2  0
 37  3  1  0
 11  7  2  0
 35 14  1  0
 35 10  1  0
 31 25  1  0
M  END
>  <Compound_ID>  (132) 
CHEMBL365872

>  <Active>  (132) 
1.0

>  <Smiles>  (132) 
COc1ccc(-c2[nH]nc3c2C(=O)c2c(NC(=O)NNC(=O)CCc4ccc(O)cc4)cccc2-3)cc1

>  <canonical_smi>  (132) 
COc1ccc(-c2[nH]nc3c2C(=O)c2c(NC(=O)NNC(=O)CCc4ccc(O)cc4)cccc2-3)cc1

>  <Set>  (132) 
G2 active

>  <Set_type>  (132) 
Train

>  <MW>  (132) 
497.51

>  <HBD>  (132) 
5

>  <HBA>  (132) 
6

>  <NRB>  (132) 
6

>  <NR>  (132) 
5

>  <NAR>  (132) 
5

>  <PSA>  (132) 
145.44

>  <Standard Type>  (132) 
nan

>  <Standard Relation>  (132) 
nan

>  <Standard Units>  (132) 
nan

>  <Standard Value>  (132) 
nan

>  <Assay ChEMBL ID>  (132) 
nan

>  <Assay Description>  (132) 
nan

>  <BAO Label>  (132) 
nan

$$$$

     RDKit          2D

 35 39  0  0  0  0  0  0  0  0999 V2000
   -8.5234   -7.7536    0.0000 C   0  0  0  0  0  0  0  0  0  0  0  0
   -7.0317   -7.5968    0.0000 O   0  0  0  0  0  0  0  0  0  0  0  0
   -6.4216   -6.2265    0.0000 C   0  0  0  0  0  0  0  0  0  0  0  0
   -7.3032   -5.0129    0.0000 C   0  0  0  0  0  0  0  0  0  0  0  0
   -6.6931   -3.6426    0.0000 C   0  0  0  0  0  0  0  0  0  0  0  0
   -5.2013   -3.4858    0.0000 C   0  0  0  0  0  0  0  0  0  0  0  0
   -4.5912   -2.1155    0.0000 C   0  0  0  0  0  0  0  0  0  0  0  0
   -5.3412   -0.8165    0.0000 N   0  0  0  0  0  0  0  0  0  0  0  0
   -4.3375    0.2982    0.0000 N   0  0  0  0  0  0  0  0  0  0  0  0
   -2.9672   -0.3119    0.0000 C   0  0  0  0  0  0  0  0  0  0  0  0
   -3.1240   -1.8037    0.0000 C   0  0  0  0  0  0  0  0  0  0  0  0
   -1.7537   -2.4138    0.0000 C   0  0  0  0  0  0  0  0  0  0  0  0
   -1.4418   -3.8810    0.0000 O   0  0  0  0  0  0  0  0  0  0  0  0
   -0.7500   -1.2990    0.0000 C   0  0  0  0  0  0  0  0  0  0  0  0
    0.7500   -1.2990    0.0000 C   0  0  0  0  0  0  0  0  0  0  0  0
    1.5000   -2.5981    0.0000 N   0  0  0  0  0  0  0  0  0  0  0  0
    3.0000   -2.5981    0.0000 C   0  0  0  0  0  0  0  0  0  0  0  0
    3.7500   -1.2990    0.0000 O   0  0  0  0  0  0  0  0  0  0  0  0
    3.7500   -3.8971    0.0000 N   0  0  0  0  0  0  0  0  0  0  0  0
    5.2500   -3.8971    0.0000 N   0  0  0  0  0  0  0  0  0  0  0  0
    6.0000   -5.1962    0.0000 C   0  0  0  0  0  0  0  0  0  0  0  0
    5.2500   -6.4952    0.0000 O   0  0  0  0  0  0  0  0  0  0  0  0
    7.5000   -5.1962    0.0000 N   0  0  0  0  0  0  0  0  0  0  0  0
    8.2500   -6.4952    0.0000 C   0  0  0  0  0  0  0  0  0  0  0  0
    7.5000   -7.7942    0.0000 C   0  0  0  0  0  0  0  0  0  0  0  0
    8.2500   -9.0933    0.0000 C   0  0  0  0  0  0  0  0  0  0  0  0
    9.7500   -9.0933    0.0000 C   0  0  0  0  0  0  0  0  0  0  0  0
   10.5000   -7.7942    0.0000 C   0  0  0  0  0  0  0  0  0  0  0  0
    9.7500   -6.4952    0.0000 C   0  0  0  0  0  0  0  0  0  0  0  0
    1.5000    0.0000    0.0000 C   0  0  0  0  0  0  0  0  0  0  0  0
    0.7500    1.2990    0.0000 C   0  0  0  0  0  0  0  0  0  0  0  0
   -0.7500    1.2990    0.0000 C   0  0  0  0  0  0  0  0  0  0  0  0
   -1.5000    0.0000    0.0000 C   0  0  0  0  0  0  0  0  0  0  0  0
   -4.3197   -4.6994    0.0000 C   0  0  0  0  0  0  0  0  0  0  0  0
   -4.9298   -6.0697    0.0000 C   0  0  0  0  0  0  0  0  0  0  0  0
  1  2  1  0
  2  3  1  0
  3  4  2  0
  4  5  1  0
  5  6  2  0
  6  7  1  0
  7  8  1  0
  8  9  1  0
  9 10  2  0
 10 11  1  0
 11 12  1  0
 12 13  2  0
 12 14  1  0
 14 15  2  0
 15 16  1  0
 16 17  1  0
 17 18  2  0
 17 19  1  0
 19 20  1  0
 20 21  1  0
 21 22  2  0
 21 23  1  0
 23 24  1  0
 24 25  2  0
 25 26  1  0
 26 27  2  0
 27 28  1  0
 28 29  2  0
 15 30  1  0
 30 31  2  0
 31 32  1  0
 32 33  2  0
  6 34  1  0
 34 35  2  0
 35  3  1  0
 11  7  2  0
 33 14  1  0
 33 10  1  0
 29 24  1  0
M  END
>  <Compound_ID>  (133) 
CHEMBL183950

>  <Active>  (133) 
1.0

>  <Smiles>  (133) 
COc1ccc(-c2[nH]nc3c2C(=O)c2c(NC(=O)NNC(=O)Nc4ccccc4)cccc2-3)cc1

>  <canonical_smi>  (133) 
COc1ccc(-c2[nH]nc3c2C(=O)c2c(NC(=O)NNC(=O)Nc4ccccc4)cccc2-3)cc1

>  <Set>  (133) 
G2 active

>  <Set_type>  (133) 
Train

>  <MW>  (133) 
468.47

>  <HBD>  (133) 
5

>  <HBA>  (133) 
5

>  <NRB>  (133) 
4

>  <NR>  (133) 
5

>  <NAR>  (133) 
5

>  <PSA>  (133) 
137.24

>  <Standard Type>  (133) 
nan

>  <Standard Relation>  (133) 
nan

>  <Standard Units>  (133) 
nan

>  <Standard Value>  (133) 
nan

>  <Assay ChEMBL ID>  (133) 
nan

>  <Assay Description>  (133) 
nan

>  <BAO Label>  (133) 
nan

$$$$

     RDKit          2D

 30 33  0  0  0  0  0  0  0  0999 V2000
    9.7500   -3.8971    0.0000 C   0  0  0  0  0  0  0  0  0  0  0  0
    8.2500   -3.8971    0.0000 O   0  0  0  0  0  0  0  0  0  0  0  0
    7.5000   -2.5981    0.0000 C   0  0  0  0  0  0  0  0  0  0  0  0
    8.2500   -1.2990    0.0000 O   0  0  0  0  0  0  0  0  0  0  0  0
    6.0000   -2.5981    0.0000 N   0  0  0  0  0  0  0  0  0  0  0  0
    5.2500   -1.2990    0.0000 N   0  0  0  0  0  0  0  0  0  0  0  0
    3.7500   -1.2990    0.0000 C   0  0  0  0  0  0  0  0  0  0  0  0
    3.0000   -2.5981    0.0000 O   0  0  0  0  0  0  0  0  0  0  0  0
    3.0000    0.0000    0.0000 N   0  0  0  0  0  0  0  0  0  0  0  0
    1.5000    0.0000    0.0000 C   0  0  0  0  0  0  0  0  0  0  0  0
    0.7500   -1.2990    0.0000 C   0  0  0  0  0  0  0  0  0  0  0  0
   -0.7500   -1.2990    0.0000 C   0  0  0  0  0  0  0  0  0  0  0  0
   -1.5000    0.0000    0.0000 C   0  0  0  0  0  0  0  0  0  0  0  0
   -0.7500    1.2990    0.0000 C   0  0  0  0  0  0  0  0  0  0  0  0
    0.7500    1.2990    0.0000 C   0  0  0  0  0  0  0  0  0  0  0  0
    1.2135    2.7256    0.0000 C   0  0  0  0  0  0  0  0  0  0  0  0
    2.6401    3.1891    0.0000 O   0  0  0  0  0  0  0  0  0  0  0  0
    0.0000    3.6073    0.0000 C   0  0  0  0  0  0  0  0  0  0  0  0
   -0.4635    5.0339    0.0000 C   0  0  0  0  0  0  0  0  0  0  0  0
    0.4182    6.2474    0.0000 C   0  0  0  0  0  0  0  0  0  0  0  0
    1.9099    6.0906    0.0000 C   0  0  0  0  0  0  0  0  0  0  0  0
    2.7916    7.3041    0.0000 C   0  0  0  0  0  0  0  0  0  0  0  0
    2.1815    8.6745    0.0000 C   0  0  0  0  0  0  0  0  0  0  0  0
    3.0632    9.8880    0.0000 O   0  0  0  0  0  0  0  0  0  0  0  0
    4.5550    9.7312    0.0000 C   0  0  0  0  0  0  0  0  0  0  0  0
    0.6897    8.8313    0.0000 C   0  0  0  0  0  0  0  0  0  0  0  0
   -0.1920    7.6177    0.0000 C   0  0  0  0  0  0  0  0  0  0  0  0
   -1.9635    5.0339    0.0000 N   0  0  0  0  0  0  0  0  0  0  0  0
   -2.4271    3.6073    0.0000 N   0  0  0  0  0  0  0  0  0  0  0  0
   -1.2135    2.7256    0.0000 C   0  0  0  0  0  0  0  0  0  0  0  0
  1  2  1  0
  2  3  1  0
  3  4  2  0
  3  5  1  0
  5  6  1  0
  6  7  1  0
  7  8  2  0
  7  9  1  0
  9 10  1  0
 10 11  2  0
 11 12  1  0
 12 13  2  0
 13 14  1  0
 14 15  2  0
 15 16  1  0
 16 17  2  0
 16 18  1  0
 18 19  1  0
 19 20  1  0
 20 21  2  0
 21 22  1  0
 22 23  2  0
 23 24  1  0
 24 25  1  0
 23 26  1  0
 26 27  2  0
 19 28  2  0
 28 29  1  0
 29 30  1  0
 15 10  1  0
 30 18  2  0
 30 14  1  0
 27 20  1  0
M  END
>  <Compound_ID>  (134) 
CHEMBL362109

>  <Active>  (134) 
1.0

>  <Smiles>  (134) 
COC(=O)NNC(=O)Nc1cccc2c1C(=O)c1c(-c3ccc(OC)cc3)n[nH]c1-2

>  <canonical_smi>  (134) 
COC(=O)NNC(=O)Nc1cccc2c1C(=O)c1c(-c3ccc(OC)cc3)n[nH]c1-2

>  <Set>  (134) 
G2 active

>  <Set_type>  (134) 
Train

>  <MW>  (134) 
407.39

>  <HBD>  (134) 
4

>  <HBA>  (134) 
6

>  <NRB>  (134) 
3

>  <NR>  (134) 
4

>  <NAR>  (134) 
4

>  <PSA>  (134) 
134.44

>  <Standard Type>  (134) 
nan

>  <Standard Relation>  (134) 
nan

>  <Standard Units>  (134) 
nan

>  <Standard Value>  (134) 
nan

>  <Assay ChEMBL ID>  (134) 
nan

>  <Assay Description>  (134) 
nan

>  <BAO Label>  (134) 
nan

$$$$

     RDKit          2D

 34 38  0  0  0  0  0  0  0  0999 V2000
   -8.5234   -7.7536    0.0000 C   0  0  0  0  0  0  0  0  0  0  0  0
   -7.0317   -7.5968    0.0000 O   0  0  0  0  0  0  0  0  0  0  0  0
   -6.4216   -6.2265    0.0000 C   0  0  0  0  0  0  0  0  0  0  0  0
   -7.3032   -5.0129    0.0000 C   0  0  0  0  0  0  0  0  0  0  0  0
   -6.6931   -3.6426    0.0000 C   0  0  0  0  0  0  0  0  0  0  0  0
   -5.2013   -3.4858    0.0000 C   0  0  0  0  0  0  0  0  0  0  0  0
   -4.5912   -2.1155    0.0000 C   0  0  0  0  0  0  0  0  0  0  0  0
   -5.3412   -0.8165    0.0000 N   0  0  0  0  0  0  0  0  0  0  0  0
   -4.3375    0.2982    0.0000 N   0  0  0  0  0  0  0  0  0  0  0  0
   -2.9672   -0.3119    0.0000 C   0  0  0  0  0  0  0  0  0  0  0  0
   -3.1240   -1.8037    0.0000 C   0  0  0  0  0  0  0  0  0  0  0  0
   -1.7537   -2.4138    0.0000 C   0  0  0  0  0  0  0  0  0  0  0  0
   -1.4418   -3.8810    0.0000 O   0  0  0  0  0  0  0  0  0  0  0  0
   -0.7500   -1.2990    0.0000 C   0  0  0  0  0  0  0  0  0  0  0  0
    0.7500   -1.2990    0.0000 C   0  0  0  0  0  0  0  0  0  0  0  0
    1.5000   -2.5981    0.0000 N   0  0  0  0  0  0  0  0  0  0  0  0
    3.0000   -2.5981    0.0000 C   0  0  0  0  0  0  0  0  0  0  0  0
    3.7500   -1.2990    0.0000 O   0  0  0  0  0  0  0  0  0  0  0  0
    3.7500   -3.8971    0.0000 N   0  0  0  0  0  0  0  0  0  0  0  0
    5.2500   -3.8971    0.0000 N   0  0  0  0  0  0  0  0  0  0  0  0
    6.0000   -5.1962    0.0000 C   0  0  0  0  0  0  0  0  0  0  0  0
    5.2500   -6.4952    0.0000 O   0  0  0  0  0  0  0  0  0  0  0  0
    7.5000   -5.1962    0.0000 C   0  0  0  0  0  0  0  0  0  0  0  0
    8.2500   -6.4952    0.0000 C   0  0  0  0  0  0  0  0  0  0  0  0
    9.7500   -6.4952    0.0000 C   0  0  0  0  0  0  0  0  0  0  0  0
   10.5000   -5.1962    0.0000 C   0  0  0  0  0  0  0  0  0  0  0  0
    9.7500   -3.8971    0.0000 N   0  0  0  0  0  0  0  0  0  0  0  0
    8.2500   -3.8971    0.0000 C   0  0  0  0  0  0  0  0  0  0  0  0
    1.5000    0.0000    0.0000 C   0  0  0  0  0  0  0  0  0  0  0  0
    0.7500    1.2990    0.0000 C   0  0  0  0  0  0  0  0  0  0  0  0
   -0.7500    1.2990    0.0000 C   0  0  0  0  0  0  0  0  0  0  0  0
   -1.5000    0.0000    0.0000 C   0  0  0  0  0  0  0  0  0  0  0  0
   -4.3197   -4.6994    0.0000 C   0  0  0  0  0  0  0  0  0  0  0  0
   -4.9298   -6.0697    0.0000 C   0  0  0  0  0  0  0  0  0  0  0  0
  1  2  1  0
  2  3  1  0
  3  4  2  0
  4  5  1  0
  5  6  2  0
  6  7  1  0
  7  8  1  0
  8  9  1  0
  9 10  2  0
 10 11  1  0
 11 12  1  0
 12 13  2  0
 12 14  1  0
 14 15  2  0
 15 16  1  0
 16 17  1  0
 17 18  2  0
 17 19  1  0
 19 20  1  0
 20 21  1  0
 21 22  2  0
 21 23  1  0
 23 24  2  0
 24 25  1  0
 25 26  2  0
 26 27  1  0
 27 28  2  0
 15 29  1  0
 29 30  2  0
 30 31  1  0
 31 32  2  0
  6 33  1  0
 33 34  2  0
 34  3  1  0
 11  7  2  0
 32 14  1  0
 32 10  1  0
 28 23  1  0
M  END
>  <Compound_ID>  (135) 
CHEMBL363077

>  <Active>  (135) 
1.0

>  <Smiles>  (135) 
COc1ccc(-c2[nH]nc3c2C(=O)c2c(NC(=O)NNC(=O)c4cccnc4)cccc2-3)cc1

>  <canonical_smi>  (135) 
COc1ccc(-c2[nH]nc3c2C(=O)c2c(NC(=O)NNC(=O)c4cccnc4)cccc2-3)cc1

>  <Set>  (135) 
G2 active

>  <Set_type>  (135) 
Train

>  <MW>  (135) 
454.45

>  <HBD>  (135) 
4

>  <HBA>  (135) 
6

>  <NRB>  (135) 
4

>  <NR>  (135) 
5

>  <NAR>  (135) 
5

>  <PSA>  (135) 
138.1

>  <Standard Type>  (135) 
nan

>  <Standard Relation>  (135) 
nan

>  <Standard Units>  (135) 
nan

>  <Standard Value>  (135) 
nan

>  <Assay ChEMBL ID>  (135) 
nan

>  <Assay Description>  (135) 
nan

>  <BAO Label>  (135) 
nan

$$$$

     RDKit          2D

 30 36  0  0  0  0  0  0  0  0999 V2000
    4.3059    7.6979    0.0000 O   0  0  0  0  0  0  0  0  0  0  0  0
    2.9958    6.9674    0.0000 C   0  0  0  0  0  0  0  0  0  0  0  0
    1.6348    7.5979    0.0000 N   0  0  0  0  0  0  0  0  0  0  0  0
    0.6145    6.4983    0.0000 C   0  0  0  0  0  0  0  0  0  0  0  0
   -0.8748    6.6774    0.0000 O   0  0  0  0  0  0  0  0  0  0  0  0
    1.3450    5.1882    0.0000 C   0  0  0  0  0  0  0  0  0  0  0  0
    2.8167    5.4781    0.0000 C   0  0  0  0  0  0  0  0  0  0  0  0
    3.8036    4.3485    0.0000 C   0  0  0  0  0  0  0  0  0  0  0  0
    5.3035    4.3261    0.0000 C   0  0  0  0  0  0  0  0  0  0  0  0
    6.3237    5.4256    0.0000 C   0  0  0  0  0  0  0  0  0  0  0  0
    7.7861    5.0919    0.0000 C   0  0  0  0  0  0  0  0  0  0  0  0
    8.2282    3.6585    0.0000 C   0  0  0  0  0  0  0  0  0  0  0  0
    9.6906    3.3247    0.0000 F   0  0  0  0  0  0  0  0  0  0  0  0
    7.2080    2.5589    0.0000 C   0  0  0  0  0  0  0  0  0  0  0  0
    5.7456    2.8927    0.0000 C   0  0  0  0  0  0  0  0  0  0  0  0
    4.5190    2.0293    0.0000 N   0  0  0  0  0  0  0  0  0  0  0  0
    3.3188    2.9290    0.0000 C   0  0  0  0  0  0  0  0  0  0  0  0
    1.8471    2.6391    0.0000 C   0  0  0  0  0  0  0  0  0  0  0  0
    0.8602    3.7687    0.0000 C   0  0  0  0  0  0  0  0  0  0  0  0
   -0.5191    3.1792    0.0000 C   0  0  0  0  0  0  0  0  0  0  0  0
   -1.9156    3.7285    0.0000 C   0  0  0  0  0  0  0  0  0  0  0  0
   -3.1158    2.8288    0.0000 C   0  0  0  0  0  0  0  0  0  0  0  0
   -2.9367    1.3395    0.0000 C   0  0  0  0  0  0  0  0  0  0  0  0
   -1.5574    0.7500    0.0000 C   0  0  0  0  0  0  0  0  0  0  0  0
   -0.3846    1.6852    0.0000 C   0  0  0  0  0  0  0  0  0  0  0  0
    1.0777    1.3515    0.0000 N   0  0  0  0  0  0  0  0  0  0  0  0
    1.7286    0.0000    0.0000 C   0  0  0  0  0  0  0  0  0  0  0  0
    1.0777   -1.3515    0.0000 C   0  0  0  0  0  0  0  0  0  0  0  0
   -0.3846   -1.6852    0.0000 N   0  0  0  0  0  0  0  0  0  0  0  0
   -1.5574   -0.7500    0.0000 C   0  0  0  0  0  0  0  0  0  0  0  0
  1  2  2  0
  2  3  1  0
  3  4  1  0
  4  5  2  0
  4  6  1  0
  6  7  2  0
  7  8  1  0
  8  9  1  0
  9 10  2  0
 10 11  1  0
 11 12  2  0
 12 13  1  0
 12 14  1  0
 14 15  2  0
 15 16  1  0
 16 17  1  0
 17 18  1  0
 18 19  2  0
 19 20  1  0
 20 21  2  0
 21 22  1  0
 22 23  2  0
 23 24  1  0
 24 25  2  0
 25 26  1  0
 26 27  1  0
 27 28  1  0
 28 29  1  0
 29 30  1  0
  7  2  1  0
 17  8  2  0
 26 18  1  0
 19  6  1  0
 25 20  1  0
 15  9  1  0
 30 24  1  0
M  END
>  <Compound_ID>  (136) 
CHEMBL558586

>  <Active>  (136) 
1.0

>  <Smiles>  (136) 
O=C1NC(=O)c2c1c1c3ccc(F)cc3[nH]c1c1c2c2cccc3c2n1CCNC3

>  <canonical_smi>  (136) 
O=C1NC(=O)c2c1c1c3ccc(F)cc3[nH]c1c1c2c2cccc3c2n1CCNC3

>  <Set>  (136) 
G2 active

>  <Set_type>  (136) 
Train

>  <MW>  (136) 
398.4

>  <HBD>  (136) 
3

>  <HBA>  (136) 
3

>  <NRB>  (136) 
0

>  <NR>  (136) 
7

>  <NAR>  (136) 
5

>  <PSA>  (136) 
78.92

>  <Standard Type>  (136) 
nan

>  <Standard Relation>  (136) 
nan

>  <Standard Units>  (136) 
nan

>  <Standard Value>  (136) 
nan

>  <Assay ChEMBL ID>  (136) 
nan

>  <Assay Description>  (136) 
nan

>  <BAO Label>  (136) 
nan

$$$$

     RDKit          2D

 25 29  0  0  0  0  0  0  0  0999 V2000
    1.5000    0.0000    0.0000 C   0  0  0  0  0  0  0  0  0  0  0  0
    0.7500   -1.2990    0.0000 C   0  0  0  0  0  0  0  0  0  0  0  0
   -0.7500   -1.2990    0.0000 N   0  0  0  0  0  0  0  0  0  0  0  0
   -1.5000    0.0000    0.0000 N   0  0  0  0  0  0  0  0  0  0  0  0
   -2.9672    0.3119    0.0000 N   0  0  0  0  0  0  0  0  0  0  0  0
   -3.1240    1.8037    0.0000 C   0  0  0  0  0  0  0  0  0  0  0  0
   -1.7537    2.4138    0.0000 C   0  0  0  0  0  0  0  0  0  0  0  0
   -1.4418    3.8810    0.0000 C   0  0  0  0  0  0  0  0  0  0  0  0
   -0.0152    4.3445    0.0000 C   0  0  0  0  0  0  0  0  0  0  0  0
    0.2966    5.8117    0.0000 C   0  0  0  0  0  0  0  0  0  0  0  0
   -0.8181    6.8154    0.0000 N   0  0  0  0  0  0  0  0  0  0  0  0
   -2.2447    6.3519    0.0000 C   0  0  0  0  0  0  0  0  0  0  0  0
   -3.3594    7.3556    0.0000 N   0  0  0  0  0  0  0  0  0  0  0  0
   -3.0475    8.8228    0.0000 C   0  0  0  0  0  0  0  0  0  0  0  0
   -1.6209    9.2863    0.0000 C   0  0  0  0  0  0  0  0  0  0  0  0
   -1.3091   10.7536    0.0000 C   0  0  0  0  0  0  0  0  0  0  0  0
   -2.4238   11.7573    0.0000 C   0  0  0  0  0  0  0  0  0  0  0  0
   -3.8504   11.2937    0.0000 C   0  0  0  0  0  0  0  0  0  0  0  0
   -4.1622    9.8265    0.0000 C   0  0  0  0  0  0  0  0  0  0  0  0
   -4.7321   12.5073    0.0000 O   0  0  0  0  0  0  0  0  0  0  0  0
   -3.8504   13.7208    0.0000 C   0  0  0  0  0  0  0  0  0  0  0  0
   -2.4238   13.2573    0.0000 O   0  0  0  0  0  0  0  0  0  0  0  0
   -2.5565    4.8847    0.0000 N   0  0  0  0  0  0  0  0  0  0  0  0
   -0.7500    1.2990    0.0000 C   0  0  0  0  0  0  0  0  0  0  0  0
    0.7500    1.2990    0.0000 C   0  0  0  0  0  0  0  0  0  0  0  0
  1  2  1  0
  2  3  2  0
  3  4  1  0
  4  5  1  0
  5  6  2  0
  6  7  1  0
  7  8  1  0
  8  9  2  0
  9 10  1  0
 10 11  2  0
 11 12  1  0
 12 13  1  0
 13 14  1  0
 14 15  2  0
 15 16  1  0
 16 17  2  0
 17 18  1  0
 18 19  2  0
 18 20  1  0
 20 21  1  0
 21 22  1  0
 12 23  2  0
  7 24  2  0
 24 25  1  0
 25  1  2  0
 24  4  1  0
 23  8  1  0
 19 14  1  0
 22 17  1  0
M  END
>  <Compound_ID>  (137) 
CHEMBL189455

>  <Active>  (137) 
1.0

>  <Smiles>  (137) 
c1cnn2ncc(-c3ccnc(Nc4ccc5c(c4)OCO5)n3)c2c1

>  <canonical_smi>  (137) 
c1cnn2ncc(-c3ccnc(Nc4ccc5c(c4)OCO5)n3)c2c1

>  <Set>  (137) 
G2 active

>  <Set_type>  (137) 
Train

>  <MW>  (137) 
332.32

>  <HBD>  (137) 
1

>  <HBA>  (137) 
7

>  <NRB>  (137) 
3

>  <NR>  (137) 
5

>  <NAR>  (137) 
4

>  <PSA>  (137) 
86.46

>  <Standard Type>  (137) 
nan

>  <Standard Relation>  (137) 
nan

>  <Standard Units>  (137) 
nan

>  <Standard Value>  (137) 
nan

>  <Assay ChEMBL ID>  (137) 
nan

>  <Assay Description>  (137) 
nan

>  <BAO Label>  (137) 
nan

$$$$

     RDKit          2D

 32 35  0  0  0  0  0  0  0  0999 V2000
    4.5000    0.0000    0.0000 N   0  0  0  0  0  0  0  0  0  0  0  0
    3.0000    0.0000    0.0000 S   0  0  0  0  0  0  0  0  0  0  0  0
    3.0000   -1.5000    0.0000 O   0  0  0  0  0  0  0  0  0  0  0  0
    3.0000    1.5000    0.0000 O   0  0  0  0  0  0  0  0  0  0  0  0
    1.5000    0.0000    0.0000 C   0  0  0  0  0  0  0  0  0  0  0  0
    0.7500   -1.2990    0.0000 C   0  0  0  0  0  0  0  0  0  0  0  0
   -0.7500   -1.2990    0.0000 C   0  0  0  0  0  0  0  0  0  0  0  0
   -1.5000    0.0000    0.0000 C   0  0  0  0  0  0  0  0  0  0  0  0
   -3.0000    0.0000    0.0000 N   0  0  0  0  0  0  0  0  0  0  0  0
   -3.7500    1.2990    0.0000 C   0  0  0  0  0  0  0  0  0  0  0  0
   -5.2418    1.4558    0.0000 C   0  0  0  0  0  0  0  0  0  0  0  0
   -5.5537    2.9231    0.0000 C   0  0  0  0  0  0  0  0  0  0  0  0
   -6.9240    3.5332    0.0000 C   0  0  0  0  0  0  0  0  0  0  0  0
   -7.0808    5.0249    0.0000 C   0  0  0  0  0  0  0  0  0  0  0  0
   -8.4511    5.6350    0.0000 C   0  0  0  0  0  0  0  0  0  0  0  0
   -9.6646    4.7534    0.0000 C   0  0  0  0  0  0  0  0  0  0  0  0
   -9.5078    3.2616    0.0000 C   0  0  0  0  0  0  0  0  0  0  0  0
  -10.7213    2.3799    0.0000 N   0  0  0  0  0  0  0  0  0  0  0  0
  -12.0917    2.9900    0.0000 S   0  0  0  0  0  0  0  0  0  0  0  0
  -11.4816    4.3603    0.0000 O   0  0  0  0  0  0  0  0  0  0  0  0
  -12.7018    1.6197    0.0000 O   0  0  0  0  0  0  0  0  0  0  0  0
  -13.4620    3.6001    0.0000 C   0  0  0  0  0  0  0  0  0  0  0  0
  -13.6188    5.0919    0.0000 C   0  0  0  0  0  0  0  0  0  0  0  0
  -14.9891    5.7020    0.0000 C   0  0  0  0  0  0  0  0  0  0  0  0
  -16.2026    4.8203    0.0000 C   0  0  0  0  0  0  0  0  0  0  0  0
  -16.0458    3.3285    0.0000 C   0  0  0  0  0  0  0  0  0  0  0  0
  -14.6755    2.7184    0.0000 C   0  0  0  0  0  0  0  0  0  0  0  0
   -8.1375    2.6515    0.0000 C   0  0  0  0  0  0  0  0  0  0  0  0
   -4.2546    3.6731    0.0000 N   0  0  0  0  0  0  0  0  0  0  0  0
   -3.1399    2.6694    0.0000 N   0  0  0  0  0  0  0  0  0  0  0  0
   -0.7500    1.2990    0.0000 C   0  0  0  0  0  0  0  0  0  0  0  0
    0.7500    1.2990    0.0000 C   0  0  0  0  0  0  0  0  0  0  0  0
  1  2  1  0
  2  3  2  0
  2  4  2  0
  2  5  1  0
  5  6  2  0
  6  7  1  0
  7  8  2  0
  8  9  1  0
  9 10  1  0
 10 11  1  0
 11 12  2  0
 12 13  1  0
 13 14  2  0
 14 15  1  0
 15 16  2  0
 16 17  1  0
 17 18  1  0
 18 19  1  0
 19 20  2  0
 19 21  2  0
 19 22  1  0
 22 23  2  0
 23 24  1  0
 24 25  2  0
 25 26  1  0
 26 27  2  0
 17 28  2  0
 12 29  1  0
 29 30  1  0
  8 31  1  0
 31 32  2  0
 32  5  1  0
 30 10  2  0
 28 13  1  0
 27 22  1  0
M  END
>  <Compound_ID>  (138) 
CHEMBL319103

>  <Active>  (138) 
1.0

>  <Smiles>  (138) 
NS(=O)(=O)c1ccc(Nc2cc(-c3cccc(NS(=O)(=O)c4ccccc4)c3)[nH]n2)cc1

>  <canonical_smi>  (138) 
NS(=O)(=O)c1ccc(Nc2cc(-c3cccc(NS(=O)(=O)c4ccccc4)c3)[nH]n2)cc1

>  <Set>  (138) 
G2 active

>  <Set_type>  (138) 
Train

>  <MW>  (138) 
469.55

>  <HBD>  (138) 
4

>  <HBA>  (138) 
6

>  <NRB>  (138) 
7

>  <NR>  (138) 
4

>  <NAR>  (138) 
4

>  <PSA>  (138) 
147.04

>  <Standard Type>  (138) 
nan

>  <Standard Relation>  (138) 
nan

>  <Standard Units>  (138) 
nan

>  <Standard Value>  (138) 
nan

>  <Assay ChEMBL ID>  (138) 
nan

>  <Assay Description>  (138) 
nan

>  <BAO Label>  (138) 
nan

$$$$

     RDKit          2D

 22 25  0  0  0  0  0  0  0  0999 V2000
    5.2500   -1.2990    0.0000 N   0  0  0  0  0  0  0  0  0  0  0  0
    3.7500   -1.2990    0.0000 C   0  0  0  0  0  0  0  0  0  0  0  0
    3.0000   -2.5981    0.0000 O   0  0  0  0  0  0  0  0  0  0  0  0
    3.0000    0.0000    0.0000 N   0  0  0  0  0  0  0  0  0  0  0  0
    1.5000    0.0000    0.0000 C   0  0  0  0  0  0  0  0  0  0  0  0
    0.7500   -1.2990    0.0000 C   0  0  0  0  0  0  0  0  0  0  0  0
   -0.7500   -1.2990    0.0000 C   0  0  0  0  0  0  0  0  0  0  0  0
   -1.5000    0.0000    0.0000 C   0  0  0  0  0  0  0  0  0  0  0  0
   -0.7500    1.2990    0.0000 C   0  0  0  0  0  0  0  0  0  0  0  0
    0.7500    1.2990    0.0000 C   0  0  0  0  0  0  0  0  0  0  0  0
    1.2135    2.7256    0.0000 C   0  0  0  0  0  0  0  0  0  0  0  0
    2.6401    3.1891    0.0000 O   0  0  0  0  0  0  0  0  0  0  0  0
    0.0000    3.6073    0.0000 C   0  0  0  0  0  0  0  0  0  0  0  0
   -0.4635    5.0339    0.0000 C   0  0  0  0  0  0  0  0  0  0  0  0
    0.4182    6.2474    0.0000 C   0  0  0  0  0  0  0  0  0  0  0  0
   -0.0454    7.6740    0.0000 C   0  0  0  0  0  0  0  0  0  0  0  0
    1.1682    8.5557    0.0000 C   0  0  0  0  0  0  0  0  0  0  0  0
    2.3817    7.6740    0.0000 C   0  0  0  0  0  0  0  0  0  0  0  0
    1.9182    6.2474    0.0000 S   0  0  0  0  0  0  0  0  0  0  0  0
   -1.9635    5.0339    0.0000 N   0  0  0  0  0  0  0  0  0  0  0  0
   -2.4271    3.6073    0.0000 N   0  0  0  0  0  0  0  0  0  0  0  0
   -1.2135    2.7256    0.0000 C   0  0  0  0  0  0  0  0  0  0  0  0
  1  2  1  0
  2  3  2  0
  2  4  1  0
  4  5  1  0
  5  6  2  0
  6  7  1  0
  7  8  2  0
  8  9  1  0
  9 10  2  0
 10 11  1  0
 11 12  2  0
 11 13  1  0
 13 14  1  0
 14 15  1  0
 15 16  2  0
 16 17  1  0
 17 18  2  0
 18 19  1  0
 14 20  2  0
 20 21  1  0
 21 22  1  0
 10  5  1  0
 22 13  2  0
 22  9  1  0
 19 15  1  0
M  END
>  <Compound_ID>  (139) 
CHEMBL148638

>  <Active>  (139) 
1.0

>  <Smiles>  (139) 
NC(=O)Nc1cccc2c1C(=O)c1c(-c3cccs3)n[nH]c1-2

>  <canonical_smi>  (139) 
NC(=O)Nc1cccc2c1C(=O)c1c(-c3cccs3)n[nH]c1-2

>  <Set>  (139) 
G2 active

>  <Set_type>  (139) 
Train

>  <MW>  (139) 
310.34

>  <HBD>  (139) 
3

>  <HBA>  (139) 
3

>  <NRB>  (139) 
2

>  <NR>  (139) 
4

>  <NAR>  (139) 
4

>  <PSA>  (139) 
100.87

>  <Standard Type>  (139) 
nan

>  <Standard Relation>  (139) 
nan

>  <Standard Units>  (139) 
nan

>  <Standard Value>  (139) 
nan

>  <Assay ChEMBL ID>  (139) 
nan

>  <Assay Description>  (139) 
nan

>  <BAO Label>  (139) 
nan

$$$$

     RDKit          2D

 33 37  0  0  0  0  0  0  0  0999 V2000
   -1.7024   10.0935    0.0000 N   0  0  0  0  0  0  0  0  0  0  0  0
   -2.0143    8.6263    0.0000 C   0  0  0  0  0  0  0  0  0  0  0  0
   -0.8995    7.6226    0.0000 C   0  0  0  0  0  0  0  0  0  0  0  0
   -1.2114    6.1554    0.0000 C   0  0  0  0  0  0  0  0  0  0  0  0
   -2.6380    5.6918    0.0000 C   0  0  0  0  0  0  0  0  0  0  0  0
   -2.9499    4.2246    0.0000 N   0  0  0  0  0  0  0  0  0  0  0  0
   -1.8351    3.2209    0.0000 C   0  0  0  0  0  0  0  0  0  0  0  0
   -0.4086    3.6844    0.0000 C   0  0  0  0  0  0  0  0  0  0  0  0
    0.7062    2.6807    0.0000 C   0  0  0  0  0  0  0  0  0  0  0  0
    2.1328    3.1443    0.0000 N   0  0  0  0  0  0  0  0  0  0  0  0
    2.4446    4.6115    0.0000 C   0  0  0  0  0  0  0  0  0  0  0  0
    3.8712    5.0750    0.0000 C   0  0  0  0  0  0  0  0  0  0  0  0
    4.1831    6.5422    0.0000 C   0  0  0  0  0  0  0  0  0  0  0  0
    3.0684    7.5459    0.0000 C   0  0  0  0  0  0  0  0  0  0  0  0
    3.3802    9.0132    0.0000 S   0  0  0  0  0  0  0  0  0  0  0  0
    4.8474    8.7013    0.0000 O   0  0  0  0  0  0  0  0  0  0  0  0
    1.9130    9.3250    0.0000 O   0  0  0  0  0  0  0  0  0  0  0  0
    3.6921   10.4804    0.0000 C   0  0  0  0  0  0  0  0  0  0  0  0
    2.6884   11.5951    0.0000 C   0  0  0  0  0  0  0  0  0  0  0  0
    3.4384   12.8941    0.0000 C   0  0  0  0  0  0  0  0  0  0  0  0
    4.9056   12.5823    0.0000 C   0  0  0  0  0  0  0  0  0  0  0  0
    5.0624   11.0905    0.0000 S   0  0  0  0  0  0  0  0  0  0  0  0
    1.6418    7.0824    0.0000 C   0  0  0  0  0  0  0  0  0  0  0  0
    1.3299    5.6152    0.0000 C   0  0  0  0  0  0  0  0  0  0  0  0
    0.3943    1.2135    0.0000 N   0  0  0  0  0  0  0  0  0  0  0  0
    1.2760    0.0000    0.0000 N   0  0  0  0  0  0  0  0  0  0  0  0
    0.3943   -1.2135    0.0000 C   0  0  0  0  0  0  0  0  0  0  0  0
   -1.0323   -0.7500    0.0000 C   0  0  0  0  0  0  0  0  0  0  0  0
   -2.2458   -1.6317    0.0000 Cl  0  0  0  0  0  0  0  0  0  0  0  0
   -1.0323    0.7500    0.0000 C   0  0  0  0  0  0  0  0  0  0  0  0
   -2.1470    1.7537    0.0000 N   0  0  0  0  0  0  0  0  0  0  0  0
   -3.7527    6.6955    0.0000 C   0  0  0  0  0  0  0  0  0  0  0  0
   -3.4408    8.1628    0.0000 C   0  0  0  0  0  0  0  0  0  0  0  0
  1  2  1  0
  2  3  1  0
  3  4  1  0
  4  5  1  0
  5  6  1  0
  6  7  1  0
  7  8  1  0
  8  9  2  0
  9 10  1  0
 10 11  1  0
 11 12  2  0
 12 13  1  0
 13 14  2  0
 14 15  1  0
 15 16  2  0
 15 17  2  0
 15 18  1  0
 18 19  2  0
 19 20  1  0
 20 21  2  0
 21 22  1  0
 14 23  1  0
 23 24  2  0
  9 25  1  0
 25 26  1  0
 26 27  2  0
 27 28  1  0
 28 29  1  0
 28 30  2  0
 30 31  1  0
  5 32  1  0
 32 33  1  0
 33  2  1  0
 31  7  2  0
 24 11  1  0
 30 25  1  0
 22 18  1  0
M  END
>  <Compound_ID>  (140) 
CHEMBL181114

>  <Active>  (140) 
1.0

>  <Smiles>  (140) 
NC1CCC(Nc2cc(Nc3ccc(S(=O)(=O)c4cccs4)cc3)n3ncc(Cl)c3n2)CC1

>  <canonical_smi>  (140) 
NC1CCC(Nc2cc(Nc3ccc(S(=O)(=O)c4cccs4)cc3)n3ncc(Cl)c3n2)CC1

>  <Set>  (140) 
G2 active

>  <Set_type>  (140) 
Train

>  <MW>  (140) 
503.05

>  <HBD>  (140) 
3

>  <HBA>  (140) 
7

>  <NRB>  (140) 
6

>  <NR>  (140) 
5

>  <NAR>  (140) 
4

>  <PSA>  (140) 
114.41

>  <Standard Type>  (140) 
nan

>  <Standard Relation>  (140) 
nan

>  <Standard Units>  (140) 
nan

>  <Standard Value>  (140) 
nan

>  <Assay ChEMBL ID>  (140) 
nan

>  <Assay Description>  (140) 
nan

>  <BAO Label>  (140) 
nan

$$$$

     RDKit          2D

 25 27  0  0  0  0  0  0  0  0999 V2000
   -0.7500   -3.8971    0.0000 O   0  0  0  0  0  0  0  0  0  0  0  0
    0.7500   -3.8971    0.0000 C   0  0  0  0  0  0  0  0  0  0  0  0
    1.5000   -2.5981    0.0000 N   0  0  0  0  0  0  0  0  0  0  0  0
    0.7500   -1.2990    0.0000 C   0  0  0  0  0  0  0  0  0  0  0  0
    1.5000    0.0000    0.0000 C   0  0  0  0  0  0  0  0  0  0  0  0
    0.7500    1.2990    0.0000 C   0  0  0  0  0  0  0  0  0  0  0  0
   -0.7500    1.2990    0.0000 C   0  0  0  0  0  0  0  0  0  0  0  0
   -1.5000    0.0000    0.0000 C   0  0  0  0  0  0  0  0  0  0  0  0
   -0.7500   -1.2990    0.0000 C   0  0  0  0  0  0  0  0  0  0  0  0
    1.5000   -5.1962    0.0000 C   0  0  0  0  0  0  0  0  0  0  0  0
    2.9918   -5.3529    0.0000 N   0  0  0  0  0  0  0  0  0  0  0  0
    3.3037   -6.8202    0.0000 N   0  0  0  0  0  0  0  0  0  0  0  0
    2.0046   -7.5702    0.0000 C   0  0  0  0  0  0  0  0  0  0  0  0
    0.8899   -6.5665    0.0000 C   0  0  0  0  0  0  0  0  0  0  0  0
   -0.5773   -6.8783    0.0000 N   0  0  0  0  0  0  0  0  0  0  0  0
   -1.0409   -8.3049    0.0000 C   0  0  0  0  0  0  0  0  0  0  0  0
   -0.0372   -9.4196    0.0000 O   0  0  0  0  0  0  0  0  0  0  0  0
   -2.5081   -8.6168    0.0000 C   0  0  0  0  0  0  0  0  0  0  0  0
   -3.5118   -7.5021    0.0000 C   0  0  0  0  0  0  0  0  0  0  0  0
   -3.0482   -6.0755    0.0000 F   0  0  0  0  0  0  0  0  0  0  0  0
   -4.9790   -7.8139    0.0000 C   0  0  0  0  0  0  0  0  0  0  0  0
   -5.4425   -9.2405    0.0000 C   0  0  0  0  0  0  0  0  0  0  0  0
   -4.4388  -10.3552    0.0000 C   0  0  0  0  0  0  0  0  0  0  0  0
   -2.9716  -10.0434    0.0000 C   0  0  0  0  0  0  0  0  0  0  0  0
   -1.9679  -11.1581    0.0000 F   0  0  0  0  0  0  0  0  0  0  0  0
  1  2  2  0
  2  3  1  0
  3  4  1  0
  4  5  1  0
  5  6  1  0
  6  7  1  0
  7  8  1  0
  8  9  1  0
  2 10  1  0
 10 11  2  0
 11 12  1  0
 12 13  1  0
 13 14  2  0
 14 15  1  0
 15 16  1  0
 16 17  2  0
 16 18  1  0
 18 19  2  0
 19 20  1  0
 19 21  1  0
 21 22  2  0
 22 23  1  0
 23 24  2  0
 24 25  1  0
  9  4  1  0
 14 10  1  0
 24 18  1  0
M  END
>  <Compound_ID>  (141) 
CHEMBL456963

>  <Active>  (141) 
1.0

>  <Smiles>  (141) 
O=C(NC1CCCCC1)c1n[nH]cc1NC(=O)c1c(F)cccc1F

>  <canonical_smi>  (141) 
O=C(NC1CCCCC1)c1n[nH]cc1NC(=O)c1c(F)cccc1F

>  <Set>  (141) 
G2 active

>  <Set_type>  (141) 
Train

>  <MW>  (141) 
348.35

>  <HBD>  (141) 
3

>  <HBA>  (141) 
3

>  <NRB>  (141) 
4

>  <NR>  (141) 
3

>  <NAR>  (141) 
2

>  <PSA>  (141) 
86.88

>  <Standard Type>  (141) 
nan

>  <Standard Relation>  (141) 
nan

>  <Standard Units>  (141) 
nan

>  <Standard Value>  (141) 
nan

>  <Assay ChEMBL ID>  (141) 
nan

>  <Assay Description>  (141) 
nan

>  <BAO Label>  (141) 
nan

$$$$

     RDKit          2D

 23 26  0  0  0  0  0  0  0  0999 V2000
   -1.5000   -5.1962    0.0000 O   0  0  0  0  0  0  0  0  0  0  0  0
   -0.7500   -3.8971    0.0000 C   0  0  0  0  0  0  0  0  0  0  0  0
    0.7500   -3.8971    0.0000 C   0  0  0  0  0  0  0  0  0  0  0  0
    1.5000   -2.5981    0.0000 C   0  0  0  0  0  0  0  0  0  0  0  0
    0.7500   -1.2990    0.0000 C   0  0  0  0  0  0  0  0  0  0  0  0
    1.5000    0.0000    0.0000 C   0  0  0  0  0  0  0  0  0  0  0  0
    0.7500    1.2990    0.0000 N   0  0  0  0  0  0  0  0  0  0  0  0
   -0.7500    1.2990    0.0000 C   0  0  0  0  0  0  0  0  0  0  0  0
   -1.5000    2.5981    0.0000 N   0  0  0  0  0  0  0  0  0  0  0  0
   -0.7500    3.8971    0.0000 C   0  0  0  0  0  0  0  0  0  0  0  0
    0.7500    3.8971    0.0000 C   0  0  0  0  0  0  0  0  0  0  0  0
    1.5000    5.1962    0.0000 C   0  0  0  0  0  0  0  0  0  0  0  0
    0.7500    6.4952    0.0000 C   0  0  0  0  0  0  0  0  0  0  0  0
   -0.7500    6.4952    0.0000 C   0  0  0  0  0  0  0  0  0  0  0  0
   -1.5000    5.1962    0.0000 C   0  0  0  0  0  0  0  0  0  0  0  0
   -1.5000    0.0000    0.0000 N   0  0  0  0  0  0  0  0  0  0  0  0
   -0.7500   -1.2990    0.0000 C   0  0  0  0  0  0  0  0  0  0  0  0
   -1.5000   -2.5981    0.0000 N   0  0  0  0  0  0  0  0  0  0  0  0
   -3.0000   -2.5981    0.0000 C   0  0  0  0  0  0  0  0  0  0  0  0
   -3.8817   -3.8116    0.0000 C   0  0  0  0  0  0  0  0  0  0  0  0
   -5.3083   -3.3481    0.0000 C   0  0  0  0  0  0  0  0  0  0  0  0
   -5.3083   -1.8481    0.0000 C   0  0  0  0  0  0  0  0  0  0  0  0
   -3.8817   -1.3846    0.0000 C   0  0  0  0  0  0  0  0  0  0  0  0
  1  2  2  0
  2  3  1  0
  3  4  2  0
  4  5  1  0
  5  6  2  0
  6  7  1  0
  7  8  2  0
  8  9  1  0
  9 10  1  0
 10 11  2  0
 11 12  1  0
 12 13  2  0
 13 14  1  0
 14 15  2  0
  8 16  1  0
 16 17  2  0
 17 18  1  0
 18 19  1  0
 19 20  1  0
 20 21  1  0
 21 22  1  0
 22 23  1  0
 18  2  1  0
 23 19  1  0
 17  5  1  0
 15 10  1  0
M  END
>  <Compound_ID>  (142) 
CHEMBL140272

>  <Active>  (142) 
1.0

>  <Smiles>  (142) 
O=c1ccc2cnc(Nc3ccccc3)nc2n1C1CCCC1

>  <canonical_smi>  (142) 
O=c1ccc2cnc(Nc3ccccc3)nc2n1C1CCCC1

>  <Set>  (142) 
G2 active

>  <Set_type>  (142) 
Train

>  <MW>  (142) 
306.37

>  <HBD>  (142) 
1

>  <HBA>  (142) 
4

>  <NRB>  (142) 
3

>  <NR>  (142) 
4

>  <NAR>  (142) 
3

>  <PSA>  (142) 
59.81

>  <Standard Type>  (142) 
nan

>  <Standard Relation>  (142) 
nan

>  <Standard Units>  (142) 
nan

>  <Standard Value>  (142) 
nan

>  <Assay ChEMBL ID>  (142) 
nan

>  <Assay Description>  (142) 
nan

>  <BAO Label>  (142) 
nan

$$$$

     RDKit          2D

 32 35  0  0  0  0  0  0  0  0999 V2000
  -10.0849   -6.9740    0.0000 N   0  0  0  0  0  0  0  0  0  0  0  0
   -8.6583   -6.5105    0.0000 S   0  0  0  0  0  0  0  0  0  0  0  0
   -9.1218   -5.0839    0.0000 O   0  0  0  0  0  0  0  0  0  0  0  0
   -8.1948   -7.9371    0.0000 O   0  0  0  0  0  0  0  0  0  0  0  0
   -7.2317   -6.0469    0.0000 C   0  0  0  0  0  0  0  0  0  0  0  0
   -6.9199   -4.5797    0.0000 C   0  0  0  0  0  0  0  0  0  0  0  0
   -5.4933   -4.1162    0.0000 C   0  0  0  0  0  0  0  0  0  0  0  0
   -4.3786   -5.1199    0.0000 C   0  0  0  0  0  0  0  0  0  0  0  0
   -2.9520   -4.6564    0.0000 N   0  0  0  0  0  0  0  0  0  0  0  0
   -2.6401   -3.1891    0.0000 N   0  0  0  0  0  0  0  0  0  0  0  0
   -1.2135   -2.7256    0.0000 C   0  0  0  0  0  0  0  0  0  0  0  0
   -0.0000   -3.6073    0.0000 C   0  0  0  0  0  0  0  0  0  0  0  0
    0.0000   -5.1073    0.0000 O   0  0  0  0  0  0  0  0  0  0  0  0
    1.2135   -2.7256    0.0000 N   0  0  0  0  0  0  0  0  0  0  0  0
    0.7500   -1.2990    0.0000 C   0  0  0  0  0  0  0  0  0  0  0  0
    1.5000    0.0000    0.0000 C   0  0  0  0  0  0  0  0  0  0  0  0
    0.7500    1.2990    0.0000 C   0  0  0  0  0  0  0  0  0  0  0  0
   -0.7500    1.2990    0.0000 C   0  0  0  0  0  0  0  0  0  0  0  0
   -1.5000    2.5981    0.0000 C   0  0  0  0  0  0  0  0  0  0  0  0
   -3.0000    2.5981    0.0000 O   0  0  0  0  0  0  0  0  0  0  0  0
   -0.7500    3.8971    0.0000 N   0  0  0  0  0  0  0  0  0  0  0  0
   -1.5000    5.1962    0.0000 C   0  0  0  0  0  0  0  0  0  0  0  0
   -0.7500    6.4952    0.0000 C   0  0  0  0  0  0  0  0  0  0  0  0
   -1.5000    7.7942    0.0000 C   0  0  0  0  0  0  0  0  0  0  0  0
   -2.9918    7.9510    0.0000 C   0  0  0  0  0  0  0  0  0  0  0  0
   -3.3037    9.4182    0.0000 N   0  0  0  0  0  0  0  0  0  0  0  0
   -2.0046   10.1682    0.0000 C   0  0  0  0  0  0  0  0  0  0  0  0
   -0.8899    9.1645    0.0000 N   0  0  0  0  0  0  0  0  0  0  0  0
   -1.5000    0.0000    0.0000 C   0  0  0  0  0  0  0  0  0  0  0  0
   -0.7500   -1.2990    0.0000 C   0  0  0  0  0  0  0  0  0  0  0  0
   -4.6904   -6.5871    0.0000 C   0  0  0  0  0  0  0  0  0  0  0  0
   -6.1170   -7.0506    0.0000 C   0  0  0  0  0  0  0  0  0  0  0  0
  1  2  1  0
  2  3  2  0
  2  4  2  0
  2  5  1  0
  5  6  2  0
  6  7  1  0
  7  8  2  0
  8  9  1  0
  9 10  2  3
 10 11  1  0
 11 12  2  0
 12 13  1  0
 12 14  1  0
 14 15  1  0
 15 16  2  0
 16 17  1  0
 17 18  2  0
 18 19  1  0
 19 20  2  0
 19 21  1  0
 21 22  1  0
 22 23  1  0
 23 24  1  0
 24 25  2  0
 25 26  1  0
 26 27  1  0
 27 28  2  0
 18 29  1  0
 29 30  2  0
  8 31  1  0
 31 32  2  0
 32  5  1  0
 30 11  1  0
 30 15  1  0
 28 24  1  0
M  END
>  <Compound_ID>  (143) 
CHEMBL336892

>  <Active>  (143) 
1.0

>  <Smiles>  (143) 
NS(=O)(=O)c1ccc(N=Nc2c(O)[nH]c3ccc(C(=O)NCCc4c[nH]cn4)cc23)cc1

>  <canonical_smi>  (143) 
NS(=O)(=O)c1ccc(N=Nc2c(O)[nH]c3ccc(C(=O)NCCc4c[nH]cn4)cc23)cc1

>  <Set>  (143) 
G2 active

>  <Set_type>  (143) 
Train

>  <MW>  (143) 
453.48

>  <HBD>  (143) 
5

>  <HBA>  (143) 
5

>  <NRB>  (143) 
7

>  <NR>  (143) 
4

>  <NAR>  (143) 
4

>  <PSA>  (143) 
178.68

>  <Standard Type>  (143) 
nan

>  <Standard Relation>  (143) 
nan

>  <Standard Units>  (143) 
nan

>  <Standard Value>  (143) 
nan

>  <Assay ChEMBL ID>  (143) 
nan

>  <Assay Description>  (143) 
nan

>  <BAO Label>  (143) 
nan

$$$$

     RDKit          2D

 32 35  0  0  0  0  0  0  0  0999 V2000
  -10.0849   -6.9740    0.0000 N   0  0  0  0  0  0  0  0  0  0  0  0
   -8.6583   -6.5105    0.0000 S   0  0  0  0  0  0  0  0  0  0  0  0
   -9.1218   -5.0839    0.0000 O   0  0  0  0  0  0  0  0  0  0  0  0
   -8.1948   -7.9371    0.0000 O   0  0  0  0  0  0  0  0  0  0  0  0
   -7.2317   -6.0469    0.0000 C   0  0  0  0  0  0  0  0  0  0  0  0
   -6.9199   -4.5797    0.0000 C   0  0  0  0  0  0  0  0  0  0  0  0
   -5.4933   -4.1162    0.0000 C   0  0  0  0  0  0  0  0  0  0  0  0
   -4.3786   -5.1199    0.0000 C   0  0  0  0  0  0  0  0  0  0  0  0
   -2.9520   -4.6564    0.0000 N   0  0  0  0  0  0  0  0  0  0  0  0
   -2.6401   -3.1891    0.0000 N   0  0  0  0  0  0  0  0  0  0  0  0
   -1.2135   -2.7256    0.0000 C   0  0  0  0  0  0  0  0  0  0  0  0
   -0.0000   -3.6073    0.0000 C   0  0  0  0  0  0  0  0  0  0  0  0
    0.0000   -5.1073    0.0000 O   0  0  0  0  0  0  0  0  0  0  0  0
    1.2135   -2.7256    0.0000 N   0  0  0  0  0  0  0  0  0  0  0  0
    0.7500   -1.2990    0.0000 C   0  0  0  0  0  0  0  0  0  0  0  0
    1.5000    0.0000    0.0000 C   0  0  0  0  0  0  0  0  0  0  0  0
    0.7500    1.2990    0.0000 C   0  0  0  0  0  0  0  0  0  0  0  0
   -0.7500    1.2990    0.0000 C   0  0  0  0  0  0  0  0  0  0  0  0
   -1.5000    2.5981    0.0000 C   0  0  0  0  0  0  0  0  0  0  0  0
   -3.0000    2.5981    0.0000 O   0  0  0  0  0  0  0  0  0  0  0  0
   -0.7500    3.8971    0.0000 N   0  0  0  0  0  0  0  0  0  0  0  0
   -1.5000    5.1962    0.0000 C   0  0  0  0  0  0  0  0  0  0  0  0
   -0.7500    6.4952    0.0000 C   0  0  0  0  0  0  0  0  0  0  0  0
   -1.5000    7.7942    0.0000 C   0  0  0  0  0  0  0  0  0  0  0  0
   -2.9918    7.9510    0.0000 C   0  0  0  0  0  0  0  0  0  0  0  0
   -3.3037    9.4182    0.0000 N   0  0  0  0  0  0  0  0  0  0  0  0
   -2.0046   10.1682    0.0000 C   0  0  0  0  0  0  0  0  0  0  0  0
   -0.8899    9.1645    0.0000 N   0  0  0  0  0  0  0  0  0  0  0  0
   -1.5000    0.0000    0.0000 C   0  0  0  0  0  0  0  0  0  0  0  0
   -0.7500   -1.2990    0.0000 C   0  0  0  0  0  0  0  0  0  0  0  0
   -4.6904   -6.5871    0.0000 C   0  0  0  0  0  0  0  0  0  0  0  0
   -6.1170   -7.0506    0.0000 C   0  0  0  0  0  0  0  0  0  0  0  0
  1  2  1  0
  2  3  2  0
  2  4  2  0
  2  5  1  0
  5  6  2  0
  6  7  1  0
  7  8  2  0
  8  9  1  0
  9 10  1  0
 10 11  2  0
 11 12  1  0
 12 13  2  0
 12 14  1  0
 14 15  1  0
 15 16  2  0
 16 17  1  0
 17 18  2  0
 18 19  1  0
 19 20  2  0
 19 21  1  0
 21 22  1  0
 22 23  1  0
 23 24  1  0
 24 25  2  0
 25 26  1  0
 26 27  1  0
 27 28  2  0
 18 29  1  0
 29 30  2  0
  8 31  1  0
 31 32  2  0
 32  5  1  0
 30 11  1  0
 30 15  1  0
 28 24  1  0
M  END
>  <Compound_ID>  (144) 
CHEMBL272028

>  <Active>  (144) 
1.0

>  <Smiles>  (144) 
NS(=O)(=O)c1ccc(N/N=C2\C(=O)Nc3ccc(C(=O)NCCc4c[nH]cn4)cc32)cc1

>  <canonical_smi>  (144) 
NS(=O)(=O)c1ccc(N/N=C2\C(=O)Nc3ccc(C(=O)NCCc4c[nH]cn4)cc32)cc1

>  <Set>  (144) 
G2 active

>  <Set_type>  (144) 
Train

>  <MW>  (144) 
453.48

>  <HBD>  (144) 
5

>  <HBA>  (144) 
6

>  <NRB>  (144) 
7

>  <NR>  (144) 
4

>  <NAR>  (144) 
3

>  <PSA>  (144) 
171.43

>  <Standard Type>  (144) 
nan

>  <Standard Relation>  (144) 
nan

>  <Standard Units>  (144) 
nan

>  <Standard Value>  (144) 
nan

>  <Assay ChEMBL ID>  (144) 
nan

>  <Assay Description>  (144) 
nan

>  <BAO Label>  (144) 
nan

$$$$

     RDKit          2D

 31 34  0  0  0  0  0  0  0  0999 V2000
  -10.0849   -6.9740    0.0000 N   0  0  0  0  0  0  0  0  0  0  0  0
   -8.6583   -6.5105    0.0000 S   0  0  0  0  0  0  0  0  0  0  0  0
   -9.1218   -5.0839    0.0000 O   0  0  0  0  0  0  0  0  0  0  0  0
   -8.1948   -7.9371    0.0000 O   0  0  0  0  0  0  0  0  0  0  0  0
   -7.2317   -6.0469    0.0000 C   0  0  0  0  0  0  0  0  0  0  0  0
   -6.9199   -4.5797    0.0000 C   0  0  0  0  0  0  0  0  0  0  0  0
   -5.4933   -4.1162    0.0000 C   0  0  0  0  0  0  0  0  0  0  0  0
   -4.3786   -5.1199    0.0000 C   0  0  0  0  0  0  0  0  0  0  0  0
   -2.9520   -4.6564    0.0000 N   0  0  0  0  0  0  0  0  0  0  0  0
   -2.6401   -3.1891    0.0000 N   0  0  0  0  0  0  0  0  0  0  0  0
   -1.2135   -2.7256    0.0000 C   0  0  0  0  0  0  0  0  0  0  0  0
   -0.0000   -3.6073    0.0000 C   0  0  0  0  0  0  0  0  0  0  0  0
    0.0000   -5.1073    0.0000 O   0  0  0  0  0  0  0  0  0  0  0  0
    1.2135   -2.7256    0.0000 N   0  0  0  0  0  0  0  0  0  0  0  0
    0.7500   -1.2990    0.0000 C   0  0  0  0  0  0  0  0  0  0  0  0
    1.5000    0.0000    0.0000 C   0  0  0  0  0  0  0  0  0  0  0  0
    0.7500    1.2990    0.0000 C   0  0  0  0  0  0  0  0  0  0  0  0
   -0.7500    1.2990    0.0000 C   0  0  0  0  0  0  0  0  0  0  0  0
   -1.5000    0.0000    0.0000 C   0  0  0  0  0  0  0  0  0  0  0  0
   -3.0000    0.0000    0.0000 C   0  0  0  0  0  0  0  0  0  0  0  0
   -3.7500    1.2990    0.0000 C   0  0  0  0  0  0  0  0  0  0  0  0
   -5.2500    1.2990    0.0000 C   0  0  0  0  0  0  0  0  0  0  0  0
   -6.0000    2.5981    0.0000 C   0  0  0  0  0  0  0  0  0  0  0  0
   -7.5000    2.5981    0.0000 C   0  0  0  0  0  0  0  0  0  0  0  0
   -8.2500    1.2990    0.0000 C   0  0  0  0  0  0  0  0  0  0  0  0
   -9.7500    1.2990    0.0000 O   0  0  0  0  0  0  0  0  0  0  0  0
   -7.5000    0.0000    0.0000 C   0  0  0  0  0  0  0  0  0  0  0  0
   -6.0000    0.0000    0.0000 C   0  0  0  0  0  0  0  0  0  0  0  0
   -0.7500   -1.2990    0.0000 C   0  0  0  0  0  0  0  0  0  0  0  0
   -4.6904   -6.5871    0.0000 C   0  0  0  0  0  0  0  0  0  0  0  0
   -6.1170   -7.0506    0.0000 C   0  0  0  0  0  0  0  0  0  0  0  0
  1  2  1  0
  2  3  2  0
  2  4  2  0
  2  5  1  0
  5  6  2  0
  6  7  1  0
  7  8  2  0
  8  9  1  0
  9 10  1  0
 10 11  2  0
 11 12  1  0
 12 13  2  0
 12 14  1  0
 14 15  1  0
 15 16  2  0
 16 17  1  0
 17 18  2  0
 18 19  1  0
 19 20  1  0
 20 21  1  0
 21 22  1  0
 22 23  2  0
 23 24  1  0
 24 25  2  0
 25 26  1  0
 25 27  1  0
 27 28  2  0
 19 29  2  0
  8 30  1  0
 30 31  2  0
 31  5  1  0
 29 11  1  0
 29 15  1  0
 28 22  1  0
M  END
>  <Compound_ID>  (145) 
CHEMBL411865

>  <Active>  (145) 
1.0

>  <Smiles>  (145) 
NS(=O)(=O)c1ccc(N/N=C2\C(=O)Nc3cccc(CCc4ccc(O)cc4)c32)cc1

>  <canonical_smi>  (145) 
NS(=O)(=O)c1ccc(N/N=C2\C(=O)Nc3cccc(CCc4ccc(O)cc4)c32)cc1

>  <Set>  (145) 
G2 active

>  <Set_type>  (145) 
Train

>  <MW>  (145) 
436.49

>  <HBD>  (145) 
4

>  <HBA>  (145) 
5

>  <NRB>  (145) 
6

>  <NR>  (145) 
4

>  <NAR>  (145) 
3

>  <PSA>  (145) 
133.88

>  <Standard Type>  (145) 
nan

>  <Standard Relation>  (145) 
nan

>  <Standard Units>  (145) 
nan

>  <Standard Value>  (145) 
nan

>  <Assay ChEMBL ID>  (145) 
nan

>  <Assay Description>  (145) 
nan

>  <BAO Label>  (145) 
nan

$$$$

     RDKit          2D

 30 34  0  0  0  0  0  0  0  0999 V2000
   -2.5565   -7.4827    0.0000 N   0  0  0  0  0  0  0  0  0  0  0  0
   -1.4418   -6.4791    0.0000 C   0  0  0  0  0  0  0  0  0  0  0  0
   -0.0152   -6.9426    0.0000 O   0  0  0  0  0  0  0  0  0  0  0  0
   -1.7537   -5.0118    0.0000 C   0  0  0  0  0  0  0  0  0  0  0  0
   -3.1240   -4.4017    0.0000 N   0  0  0  0  0  0  0  0  0  0  0  0
   -2.9672   -2.9099    0.0000 N   0  0  0  0  0  0  0  0  0  0  0  0
   -4.0819   -1.9062    0.0000 C   0  0  0  0  0  0  0  0  0  0  0  0
   -5.5085   -2.3698    0.0000 C   0  0  0  0  0  0  0  0  0  0  0  0
   -6.6232   -1.3661    0.0000 C   0  0  0  0  0  0  0  0  0  0  0  0
   -8.0498   -1.8296    0.0000 C   0  0  0  0  0  0  0  0  0  0  0  0
   -8.3617   -3.2968    0.0000 N   0  0  0  0  0  0  0  0  0  0  0  0
   -7.2470   -4.3005    0.0000 C   0  0  0  0  0  0  0  0  0  0  0  0
   -5.8204   -3.8370    0.0000 C   0  0  0  0  0  0  0  0  0  0  0  0
   -1.5000   -2.5981    0.0000 C   0  0  0  0  0  0  0  0  0  0  0  0
   -0.7500   -3.8971    0.0000 C   0  0  0  0  0  0  0  0  0  0  0  0
    0.7500   -3.8971    0.0000 C   0  0  0  0  0  0  0  0  0  0  0  0
    1.5000   -2.5981    0.0000 C   0  0  0  0  0  0  0  0  0  0  0  0
    0.7500   -1.2990    0.0000 C   0  0  0  0  0  0  0  0  0  0  0  0
    1.5000    0.0000    0.0000 C   0  0  0  0  0  0  0  0  0  0  0  0
    0.7500    1.2990    0.0000 N   0  0  0  0  0  0  0  0  0  0  0  0
   -0.7500    1.2990    0.0000 C   0  0  0  0  0  0  0  0  0  0  0  0
   -1.5000    2.5981    0.0000 N   0  0  0  0  0  0  0  0  0  0  0  0
   -0.7500    3.8971    0.0000 C   0  0  0  0  0  0  0  0  0  0  0  0
    0.7500    3.8971    0.0000 C   0  0  0  0  0  0  0  0  0  0  0  0
    1.5000    5.1962    0.0000 C   0  0  0  0  0  0  0  0  0  0  0  0
    0.7500    6.4952    0.0000 C   0  0  0  0  0  0  0  0  0  0  0  0
   -0.7500    6.4952    0.0000 C   0  0  0  0  0  0  0  0  0  0  0  0
   -1.5000    5.1962    0.0000 C   0  0  0  0  0  0  0  0  0  0  0  0
   -1.5000    0.0000    0.0000 N   0  0  0  0  0  0  0  0  0  0  0  0
   -0.7500   -1.2990    0.0000 C   0  0  0  0  0  0  0  0  0  0  0  0
  1  2  1  0
  2  3  2  0
  2  4  1  0
  4  5  2  0
  5  6  1  0
  6  7  1  0
  7  8  1  0
  8  9  1  0
  9 10  1  0
 10 11  1  0
 11 12  1  0
 12 13  1  0
  6 14  1  0
 14 15  2  0
 15 16  1  0
 16 17  1  0
 17 18  1  0
 18 19  2  0
 19 20  1  0
 20 21  2  0
 21 22  1  0
 22 23  1  0
 23 24  2  0
 24 25  1  0
 25 26  2  0
 26 27  1  0
 27 28  2  0
 21 29  1  0
 29 30  2  0
 15  4  1  0
 30 18  1  0
 13  8  1  0
 30 14  1  0
 28 23  1  0
M  END
>  <Compound_ID>  (146) 
CHEMBL1171949

>  <Active>  (146) 
1.0

>  <Smiles>  (146) 
NC(=O)c1nn(CC2CCNCC2)c2c1CCc1cnc(Nc3ccccc3)nc1-2

>  <canonical_smi>  (146) 
NC(=O)c1nn(CC2CCNCC2)c2c1CCc1cnc(Nc3ccccc3)nc1-2

>  <Set>  (146) 
G2 active

>  <Set_type>  (146) 
Train

>  <MW>  (146) 
403.49

>  <HBD>  (146) 
3

>  <HBA>  (146) 
6

>  <NRB>  (146) 
5

>  <NR>  (146) 
5

>  <NAR>  (146) 
3

>  <PSA>  (146) 
110.75

>  <Standard Type>  (146) 
nan

>  <Standard Relation>  (146) 
nan

>  <Standard Units>  (146) 
nan

>  <Standard Value>  (146) 
nan

>  <Assay ChEMBL ID>  (146) 
nan

>  <Assay Description>  (146) 
nan

>  <BAO Label>  (146) 
nan

$$$$

     RDKit          2D

 30 33  0  0  0  0  0  0  0  0999 V2000
   -1.5342  -12.0455    0.0000 N   0  0  0  0  0  0  0  0  0  0  0  0
   -2.9046  -11.4354    0.0000 C   0  0  0  0  0  0  0  0  0  0  0  0
   -3.0613   -9.9436    0.0000 C   0  0  0  0  0  0  0  0  0  0  0  0
   -1.8478   -9.0619    0.0000 N   0  0  0  0  0  0  0  0  0  0  0  0
   -2.0046   -7.5702    0.0000 C   0  0  0  0  0  0  0  0  0  0  0  0
   -3.3037   -6.8202    0.0000 N   0  0  0  0  0  0  0  0  0  0  0  0
   -2.9918   -5.3529    0.0000 C   0  0  0  0  0  0  0  0  0  0  0  0
   -1.5000   -5.1962    0.0000 C   0  0  0  0  0  0  0  0  0  0  0  0
   -0.7500   -3.8971    0.0000 C   0  0  0  0  0  0  0  0  0  0  0  0
    0.7500   -3.8971    0.0000 C   0  0  0  0  0  0  0  0  0  0  0  0
    1.5000   -2.5981    0.0000 C   0  0  0  0  0  0  0  0  0  0  0  0
    0.7500   -1.2990    0.0000 C   0  0  0  0  0  0  0  0  0  0  0  0
    1.5000    0.0000    0.0000 C   0  0  0  0  0  0  0  0  0  0  0  0
    0.7500    1.2990    0.0000 N   0  0  0  0  0  0  0  0  0  0  0  0
   -0.7500    1.2990    0.0000 C   0  0  0  0  0  0  0  0  0  0  0  0
   -1.5000    0.0000    0.0000 C   0  0  0  0  0  0  0  0  0  0  0  0
   -0.7500   -1.2990    0.0000 C   0  0  0  0  0  0  0  0  0  0  0  0
   -1.5000   -2.5981    0.0000 C   0  0  0  0  0  0  0  0  0  0  0  0
   -0.8899   -6.5665    0.0000 S   0  0  0  0  0  0  0  0  0  0  0  0
   -4.1181  -12.3171    0.0000 C   0  0  0  0  0  0  0  0  0  0  0  0
   -3.9613  -13.8089    0.0000 C   0  0  0  0  0  0  0  0  0  0  0  0
   -5.1748  -14.6905    0.0000 C   0  0  0  0  0  0  0  0  0  0  0  0
   -5.0180  -16.1823    0.0000 C   0  0  0  0  0  0  0  0  0  0  0  0
   -3.6477  -16.7924    0.0000 C   0  0  0  0  0  0  0  0  0  0  0  0
   -3.4909  -18.2842    0.0000 C   0  0  0  0  0  0  0  0  0  0  0  0
   -3.3341  -19.7760    0.0000 F   0  0  0  0  0  0  0  0  0  0  0  0
   -4.9827  -18.4410    0.0000 F   0  0  0  0  0  0  0  0  0  0  0  0
   -1.9991  -18.1274    0.0000 F   0  0  0  0  0  0  0  0  0  0  0  0
   -2.4342  -15.9108    0.0000 C   0  0  0  0  0  0  0  0  0  0  0  0
   -2.5910  -14.4190    0.0000 C   0  0  0  0  0  0  0  0  0  0  0  0
  2  1  1  1
  2  3  1  0
  3  4  1  0
  4  5  1  0
  5  6  2  0
  6  7  1  0
  7  8  2  0
  8  9  1  0
  9 10  2  0
 10 11  1  0
 11 12  2  0
 12 13  1  0
 13 14  2  0
 14 15  1  0
 15 16  2  0
 16 17  1  0
 17 18  2  0
  8 19  1  0
  2 20  1  0
 20 21  1  0
 21 22  2  0
 22 23  1  0
 23 24  2  0
 24 25  1  0
 25 26  1  0
 25 27  1  0
 25 28  1  0
 24 29  1  0
 29 30  2  0
 19  5  1  0
 30 21  1  0
 18  9  1  0
 17 12  1  0
M  END
>  <Compound_ID>  (147) 
CHEMBL1081263

>  <Active>  (147) 
1.0

>  <Smiles>  (147) 
N[C@H](CNc1ncc(-c2ccc3cnccc3c2)s1)Cc1ccc(C(F)(F)F)cc1

>  <canonical_smi>  (147) 
N[C@H](CNc1ncc(-c2ccc3cnccc3c2)s1)Cc1ccc(C(F)(F)F)cc1

>  <Set>  (147) 
G2 active

>  <Set_type>  (147) 
Train

>  <MW>  (147) 
428.48

>  <HBD>  (147) 
2

>  <HBA>  (147) 
4

>  <NRB>  (147) 
6

>  <NR>  (147) 
4

>  <NAR>  (147) 
4

>  <PSA>  (147) 
63.83

>  <Standard Type>  (147) 
nan

>  <Standard Relation>  (147) 
nan

>  <Standard Units>  (147) 
nan

>  <Standard Value>  (147) 
nan

>  <Assay ChEMBL ID>  (147) 
nan

>  <Assay Description>  (147) 
nan

>  <BAO Label>  (147) 
nan

$$$$

     RDKit          2D

 23 26  0  0  0  0  0  0  0  0999 V2000
    1.1682  -10.0557    0.0000 C   0  0  0  0  0  0  0  0  0  0  0  0
    1.1682   -8.5557    0.0000 C   0  0  0  0  0  0  0  0  0  0  0  0
    2.3817   -7.6740    0.0000 C   0  0  0  0  0  0  0  0  0  0  0  0
    1.9182   -6.2474    0.0000 C   0  0  0  0  0  0  0  0  0  0  0  0
    0.4182   -6.2474    0.0000 C   0  0  0  0  0  0  0  0  0  0  0  0
   -0.4635   -5.0339    0.0000 C   0  0  0  0  0  0  0  0  0  0  0  0
   -1.9635   -5.0339    0.0000 N   0  0  0  0  0  0  0  0  0  0  0  0
   -2.4271   -3.6073    0.0000 N   0  0  0  0  0  0  0  0  0  0  0  0
   -1.2135   -2.7256    0.0000 C   0  0  0  0  0  0  0  0  0  0  0  0
   -0.0000   -3.6073    0.0000 C   0  0  0  0  0  0  0  0  0  0  0  0
    1.2135   -2.7256    0.0000 C   0  0  0  0  0  0  0  0  0  0  0  0
    2.6401   -3.1891    0.0000 O   0  0  0  0  0  0  0  0  0  0  0  0
    0.7500   -1.2990    0.0000 C   0  0  0  0  0  0  0  0  0  0  0  0
    1.5000    0.0000    0.0000 C   0  0  0  0  0  0  0  0  0  0  0  0
    3.0000    0.0000    0.0000 N   0  0  0  0  0  0  0  0  0  0  0  0
    3.7500    1.2990    0.0000 C   0  0  0  0  0  0  0  0  0  0  0  0
    5.2500    1.2990    0.0000 N   0  0  0  0  0  0  0  0  0  0  0  0
    3.0000    2.5981    0.0000 O   0  0  0  0  0  0  0  0  0  0  0  0
    0.7500    1.2990    0.0000 C   0  0  0  0  0  0  0  0  0  0  0  0
   -0.7500    1.2990    0.0000 C   0  0  0  0  0  0  0  0  0  0  0  0
   -1.5000    0.0000    0.0000 C   0  0  0  0  0  0  0  0  0  0  0  0
   -0.7500   -1.2990    0.0000 C   0  0  0  0  0  0  0  0  0  0  0  0
   -0.0454   -7.6740    0.0000 S   0  0  0  0  0  0  0  0  0  0  0  0
  1  2  1  0
  2  3  2  0
  3  4  1  0
  4  5  2  0
  5  6  1  0
  6  7  1  0
  7  8  1  0
  8  9  2  0
  9 10  1  0
 10 11  1  0
 11 12  2  0
 11 13  1  0
 13 14  2  0
 14 15  1  0
 15 16  1  0
 16 17  1  0
 16 18  2  0
 14 19  1  0
 19 20  2  0
 20 21  1  0
 21 22  2  0
  5 23  1  0
 23  2  1  0
 10  6  2  0
 22 13  1  0
 22  9  1  0
M  END
>  <Compound_ID>  (148) 
CHEMBL149096

>  <Active>  (148) 
1.0

>  <Smiles>  (148) 
Cc1ccc(-c2[nH]nc3c2C(=O)c2c(NC(N)=O)cccc2-3)s1

>  <canonical_smi>  (148) 
Cc1ccc(-c2[nH]nc3c2C(=O)c2c(NC(N)=O)cccc2-3)s1

>  <Set>  (148) 
G2 active

>  <Set_type>  (148) 
Train

>  <MW>  (148) 
324.37

>  <HBD>  (148) 
3

>  <HBA>  (148) 
3

>  <NRB>  (148) 
2

>  <NR>  (148) 
4

>  <NAR>  (148) 
4

>  <PSA>  (148) 
100.87

>  <Standard Type>  (148) 
nan

>  <Standard Relation>  (148) 
nan

>  <Standard Units>  (148) 
nan

>  <Standard Value>  (148) 
nan

>  <Assay ChEMBL ID>  (148) 
nan

>  <Assay Description>  (148) 
nan

>  <BAO Label>  (148) 
nan

$$$$

     RDKit          2D

 31 35  0  0  0  0  0  0  0  0999 V2000
   -8.1244   -6.0395    0.0000 C   0  0  0  0  0  0  0  0  0  0  0  0
   -6.8254   -5.2895    0.0000 C   0  0  0  0  0  0  0  0  0  0  0  0
   -5.4550   -5.8996    0.0000 N   0  0  0  0  0  0  0  0  0  0  0  0
   -4.4513   -4.7849    0.0000 C   0  0  0  0  0  0  0  0  0  0  0  0
   -2.9596   -4.9417    0.0000 C   0  0  0  0  0  0  0  0  0  0  0  0
   -5.2013   -3.4858    0.0000 C   0  0  0  0  0  0  0  0  0  0  0  0
   -4.5912   -2.1155    0.0000 C   0  0  0  0  0  0  0  0  0  0  0  0
   -5.3412   -0.8165    0.0000 N   0  0  0  0  0  0  0  0  0  0  0  0
   -4.3375    0.2982    0.0000 N   0  0  0  0  0  0  0  0  0  0  0  0
   -2.9672   -0.3119    0.0000 C   0  0  0  0  0  0  0  0  0  0  0  0
   -3.1240   -1.8037    0.0000 C   0  0  0  0  0  0  0  0  0  0  0  0
   -1.7537   -2.4138    0.0000 C   0  0  0  0  0  0  0  0  0  0  0  0
   -1.4418   -3.8810    0.0000 O   0  0  0  0  0  0  0  0  0  0  0  0
   -0.7500   -1.2990    0.0000 C   0  0  0  0  0  0  0  0  0  0  0  0
    0.7500   -1.2990    0.0000 C   0  0  0  0  0  0  0  0  0  0  0  0
    1.5000   -2.5981    0.0000 N   0  0  0  0  0  0  0  0  0  0  0  0
    3.0000   -2.5981    0.0000 C   0  0  0  0  0  0  0  0  0  0  0  0
    3.7500   -1.2990    0.0000 O   0  0  0  0  0  0  0  0  0  0  0  0
    3.7500   -3.8971    0.0000 N   0  0  0  0  0  0  0  0  0  0  0  0
    5.2500   -3.8971    0.0000 N   0  0  0  0  0  0  0  0  0  0  0  0
    6.0000   -5.1962    0.0000 C   0  0  0  0  0  0  0  0  0  0  0  0
    7.5000   -5.1962    0.0000 C   0  0  0  0  0  0  0  0  0  0  0  0
    8.2500   -3.8971    0.0000 N   0  0  0  0  0  0  0  0  0  0  0  0
    9.7500   -3.8971    0.0000 C   0  0  0  0  0  0  0  0  0  0  0  0
    7.5000   -2.5981    0.0000 C   0  0  0  0  0  0  0  0  0  0  0  0
    6.0000   -2.5981    0.0000 C   0  0  0  0  0  0  0  0  0  0  0  0
    1.5000    0.0000    0.0000 C   0  0  0  0  0  0  0  0  0  0  0  0
    0.7500    1.2990    0.0000 C   0  0  0  0  0  0  0  0  0  0  0  0
   -0.7500    1.2990    0.0000 C   0  0  0  0  0  0  0  0  0  0  0  0
   -1.5000    0.0000    0.0000 C   0  0  0  0  0  0  0  0  0  0  0  0
   -6.6686   -3.7977    0.0000 S   0  0  0  0  0  0  0  0  0  0  0  0
  1  2  1  0
  2  3  2  0
  3  4  1  0
  4  5  1  0
  4  6  2  0
  6  7  1  0
  7  8  2  0
  8  9  1  0
  9 10  1  0
 10 11  2  0
 11 12  1  0
 12 13  2  0
 12 14  1  0
 14 15  2  0
 15 16  1  0
 16 17  1  0
 17 18  2  0
 17 19  1  0
 19 20  1  0
 20 21  1  0
 21 22  1  0
 22 23  1  0
 23 24  1  0
 23 25  1  0
 25 26  1  0
 15 27  1  0
 27 28  2  0
 28 29  1  0
 29 30  2  0
  6 31  1  0
 31  2  1  0
 11  7  1  0
 30 14  1  0
 30 10  1  0
 26 20  1  0
M  END
>  <Compound_ID>  (149) 
CHEMBL325023

>  <Active>  (149) 
1.0

>  <Smiles>  (149) 
Cc1nc(C)c(-c2n[nH]c3c2C(=O)c2c(NC(=O)NN4CCN(C)CC4)cccc2-3)s1

>  <canonical_smi>  (149) 
Cc1nc(C)c(-c2n[nH]c3c2C(=O)c2c(NC(=O)NN4CCN(C)CC4)cccc2-3)s1

>  <Set>  (149) 
G2 active

>  <Set_type>  (149) 
Train

>  <MW>  (149) 
437.53

>  <HBD>  (149) 
3

>  <HBA>  (149) 
6

>  <NRB>  (149) 
3

>  <NR>  (149) 
5

>  <NAR>  (149) 
4

>  <PSA>  (149) 
106.25

>  <Standard Type>  (149) 
nan

>  <Standard Relation>  (149) 
nan

>  <Standard Units>  (149) 
nan

>  <Standard Value>  (149) 
nan

>  <Assay ChEMBL ID>  (149) 
nan

>  <Assay Description>  (149) 
nan

>  <BAO Label>  (149) 
nan

$$$$

     RDKit          2D

 26 29  0  0  0  0  0  0  0  0999 V2000
    0.7500   -3.8971    0.0000 C   0  0  0  0  0  0  0  0  0  0  0  0
    1.5000   -2.5981    0.0000 C   0  0  0  0  0  0  0  0  0  0  0  0
    3.0000   -2.5981    0.0000 C   0  0  0  0  0  0  0  0  0  0  0  0
    3.7500   -1.2990    0.0000 O   0  0  0  0  0  0  0  0  0  0  0  0
    3.7500   -3.8971    0.0000 N   0  0  0  0  0  0  0  0  0  0  0  0
    5.2500   -3.8971    0.0000 C   0  0  0  0  0  0  0  0  0  0  0  0
    6.1317   -2.6836    0.0000 C   0  0  0  0  0  0  0  0  0  0  0  0
    7.5583   -3.1471    0.0000 C   0  0  0  0  0  0  0  0  0  0  0  0
    8.7718   -2.2654    0.0000 C   0  0  0  0  0  0  0  0  0  0  0  0
    9.3819   -0.8951    0.0000 C   0  0  0  0  0  0  0  0  0  0  0  0
   10.2636   -2.1086    0.0000 C   0  0  0  0  0  0  0  0  0  0  0  0
    7.5583   -4.6471    0.0000 N   0  0  0  0  0  0  0  0  0  0  0  0
    6.1317   -5.1106    0.0000 N   0  0  0  0  0  0  0  0  0  0  0  0
    0.7500   -1.2990    0.0000 C   0  0  0  0  0  0  0  0  0  0  0  0
    1.5000    0.0000    0.0000 C   0  0  0  0  0  0  0  0  0  0  0  0
    0.7500    1.2990    0.0000 C   0  0  0  0  0  0  0  0  0  0  0  0
   -0.7500    1.2990    0.0000 C   0  0  0  0  0  0  0  0  0  0  0  0
   -1.5000    2.5981    0.0000 N   0  0  0  0  0  0  0  0  0  0  0  0
   -2.9918    2.7549    0.0000 C   0  0  0  0  0  0  0  0  0  0  0  0
   -3.3037    4.2221    0.0000 C   0  0  0  0  0  0  0  0  0  0  0  0
   -2.0046    4.9721    0.0000 C   0  0  0  0  0  0  0  0  0  0  0  0
   -0.8899    3.9684    0.0000 S   0  0  0  0  0  0  0  0  0  0  0  0
   -0.0082    5.1819    0.0000 O   0  0  0  0  0  0  0  0  0  0  0  0
    0.4091    3.2184    0.0000 O   0  0  0  0  0  0  0  0  0  0  0  0
   -1.5000    0.0000    0.0000 C   0  0  0  0  0  0  0  0  0  0  0  0
   -0.7500   -1.2990    0.0000 C   0  0  0  0  0  0  0  0  0  0  0  0
  1  2  1  0
  2  3  1  0
  3  4  2  0
  3  5  1  0
  5  6  1  0
  6  7  1  0
  7  8  2  0
  8  9  1  0
  9 10  1  0
 10 11  1  0
  8 12  1  0
 12 13  1  0
  2 14  1  0
 14 15  2  0
 15 16  1  0
 16 17  2  0
 17 18  1  0
 18 19  1  0
 19 20  1  0
 20 21  1  0
 21 22  1  0
 22 23  2  0
 22 24  2  0
 17 25  1  0
 25 26  2  0
 13  6  2  0
 26 14  1  0
 11  9  1  0
 22 18  1  0
M  END
>  <Compound_ID>  (150) 
CHEMBL370724

>  <Active>  (150) 
1.0

>  <Smiles>  (150) 
CC(C(=O)Nc1cc(C2CC2)[nH]n1)c1ccc(N2CCCS2(=O)=O)cc1

>  <canonical_smi>  (150) 
CC(C(=O)Nc1cc(C2CC2)[nH]n1)c1ccc(N2CCCS2(=O)=O)cc1

>  <Set>  (150) 
G2 active

>  <Set_type>  (150) 
Train

>  <MW>  (150) 
374.47

>  <HBD>  (150) 
2

>  <HBA>  (150) 
4

>  <NRB>  (150) 
5

>  <NR>  (150) 
4

>  <NAR>  (150) 
2

>  <PSA>  (150) 
95.16

>  <Standard Type>  (150) 
nan

>  <Standard Relation>  (150) 
nan

>  <Standard Units>  (150) 
nan

>  <Standard Value>  (150) 
nan

>  <Assay ChEMBL ID>  (150) 
nan

>  <Assay Description>  (150) 
nan

>  <BAO Label>  (150) 
nan

$$$$

     RDKit          2D

 29 32  0  0  0  0  0  0  0  0999 V2000
  -10.0849   -6.9740    0.0000 N   0  0  0  0  0  0  0  0  0  0  0  0
   -8.6583   -6.5105    0.0000 S   0  0  0  0  0  0  0  0  0  0  0  0
   -9.1218   -5.0839    0.0000 O   0  0  0  0  0  0  0  0  0  0  0  0
   -8.1948   -7.9371    0.0000 O   0  0  0  0  0  0  0  0  0  0  0  0
   -7.2317   -6.0469    0.0000 C   0  0  0  0  0  0  0  0  0  0  0  0
   -6.9199   -4.5797    0.0000 C   0  0  0  0  0  0  0  0  0  0  0  0
   -5.4933   -4.1162    0.0000 C   0  0  0  0  0  0  0  0  0  0  0  0
   -4.3786   -5.1199    0.0000 C   0  0  0  0  0  0  0  0  0  0  0  0
   -2.9520   -4.6564    0.0000 N   0  0  0  0  0  0  0  0  0  0  0  0
   -2.6401   -3.1891    0.0000 N   0  0  0  0  0  0  0  0  0  0  0  0
   -1.2135   -2.7256    0.0000 C   0  0  0  0  0  0  0  0  0  0  0  0
   -0.0000   -3.6073    0.0000 C   0  0  0  0  0  0  0  0  0  0  0  0
    0.0000   -5.1073    0.0000 O   0  0  0  0  0  0  0  0  0  0  0  0
    1.2135   -2.7256    0.0000 N   0  0  0  0  0  0  0  0  0  0  0  0
    0.7500   -1.2990    0.0000 C   0  0  0  0  0  0  0  0  0  0  0  0
    1.5000    0.0000    0.0000 C   0  0  0  0  0  0  0  0  0  0  0  0
    0.7500    1.2990    0.0000 C   0  0  0  0  0  0  0  0  0  0  0  0
   -0.7500    1.2990    0.0000 C   0  0  0  0  0  0  0  0  0  0  0  0
   -1.5000    0.0000    0.0000 C   0  0  0  0  0  0  0  0  0  0  0  0
   -3.0000    0.0000    0.0000 O   0  0  0  0  0  0  0  0  0  0  0  0
   -3.7500    1.2990    0.0000 C   0  0  0  0  0  0  0  0  0  0  0  0
   -3.0000    2.5981    0.0000 C   0  0  0  0  0  0  0  0  0  0  0  0
   -3.7500    3.8971    0.0000 C   0  0  0  0  0  0  0  0  0  0  0  0
   -5.2500    3.8971    0.0000 C   0  0  0  0  0  0  0  0  0  0  0  0
   -6.0000    2.5981    0.0000 C   0  0  0  0  0  0  0  0  0  0  0  0
   -5.2500    1.2990    0.0000 C   0  0  0  0  0  0  0  0  0  0  0  0
   -0.7500   -1.2990    0.0000 C   0  0  0  0  0  0  0  0  0  0  0  0
   -4.6904   -6.5871    0.0000 C   0  0  0  0  0  0  0  0  0  0  0  0
   -6.1170   -7.0506    0.0000 C   0  0  0  0  0  0  0  0  0  0  0  0
  1  2  1  0
  2  3  2  0
  2  4  2  0
  2  5  1  0
  5  6  2  0
  6  7  1  0
  7  8  2  0
  8  9  1  0
  9 10  2  3
 10 11  1  0
 11 12  2  0
 12 13  1  0
 12 14  1  0
 14 15  1  0
 15 16  2  0
 16 17  1  0
 17 18  2  0
 18 19  1  0
 19 20  1  0
 20 21  1  0
 21 22  2  0
 22 23  1  0
 23 24  2  0
 24 25  1  0
 25 26  2  0
 19 27  2  0
  8 28  1  0
 28 29  2  0
 29  5  1  0
 27 11  1  0
 27 15  1  0
 26 21  1  0
M  END
>  <Compound_ID>  (151) 
CHEMBL87735

>  <Active>  (151) 
1.0

>  <Smiles>  (151) 
NS(=O)(=O)c1ccc(N=Nc2c(O)[nH]c3cccc(Oc4ccccc4)c23)cc1

>  <canonical_smi>  (151) 
NS(=O)(=O)c1ccc(N=Nc2c(O)[nH]c3cccc(Oc4ccccc4)c23)cc1

>  <Set>  (151) 
G2 active

>  <Set_type>  (151) 
Train

>  <MW>  (151) 
408.44

>  <HBD>  (151) 
3

>  <HBA>  (151) 
4

>  <NRB>  (151) 
5

>  <NR>  (151) 
4

>  <NAR>  (151) 
4

>  <PSA>  (151) 
130.13

>  <Standard Type>  (151) 
nan

>  <Standard Relation>  (151) 
nan

>  <Standard Units>  (151) 
nan

>  <Standard Value>  (151) 
nan

>  <Assay ChEMBL ID>  (151) 
nan

>  <Assay Description>  (151) 
nan

>  <BAO Label>  (151) 
nan

$$$$

     RDKit          2D

 29 32  0  0  0  0  0  0  0  0999 V2000
  -10.0849   -6.9740    0.0000 N   0  0  0  0  0  0  0  0  0  0  0  0
   -8.6583   -6.5105    0.0000 S   0  0  0  0  0  0  0  0  0  0  0  0
   -9.1218   -5.0839    0.0000 O   0  0  0  0  0  0  0  0  0  0  0  0
   -8.1948   -7.9371    0.0000 O   0  0  0  0  0  0  0  0  0  0  0  0
   -7.2317   -6.0469    0.0000 C   0  0  0  0  0  0  0  0  0  0  0  0
   -6.9199   -4.5797    0.0000 C   0  0  0  0  0  0  0  0  0  0  0  0
   -5.4933   -4.1162    0.0000 C   0  0  0  0  0  0  0  0  0  0  0  0
   -4.3786   -5.1199    0.0000 C   0  0  0  0  0  0  0  0  0  0  0  0
   -2.9520   -4.6564    0.0000 N   0  0  0  0  0  0  0  0  0  0  0  0
   -2.6401   -3.1891    0.0000 N   0  0  0  0  0  0  0  0  0  0  0  0
   -1.2135   -2.7256    0.0000 C   0  0  0  0  0  0  0  0  0  0  0  0
   -0.0000   -3.6073    0.0000 C   0  0  0  0  0  0  0  0  0  0  0  0
    0.0000   -5.1073    0.0000 O   0  0  0  0  0  0  0  0  0  0  0  0
    1.2135   -2.7256    0.0000 N   0  0  0  0  0  0  0  0  0  0  0  0
    0.7500   -1.2990    0.0000 C   0  0  0  0  0  0  0  0  0  0  0  0
    1.5000    0.0000    0.0000 C   0  0  0  0  0  0  0  0  0  0  0  0
    0.7500    1.2990    0.0000 C   0  0  0  0  0  0  0  0  0  0  0  0
   -0.7500    1.2990    0.0000 C   0  0  0  0  0  0  0  0  0  0  0  0
   -1.5000    0.0000    0.0000 C   0  0  0  0  0  0  0  0  0  0  0  0
   -3.0000    0.0000    0.0000 O   0  0  0  0  0  0  0  0  0  0  0  0
   -3.7500    1.2990    0.0000 C   0  0  0  0  0  0  0  0  0  0  0  0
   -3.0000    2.5981    0.0000 C   0  0  0  0  0  0  0  0  0  0  0  0
   -3.7500    3.8971    0.0000 C   0  0  0  0  0  0  0  0  0  0  0  0
   -5.2500    3.8971    0.0000 C   0  0  0  0  0  0  0  0  0  0  0  0
   -6.0000    2.5981    0.0000 C   0  0  0  0  0  0  0  0  0  0  0  0
   -5.2500    1.2990    0.0000 C   0  0  0  0  0  0  0  0  0  0  0  0
   -0.7500   -1.2990    0.0000 C   0  0  0  0  0  0  0  0  0  0  0  0
   -4.6904   -6.5871    0.0000 C   0  0  0  0  0  0  0  0  0  0  0  0
   -6.1170   -7.0506    0.0000 C   0  0  0  0  0  0  0  0  0  0  0  0
  1  2  1  0
  2  3  2  0
  2  4  2  0
  2  5  1  0
  5  6  2  0
  6  7  1  0
  7  8  2  0
  8  9  1  0
  9 10  1  0
 10 11  2  0
 11 12  1  0
 12 13  2  0
 12 14  1  0
 14 15  1  0
 15 16  2  0
 16 17  1  0
 17 18  2  0
 18 19  1  0
 19 20  1  0
 20 21  1  0
 21 22  2  0
 22 23  1  0
 23 24  2  0
 24 25  1  0
 25 26  2  0
 19 27  2  0
  8 28  1  0
 28 29  2  0
 29  5  1  0
 27 11  1  0
 27 15  1  0
 26 21  1  0
M  END
>  <Compound_ID>  (152) 
CHEMBL409104

>  <Active>  (152) 
1.0

>  <Smiles>  (152) 
NS(=O)(=O)c1ccc(N/N=C2\C(=O)Nc3cccc(Oc4ccccc4)c32)cc1

>  <canonical_smi>  (152) 
NS(=O)(=O)c1ccc(N/N=C2\C(=O)Nc3cccc(Oc4ccccc4)c32)cc1

>  <Set>  (152) 
G2 active

>  <Set_type>  (152) 
Train

>  <MW>  (152) 
408.44

>  <HBD>  (152) 
3

>  <HBA>  (152) 
5

>  <NRB>  (152) 
5

>  <NR>  (152) 
4

>  <NAR>  (152) 
3

>  <PSA>  (152) 
122.88

>  <Standard Type>  (152) 
nan

>  <Standard Relation>  (152) 
nan

>  <Standard Units>  (152) 
nan

>  <Standard Value>  (152) 
nan

>  <Assay ChEMBL ID>  (152) 
nan

>  <Assay Description>  (152) 
nan

>  <BAO Label>  (152) 
nan

$$$$

     RDKit          2D

 31 34  0  0  0  0  0  0  0  0999 V2000
    1.8478   -6.4639    0.0000 C   0  0  0  0  0  0  0  0  0  0  0  0
    2.0046   -4.9721    0.0000 C   0  0  0  0  0  0  0  0  0  0  0  0
    3.3037   -4.2221    0.0000 N   0  0  0  0  0  0  0  0  0  0  0  0
    2.9918   -2.7549    0.0000 C   0  0  0  0  0  0  0  0  0  0  0  0
    1.5000   -2.5981    0.0000 C   0  0  0  0  0  0  0  0  0  0  0  0
    0.7500   -1.2990    0.0000 C   0  0  0  0  0  0  0  0  0  0  0  0
    1.5000    0.0000    0.0000 C   0  0  0  0  0  0  0  0  0  0  0  0
    0.7500    1.2990    0.0000 C   0  0  0  0  0  0  0  0  0  0  0  0
   -0.7500    1.2990    0.0000 N   0  0  0  0  0  0  0  0  0  0  0  0
   -1.5000    0.0000    0.0000 C   0  0  0  0  0  0  0  0  0  0  0  0
   -3.0000    0.0000    0.0000 N   0  0  0  0  0  0  0  0  0  0  0  0
   -3.7500    1.2990    0.0000 C   0  0  0  0  0  0  0  0  0  0  0  0
   -3.0000    2.5981    0.0000 C   0  0  0  0  0  0  0  0  0  0  0  0
   -3.7500    3.8971    0.0000 C   0  0  0  0  0  0  0  0  0  0  0  0
   -5.2500    3.8971    0.0000 C   0  0  0  0  0  0  0  0  0  0  0  0
   -6.0000    5.1962    0.0000 S   0  0  0  0  0  0  0  0  0  0  0  0
   -7.2990    4.4462    0.0000 O   0  0  0  0  0  0  0  0  0  0  0  0
   -4.7010    5.9462    0.0000 O   0  0  0  0  0  0  0  0  0  0  0  0
   -6.7500    6.4952    0.0000 C   0  0  0  0  0  0  0  0  0  0  0  0
   -8.2500    6.4952    0.0000 C   0  0  0  0  0  0  0  0  0  0  0  0
   -9.1317    5.2817    0.0000 C   0  0  0  0  0  0  0  0  0  0  0  0
  -10.5583    5.7452    0.0000 C   0  0  0  0  0  0  0  0  0  0  0  0
  -10.5583    7.2452    0.0000 C   0  0  0  0  0  0  0  0  0  0  0  0
   -9.1317    7.7087    0.0000 O   0  0  0  0  0  0  0  0  0  0  0  0
   -6.0000    2.5981    0.0000 C   0  0  0  0  0  0  0  0  0  0  0  0
   -5.2500    1.2990    0.0000 C   0  0  0  0  0  0  0  0  0  0  0  0
   -0.7500   -1.2990    0.0000 N   0  0  0  0  0  0  0  0  0  0  0  0
    0.8899   -3.9684    0.0000 N   0  0  0  0  0  0  0  0  0  0  0  0
   -0.5773   -4.2803    0.0000 C   0  0  0  0  0  0  0  0  0  0  0  0
   -1.0409   -5.7068    0.0000 C   0  0  0  0  0  0  0  0  0  0  0  0
   -1.5810   -3.1655    0.0000 C   0  0  0  0  0  0  0  0  0  0  0  0
  1  2  1  0
  2  3  2  0
  3  4  1  0
  4  5  2  0
  5  6  1  0
  6  7  2  0
  7  8  1  0
  8  9  2  0
  9 10  1  0
 10 11  1  0
 11 12  1  0
 12 13  2  0
 13 14  1  0
 14 15  2  0
 15 16  1  0
 16 17  2  0
 16 18  2  0
 16 19  1  0
 19 20  1  0
 20 21  1  0
 21 22  1  0
 22 23  1  0
 23 24  1  0
 15 25  1  0
 25 26  2  0
 10 27  2  0
  5 28  1  0
 28 29  1  0
 29 30  1  0
 29 31  1  0
 28  2  1  0
 27  6  1  0
 26 12  1  0
 24 20  1  0
M  END
>  <Compound_ID>  (153) 
CHEMBL515839

>  <Active>  (153) 
1.0

>  <Smiles>  (153) 
Cc1ncc(-c2ccnc(Nc3ccc(S(=O)(=O)CC4CCCO4)cc3)n2)n1C(C)C

>  <canonical_smi>  (153) 
Cc1ncc(-c2ccnc(Nc3ccc(S(=O)(=O)CC4CCCO4)cc3)n2)n1C(C)C

>  <Set>  (153) 
G2 active

>  <Set_type>  (153) 
Train

>  <MW>  (153) 
441.56

>  <HBD>  (153) 
1

>  <HBA>  (153) 
7

>  <NRB>  (153) 
7

>  <NR>  (153) 
4

>  <NAR>  (153) 
3

>  <PSA>  (153) 
99.0

>  <Standard Type>  (153) 
nan

>  <Standard Relation>  (153) 
nan

>  <Standard Units>  (153) 
nan

>  <Standard Value>  (153) 
nan

>  <Assay ChEMBL ID>  (153) 
nan

>  <Assay Description>  (153) 
nan

>  <BAO Label>  (153) 
nan

$$$$

     RDKit          2D

 26 30  0  0  0  0  0  0  0  0999 V2000
  -10.9763   -5.5304    0.0000 O   0  0  0  0  0  0  0  0  0  0  0  0
  -10.5128   -4.1039    0.0000 S   0  0  0  0  0  0  0  0  0  0  0  0
  -11.9800   -3.7920    0.0000 O   0  0  0  0  0  0  0  0  0  0  0  0
   -9.1425   -4.7140    0.0000 C   0  0  0  0  0  0  0  0  0  0  0  0
   -8.1388   -3.5992    0.0000 C   0  0  0  0  0  0  0  0  0  0  0  0
   -6.6388   -3.5992    0.0000 C   0  0  0  0  0  0  0  0  0  0  0  0
   -5.8888   -2.3002    0.0000 C   0  0  0  0  0  0  0  0  0  0  0  0
   -6.6388   -1.0012    0.0000 C   0  0  0  0  0  0  0  0  0  0  0  0
   -5.8888    0.2979    0.0000 N   0  0  0  0  0  0  0  0  0  0  0  0
   -4.3888    0.2979    0.0000 C   0  0  0  0  0  0  0  0  0  0  0  0
   -3.6388    1.5969    0.0000 C   0  0  0  0  0  0  0  0  0  0  0  0
   -4.2489    2.9672    0.0000 C   0  0  0  0  0  0  0  0  0  0  0  0
   -5.7161    3.2791    0.0000 O   0  0  0  0  0  0  0  0  0  0  0  0
   -3.1342    3.9709    0.0000 N   0  0  0  0  0  0  0  0  0  0  0  0
   -1.8351    3.2209    0.0000 C   0  0  0  0  0  0  0  0  0  0  0  0
   -0.4086    3.6844    0.0000 C   0  0  0  0  0  0  0  0  0  0  0  0
    0.7062    2.6807    0.0000 C   0  0  0  0  0  0  0  0  0  0  0  0
    0.3943    1.2135    0.0000 C   0  0  0  0  0  0  0  0  0  0  0  0
    1.2760    0.0000    0.0000 N   0  0  0  0  0  0  0  0  0  0  0  0
    0.3943   -1.2135    0.0000 C   0  0  0  0  0  0  0  0  0  0  0  0
   -1.0323   -0.7500    0.0000 S   0  0  0  0  0  0  0  0  0  0  0  0
   -1.0323    0.7500    0.0000 C   0  0  0  0  0  0  0  0  0  0  0  0
   -2.1470    1.7537    0.0000 C   0  0  0  0  0  0  0  0  0  0  0  0
   -8.1388   -1.0012    0.0000 C   0  0  0  0  0  0  0  0  0  0  0  0
   -8.8888   -2.3002    0.0000 C   0  0  0  0  0  0  0  0  0  0  0  0
  -10.3560   -2.6121    0.0000 C   0  0  0  0  0  0  0  0  0  0  0  0
  1  2  2  0
  2  3  2  0
  2  4  1  0
  4  5  1  0
  5  6  2  0
  6  7  1  0
  7  8  2  0
  8  9  1  0
  9 10  2  0
 10 11  1  0
 11 12  2  0
 12 13  1  0
 12 14  1  0
 14 15  1  0
 15 16  2  0
 16 17  1  0
 17 18  2  0
 18 19  1  0
 19 20  2  0
 20 21  1  0
 21 22  1  0
 22 23  2  0
  8 24  1  0
 24 25  2  0
 25 26  1  0
 26  2  1  0
 25  5  1  0
 23 11  1  0
 23 15  1  0
 22 18  1  0
M  END
>  <Compound_ID>  (154) 
CHEMBL336016

>  <Active>  (154) 
1.0

>  <Smiles>  (154) 
O=S1(=O)Cc2ccc(/N=C/c3c(O)[nH]c4ccc5ncsc5c34)cc2C1

>  <canonical_smi>  (154) 
O=S1(=O)Cc2ccc(/N=C/c3c(O)[nH]c4ccc5ncsc5c34)cc2C1

>  <Set>  (154) 
G2 active

>  <Set_type>  (154) 
Train

>  <MW>  (154) 
383.45

>  <HBD>  (154) 
2

>  <HBA>  (154) 
4

>  <NRB>  (154) 
2

>  <NR>  (154) 
5

>  <NAR>  (154) 
4

>  <PSA>  (154) 
95.41

>  <Standard Type>  (154) 
nan

>  <Standard Relation>  (154) 
nan

>  <Standard Units>  (154) 
nan

>  <Standard Value>  (154) 
nan

>  <Assay ChEMBL ID>  (154) 
nan

>  <Assay Description>  (154) 
nan

>  <BAO Label>  (154) 
nan

$$$$

     RDKit          2D

 32 36  0  0  0  0  0  0  0  0999 V2000
   -1.8373   -5.6601    0.0000 O   0  0  0  0  0  0  0  0  0  0  0  0
   -2.9520   -4.6564    0.0000 C   0  0  0  0  0  0  0  0  0  0  0  0
   -4.3786   -5.1199    0.0000 C   0  0  0  0  0  0  0  0  0  0  0  0
   -4.6904   -6.5871    0.0000 C   0  0  0  0  0  0  0  0  0  0  0  0
   -6.1170   -7.0506    0.0000 C   0  0  0  0  0  0  0  0  0  0  0  0
   -6.4289   -8.5179    0.0000 C   0  0  0  0  0  0  0  0  0  0  0  0
   -5.3142   -9.5216    0.0000 C   0  0  0  0  0  0  0  0  0  0  0  0
   -5.6260  -10.9888    0.0000 C   0  0  0  0  0  0  0  0  0  0  0  0
   -7.0526  -11.4523    0.0000 C   0  0  0  0  0  0  0  0  0  0  0  0
   -7.3645  -12.9195    0.0000 C   0  0  0  0  0  0  0  0  0  0  0  0
   -6.2498  -13.9232    0.0000 C   0  0  0  0  0  0  0  0  0  0  0  0
   -4.8232  -13.4597    0.0000 C   0  0  0  0  0  0  0  0  0  0  0  0
   -4.5113  -11.9925    0.0000 C   0  0  0  0  0  0  0  0  0  0  0  0
   -3.8876   -9.0580    0.0000 C   0  0  0  0  0  0  0  0  0  0  0  0
   -3.5757   -7.5908    0.0000 C   0  0  0  0  0  0  0  0  0  0  0  0
   -2.6401   -3.1891    0.0000 N   0  0  0  0  0  0  0  0  0  0  0  0
   -1.2135   -2.7256    0.0000 C   0  0  0  0  0  0  0  0  0  0  0  0
   -0.0000   -3.6073    0.0000 N   0  0  0  0  0  0  0  0  0  0  0  0
    1.2135   -2.7256    0.0000 N   0  0  0  0  0  0  0  0  0  0  0  0
    0.7500   -1.2990    0.0000 C   0  0  0  0  0  0  0  0  0  0  0  0
    1.5000    0.0000    0.0000 C   0  0  0  0  0  0  0  0  0  0  0  0
    0.7500    1.2990    0.0000 C   0  0  0  0  0  0  0  0  0  0  0  0
   -0.7500    1.2990    0.0000 C   0  0  0  0  0  0  0  0  0  0  0  0
   -1.5000    2.5981    0.0000 N   0  0  0  0  0  0  0  0  0  0  0  0
   -2.9918    2.7549    0.0000 C   0  0  0  0  0  0  0  0  0  0  0  0
   -3.3037    4.2221    0.0000 C   0  0  0  0  0  0  0  0  0  0  0  0
   -2.0046    4.9721    0.0000 C   0  0  0  0  0  0  0  0  0  0  0  0
   -0.8899    3.9684    0.0000 S   0  0  0  0  0  0  0  0  0  0  0  0
   -0.0082    5.1819    0.0000 O   0  0  0  0  0  0  0  0  0  0  0  0
    0.4091    3.2184    0.0000 O   0  0  0  0  0  0  0  0  0  0  0  0
   -1.5000    0.0000    0.0000 C   0  0  0  0  0  0  0  0  0  0  0  0
   -0.7500   -1.2990    0.0000 C   0  0  0  0  0  0  0  0  0  0  0  0
  1  2  2  0
  2  3  1  0
  3  4  1  0
  4  5  2  0
  5  6  1  0
  6  7  2  0
  7  8  1  0
  8  9  2  0
  9 10  1  0
 10 11  2  0
 11 12  1  0
 12 13  2  0
  7 14  1  0
 14 15  2  0
  2 16  1  0
 16 17  1  0
 17 18  2  0
 18 19  1  0
 19 20  1  0
 20 21  2  0
 21 22  1  0
 22 23  2  0
 23 24  1  0
 24 25  1  0
 25 26  1  0
 26 27  1  0
 27 28  1  0
 28 29  2  0
 28 30  2  0
 23 31  1  0
 31 32  2  0
 15  4  1  0
 32 17  1  0
 13  8  1  0
 32 20  1  0
 28 24  1  0
M  END
>  <Compound_ID>  (155) 
CHEMBL402759

>  <Active>  (155) 
1.0

>  <Smiles>  (155) 
O=C(Cc1ccc(-c2ccccc2)cc1)Nc1n[nH]c2ccc(N3CCCS3(=O)=O)cc12

>  <canonical_smi>  (155) 
O=C(Cc1ccc(-c2ccccc2)cc1)Nc1n[nH]c2ccc(N3CCCS3(=O)=O)cc12

>  <Set>  (155) 
G2 active

>  <Set_type>  (155) 
Train

>  <MW>  (155) 
446.53

>  <HBD>  (155) 
2

>  <HBA>  (155) 
4

>  <NRB>  (155) 
5

>  <NR>  (155) 
5

>  <NAR>  (155) 
4

>  <PSA>  (155) 
95.16

>  <Standard Type>  (155) 
nan

>  <Standard Relation>  (155) 
nan

>  <Standard Units>  (155) 
nan

>  <Standard Value>  (155) 
nan

>  <Assay ChEMBL ID>  (155) 
nan

>  <Assay Description>  (155) 
nan

>  <BAO Label>  (155) 
nan

$$$$

     RDKit          2D

 29 33  0  0  0  0  0  0  0  0999 V2000
   -2.5565   -7.4827    0.0000 N   0  0  0  0  0  0  0  0  0  0  0  0
   -1.4418   -6.4791    0.0000 C   0  0  0  0  0  0  0  0  0  0  0  0
   -0.0152   -6.9426    0.0000 O   0  0  0  0  0  0  0  0  0  0  0  0
   -1.7537   -5.0118    0.0000 C   0  0  0  0  0  0  0  0  0  0  0  0
   -3.1240   -4.4017    0.0000 N   0  0  0  0  0  0  0  0  0  0  0  0
   -2.9672   -2.9099    0.0000 N   0  0  0  0  0  0  0  0  0  0  0  0
   -4.0819   -1.9062    0.0000 C   0  0  0  0  0  0  0  0  0  0  0  0
   -3.7701   -0.4390    0.0000 C   0  0  0  0  0  0  0  0  0  0  0  0
   -4.8848    0.5647    0.0000 C   0  0  0  0  0  0  0  0  0  0  0  0
   -6.3114    0.1011    0.0000 C   0  0  0  0  0  0  0  0  0  0  0  0
   -6.6232   -1.3661    0.0000 C   0  0  0  0  0  0  0  0  0  0  0  0
   -5.5085   -2.3698    0.0000 C   0  0  0  0  0  0  0  0  0  0  0  0
   -1.5000   -2.5981    0.0000 C   0  0  0  0  0  0  0  0  0  0  0  0
   -0.7500   -3.8971    0.0000 C   0  0  0  0  0  0  0  0  0  0  0  0
    0.7500   -3.8971    0.0000 C   0  0  0  0  0  0  0  0  0  0  0  0
    1.5000   -2.5981    0.0000 C   0  0  0  0  0  0  0  0  0  0  0  0
    0.7500   -1.2990    0.0000 C   0  0  0  0  0  0  0  0  0  0  0  0
    1.5000    0.0000    0.0000 C   0  0  0  0  0  0  0  0  0  0  0  0
    0.7500    1.2990    0.0000 N   0  0  0  0  0  0  0  0  0  0  0  0
   -0.7500    1.2990    0.0000 C   0  0  0  0  0  0  0  0  0  0  0  0
   -1.5000    2.5981    0.0000 N   0  0  0  0  0  0  0  0  0  0  0  0
   -0.7500    3.8971    0.0000 C   0  0  0  0  0  0  0  0  0  0  0  0
    0.7500    3.8971    0.0000 C   0  0  0  0  0  0  0  0  0  0  0  0
    1.5000    5.1962    0.0000 C   0  0  0  0  0  0  0  0  0  0  0  0
    0.7500    6.4952    0.0000 C   0  0  0  0  0  0  0  0  0  0  0  0
   -0.7500    6.4952    0.0000 C   0  0  0  0  0  0  0  0  0  0  0  0
   -1.5000    5.1962    0.0000 C   0  0  0  0  0  0  0  0  0  0  0  0
   -1.5000    0.0000    0.0000 N   0  0  0  0  0  0  0  0  0  0  0  0
   -0.7500   -1.2990    0.0000 C   0  0  0  0  0  0  0  0  0  0  0  0
  1  2  1  0
  2  3  2  0
  2  4  1  0
  4  5  2  0
  5  6  1  0
  6  7  1  0
  7  8  2  0
  8  9  1  0
  9 10  2  0
 10 11  1  0
 11 12  2  0
  6 13  1  0
 13 14  2  0
 14 15  1  0
 15 16  1  0
 16 17  1  0
 17 18  2  0
 18 19  1  0
 19 20  2  0
 20 21  1  0
 21 22  1  0
 22 23  2  0
 23 24  1  0
 24 25  2  0
 25 26  1  0
 26 27  2  0
 20 28  1  0
 28 29  2  0
 14  4  1  0
 29 17  1  0
 12  7  1  0
 29 13  1  0
 27 22  1  0
M  END
>  <Compound_ID>  (156) 
CHEMBL1094400

>  <Active>  (156) 
1.0

>  <Smiles>  (156) 
NC(=O)c1nn(-c2ccccc2)c2c1CCc1cnc(Nc3ccccc3)nc1-2

>  <canonical_smi>  (156) 
NC(=O)c1nn(-c2ccccc2)c2c1CCc1cnc(Nc3ccccc3)nc1-2

>  <Set>  (156) 
G2 active

>  <Set_type>  (156) 
Train

>  <MW>  (156) 
382.43

>  <HBD>  (156) 
2

>  <HBA>  (156) 
5

>  <NRB>  (156) 
4

>  <NR>  (156) 
5

>  <NAR>  (156) 
4

>  <PSA>  (156) 
98.72

>  <Standard Type>  (156) 
nan

>  <Standard Relation>  (156) 
nan

>  <Standard Units>  (156) 
nan

>  <Standard Value>  (156) 
nan

>  <Assay ChEMBL ID>  (156) 
nan

>  <Assay Description>  (156) 
nan

>  <BAO Label>  (156) 
nan

$$$$

     RDKit          2D

 23 26  0  0  0  0  0  0  0  0999 V2000
   -0.0000   -5.1073    0.0000 C   0  0  0  0  0  0  0  0  0  0  0  0
   -0.0000   -3.6073    0.0000 C   0  0  0  0  0  0  0  0  0  0  0  0
    1.2135   -2.7256    0.0000 N   0  0  0  0  0  0  0  0  0  0  0  0
    0.7500   -1.2990    0.0000 C   0  0  0  0  0  0  0  0  0  0  0  0
    1.5000    0.0000    0.0000 C   0  0  0  0  0  0  0  0  0  0  0  0
    0.7500    1.2990    0.0000 C   0  0  0  0  0  0  0  0  0  0  0  0
   -0.7500    1.2990    0.0000 C   0  0  0  0  0  0  0  0  0  0  0  0
   -1.5000    2.5981    0.0000 C   0  0  0  0  0  0  0  0  0  0  0  0
   -0.7500    3.8971    0.0000 C   0  0  0  0  0  0  0  0  0  0  0  0
    0.7500    3.8971    0.0000 O   0  0  0  0  0  0  0  0  0  0  0  0
   -1.5000    5.1962    0.0000 N   0  0  0  0  0  0  0  0  0  0  0  0
   -0.7500    6.4952    0.0000 C   0  0  0  0  0  0  0  0  0  0  0  0
   -1.3601    7.8655    0.0000 N   0  0  0  0  0  0  0  0  0  0  0  0
   -0.2454    8.8692    0.0000 C   0  0  0  0  0  0  0  0  0  0  0  0
    1.0537    8.1192    0.0000 C   0  0  0  0  0  0  0  0  0  0  0  0
    2.4240    8.7293    0.0000 C   0  0  0  0  0  0  0  0  0  0  0  0
    3.8243    8.1918    0.0000 C   0  0  0  0  0  0  0  0  0  0  0  0
    4.3619    9.5921    0.0000 C   0  0  0  0  0  0  0  0  0  0  0  0
    2.9615   10.1297    0.0000 C   0  0  0  0  0  0  0  0  0  0  0  0
    0.7418    6.6520    0.0000 S   0  0  0  0  0  0  0  0  0  0  0  0
   -1.5000    0.0000    0.0000 C   0  0  0  0  0  0  0  0  0  0  0  0
   -0.7500   -1.2990    0.0000 C   0  0  0  0  0  0  0  0  0  0  0  0
   -1.2135   -2.7256    0.0000 S   0  0  0  0  0  0  0  0  0  0  0  0
  1  2  1  0
  2  3  2  0
  3  4  1  0
  4  5  2  0
  5  6  1  0
  6  7  2  0
  7  8  1  0
  8  9  1  0
  9 10  2  0
  9 11  1  0
 11 12  1  0
 12 13  2  0
 13 14  1  0
 14 15  2  0
 15 16  1  0
 16 17  1  0
 17 18  1  0
 18 19  1  0
 15 20  1  0
  7 21  1  0
 21 22  2  0
 22 23  1  0
 23  2  1  0
 22  4  1  0
 20 12  1  0
 19 16  1  0
M  END
>  <Compound_ID>  (157) 
CHEMBL186470

>  <Active>  (157) 
1.0

>  <Smiles>  (157) 
Cc1nc2ccc(CC(=O)Nc3ncc(C4CCC4)s3)cc2s1

>  <canonical_smi>  (157) 
Cc1nc2ccc(CC(=O)Nc3ncc(C4CCC4)s3)cc2s1

>  <Set>  (157) 
G2 active

>  <Set_type>  (157) 
Train

>  <MW>  (157) 
343.48

>  <HBD>  (157) 
1

>  <HBA>  (157) 
3

>  <NRB>  (157) 
4

>  <NR>  (157) 
4

>  <NAR>  (157) 
3

>  <PSA>  (157) 
54.88

>  <Standard Type>  (157) 
nan

>  <Standard Relation>  (157) 
nan

>  <Standard Units>  (157) 
nan

>  <Standard Value>  (157) 
nan

>  <Assay ChEMBL ID>  (157) 
nan

>  <Assay Description>  (157) 
nan

>  <BAO Label>  (157) 
nan

$$$$

     RDKit          2D

 37 41  0  0  0  0  0  0  0  0999 V2000
   -1.2599    9.5523    0.0000 C   0  0  0  0  0  0  0  0  0  0  0  0
   -1.5718    8.0851    0.0000 O   0  0  0  0  0  0  0  0  0  0  0  0
   -2.9983    7.6216    0.0000 C   0  0  0  0  0  0  0  0  0  0  0  0
   -3.3102    6.1544    0.0000 C   0  0  0  0  0  0  0  0  0  0  0  0
   -4.7368    5.6908    0.0000 N   0  0  0  0  0  0  0  0  0  0  0  0
   -5.0487    4.2236    0.0000 S   0  0  0  0  0  0  0  0  0  0  0  0
   -6.5159    4.5355    0.0000 O   0  0  0  0  0  0  0  0  0  0  0  0
   -3.5814    3.9117    0.0000 O   0  0  0  0  0  0  0  0  0  0  0  0
   -5.3605    2.7564    0.0000 C   0  0  0  0  0  0  0  0  0  0  0  0
   -4.2458    1.7527    0.0000 C   0  0  0  0  0  0  0  0  0  0  0  0
   -4.5577    0.2855    0.0000 C   0  0  0  0  0  0  0  0  0  0  0  0
   -5.9843   -0.1781    0.0000 C   0  0  0  0  0  0  0  0  0  0  0  0
   -6.2961   -1.6453    0.0000 N   0  0  0  0  0  0  0  0  0  0  0  0
   -5.1814   -2.6490    0.0000 C   0  0  0  0  0  0  0  0  0  0  0  0
   -5.4933   -4.1162    0.0000 N   0  0  0  0  0  0  0  0  0  0  0  0
   -4.3786   -5.1199    0.0000 C   0  0  0  0  0  0  0  0  0  0  0  0
   -2.9520   -4.6564    0.0000 C   0  0  0  0  0  0  0  0  0  0  0  0
   -2.6401   -3.1891    0.0000 C   0  0  0  0  0  0  0  0  0  0  0  0
   -1.2135   -2.7256    0.0000 C   0  0  0  0  0  0  0  0  0  0  0  0
   -0.0000   -3.6073    0.0000 C   0  0  0  0  0  0  0  0  0  0  0  0
    1.2135   -2.7256    0.0000 N   0  0  0  0  0  0  0  0  0  0  0  0
    0.7500   -1.2990    0.0000 C   0  0  0  0  0  0  0  0  0  0  0  0
    1.5000    0.0000    0.0000 C   0  0  0  0  0  0  0  0  0  0  0  0
    0.7500    1.2990    0.0000 C   0  0  0  0  0  0  0  0  0  0  0  0
   -0.7500    1.2990    0.0000 C   0  0  0  0  0  0  0  0  0  0  0  0
   -1.5000    2.5981    0.0000 S   0  0  0  0  0  0  0  0  0  0  0  0
   -0.7500    3.8971    0.0000 C   0  0  0  0  0  0  0  0  0  0  0  0
    0.7500    3.8971    0.0000 C   0  0  0  0  0  0  0  0  0  0  0  0
    1.5000    5.1962    0.0000 C   0  0  0  0  0  0  0  0  0  0  0  0
    0.7500    6.4952    0.0000 C   0  0  0  0  0  0  0  0  0  0  0  0
   -0.7500    6.4952    0.0000 C   0  0  0  0  0  0  0  0  0  0  0  0
   -1.5000    5.1962    0.0000 C   0  0  0  0  0  0  0  0  0  0  0  0
   -1.5000    0.0000    0.0000 C   0  0  0  0  0  0  0  0  0  0  0  0
   -0.7500   -1.2990    0.0000 N   0  0  0  0  0  0  0  0  0  0  0  0
   -3.7548   -2.1855    0.0000 N   0  0  0  0  0  0  0  0  0  0  0  0
   -7.0990    0.8256    0.0000 C   0  0  0  0  0  0  0  0  0  0  0  0
   -6.7871    2.2929    0.0000 C   0  0  0  0  0  0  0  0  0  0  0  0
  1  2  1  0
  2  3  1  0
  3  4  1  0
  4  5  1  0
  5  6  1  0
  6  7  2  0
  6  8  2  0
  6  9  1  0
  9 10  2  0
 10 11  1  0
 11 12  2  0
 12 13  1  0
 13 14  1  0
 14 15  2  0
 15 16  1  0
 16 17  2  0
 17 18  1  0
 18 19  1  0
 19 20  2  0
 20 21  1  0
 21 22  2  0
 22 23  1  0
 23 24  2  0
 24 25  1  0
 25 26  1  0
 26 27  1  0
 27 28  2  0
 28 29  1  0
 29 30  2  0
 30 31  1  0
 31 32  2  0
 25 33  2  0
 33 34  1  0
 18 35  2  0
 12 36  1  0
 36 37  2  0
 37  9  1  0
 35 14  1  0
 34 19  1  0
 34 22  1  0
 32 27  1  0
M  END
>  <Compound_ID>  (158) 
CHEMBL307808

>  <Active>  (158) 
1.0

>  <Smiles>  (158) 
COCCNS(=O)(=O)c1ccc(Nc2nccc(-c3cnc4ccc(Sc5ccccc5)cn34)n2)cc1

>  <canonical_smi>  (158) 
COCCNS(=O)(=O)c1ccc(Nc2nccc(-c3cnc4ccc(Sc5ccccc5)cn34)n2)cc1

>  <Set>  (158) 
G2 active

>  <Set_type>  (158) 
Train

>  <MW>  (158) 
532.65

>  <HBD>  (158) 
2

>  <HBA>  (158) 
8

>  <NRB>  (158) 
10

>  <NR>  (158) 
5

>  <NAR>  (158) 
5

>  <PSA>  (158) 
110.51

>  <Standard Type>  (158) 
nan

>  <Standard Relation>  (158) 
nan

>  <Standard Units>  (158) 
nan

>  <Standard Value>  (158) 
nan

>  <Assay ChEMBL ID>  (158) 
nan

>  <Assay Description>  (158) 
nan

>  <BAO Label>  (158) 
nan

$$$$

     RDKit          2D

 31 34  0  0  0  0  0  0  0  0999 V2000
    3.0000    0.0000    0.0000 C   0  0  0  0  0  0  0  0  0  0  0  0
    1.5000    0.0000    0.0000 C   0  0  0  0  0  0  0  0  0  0  0  0
    0.7500   -1.2990    0.0000 C   0  0  0  0  0  0  0  0  0  0  0  0
   -0.7500   -1.2990    0.0000 N   0  0  0  0  0  0  0  0  0  0  0  0
   -1.5000    0.0000    0.0000 C   0  0  0  0  0  0  0  0  0  0  0  0
   -3.0000    0.0000    0.0000 N   0  0  0  0  0  0  0  0  0  0  0  0
   -3.7500    1.2990    0.0000 C   0  0  0  0  0  0  0  0  0  0  0  0
   -3.0000    2.5981    0.0000 C   0  0  0  0  0  0  0  0  0  0  0  0
   -3.7500    3.8971    0.0000 C   0  0  0  0  0  0  0  0  0  0  0  0
   -5.2500    3.8971    0.0000 C   0  0  0  0  0  0  0  0  0  0  0  0
   -6.0000    2.5981    0.0000 C   0  0  0  0  0  0  0  0  0  0  0  0
   -5.2500    1.2990    0.0000 C   0  0  0  0  0  0  0  0  0  0  0  0
   -0.7500    1.2990    0.0000 N   0  0  0  0  0  0  0  0  0  0  0  0
    0.7500    1.2990    0.0000 C   0  0  0  0  0  0  0  0  0  0  0  0
    1.5000    2.5981    0.0000 C   0  0  0  0  0  0  0  0  0  0  0  0
    0.8899    3.9684    0.0000 C   0  0  0  0  0  0  0  0  0  0  0  0
    2.0046    4.9721    0.0000 N   0  0  0  0  0  0  0  0  0  0  0  0
    3.3037    4.2221    0.0000 C   0  0  0  0  0  0  0  0  0  0  0  0
    4.6740    4.8322    0.0000 C   0  0  0  0  0  0  0  0  0  0  0  0
    4.8308    6.3240    0.0000 O   0  0  0  0  0  0  0  0  0  0  0  0
    5.8875    3.9505    0.0000 N   0  0  0  0  0  0  0  0  0  0  0  0
    7.2578    4.5606    0.0000 C   0  0  0  0  0  0  0  0  0  0  0  0
    7.4146    6.0524    0.0000 C   0  0  0  0  0  0  0  0  0  0  0  0
    8.7849    6.6625    0.0000 O   0  0  0  0  0  0  0  0  0  0  0  0
    8.4713    3.6789    0.0000 C   0  0  0  0  0  0  0  0  0  0  0  0
    8.3145    2.1872    0.0000 C   0  0  0  0  0  0  0  0  0  0  0  0
    9.5281    1.3055    0.0000 C   0  0  0  0  0  0  0  0  0  0  0  0
   10.8984    1.9156    0.0000 C   0  0  0  0  0  0  0  0  0  0  0  0
   11.0552    3.4074    0.0000 C   0  0  0  0  0  0  0  0  0  0  0  0
    9.8417    4.2890    0.0000 C   0  0  0  0  0  0  0  0  0  0  0  0
    2.9918    2.7549    0.0000 C   0  0  0  0  0  0  0  0  0  0  0  0
  1  2  1  0
  2  3  2  0
  3  4  1  0
  4  5  2  0
  5  6  1  0
  6  7  1  0
  7  8  2  0
  8  9  1  0
  9 10  2  0
 10 11  1  0
 11 12  2  0
  5 13  1  0
 13 14  2  0
 14 15  1  0
 15 16  2  0
 16 17  1  0
 17 18  1  0
 18 19  1  0
 19 20  2  0
 19 21  1  0
 21 22  1  0
 22 23  1  6
 23 24  1  0
 22 25  1  0
 25 26  2  0
 26 27  1  0
 27 28  2  0
 28 29  1  0
 29 30  2  0
 18 31  2  0
 14  2  1  0
 31 15  1  0
 12  7  1  0
 30 25  1  0
M  END
>  <Compound_ID>  (159) 
CHEMBL565459

>  <Active>  (159) 
1.0

>  <Smiles>  (159) 
Cc1cnc(Nc2ccccc2)nc1-c1c[nH]c(C(=O)N[C@H](CO)c2ccccc2)c1

>  <canonical_smi>  (159) 
Cc1cnc(Nc2ccccc2)nc1-c1c[nH]c(C(=O)N[C@H](CO)c2ccccc2)c1

>  <Set>  (159) 
G2 active

>  <Set_type>  (159) 
Train

>  <MW>  (159) 
413.48

>  <HBD>  (159) 
4

>  <HBA>  (159) 
5

>  <NRB>  (159) 
7

>  <NR>  (159) 
4

>  <NAR>  (159) 
4

>  <PSA>  (159) 
102.93

>  <Standard Type>  (159) 
nan

>  <Standard Relation>  (159) 
nan

>  <Standard Units>  (159) 
nan

>  <Standard Value>  (159) 
nan

>  <Assay ChEMBL ID>  (159) 
nan

>  <Assay Description>  (159) 
nan

>  <BAO Label>  (159) 
nan

$$$$

     RDKit          2D

 34 38  0  0  0  0  0  0  0  0999 V2000
   -1.7024   10.0935    0.0000 N   0  0  0  0  0  0  0  0  0  0  0  0
   -2.0143    8.6263    0.0000 C   0  0  0  0  0  0  0  0  0  0  0  0
   -0.8995    7.6226    0.0000 C   0  0  0  0  0  0  0  0  0  0  0  0
   -1.2114    6.1554    0.0000 C   0  0  0  0  0  0  0  0  0  0  0  0
   -2.6380    5.6918    0.0000 C   0  0  0  0  0  0  0  0  0  0  0  0
   -2.9499    4.2246    0.0000 N   0  0  0  0  0  0  0  0  0  0  0  0
   -1.8351    3.2209    0.0000 C   0  0  0  0  0  0  0  0  0  0  0  0
   -0.4086    3.6844    0.0000 C   0  0  0  0  0  0  0  0  0  0  0  0
    0.7062    2.6807    0.0000 C   0  0  0  0  0  0  0  0  0  0  0  0
    2.1328    3.1443    0.0000 N   0  0  0  0  0  0  0  0  0  0  0  0
    2.4446    4.6115    0.0000 C   0  0  0  0  0  0  0  0  0  0  0  0
    3.8712    5.0750    0.0000 C   0  0  0  0  0  0  0  0  0  0  0  0
    4.1831    6.5422    0.0000 C   0  0  0  0  0  0  0  0  0  0  0  0
    3.0684    7.5459    0.0000 C   0  0  0  0  0  0  0  0  0  0  0  0
    3.3802    9.0132    0.0000 S   0  0  0  0  0  0  0  0  0  0  0  0
    1.9130    9.3250    0.0000 O   0  0  0  0  0  0  0  0  0  0  0  0
    4.8474    8.7013    0.0000 O   0  0  0  0  0  0  0  0  0  0  0  0
    3.6921   10.4804    0.0000 C   0  0  0  0  0  0  0  0  0  0  0  0
    5.1187   10.9439    0.0000 C   0  0  0  0  0  0  0  0  0  0  0  0
    5.4305   12.4111    0.0000 C   0  0  0  0  0  0  0  0  0  0  0  0
    4.3158   13.4148    0.0000 C   0  0  0  0  0  0  0  0  0  0  0  0
    2.8892   12.9513    0.0000 C   0  0  0  0  0  0  0  0  0  0  0  0
    2.5774   11.4841    0.0000 C   0  0  0  0  0  0  0  0  0  0  0  0
    1.6418    7.0824    0.0000 C   0  0  0  0  0  0  0  0  0  0  0  0
    1.3299    5.6152    0.0000 C   0  0  0  0  0  0  0  0  0  0  0  0
    0.3943    1.2135    0.0000 N   0  0  0  0  0  0  0  0  0  0  0  0
    1.2760    0.0000    0.0000 N   0  0  0  0  0  0  0  0  0  0  0  0
    0.3943   -1.2135    0.0000 C   0  0  0  0  0  0  0  0  0  0  0  0
   -1.0323   -0.7500    0.0000 C   0  0  0  0  0  0  0  0  0  0  0  0
   -2.2458   -1.6317    0.0000 Br  0  0  0  0  0  0  0  0  0  0  0  0
   -1.0323    0.7500    0.0000 C   0  0  0  0  0  0  0  0  0  0  0  0
   -2.1470    1.7537    0.0000 N   0  0  0  0  0  0  0  0  0  0  0  0
   -3.7527    6.6955    0.0000 C   0  0  0  0  0  0  0  0  0  0  0  0
   -3.4408    8.1628    0.0000 C   0  0  0  0  0  0  0  0  0  0  0  0
  1  2  1  0
  2  3  1  0
  3  4  1  0
  4  5  1  0
  5  6  1  0
  6  7  1  0
  7  8  1  0
  8  9  2  0
  9 10  1  0
 10 11  1  0
 11 12  2  0
 12 13  1  0
 13 14  2  0
 14 15  1  0
 15 16  2  0
 15 17  2  0
 15 18  1  0
 18 19  2  0
 19 20  1  0
 20 21  2  0
 21 22  1  0
 22 23  2  0
 14 24  1  0
 24 25  2  0
  9 26  1  0
 26 27  1  0
 27 28  2  0
 28 29  1  0
 29 30  1  0
 29 31  2  0
 31 32  1  0
  5 33  1  0
 33 34  1  0
 34  2  1  0
 32  7  2  0
 25 11  1  0
 31 26  1  0
 23 18  1  0
M  END
>  <Compound_ID>  (160) 
CHEMBL361833

>  <Active>  (160) 
1.0

>  <Smiles>  (160) 
NC1CCC(Nc2cc(Nc3ccc(S(=O)(=O)c4ccccc4)cc3)n3ncc(Br)c3n2)CC1

>  <canonical_smi>  (160) 
NC1CCC(Nc2cc(Nc3ccc(S(=O)(=O)c4ccccc4)cc3)n3ncc(Br)c3n2)CC1

>  <Set>  (160) 
G2 active

>  <Set_type>  (160) 
Train

>  <MW>  (160) 
541.47

>  <HBD>  (160) 
3

>  <HBA>  (160) 
7

>  <NRB>  (160) 
6

>  <NR>  (160) 
5

>  <NAR>  (160) 
4

>  <PSA>  (160) 
114.41

>  <Standard Type>  (160) 
nan

>  <Standard Relation>  (160) 
nan

>  <Standard Units>  (160) 
nan

>  <Standard Value>  (160) 
nan

>  <Assay ChEMBL ID>  (160) 
nan

>  <Assay Description>  (160) 
nan

>  <BAO Label>  (160) 
nan

$$$$

     RDKit          2D

 28 31  0  0  0  0  0  0  0  0999 V2000
    1.8478   -6.4639    0.0000 C   0  0  0  0  0  0  0  0  0  0  0  0
    2.0046   -4.9721    0.0000 C   0  0  0  0  0  0  0  0  0  0  0  0
    3.3037   -4.2221    0.0000 N   0  0  0  0  0  0  0  0  0  0  0  0
    2.9918   -2.7549    0.0000 C   0  0  0  0  0  0  0  0  0  0  0  0
    1.5000   -2.5981    0.0000 C   0  0  0  0  0  0  0  0  0  0  0  0
    0.7500   -1.2990    0.0000 C   0  0  0  0  0  0  0  0  0  0  0  0
    1.5000    0.0000    0.0000 C   0  0  0  0  0  0  0  0  0  0  0  0
    0.7500    1.2990    0.0000 C   0  0  0  0  0  0  0  0  0  0  0  0
   -0.7500    1.2990    0.0000 N   0  0  0  0  0  0  0  0  0  0  0  0
   -1.5000    0.0000    0.0000 C   0  0  0  0  0  0  0  0  0  0  0  0
   -3.0000    0.0000    0.0000 N   0  0  0  0  0  0  0  0  0  0  0  0
   -3.7500    1.2990    0.0000 C   0  0  0  0  0  0  0  0  0  0  0  0
   -3.0000    2.5981    0.0000 C   0  0  0  0  0  0  0  0  0  0  0  0
   -3.7500    3.8971    0.0000 C   0  0  0  0  0  0  0  0  0  0  0  0
   -5.2500    3.8971    0.0000 C   0  0  0  0  0  0  0  0  0  0  0  0
   -6.0000    5.1962    0.0000 C   0  0  0  0  0  0  0  0  0  0  0  0
   -7.5000    5.1962    0.0000 O   0  0  0  0  0  0  0  0  0  0  0  0
   -5.2500    6.4952    0.0000 N   0  0  0  0  0  0  0  0  0  0  0  0
   -6.0000    7.7942    0.0000 C   0  0  0  0  0  0  0  0  0  0  0  0
   -7.2990    8.5442    0.0000 C   0  0  0  0  0  0  0  0  0  0  0  0
   -6.0000    9.2942    0.0000 C   0  0  0  0  0  0  0  0  0  0  0  0
   -6.0000    2.5981    0.0000 C   0  0  0  0  0  0  0  0  0  0  0  0
   -5.2500    1.2990    0.0000 C   0  0  0  0  0  0  0  0  0  0  0  0
   -0.7500   -1.2990    0.0000 N   0  0  0  0  0  0  0  0  0  0  0  0
    0.8899   -3.9684    0.0000 N   0  0  0  0  0  0  0  0  0  0  0  0
   -0.5773   -4.2803    0.0000 C   0  0  0  0  0  0  0  0  0  0  0  0
   -1.0409   -5.7068    0.0000 C   0  0  0  0  0  0  0  0  0  0  0  0
   -1.5810   -3.1655    0.0000 C   0  0  0  0  0  0  0  0  0  0  0  0
  1  2  1  0
  2  3  2  0
  3  4  1  0
  4  5  2  0
  5  6  1  0
  6  7  2  0
  7  8  1  0
  8  9  2  0
  9 10  1  0
 10 11  1  0
 11 12  1  0
 12 13  2  0
 13 14  1  0
 14 15  2  0
 15 16  1  0
 16 17  2  0
 16 18  1  0
 18 19  1  0
 19 20  1  0
 20 21  1  0
 15 22  1  0
 22 23  2  0
 10 24  2  0
  5 25  1  0
 25 26  1  0
 26 27  1  0
 26 28  1  0
 25  2  1  0
 24  6  1  0
 23 12  1  0
 21 19  1  0
M  END
>  <Compound_ID>  (161) 
CHEMBL487066

>  <Active>  (161) 
1.0

>  <Smiles>  (161) 
Cc1ncc(-c2ccnc(Nc3ccc(C(=O)NC4CC4)cc3)n2)n1C(C)C

>  <canonical_smi>  (161) 
Cc1ncc(-c2ccnc(Nc3ccc(C(=O)NC4CC4)cc3)n2)n1C(C)C

>  <Set>  (161) 
G2 active

>  <Set_type>  (161) 
Train

>  <MW>  (161) 
376.46

>  <HBD>  (161) 
2

>  <HBA>  (161) 
5

>  <NRB>  (161) 
6

>  <NR>  (161) 
4

>  <NAR>  (161) 
3

>  <PSA>  (161) 
84.73

>  <Standard Type>  (161) 
nan

>  <Standard Relation>  (161) 
nan

>  <Standard Units>  (161) 
nan

>  <Standard Value>  (161) 
nan

>  <Assay ChEMBL ID>  (161) 
nan

>  <Assay Description>  (161) 
nan

>  <BAO Label>  (161) 
nan

$$$$

     RDKit          2D

 27 30  0  0  0  0  0  0  0  0999 V2000
   -2.6401   -3.1891    0.0000 C   0  0  0  0  0  0  0  0  0  0  0  0
   -1.2135   -2.7256    0.0000 C   0  0  0  0  0  0  0  0  0  0  0  0
   -0.0000   -3.6073    0.0000 N   0  0  0  0  0  0  0  0  0  0  0  0
    1.2135   -2.7256    0.0000 N   0  0  0  0  0  0  0  0  0  0  0  0
    0.7500   -1.2990    0.0000 C   0  0  0  0  0  0  0  0  0  0  0  0
    1.5000    0.0000    0.0000 C   0  0  0  0  0  0  0  0  0  0  0  0
    0.7500    1.2990    0.0000 C   0  0  0  0  0  0  0  0  0  0  0  0
   -0.7500    1.2990    0.0000 C   0  0  0  0  0  0  0  0  0  0  0  0
   -1.5000    2.5981    0.0000 C   0  0  0  0  0  0  0  0  0  0  0  0
   -2.9918    2.7549    0.0000 N   0  0  0  0  0  0  0  0  0  0  0  0
   -3.3037    4.2221    0.0000 N   0  0  0  0  0  0  0  0  0  0  0  0
   -2.0046    4.9721    0.0000 C   0  0  0  0  0  0  0  0  0  0  0  0
   -1.8478    6.4639    0.0000 N   0  0  0  0  0  0  0  0  0  0  0  0
   -0.4775    7.0740    0.0000 C   0  0  0  0  0  0  0  0  0  0  0  0
   -0.3207    8.5658    0.0000 C   0  0  0  0  0  0  0  0  0  0  0  0
   -1.5342    9.4474    0.0000 N   0  0  0  0  0  0  0  0  0  0  0  0
    1.0496    9.1759    0.0000 C   0  0  0  0  0  0  0  0  0  0  0  0
    1.2064   10.6676    0.0000 C   0  0  0  0  0  0  0  0  0  0  0  0
    2.5767   11.2778    0.0000 C   0  0  0  0  0  0  0  0  0  0  0  0
    2.7335   12.7695    0.0000 C   0  0  0  0  0  0  0  0  0  0  0  0
    1.5200   13.6512    0.0000 C   0  0  0  0  0  0  0  0  0  0  0  0
    0.1497   13.0411    0.0000 C   0  0  0  0  0  0  0  0  0  0  0  0
   -1.0639   13.9228    0.0000 Cl  0  0  0  0  0  0  0  0  0  0  0  0
   -0.0071   11.5493    0.0000 C   0  0  0  0  0  0  0  0  0  0  0  0
   -0.8899    3.9684    0.0000 S   0  0  0  0  0  0  0  0  0  0  0  0
   -1.5000    0.0000    0.0000 C   0  0  0  0  0  0  0  0  0  0  0  0
   -0.7500   -1.2990    0.0000 C   0  0  0  0  0  0  0  0  0  0  0  0
  1  2  1  0
  2  3  2  0
  3  4  1  0
  4  5  1  0
  5  6  2  0
  6  7  1  0
  7  8  2  0
  8  9  1  0
  9 10  2  0
 10 11  1  0
 11 12  2  0
 12 13  1  0
 13 14  1  0
 14 15  1  0
 15 16  1  1
 15 17  1  0
 17 18  1  0
 18 19  2  0
 19 20  1  0
 20 21  2  0
 21 22  1  0
 22 23  1  0
 22 24  2  0
 12 25  1  0
  8 26  1  0
 26 27  2  0
 27  2  1  0
 27  5  1  0
 25  9  1  0
 24 18  1  0
M  END
>  <Compound_ID>  (162) 
CHEMBL1080893

>  <Active>  (162) 
1.0

>  <Smiles>  (162) 
Cc1n[nH]c2ccc(-c3nnc(NC[C@@H](N)Cc4cccc(Cl)c4)s3)cc12

>  <canonical_smi>  (162) 
Cc1n[nH]c2ccc(-c3nnc(NC[C@@H](N)Cc4cccc(Cl)c4)s3)cc12

>  <Set>  (162) 
G2 active

>  <Set_type>  (162) 
Train

>  <MW>  (162) 
398.92

>  <HBD>  (162) 
3

>  <HBA>  (162) 
5

>  <NRB>  (162) 
6

>  <NR>  (162) 
4

>  <NAR>  (162) 
4

>  <PSA>  (162) 
92.51

>  <Standard Type>  (162) 
nan

>  <Standard Relation>  (162) 
nan

>  <Standard Units>  (162) 
nan

>  <Standard Value>  (162) 
nan

>  <Assay ChEMBL ID>  (162) 
nan

>  <Assay Description>  (162) 
nan

>  <BAO Label>  (162) 
nan

$$$$

     RDKit          2D

 33 36  0  0  0  0  0  0  0  0999 V2000
    3.5260    1.2990    0.0000 C   0  0  0  0  0  0  0  0  0  0  0  0
    2.7760    0.0000    0.0000 C   0  0  0  0  0  0  0  0  0  0  0  0
    3.5260   -1.2990    0.0000 C   0  0  0  0  0  0  0  0  0  0  0  0
    1.2760    0.0000    0.0000 C   0  0  0  0  0  0  0  0  0  0  0  0
    0.3943    1.2135    0.0000 C   0  0  0  0  0  0  0  0  0  0  0  0
   -1.0323    0.7500    0.0000 N   0  0  0  0  0  0  0  0  0  0  0  0
   -1.0323   -0.7500    0.0000 N   0  0  0  0  0  0  0  0  0  0  0  0
   -2.1470   -1.7537    0.0000 C   0  0  0  0  0  0  0  0  0  0  0  0
   -3.5736   -1.2902    0.0000 N   0  0  0  0  0  0  0  0  0  0  0  0
   -4.6883   -2.2939    0.0000 C   0  0  0  0  0  0  0  0  0  0  0  0
   -6.1149   -1.8303    0.0000 C   0  0  0  0  0  0  0  0  0  0  0  0
   -7.2296   -2.8340    0.0000 C   0  0  0  0  0  0  0  0  0  0  0  0
   -6.9177   -4.3013    0.0000 C   0  0  0  0  0  0  0  0  0  0  0  0
   -8.0325   -5.3050    0.0000 S   0  0  0  0  0  0  0  0  0  0  0  0
   -9.0362   -4.1902    0.0000 O   0  0  0  0  0  0  0  0  0  0  0  0
   -7.0288   -6.4197    0.0000 O   0  0  0  0  0  0  0  0  0  0  0  0
   -9.1472   -6.3086    0.0000 N   0  0  0  0  0  0  0  0  0  0  0  0
   -8.8353   -7.7759    0.0000 C   0  0  0  0  0  0  0  0  0  0  0  0
  -10.5738   -5.8451    0.0000 C   0  0  0  0  0  0  0  0  0  0  0  0
   -5.4912   -4.7648    0.0000 C   0  0  0  0  0  0  0  0  0  0  0  0
   -4.3764   -3.7611    0.0000 C   0  0  0  0  0  0  0  0  0  0  0  0
   -1.8351   -3.2209    0.0000 C   0  0  0  0  0  0  0  0  0  0  0  0
   -0.4086   -3.6844    0.0000 C   0  0  0  0  0  0  0  0  0  0  0  0
   -0.0967   -5.1517    0.0000 O   0  0  0  0  0  0  0  0  0  0  0  0
   -1.2114   -6.1554    0.0000 C   0  0  0  0  0  0  0  0  0  0  0  0
   -2.6380   -5.6918    0.0000 C   0  0  0  0  0  0  0  0  0  0  0  0
   -3.7527   -6.6955    0.0000 C   0  0  0  0  0  0  0  0  0  0  0  0
   -3.4408   -8.1628    0.0000 C   0  0  0  0  0  0  0  0  0  0  0  0
   -4.5556   -9.1664    0.0000 N   0  0  0  0  0  0  0  0  0  0  0  0
   -2.0143   -8.6263    0.0000 C   0  0  0  0  0  0  0  0  0  0  0  0
   -0.8995   -7.6226    0.0000 C   0  0  0  0  0  0  0  0  0  0  0  0
    0.7062   -2.6807    0.0000 N   0  0  0  0  0  0  0  0  0  0  0  0
    0.3943   -1.2135    0.0000 C   0  0  0  0  0  0  0  0  0  0  0  0
  1  2  1  0
  2  3  1  0
  2  4  1  0
  4  5  1  0
  5  6  2  0
  6  7  1  0
  7  8  1  0
  8  9  1  0
  9 10  1  0
 10 11  2  0
 11 12  1  0
 12 13  2  0
 13 14  1  0
 14 15  2  0
 14 16  2  0
 14 17  1  0
 17 18  1  0
 17 19  1  0
 13 20  1  0
 20 21  2  0
  8 22  2  0
 22 23  1  0
 23 24  1  0
 24 25  1  0
 25 26  1  0
 26 27  1  0
 27 28  1  0
 28 29  1  0
 28 30  1  0
 30 31  1  0
 23 32  2  0
 32 33  1  0
 33  4  2  0
 33  7  1  0
 21 10  1  0
 31 25  1  0
M  END
>  <Compound_ID>  (163) 
CHEMBL180814

>  <Active>  (163) 
1.0

>  <Smiles>  (163) 
CC(C)c1cnn2c(Nc3ccc(S(=O)(=O)N(C)C)cc3)cc(OC3CCC(N)CC3)nc12

>  <canonical_smi>  (163) 
CC(C)c1cnn2c(Nc3ccc(S(=O)(=O)N(C)C)cc3)cc(OC3CCC(N)CC3)nc12

>  <Set>  (163) 
G2 active

>  <Set_type>  (163) 
Train

>  <MW>  (163) 
472.62

>  <HBD>  (163) 
2

>  <HBA>  (163) 
7

>  <NRB>  (163) 
7

>  <NR>  (163) 
4

>  <NAR>  (163) 
3

>  <PSA>  (163) 
114.85

>  <Standard Type>  (163) 
nan

>  <Standard Relation>  (163) 
nan

>  <Standard Units>  (163) 
nan

>  <Standard Value>  (163) 
nan

>  <Assay ChEMBL ID>  (163) 
nan

>  <Assay Description>  (163) 
nan

>  <BAO Label>  (163) 
nan

$$$$

     RDKit          2D

 27 31  0  0  0  0  0  0  0  0999 V2000
   -4.6613    6.0728    0.0000 N   0  0  0  0  0  0  0  0  0  0  0  0
   -3.2910    5.4627    0.0000 C   0  0  0  0  0  0  0  0  0  0  0  0
   -2.0774    6.3444    0.0000 O   0  0  0  0  0  0  0  0  0  0  0  0
   -3.1342    3.9709    0.0000 C   0  0  0  0  0  0  0  0  0  0  0  0
   -4.2489    2.9672    0.0000 N   0  0  0  0  0  0  0  0  0  0  0  0
   -3.6388    1.5969    0.0000 N   0  0  0  0  0  0  0  0  0  0  0  0
   -4.3888    0.2979    0.0000 C   0  0  0  0  0  0  0  0  0  0  0  0
   -5.8888    0.2979    0.0000 C   0  0  0  0  0  0  0  0  0  0  0  0
   -6.6388   -1.0012    0.0000 C   0  0  0  0  0  0  0  0  0  0  0  0
   -5.8888   -2.3002    0.0000 C   0  0  0  0  0  0  0  0  0  0  0  0
   -6.6388   -3.5992    0.0000 N   0  0  0  0  0  0  0  0  0  0  0  0
   -8.1388   -3.5992    0.0000 C   0  0  0  0  0  0  0  0  0  0  0  0
   -8.8888   -4.8983    0.0000 C   0  0  0  0  0  0  0  0  0  0  0  0
   -8.1388   -6.1973    0.0000 O   0  0  0  0  0  0  0  0  0  0  0  0
   -6.6388   -6.1973    0.0000 C   0  0  0  0  0  0  0  0  0  0  0  0
   -5.8888   -4.8983    0.0000 C   0  0  0  0  0  0  0  0  0  0  0  0
   -4.3888   -2.3002    0.0000 C   0  0  0  0  0  0  0  0  0  0  0  0
   -3.6388   -1.0012    0.0000 C   0  0  0  0  0  0  0  0  0  0  0  0
   -2.1470    1.7537    0.0000 C   0  0  0  0  0  0  0  0  0  0  0  0
   -1.8351    3.2209    0.0000 C   0  0  0  0  0  0  0  0  0  0  0  0
   -0.4086    3.6844    0.0000 C   0  0  0  0  0  0  0  0  0  0  0  0
    0.7062    2.6807    0.0000 C   0  0  0  0  0  0  0  0  0  0  0  0
    0.3943    1.2135    0.0000 C   0  0  0  0  0  0  0  0  0  0  0  0
    1.2760    0.0000    0.0000 N   0  0  0  0  0  0  0  0  0  0  0  0
    0.3943   -1.2135    0.0000 N   0  0  0  0  0  0  0  0  0  0  0  0
   -1.0323   -0.7500    0.0000 C   0  0  0  0  0  0  0  0  0  0  0  0
   -1.0323    0.7500    0.0000 C   0  0  0  0  0  0  0  0  0  0  0  0
  1  2  1  0
  2  3  2  0
  2  4  1  0
  4  5  2  0
  5  6  1  0
  6  7  1  0
  7  8  2  0
  8  9  1  0
  9 10  2  0
 10 11  1  0
 11 12  1  0
 12 13  1  0
 13 14  1  0
 14 15  1  0
 15 16  1  0
 10 17  1  0
 17 18  2  0
  6 19  1  0
 19 20  2  0
 20 21  1  0
 21 22  2  0
 22 23  1  0
 23 24  1  0
 24 25  1  0
 25 26  2  0
 26 27  1  0
 20  4  1  0
 27 23  2  0
 18  7  1  0
 27 19  1  0
 16 11  1  0
M  END
>  <Compound_ID>  (164) 
CHEMBL360480

>  <Active>  (164) 
1.0

>  <Smiles>  (164) 
NC(=O)c1nn(-c2ccc(N3CCOCC3)cc2)c2c1ccc1[nH]ncc12

>  <canonical_smi>  (164) 
NC(=O)c1nn(-c2ccc(N3CCOCC3)cc2)c2c1ccc1[nH]ncc12

>  <Set>  (164) 
G2 active

>  <Set_type>  (164) 
Train

>  <MW>  (164) 
362.39

>  <HBD>  (164) 
2

>  <HBA>  (164) 
5

>  <NRB>  (164) 
3

>  <NR>  (164) 
5

>  <NAR>  (164) 
4

>  <PSA>  (164) 
102.06

>  <Standard Type>  (164) 
nan

>  <Standard Relation>  (164) 
nan

>  <Standard Units>  (164) 
nan

>  <Standard Value>  (164) 
nan

>  <Assay ChEMBL ID>  (164) 
nan

>  <Assay Description>  (164) 
nan

>  <BAO Label>  (164) 
nan

$$$$

     RDKit          2D

 26 30  0  0  0  0  0  0  0  0999 V2000
   -0.0000   -5.1073    0.0000 O   0  0  0  0  0  0  0  0  0  0  0  0
   -0.0000   -3.6073    0.0000 C   0  0  0  0  0  0  0  0  0  0  0  0
    1.2135   -2.7256    0.0000 N   0  0  0  0  0  0  0  0  0  0  0  0
    0.7500   -1.2990    0.0000 C   0  0  0  0  0  0  0  0  0  0  0  0
    1.5000    0.0000    0.0000 C   0  0  0  0  0  0  0  0  0  0  0  0
    0.7500    1.2990    0.0000 C   0  0  0  0  0  0  0  0  0  0  0  0
   -0.7500    1.2990    0.0000 C   0  0  0  0  0  0  0  0  0  0  0  0
   -1.5000    2.5981    0.0000 F   0  0  0  0  0  0  0  0  0  0  0  0
   -1.5000    0.0000    0.0000 C   0  0  0  0  0  0  0  0  0  0  0  0
   -2.9769   -0.2986    0.0000 C   0  0  0  0  0  0  0  0  0  0  0  0
   -3.8586    0.9150    0.0000 S   0  0  0  0  0  0  0  0  0  0  0  0
   -5.3503    0.7582    0.0000 C   0  0  0  0  0  0  0  0  0  0  0  0
   -6.2320    1.9717    0.0000 C   0  0  0  0  0  0  0  0  0  0  0  0
   -7.7320    1.9717    0.0000 C   0  0  0  0  0  0  0  0  0  0  0  0
   -8.1955    3.3983    0.0000 C   0  0  0  0  0  0  0  0  0  0  0  0
   -6.9820    4.2799    0.0000 C   0  0  0  0  0  0  0  0  0  0  0  0
   -5.7685    3.3983    0.0000 N   0  0  0  0  0  0  0  0  0  0  0  0
   -3.5870   -1.6689    0.0000 C   0  0  0  0  0  0  0  0  0  0  0  0
   -2.7053   -2.8824    0.0000 C   0  0  0  0  0  0  0  0  0  0  0  0
   -3.3154   -4.2527    0.0000 C   0  0  0  0  0  0  0  0  0  0  0  0
   -2.5654   -5.5518    0.0000 C   0  0  0  0  0  0  0  0  0  0  0  0
   -3.5691   -6.6665    0.0000 C   0  0  0  0  0  0  0  0  0  0  0  0
   -4.9394   -6.0564    0.0000 C   0  0  0  0  0  0  0  0  0  0  0  0
   -4.7826   -4.5646    0.0000 N   0  0  0  0  0  0  0  0  0  0  0  0
   -1.2135   -2.7256    0.0000 C   0  0  0  0  0  0  0  0  0  0  0  0
   -0.7500   -1.2990    0.0000 C   0  0  0  0  0  0  0  0  0  0  0  0
  1  2  2  0
  2  3  1  0
  3  4  1  0
  4  5  2  0
  5  6  1  0
  6  7  2  0
  7  8  1  0
  7  9  1  0
  9 10  2  0
 10 11  1  0
 11 12  1  0
 13 12  1  6
 13 14  1  0
 14 15  1  0
 15 16  1  0
 16 17  1  0
 10 18  1  0
 18 19  2  0
 19 20  1  0
 20 21  2  0
 21 22  1  0
 22 23  2  0
 23 24  1  0
 19 25  1  0
 25 26  2  0
 25  2  1  0
 26  4  1  0
 26  9  1  0
 17 13  1  0
 24 20  1  0
M  END
>  <Compound_ID>  (165) 
CHEMBL442186

>  <Active>  (165) 
1.0

>  <Smiles>  (165) 
O=C1Nc2ccc(F)c3c(SC[C@@H]4CCCN4)cc(-c4ccc[nH]4)c1c23

>  <canonical_smi>  (165) 
O=C1Nc2ccc(F)c3c(SC[C@@H]4CCCN4)cc(-c4ccc[nH]4)c1c23

>  <Set>  (165) 
G2 active

>  <Set_type>  (165) 
Train

>  <MW>  (165) 
367.45

>  <HBD>  (165) 
3

>  <HBA>  (165) 
3

>  <NRB>  (165) 
4

>  <NR>  (165) 
5

>  <NAR>  (165) 
3

>  <PSA>  (165) 
56.92

>  <Standard Type>  (165) 
nan

>  <Standard Relation>  (165) 
nan

>  <Standard Units>  (165) 
nan

>  <Standard Value>  (165) 
nan

>  <Assay ChEMBL ID>  (165) 
nan

>  <Assay Description>  (165) 
nan

>  <BAO Label>  (165) 
nan

$$$$

     RDKit          2D

 27 30  0  0  0  0  0  0  0  0999 V2000
  -10.0849   -6.9740    0.0000 N   0  0  0  0  0  0  0  0  0  0  0  0
   -8.6583   -6.5105    0.0000 S   0  0  0  0  0  0  0  0  0  0  0  0
   -9.1218   -5.0839    0.0000 O   0  0  0  0  0  0  0  0  0  0  0  0
   -8.1948   -7.9371    0.0000 O   0  0  0  0  0  0  0  0  0  0  0  0
   -7.2317   -6.0469    0.0000 C   0  0  0  0  0  0  0  0  0  0  0  0
   -6.9199   -4.5797    0.0000 C   0  0  0  0  0  0  0  0  0  0  0  0
   -5.4933   -4.1162    0.0000 C   0  0  0  0  0  0  0  0  0  0  0  0
   -4.3786   -5.1199    0.0000 C   0  0  0  0  0  0  0  0  0  0  0  0
   -2.9520   -4.6564    0.0000 N   0  0  0  0  0  0  0  0  0  0  0  0
   -2.6401   -3.1891    0.0000 N   0  0  0  0  0  0  0  0  0  0  0  0
   -1.2135   -2.7256    0.0000 C   0  0  0  0  0  0  0  0  0  0  0  0
   -0.0000   -3.6073    0.0000 C   0  0  0  0  0  0  0  0  0  0  0  0
    0.0000   -5.1073    0.0000 O   0  0  0  0  0  0  0  0  0  0  0  0
    1.2135   -2.7256    0.0000 N   0  0  0  0  0  0  0  0  0  0  0  0
    0.7500   -1.2990    0.0000 C   0  0  0  0  0  0  0  0  0  0  0  0
    1.5000    0.0000    0.0000 C   0  0  0  0  0  0  0  0  0  0  0  0
    0.7500    1.2990    0.0000 C   0  0  0  0  0  0  0  0  0  0  0  0
   -0.7500    1.2990    0.0000 C   0  0  0  0  0  0  0  0  0  0  0  0
   -1.5000    0.0000    0.0000 C   0  0  0  0  0  0  0  0  0  0  0  0
   -3.0000    0.0000    0.0000 C   0  0  0  0  0  0  0  0  0  0  0  0
   -3.8817   -1.2135    0.0000 C   0  0  0  0  0  0  0  0  0  0  0  0
   -5.3083   -0.7500    0.0000 C   0  0  0  0  0  0  0  0  0  0  0  0
   -5.3083    0.7500    0.0000 N   0  0  0  0  0  0  0  0  0  0  0  0
   -3.8817    1.2135    0.0000 N   0  0  0  0  0  0  0  0  0  0  0  0
   -0.7500   -1.2990    0.0000 C   0  0  0  0  0  0  0  0  0  0  0  0
   -4.6904   -6.5871    0.0000 C   0  0  0  0  0  0  0  0  0  0  0  0
   -6.1170   -7.0506    0.0000 C   0  0  0  0  0  0  0  0  0  0  0  0
  1  2  1  0
  2  3  2  0
  2  4  2  0
  2  5  1  0
  5  6  2  0
  6  7  1  0
  7  8  2  0
  8  9  1  0
  9 10  2  3
 10 11  1  0
 11 12  2  0
 12 13  1  0
 12 14  1  0
 14 15  1  0
 15 16  2  0
 16 17  1  0
 17 18  2  0
 18 19  1  0
 19 20  1  0
 20 21  1  0
 21 22  2  0
 22 23  1  0
 23 24  1  0
 19 25  2  0
  8 26  1  0
 26 27  2  0
 27  5  1  0
 25 11  1  0
 25 15  1  0
 24 20  2  0
M  END
>  <Compound_ID>  (166) 
CHEMBL446409

>  <Active>  (166) 
1.0

>  <Smiles>  (166) 
NS(=O)(=O)c1ccc(N=Nc2c(O)[nH]c3cccc(-c4cc[nH]n4)c23)cc1

>  <canonical_smi>  (166) 
NS(=O)(=O)c1ccc(N=Nc2c(O)[nH]c3cccc(-c4cc[nH]n4)c23)cc1

>  <Set>  (166) 
G2 active

>  <Set_type>  (166) 
Train

>  <MW>  (166) 
382.41

>  <HBD>  (166) 
4

>  <HBA>  (166) 
4

>  <NRB>  (166) 
4

>  <NR>  (166) 
4

>  <NAR>  (166) 
4

>  <PSA>  (166) 
149.58

>  <Standard Type>  (166) 
nan

>  <Standard Relation>  (166) 
nan

>  <Standard Units>  (166) 
nan

>  <Standard Value>  (166) 
nan

>  <Assay ChEMBL ID>  (166) 
nan

>  <Assay Description>  (166) 
nan

>  <BAO Label>  (166) 
nan

$$$$

     RDKit          2D

 27 30  0  0  0  0  0  0  0  0999 V2000
  -10.0849   -6.9740    0.0000 N   0  0  0  0  0  0  0  0  0  0  0  0
   -8.6583   -6.5105    0.0000 S   0  0  0  0  0  0  0  0  0  0  0  0
   -9.1218   -5.0839    0.0000 O   0  0  0  0  0  0  0  0  0  0  0  0
   -8.1948   -7.9371    0.0000 O   0  0  0  0  0  0  0  0  0  0  0  0
   -7.2317   -6.0469    0.0000 C   0  0  0  0  0  0  0  0  0  0  0  0
   -6.9199   -4.5797    0.0000 C   0  0  0  0  0  0  0  0  0  0  0  0
   -5.4933   -4.1162    0.0000 C   0  0  0  0  0  0  0  0  0  0  0  0
   -4.3786   -5.1199    0.0000 C   0  0  0  0  0  0  0  0  0  0  0  0
   -2.9520   -4.6564    0.0000 N   0  0  0  0  0  0  0  0  0  0  0  0
   -2.6401   -3.1891    0.0000 N   0  0  0  0  0  0  0  0  0  0  0  0
   -1.2135   -2.7256    0.0000 C   0  0  0  0  0  0  0  0  0  0  0  0
   -0.0000   -3.6073    0.0000 C   0  0  0  0  0  0  0  0  0  0  0  0
    0.0000   -5.1073    0.0000 O   0  0  0  0  0  0  0  0  0  0  0  0
    1.2135   -2.7256    0.0000 N   0  0  0  0  0  0  0  0  0  0  0  0
    0.7500   -1.2990    0.0000 C   0  0  0  0  0  0  0  0  0  0  0  0
    1.5000    0.0000    0.0000 C   0  0  0  0  0  0  0  0  0  0  0  0
    0.7500    1.2990    0.0000 C   0  0  0  0  0  0  0  0  0  0  0  0
   -0.7500    1.2990    0.0000 C   0  0  0  0  0  0  0  0  0  0  0  0
   -1.5000    0.0000    0.0000 C   0  0  0  0  0  0  0  0  0  0  0  0
   -3.0000    0.0000    0.0000 C   0  0  0  0  0  0  0  0  0  0  0  0
   -3.8817   -1.2135    0.0000 C   0  0  0  0  0  0  0  0  0  0  0  0
   -5.3083   -0.7500    0.0000 C   0  0  0  0  0  0  0  0  0  0  0  0
   -5.3083    0.7500    0.0000 N   0  0  0  0  0  0  0  0  0  0  0  0
   -3.8817    1.2135    0.0000 N   0  0  0  0  0  0  0  0  0  0  0  0
   -0.7500   -1.2990    0.0000 C   0  0  0  0  0  0  0  0  0  0  0  0
   -4.6904   -6.5871    0.0000 C   0  0  0  0  0  0  0  0  0  0  0  0
   -6.1170   -7.0506    0.0000 C   0  0  0  0  0  0  0  0  0  0  0  0
  1  2  1  0
  2  3  2  0
  2  4  2  0
  2  5  1  0
  5  6  2  0
  6  7  1  0
  7  8  2  0
  8  9  1  0
  9 10  1  0
 10 11  2  0
 11 12  1  0
 12 13  2  0
 12 14  1  0
 14 15  1  0
 15 16  2  0
 16 17  1  0
 17 18  2  0
 18 19  1  0
 19 20  1  0
 20 21  1  0
 21 22  2  0
 22 23  1  0
 23 24  1  0
 19 25  2  0
  8 26  1  0
 26 27  2  0
 27  5  1  0
 25 11  1  0
 25 15  1  0
 24 20  2  0
M  END
>  <Compound_ID>  (167) 
CHEMBL272684

>  <Active>  (167) 
1.0

>  <Smiles>  (167) 
NS(=O)(=O)c1ccc(N/N=C2\C(=O)Nc3cccc(-c4cc[nH]n4)c32)cc1

>  <canonical_smi>  (167) 
NS(=O)(=O)c1ccc(N/N=C2\C(=O)Nc3cccc(-c4cc[nH]n4)c32)cc1

>  <Set>  (167) 
G2 active

>  <Set_type>  (167) 
Train

>  <MW>  (167) 
382.41

>  <HBD>  (167) 
4

>  <HBA>  (167) 
5

>  <NRB>  (167) 
4

>  <NR>  (167) 
4

>  <NAR>  (167) 
3

>  <PSA>  (167) 
142.33

>  <Standard Type>  (167) 
nan

>  <Standard Relation>  (167) 
nan

>  <Standard Units>  (167) 
nan

>  <Standard Value>  (167) 
nan

>  <Assay ChEMBL ID>  (167) 
nan

>  <Assay Description>  (167) 
nan

>  <BAO Label>  (167) 
nan

$$$$

     RDKit          2D

 32 35  0  0  0  0  0  0  0  0999 V2000
    1.8478   -6.4639    0.0000 C   0  0  0  0  0  0  0  0  0  0  0  0
    2.0046   -4.9721    0.0000 C   0  0  0  0  0  0  0  0  0  0  0  0
    3.3037   -4.2221    0.0000 N   0  0  0  0  0  0  0  0  0  0  0  0
    2.9918   -2.7549    0.0000 C   0  0  0  0  0  0  0  0  0  0  0  0
    1.5000   -2.5981    0.0000 C   0  0  0  0  0  0  0  0  0  0  0  0
    0.7500   -1.2990    0.0000 C   0  0  0  0  0  0  0  0  0  0  0  0
    1.5000    0.0000    0.0000 C   0  0  0  0  0  0  0  0  0  0  0  0
    0.7500    1.2990    0.0000 C   0  0  0  0  0  0  0  0  0  0  0  0
   -0.7500    1.2990    0.0000 N   0  0  0  0  0  0  0  0  0  0  0  0
   -1.5000    0.0000    0.0000 C   0  0  0  0  0  0  0  0  0  0  0  0
   -3.0000    0.0000    0.0000 N   0  0  0  0  0  0  0  0  0  0  0  0
   -3.7500    1.2990    0.0000 C   0  0  0  0  0  0  0  0  0  0  0  0
   -3.0000    2.5981    0.0000 C   0  0  0  0  0  0  0  0  0  0  0  0
   -3.7500    3.8971    0.0000 C   0  0  0  0  0  0  0  0  0  0  0  0
   -5.2500    3.8971    0.0000 C   0  0  0  0  0  0  0  0  0  0  0  0
   -6.0000    5.1962    0.0000 S   0  0  0  0  0  0  0  0  0  0  0  0
   -7.2990    4.4462    0.0000 O   0  0  0  0  0  0  0  0  0  0  0  0
   -4.7010    5.9462    0.0000 O   0  0  0  0  0  0  0  0  0  0  0  0
   -6.7500    6.4952    0.0000 C   0  0  0  0  0  0  0  0  0  0  0  0
   -8.2500    6.4952    0.0000 C   0  0  0  0  0  0  0  0  0  0  0  0
   -9.0000    7.7942    0.0000 C   0  0  0  0  0  0  0  0  0  0  0  0
  -10.5000    7.7942    0.0000 C   0  0  0  0  0  0  0  0  0  0  0  0
  -11.2500    6.4952    0.0000 C   0  0  0  0  0  0  0  0  0  0  0  0
  -10.5000    5.1962    0.0000 C   0  0  0  0  0  0  0  0  0  0  0  0
   -9.0000    5.1962    0.0000 C   0  0  0  0  0  0  0  0  0  0  0  0
   -6.0000    2.5981    0.0000 C   0  0  0  0  0  0  0  0  0  0  0  0
   -5.2500    1.2990    0.0000 C   0  0  0  0  0  0  0  0  0  0  0  0
   -0.7500   -1.2990    0.0000 N   0  0  0  0  0  0  0  0  0  0  0  0
    0.8899   -3.9684    0.0000 N   0  0  0  0  0  0  0  0  0  0  0  0
   -0.5773   -4.2803    0.0000 C   0  0  0  0  0  0  0  0  0  0  0  0
   -1.0409   -5.7068    0.0000 C   0  0  0  0  0  0  0  0  0  0  0  0
   -1.5810   -3.1655    0.0000 C   0  0  0  0  0  0  0  0  0  0  0  0
  1  2  1  0
  2  3  2  0
  3  4  1  0
  4  5  2  0
  5  6  1  0
  6  7  2  0
  7  8  1  0
  8  9  2  0
  9 10  1  0
 10 11  1  0
 11 12  1  0
 12 13  2  0
 13 14  1  0
 14 15  2  0
 15 16  1  0
 16 17  2  0
 16 18  2  0
 16 19  1  0
 19 20  1  0
 20 21  2  0
 21 22  1  0
 22 23  2  0
 23 24  1  0
 24 25  2  0
 15 26  1  0
 26 27  2  0
 10 28  2  0
  5 29  1  0
 29 30  1  0
 30 31  1  0
 30 32  1  0
 29  2  1  0
 28  6  1  0
 27 12  1  0
 25 20  1  0
M  END
>  <Compound_ID>  (168) 
CHEMBL457979

>  <Active>  (168) 
1.0

>  <Smiles>  (168) 
Cc1ncc(-c2ccnc(Nc3ccc(S(=O)(=O)Cc4ccccc4)cc3)n2)n1C(C)C

>  <canonical_smi>  (168) 
Cc1ncc(-c2ccnc(Nc3ccc(S(=O)(=O)Cc4ccccc4)cc3)n2)n1C(C)C

>  <Set>  (168) 
G2 active

>  <Set_type>  (168) 
Train

>  <MW>  (168) 
447.56

>  <HBD>  (168) 
1

>  <HBA>  (168) 
6

>  <NRB>  (168) 
7

>  <NR>  (168) 
4

>  <NAR>  (168) 
4

>  <PSA>  (168) 
89.77

>  <Standard Type>  (168) 
nan

>  <Standard Relation>  (168) 
nan

>  <Standard Units>  (168) 
nan

>  <Standard Value>  (168) 
nan

>  <Assay ChEMBL ID>  (168) 
nan

>  <Assay Description>  (168) 
nan

>  <BAO Label>  (168) 
nan

$$$$

     RDKit          2D

 20 22  0  0  0  0  0  0  0  0999 V2000
   -4.6613    6.0728    0.0000 N   0  0  0  0  0  0  0  0  0  0  0  0
   -3.2910    5.4627    0.0000 C   0  0  0  0  0  0  0  0  0  0  0  0
   -2.0774    6.3444    0.0000 O   0  0  0  0  0  0  0  0  0  0  0  0
   -3.1342    3.9709    0.0000 C   0  0  0  0  0  0  0  0  0  0  0  0
   -4.2489    2.9672    0.0000 N   0  0  0  0  0  0  0  0  0  0  0  0
   -3.6388    1.5969    0.0000 N   0  0  0  0  0  0  0  0  0  0  0  0
   -4.3888    0.2979    0.0000 C   0  0  0  0  0  0  0  0  0  0  0  0
   -5.8888    0.2979    0.0000 C   0  0  0  0  0  0  0  0  0  0  0  0
   -7.3888    0.2979    0.0000 F   0  0  0  0  0  0  0  0  0  0  0  0
   -5.8888   -1.2021    0.0000 F   0  0  0  0  0  0  0  0  0  0  0  0
   -5.8888    1.7979    0.0000 F   0  0  0  0  0  0  0  0  0  0  0  0
   -2.1470    1.7537    0.0000 C   0  0  0  0  0  0  0  0  0  0  0  0
   -1.8351    3.2209    0.0000 C   0  0  0  0  0  0  0  0  0  0  0  0
   -0.4086    3.6844    0.0000 C   0  0  0  0  0  0  0  0  0  0  0  0
    0.7062    2.6807    0.0000 C   0  0  0  0  0  0  0  0  0  0  0  0
    0.3943    1.2135    0.0000 C   0  0  0  0  0  0  0  0  0  0  0  0
    1.2760    0.0000    0.0000 N   0  0  0  0  0  0  0  0  0  0  0  0
    0.3943   -1.2135    0.0000 N   0  0  0  0  0  0  0  0  0  0  0  0
   -1.0323   -0.7500    0.0000 C   0  0  0  0  0  0  0  0  0  0  0  0
   -1.0323    0.7500    0.0000 C   0  0  0  0  0  0  0  0  0  0  0  0
  1  2  1  0
  2  3  2  0
  2  4  1  0
  4  5  2  0
  5  6  1  0
  6  7  1  0
  7  8  1  0
  8  9  1  0
  8 10  1  0
  8 11  1  0
  6 12  1  0
 12 13  2  0
 13 14  1  0
 14 15  1  0
 15 16  1  0
 16 17  2  0
 17 18  1  0
 18 19  1  0
 19 20  2  0
 13  4  1  0
 20 16  1  0
 20 12  1  0
M  END
>  <Compound_ID>  (169) 
CHEMBL181790

>  <Active>  (169) 
1.0

>  <Smiles>  (169) 
NC(=O)c1nn(CC(F)(F)F)c2c1CCc1n[nH]cc1-2

>  <canonical_smi>  (169) 
NC(=O)c1nn(CC(F)(F)F)c2c1CCc1n[nH]cc1-2

>  <Set>  (169) 
G2 active

>  <Set_type>  (169) 
Train

>  <MW>  (169) 
285.23

>  <HBD>  (169) 
2

>  <HBA>  (169) 
3

>  <NRB>  (169) 
2

>  <NR>  (169) 
3

>  <NAR>  (169) 
2

>  <PSA>  (169) 
89.59

>  <Standard Type>  (169) 
nan

>  <Standard Relation>  (169) 
nan

>  <Standard Units>  (169) 
nan

>  <Standard Value>  (169) 
nan

>  <Assay ChEMBL ID>  (169) 
nan

>  <Assay Description>  (169) 
nan

>  <BAO Label>  (169) 
nan

$$$$

     RDKit          2D

 28 31  0  0  0  0  0  0  0  0999 V2000
    0.7500   -3.8971    0.0000 C   0  0  0  0  0  0  0  0  0  0  0  0
    1.5000   -2.5981    0.0000 C   0  0  0  0  0  0  0  0  0  0  0  0
    3.0000   -2.5981    0.0000 C   0  0  0  0  0  0  0  0  0  0  0  0
    3.7500   -1.2990    0.0000 O   0  0  0  0  0  0  0  0  0  0  0  0
    3.7500   -3.8971    0.0000 N   0  0  0  0  0  0  0  0  0  0  0  0
    5.2500   -3.8971    0.0000 C   0  0  0  0  0  0  0  0  0  0  0  0
    6.1317   -2.6836    0.0000 C   0  0  0  0  0  0  0  0  0  0  0  0
    7.5583   -3.1471    0.0000 C   0  0  0  0  0  0  0  0  0  0  0  0
    8.7718   -2.2654    0.0000 C   0  0  0  0  0  0  0  0  0  0  0  0
    9.3819   -0.8951    0.0000 C   0  0  0  0  0  0  0  0  0  0  0  0
   10.2636   -2.1086    0.0000 C   0  0  0  0  0  0  0  0  0  0  0  0
    7.5583   -4.6471    0.0000 N   0  0  0  0  0  0  0  0  0  0  0  0
    6.1317   -5.1106    0.0000 N   0  0  0  0  0  0  0  0  0  0  0  0
    0.7500   -1.2990    0.0000 C   0  0  0  0  0  0  0  0  0  0  0  0
    1.5000    0.0000    0.0000 C   0  0  0  0  0  0  0  0  0  0  0  0
    0.7500    1.2990    0.0000 C   0  0  0  0  0  0  0  0  0  0  0  0
   -0.7500    1.2990    0.0000 C   0  0  0  0  0  0  0  0  0  0  0  0
   -1.5000    2.5981    0.0000 N   0  0  0  0  0  0  0  0  0  0  0  0
   -2.9918    2.7549    0.0000 C   0  0  0  0  0  0  0  0  0  0  0  0
   -3.3037    4.2221    0.0000 C   0  0  0  0  0  0  0  0  0  0  0  0
   -2.0046    4.9721    0.0000 C   0  0  0  0  0  0  0  0  0  0  0  0
   -1.8478    6.4639    0.0000 C   0  0  0  0  0  0  0  0  0  0  0  0
   -0.4775    7.0740    0.0000 N   0  0  0  0  0  0  0  0  0  0  0  0
   -3.0613    7.3456    0.0000 O   0  0  0  0  0  0  0  0  0  0  0  0
   -0.8899    3.9684    0.0000 C   0  0  0  0  0  0  0  0  0  0  0  0
    0.5773    4.2803    0.0000 O   0  0  0  0  0  0  0  0  0  0  0  0
   -1.5000    0.0000    0.0000 C   0  0  0  0  0  0  0  0  0  0  0  0
   -0.7500   -1.2990    0.0000 C   0  0  0  0  0  0  0  0  0  0  0  0
  1  2  1  0
  2  3  1  0
  3  4  2  0
  3  5  1  0
  5  6  1  0
  6  7  1  0
  7  8  2  0
  8  9  1  0
  9 10  1  0
 10 11  1  0
  8 12  1  0
 12 13  1  0
  2 14  1  0
 14 15  2  0
 15 16  1  0
 16 17  2  0
 17 18  1  0
 18 19  1  0
 19 20  1  0
 20 21  1  0
 21 22  1  0
 22 23  1  0
 22 24  2  0
 21 25  1  0
 25 26  2  0
 17 27  1  0
 27 28  2  0
 13  6  2  0
 28 14  1  0
 11  9  1  0
 25 18  1  0
M  END
>  <Compound_ID>  (170) 
CHEMBL192556

>  <Active>  (170) 
1.0

>  <Smiles>  (170) 
CC(C(=O)Nc1cc(C2CC2)[nH]n1)c1ccc(N2CCC(C(N)=O)C2=O)cc1

>  <canonical_smi>  (170) 
CC(C(=O)Nc1cc(C2CC2)[nH]n1)c1ccc(N2CCC(C(N)=O)C2=O)cc1

>  <Set>  (170) 
G2 active

>  <Set_type>  (170) 
Train

>  <MW>  (170) 
381.44

>  <HBD>  (170) 
3

>  <HBA>  (170) 
4

>  <NRB>  (170) 
6

>  <NR>  (170) 
4

>  <NAR>  (170) 
2

>  <PSA>  (170) 
121.18

>  <Standard Type>  (170) 
nan

>  <Standard Relation>  (170) 
nan

>  <Standard Units>  (170) 
nan

>  <Standard Value>  (170) 
nan

>  <Assay ChEMBL ID>  (170) 
nan

>  <Assay Description>  (170) 
nan

>  <BAO Label>  (170) 
nan

$$$$

     RDKit          2D

 30 34  0  0  0  0  0  0  0  0999 V2000
   -3.0000   -5.1962    0.0000 O   0  0  0  0  0  0  0  0  0  0  0  0
   -3.7500   -3.8971    0.0000 C   0  0  0  0  0  0  0  0  0  0  0  0
   -3.0000   -2.5981    0.0000 C   0  0  0  0  0  0  0  0  0  0  0  0
   -1.5000   -2.5981    0.0000 C   0  0  0  0  0  0  0  0  0  0  0  0
   -0.7500   -3.8971    0.0000 C   0  0  0  0  0  0  0  0  0  0  0  0
    0.7500   -3.8971    0.0000 C   0  0  0  0  0  0  0  0  0  0  0  0
    1.5000   -2.5981    0.0000 C   0  0  0  0  0  0  0  0  0  0  0  0
    0.7500   -1.2990    0.0000 C   0  0  0  0  0  0  0  0  0  0  0  0
    1.5000    0.0000    0.0000 C   0  0  0  0  0  0  0  0  0  0  0  0
    0.7500    1.2990    0.0000 C   0  0  0  0  0  0  0  0  0  0  0  0
   -0.7500    1.2990    0.0000 C   0  0  0  0  0  0  0  0  0  0  0  0
   -1.5000    0.0000    0.0000 C   0  0  0  0  0  0  0  0  0  0  0  0
   -0.7500   -1.2990    0.0000 C   0  0  0  0  0  0  0  0  0  0  0  0
   -5.2500   -3.8971    0.0000 N   0  0  0  0  0  0  0  0  0  0  0  0
   -6.0000   -5.1962    0.0000 C   0  0  0  0  0  0  0  0  0  0  0  0
   -5.3899   -6.5665    0.0000 N   0  0  0  0  0  0  0  0  0  0  0  0
   -6.5046   -7.5702    0.0000 N   0  0  0  0  0  0  0  0  0  0  0  0
   -7.8037   -6.8202    0.0000 C   0  0  0  0  0  0  0  0  0  0  0  0
   -9.2302   -7.2837    0.0000 C   0  0  0  0  0  0  0  0  0  0  0  0
  -10.3450   -6.2800    0.0000 C   0  0  0  0  0  0  0  0  0  0  0  0
  -10.0331   -4.8128    0.0000 C   0  0  0  0  0  0  0  0  0  0  0  0
  -11.1478   -3.8091    0.0000 N   0  0  0  0  0  0  0  0  0  0  0  0
  -12.6150   -4.1209    0.0000 C   0  0  0  0  0  0  0  0  0  0  0  0
  -13.3650   -2.8219    0.0000 C   0  0  0  0  0  0  0  0  0  0  0  0
  -12.3613   -1.7072    0.0000 C   0  0  0  0  0  0  0  0  0  0  0  0
  -10.9910   -2.3173    0.0000 S   0  0  0  0  0  0  0  0  0  0  0  0
  -10.5275   -0.8907    0.0000 O   0  0  0  0  0  0  0  0  0  0  0  0
   -9.5238   -2.6292    0.0000 O   0  0  0  0  0  0  0  0  0  0  0  0
   -8.6065   -4.3492    0.0000 C   0  0  0  0  0  0  0  0  0  0  0  0
   -7.4918   -5.3529    0.0000 C   0  0  0  0  0  0  0  0  0  0  0  0
  1  2  2  0
  2  3  1  0
  3  4  1  0
  4  5  2  0
  5  6  1  0
  6  7  2  0
  7  8  1  0
  8  9  2  0
  9 10  1  0
 10 11  2  0
 11 12  1  0
 12 13  2  0
  2 14  1  0
 14 15  1  0
 15 16  2  0
 16 17  1  0
 17 18  1  0
 18 19  2  0
 19 20  1  0
 20 21  2  0
 21 22  1  0
 22 23  1  0
 23 24  1  0
 24 25  1  0
 25 26  1  0
 26 27  2  0
 26 28  2  0
 21 29  1  0
 29 30  2  0
 13  4  1  0
 30 15  1  0
 13  8  1  0
 30 18  1  0
 26 22  1  0
M  END
>  <Compound_ID>  (171) 
CHEMBL254367

>  <Active>  (171) 
1.0

>  <Smiles>  (171) 
O=C(Cc1cccc2ccccc12)Nc1n[nH]c2ccc(N3CCCS3(=O)=O)cc12

>  <canonical_smi>  (171) 
O=C(Cc1cccc2ccccc12)Nc1n[nH]c2ccc(N3CCCS3(=O)=O)cc12

>  <Set>  (171) 
G2 active

>  <Set_type>  (171) 
Train

>  <MW>  (171) 
420.49

>  <HBD>  (171) 
2

>  <HBA>  (171) 
4

>  <NRB>  (171) 
4

>  <NR>  (171) 
5

>  <NAR>  (171) 
4

>  <PSA>  (171) 
95.16

>  <Standard Type>  (171) 
nan

>  <Standard Relation>  (171) 
nan

>  <Standard Units>  (171) 
nan

>  <Standard Value>  (171) 
nan

>  <Assay ChEMBL ID>  (171) 
nan

>  <Assay Description>  (171) 
nan

>  <BAO Label>  (171) 
nan

$$$$

     RDKit          2D

 18 20  0  0  0  0  0  0  0  0999 V2000
    3.7500   -1.2990    0.0000 C   0  0  0  0  0  0  0  0  0  0  0  0
    3.0000    0.0000    0.0000 O   0  0  0  0  0  0  0  0  0  0  0  0
    1.5000    0.0000    0.0000 C   0  0  0  0  0  0  0  0  0  0  0  0
    0.7500   -1.2990    0.0000 C   0  0  0  0  0  0  0  0  0  0  0  0
   -0.7500   -1.2990    0.0000 C   0  0  0  0  0  0  0  0  0  0  0  0
   -1.5000    0.0000    0.0000 C   0  0  0  0  0  0  0  0  0  0  0  0
   -3.0000    0.0000    0.0000 N   0  0  0  0  0  0  0  0  0  0  0  0
   -3.7500    1.2990    0.0000 C   0  0  0  0  0  0  0  0  0  0  0  0
   -5.2172    1.6109    0.0000 N   0  0  0  0  0  0  0  0  0  0  0  0
   -5.3740    3.1027    0.0000 N   0  0  0  0  0  0  0  0  0  0  0  0
   -4.0037    3.7128    0.0000 C   0  0  0  0  0  0  0  0  0  0  0  0
   -3.6918    5.1800    0.0000 C   0  0  0  0  0  0  0  0  0  0  0  0
   -3.0000    2.5981    0.0000 C   0  0  0  0  0  0  0  0  0  0  0  0
   -1.5000    2.5981    0.0000 C   0  0  0  0  0  0  0  0  0  0  0  0
   -0.7500    3.8971    0.0000 O   0  0  0  0  0  0  0  0  0  0  0  0
    0.7500    3.8971    0.0000 C   0  0  0  0  0  0  0  0  0  0  0  0
   -0.7500    1.2990    0.0000 C   0  0  0  0  0  0  0  0  0  0  0  0
    0.7500    1.2990    0.0000 C   0  0  0  0  0  0  0  0  0  0  0  0
  1  2  1  0
  2  3  1  0
  3  4  2  0
  4  5  1  0
  5  6  2  0
  6  7  1  0
  7  8  2  0
  8  9  1  0
  9 10  1  0
 10 11  2  0
 11 12  1  0
 11 13  1  0
 13 14  2  0
 14 15  1  0
 15 16  1  0
 14 17  1  0
 17 18  2  0
 18  3  1  0
 17  6  1  0
 13  8  1  0
M  END
>  <Compound_ID>  (172) 
CHEMBL603097

>  <Active>  (172) 
1.0

>  <Smiles>  (172) 
COc1ccc2nc3[nH]nc(C)c3c(OC)c2c1

>  <canonical_smi>  (172) 
COc1ccc2nc3[nH]nc(C)c3c(OC)c2c1

>  <Set>  (172) 
G2 active

>  <Set_type>  (172) 
Train

>  <MW>  (172) 
243.27

>  <HBD>  (172) 
1

>  <HBA>  (172) 
4

>  <NRB>  (172) 
2

>  <NR>  (172) 
3

>  <NAR>  (172) 
3

>  <PSA>  (172) 
60.03

>  <Standard Type>  (172) 
nan

>  <Standard Relation>  (172) 
nan

>  <Standard Units>  (172) 
nan

>  <Standard Value>  (172) 
nan

>  <Assay ChEMBL ID>  (172) 
nan

>  <Assay Description>  (172) 
nan

>  <BAO Label>  (172) 
nan

$$$$

     RDKit          2D

 28 31  0  0  0  0  0  0  0  0999 V2000
   -1.3905   11.5607    0.0000 F   0  0  0  0  0  0  0  0  0  0  0  0
   -1.7024   10.0935    0.0000 C   0  0  0  0  0  0  0  0  0  0  0  0
   -0.2352    9.7816    0.0000 F   0  0  0  0  0  0  0  0  0  0  0  0
   -3.1696   10.4054    0.0000 F   0  0  0  0  0  0  0  0  0  0  0  0
   -2.0143    8.6263    0.0000 C   0  0  0  0  0  0  0  0  0  0  0  0
   -0.8995    7.6226    0.0000 C   0  0  0  0  0  0  0  0  0  0  0  0
   -1.2114    6.1554    0.0000 N   0  0  0  0  0  0  0  0  0  0  0  0
   -2.6380    5.6918    0.0000 C   0  0  0  0  0  0  0  0  0  0  0  0
   -2.9499    4.2246    0.0000 N   0  0  0  0  0  0  0  0  0  0  0  0
   -1.8351    3.2209    0.0000 C   0  0  0  0  0  0  0  0  0  0  0  0
   -0.4086    3.6844    0.0000 C   0  0  0  0  0  0  0  0  0  0  0  0
    0.7062    2.6807    0.0000 C   0  0  0  0  0  0  0  0  0  0  0  0
    0.3943    1.2135    0.0000 C   0  0  0  0  0  0  0  0  0  0  0  0
    1.2760    0.0000    0.0000 N   0  0  0  0  0  0  0  0  0  0  0  0
    0.3943   -1.2135    0.0000 C   0  0  0  0  0  0  0  0  0  0  0  0
   -1.0323   -0.7500    0.0000 N   0  0  0  0  0  0  0  0  0  0  0  0
   -1.0323    0.7500    0.0000 C   0  0  0  0  0  0  0  0  0  0  0  0
   -2.1470    1.7537    0.0000 C   0  0  0  0  0  0  0  0  0  0  0  0
   -3.7527    6.6955    0.0000 N   0  0  0  0  0  0  0  0  0  0  0  0
   -3.4408    8.1628    0.0000 C   0  0  0  0  0  0  0  0  0  0  0  0
   -4.5556    9.1664    0.0000 N   0  0  0  0  0  0  0  0  0  0  0  0
   -5.9821    8.7029    0.0000 C   0  0  0  0  0  0  0  0  0  0  0  0
   -7.0969    9.7066    0.0000 C   0  0  0  0  0  0  0  0  0  0  0  0
   -8.5234    9.2431    0.0000 C   0  0  0  0  0  0  0  0  0  0  0  0
   -8.8353    7.7759    0.0000 C   0  0  0  0  0  0  0  0  0  0  0  0
   -7.7206    6.7722    0.0000 C   0  0  0  0  0  0  0  0  0  0  0  0
   -6.2940    7.2357    0.0000 C   0  0  0  0  0  0  0  0  0  0  0  0
   -5.1793    6.2320    0.0000 Cl  0  0  0  0  0  0  0  0  0  0  0  0
  1  2  1  0
  2  3  1  0
  2  4  1  0
  2  5  1  0
  5  6  2  0
  6  7  1  0
  7  8  2  0
  8  9  1  0
  9 10  1  0
 10 11  2  0
 11 12  1  0
 12 13  2  0
 13 14  1  0
 14 15  1  0
 15 16  2  0
 16 17  1  0
 17 18  2  0
  8 19  1  0
 19 20  2  0
 20 21  1  0
 21 22  1  0
 22 23  2  0
 23 24  1  0
 24 25  2  0
 25 26  1  0
 26 27  2  0
 27 28  1  0
 20  5  1  0
 27 22  1  0
 18 10  1  0
 17 13  1  0
M  END
>  <Compound_ID>  (173) 
CHEMBL194721

>  <Active>  (173) 
1.0

>  <Smiles>  (173) 
FC(F)(F)c1cnc(Nc2ccc3[nH]cnc3c2)nc1Nc1ccccc1Cl

>  <canonical_smi>  (173) 
FC(F)(F)c1cnc(Nc2ccc3[nH]cnc3c2)nc1Nc1ccccc1Cl

>  <Set>  (173) 
G2 active

>  <Set_type>  (173) 
Train

>  <MW>  (173) 
404.78

>  <HBD>  (173) 
3

>  <HBA>  (173) 
5

>  <NRB>  (173) 
4

>  <NR>  (173) 
4

>  <NAR>  (173) 
4

>  <PSA>  (173) 
78.52

>  <Standard Type>  (173) 
nan

>  <Standard Relation>  (173) 
nan

>  <Standard Units>  (173) 
nan

>  <Standard Value>  (173) 
nan

>  <Assay ChEMBL ID>  (173) 
nan

>  <Assay Description>  (173) 
nan

>  <BAO Label>  (173) 
nan

$$$$

     RDKit          2D

 31 35  0  0  0  0  0  0  0  0999 V2000
   -8.5234   -7.7536    0.0000 C   0  0  0  0  0  0  0  0  0  0  0  0
   -7.0317   -7.5968    0.0000 O   0  0  0  0  0  0  0  0  0  0  0  0
   -6.4216   -6.2265    0.0000 C   0  0  0  0  0  0  0  0  0  0  0  0
   -7.3032   -5.0129    0.0000 C   0  0  0  0  0  0  0  0  0  0  0  0
   -6.6931   -3.6426    0.0000 C   0  0  0  0  0  0  0  0  0  0  0  0
   -5.2013   -3.4858    0.0000 C   0  0  0  0  0  0  0  0  0  0  0  0
   -4.5912   -2.1155    0.0000 C   0  0  0  0  0  0  0  0  0  0  0  0
   -5.3412   -0.8165    0.0000 N   0  0  0  0  0  0  0  0  0  0  0  0
   -4.3375    0.2982    0.0000 N   0  0  0  0  0  0  0  0  0  0  0  0
   -2.9672   -0.3119    0.0000 C   0  0  0  0  0  0  0  0  0  0  0  0
   -3.1240   -1.8037    0.0000 C   0  0  0  0  0  0  0  0  0  0  0  0
   -1.7537   -2.4138    0.0000 C   0  0  0  0  0  0  0  0  0  0  0  0
   -1.4418   -3.8810    0.0000 O   0  0  0  0  0  0  0  0  0  0  0  0
   -0.7500   -1.2990    0.0000 C   0  0  0  0  0  0  0  0  0  0  0  0
    0.7500   -1.2990    0.0000 C   0  0  0  0  0  0  0  0  0  0  0  0
    1.5000   -2.5981    0.0000 N   0  0  0  0  0  0  0  0  0  0  0  0
    3.0000   -2.5981    0.0000 C   0  0  0  0  0  0  0  0  0  0  0  0
    3.7500   -1.2990    0.0000 O   0  0  0  0  0  0  0  0  0  0  0  0
    3.7500   -3.8971    0.0000 C   0  0  0  0  0  0  0  0  0  0  0  0
    5.2500   -3.8971    0.0000 N   0  0  0  0  0  0  0  0  0  0  0  0
    6.0000   -5.1962    0.0000 C   0  0  0  0  0  0  0  0  0  0  0  0
    7.5000   -5.1962    0.0000 C   0  0  0  0  0  0  0  0  0  0  0  0
    8.2500   -3.8971    0.0000 O   0  0  0  0  0  0  0  0  0  0  0  0
    7.5000   -2.5981    0.0000 C   0  0  0  0  0  0  0  0  0  0  0  0
    6.0000   -2.5981    0.0000 C   0  0  0  0  0  0  0  0  0  0  0  0
    1.5000    0.0000    0.0000 C   0  0  0  0  0  0  0  0  0  0  0  0
    0.7500    1.2990    0.0000 C   0  0  0  0  0  0  0  0  0  0  0  0
   -0.7500    1.2990    0.0000 C   0  0  0  0  0  0  0  0  0  0  0  0
   -1.5000    0.0000    0.0000 C   0  0  0  0  0  0  0  0  0  0  0  0
   -4.3197   -4.6994    0.0000 C   0  0  0  0  0  0  0  0  0  0  0  0
   -4.9298   -6.0697    0.0000 C   0  0  0  0  0  0  0  0  0  0  0  0
  1  2  1  0
  2  3  1  0
  3  4  2  0
  4  5  1  0
  5  6  2  0
  6  7  1  0
  7  8  1  0
  8  9  1  0
  9 10  2  0
 10 11  1  0
 11 12  1  0
 12 13  2  0
 12 14  1  0
 14 15  2  0
 15 16  1  0
 16 17  1  0
 17 18  2  0
 17 19  1  0
 19 20  1  0
 20 21  1  0
 21 22  1  0
 22 23  1  0
 23 24  1  0
 24 25  1  0
 15 26  1  0
 26 27  2  0
 27 28  1  0
 28 29  2  0
  6 30  1  0
 30 31  2  0
 31  3  1  0
 11  7  2  0
 29 14  1  0
 29 10  1  0
 25 20  1  0
M  END
>  <Compound_ID>  (174) 
CHEMBL434081

>  <Active>  (174) 
1.0

>  <Smiles>  (174) 
COc1ccc(-c2[nH]nc3c2C(=O)c2c(NC(=O)CN4CCOCC4)cccc2-3)cc1

>  <canonical_smi>  (174) 
COc1ccc(-c2[nH]nc3c2C(=O)c2c(NC(=O)CN4CCOCC4)cccc2-3)cc1

>  <Set>  (174) 
G2 active

>  <Set_type>  (174) 
Train

>  <MW>  (174) 
418.45

>  <HBD>  (174) 
2

>  <HBA>  (174) 
6

>  <NRB>  (174) 
5

>  <NR>  (174) 
5

>  <NAR>  (174) 
4

>  <PSA>  (174) 
96.55

>  <Standard Type>  (174) 
nan

>  <Standard Relation>  (174) 
nan

>  <Standard Units>  (174) 
nan

>  <Standard Value>  (174) 
nan

>  <Assay ChEMBL ID>  (174) 
nan

>  <Assay Description>  (174) 
nan

>  <BAO Label>  (174) 
nan

$$$$

     RDKit          2D

 30 33  0  0  0  0  0  0  0  0999 V2000
  -10.0849   -6.9740    0.0000 N   0  0  0  0  0  0  0  0  0  0  0  0
   -8.6583   -6.5105    0.0000 S   0  0  0  0  0  0  0  0  0  0  0  0
   -9.1218   -5.0839    0.0000 O   0  0  0  0  0  0  0  0  0  0  0  0
   -8.1948   -7.9371    0.0000 O   0  0  0  0  0  0  0  0  0  0  0  0
   -7.2317   -6.0469    0.0000 C   0  0  0  0  0  0  0  0  0  0  0  0
   -6.9199   -4.5797    0.0000 C   0  0  0  0  0  0  0  0  0  0  0  0
   -5.4933   -4.1162    0.0000 C   0  0  0  0  0  0  0  0  0  0  0  0
   -4.3786   -5.1199    0.0000 C   0  0  0  0  0  0  0  0  0  0  0  0
   -2.9520   -4.6564    0.0000 N   0  0  0  0  0  0  0  0  0  0  0  0
   -2.6401   -3.1891    0.0000 N   0  0  0  0  0  0  0  0  0  0  0  0
   -1.2135   -2.7256    0.0000 C   0  0  0  0  0  0  0  0  0  0  0  0
   -0.0000   -3.6073    0.0000 C   0  0  0  0  0  0  0  0  0  0  0  0
    0.0000   -5.1073    0.0000 O   0  0  0  0  0  0  0  0  0  0  0  0
    1.2135   -2.7256    0.0000 N   0  0  0  0  0  0  0  0  0  0  0  0
    0.7500   -1.2990    0.0000 C   0  0  0  0  0  0  0  0  0  0  0  0
    1.5000    0.0000    0.0000 C   0  0  0  0  0  0  0  0  0  0  0  0
    0.7500    1.2990    0.0000 C   0  0  0  0  0  0  0  0  0  0  0  0
   -0.7500    1.2990    0.0000 C   0  0  0  0  0  0  0  0  0  0  0  0
   -1.5000    0.0000    0.0000 C   0  0  0  0  0  0  0  0  0  0  0  0
   -3.0000    0.0000    0.0000 C   0  0  0  0  0  0  0  0  0  0  0  0
   -3.7500    1.2990    0.0000 C   0  0  0  0  0  0  0  0  0  0  0  0
   -5.2500    1.2990    0.0000 C   0  0  0  0  0  0  0  0  0  0  0  0
   -6.0000    2.5981    0.0000 C   0  0  0  0  0  0  0  0  0  0  0  0
   -7.5000    2.5981    0.0000 C   0  0  0  0  0  0  0  0  0  0  0  0
   -8.2500    1.2990    0.0000 N   0  0  0  0  0  0  0  0  0  0  0  0
   -7.5000    0.0000    0.0000 C   0  0  0  0  0  0  0  0  0  0  0  0
   -6.0000    0.0000    0.0000 C   0  0  0  0  0  0  0  0  0  0  0  0
   -0.7500   -1.2990    0.0000 C   0  0  0  0  0  0  0  0  0  0  0  0
   -4.6904   -6.5871    0.0000 C   0  0  0  0  0  0  0  0  0  0  0  0
   -6.1170   -7.0506    0.0000 C   0  0  0  0  0  0  0  0  0  0  0  0
  1  2  1  0
  2  3  2  0
  2  4  2  0
  2  5  1  0
  5  6  2  0
  6  7  1  0
  7  8  2  0
  8  9  1  0
  9 10  2  3
 10 11  1  0
 11 12  2  0
 12 13  1  0
 12 14  1  0
 14 15  1  0
 15 16  2  0
 16 17  1  0
 17 18  2  0
 18 19  1  0
 19 20  1  0
 20 21  1  0
 21 22  1  0
 22 23  2  0
 23 24  1  0
 24 25  2  0
 25 26  1  0
 26 27  2  0
 19 28  2  0
  8 29  1  0
 29 30  2  0
 30  5  1  0
 28 11  1  0
 28 15  1  0
 27 22  1  0
M  END
>  <Compound_ID>  (175) 
CHEMBL315486

>  <Active>  (175) 
1.0

>  <Smiles>  (175) 
NS(=O)(=O)c1ccc(N=Nc2c(O)[nH]c3cccc(CCc4ccncc4)c23)cc1

>  <canonical_smi>  (175) 
NS(=O)(=O)c1ccc(N=Nc2c(O)[nH]c3cccc(CCc4ccncc4)c23)cc1

>  <Set>  (175) 
G2 active

>  <Set_type>  (175) 
Train

>  <MW>  (175) 
421.48

>  <HBD>  (175) 
3

>  <HBA>  (175) 
4

>  <NRB>  (175) 
6

>  <NR>  (175) 
4

>  <NAR>  (175) 
4

>  <PSA>  (175) 
133.79

>  <Standard Type>  (175) 
nan

>  <Standard Relation>  (175) 
nan

>  <Standard Units>  (175) 
nan

>  <Standard Value>  (175) 
nan

>  <Assay ChEMBL ID>  (175) 
nan

>  <Assay Description>  (175) 
nan

>  <BAO Label>  (175) 
nan

$$$$

     RDKit          2D

 31 34  0  0  0  0  0  0  0  0999 V2000
  -10.0849   -6.9740    0.0000 N   0  0  0  0  0  0  0  0  0  0  0  0
   -8.6583   -6.5105    0.0000 S   0  0  0  0  0  0  0  0  0  0  0  0
   -9.1218   -5.0839    0.0000 O   0  0  0  0  0  0  0  0  0  0  0  0
   -8.1948   -7.9371    0.0000 O   0  0  0  0  0  0  0  0  0  0  0  0
   -7.2317   -6.0469    0.0000 C   0  0  0  0  0  0  0  0  0  0  0  0
   -6.9199   -4.5797    0.0000 C   0  0  0  0  0  0  0  0  0  0  0  0
   -5.4933   -4.1162    0.0000 C   0  0  0  0  0  0  0  0  0  0  0  0
   -4.3786   -5.1199    0.0000 C   0  0  0  0  0  0  0  0  0  0  0  0
   -2.9520   -4.6564    0.0000 N   0  0  0  0  0  0  0  0  0  0  0  0
   -2.6401   -3.1891    0.0000 N   0  0  0  0  0  0  0  0  0  0  0  0
   -1.2135   -2.7256    0.0000 C   0  0  0  0  0  0  0  0  0  0  0  0
   -0.0000   -3.6073    0.0000 C   0  0  0  0  0  0  0  0  0  0  0  0
    0.0000   -5.1073    0.0000 O   0  0  0  0  0  0  0  0  0  0  0  0
    1.2135   -2.7256    0.0000 N   0  0  0  0  0  0  0  0  0  0  0  0
    0.7500   -1.2990    0.0000 C   0  0  0  0  0  0  0  0  0  0  0  0
    1.5000    0.0000    0.0000 C   0  0  0  0  0  0  0  0  0  0  0  0
    0.7500    1.2990    0.0000 C   0  0  0  0  0  0  0  0  0  0  0  0
   -0.7500    1.2990    0.0000 C   0  0  0  0  0  0  0  0  0  0  0  0
   -1.5000    0.0000    0.0000 C   0  0  0  0  0  0  0  0  0  0  0  0
   -3.0000    0.0000    0.0000 O   0  0  0  0  0  0  0  0  0  0  0  0
   -3.7500    1.2990    0.0000 C   0  0  0  0  0  0  0  0  0  0  0  0
   -5.2500    1.2990    0.0000 C   0  0  0  0  0  0  0  0  0  0  0  0
   -6.0000    2.5981    0.0000 C   0  0  0  0  0  0  0  0  0  0  0  0
   -5.2500    3.8971    0.0000 C   0  0  0  0  0  0  0  0  0  0  0  0
   -6.0000    5.1962    0.0000 C   0  0  0  0  0  0  0  0  0  0  0  0
   -7.5000    5.1962    0.0000 N   0  0  0  0  0  0  0  0  0  0  0  0
   -8.2500    3.8971    0.0000 C   0  0  0  0  0  0  0  0  0  0  0  0
   -7.5000    2.5981    0.0000 C   0  0  0  0  0  0  0  0  0  0  0  0
   -0.7500   -1.2990    0.0000 C   0  0  0  0  0  0  0  0  0  0  0  0
   -4.6904   -6.5871    0.0000 C   0  0  0  0  0  0  0  0  0  0  0  0
   -6.1170   -7.0506    0.0000 C   0  0  0  0  0  0  0  0  0  0  0  0
  1  2  1  0
  2  3  2  0
  2  4  2  0
  2  5  1  0
  5  6  2  0
  6  7  1  0
  7  8  2  0
  8  9  1  0
  9 10  1  0
 10 11  2  0
 11 12  1  0
 12 13  2  0
 12 14  1  0
 14 15  1  0
 15 16  2  0
 16 17  1  0
 17 18  2  0
 18 19  1  0
 19 20  1  0
 20 21  1  0
 21 22  1  0
 22 23  1  0
 23 24  2  0
 24 25  1  0
 25 26  2  0
 26 27  1  0
 27 28  2  0
 19 29  2  0
  8 30  1  0
 30 31  2  0
 31  5  1  0
 29 11  1  0
 29 15  1  0
 28 23  1  0
M  END
>  <Compound_ID>  (176) 
CHEMBL272217

>  <Active>  (176) 
1.0

>  <Smiles>  (176) 
NS(=O)(=O)c1ccc(N/N=C2\C(=O)Nc3cccc(OCCc4ccncc4)c32)cc1

>  <canonical_smi>  (176) 
NS(=O)(=O)c1ccc(N/N=C2\C(=O)Nc3cccc(OCCc4ccncc4)c32)cc1

>  <Set>  (176) 
G2 active

>  <Set_type>  (176) 
Train

>  <MW>  (176) 
437.48

>  <HBD>  (176) 
3

>  <HBA>  (176) 
6

>  <NRB>  (176) 
7

>  <NR>  (176) 
4

>  <NAR>  (176) 
3

>  <PSA>  (176) 
135.77

>  <Standard Type>  (176) 
nan

>  <Standard Relation>  (176) 
nan

>  <Standard Units>  (176) 
nan

>  <Standard Value>  (176) 
nan

>  <Assay ChEMBL ID>  (176) 
nan

>  <Assay Description>  (176) 
nan

>  <BAO Label>  (176) 
nan

$$$$

     RDKit          2D

 31 35  0  0  0  0  0  0  0  0999 V2000
   -8.5234   -7.7536    0.0000 C   0  0  0  0  0  0  0  0  0  0  0  0
   -7.0317   -7.5968    0.0000 O   0  0  0  0  0  0  0  0  0  0  0  0
   -6.4216   -6.2265    0.0000 C   0  0  0  0  0  0  0  0  0  0  0  0
   -7.3032   -5.0129    0.0000 C   0  0  0  0  0  0  0  0  0  0  0  0
   -6.6931   -3.6426    0.0000 C   0  0  0  0  0  0  0  0  0  0  0  0
   -5.2013   -3.4858    0.0000 C   0  0  0  0  0  0  0  0  0  0  0  0
   -4.5912   -2.1155    0.0000 C   0  0  0  0  0  0  0  0  0  0  0  0
   -5.3412   -0.8165    0.0000 N   0  0  0  0  0  0  0  0  0  0  0  0
   -4.3375    0.2982    0.0000 N   0  0  0  0  0  0  0  0  0  0  0  0
   -2.9672   -0.3119    0.0000 C   0  0  0  0  0  0  0  0  0  0  0  0
   -3.1240   -1.8037    0.0000 C   0  0  0  0  0  0  0  0  0  0  0  0
   -1.7537   -2.4138    0.0000 C   0  0  0  0  0  0  0  0  0  0  0  0
   -1.4418   -3.8810    0.0000 O   0  0  0  0  0  0  0  0  0  0  0  0
   -0.7500   -1.2990    0.0000 C   0  0  0  0  0  0  0  0  0  0  0  0
    0.7500   -1.2990    0.0000 C   0  0  0  0  0  0  0  0  0  0  0  0
    1.5000   -2.5981    0.0000 N   0  0  0  0  0  0  0  0  0  0  0  0
    3.0000   -2.5981    0.0000 C   0  0  0  0  0  0  0  0  0  0  0  0
    3.7500   -1.2990    0.0000 O   0  0  0  0  0  0  0  0  0  0  0  0
    3.7500   -3.8971    0.0000 N   0  0  0  0  0  0  0  0  0  0  0  0
    5.2500   -3.8971    0.0000 N   0  0  0  0  0  0  0  0  0  0  0  0
    6.0000   -5.1962    0.0000 C   0  0  0  0  0  0  0  0  0  0  0  0
    7.5000   -5.1962    0.0000 C   0  0  0  0  0  0  0  0  0  0  0  0
    8.2500   -3.8971    0.0000 C   0  0  0  0  0  0  0  0  0  0  0  0
    7.5000   -2.5981    0.0000 C   0  0  0  0  0  0  0  0  0  0  0  0
    6.0000   -2.5981    0.0000 C   0  0  0  0  0  0  0  0  0  0  0  0
    1.5000    0.0000    0.0000 C   0  0  0  0  0  0  0  0  0  0  0  0
    0.7500    1.2990    0.0000 C   0  0  0  0  0  0  0  0  0  0  0  0
   -0.7500    1.2990    0.0000 C   0  0  0  0  0  0  0  0  0  0  0  0
   -1.5000    0.0000    0.0000 C   0  0  0  0  0  0  0  0  0  0  0  0
   -4.3197   -4.6994    0.0000 C   0  0  0  0  0  0  0  0  0  0  0  0
   -4.9298   -6.0697    0.0000 C   0  0  0  0  0  0  0  0  0  0  0  0
  1  2  1  0
  2  3  1  0
  3  4  2  0
  4  5  1  0
  5  6  2  0
  6  7  1  0
  7  8  1  0
  8  9  1  0
  9 10  2  0
 10 11  1  0
 11 12  1  0
 12 13  2  0
 12 14  1  0
 14 15  2  0
 15 16  1  0
 16 17  1  0
 17 18  2  0
 17 19  1  0
 19 20  1  0
 20 21  1  0
 21 22  1  0
 22 23  1  0
 23 24  1  0
 24 25  1  0
 15 26  1  0
 26 27  2  0
 27 28  1  0
 28 29  2  0
  6 30  1  0
 30 31  2  0
 31  3  1  0
 11  7  2  0
 29 14  1  0
 29 10  1  0
 25 20  1  0
M  END
>  <Compound_ID>  (177) 
CHEMBL147038

>  <Active>  (177) 
1.0

>  <Smiles>  (177) 
COc1ccc(-c2[nH]nc3c2C(=O)c2c(NC(=O)NN4CCCCC4)cccc2-3)cc1

>  <canonical_smi>  (177) 
COc1ccc(-c2[nH]nc3c2C(=O)c2c(NC(=O)NN4CCCCC4)cccc2-3)cc1

>  <Set>  (177) 
G2 active

>  <Set_type>  (177) 
Train

>  <MW>  (177) 
417.47

>  <HBD>  (177) 
3

>  <HBA>  (177) 
5

>  <NRB>  (177) 
4

>  <NR>  (177) 
5

>  <NAR>  (177) 
4

>  <PSA>  (177) 
99.35

>  <Standard Type>  (177) 
nan

>  <Standard Relation>  (177) 
nan

>  <Standard Units>  (177) 
nan

>  <Standard Value>  (177) 
nan

>  <Assay ChEMBL ID>  (177) 
nan

>  <Assay Description>  (177) 
nan

>  <BAO Label>  (177) 
nan

$$$$

     RDKit          2D

 23 25  0  0  0  0  0  0  0  0999 V2000
    3.5320   -2.8116    0.0000 O   0  0  0  0  0  0  0  0  0  0  0  0
    3.9955   -4.2382    0.0000 C   0  0  0  0  0  0  0  0  0  0  0  0
    5.4627   -4.5501    0.0000 N   0  0  0  0  0  0  0  0  0  0  0  0
    6.4664   -3.4354    0.0000 C   0  0  0  0  0  0  0  0  0  0  0  0
    7.9336   -3.7472    0.0000 C   0  0  0  0  0  0  0  0  0  0  0  0
    9.3602   -3.2837    0.0000 C   0  0  0  0  0  0  0  0  0  0  0  0
    9.0483   -4.7509    0.0000 C   0  0  0  0  0  0  0  0  0  0  0  0
    2.9918   -5.3529    0.0000 C   0  0  0  0  0  0  0  0  0  0  0  0
    3.3037   -6.8202    0.0000 N   0  0  0  0  0  0  0  0  0  0  0  0
    2.0046   -7.5702    0.0000 N   0  0  0  0  0  0  0  0  0  0  0  0
    0.8899   -6.5665    0.0000 C   0  0  0  0  0  0  0  0  0  0  0  0
    1.5000   -5.1962    0.0000 C   0  0  0  0  0  0  0  0  0  0  0  0
    0.7500   -3.8971    0.0000 N   0  0  0  0  0  0  0  0  0  0  0  0
   -0.7500   -3.8971    0.0000 C   0  0  0  0  0  0  0  0  0  0  0  0
   -1.5000   -5.1962    0.0000 O   0  0  0  0  0  0  0  0  0  0  0  0
   -1.5000   -2.5981    0.0000 C   0  0  0  0  0  0  0  0  0  0  0  0
   -3.0000   -2.5981    0.0000 C   0  0  0  0  0  0  0  0  0  0  0  0
   -3.7500   -3.8971    0.0000 F   0  0  0  0  0  0  0  0  0  0  0  0
   -3.7500   -1.2990    0.0000 C   0  0  0  0  0  0  0  0  0  0  0  0
   -3.0000   -0.0000    0.0000 C   0  0  0  0  0  0  0  0  0  0  0  0
   -1.5000   -0.0000    0.0000 C   0  0  0  0  0  0  0  0  0  0  0  0
   -0.7500   -1.2990    0.0000 C   0  0  0  0  0  0  0  0  0  0  0  0
    0.7500   -1.2990    0.0000 F   0  0  0  0  0  0  0  0  0  0  0  0
  1  2  2  0
  2  3  1  0
  3  4  1  0
  4  5  1  0
  5  6  1  0
  6  7  1  0
  2  8  1  0
  8  9  2  0
  9 10  1  0
 10 11  1  0
 11 12  2  0
 12 13  1  0
 13 14  1  0
 14 15  2  0
 14 16  1  0
 16 17  2  0
 17 18  1  0
 17 19  1  0
 19 20  2  0
 20 21  1  0
 21 22  2  0
 22 23  1  0
  7  5  1  0
 12  8  1  0
 22 16  1  0
M  END
>  <Compound_ID>  (178) 
CHEMBL510578

>  <Active>  (178) 
1.0

>  <Smiles>  (178) 
O=C(NCC1CC1)c1n[nH]cc1NC(=O)c1c(F)cccc1F

>  <canonical_smi>  (178) 
O=C(NCC1CC1)c1n[nH]cc1NC(=O)c1c(F)cccc1F

>  <Set>  (178) 
G2 active

>  <Set_type>  (178) 
Train

>  <MW>  (178) 
320.3

>  <HBD>  (178) 
3

>  <HBA>  (178) 
3

>  <NRB>  (178) 
5

>  <NR>  (178) 
3

>  <NAR>  (178) 
2

>  <PSA>  (178) 
86.88

>  <Standard Type>  (178) 
nan

>  <Standard Relation>  (178) 
nan

>  <Standard Units>  (178) 
nan

>  <Standard Value>  (178) 
nan

>  <Assay ChEMBL ID>  (178) 
nan

>  <Assay Description>  (178) 
nan

>  <BAO Label>  (178) 
nan

$$$$

     RDKit          2D

 33 36  0  0  0  0  0  0  0  0999 V2000
  -10.0849   -6.9740    0.0000 N   0  0  0  0  0  0  0  0  0  0  0  0
   -8.6583   -6.5105    0.0000 S   0  0  0  0  0  0  0  0  0  0  0  0
   -9.1218   -5.0839    0.0000 O   0  0  0  0  0  0  0  0  0  0  0  0
   -8.1948   -7.9371    0.0000 O   0  0  0  0  0  0  0  0  0  0  0  0
   -7.2317   -6.0469    0.0000 C   0  0  0  0  0  0  0  0  0  0  0  0
   -6.9199   -4.5797    0.0000 C   0  0  0  0  0  0  0  0  0  0  0  0
   -5.4933   -4.1162    0.0000 C   0  0  0  0  0  0  0  0  0  0  0  0
   -4.3786   -5.1199    0.0000 C   0  0  0  0  0  0  0  0  0  0  0  0
   -2.9520   -4.6564    0.0000 N   0  0  0  0  0  0  0  0  0  0  0  0
   -2.6401   -3.1891    0.0000 N   0  0  0  0  0  0  0  0  0  0  0  0
   -1.2135   -2.7256    0.0000 C   0  0  0  0  0  0  0  0  0  0  0  0
   -0.0000   -3.6073    0.0000 C   0  0  0  0  0  0  0  0  0  0  0  0
    0.0000   -5.1073    0.0000 O   0  0  0  0  0  0  0  0  0  0  0  0
    1.2135   -2.7256    0.0000 N   0  0  0  0  0  0  0  0  0  0  0  0
    0.7500   -1.2990    0.0000 C   0  0  0  0  0  0  0  0  0  0  0  0
    1.5000    0.0000    0.0000 C   0  0  0  0  0  0  0  0  0  0  0  0
    0.7500    1.2990    0.0000 C   0  0  0  0  0  0  0  0  0  0  0  0
   -0.7500    1.2990    0.0000 C   0  0  0  0  0  0  0  0  0  0  0  0
   -1.5000    2.5981    0.0000 C   0  0  0  0  0  0  0  0  0  0  0  0
   -3.0000    2.5981    0.0000 O   0  0  0  0  0  0  0  0  0  0  0  0
   -0.7500    3.8971    0.0000 N   0  0  0  0  0  0  0  0  0  0  0  0
   -1.5000    5.1962    0.0000 C   0  0  0  0  0  0  0  0  0  0  0  0
   -0.7500    6.4952    0.0000 C   0  0  0  0  0  0  0  0  0  0  0  0
   -1.5000    7.7942    0.0000 C   0  0  0  0  0  0  0  0  0  0  0  0
   -0.7500    9.0933    0.0000 N   0  0  0  0  0  0  0  0  0  0  0  0
   -1.3601   10.4636    0.0000 C   0  0  0  0  0  0  0  0  0  0  0  0
   -0.2454   11.4673    0.0000 C   0  0  0  0  0  0  0  0  0  0  0  0
    1.0537   10.7173    0.0000 N   0  0  0  0  0  0  0  0  0  0  0  0
    0.7418    9.2501    0.0000 C   0  0  0  0  0  0  0  0  0  0  0  0
   -1.5000    0.0000    0.0000 C   0  0  0  0  0  0  0  0  0  0  0  0
   -0.7500   -1.2990    0.0000 C   0  0  0  0  0  0  0  0  0  0  0  0
   -4.6904   -6.5871    0.0000 C   0  0  0  0  0  0  0  0  0  0  0  0
   -6.1170   -7.0506    0.0000 C   0  0  0  0  0  0  0  0  0  0  0  0
  1  2  1  0
  2  3  2  0
  2  4  2  0
  2  5  1  0
  5  6  2  0
  6  7  1  0
  7  8  2  0
  8  9  1  0
  9 10  2  3
 10 11  1  0
 11 12  2  0
 12 13  1  0
 12 14  1  0
 14 15  1  0
 15 16  2  0
 16 17  1  0
 17 18  2  0
 18 19  1  0
 19 20  2  0
 19 21  1  0
 21 22  1  0
 22 23  1  0
 23 24  1  0
 24 25  1  0
 25 26  1  0
 26 27  2  0
 27 28  1  0
 28 29  2  0
 18 30  1  0
 30 31  2  0
  8 32  1  0
 32 33  2  0
 33  5  1  0
 31 11  1  0
 31 15  1  0
 29 25  1  0
M  END
>  <Compound_ID>  (179) 
CHEMBL137357

>  <Active>  (179) 
1.0

>  <Smiles>  (179) 
NS(=O)(=O)c1ccc(N=Nc2c(O)[nH]c3ccc(C(=O)NCCCn4ccnc4)cc23)cc1

>  <canonical_smi>  (179) 
NS(=O)(=O)c1ccc(N=Nc2c(O)[nH]c3ccc(C(=O)NCCCn4ccnc4)cc23)cc1

>  <Set>  (179) 
G2 active

>  <Set_type>  (179) 
Train

>  <MW>  (179) 
467.51

>  <HBD>  (179) 
4

>  <HBA>  (179) 
5

>  <NRB>  (179) 
8

>  <NR>  (179) 
4

>  <NAR>  (179) 
4

>  <PSA>  (179) 
167.82

>  <Standard Type>  (179) 
nan

>  <Standard Relation>  (179) 
nan

>  <Standard Units>  (179) 
nan

>  <Standard Value>  (179) 
nan

>  <Assay ChEMBL ID>  (179) 
nan

>  <Assay Description>  (179) 
nan

>  <BAO Label>  (179) 
nan

$$$$

     RDKit          2D

 33 36  0  0  0  0  0  0  0  0999 V2000
  -10.0849   -6.9740    0.0000 N   0  0  0  0  0  0  0  0  0  0  0  0
   -8.6583   -6.5105    0.0000 S   0  0  0  0  0  0  0  0  0  0  0  0
   -9.1218   -5.0839    0.0000 O   0  0  0  0  0  0  0  0  0  0  0  0
   -8.1948   -7.9371    0.0000 O   0  0  0  0  0  0  0  0  0  0  0  0
   -7.2317   -6.0469    0.0000 C   0  0  0  0  0  0  0  0  0  0  0  0
   -6.9199   -4.5797    0.0000 C   0  0  0  0  0  0  0  0  0  0  0  0
   -5.4933   -4.1162    0.0000 C   0  0  0  0  0  0  0  0  0  0  0  0
   -4.3786   -5.1199    0.0000 C   0  0  0  0  0  0  0  0  0  0  0  0
   -2.9520   -4.6564    0.0000 N   0  0  0  0  0  0  0  0  0  0  0  0
   -2.6401   -3.1891    0.0000 N   0  0  0  0  0  0  0  0  0  0  0  0
   -1.2135   -2.7256    0.0000 C   0  0  0  0  0  0  0  0  0  0  0  0
   -0.0000   -3.6073    0.0000 C   0  0  0  0  0  0  0  0  0  0  0  0
    0.0000   -5.1073    0.0000 O   0  0  0  0  0  0  0  0  0  0  0  0
    1.2135   -2.7256    0.0000 N   0  0  0  0  0  0  0  0  0  0  0  0
    0.7500   -1.2990    0.0000 C   0  0  0  0  0  0  0  0  0  0  0  0
    1.5000    0.0000    0.0000 C   0  0  0  0  0  0  0  0  0  0  0  0
    0.7500    1.2990    0.0000 C   0  0  0  0  0  0  0  0  0  0  0  0
   -0.7500    1.2990    0.0000 C   0  0  0  0  0  0  0  0  0  0  0  0
   -1.5000    2.5981    0.0000 C   0  0  0  0  0  0  0  0  0  0  0  0
   -3.0000    2.5981    0.0000 O   0  0  0  0  0  0  0  0  0  0  0  0
   -0.7500    3.8971    0.0000 N   0  0  0  0  0  0  0  0  0  0  0  0
   -1.5000    5.1962    0.0000 C   0  0  0  0  0  0  0  0  0  0  0  0
   -0.7500    6.4952    0.0000 C   0  0  0  0  0  0  0  0  0  0  0  0
   -1.5000    7.7942    0.0000 C   0  0  0  0  0  0  0  0  0  0  0  0
   -0.7500    9.0933    0.0000 N   0  0  0  0  0  0  0  0  0  0  0  0
   -1.3601   10.4636    0.0000 C   0  0  0  0  0  0  0  0  0  0  0  0
   -0.2454   11.4673    0.0000 C   0  0  0  0  0  0  0  0  0  0  0  0
    1.0537   10.7173    0.0000 N   0  0  0  0  0  0  0  0  0  0  0  0
    0.7418    9.2501    0.0000 C   0  0  0  0  0  0  0  0  0  0  0  0
   -1.5000    0.0000    0.0000 C   0  0  0  0  0  0  0  0  0  0  0  0
   -0.7500   -1.2990    0.0000 C   0  0  0  0  0  0  0  0  0  0  0  0
   -4.6904   -6.5871    0.0000 C   0  0  0  0  0  0  0  0  0  0  0  0
   -6.1170   -7.0506    0.0000 C   0  0  0  0  0  0  0  0  0  0  0  0
  1  2  1  0
  2  3  2  0
  2  4  2  0
  2  5  1  0
  5  6  2  0
  6  7  1  0
  7  8  2  0
  8  9  1  0
  9 10  1  0
 10 11  2  0
 11 12  1  0
 12 13  2  0
 12 14  1  0
 14 15  1  0
 15 16  2  0
 16 17  1  0
 17 18  2  0
 18 19  1  0
 19 20  2  0
 19 21  1  0
 21 22  1  0
 22 23  1  0
 23 24  1  0
 24 25  1  0
 25 26  1  0
 26 27  2  0
 27 28  1  0
 28 29  2  0
 18 30  1  0
 30 31  2  0
  8 32  1  0
 32 33  2  0
 33  5  1  0
 31 11  1  0
 31 15  1  0
 29 25  1  0
M  END
>  <Compound_ID>  (180) 
CHEMBL272026

>  <Active>  (180) 
1.0

>  <Smiles>  (180) 
NS(=O)(=O)c1ccc(N/N=C2\C(=O)Nc3ccc(C(=O)NCCCn4ccnc4)cc32)cc1

>  <canonical_smi>  (180) 
NS(=O)(=O)c1ccc(N/N=C2\C(=O)Nc3ccc(C(=O)NCCCn4ccnc4)cc32)cc1

>  <Set>  (180) 
G2 active

>  <Set_type>  (180) 
Train

>  <MW>  (180) 
467.51

>  <HBD>  (180) 
4

>  <HBA>  (180) 
6

>  <NRB>  (180) 
8

>  <NR>  (180) 
4

>  <NAR>  (180) 
3

>  <PSA>  (180) 
160.57

>  <Standard Type>  (180) 
nan

>  <Standard Relation>  (180) 
nan

>  <Standard Units>  (180) 
nan

>  <Standard Value>  (180) 
nan

>  <Assay ChEMBL ID>  (180) 
nan

>  <Assay Description>  (180) 
nan

>  <BAO Label>  (180) 
nan

$$$$

     RDKit          2D

 37 42  0  0  0  0  0  0  0  0999 V2000
   10.5000   -5.1962    0.0000 N   0  0  0  0  0  0  0  0  0  0  0  0
    9.7500   -3.8971    0.0000 C   0  0  0  0  0  0  0  0  0  0  0  0
    8.2500   -3.8971    0.0000 C   0  0  0  0  0  0  0  0  0  0  0  0
    7.5000   -5.1962    0.0000 C   0  0  0  0  0  0  0  0  0  0  0  0
    6.0000   -5.1962    0.0000 C   0  0  0  0  0  0  0  0  0  0  0  0
    5.2500   -3.8971    0.0000 N   0  0  0  0  0  0  0  0  0  0  0  0
    3.7500   -3.8971    0.0000 C   0  0  0  0  0  0  0  0  0  0  0  0
    3.0000   -2.5981    0.0000 C   0  0  0  0  0  0  0  0  0  0  0  0
    3.7500   -1.2990    0.0000 O   0  0  0  0  0  0  0  0  0  0  0  0
    1.5000   -2.5981    0.0000 N   0  0  0  0  0  0  0  0  0  0  0  0
    0.7500   -1.2990    0.0000 C   0  0  0  0  0  0  0  0  0  0  0  0
    1.5000    0.0000    0.0000 C   0  0  0  0  0  0  0  0  0  0  0  0
    0.7500    1.2990    0.0000 C   0  0  0  0  0  0  0  0  0  0  0  0
   -0.7500    1.2990    0.0000 C   0  0  0  0  0  0  0  0  0  0  0  0
   -1.5000    0.0000    0.0000 C   0  0  0  0  0  0  0  0  0  0  0  0
   -0.7500   -1.2990    0.0000 C   0  0  0  0  0  0  0  0  0  0  0  0
   -1.7537   -2.4138    0.0000 C   0  0  0  0  0  0  0  0  0  0  0  0
   -1.4418   -3.8810    0.0000 O   0  0  0  0  0  0  0  0  0  0  0  0
   -3.1240   -1.8037    0.0000 C   0  0  0  0  0  0  0  0  0  0  0  0
   -4.5912   -2.1155    0.0000 C   0  0  0  0  0  0  0  0  0  0  0  0
   -5.2013   -3.4858    0.0000 C   0  0  0  0  0  0  0  0  0  0  0  0
   -6.6931   -3.6426    0.0000 C   0  0  0  0  0  0  0  0  0  0  0  0
   -7.3032   -5.0129    0.0000 C   0  0  0  0  0  0  0  0  0  0  0  0
   -6.4216   -6.2265    0.0000 C   0  0  0  0  0  0  0  0  0  0  0  0
   -7.0317   -7.5968    0.0000 N   0  0  0  0  0  0  0  0  0  0  0  0
   -8.5234   -7.7536    0.0000 C   0  0  0  0  0  0  0  0  0  0  0  0
   -9.1335   -9.1239    0.0000 C   0  0  0  0  0  0  0  0  0  0  0  0
   -8.2519  -10.3374    0.0000 O   0  0  0  0  0  0  0  0  0  0  0  0
   -6.7601  -10.1806    0.0000 C   0  0  0  0  0  0  0  0  0  0  0  0
   -6.1500   -8.8103    0.0000 C   0  0  0  0  0  0  0  0  0  0  0  0
   -4.9298   -6.0697    0.0000 C   0  0  0  0  0  0  0  0  0  0  0  0
   -4.3197   -4.6994    0.0000 C   0  0  0  0  0  0  0  0  0  0  0  0
   -5.3412   -0.8165    0.0000 N   0  0  0  0  0  0  0  0  0  0  0  0
   -4.3375    0.2982    0.0000 N   0  0  0  0  0  0  0  0  0  0  0  0
   -2.9672   -0.3119    0.0000 C   0  0  0  0  0  0  0  0  0  0  0  0
    6.0000   -2.5981    0.0000 C   0  0  0  0  0  0  0  0  0  0  0  0
    7.5000   -2.5981    0.0000 C   0  0  0  0  0  0  0  0  0  0  0  0
  1  2  1  0
  2  3  1  0
  3  4  1  0
  4  5  1  0
  5  6  1  0
  6  7  1  0
  7  8  1  0
  8  9  2  0
  8 10  1  0
 10 11  1  0
 11 12  2  0
 12 13  1  0
 13 14  2  0
 14 15  1  0
 15 16  2  0
 16 17  1  0
 17 18  2  0
 17 19  1  0
 19 20  1  0
 20 21  1  0
 21 22  2  0
 22 23  1  0
 23 24  2  0
 24 25  1  0
 25 26  1  0
 26 27  1  0
 27 28  1  0
 28 29  1  0
 29 30  1  0
 24 31  1  0
 31 32  2  0
 20 33  2  0
 33 34  1  0
 34 35  1  0
  6 36  1  0
 36 37  1  0
 37  3  1  0
 16 11  1  0
 35 19  2  0
 35 15  1  0
 32 21  1  0
 30 25  1  0
M  END
>  <Compound_ID>  (181) 
CHEMBL358525

>  <Active>  (181) 
1.0

>  <Smiles>  (181) 
NCC1CCN(CC(=O)Nc2cccc3c2C(=O)c2c(-c4ccc(N5CCOCC5)cc4)n[nH]c2-3)CC1

>  <canonical_smi>  (181) 
NCC1CCN(CC(=O)Nc2cccc3c2C(=O)c2c(-c4ccc(N5CCOCC5)cc4)n[nH]c2-3)CC1

>  <Set>  (181) 
G2 active

>  <Set_type>  (181) 
Train

>  <MW>  (181) 
500.6

>  <HBD>  (181) 
3

>  <HBA>  (181) 
7

>  <NRB>  (181) 
6

>  <NR>  (181) 
6

>  <NAR>  (181) 
4

>  <PSA>  (181) 
116.58

>  <Standard Type>  (181) 
nan

>  <Standard Relation>  (181) 
nan

>  <Standard Units>  (181) 
nan

>  <Standard Value>  (181) 
nan

>  <Assay ChEMBL ID>  (181) 
nan

>  <Assay Description>  (181) 
nan

>  <BAO Label>  (181) 
nan

$$$$

     RDKit          2D

 29 33  0  0  0  0  0  0  0  0999 V2000
   10.5000   -5.1962    0.0000 N   0  0  0  0  0  0  0  0  0  0  0  0
    9.7500   -3.8971    0.0000 C   0  0  0  0  0  0  0  0  0  0  0  0
   10.5000   -2.5981    0.0000 O   0  0  0  0  0  0  0  0  0  0  0  0
    8.2500   -3.8971    0.0000 C   0  0  0  0  0  0  0  0  0  0  0  0
    7.5000   -5.1962    0.0000 C   0  0  0  0  0  0  0  0  0  0  0  0
    6.0000   -5.1962    0.0000 C   0  0  0  0  0  0  0  0  0  0  0  0
    5.2500   -3.8971    0.0000 N   0  0  0  0  0  0  0  0  0  0  0  0
    3.7500   -3.8971    0.0000 C   0  0  0  0  0  0  0  0  0  0  0  0
    3.0000   -2.5981    0.0000 C   0  0  0  0  0  0  0  0  0  0  0  0
    3.7500   -1.2990    0.0000 O   0  0  0  0  0  0  0  0  0  0  0  0
    1.5000   -2.5981    0.0000 N   0  0  0  0  0  0  0  0  0  0  0  0
    0.7500   -1.2990    0.0000 C   0  0  0  0  0  0  0  0  0  0  0  0
    1.5000    0.0000    0.0000 C   0  0  0  0  0  0  0  0  0  0  0  0
    0.7500    1.2990    0.0000 C   0  0  0  0  0  0  0  0  0  0  0  0
   -0.7500    1.2990    0.0000 C   0  0  0  0  0  0  0  0  0  0  0  0
   -1.5000    0.0000    0.0000 C   0  0  0  0  0  0  0  0  0  0  0  0
   -0.7500   -1.2990    0.0000 C   0  0  0  0  0  0  0  0  0  0  0  0
   -1.7537   -2.4138    0.0000 C   0  0  0  0  0  0  0  0  0  0  0  0
   -1.4418   -3.8810    0.0000 O   0  0  0  0  0  0  0  0  0  0  0  0
   -3.1240   -1.8037    0.0000 C   0  0  0  0  0  0  0  0  0  0  0  0
   -4.5912   -2.1155    0.0000 C   0  0  0  0  0  0  0  0  0  0  0  0
   -5.2013   -3.4858    0.0000 C   0  0  0  0  0  0  0  0  0  0  0  0
   -5.0445   -4.9776    0.0000 C   0  0  0  0  0  0  0  0  0  0  0  0
   -6.4149   -4.3675    0.0000 C   0  0  0  0  0  0  0  0  0  0  0  0
   -5.3412   -0.8165    0.0000 N   0  0  0  0  0  0  0  0  0  0  0  0
   -4.3375    0.2982    0.0000 N   0  0  0  0  0  0  0  0  0  0  0  0
   -2.9672   -0.3119    0.0000 C   0  0  0  0  0  0  0  0  0  0  0  0
    6.0000   -2.5981    0.0000 C   0  0  0  0  0  0  0  0  0  0  0  0
    7.5000   -2.5981    0.0000 C   0  0  0  0  0  0  0  0  0  0  0  0
  1  2  1  0
  2  3  2  0
  2  4  1  0
  4  5  1  0
  5  6  1  0
  6  7  1  0
  7  8  1  0
  8  9  1  0
  9 10  2  0
  9 11  1  0
 11 12  1  0
 12 13  2  0
 13 14  1  0
 14 15  2  0
 15 16  1  0
 16 17  2  0
 17 18  1  0
 18 19  2  0
 18 20  1  0
 20 21  1  0
 21 22  1  0
 22 23  1  0
 23 24  1  0
 21 25  2  0
 25 26  1  0
 26 27  1  0
  7 28  1  0
 28 29  1  0
 29  4  1  0
 17 12  1  0
 27 20  2  0
 27 16  1  0
 24 22  1  0
M  END
>  <Compound_ID>  (182) 
CHEMBL149450

>  <Active>  (182) 
1.0

>  <Smiles>  (182) 
NC(=O)C1CCN(CC(=O)Nc2cccc3c2C(=O)c2c(C4CC4)n[nH]c2-3)CC1

>  <canonical_smi>  (182) 
NC(=O)C1CCN(CC(=O)Nc2cccc3c2C(=O)c2c(C4CC4)n[nH]c2-3)CC1

>  <Set>  (182) 
G2 active

>  <Set_type>  (182) 
Train

>  <MW>  (182) 
393.45

>  <HBD>  (182) 
3

>  <HBA>  (182) 
5

>  <NRB>  (182) 
5

>  <NR>  (182) 
5

>  <NAR>  (182) 
3

>  <PSA>  (182) 
121.18

>  <Standard Type>  (182) 
nan

>  <Standard Relation>  (182) 
nan

>  <Standard Units>  (182) 
nan

>  <Standard Value>  (182) 
nan

>  <Assay ChEMBL ID>  (182) 
nan

>  <Assay Description>  (182) 
nan

>  <BAO Label>  (182) 
nan

$$$$

     RDKit          2D

 23 26  0  0  0  0  0  0  0  0999 V2000
    1.1682  -10.0557    0.0000 C   0  0  0  0  0  0  0  0  0  0  0  0
    1.1682   -8.5557    0.0000 N   0  0  0  0  0  0  0  0  0  0  0  0
    2.3817   -7.6740    0.0000 C   0  0  0  0  0  0  0  0  0  0  0  0
    1.9182   -6.2474    0.0000 C   0  0  0  0  0  0  0  0  0  0  0  0
    0.4182   -6.2474    0.0000 C   0  0  0  0  0  0  0  0  0  0  0  0
   -0.4635   -5.0339    0.0000 C   0  0  0  0  0  0  0  0  0  0  0  0
   -1.9635   -5.0339    0.0000 N   0  0  0  0  0  0  0  0  0  0  0  0
   -2.4271   -3.6073    0.0000 N   0  0  0  0  0  0  0  0  0  0  0  0
   -1.2135   -2.7256    0.0000 C   0  0  0  0  0  0  0  0  0  0  0  0
   -0.0000   -3.6073    0.0000 C   0  0  0  0  0  0  0  0  0  0  0  0
    1.2135   -2.7256    0.0000 C   0  0  0  0  0  0  0  0  0  0  0  0
    2.6401   -3.1891    0.0000 O   0  0  0  0  0  0  0  0  0  0  0  0
    0.7500   -1.2990    0.0000 C   0  0  0  0  0  0  0  0  0  0  0  0
    1.5000    0.0000    0.0000 C   0  0  0  0  0  0  0  0  0  0  0  0
    3.0000    0.0000    0.0000 N   0  0  0  0  0  0  0  0  0  0  0  0
    3.7500    1.2990    0.0000 C   0  0  0  0  0  0  0  0  0  0  0  0
    5.2500    1.2990    0.0000 N   0  0  0  0  0  0  0  0  0  0  0  0
    3.0000    2.5981    0.0000 O   0  0  0  0  0  0  0  0  0  0  0  0
    0.7500    1.2990    0.0000 C   0  0  0  0  0  0  0  0  0  0  0  0
   -0.7500    1.2990    0.0000 C   0  0  0  0  0  0  0  0  0  0  0  0
   -1.5000    0.0000    0.0000 C   0  0  0  0  0  0  0  0  0  0  0  0
   -0.7500   -1.2990    0.0000 C   0  0  0  0  0  0  0  0  0  0  0  0
   -0.0454   -7.6740    0.0000 C   0  0  0  0  0  0  0  0  0  0  0  0
  1  2  1  0
  2  3  1  0
  3  4  2  0
  4  5  1  0
  5  6  1  0
  6  7  1  0
  7  8  1  0
  8  9  2  0
  9 10  1  0
 10 11  1  0
 11 12  2  0
 11 13  1  0
 13 14  2  0
 14 15  1  0
 15 16  1  0
 16 17  1  0
 16 18  2  0
 14 19  1  0
 19 20  2  0
 20 21  1  0
 21 22  2  0
  5 23  2  0
 23  2  1  0
 10  6  2  0
 22 13  1  0
 22  9  1  0
M  END
>  <Compound_ID>  (183) 
CHEMBL356728

>  <Active>  (183) 
1.0

>  <Smiles>  (183) 
Cn1ccc(-c2[nH]nc3c2C(=O)c2c(NC(N)=O)cccc2-3)c1

>  <canonical_smi>  (183) 
Cn1ccc(-c2[nH]nc3c2C(=O)c2c(NC(N)=O)cccc2-3)c1

>  <Set>  (183) 
G2 active

>  <Set_type>  (183) 
Train

>  <MW>  (183) 
307.31

>  <HBD>  (183) 
3

>  <HBA>  (183) 
3

>  <NRB>  (183) 
2

>  <NR>  (183) 
4

>  <NAR>  (183) 
4

>  <PSA>  (183) 
105.8

>  <Standard Type>  (183) 
nan

>  <Standard Relation>  (183) 
nan

>  <Standard Units>  (183) 
nan

>  <Standard Value>  (183) 
nan

>  <Assay ChEMBL ID>  (183) 
nan

>  <Assay Description>  (183) 
nan

>  <BAO Label>  (183) 
nan

$$$$

     RDKit          2D

 25 27  0  0  0  0  0  0  0  0999 V2000
    7.4557  -13.2052    0.0000 C   0  0  0  0  0  0  0  0  0  0  0  0
    8.7547  -12.4552    0.0000 C   0  0  0  0  0  0  0  0  0  0  0  0
   10.0538  -11.7052    0.0000 C   0  0  0  0  0  0  0  0  0  0  0  0
    9.5047  -13.7542    0.0000 C   0  0  0  0  0  0  0  0  0  0  0  0
    8.0047  -11.1562    0.0000 C   0  0  0  0  0  0  0  0  0  0  0  0
    8.6148   -9.7859    0.0000 C   0  0  0  0  0  0  0  0  0  0  0  0
    7.5001   -8.7822    0.0000 N   0  0  0  0  0  0  0  0  0  0  0  0
    6.2011   -9.5322    0.0000 C   0  0  0  0  0  0  0  0  0  0  0  0
    4.8308   -8.9221    0.0000 C   0  0  0  0  0  0  0  0  0  0  0  0
    4.6740   -7.4303    0.0000 S   0  0  0  0  0  0  0  0  0  0  0  0
    3.3037   -6.8202    0.0000 C   0  0  0  0  0  0  0  0  0  0  0  0
    2.0046   -7.5702    0.0000 C   0  0  0  0  0  0  0  0  0  0  0  0
    0.8899   -6.5665    0.0000 N   0  0  0  0  0  0  0  0  0  0  0  0
    1.5000   -5.1962    0.0000 C   0  0  0  0  0  0  0  0  0  0  0  0
    0.7500   -3.8971    0.0000 N   0  0  0  0  0  0  0  0  0  0  0  0
    1.5000   -2.5981    0.0000 C   0  0  0  0  0  0  0  0  0  0  0  0
    3.0000   -2.5981    0.0000 O   0  0  0  0  0  0  0  0  0  0  0  0
    0.7500   -1.2990    0.0000 C   0  0  0  0  0  0  0  0  0  0  0  0
    1.5000    0.0000    0.0000 C   0  0  0  0  0  0  0  0  0  0  0  0
    0.7500    1.2990    0.0000 C   0  0  0  0  0  0  0  0  0  0  0  0
   -0.7500    1.2990    0.0000 C   0  0  0  0  0  0  0  0  0  0  0  0
   -1.5000    0.0000    0.0000 C   0  0  0  0  0  0  0  0  0  0  0  0
   -0.7500   -1.2990    0.0000 C   0  0  0  0  0  0  0  0  0  0  0  0
    2.9918   -5.3529    0.0000 S   0  0  0  0  0  0  0  0  0  0  0  0
    6.5129  -10.9994    0.0000 O   0  0  0  0  0  0  0  0  0  0  0  0
  1  2  1  0
  2  3  1  0
  2  4  1  0
  2  5  1  0
  5  6  2  0
  6  7  1  0
  7  8  2  0
  8  9  1  0
  9 10  1  0
 10 11  1  0
 11 12  2  0
 12 13  1  0
 13 14  2  0
 14 15  1  0
 15 16  1  0
 16 17  2  0
 16 18  1  0
 18 19  2  0
 19 20  1  0
 20 21  2  0
 21 22  1  0
 22 23  2  0
 14 24  1  0
  8 25  1  0
 25  5  1  0
 24 11  1  0
 23 18  1  0
M  END
>  <Compound_ID>  (184) 
CHEMBL48796

>  <Active>  (184) 
1.0

>  <Smiles>  (184) 
CC(C)(C)c1cnc(CSc2cnc(NC(=O)c3ccccc3)s2)o1

>  <canonical_smi>  (184) 
CC(C)(C)c1cnc(CSc2cnc(NC(=O)c3ccccc3)s2)o1

>  <Set>  (184) 
G2 active

>  <Set_type>  (184) 
Train

>  <MW>  (184) 
373.5

>  <HBD>  (184) 
1

>  <HBA>  (184) 
5

>  <NRB>  (184) 
5

>  <NR>  (184) 
3

>  <NAR>  (184) 
3

>  <PSA>  (184) 
68.02

>  <Standard Type>  (184) 
nan

>  <Standard Relation>  (184) 
nan

>  <Standard Units>  (184) 
nan

>  <Standard Value>  (184) 
nan

>  <Assay ChEMBL ID>  (184) 
nan

>  <Assay Description>  (184) 
nan

>  <BAO Label>  (184) 
nan

$$$$

     RDKit          2D

 23 26  0  0  0  0  0  0  0  0999 V2000
   -3.7500   -3.8971    0.0000 O   0  0  0  0  0  0  0  0  0  0  0  0
   -3.0000   -5.1962    0.0000 C   0  0  0  0  0  0  0  0  0  0  0  0
   -1.5000   -5.1962    0.0000 C   0  0  0  0  0  0  0  0  0  0  0  0
   -0.7500   -3.8971    0.0000 C   0  0  0  0  0  0  0  0  0  0  0  0
    0.7500   -3.8971    0.0000 C   0  0  0  0  0  0  0  0  0  0  0  0
    1.5000   -2.5981    0.0000 C   0  0  0  0  0  0  0  0  0  0  0  0
    0.7500   -1.2990    0.0000 C   0  0  0  0  0  0  0  0  0  0  0  0
    1.5000    0.0000    0.0000 N   0  0  0  0  0  0  0  0  0  0  0  0
    0.7500    1.2990    0.0000 C   0  0  0  0  0  0  0  0  0  0  0  0
   -0.7500    1.2990    0.0000 C   0  0  0  0  0  0  0  0  0  0  0  0
   -1.5000    0.0000    0.0000 C   0  0  0  0  0  0  0  0  0  0  0  0
   -0.7500   -1.2990    0.0000 C   0  0  0  0  0  0  0  0  0  0  0  0
   -1.5000   -2.5981    0.0000 C   0  0  0  0  0  0  0  0  0  0  0  0
   -3.7500   -6.4952    0.0000 N   0  0  0  0  0  0  0  0  0  0  0  0
   -5.2500   -6.4952    0.0000 C   0  0  0  0  0  0  0  0  0  0  0  0
   -6.1317   -7.7087    0.0000 N   0  0  0  0  0  0  0  0  0  0  0  0
   -7.5583   -7.2452    0.0000 C   0  0  0  0  0  0  0  0  0  0  0  0
   -7.5583   -5.7452    0.0000 C   0  0  0  0  0  0  0  0  0  0  0  0
   -8.7718   -4.8635    0.0000 C   0  0  0  0  0  0  0  0  0  0  0  0
   -9.0064   -3.3820    0.0000 C   0  0  0  0  0  0  0  0  0  0  0  0
  -10.4880   -3.6166    0.0000 C   0  0  0  0  0  0  0  0  0  0  0  0
  -10.2533   -5.0982    0.0000 C   0  0  0  0  0  0  0  0  0  0  0  0
   -6.1317   -5.2817    0.0000 S   0  0  0  0  0  0  0  0  0  0  0  0
  1  2  2  0
  2  3  1  0
  3  4  1  0
  4  5  2  0
  5  6  1  0
  6  7  2  0
  7  8  1  0
  8  9  2  0
  9 10  1  0
 10 11  2  0
 11 12  1  0
 12 13  2  0
  2 14  1  0
 14 15  1  0
 15 16  2  0
 16 17  1  0
 17 18  2  0
 18 19  1  0
 19 20  1  0
 20 21  1  0
 21 22  1  0
 18 23  1  0
 13  4  1  0
 23 15  1  0
 12  7  1  0
 22 19  1  0
M  END
>  <Compound_ID>  (185) 
CHEMBL363954

>  <Active>  (185) 
1.0

>  <Smiles>  (185) 
O=C(Cc1ccc2ncccc2c1)Nc1ncc(C2CCC2)s1

>  <canonical_smi>  (185) 
O=C(Cc1ccc2ncccc2c1)Nc1ncc(C2CCC2)s1

>  <Set>  (185) 
G2 active

>  <Set_type>  (185) 
Train

>  <MW>  (185) 
323.42

>  <HBD>  (185) 
1

>  <HBA>  (185) 
3

>  <NRB>  (185) 
4

>  <NR>  (185) 
4

>  <NAR>  (185) 
3

>  <PSA>  (185) 
54.88

>  <Standard Type>  (185) 
nan

>  <Standard Relation>  (185) 
nan

>  <Standard Units>  (185) 
nan

>  <Standard Value>  (185) 
nan

>  <Assay ChEMBL ID>  (185) 
nan

>  <Assay Description>  (185) 
nan

>  <BAO Label>  (185) 
nan

$$$$

     RDKit          2D

 30 34  0  0  0  0  0  0  0  0999 V2000
   -2.6401   -3.1891    0.0000 C   0  0  0  0  0  0  0  0  0  0  0  0
   -1.2135   -2.7256    0.0000 N   0  0  0  0  0  0  0  0  0  0  0  0
   -0.0000   -3.6073    0.0000 C   0  0  0  0  0  0  0  0  0  0  0  0
    1.2135   -2.7256    0.0000 C   0  0  0  0  0  0  0  0  0  0  0  0
    2.6401   -3.1891    0.0000 C   0  0  0  0  0  0  0  0  0  0  0  0
    3.8536   -2.3075    0.0000 C   0  0  0  0  0  0  0  0  0  0  0  0
    3.8536   -0.8075    0.0000 C   0  0  0  0  0  0  0  0  0  0  0  0
    2.6401    0.0742    0.0000 C   0  0  0  0  0  0  0  0  0  0  0  0
    3.1036    1.5008    0.0000 O   0  0  0  0  0  0  0  0  0  0  0  0
    4.6036    1.5008    0.0000 C   0  0  0  0  0  0  0  0  0  0  0  0
    5.6073    2.6155    0.0000 C   0  0  0  0  0  0  0  0  0  0  0  0
    7.0746    2.3036    0.0000 C   0  0  0  0  0  0  0  0  0  0  0  0
    8.0782    3.4184    0.0000 C   0  0  0  0  0  0  0  0  0  0  0  0
    9.5455    3.1065    0.0000 O   0  0  0  0  0  0  0  0  0  0  0  0
    7.5381    0.8771    0.0000 C   0  0  0  0  0  0  0  0  0  0  0  0
    6.5344   -0.2377    0.0000 C   0  0  0  0  0  0  0  0  0  0  0  0
    5.0672    0.0742    0.0000 C   0  0  0  0  0  0  0  0  0  0  0  0
    5.0672   -3.1891    0.0000 C   0  0  0  0  0  0  0  0  0  0  0  0
    6.4937   -2.7256    0.0000 O   0  0  0  0  0  0  0  0  0  0  0  0
    4.6036   -4.6157    0.0000 N   0  0  0  0  0  0  0  0  0  0  0  0
    3.1036   -4.6157    0.0000 C   0  0  0  0  0  0  0  0  0  0  0  0
    2.2220   -5.8293    0.0000 O   0  0  0  0  0  0  0  0  0  0  0  0
    0.7500   -1.2990    0.0000 C   0  0  0  0  0  0  0  0  0  0  0  0
    1.5000    0.0000    0.0000 C   0  0  0  0  0  0  0  0  0  0  0  0
    0.7500    1.2990    0.0000 C   0  0  0  0  0  0  0  0  0  0  0  0
   -0.7500    1.2990    0.0000 C   0  0  0  0  0  0  0  0  0  0  0  0
   -1.5000    0.0000    0.0000 C   0  0  0  0  0  0  0  0  0  0  0  0
   -3.0000    0.0000    0.0000 C   0  0  0  0  0  0  0  0  0  0  0  0
   -3.7500    1.2990    0.0000 O   0  0  0  0  0  0  0  0  0  0  0  0
   -0.7500   -1.2990    0.0000 C   0  0  0  0  0  0  0  0  0  0  0  0
  1  2  1  0
  2  3  1  0
  3  4  2  0
  4  5  1  0
  5  6  2  0
  6  7  1  0
  7  8  2  0
  8  9  1  0
  9 10  1  0
 10 11  2  0
 11 12  1  0
 12 13  1  0
 13 14  1  0
 12 15  2  0
 15 16  1  0
 16 17  2  0
  6 18  1  0
 18 19  2  0
 18 20  1  0
 20 21  1  0
 21 22  2  0
  4 23  1  0
 23 24  2  0
 24 25  1  0
 25 26  2  0
 26 27  1  0
 27 28  1  0
 28 29  1  0
 27 30  2  0
 30  2  1  0
 21  5  1  0
 30 23  1  0
 17  7  1  0
 17 10  1  0
M  END
>  <Compound_ID>  (186) 
CHEMBL491447

>  <Active>  (186) 
1.0

>  <Smiles>  (186) 
Cn1cc(C2=C(c3coc4cc(CO)ccc34)C(=O)NC2=O)c2cccc(CO)c21

>  <canonical_smi>  (186) 
Cn1cc(C2=C(c3coc4cc(CO)ccc34)C(=O)NC2=O)c2cccc(CO)c21

>  <Set>  (186) 
G2 active

>  <Set_type>  (186) 
Train

>  <MW>  (186) 
402.41

>  <HBD>  (186) 
3

>  <HBA>  (186) 
5

>  <NRB>  (186) 
4

>  <NR>  (186) 
5

>  <NAR>  (186) 
4

>  <PSA>  (186) 
104.7

>  <Standard Type>  (186) 
nan

>  <Standard Relation>  (186) 
nan

>  <Standard Units>  (186) 
nan

>  <Standard Value>  (186) 
nan

>  <Assay ChEMBL ID>  (186) 
nan

>  <Assay Description>  (186) 
nan

>  <BAO Label>  (186) 
nan

$$$$

     RDKit          2D

 26 29  0  0  0  0  0  0  0  0999 V2000
    0.7500   -3.8971    0.0000 C   0  0  0  0  0  0  0  0  0  0  0  0
    1.5000   -2.5981    0.0000 C   0  0  0  0  0  0  0  0  0  0  0  0
    3.0000   -2.5981    0.0000 C   0  0  0  0  0  0  0  0  0  0  0  0
    3.7500   -1.2990    0.0000 O   0  0  0  0  0  0  0  0  0  0  0  0
    3.7500   -3.8971    0.0000 N   0  0  0  0  0  0  0  0  0  0  0  0
    5.2500   -3.8971    0.0000 C   0  0  0  0  0  0  0  0  0  0  0  0
    6.1317   -2.6836    0.0000 C   0  0  0  0  0  0  0  0  0  0  0  0
    7.5583   -3.1471    0.0000 C   0  0  0  0  0  0  0  0  0  0  0  0
    8.7718   -2.2654    0.0000 C   0  0  0  0  0  0  0  0  0  0  0  0
    9.3819   -0.8951    0.0000 C   0  0  0  0  0  0  0  0  0  0  0  0
   10.2636   -2.1086    0.0000 C   0  0  0  0  0  0  0  0  0  0  0  0
    7.5583   -4.6471    0.0000 N   0  0  0  0  0  0  0  0  0  0  0  0
    6.1317   -5.1106    0.0000 N   0  0  0  0  0  0  0  0  0  0  0  0
    0.7500   -1.2990    0.0000 C   0  0  0  0  0  0  0  0  0  0  0  0
    1.5000    0.0000    0.0000 C   0  0  0  0  0  0  0  0  0  0  0  0
    0.7500    1.2990    0.0000 C   0  0  0  0  0  0  0  0  0  0  0  0
   -0.7500    1.2990    0.0000 C   0  0  0  0  0  0  0  0  0  0  0  0
   -1.5000    2.5981    0.0000 N   0  0  0  0  0  0  0  0  0  0  0  0
   -2.9918    2.7549    0.0000 C   0  0  0  0  0  0  0  0  0  0  0  0
   -3.3037    4.2221    0.0000 C   0  0  0  0  0  0  0  0  0  0  0  0
   -2.0046    4.9721    0.0000 C   0  0  0  0  0  0  0  0  0  0  0  0
   -1.8478    6.4639    0.0000 O   0  0  0  0  0  0  0  0  0  0  0  0
   -0.8899    3.9684    0.0000 C   0  0  0  0  0  0  0  0  0  0  0  0
    0.5773    4.2803    0.0000 O   0  0  0  0  0  0  0  0  0  0  0  0
   -1.5000    0.0000    0.0000 C   0  0  0  0  0  0  0  0  0  0  0  0
   -0.7500   -1.2990    0.0000 C   0  0  0  0  0  0  0  0  0  0  0  0
  2  1  1  1
  2  3  1  0
  3  4  2  0
  3  5  1  0
  5  6  1  0
  6  7  2  0
  7  8  1  0
  8  9  1  0
  9 10  1  0
 10 11  1  0
  8 12  2  0
 12 13  1  0
  2 14  1  0
 14 15  2  0
 15 16  1  0
 16 17  2  0
 17 18  1  0
 18 19  1  0
 19 20  1  0
 20 21  1  0
 21 22  1  1
 21 23  1  0
 23 24  2  0
 17 25  1  0
 25 26  2  0
 13  6  1  0
 26 14  1  0
 11  9  1  0
 23 18  1  0
M  END
>  <Compound_ID>  (187) 
CHEMBL380280

>  <Active>  (187) 
1.0

>  <Smiles>  (187) 
C[C@H](C(=O)Nc1cc(C2CC2)n[nH]1)c1ccc(N2CC[C@@H](O)C2=O)cc1

>  <canonical_smi>  (187) 
C[C@H](C(=O)Nc1cc(C2CC2)n[nH]1)c1ccc(N2CC[C@@H](O)C2=O)cc1

>  <Set>  (187) 
G2 active

>  <Set_type>  (187) 
Train

>  <MW>  (187) 
354.41

>  <HBD>  (187) 
3

>  <HBA>  (187) 
4

>  <NRB>  (187) 
5

>  <NR>  (187) 
4

>  <NAR>  (187) 
2

>  <PSA>  (187) 
98.32

>  <Standard Type>  (187) 
nan

>  <Standard Relation>  (187) 
nan

>  <Standard Units>  (187) 
nan

>  <Standard Value>  (187) 
nan

>  <Assay ChEMBL ID>  (187) 
nan

>  <Assay Description>  (187) 
nan

>  <BAO Label>  (187) 
nan

$$$$

     RDKit          2D

 23 25  0  0  0  0  0  0  0  0999 V2000
   -6.1149    1.8303    0.0000 C   0  0  0  0  0  0  0  0  0  0  0  0
   -4.6883    2.2939    0.0000 C   0  0  0  0  0  0  0  0  0  0  0  0
   -4.3764    3.7611    0.0000 C   0  0  0  0  0  0  0  0  0  0  0  0
   -3.5736    1.2902    0.0000 N   0  0  0  0  0  0  0  0  0  0  0  0
   -2.1470    1.7537    0.0000 C   0  0  0  0  0  0  0  0  0  0  0  0
   -1.8351    3.2209    0.0000 C   0  0  0  0  0  0  0  0  0  0  0  0
   -0.4086    3.6844    0.0000 C   0  0  0  0  0  0  0  0  0  0  0  0
   -0.0967    5.1517    0.0000 N   0  0  0  0  0  0  0  0  0  0  0  0
    1.3299    5.6152    0.0000 C   0  0  0  0  0  0  0  0  0  0  0  0
    2.4446    4.6115    0.0000 C   0  0  0  0  0  0  0  0  0  0  0  0
    3.8712    5.0750    0.0000 C   0  0  0  0  0  0  0  0  0  0  0  0
    4.1831    6.5422    0.0000 C   0  0  0  0  0  0  0  0  0  0  0  0
    5.6097    7.0058    0.0000 N   0  0  0  0  0  0  0  0  0  0  0  0
    3.0684    7.5459    0.0000 C   0  0  0  0  0  0  0  0  0  0  0  0
    1.6418    7.0824    0.0000 C   0  0  0  0  0  0  0  0  0  0  0  0
    0.7062    2.6807    0.0000 N   0  0  0  0  0  0  0  0  0  0  0  0
    0.3943    1.2135    0.0000 C   0  0  0  0  0  0  0  0  0  0  0  0
    1.2760    0.0000    0.0000 C   0  0  0  0  0  0  0  0  0  0  0  0
    2.7760    0.0000    0.0000 C   0  0  0  0  0  0  0  0  0  0  0  0
    4.2760   -0.0000    0.0000 N   0  0  0  0  0  0  0  0  0  0  0  0
    0.3943   -1.2135    0.0000 C   0  0  0  0  0  0  0  0  0  0  0  0
   -1.0323   -0.7500    0.0000 N   0  0  0  0  0  0  0  0  0  0  0  0
   -1.0323    0.7500    0.0000 N   0  0  0  0  0  0  0  0  0  0  0  0
  1  2  1  0
  2  3  1  0
  2  4  1  0
  4  5  1  0
  5  6  2  0
  6  7  1  0
  7  8  1  0
  8  9  1  0
  9 10  1  0
 10 11  1  0
 11 12  1  0
 12 13  1  0
 12 14  1  0
 14 15  1  0
  7 16  2  0
 16 17  1  0
 17 18  2  0
 18 19  1  0
 19 20  3  0
 18 21  1  0
 21 22  2  0
 22 23  1  0
 23  5  1  0
 15  9  1  0
 23 17  1  0
M  END
>  <Compound_ID>  (188) 
CHEMBL509730

>  <Active>  (188) 
1.0

>  <Smiles>  (188) 
CC(C)Nc1cc(NC2CCC(N)CC2)nc2c(C#N)cnn12

>  <canonical_smi>  (188) 
CC(C)Nc1cc(NC2CCC(N)CC2)nc2c(C#N)cnn12

>  <Set>  (188) 
G2 active

>  <Set_type>  (188) 
Train

>  <MW>  (188) 
313.41

>  <HBD>  (188) 
3

>  <HBA>  (188) 
6

>  <NRB>  (188) 
4

>  <NR>  (188) 
3

>  <NAR>  (188) 
2

>  <PSA>  (188) 
104.06

>  <Standard Type>  (188) 
nan

>  <Standard Relation>  (188) 
nan

>  <Standard Units>  (188) 
nan

>  <Standard Value>  (188) 
nan

>  <Assay ChEMBL ID>  (188) 
nan

>  <Assay Description>  (188) 
nan

>  <BAO Label>  (188) 
nan

$$$$

     RDKit          2D

 24 26  0  0  0  0  0  0  0  0999 V2000
   -0.5773   -4.2803    0.0000 C   0  0  0  0  0  0  0  0  0  0  0  0
    0.8899   -3.9684    0.0000 C   0  0  0  0  0  0  0  0  0  0  0  0
    2.0046   -4.9721    0.0000 N   0  0  0  0  0  0  0  0  0  0  0  0
    3.3037   -4.2221    0.0000 C   0  0  0  0  0  0  0  0  0  0  0  0
    4.6740   -4.8322    0.0000 N   0  0  0  0  0  4  0  0  0  0  0  0
    5.8875   -3.9505    0.0000 O   0  0  0  0  0  0  0  0  0  0  0  0
    4.8308   -6.3240    0.0000 O   0  0  0  0  0  1  0  0  0  0  0  0
    2.9918   -2.7549    0.0000 C   0  0  0  0  0  0  0  0  0  0  0  0
    3.9955   -1.6402    0.0000 C   0  0  0  0  0  0  0  0  0  0  0  0
    1.5000   -2.5981    0.0000 C   0  0  0  0  0  0  0  0  0  0  0  0
    0.7500   -1.2990    0.0000 C   0  0  0  0  0  0  0  0  0  0  0  0
    1.5000    0.0000    0.0000 C   0  0  0  0  0  0  0  0  0  0  0  0
    0.7500    1.2990    0.0000 C   0  0  0  0  0  0  0  0  0  0  0  0
   -0.7500    1.2990    0.0000 N   0  0  0  0  0  0  0  0  0  0  0  0
   -1.5000    0.0000    0.0000 C   0  0  0  0  0  0  0  0  0  0  0  0
   -3.0000    0.0000    0.0000 N   0  0  0  0  0  0  0  0  0  0  0  0
   -3.7500    1.2990    0.0000 C   0  0  0  0  0  0  0  0  0  0  0  0
   -3.0000    2.5981    0.0000 C   0  0  0  0  0  0  0  0  0  0  0  0
   -3.7500    3.8971    0.0000 C   0  0  0  0  0  0  0  0  0  0  0  0
   -5.2500    3.8971    0.0000 C   0  0  0  0  0  0  0  0  0  0  0  0
   -6.0000    5.1962    0.0000 F   0  0  0  0  0  0  0  0  0  0  0  0
   -6.0000    2.5981    0.0000 C   0  0  0  0  0  0  0  0  0  0  0  0
   -5.2500    1.2990    0.0000 C   0  0  0  0  0  0  0  0  0  0  0  0
   -0.7500   -1.2990    0.0000 N   0  0  0  0  0  0  0  0  0  0  0  0
  1  2  1  0
  2  3  1  0
  3  4  1  0
  4  5  1  0
  5  6  2  0
  5  7  1  0
  4  8  2  0
  8  9  1  0
  8 10  1  0
 10 11  1  0
 11 12  2  0
 12 13  1  0
 13 14  2  0
 14 15  1  0
 15 16  1  0
 16 17  1  0
 17 18  2  0
 18 19  1  0
 19 20  2  0
 20 21  1  0
 20 22  1  0
 22 23  2  0
 15 24  2  0
 10  2  2  0
 24 11  1  0
 23 17  1  0
M  CHG  2   5   1   7  -1
M  END
>  <Compound_ID>  (189) 
CHEMBL364767

>  <Active>  (189) 
1.0

>  <Smiles>  (189) 
Cc1[nH]c([N+](=O)[O-])c(C)c1-c1ccnc(Nc2ccc(F)cc2)n1

>  <canonical_smi>  (189) 
Cc1[nH]c([N+](=O)[O-])c(C)c1-c1ccnc(Nc2ccc(F)cc2)n1

>  <Set>  (189) 
G2 active

>  <Set_type>  (189) 
Train

>  <MW>  (189) 
327.32

>  <HBD>  (189) 
2

>  <HBA>  (189) 
5

>  <NRB>  (189) 
4

>  <NR>  (189) 
3

>  <NAR>  (189) 
3

>  <PSA>  (189) 
96.74

>  <Standard Type>  (189) 
nan

>  <Standard Relation>  (189) 
nan

>  <Standard Units>  (189) 
nan

>  <Standard Value>  (189) 
nan

>  <Assay ChEMBL ID>  (189) 
nan

>  <Assay Description>  (189) 
nan

>  <BAO Label>  (189) 
nan

$$$$

     RDKit          2D

 25 28  0  0  0  0  0  0  0  0999 V2000
    8.8568    0.3802    0.0000 C   0  0  0  0  0  0  0  0  0  0  0  0
    7.4865    0.9903    0.0000 S   0  0  0  0  0  0  0  0  0  0  0  0
    8.0966    2.3606    0.0000 O   0  0  0  0  0  0  0  0  0  0  0  0
    6.8764   -0.3800    0.0000 O   0  0  0  0  0  0  0  0  0  0  0  0
    6.1162    1.6004    0.0000 C   0  0  0  0  0  0  0  0  0  0  0  0
    4.9026    0.7188    0.0000 C   0  0  0  0  0  0  0  0  0  0  0  0
    3.5323    1.3289    0.0000 C   0  0  0  0  0  0  0  0  0  0  0  0
    3.3755    2.8206    0.0000 C   0  0  0  0  0  0  0  0  0  0  0  0
    2.0052    3.4307    0.0000 N   0  0  0  0  0  0  0  0  0  0  0  0
    1.6933    4.8980    0.0000 N   0  0  0  0  0  0  0  0  0  0  0  0
    0.2016    5.0548    0.0000 C   0  0  0  0  0  0  0  0  0  0  0  0
   -0.5484    6.3538    0.0000 C   0  0  0  0  0  0  0  0  0  0  0  0
    0.2016    7.6528    0.0000 N   0  0  0  0  0  0  0  0  0  0  0  0
   -2.0484    6.3538    0.0000 O   0  0  0  0  0  0  0  0  0  0  0  0
   -0.4086    3.6844    0.0000 C   0  0  0  0  0  0  0  0  0  0  0  0
    0.7062    2.6807    0.0000 C   0  0  0  0  0  0  0  0  0  0  0  0
    0.3943    1.2135    0.0000 C   0  0  0  0  0  0  0  0  0  0  0  0
    1.2760    0.0000    0.0000 C   0  0  0  0  0  0  0  0  0  0  0  0
    0.3943   -1.2135    0.0000 N   0  0  0  0  0  0  0  0  0  0  0  0
   -1.0323   -0.7500    0.0000 N   0  0  0  0  0  0  0  0  0  0  0  0
   -1.0323    0.7500    0.0000 C   0  0  0  0  0  0  0  0  0  0  0  0
   -2.1470    1.7537    0.0000 C   0  0  0  0  0  0  0  0  0  0  0  0
   -1.8351    3.2209    0.0000 C   0  0  0  0  0  0  0  0  0  0  0  0
    4.5890    3.7023    0.0000 C   0  0  0  0  0  0  0  0  0  0  0  0
    5.9594    3.0922    0.0000 C   0  0  0  0  0  0  0  0  0  0  0  0
  1  2  1  0
  2  3  2  0
  2  4  2  0
  2  5  1  0
  5  6  2  0
  6  7  1  0
  7  8  2  0
  8  9  1  0
  9 10  1  0
 10 11  2  0
 11 12  1  0
 12 13  1  0
 12 14  2  0
 11 15  1  0
 15 16  2  0
 16 17  1  0
 17 18  2  0
 18 19  1  0
 19 20  1  0
 20 21  2  0
 21 22  1  0
 22 23  1  0
  8 24  1  0
 24 25  2  0
 25  5  1  0
 16  9  1  0
 21 17  1  0
 23 15  1  0
M  END
>  <Compound_ID>  (190) 
CHEMBL178408

>  <Active>  (190) 
1.0

>  <Smiles>  (190) 
CS(=O)(=O)c1ccc(-n2nc(C(N)=O)c3c2-c2c[nH]nc2CC3)cc1

>  <canonical_smi>  (190) 
CS(=O)(=O)c1ccc(-n2nc(C(N)=O)c3c2-c2c[nH]nc2CC3)cc1

>  <Set>  (190) 
G2 active

>  <Set_type>  (190) 
Train

>  <MW>  (190) 
357.4

>  <HBD>  (190) 
2

>  <HBA>  (190) 
5

>  <NRB>  (190) 
3

>  <NR>  (190) 
4

>  <NAR>  (190) 
3

>  <PSA>  (190) 
123.73

>  <Standard Type>  (190) 
nan

>  <Standard Relation>  (190) 
nan

>  <Standard Units>  (190) 
nan

>  <Standard Value>  (190) 
nan

>  <Assay ChEMBL ID>  (190) 
nan

>  <Assay Description>  (190) 
nan

>  <BAO Label>  (190) 
nan

$$$$

     RDKit          2D

 28 31  0  0  0  0  0  0  0  0999 V2000
   -2.9520   -4.6564    0.0000 C   0  0  0  0  0  0  0  0  0  0  0  0
   -2.6401   -3.1891    0.0000 C   0  0  0  0  0  0  0  0  0  0  0  0
   -1.2135   -2.7256    0.0000 C   0  0  0  0  0  0  0  0  0  0  0  0
   -0.0000   -3.6073    0.0000 N   0  0  0  0  0  0  0  0  0  0  0  0
    1.2135   -2.7256    0.0000 N   0  0  0  0  0  0  0  0  0  0  0  0
    2.6401   -3.1891    0.0000 C   0  0  0  0  0  0  0  0  0  0  0  0
    2.9520   -4.6564    0.0000 C   0  0  0  0  0  0  0  0  0  0  0  0
    1.8373   -5.6601    0.0000 Cl  0  0  0  0  0  0  0  0  0  0  0  0
    4.3786   -5.1199    0.0000 C   0  0  0  0  0  0  0  0  0  0  0  0
    5.4933   -4.1162    0.0000 C   0  0  0  0  0  0  0  0  0  0  0  0
    6.9199   -4.5797    0.0000 Cl  0  0  0  0  0  0  0  0  0  0  0  0
    5.1814   -2.6490    0.0000 C   0  0  0  0  0  0  0  0  0  0  0  0
    3.7548   -2.1855    0.0000 C   0  0  0  0  0  0  0  0  0  0  0  0
    3.4430   -0.7182    0.0000 Cl  0  0  0  0  0  0  0  0  0  0  0  0
    0.7500   -1.2990    0.0000 C   0  0  0  0  0  0  0  0  0  0  0  0
    1.5000    0.0000    0.0000 N   0  0  0  0  0  0  0  0  0  0  0  0
    0.7500    1.2990    0.0000 C   0  0  0  0  0  0  0  0  0  0  0  0
    1.5000    2.5981    0.0000 C   0  0  0  0  0  0  0  0  0  0  0  0
    3.0000    2.5981    0.0000 C   0  0  0  0  0  0  0  0  0  0  0  0
    3.7500    1.2990    0.0000 C   0  0  0  0  0  0  0  0  0  0  0  0
    5.2500    1.2990    0.0000 C   0  0  0  0  0  0  0  0  0  0  0  0
    6.0000    2.5981    0.0000 N   0  0  0  0  0  0  0  0  0  0  0  0
    5.2500    3.8971    0.0000 C   0  0  0  0  0  0  0  0  0  0  0  0
    3.7500    3.8971    0.0000 C   0  0  0  0  0  0  0  0  0  0  0  0
   -0.7500    1.2990    0.0000 N   0  0  0  0  0  0  0  0  0  0  0  0
   -1.5000    0.0000    0.0000 C   0  0  0  0  0  0  0  0  0  0  0  0
   -3.0000    0.0000    0.0000 O   0  0  0  0  0  0  0  0  0  0  0  0
   -0.7500   -1.2990    0.0000 C   0  0  0  0  0  0  0  0  0  0  0  0
  1  2  1  0
  2  3  1  0
  3  4  2  0
  4  5  1  0
  5  6  1  0
  6  7  2  0
  7  8  1  0
  7  9  1  0
  9 10  2  0
 10 11  1  0
 10 12  1  0
 12 13  2  0
 13 14  1  0
  5 15  1  0
 15 16  2  0
 16 17  1  0
 17 18  1  0
 18 19  1  0
 19 20  2  0
 20 21  1  0
 21 22  2  0
 22 23  1  0
 23 24  2  0
 17 25  2  0
 25 26  1  0
 26 27  1  0
 26 28  2  0
 28  3  1  0
 13  6  1  0
 28 15  1  0
 24 19  1  0
M  END
>  <Compound_ID>  (191) 
CHEMBL188863

>  <Active>  (191) 
1.0

>  <Smiles>  (191) 
CCc1nn(-c2c(Cl)cc(Cl)cc2Cl)c2nc(Cc3ccncc3)nc(O)c12

>  <canonical_smi>  (191) 
CCc1nn(-c2c(Cl)cc(Cl)cc2Cl)c2nc(Cc3ccncc3)nc(O)c12

>  <Set>  (191) 
G2 active

>  <Set_type>  (191) 
Train

>  <MW>  (191) 
434.71

>  <HBD>  (191) 
1

>  <HBA>  (191) 
5

>  <NRB>  (191) 
4

>  <NR>  (191) 
4

>  <NAR>  (191) 
4

>  <PSA>  (191) 
76.72

>  <Standard Type>  (191) 
nan

>  <Standard Relation>  (191) 
nan

>  <Standard Units>  (191) 
nan

>  <Standard Value>  (191) 
nan

>  <Assay ChEMBL ID>  (191) 
nan

>  <Assay Description>  (191) 
nan

>  <BAO Label>  (191) 
nan

$$$$

     RDKit          2D

 31 35  0  0  0  0  0  0  0  0999 V2000
   -2.5565   -7.4827    0.0000 N   0  0  0  0  0  0  0  0  0  0  0  0
   -1.4418   -6.4791    0.0000 C   0  0  0  0  0  0  0  0  0  0  0  0
   -0.0152   -6.9426    0.0000 O   0  0  0  0  0  0  0  0  0  0  0  0
   -1.7537   -5.0118    0.0000 C   0  0  0  0  0  0  0  0  0  0  0  0
   -3.1240   -4.4017    0.0000 N   0  0  0  0  0  0  0  0  0  0  0  0
   -2.9672   -2.9099    0.0000 N   0  0  0  0  0  0  0  0  0  0  0  0
   -4.0819   -1.9062    0.0000 C   0  0  0  0  0  0  0  0  0  0  0  0
   -5.5085   -2.3698    0.0000 C   0  0  0  0  0  0  0  0  0  0  0  0
   -6.6232   -1.3661    0.0000 N   0  0  0  0  0  0  0  0  0  0  0  0
   -6.3114    0.1011    0.0000 C   0  0  0  0  0  0  0  0  0  0  0  0
   -7.4261    1.1048    0.0000 C   0  0  0  0  0  0  0  0  0  0  0  0
   -8.8527    0.6413    0.0000 C   0  0  0  0  0  0  0  0  0  0  0  0
   -9.1645   -0.8259    0.0000 C   0  0  0  0  0  0  0  0  0  0  0  0
   -8.0498   -1.8296    0.0000 C   0  0  0  0  0  0  0  0  0  0  0  0
   -1.5000   -2.5981    0.0000 C   0  0  0  0  0  0  0  0  0  0  0  0
   -0.7500   -3.8971    0.0000 C   0  0  0  0  0  0  0  0  0  0  0  0
    0.7500   -3.8971    0.0000 C   0  0  0  0  0  0  0  0  0  0  0  0
    1.5000   -2.5981    0.0000 C   0  0  0  0  0  0  0  0  0  0  0  0
    0.7500   -1.2990    0.0000 C   0  0  0  0  0  0  0  0  0  0  0  0
    1.5000    0.0000    0.0000 C   0  0  0  0  0  0  0  0  0  0  0  0
    0.7500    1.2990    0.0000 N   0  0  0  0  0  0  0  0  0  0  0  0
   -0.7500    1.2990    0.0000 C   0  0  0  0  0  0  0  0  0  0  0  0
   -1.5000    2.5981    0.0000 N   0  0  0  0  0  0  0  0  0  0  0  0
   -0.7500    3.8971    0.0000 C   0  0  0  0  0  0  0  0  0  0  0  0
    0.7500    3.8971    0.0000 C   0  0  0  0  0  0  0  0  0  0  0  0
    1.5000    5.1962    0.0000 C   0  0  0  0  0  0  0  0  0  0  0  0
    0.7500    6.4952    0.0000 C   0  0  0  0  0  0  0  0  0  0  0  0
   -0.7500    6.4952    0.0000 C   0  0  0  0  0  0  0  0  0  0  0  0
   -1.5000    5.1962    0.0000 C   0  0  0  0  0  0  0  0  0  0  0  0
   -1.5000    0.0000    0.0000 N   0  0  0  0  0  0  0  0  0  0  0  0
   -0.7500   -1.2990    0.0000 C   0  0  0  0  0  0  0  0  0  0  0  0
  1  2  1  0
  2  3  2  0
  2  4  1  0
  4  5  2  0
  5  6  1  0
  6  7  1  0
  7  8  1  0
  8  9  1  0
  9 10  1  0
 10 11  1  0
 11 12  1  0
 12 13  1  0
 13 14  1  0
  6 15  1  0
 15 16  2  0
 16 17  1  0
 17 18  1  0
 18 19  1  0
 19 20  2  0
 20 21  1  0
 21 22  2  0
 22 23  1  0
 23 24  1  0
 24 25  2  0
 25 26  1  0
 26 27  2  0
 27 28  1  0
 28 29  2  0
 22 30  1  0
 30 31  2  0
 16  4  1  0
 31 19  1  0
 14  9  1  0
 31 15  1  0
 29 24  1  0
M  END
>  <Compound_ID>  (192) 
CHEMBL1098058

>  <Active>  (192) 
1.0

>  <Smiles>  (192) 
NC(=O)c1nn(CCN2CCCCC2)c2c1CCc1cnc(Nc3ccccc3)nc1-2

>  <canonical_smi>  (192) 
NC(=O)c1nn(CCN2CCCCC2)c2c1CCc1cnc(Nc3ccccc3)nc1-2

>  <Set>  (192) 
G2 active

>  <Set_type>  (192) 
Train

>  <MW>  (192) 
417.52

>  <HBD>  (192) 
2

>  <HBA>  (192) 
6

>  <NRB>  (192) 
6

>  <NR>  (192) 
5

>  <NAR>  (192) 
3

>  <PSA>  (192) 
101.96

>  <Standard Type>  (192) 
nan

>  <Standard Relation>  (192) 
nan

>  <Standard Units>  (192) 
nan

>  <Standard Value>  (192) 
nan

>  <Assay ChEMBL ID>  (192) 
nan

>  <Assay Description>  (192) 
nan

>  <BAO Label>  (192) 
nan

$$$$

     RDKit          2D

 24 26  0  0  0  0  0  0  0  0999 V2000
    5.8875   -3.9505    0.0000 C   0  0  0  0  0  0  0  0  0  0  0  0
    4.6740   -4.8322    0.0000 C   0  0  0  0  0  0  0  0  0  0  0  0
    4.8308   -6.3240    0.0000 C   0  0  0  0  0  0  0  0  0  0  0  0
    3.7160   -7.3277    0.0000 S   0  0  0  0  0  0  0  0  0  0  0  0
    4.3261   -8.6980    0.0000 C   0  0  0  0  0  0  0  0  0  0  0  0
    3.5761   -9.9970    0.0000 N   0  0  0  0  0  0  0  0  0  0  0  0
    5.8179   -8.5412    0.0000 N   0  0  0  0  0  0  0  0  0  0  0  0
    6.1298   -7.0740    0.0000 C   0  0  0  0  0  0  0  0  0  0  0  0
    7.5001   -6.4639    0.0000 O   0  0  0  0  0  0  0  0  0  0  0  0
    3.3037   -4.2221    0.0000 C   0  0  0  0  0  0  0  0  0  0  0  0
    2.0046   -4.9721    0.0000 C   0  0  0  0  0  0  0  0  0  0  0  0
    0.8899   -3.9684    0.0000 C   0  0  0  0  0  0  0  0  0  0  0  0
    1.5000   -2.5981    0.0000 C   0  0  0  0  0  0  0  0  0  0  0  0
    0.7500   -1.2990    0.0000 C   0  0  0  0  0  0  0  0  0  0  0  0
    1.5000    0.0000    0.0000 C   0  0  0  0  0  0  0  0  0  0  0  0
    0.7500    1.2990    0.0000 C   0  0  0  0  0  0  0  0  0  0  0  0
   -0.7500    1.2990    0.0000 C   0  0  0  0  0  0  0  0  0  0  0  0
   -1.5000    2.5981    0.0000 S   0  0  0  0  0  0  0  0  0  0  0  0
   -2.2500    3.8971    0.0000 N   0  0  0  0  0  0  0  0  0  0  0  0
   -0.2010    3.3481    0.0000 O   0  0  0  0  0  0  0  0  0  0  0  0
   -2.7990    1.8481    0.0000 O   0  0  0  0  0  0  0  0  0  0  0  0
   -1.5000    0.0000    0.0000 C   0  0  0  0  0  0  0  0  0  0  0  0
   -0.7500   -1.2990    0.0000 C   0  0  0  0  0  0  0  0  0  0  0  0
    2.9918   -2.7549    0.0000 O   0  0  0  0  0  0  0  0  0  0  0  0
  1  2  1  0
  2  3  2  0
  3  4  1  0
  4  5  1  0
  5  6  2  0
  5  7  1  0
  7  8  1  0
  8  9  2  0
  2 10  1  0
 10 11  2  0
 11 12  1  0
 12 13  2  0
 13 14  1  0
 14 15  2  0
 15 16  1  0
 16 17  2  0
 17 18  1  0
 18 19  1  0
 18 20  2  0
 18 21  2  0
 17 22  1  0
 22 23  2  0
 13 24  1  0
  8  3  1  0
 24 10  1  0
 23 14  1  0
M  END
>  <Compound_ID>  (193) 
CHEMBL231950

>  <Active>  (193) 
1.0

>  <Smiles>  (193) 
C/C(=C1/SC(=N)NC1=O)c1ccc(-c2ccc(S(N)(=O)=O)cc2)o1

>  <canonical_smi>  (193) 
C/C(=C1/SC(=N)NC1=O)c1ccc(-c2ccc(S(N)(=O)=O)cc2)o1

>  <Set>  (193) 
G2 active

>  <Set_type>  (193) 
Train

>  <MW>  (193) 
363.42

>  <HBD>  (193) 
3

>  <HBA>  (193) 
5

>  <NRB>  (193) 
3

>  <NR>  (193) 
3

>  <NAR>  (193) 
2

>  <PSA>  (193) 
126.25

>  <Standard Type>  (193) 
nan

>  <Standard Relation>  (193) 
nan

>  <Standard Units>  (193) 
nan

>  <Standard Value>  (193) 
nan

>  <Assay ChEMBL ID>  (193) 
nan

>  <Assay Description>  (193) 
nan

>  <BAO Label>  (193) 
nan

$$$$

     RDKit          2D

 25 27  0  0  0  0  0  0  0  0999 V2000
    6.5218   -4.2298    0.0000 C   0  0  0  0  0  0  0  0  0  0  0  0
    5.3083   -3.3481    0.0000 C   0  0  0  0  0  0  0  0  0  0  0  0
    3.8817   -3.8116    0.0000 C   0  0  0  0  0  0  0  0  0  0  0  0
    3.0000   -2.5981    0.0000 C   0  0  0  0  0  0  0  0  0  0  0  0
    1.5000   -2.5981    0.0000 N   0  0  0  0  0  0  0  0  0  0  0  0
    0.7500   -1.2990    0.0000 C   0  0  0  0  0  0  0  0  0  0  0  0
    1.5000    0.0000    0.0000 C   0  0  0  0  0  0  0  0  0  0  0  0
    0.7500    1.2990    0.0000 N   0  0  0  0  0  0  0  0  0  0  0  0
   -0.7500    1.2990    0.0000 C   0  0  0  0  0  0  0  0  0  0  0  0
   -1.5000    2.5981    0.0000 C   0  0  0  0  0  0  0  0  0  0  0  0
   -2.2500    3.8971    0.0000 N   0  0  0  0  0  0  0  0  0  0  0  0
   -1.5000    0.0000    0.0000 C   0  0  0  0  0  0  0  0  0  0  0  0
   -3.0000    0.0000    0.0000 N   0  0  0  0  0  0  0  0  0  0  0  0
   -3.7500   -1.2990    0.0000 C   0  0  0  0  0  0  0  0  0  0  0  0
   -5.2500   -1.2990    0.0000 C   0  0  0  0  0  0  0  0  0  0  0  0
   -3.0000   -2.5981    0.0000 C   0  0  0  0  0  0  0  0  0  0  0  0
   -3.7500   -3.8971    0.0000 C   0  0  0  0  0  0  0  0  0  0  0  0
   -3.0000   -5.1962    0.0000 C   0  0  0  0  0  0  0  0  0  0  0  0
   -1.5000   -5.1962    0.0000 C   0  0  0  0  0  0  0  0  0  0  0  0
   -0.7500   -6.4952    0.0000 F   0  0  0  0  0  0  0  0  0  0  0  0
   -0.7500   -3.8971    0.0000 C   0  0  0  0  0  0  0  0  0  0  0  0
   -1.5000   -2.5981    0.0000 N   0  0  0  0  0  0  0  0  0  0  0  0
   -0.7500   -1.2990    0.0000 N   0  0  0  0  0  0  0  0  0  0  0  0
    3.8817   -1.3846    0.0000 N   0  0  0  0  0  0  0  0  0  0  0  0
    5.3083   -1.8481    0.0000 N   0  0  0  0  0  0  0  0  0  0  0  0
  1  2  1  0
  2  3  2  0
  3  4  1  0
  4  5  1  0
  5  6  1  0
  6  7  2  0
  7  8  1  0
  8  9  2  0
  9 10  1  0
 10 11  3  0
  9 12  1  0
 12 13  1  0
 13 14  1  0
 14 15  1  6
 14 16  1  0
 16 17  2  0
 17 18  1  0
 18 19  2  0
 19 20  1  0
 19 21  1  0
 21 22  2  0
 12 23  2  0
  4 24  2  0
 24 25  1  0
 25  2  1  0
 23  6  1  0
 22 16  1  0
M  END
>  <Compound_ID>  (194) 
CHEMBL576257

>  <Active>  (194) 
1.0

>  <Smiles>  (194) 
Cc1cc(Nc2cnc(C#N)c(N[C@@H](C)c3ccc(F)cn3)n2)n[nH]1

>  <canonical_smi>  (194) 
Cc1cc(Nc2cnc(C#N)c(N[C@@H](C)c3ccc(F)cn3)n2)n[nH]1

>  <Set>  (194) 
G2 active

>  <Set_type>  (194) 
Train

>  <MW>  (194) 
338.35

>  <HBD>  (194) 
3

>  <HBA>  (194) 
7

>  <NRB>  (194) 
5

>  <NR>  (194) 
3

>  <NAR>  (194) 
3

>  <PSA>  (194) 
115.2

>  <Standard Type>  (194) 
nan

>  <Standard Relation>  (194) 
nan

>  <Standard Units>  (194) 
nan

>  <Standard Value>  (194) 
nan

>  <Assay ChEMBL ID>  (194) 
nan

>  <Assay Description>  (194) 
nan

>  <BAO Label>  (194) 
nan

$$$$

     RDKit          2D

 22 25  0  0  0  0  0  0  0  0999 V2000
   -1.2114    6.1554    0.0000 O   0  0  0  0  0  0  0  0  0  0  0  0
   -2.6380    5.6918    0.0000 C   0  0  0  0  0  0  0  0  0  0  0  0
   -2.9499    4.2246    0.0000 C   0  0  0  0  0  0  0  0  0  0  0  0
   -1.8351    3.2209    0.0000 C   0  0  0  0  0  0  0  0  0  0  0  0
   -0.4086    3.6844    0.0000 C   0  0  0  0  0  0  0  0  0  0  0  0
    0.7062    2.6807    0.0000 C   0  0  0  0  0  0  0  0  0  0  0  0
    0.3943    1.2135    0.0000 C   0  0  0  0  0  0  0  0  0  0  0  0
    1.2760    0.0000    0.0000 N   0  0  0  0  0  0  0  0  0  0  0  0
    0.3943   -1.2135    0.0000 C   0  0  0  0  0  0  0  0  0  0  0  0
   -1.0323   -0.7500    0.0000 N   0  0  0  0  0  0  0  0  0  0  0  0
   -1.0323    0.7500    0.0000 C   0  0  0  0  0  0  0  0  0  0  0  0
   -2.1470    1.7537    0.0000 C   0  0  0  0  0  0  0  0  0  0  0  0
   -3.7527    6.6955    0.0000 N   0  0  0  0  0  0  0  0  0  0  0  0
   -3.4408    8.1628    0.0000 C   0  0  0  0  0  0  0  0  0  0  0  0
   -4.4445    9.2775    0.0000 N   0  0  0  0  0  0  0  0  0  0  0  0
   -3.6945   10.5765    0.0000 C   0  0  0  0  0  0  0  0  0  0  0  0
   -2.2273   10.2646    0.0000 C   0  0  0  0  0  0  0  0  0  0  0  0
   -1.1126   11.2683    0.0000 C   0  0  0  0  0  0  0  0  0  0  0  0
    0.3854   11.1898    0.0000 C   0  0  0  0  0  0  0  0  0  0  0  0
    0.4639   12.6878    0.0000 C   0  0  0  0  0  0  0  0  0  0  0  0
   -1.0341   12.7663    0.0000 C   0  0  0  0  0  0  0  0  0  0  0  0
   -2.0705    8.7729    0.0000 S   0  0  0  0  0  0  0  0  0  0  0  0
  1  2  2  0
  2  3  1  0
  3  4  1  0
  4  5  2  0
  5  6  1  0
  6  7  2  0
  7  8  1  0
  8  9  1  0
  9 10  2  0
 10 11  1  0
 11 12  2  0
  2 13  1  0
 13 14  1  0
 14 15  2  0
 15 16  1  0
 16 17  2  0
 17 18  1  0
 18 19  1  0
 19 20  1  0
 20 21  1  0
 17 22  1  0
 12  4  1  0
 22 14  1  0
 11  7  1  0
 21 18  1  0
M  END
>  <Compound_ID>  (195) 
CHEMBL186898

>  <Active>  (195) 
1.0

>  <Smiles>  (195) 
O=C(Cc1ccc2[nH]cnc2c1)Nc1ncc(C2CCC2)s1

>  <canonical_smi>  (195) 
O=C(Cc1ccc2[nH]cnc2c1)Nc1ncc(C2CCC2)s1

>  <Set>  (195) 
G2 active

>  <Set_type>  (195) 
Train

>  <MW>  (195) 
312.4

>  <HBD>  (195) 
2

>  <HBA>  (195) 
3

>  <NRB>  (195) 
4

>  <NR>  (195) 
4

>  <NAR>  (195) 
3

>  <PSA>  (195) 
70.67

>  <Standard Type>  (195) 
nan

>  <Standard Relation>  (195) 
nan

>  <Standard Units>  (195) 
nan

>  <Standard Value>  (195) 
nan

>  <Assay ChEMBL ID>  (195) 
nan

>  <Assay Description>  (195) 
nan

>  <BAO Label>  (195) 
nan

$$$$

     RDKit          2D

 30 33  0  0  0  0  0  0  0  0999 V2000
   -0.0000   -5.1073    0.0000 N   0  0  0  0  0  0  0  0  0  0  0  0
   -0.0000   -3.6073    0.0000 C   0  0  0  0  0  0  0  0  0  0  0  0
    1.2135   -2.7256    0.0000 N   0  0  0  0  0  0  0  0  0  0  0  0
    0.7500   -1.2990    0.0000 C   0  0  0  0  0  0  0  0  0  0  0  0
    1.5000    0.0000    0.0000 C   0  0  0  0  0  0  0  0  0  0  0  0
    0.7500    1.2990    0.0000 C   0  0  0  0  0  0  0  0  0  0  0  0
   -0.7500    1.2990    0.0000 C   0  0  0  0  0  0  0  0  0  0  0  0
   -1.5000    2.5981    0.0000 C   0  0  0  0  0  0  0  0  0  0  0  0
   -3.0000    2.5981    0.0000 O   0  0  0  0  0  0  0  0  0  0  0  0
   -0.7500    3.8971    0.0000 C   0  0  0  0  0  0  0  0  0  0  0  0
    0.7500    3.8971    0.0000 C   0  0  0  0  0  0  0  0  0  0  0  0
    1.5000    2.5981    0.0000 F   0  0  0  0  0  0  0  0  0  0  0  0
    1.5000    5.1962    0.0000 C   0  0  0  0  0  0  0  0  0  0  0  0
    0.7500    6.4952    0.0000 C   0  0  0  0  0  0  0  0  0  0  0  0
   -0.7500    6.4952    0.0000 C   0  0  0  0  0  0  0  0  0  0  0  0
   -1.5000    5.1962    0.0000 C   0  0  0  0  0  0  0  0  0  0  0  0
   -3.0000    5.1962    0.0000 Cl  0  0  0  0  0  0  0  0  0  0  0  0
   -1.5000    0.0000    0.0000 C   0  0  0  0  0  0  0  0  0  0  0  0
   -0.7500   -1.2990    0.0000 N   0  0  0  0  0  0  0  0  0  0  0  0
   -1.2135   -2.7256    0.0000 C   0  0  0  0  0  0  0  0  0  0  0  0
   -2.6401   -3.1891    0.0000 C   0  0  0  0  0  0  0  0  0  0  0  0
   -2.9520   -4.6564    0.0000 O   0  0  0  0  0  0  0  0  0  0  0  0
   -3.7548   -2.1855    0.0000 C   0  0  0  0  0  0  0  0  0  0  0  0
   -3.4430   -0.7182    0.0000 C   0  0  0  0  0  0  0  0  0  0  0  0
   -2.2981   -0.0028    0.0000 F   0  0  0  0  0  0  0  0  0  0  0  0
   -4.5577    0.2855    0.0000 C   0  0  0  0  0  0  0  0  0  0  0  0
   -5.9843   -0.1781    0.0000 C   0  0  0  0  0  0  0  0  0  0  0  0
   -6.2961   -1.6453    0.0000 C   0  0  0  0  0  0  0  0  0  0  0  0
   -5.1814   -2.6490    0.0000 C   0  0  0  0  0  0  0  0  0  0  0  0
   -5.4933   -4.1162    0.0000 F   0  0  0  0  0  0  0  0  0  0  0  0
  1  2  1  0
  2  3  1  0
  3  4  2  0
  4  5  1  0
  5  6  2  0
  6  7  1  0
  7  8  1  0
  8  9  2  0
  8 10  1  0
 10 11  2  0
 11 12  1  0
 11 13  1  0
 13 14  2  0
 14 15  1  0
 15 16  2  0
 16 17  1  0
  7 18  2  0
 18 19  1  0
 19 20  1  0
 20 21  1  0
 21 22  2  0
 21 23  1  0
 23 24  2  0
 24 25  1  0
 24 26  1  0
 26 27  2  0
 27 28  1  0
 28 29  2  0
 29 30  1  0
 20  2  2  0
 29 23  1  0
 19  4  1  0
 16 10  1  0
M  END
>  <Compound_ID>  (196) 
CHEMBL183941

>  <Active>  (196) 
1.0

>  <Smiles>  (196) 
Nc1nc2ccc(C(=O)c3c(F)cccc3Cl)cn2c1C(=O)c1c(F)cccc1F

>  <canonical_smi>  (196) 
Nc1nc2ccc(C(=O)c3c(F)cccc3Cl)cn2c1C(=O)c1c(F)cccc1F

>  <Set>  (196) 
G2 active

>  <Set_type>  (196) 
Train

>  <MW>  (196) 
429.79

>  <HBD>  (196) 
1

>  <HBA>  (196) 
4

>  <NRB>  (196) 
4

>  <NR>  (196) 
4

>  <NAR>  (196) 
4

>  <PSA>  (196) 
77.46

>  <Standard Type>  (196) 
nan

>  <Standard Relation>  (196) 
nan

>  <Standard Units>  (196) 
nan

>  <Standard Value>  (196) 
nan

>  <Assay ChEMBL ID>  (196) 
nan

>  <Assay Description>  (196) 
nan

>  <BAO Label>  (196) 
nan

$$$$

     RDKit          2D

 34 37  0  0  0  0  0  0  0  0999 V2000
    1.8478   -6.4639    0.0000 C   0  0  0  0  0  0  0  0  0  0  0  0
    2.0046   -4.9721    0.0000 C   0  0  0  0  0  0  0  0  0  0  0  0
    3.3037   -4.2221    0.0000 N   0  0  0  0  0  0  0  0  0  0  0  0
    2.9918   -2.7549    0.0000 C   0  0  0  0  0  0  0  0  0  0  0  0
    1.5000   -2.5981    0.0000 C   0  0  0  0  0  0  0  0  0  0  0  0
    0.7500   -1.2990    0.0000 C   0  0  0  0  0  0  0  0  0  0  0  0
    1.5000    0.0000    0.0000 C   0  0  0  0  0  0  0  0  0  0  0  0
    0.7500    1.2990    0.0000 C   0  0  0  0  0  0  0  0  0  0  0  0
   -0.7500    1.2990    0.0000 N   0  0  0  0  0  0  0  0  0  0  0  0
   -1.5000    0.0000    0.0000 C   0  0  0  0  0  0  0  0  0  0  0  0
   -3.0000    0.0000    0.0000 N   0  0  0  0  0  0  0  0  0  0  0  0
   -3.7500    1.2990    0.0000 C   0  0  0  0  0  0  0  0  0  0  0  0
   -3.0000    2.5981    0.0000 C   0  0  0  0  0  0  0  0  0  0  0  0
   -3.7500    3.8971    0.0000 C   0  0  0  0  0  0  0  0  0  0  0  0
   -5.2500    3.8971    0.0000 C   0  0  0  0  0  0  0  0  0  0  0  0
   -6.0000    5.1962    0.0000 S   0  0  0  0  0  0  0  0  0  0  0  0
   -7.2990    4.4462    0.0000 O   0  0  0  0  0  0  0  0  0  0  0  0
   -4.7010    5.9462    0.0000 O   0  0  0  0  0  0  0  0  0  0  0  0
   -6.7500    6.4952    0.0000 C   0  0  0  0  0  0  0  0  0  0  0  0
   -8.2500    6.4952    0.0000 C   0  0  0  0  0  0  0  0  0  0  0  0
   -9.0000    7.7942    0.0000 C   0  0  0  0  0  0  0  0  0  0  0  0
  -10.5000    7.7942    0.0000 N   0  0  0  0  0  0  0  0  0  0  0  0
  -11.2500    9.0933    0.0000 C   0  0  0  0  0  0  0  0  0  0  0  0
  -12.7500    9.0933    0.0000 C   0  0  0  0  0  0  0  0  0  0  0  0
  -13.5000    7.7942    0.0000 O   0  0  0  0  0  0  0  0  0  0  0  0
  -12.7500    6.4952    0.0000 C   0  0  0  0  0  0  0  0  0  0  0  0
  -11.2500    6.4952    0.0000 C   0  0  0  0  0  0  0  0  0  0  0  0
   -6.0000    2.5981    0.0000 C   0  0  0  0  0  0  0  0  0  0  0  0
   -5.2500    1.2990    0.0000 C   0  0  0  0  0  0  0  0  0  0  0  0
   -0.7500   -1.2990    0.0000 N   0  0  0  0  0  0  0  0  0  0  0  0
    0.8899   -3.9684    0.0000 N   0  0  0  0  0  0  0  0  0  0  0  0
   -0.5773   -4.2803    0.0000 C   0  0  0  0  0  0  0  0  0  0  0  0
   -1.0409   -5.7068    0.0000 C   0  0  0  0  0  0  0  0  0  0  0  0
   -1.5810   -3.1655    0.0000 C   0  0  0  0  0  0  0  0  0  0  0  0
  1  2  1  0
  2  3  2  0
  3  4  1  0
  4  5  2  0
  5  6  1  0
  6  7  2  0
  7  8  1  0
  8  9  2  0
  9 10  1  0
 10 11  1  0
 11 12  1  0
 12 13  2  0
 13 14  1  0
 14 15  2  0
 15 16  1  0
 16 17  2  0
 16 18  2  0
 16 19  1  0
 19 20  1  0
 20 21  1  0
 21 22  1  0
 22 23  1  0
 23 24  1  0
 24 25  1  0
 25 26  1  0
 26 27  1  0
 15 28  1  0
 28 29  2  0
 10 30  2  0
  5 31  1  0
 31 32  1  0
 32 33  1  0
 32 34  1  0
 31  2  1  0
 30  6  1  0
 29 12  1  0
 27 22  1  0
M  END
>  <Compound_ID>  (197) 
CHEMBL457888

>  <Active>  (197) 
1.0

>  <Smiles>  (197) 
Cc1ncc(-c2ccnc(Nc3ccc(S(=O)(=O)CCCN4CCOCC4)cc3)n2)n1C(C)C

>  <canonical_smi>  (197) 
Cc1ncc(-c2ccnc(Nc3ccc(S(=O)(=O)CCCN4CCOCC4)cc3)n2)n1C(C)C

>  <Set>  (197) 
G2 active

>  <Set_type>  (197) 
Train

>  <MW>  (197) 
484.63

>  <HBD>  (197) 
1

>  <HBA>  (197) 
8

>  <NRB>  (197) 
9

>  <NR>  (197) 
4

>  <NAR>  (197) 
3

>  <PSA>  (197) 
102.24

>  <Standard Type>  (197) 
nan

>  <Standard Relation>  (197) 
nan

>  <Standard Units>  (197) 
nan

>  <Standard Value>  (197) 
nan

>  <Assay ChEMBL ID>  (197) 
nan

>  <Assay Description>  (197) 
nan

>  <BAO Label>  (197) 
nan

$$$$

     RDKit          2D

 21 25  0  0  0  0  0  0  0  0999 V2000
    0.8050    6.0661    0.0000 O   0  0  0  0  0  0  0  0  0  0  0  0
   -0.4086    5.1844    0.0000 C   0  0  0  0  0  0  0  0  0  0  0  0
   -1.8351    5.6480    0.0000 N   0  0  0  0  0  0  0  0  0  0  0  0
   -2.7168    4.4344    0.0000 C   0  0  0  0  0  0  0  0  0  0  0  0
   -4.1544    3.9831    0.0000 C   0  0  0  0  0  0  0  0  0  0  0  0
   -4.6179    2.5565    0.0000 C   0  0  0  0  0  0  0  0  0  0  0  0
   -6.0851    2.2447    0.0000 C   0  0  0  0  0  0  0  0  0  0  0  0
   -7.0888    3.3594    0.0000 O   0  0  0  0  0  0  0  0  0  0  0  0
   -6.5487    0.8181    0.0000 C   0  0  0  0  0  0  0  0  0  0  0  0
   -5.5450   -0.2966    0.0000 C   0  0  0  0  0  0  0  0  0  0  0  0
   -4.0778    0.0152    0.0000 C   0  0  0  0  0  0  0  0  0  0  0  0
   -3.6142    1.4418    0.0000 C   0  0  0  0  0  0  0  0  0  0  0  0
   -2.1470    1.7537    0.0000 C   0  0  0  0  0  0  0  0  0  0  0  0
   -1.0323    0.7500    0.0000 C   0  0  0  0  0  0  0  0  0  0  0  0
    0.3943    1.2135    0.0000 C   0  0  0  0  0  0  0  0  0  0  0  0
    0.7062    2.6807    0.0000 C   0  0  0  0  0  0  0  0  0  0  0  0
   -0.4086    3.6844    0.0000 C   0  0  0  0  0  0  0  0  0  0  0  0
   -1.8351    3.2209    0.0000 C   0  0  0  0  0  0  0  0  0  0  0  0
    1.2760    0.0000    0.0000 O   0  0  0  0  0  0  0  0  0  0  0  0
    0.3943   -1.2135    0.0000 C   0  0  0  0  0  0  0  0  0  0  0  0
   -1.0323   -0.7500    0.0000 O   0  0  0  0  0  0  0  0  0  0  0  0
  1  2  2  0
  2  3  1  0
  3  4  1  0
  4  5  2  0
  5  6  1  0
  6  7  2  0
  7  8  1  0
  7  9  1  0
  9 10  2  0
 10 11  1  0
 11 12  2  0
 12 13  1  0
 13 14  2  0
 14 15  1  0
 15 16  2  0
 16 17  1  0
 17 18  2  0
 15 19  1  0
 19 20  1  0
 20 21  1  0
 17  2  1  0
 18  4  1  0
 12  6  1  0
 18 13  1  0
 21 14  1  0
M  END
>  <Compound_ID>  (198) 
CHEMBL609040

>  <Active>  (198) 
1.0

>  <Smiles>  (198) 
O=C1Nc2cc3c(O)cccc3c3c4c(cc1c23)OCO4

>  <canonical_smi>  (198) 
O=C1Nc2cc3c(O)cccc3c3c4c(cc1c23)OCO4

>  <Set>  (198) 
G2 active

>  <Set_type>  (198) 
Train

>  <MW>  (198) 
279.25

>  <HBD>  (198) 
2

>  <HBA>  (198) 
4

>  <NRB>  (198) 
0

>  <NR>  (198) 
5

>  <NAR>  (198) 
3

>  <PSA>  (198) 
67.79

>  <Standard Type>  (198) 
nan

>  <Standard Relation>  (198) 
nan

>  <Standard Units>  (198) 
nan

>  <Standard Value>  (198) 
nan

>  <Assay ChEMBL ID>  (198) 
nan

>  <Assay Description>  (198) 
nan

>  <BAO Label>  (198) 
nan

$$$$

     RDKit          2D

 22 25  0  0  0  0  0  0  0  0999 V2000
   -3.7500   -3.8971    0.0000 O   0  0  0  0  0  0  0  0  0  0  0  0
   -3.0000   -5.1962    0.0000 C   0  0  0  0  0  0  0  0  0  0  0  0
   -1.5000   -5.1962    0.0000 C   0  0  0  0  0  0  0  0  0  0  0  0
   -0.7500   -3.8971    0.0000 C   0  0  0  0  0  0  0  0  0  0  0  0
    0.7500   -3.8971    0.0000 C   0  0  0  0  0  0  0  0  0  0  0  0
    1.5000   -2.5981    0.0000 C   0  0  0  0  0  0  0  0  0  0  0  0
    0.7500   -1.2990    0.0000 C   0  0  0  0  0  0  0  0  0  0  0  0
    1.5000    0.0000    0.0000 C   0  0  0  0  0  0  0  0  0  0  0  0
    0.7500    1.2990    0.0000 C   0  0  0  0  0  0  0  0  0  0  0  0
   -0.7500    1.2990    0.0000 C   0  0  0  0  0  0  0  0  0  0  0  0
   -1.5000    0.0000    0.0000 C   0  0  0  0  0  0  0  0  0  0  0  0
   -0.7500   -1.2990    0.0000 C   0  0  0  0  0  0  0  0  0  0  0  0
   -1.5000   -2.5981    0.0000 C   0  0  0  0  0  0  0  0  0  0  0  0
   -3.7500   -6.4952    0.0000 N   0  0  0  0  0  0  0  0  0  0  0  0
   -5.2500   -6.4952    0.0000 C   0  0  0  0  0  0  0  0  0  0  0  0
   -6.1317   -7.7087    0.0000 C   0  0  0  0  0  0  0  0  0  0  0  0
   -7.5583   -7.2452    0.0000 C   0  0  0  0  0  0  0  0  0  0  0  0
   -8.7718   -8.1269    0.0000 C   0  0  0  0  0  0  0  0  0  0  0  0
   -9.3819   -9.4972    0.0000 C   0  0  0  0  0  0  0  0  0  0  0  0
  -10.2636   -8.2837    0.0000 C   0  0  0  0  0  0  0  0  0  0  0  0
   -7.5583   -5.7452    0.0000 N   0  0  0  0  0  0  0  0  0  0  0  0
   -6.1317   -5.2817    0.0000 N   0  0  0  0  0  0  0  0  0  0  0  0
  1  2  2  0
  2  3  1  0
  3  4  1  0
  4  5  2  0
  5  6  1  0
  6  7  2  0
  7  8  1  0
  8  9  2  0
  9 10  1  0
 10 11  2  0
 11 12  1  0
 12 13  2  0
  2 14  1  0
 14 15  1  0
 15 16  1  0
 16 17  2  0
 17 18  1  0
 18 19  1  0
 19 20  1  0
 17 21  1  0
 21 22  1  0
 13  4  1  0
 22 15  2  0
 12  7  1  0
 20 18  1  0
M  END
>  <Compound_ID>  (199) 
CHEMBL115220

>  <Active>  (199) 
1.0

>  <Smiles>  (199) 
O=C(Cc1ccc2ccccc2c1)Nc1cc(C2CC2)[nH]n1

>  <canonical_smi>  (199) 
O=C(Cc1ccc2ccccc2c1)Nc1cc(C2CC2)[nH]n1

>  <Set>  (199) 
G2 active

>  <Set_type>  (199) 
Train

>  <MW>  (199) 
291.35

>  <HBD>  (199) 
2

>  <HBA>  (199) 
2

>  <NRB>  (199) 
4

>  <NR>  (199) 
4

>  <NAR>  (199) 
3

>  <PSA>  (199) 
57.78

>  <Standard Type>  (199) 
nan

>  <Standard Relation>  (199) 
nan

>  <Standard Units>  (199) 
nan

>  <Standard Value>  (199) 
nan

>  <Assay ChEMBL ID>  (199) 
nan

>  <Assay Description>  (199) 
nan

>  <BAO Label>  (199) 
nan

$$$$

     RDKit          2D

 22 24  0  0  0  0  0  0  0  0999 V2000
   -6.0000   -0.0000    0.0000 C   0  0  0  0  0  0  0  0  0  0  0  0
   -5.2500   -1.2990    0.0000 C   0  0  0  0  0  0  0  0  0  0  0  0
   -3.7500   -1.2990    0.0000 C   0  0  0  0  0  0  0  0  0  0  0  0
   -3.0000   -2.5981    0.0000 C   0  0  0  0  0  0  0  0  0  0  0  0
   -1.5000   -2.5981    0.0000 N   0  0  0  0  0  0  0  0  0  0  0  0
   -0.7500   -3.8971    0.0000 C   0  0  0  0  0  0  0  0  0  0  0  0
   -1.5000   -5.1962    0.0000 O   0  0  0  0  0  0  0  0  0  0  0  0
    0.7500   -3.8971    0.0000 C   0  0  0  0  0  0  0  0  0  0  0  0
    1.5000   -2.5981    0.0000 C   0  0  0  0  0  0  0  0  0  0  0  0
    0.7500   -1.2990    0.0000 C   0  0  0  0  0  0  0  0  0  0  0  0
    1.5000    0.0000    0.0000 C   0  0  0  0  0  0  0  0  0  0  0  0
    0.7500    1.2990    0.0000 N   0  0  0  0  0  0  0  0  0  0  0  0
   -0.7500    1.2990    0.0000 C   0  0  0  0  0  0  0  0  0  0  0  0
   -1.5000    2.5981    0.0000 N   0  0  0  0  0  0  0  0  0  0  0  0
   -0.7500    3.8971    0.0000 C   0  0  0  0  0  0  0  0  0  0  0  0
    0.7500    3.8971    0.0000 C   0  0  0  0  0  0  0  0  0  0  0  0
    1.5000    5.1962    0.0000 C   0  0  0  0  0  0  0  0  0  0  0  0
    0.7500    6.4952    0.0000 C   0  0  0  0  0  0  0  0  0  0  0  0
   -0.7500    6.4952    0.0000 C   0  0  0  0  0  0  0  0  0  0  0  0
   -1.5000    5.1962    0.0000 C   0  0  0  0  0  0  0  0  0  0  0  0
   -1.5000    0.0000    0.0000 N   0  0  0  0  0  0  0  0  0  0  0  0
   -0.7500   -1.2990    0.0000 C   0  0  0  0  0  0  0  0  0  0  0  0
  1  2  1  0
  2  3  1  0
  3  4  1  0
  4  5  1  0
  5  6  1  0
  6  7  2  0
  6  8  1  0
  8  9  2  0
  9 10  1  0
 10 11  2  0
 11 12  1  0
 12 13  2  0
 13 14  1  0
 14 15  1  0
 15 16  2  0
 16 17  1  0
 17 18  2  0
 18 19  1  0
 19 20  2  0
 13 21  1  0
 21 22  2  0
 22  5  1  0
 22 10  1  0
 20 15  1  0
M  END
>  <Compound_ID>  (200) 
CHEMBL356603

>  <Active>  (200) 
1.0

>  <Smiles>  (200) 
CCCCn1c(=O)ccc2cnc(Nc3ccccc3)nc21

>  <canonical_smi>  (200) 
CCCCn1c(=O)ccc2cnc(Nc3ccccc3)nc21

>  <Set>  (200) 
G2 active

>  <Set_type>  (200) 
Train

>  <MW>  (200) 
294.36

>  <HBD>  (200) 
1

>  <HBA>  (200) 
4

>  <NRB>  (200) 
5

>  <NR>  (200) 
3

>  <NAR>  (200) 
3

>  <PSA>  (200) 
59.81

>  <Standard Type>  (200) 
nan

>  <Standard Relation>  (200) 
nan

>  <Standard Units>  (200) 
nan

>  <Standard Value>  (200) 
nan

>  <Assay ChEMBL ID>  (200) 
nan

>  <Assay Description>  (200) 
nan

>  <BAO Label>  (200) 
nan

$$$$

     RDKit          2D

 32 36  0  0  0  0  0  0  0  0999 V2000
   -8.5234   -7.7536    0.0000 C   0  0  0  0  0  0  0  0  0  0  0  0
   -7.0317   -7.5968    0.0000 O   0  0  0  0  0  0  0  0  0  0  0  0
   -6.4216   -6.2265    0.0000 C   0  0  0  0  0  0  0  0  0  0  0  0
   -7.3032   -5.0129    0.0000 C   0  0  0  0  0  0  0  0  0  0  0  0
   -6.6931   -3.6426    0.0000 C   0  0  0  0  0  0  0  0  0  0  0  0
   -5.2013   -3.4858    0.0000 C   0  0  0  0  0  0  0  0  0  0  0  0
   -4.5912   -2.1155    0.0000 C   0  0  0  0  0  0  0  0  0  0  0  0
   -5.3412   -0.8165    0.0000 N   0  0  0  0  0  0  0  0  0  0  0  0
   -4.3375    0.2982    0.0000 N   0  0  0  0  0  0  0  0  0  0  0  0
   -2.9672   -0.3119    0.0000 C   0  0  0  0  0  0  0  0  0  0  0  0
   -3.1240   -1.8037    0.0000 C   0  0  0  0  0  0  0  0  0  0  0  0
   -1.7537   -2.4138    0.0000 C   0  0  0  0  0  0  0  0  0  0  0  0
   -1.4418   -3.8810    0.0000 O   0  0  0  0  0  0  0  0  0  0  0  0
   -0.7500   -1.2990    0.0000 C   0  0  0  0  0  0  0  0  0  0  0  0
    0.7500   -1.2990    0.0000 C   0  0  0  0  0  0  0  0  0  0  0  0
    1.5000   -2.5981    0.0000 N   0  0  0  0  0  0  0  0  0  0  0  0
    3.0000   -2.5981    0.0000 C   0  0  0  0  0  0  0  0  0  0  0  0
    3.7500   -1.2990    0.0000 O   0  0  0  0  0  0  0  0  0  0  0  0
    3.7500   -3.8971    0.0000 C   0  0  0  0  0  0  0  0  0  0  0  0
    5.2500   -3.8971    0.0000 C   0  0  0  0  0  0  0  0  0  0  0  0
    6.0000   -5.1962    0.0000 C   0  0  0  0  0  0  0  0  0  0  0  0
    7.5000   -5.1962    0.0000 C   0  0  0  0  0  0  0  0  0  0  0  0
    8.2500   -3.8971    0.0000 C   0  0  0  0  0  0  0  0  0  0  0  0
    9.7500   -3.8971    0.0000 N   0  0  0  0  0  0  0  0  0  0  0  0
    7.5000   -2.5981    0.0000 C   0  0  0  0  0  0  0  0  0  0  0  0
    6.0000   -2.5981    0.0000 C   0  0  0  0  0  0  0  0  0  0  0  0
    1.5000    0.0000    0.0000 C   0  0  0  0  0  0  0  0  0  0  0  0
    0.7500    1.2990    0.0000 C   0  0  0  0  0  0  0  0  0  0  0  0
   -0.7500    1.2990    0.0000 C   0  0  0  0  0  0  0  0  0  0  0  0
   -1.5000    0.0000    0.0000 C   0  0  0  0  0  0  0  0  0  0  0  0
   -4.3197   -4.6994    0.0000 C   0  0  0  0  0  0  0  0  0  0  0  0
   -4.9298   -6.0697    0.0000 C   0  0  0  0  0  0  0  0  0  0  0  0
  1  2  1  0
  2  3  1  0
  3  4  2  0
  4  5  1  0
  5  6  2  0
  6  7  1  0
  7  8  1  0
  8  9  1  0
  9 10  2  0
 10 11  1  0
 11 12  1  0
 12 13  2  0
 12 14  1  0
 14 15  2  0
 15 16  1  0
 16 17  1  0
 17 18  2  0
 17 19  1  0
 19 20  1  0
 20 21  2  0
 21 22  1  0
 22 23  2  0
 23 24  1  0
 23 25  1  0
 25 26  2  0
 15 27  1  0
 27 28  2  0
 28 29  1  0
 29 30  2  0
  6 31  1  0
 31 32  2  0
 32  3  1  0
 11  7  2  0
 30 14  1  0
 30 10  1  0
 26 20  1  0
M  END
>  <Compound_ID>  (201) 
CHEMBL27275

>  <Active>  (201) 
1.0

>  <Smiles>  (201) 
COc1ccc(-c2[nH]nc3c2C(=O)c2c(NC(=O)Cc4ccc(N)cc4)cccc2-3)cc1

>  <canonical_smi>  (201) 
COc1ccc(-c2[nH]nc3c2C(=O)c2c(NC(=O)Cc4ccc(N)cc4)cccc2-3)cc1

>  <Set>  (201) 
G2 active

>  <Set_type>  (201) 
Train

>  <MW>  (201) 
424.46

>  <HBD>  (201) 
3

>  <HBA>  (201) 
5

>  <NRB>  (201) 
5

>  <NR>  (201) 
5

>  <NAR>  (201) 
5

>  <PSA>  (201) 
110.1

>  <Standard Type>  (201) 
nan

>  <Standard Relation>  (201) 
nan

>  <Standard Units>  (201) 
nan

>  <Standard Value>  (201) 
nan

>  <Assay ChEMBL ID>  (201) 
nan

>  <Assay Description>  (201) 
nan

>  <BAO Label>  (201) 
nan

$$$$

     RDKit          2D

 22 25  0  0  0  0  0  0  0  0999 V2000
   -3.0000   -5.1962    0.0000 O   0  0  0  0  0  0  0  0  0  0  0  0
   -3.7500   -3.8971    0.0000 C   0  0  0  0  0  0  0  0  0  0  0  0
   -3.0000   -2.5981    0.0000 C   0  0  0  0  0  0  0  0  0  0  0  0
   -1.5000   -2.5981    0.0000 C   0  0  0  0  0  0  0  0  0  0  0  0
   -0.7500   -3.8971    0.0000 C   0  0  0  0  0  0  0  0  0  0  0  0
    0.7500   -3.8971    0.0000 C   0  0  0  0  0  0  0  0  0  0  0  0
    1.5000   -2.5981    0.0000 C   0  0  0  0  0  0  0  0  0  0  0  0
    0.7500   -1.2990    0.0000 C   0  0  0  0  0  0  0  0  0  0  0  0
    1.5000    0.0000    0.0000 C   0  0  0  0  0  0  0  0  0  0  0  0
    0.7500    1.2990    0.0000 C   0  0  0  0  0  0  0  0  0  0  0  0
   -0.7500    1.2990    0.0000 C   0  0  0  0  0  0  0  0  0  0  0  0
   -1.5000    0.0000    0.0000 C   0  0  0  0  0  0  0  0  0  0  0  0
   -0.7500   -1.2990    0.0000 C   0  0  0  0  0  0  0  0  0  0  0  0
   -5.2500   -3.8971    0.0000 N   0  0  0  0  0  0  0  0  0  0  0  0
   -6.0000   -5.1962    0.0000 C   0  0  0  0  0  0  0  0  0  0  0  0
   -5.3899   -6.5665    0.0000 C   0  0  0  0  0  0  0  0  0  0  0  0
   -6.5046   -7.5702    0.0000 C   0  0  0  0  0  0  0  0  0  0  0  0
   -6.3478   -9.0619    0.0000 C   0  0  0  0  0  0  0  0  0  0  0  0
   -5.4661  -10.2755    0.0000 C   0  0  0  0  0  0  0  0  0  0  0  0
   -6.9579  -10.4323    0.0000 C   0  0  0  0  0  0  0  0  0  0  0  0
   -7.8037   -6.8202    0.0000 N   0  0  0  0  0  0  0  0  0  0  0  0
   -7.4918   -5.3529    0.0000 N   0  0  0  0  0  0  0  0  0  0  0  0
  1  2  2  0
  2  3  1  0
  3  4  1  0
  4  5  2  0
  5  6  1  0
  6  7  2  0
  7  8  1  0
  8  9  2  0
  9 10  1  0
 10 11  2  0
 11 12  1  0
 12 13  2  0
  2 14  1  0
 14 15  1  0
 15 16  1  0
 16 17  2  0
 17 18  1  0
 18 19  1  0
 19 20  1  0
 17 21  1  0
 21 22  1  0
 13  4  1  0
 22 15  2  0
 13  8  1  0
 20 18  1  0
M  END
>  <Compound_ID>  (202) 
CHEMBL326501

>  <Active>  (202) 
1.0

>  <Smiles>  (202) 
O=C(Cc1cccc2ccccc12)Nc1cc(C2CC2)[nH]n1

>  <canonical_smi>  (202) 
O=C(Cc1cccc2ccccc12)Nc1cc(C2CC2)[nH]n1

>  <Set>  (202) 
G2 active

>  <Set_type>  (202) 
Train

>  <MW>  (202) 
291.35

>  <HBD>  (202) 
2

>  <HBA>  (202) 
2

>  <NRB>  (202) 
4

>  <NR>  (202) 
4

>  <NAR>  (202) 
3

>  <PSA>  (202) 
57.78

>  <Standard Type>  (202) 
nan

>  <Standard Relation>  (202) 
nan

>  <Standard Units>  (202) 
nan

>  <Standard Value>  (202) 
nan

>  <Assay ChEMBL ID>  (202) 
nan

>  <Assay Description>  (202) 
nan

>  <BAO Label>  (202) 
nan

$$$$

     RDKit          2D

 22 25  0  0  0  0  0  0  0  0999 V2000
   -1.8373   -5.6601    0.0000 O   0  0  0  0  0  0  0  0  0  0  0  0
   -2.9520   -4.6564    0.0000 C   0  0  0  0  0  0  0  0  0  0  0  0
   -2.6401   -3.1891    0.0000 C   0  0  0  0  0  0  0  0  0  0  0  0
   -1.2135   -2.7256    0.0000 C   0  0  0  0  0  0  0  0  0  0  0  0
   -0.0000   -3.6073    0.0000 C   0  0  0  0  0  0  0  0  0  0  0  0
    1.2135   -2.7256    0.0000 N   0  0  0  0  0  0  0  0  0  0  0  0
    0.7500   -1.2990    0.0000 C   0  0  0  0  0  0  0  0  0  0  0  0
    1.5000    0.0000    0.0000 C   0  0  0  0  0  0  0  0  0  0  0  0
    0.7500    1.2990    0.0000 C   0  0  0  0  0  0  0  0  0  0  0  0
   -0.7500    1.2990    0.0000 C   0  0  0  0  0  0  0  0  0  0  0  0
   -1.5000    0.0000    0.0000 C   0  0  0  0  0  0  0  0  0  0  0  0
   -0.7500   -1.2990    0.0000 C   0  0  0  0  0  0  0  0  0  0  0  0
   -4.3786   -5.1199    0.0000 N   0  0  0  0  0  0  0  0  0  0  0  0
   -4.6904   -6.5871    0.0000 C   0  0  0  0  0  0  0  0  0  0  0  0
   -3.6867   -7.7018    0.0000 N   0  0  0  0  0  0  0  0  0  0  0  0
   -4.4367   -9.0009    0.0000 C   0  0  0  0  0  0  0  0  0  0  0  0
   -5.9040   -8.6890    0.0000 C   0  0  0  0  0  0  0  0  0  0  0  0
   -7.0187   -9.6927    0.0000 C   0  0  0  0  0  0  0  0  0  0  0  0
   -8.5166   -9.6142    0.0000 C   0  0  0  0  0  0  0  0  0  0  0  0
   -8.5951  -11.1121    0.0000 C   0  0  0  0  0  0  0  0  0  0  0  0
   -7.0972  -11.1906    0.0000 C   0  0  0  0  0  0  0  0  0  0  0  0
   -6.0607   -7.1972    0.0000 S   0  0  0  0  0  0  0  0  0  0  0  0
  1  2  2  0
  2  3  1  0
  3  4  1  0
  4  5  2  0
  5  6  1  0
  6  7  1  0
  7  8  2  0
  8  9  1  0
  9 10  2  0
 10 11  1  0
 11 12  2  0
  2 13  1  0
 13 14  1  0
 14 15  2  0
 15 16  1  0
 16 17  2  0
 17 18  1  0
 18 19  1  0
 19 20  1  0
 20 21  1  0
 17 22  1  0
 12  4  1  0
 22 14  1  0
 12  7  1  0
 21 18  1  0
M  END
>  <Compound_ID>  (203) 
CHEMBL186240

>  <Active>  (203) 
1.0

>  <Smiles>  (203) 
O=C(Cc1c[nH]c2ccccc12)Nc1ncc(C2CCC2)s1

>  <canonical_smi>  (203) 
O=C(Cc1c[nH]c2ccccc12)Nc1ncc(C2CCC2)s1

>  <Set>  (203) 
G2 active

>  <Set_type>  (203) 
Train

>  <MW>  (203) 
311.41

>  <HBD>  (203) 
2

>  <HBA>  (203) 
2

>  <NRB>  (203) 
4

>  <NR>  (203) 
4

>  <NAR>  (203) 
3

>  <PSA>  (203) 
57.78

>  <Standard Type>  (203) 
nan

>  <Standard Relation>  (203) 
nan

>  <Standard Units>  (203) 
nan

>  <Standard Value>  (203) 
nan

>  <Assay ChEMBL ID>  (203) 
nan

>  <Assay Description>  (203) 
nan

>  <BAO Label>  (203) 
nan

$$$$

     RDKit          2D

 26 28  0  0  0  0  0  0  0  0999 V2000
   -3.4408    8.1628    0.0000 C   0  0  0  0  0  0  0  0  0  0  0  0
   -3.7527    6.6955    0.0000 C   0  0  0  0  0  0  0  0  0  0  0  0
   -2.6380    5.6918    0.0000 C   0  0  0  0  0  0  0  0  0  0  0  0
   -1.2114    6.1554    0.0000 C   0  0  0  0  0  0  0  0  0  0  0  0
   -0.8995    7.6226    0.0000 O   0  0  0  0  0  0  0  0  0  0  0  0
   -2.9499    4.2246    0.0000 N   0  0  0  0  0  0  0  0  0  0  0  0
   -1.8351    3.2209    0.0000 C   0  0  0  0  0  0  0  0  0  0  0  0
   -0.4086    3.6844    0.0000 N   0  0  0  0  0  0  0  0  0  0  0  0
    0.7062    2.6807    0.0000 C   0  0  0  0  0  0  0  0  0  0  0  0
    2.1328    3.1443    0.0000 N   0  0  0  0  0  0  0  0  0  0  0  0
    2.4446    4.6115    0.0000 C   0  0  0  0  0  0  0  0  0  0  0  0
    3.8712    5.0750    0.0000 C   0  0  0  0  0  0  0  0  0  0  0  0
    4.9859    4.0713    0.0000 C   0  0  0  0  0  0  0  0  0  0  0  0
    6.4125    4.5348    0.0000 C   0  0  0  0  0  0  0  0  0  0  0  0
    6.7244    6.0021    0.0000 C   0  0  0  0  0  0  0  0  0  0  0  0
    5.6097    7.0058    0.0000 C   0  0  0  0  0  0  0  0  0  0  0  0
    4.1831    6.5422    0.0000 C   0  0  0  0  0  0  0  0  0  0  0  0
    0.3943    1.2135    0.0000 N   0  0  0  0  0  0  0  0  0  0  0  0
    1.2760    0.0000    0.0000 N   0  0  0  0  0  0  0  0  0  0  0  0
    0.3943   -1.2135    0.0000 C   0  0  0  0  0  0  0  0  0  0  0  0
   -1.0323   -0.7500    0.0000 C   0  0  0  0  0  0  0  0  0  0  0  0
   -2.2458   -1.6317    0.0000 C   0  0  0  0  0  0  0  0  0  0  0  0
   -2.0890   -3.1235    0.0000 C   0  0  0  0  0  0  0  0  0  0  0  0
   -3.6161   -1.0216    0.0000 C   0  0  0  0  0  0  0  0  0  0  0  0
   -1.0323    0.7500    0.0000 C   0  0  0  0  0  0  0  0  0  0  0  0
   -2.1470    1.7537    0.0000 N   0  0  0  0  0  0  0  0  0  0  0  0
  1  2  1  0
  3  2  1  6
  3  4  1  0
  4  5  1  0
  3  6  1  0
  6  7  1  0
  7  8  1  0
  8  9  2  0
  9 10  1  0
 10 11  1  0
 11 12  1  0
 12 13  2  0
 13 14  1  0
 14 15  2  0
 15 16  1  0
 16 17  2  0
  9 18  1  0
 18 19  1  0
 19 20  2  0
 20 21  1  0
 21 22  1  0
 22 23  1  0
 22 24  1  0
 21 25  2  0
 25 26  1  0
 26  7  2  0
 17 12  1  0
 25 18  1  0
M  END
>  <Compound_ID>  (204) 
CHEMBL482193

>  <Active>  (204) 
1.0

>  <Smiles>  (204) 
CC[C@H](CO)Nc1nc(NCc2ccccc2)n2ncc(C(C)C)c2n1

>  <canonical_smi>  (204) 
CC[C@H](CO)Nc1nc(NCc2ccccc2)n2ncc(C(C)C)c2n1

>  <Set>  (204) 
G2 active

>  <Set_type>  (204) 
Train

>  <MW>  (204) 
354.46

>  <HBD>  (204) 
3

>  <HBA>  (204) 
6

>  <NRB>  (204) 
8

>  <NR>  (204) 
3

>  <NAR>  (204) 
3

>  <PSA>  (204) 
87.37

>  <Standard Type>  (204) 
nan

>  <Standard Relation>  (204) 
nan

>  <Standard Units>  (204) 
nan

>  <Standard Value>  (204) 
nan

>  <Assay ChEMBL ID>  (204) 
nan

>  <Assay Description>  (204) 
nan

>  <BAO Label>  (204) 
nan

$$$$

     RDKit          2D

 28 31  0  0  0  0  0  0  0  0999 V2000
   -7.5000   -2.5981    0.0000 C   0  0  0  0  0  0  0  0  0  0  0  0
   -6.0000   -2.5981    0.0000 N   0  0  0  0  0  0  0  0  0  0  0  0
   -5.2500   -1.2990    0.0000 C   0  0  0  0  0  0  0  0  0  0  0  0
   -3.7500   -1.2990    0.0000 C   0  0  0  0  0  0  0  0  0  0  0  0
   -3.0000   -2.5981    0.0000 C   0  0  0  0  0  0  0  0  0  0  0  0
   -1.5000   -2.5981    0.0000 C   0  0  0  0  0  0  0  0  0  0  0  0
   -0.7500   -3.8971    0.0000 C   0  0  0  0  0  0  0  0  0  0  0  0
   -1.5000   -5.1962    0.0000 O   0  0  0  0  0  0  0  0  0  0  0  0
    0.7500   -3.8971    0.0000 C   0  0  0  0  0  0  0  0  0  0  0  0
    1.5000   -2.5981    0.0000 C   0  0  0  0  0  0  0  0  0  0  0  0
    3.0000   -2.5981    0.0000 O   0  0  0  0  0  0  0  0  0  0  0  0
    0.7500   -1.2990    0.0000 C   0  0  0  0  0  0  0  0  0  0  0  0
    1.5000    0.0000    0.0000 C   0  0  0  0  0  0  0  0  0  0  0  0
    3.0000    0.0000    0.0000 O   0  0  0  0  0  0  0  0  0  0  0  0
    0.7500    1.2990    0.0000 C   0  0  0  0  0  0  0  0  0  0  0  0
   -0.7500    1.2990    0.0000 C   0  0  0  0  0  0  0  0  0  0  0  0
   -1.5000    2.5981    0.0000 C   0  0  0  0  0  0  0  0  0  0  0  0
   -0.7500    3.8971    0.0000 C   0  0  0  0  0  0  0  0  0  0  0  0
   -1.5000    5.1962    0.0000 C   0  0  0  0  0  0  0  0  0  0  0  0
   -3.0000    5.1962    0.0000 C   0  0  0  0  0  0  0  0  0  0  0  0
   -3.7500    3.8971    0.0000 C   0  0  0  0  0  0  0  0  0  0  0  0
   -3.0000    2.5981    0.0000 C   0  0  0  0  0  0  0  0  0  0  0  0
   -3.7500    1.2990    0.0000 Cl  0  0  0  0  0  0  0  0  0  0  0  0
   -1.5000    0.0000    0.0000 O   0  0  0  0  0  0  0  0  0  0  0  0
   -0.7500   -1.2990    0.0000 C   0  0  0  0  0  0  0  0  0  0  0  0
   -3.7500   -3.8971    0.0000 C   0  0  0  0  0  0  0  0  0  0  0  0
   -3.0000   -5.1962    0.0000 O   0  0  0  0  0  0  0  0  0  0  0  0
   -5.2500   -3.8971    0.0000 C   0  0  0  0  0  0  0  0  0  0  0  0
  1  2  1  0
  2  3  1  0
  3  4  1  0
  4  5  1  0
  5  6  1  6
  6  7  2  0
  7  8  1  0
  7  9  1  0
  9 10  2  0
 10 11  1  0
 10 12  1  0
 12 13  1  0
 13 14  2  0
 13 15  1  0
 15 16  2  0
 16 17  1  0
 17 18  2  0
 18 19  1  0
 19 20  2  0
 20 21  1  0
 21 22  2  0
 22 23  1  0
 16 24  1  0
 24 25  1  0
  5 26  1  0
 26 27  1  6
 26 28  1  0
 28  2  1  0
 25  6  1  0
 25 12  2  0
 22 17  1  0
M  END
>  <Compound_ID>  (205) 
CHEMBL8817

>  <Active>  (205) 
1.0

>  <Smiles>  (205) 
CN1CC[C@H](c2c(O)cc(O)c3c(=O)cc(-c4ccccc4Cl)oc23)[C@H](O)C1

>  <canonical_smi>  (205) 
CN1CC[C@H](c2c(O)cc(O)c3c(=O)cc(-c4ccccc4Cl)oc23)[C@H](O)C1

>  <Set>  (205) 
G2 active

>  <Set_type>  (205) 
Train

>  <MW>  (205) 
401.85

>  <HBD>  (205) 
3

>  <HBA>  (205) 
6

>  <NRB>  (205) 
2

>  <NR>  (205) 
4

>  <NAR>  (205) 
3

>  <PSA>  (205) 
94.14

>  <Standard Type>  (205) 
nan

>  <Standard Relation>  (205) 
nan

>  <Standard Units>  (205) 
nan

>  <Standard Value>  (205) 
nan

>  <Assay ChEMBL ID>  (205) 
nan

>  <Assay Description>  (205) 
nan

>  <BAO Label>  (205) 
nan

$$$$

     RDKit          2D

 27 30  0  0  0  0  0  0  0  0999 V2000
    5.2500   -1.2990    0.0000 C   0  0  0  0  0  0  0  0  0  0  0  0
    3.7500   -1.2990    0.0000 N   0  0  0  0  0  0  0  0  0  0  0  0
    3.0000    0.0000    0.0000 C   0  0  0  0  0  0  0  0  0  0  0  0
    3.7500    1.2990    0.0000 O   0  0  0  0  0  0  0  0  0  0  0  0
    1.5000    0.0000    0.0000 C   0  0  0  0  0  0  0  0  0  0  0  0
    0.7500   -1.2990    0.0000 C   0  0  0  0  0  0  0  0  0  0  0  0
   -0.7500   -1.2990    0.0000 C   0  0  0  0  0  0  0  0  0  0  0  0
   -1.5000    0.0000    0.0000 C   0  0  0  0  0  0  0  0  0  0  0  0
   -3.0000    0.0000    0.0000 N   0  0  0  0  0  0  0  0  0  0  0  0
   -3.7500    1.2990    0.0000 C   0  0  0  0  0  0  0  0  0  0  0  0
   -3.0000    2.5981    0.0000 N   0  0  0  0  0  0  0  0  0  0  0  0
   -3.7500    3.8971    0.0000 C   0  0  0  0  0  0  0  0  0  0  0  0
   -5.2500    3.8971    0.0000 C   0  0  0  0  0  0  0  0  0  0  0  0
   -6.0000    2.5981    0.0000 C   0  0  0  0  0  0  0  0  0  0  0  0
   -7.5000    2.5981    0.0000 C   0  0  0  0  0  0  0  0  0  0  0  0
   -8.3817    1.3846    0.0000 C   0  0  0  0  0  0  0  0  0  0  0  0
   -9.8083    1.8481    0.0000 N   0  0  0  0  0  0  0  0  0  0  0  0
   -9.8083    3.3481    0.0000 C   0  0  0  0  0  0  0  0  0  0  0  0
  -11.0218    4.2298    0.0000 C   0  0  0  0  0  0  0  0  0  0  0  0
   -8.3817    3.8116    0.0000 N   0  0  0  0  0  0  0  0  0  0  0  0
   -7.9182    5.2382    0.0000 C   0  0  0  0  0  0  0  0  0  0  0  0
   -8.9218    6.3529    0.0000 C   0  0  0  0  0  0  0  0  0  0  0  0
  -10.3484    6.8164    0.0000 C   0  0  0  0  0  0  0  0  0  0  0  0
   -9.2337    7.8201    0.0000 C   0  0  0  0  0  0  0  0  0  0  0  0
   -5.2500    1.2990    0.0000 N   0  0  0  0  0  0  0  0  0  0  0  0
   -0.7500    1.2990    0.0000 C   0  0  0  0  0  0  0  0  0  0  0  0
    0.7500    1.2990    0.0000 C   0  0  0  0  0  0  0  0  0  0  0  0
  1  2  1  0
  2  3  1  0
  3  4  2  0
  3  5  1  0
  5  6  2  0
  6  7  1  0
  7  8  2  0
  8  9  1  0
  9 10  1  0
 10 11  2  0
 11 12  1  0
 12 13  2  0
 13 14  1  0
 14 15  1  0
 15 16  2  0
 16 17  1  0
 17 18  2  0
 18 19  1  0
 18 20  1  0
 20 21  1  0
 21 22  1  0
 22 23  1  0
 23 24  1  0
 14 25  2  0
  8 26  1  0
 26 27  2  0
 27  5  1  0
 25 10  1  0
 20 15  1  0
 24 22  1  0
M  END
>  <Compound_ID>  (206) 
CHEMBL488256

>  <Active>  (206) 
1.0

>  <Smiles>  (206) 
CNC(=O)c1ccc(Nc2nccc(-c3cnc(C)n3CC3CC3)n2)cc1

>  <canonical_smi>  (206) 
CNC(=O)c1ccc(Nc2nccc(-c3cnc(C)n3CC3CC3)n2)cc1

>  <Set>  (206) 
G2 active

>  <Set_type>  (206) 
Train

>  <MW>  (206) 
362.44

>  <HBD>  (206) 
2

>  <HBA>  (206) 
5

>  <NRB>  (206) 
6

>  <NR>  (206) 
4

>  <NAR>  (206) 
3

>  <PSA>  (206) 
84.73

>  <Standard Type>  (206) 
nan

>  <Standard Relation>  (206) 
nan

>  <Standard Units>  (206) 
nan

>  <Standard Value>  (206) 
nan

>  <Assay ChEMBL ID>  (206) 
nan

>  <Assay Description>  (206) 
nan

>  <BAO Label>  (206) 
nan

$$$$

     RDKit          2D

 23 26  0  0  0  0  0  0  0  0999 V2000
   -3.0000   -5.1962    0.0000 O   0  0  0  0  0  0  0  0  0  0  0  0
   -3.7500   -3.8971    0.0000 C   0  0  0  0  0  0  0  0  0  0  0  0
   -5.2500   -3.8971    0.0000 N   0  0  0  0  0  0  0  0  0  0  0  0
   -6.0000   -5.1962    0.0000 C   0  0  0  0  0  0  0  0  0  0  0  0
   -5.3899   -6.5665    0.0000 N   0  0  0  0  0  0  0  0  0  0  0  0
   -6.5046   -7.5702    0.0000 C   0  0  0  0  0  0  0  0  0  0  0  0
   -7.8037   -6.8202    0.0000 C   0  0  0  0  0  0  0  0  0  0  0  0
   -9.1740   -7.4303    0.0000 C   0  0  0  0  0  0  0  0  0  0  0  0
  -10.5743   -6.8927    0.0000 C   0  0  0  0  0  0  0  0  0  0  0  0
  -11.1119   -8.2931    0.0000 C   0  0  0  0  0  0  0  0  0  0  0  0
   -9.7115   -8.8306    0.0000 C   0  0  0  0  0  0  0  0  0  0  0  0
   -7.4918   -5.3529    0.0000 S   0  0  0  0  0  0  0  0  0  0  0  0
   -3.0000   -2.5981    0.0000 N   0  0  0  0  0  0  0  0  0  0  0  0
   -1.5000   -2.5981    0.0000 C   0  0  0  0  0  0  0  0  0  0  0  0
   -0.7500   -3.8971    0.0000 C   0  0  0  0  0  0  0  0  0  0  0  0
    0.7500   -3.8971    0.0000 C   0  0  0  0  0  0  0  0  0  0  0  0
    1.5000   -2.5981    0.0000 C   0  0  0  0  0  0  0  0  0  0  0  0
    0.7500   -1.2990    0.0000 C   0  0  0  0  0  0  0  0  0  0  0  0
    1.5000    0.0000    0.0000 N   0  0  0  0  0  0  0  0  0  0  0  0
    0.7500    1.2990    0.0000 C   0  0  0  0  0  0  0  0  0  0  0  0
   -0.7500    1.2990    0.0000 C   0  0  0  0  0  0  0  0  0  0  0  0
   -1.5000    0.0000    0.0000 C   0  0  0  0  0  0  0  0  0  0  0  0
   -0.7500   -1.2990    0.0000 C   0  0  0  0  0  0  0  0  0  0  0  0
  1  2  2  0
  2  3  1  0
  3  4  1  0
  4  5  2  0
  5  6  1  0
  6  7  2  0
  7  8  1  0
  8  9  1  0
  9 10  1  0
 10 11  1  0
  7 12  1  0
  2 13  1  0
 13 14  1  0
 14 15  2  0
 15 16  1  0
 16 17  2  0
 17 18  1  0
 18 19  2  0
 19 20  1  0
 20 21  2  0
 21 22  1  0
 22 23  2  0
 12  4  1  0
 23 14  1  0
 11  8  1  0
 23 18  1  0
M  END
>  <Compound_ID>  (207) 
CHEMBL187256

>  <Active>  (207) 
1.0

>  <Smiles>  (207) 
O=C(Nc1ncc(C2CCC2)s1)Nc1cccc2ncccc12

>  <canonical_smi>  (207) 
O=C(Nc1ncc(C2CCC2)s1)Nc1cccc2ncccc12

>  <Set>  (207) 
G2 active

>  <Set_type>  (207) 
Train

>  <MW>  (207) 
324.41

>  <HBD>  (207) 
2

>  <HBA>  (207) 
3

>  <NRB>  (207) 
3

>  <NR>  (207) 
4

>  <NAR>  (207) 
3

>  <PSA>  (207) 
66.91

>  <Standard Type>  (207) 
nan

>  <Standard Relation>  (207) 
nan

>  <Standard Units>  (207) 
nan

>  <Standard Value>  (207) 
nan

>  <Assay ChEMBL ID>  (207) 
nan

>  <Assay Description>  (207) 
nan

>  <BAO Label>  (207) 
nan

$$$$

     RDKit          2D

 25 27  0  0  0  0  0  0  0  0999 V2000
   -0.7500   -3.8971    0.0000 O   0  0  0  0  0  0  0  0  0  0  0  0
    0.7500   -3.8971    0.0000 C   0  0  0  0  0  0  0  0  0  0  0  0
    1.5000   -2.5981    0.0000 N   0  0  0  0  0  0  0  0  0  0  0  0
    0.7500   -1.2990    0.0000 C   0  0  0  0  0  0  0  0  0  0  0  0
    1.5000    0.0000    0.0000 C   0  0  0  0  0  0  0  0  0  0  0  0
    0.7500    1.2990    0.0000 C   0  0  0  0  0  0  0  0  0  0  0  0
   -0.7500    1.2990    0.0000 C   0  0  0  0  0  0  0  0  0  0  0  0
   -1.5000    0.0000    0.0000 N   0  0  0  0  0  0  0  0  0  0  0  0
   -0.7500   -1.2990    0.0000 C   0  0  0  0  0  0  0  0  0  0  0  0
    1.5000   -5.1962    0.0000 C   0  0  0  0  0  0  0  0  0  0  0  0
    2.9918   -5.3529    0.0000 N   0  0  0  0  0  0  0  0  0  0  0  0
    3.3037   -6.8202    0.0000 N   0  0  0  0  0  0  0  0  0  0  0  0
    2.0046   -7.5702    0.0000 C   0  0  0  0  0  0  0  0  0  0  0  0
    0.8899   -6.5665    0.0000 C   0  0  0  0  0  0  0  0  0  0  0  0
   -0.5773   -6.8783    0.0000 N   0  0  0  0  0  0  0  0  0  0  0  0
   -1.0409   -8.3049    0.0000 C   0  0  0  0  0  0  0  0  0  0  0  0
   -0.0372   -9.4196    0.0000 O   0  0  0  0  0  0  0  0  0  0  0  0
   -2.5081   -8.6168    0.0000 C   0  0  0  0  0  0  0  0  0  0  0  0
   -3.5118   -7.5021    0.0000 C   0  0  0  0  0  0  0  0  0  0  0  0
   -3.0482   -6.0755    0.0000 F   0  0  0  0  0  0  0  0  0  0  0  0
   -4.9790   -7.8139    0.0000 C   0  0  0  0  0  0  0  0  0  0  0  0
   -5.4425   -9.2405    0.0000 C   0  0  0  0  0  0  0  0  0  0  0  0
   -4.4388  -10.3552    0.0000 C   0  0  0  0  0  0  0  0  0  0  0  0
   -2.9716  -10.0434    0.0000 C   0  0  0  0  0  0  0  0  0  0  0  0
   -1.9679  -11.1581    0.0000 F   0  0  0  0  0  0  0  0  0  0  0  0
  1  2  2  0
  2  3  1  0
  4  3  1  6
  4  5  1  0
  5  6  1  0
  6  7  1  0
  7  8  1  0
  8  9  1  0
  2 10  1  0
 10 11  2  0
 11 12  1  0
 12 13  1  0
 13 14  2  0
 14 15  1  0
 15 16  1  0
 16 17  2  0
 16 18  1  0
 18 19  2  0
 19 20  1  0
 19 21  1  0
 21 22  2  0
 22 23  1  0
 23 24  2  0
 24 25  1  0
  9  4  1  0
 14 10  1  0
 24 18  1  0
M  END
>  <Compound_ID>  (208) 
CHEMBL498659

>  <Active>  (208) 
1.0

>  <Smiles>  (208) 
O=C(N[C@H]1CCCNC1)c1n[nH]cc1NC(=O)c1c(F)cccc1F

>  <canonical_smi>  (208) 
O=C(N[C@H]1CCCNC1)c1n[nH]cc1NC(=O)c1c(F)cccc1F

>  <Set>  (208) 
G2 active

>  <Set_type>  (208) 
Train

>  <MW>  (208) 
349.34

>  <HBD>  (208) 
4

>  <HBA>  (208) 
4

>  <NRB>  (208) 
4

>  <NR>  (208) 
3

>  <NAR>  (208) 
2

>  <PSA>  (208) 
98.91

>  <Standard Type>  (208) 
nan

>  <Standard Relation>  (208) 
nan

>  <Standard Units>  (208) 
nan

>  <Standard Value>  (208) 
nan

>  <Assay ChEMBL ID>  (208) 
nan

>  <Assay Description>  (208) 
nan

>  <BAO Label>  (208) 
nan

$$$$

     RDKit          2D

 33 36  0  0  0  0  0  0  0  0999 V2000
    4.6740   -4.8322    0.0000 C   0  0  0  0  0  0  0  0  0  0  0  0
    3.3037   -4.2221    0.0000 C   0  0  0  0  0  0  0  0  0  0  0  0
    2.0046   -4.9721    0.0000 N   0  0  0  0  0  0  0  0  0  0  0  0
    0.8899   -3.9684    0.0000 C   0  0  0  0  0  0  0  0  0  0  0  0
    1.5000   -2.5981    0.0000 C   0  0  0  0  0  0  0  0  0  0  0  0
    0.7500   -1.2990    0.0000 C   0  0  0  0  0  0  0  0  0  0  0  0
    1.5000    0.0000    0.0000 N   0  0  0  0  0  0  0  0  0  0  0  0
    0.7500    1.2990    0.0000 C   0  0  0  0  0  0  0  0  0  0  0  0
    1.5000    2.5981    0.0000 N   0  0  0  0  0  0  0  0  0  0  0  0
    3.0000    2.5981    0.0000 C   0  0  0  0  0  0  0  0  0  0  0  0
    3.7500    1.2990    0.0000 C   0  0  0  0  0  0  0  0  0  0  0  0
    5.2500    1.2990    0.0000 C   0  0  0  0  0  0  0  0  0  0  0  0
    6.0000    2.5981    0.0000 C   0  0  0  0  0  0  0  0  0  0  0  0
    7.5000    2.5981    0.0000 N   0  0  0  0  0  0  0  0  0  0  0  0
    8.3817    3.8116    0.0000 C   0  0  0  0  0  0  0  0  0  0  0  0
    9.8083    3.3481    0.0000 C   0  0  0  0  0  0  0  0  0  0  0  0
    9.8083    1.8481    0.0000 C   0  0  0  0  0  0  0  0  0  0  0  0
    8.3817    1.3846    0.0000 C   0  0  0  0  0  0  0  0  0  0  0  0
    7.9182   -0.0420    0.0000 C   0  0  0  0  0  0  0  0  0  0  0  0
    6.4509   -0.3539    0.0000 O   0  0  0  0  0  0  0  0  0  0  0  0
    8.9218   -1.1568    0.0000 N   0  0  0  0  0  0  0  0  0  0  0  0
    8.4583   -2.5833    0.0000 C   0  0  0  0  0  0  0  0  0  0  0  0
   10.3891   -0.8449    0.0000 C   0  0  0  0  0  0  0  0  0  0  0  0
    5.2500    3.8971    0.0000 C   0  0  0  0  0  0  0  0  0  0  0  0
    3.7500    3.8971    0.0000 C   0  0  0  0  0  0  0  0  0  0  0  0
   -0.7500    1.2990    0.0000 N   0  0  0  0  0  0  0  0  0  0  0  0
   -1.5000    0.0000    0.0000 C   0  0  0  0  0  0  0  0  0  0  0  0
   -0.7500   -1.2990    0.0000 C   0  0  0  0  0  0  0  0  0  0  0  0
   -1.5000   -2.5981    0.0000 F   0  0  0  0  0  0  0  0  0  0  0  0
    2.9918   -2.7549    0.0000 N   0  0  0  0  0  0  0  0  0  0  0  0
    3.9955   -1.6402    0.0000 C   0  0  0  0  0  0  0  0  0  0  0  0
    5.4627   -1.9520    0.0000 C   0  0  0  0  0  0  0  0  0  0  0  0
    3.5320   -0.2136    0.0000 C   0  0  0  0  0  0  0  0  0  0  0  0
  1  2  1  0
  2  3  2  0
  3  4  1  0
  4  5  2  0
  5  6  1  0
  6  7  2  0
  7  8  1  0
  8  9  1  0
  9 10  1  0
 10 11  2  0
 11 12  1  0
 12 13  2  0
 13 14  1  0
 14 15  1  0
 15 16  1  0
 16 17  1  0
 17 18  1  0
 18 19  1  1
 19 20  2  0
 19 21  1  0
 21 22  1  0
 21 23  1  0
 13 24  1  0
 24 25  2  0
  8 26  2  0
 26 27  1  0
 27 28  2  0
 28 29  1  0
  5 30  1  0
 30 31  1  0
 31 32  1  0
 31 33  1  0
 30  2  1  0
 28  6  1  0
 25 10  1  0
 18 14  1  0
M  END
>  <Compound_ID>  (209) 
CHEMBL475948

>  <Active>  (209) 
1.0

>  <Smiles>  (209) 
Cc1ncc(-c2nc(Nc3ccc(N4CCC[C@H]4C(=O)N(C)C)cc3)ncc2F)n1C(C)C

>  <canonical_smi>  (209) 
Cc1ncc(-c2nc(Nc3ccc(N4CCC[C@H]4C(=O)N(C)C)cc3)ncc2F)n1C(C)C

>  <Set>  (209) 
G2 active

>  <Set_type>  (209) 
Train

>  <MW>  (209) 
451.55

>  <HBD>  (209) 
1

>  <HBA>  (209) 
6

>  <NRB>  (209) 
6

>  <NR>  (209) 
4

>  <NAR>  (209) 
3

>  <PSA>  (209) 
79.18

>  <Standard Type>  (209) 
nan

>  <Standard Relation>  (209) 
nan

>  <Standard Units>  (209) 
nan

>  <Standard Value>  (209) 
nan

>  <Assay ChEMBL ID>  (209) 
nan

>  <Assay Description>  (209) 
nan

>  <BAO Label>  (209) 
nan

$$$$

     RDKit          2D

 27 30  0  0  0  0  0  0  0  0999 V2000
   -2.6401   -3.1891    0.0000 C   0  0  0  0  0  0  0  0  0  0  0  0
   -1.2135   -2.7256    0.0000 C   0  0  0  0  0  0  0  0  0  0  0  0
   -0.0000   -3.6073    0.0000 N   0  0  0  0  0  0  0  0  0  0  0  0
    1.2135   -2.7256    0.0000 N   0  0  0  0  0  0  0  0  0  0  0  0
    0.7500   -1.2990    0.0000 C   0  0  0  0  0  0  0  0  0  0  0  0
    1.5000    0.0000    0.0000 C   0  0  0  0  0  0  0  0  0  0  0  0
    0.7500    1.2990    0.0000 C   0  0  0  0  0  0  0  0  0  0  0  0
   -0.7500    1.2990    0.0000 C   0  0  0  0  0  0  0  0  0  0  0  0
   -1.5000    2.5981    0.0000 C   0  0  0  0  0  0  0  0  0  0  0  0
   -0.7500    3.8971    0.0000 C   0  0  0  0  0  0  0  0  0  0  0  0
   -1.5000    5.1962    0.0000 N   0  0  0  0  0  0  0  0  0  0  0  0
   -3.0000    5.1962    0.0000 C   0  0  0  0  0  0  0  0  0  0  0  0
   -3.7500    3.8971    0.0000 C   0  0  0  0  0  0  0  0  0  0  0  0
   -5.2500    3.8971    0.0000 O   0  0  0  0  0  0  0  0  0  0  0  0
   -6.0000    5.1962    0.0000 C   0  0  0  0  0  0  0  0  0  0  0  0
   -7.5000    5.1962    0.0000 C   0  0  0  0  0  0  0  0  0  0  0  0
   -8.2500    3.8971    0.0000 N   0  0  0  0  0  0  0  0  0  0  0  0
   -8.2500    6.4952    0.0000 C   0  0  0  0  0  0  0  0  0  0  0  0
   -9.7500    6.4952    0.0000 C   0  0  0  0  0  0  0  0  0  0  0  0
  -10.5000    7.7942    0.0000 C   0  0  0  0  0  0  0  0  0  0  0  0
  -12.0000    7.7942    0.0000 C   0  0  0  0  0  0  0  0  0  0  0  0
  -12.7500    6.4952    0.0000 C   0  0  0  0  0  0  0  0  0  0  0  0
  -12.0000    5.1962    0.0000 C   0  0  0  0  0  0  0  0  0  0  0  0
  -10.5000    5.1962    0.0000 C   0  0  0  0  0  0  0  0  0  0  0  0
   -3.0000    2.5981    0.0000 C   0  0  0  0  0  0  0  0  0  0  0  0
   -1.5000    0.0000    0.0000 C   0  0  0  0  0  0  0  0  0  0  0  0
   -0.7500   -1.2990    0.0000 C   0  0  0  0  0  0  0  0  0  0  0  0
  1  2  1  0
  2  3  2  0
  3  4  1  0
  4  5  1  0
  5  6  2  0
  6  7  1  0
  7  8  2  0
  8  9  1  0
  9 10  2  0
 10 11  1  0
 11 12  2  0
 12 13  1  0
 13 14  1  0
 14 15  1  0
 15 16  1  0
 16 17  1  1
 16 18  1  0
 18 19  1  0
 19 20  2  0
 20 21  1  0
 21 22  2  0
 22 23  1  0
 23 24  2  0
 13 25  2  0
  8 26  1  0
 26 27  2  0
 27  2  1  0
 27  5  1  0
 25  9  1  0
 24 19  1  0
M  END
>  <Compound_ID>  (210) 
CHEMBL379218

>  <Active>  (210) 
1.0

>  <Smiles>  (210) 
Cc1n[nH]c2ccc(-c3cncc(OC[C@@H](N)Cc4ccccc4)c3)cc12

>  <canonical_smi>  (210) 
Cc1n[nH]c2ccc(-c3cncc(OC[C@@H](N)Cc4ccccc4)c3)cc12

>  <Set>  (210) 
G2 active

>  <Set_type>  (210) 
Train

>  <MW>  (210) 
358.44

>  <HBD>  (210) 
2

>  <HBA>  (210) 
4

>  <NRB>  (210) 
6

>  <NR>  (210) 
4

>  <NAR>  (210) 
4

>  <PSA>  (210) 
76.82

>  <Standard Type>  (210) 
nan

>  <Standard Relation>  (210) 
nan

>  <Standard Units>  (210) 
nan

>  <Standard Value>  (210) 
nan

>  <Assay ChEMBL ID>  (210) 
nan

>  <Assay Description>  (210) 
nan

>  <BAO Label>  (210) 
nan

$$$$

     RDKit          2D

 25 27  0  0  0  0  0  0  0  0999 V2000
   -0.7500   -3.8971    0.0000 O   0  0  0  0  0  0  0  0  0  0  0  0
    0.7500   -3.8971    0.0000 C   0  0  0  0  0  0  0  0  0  0  0  0
    1.5000   -2.5981    0.0000 N   0  0  0  0  0  0  0  0  0  0  0  0
    0.7500   -1.2990    0.0000 C   0  0  0  0  0  0  0  0  0  0  0  0
    1.5000    0.0000    0.0000 C   0  0  0  0  0  0  0  0  0  0  0  0
    0.7500    1.2990    0.0000 C   0  0  0  0  0  0  0  0  0  0  0  0
   -0.7500    1.2990    0.0000 N   0  0  0  0  0  0  0  0  0  0  0  0
   -1.5000    0.0000    0.0000 C   0  0  0  0  0  0  0  0  0  0  0  0
   -0.7500   -1.2990    0.0000 C   0  0  0  0  0  0  0  0  0  0  0  0
    1.5000   -5.1962    0.0000 C   0  0  0  0  0  0  0  0  0  0  0  0
    2.9918   -5.3529    0.0000 N   0  0  0  0  0  0  0  0  0  0  0  0
    3.3037   -6.8202    0.0000 N   0  0  0  0  0  0  0  0  0  0  0  0
    2.0046   -7.5702    0.0000 C   0  0  0  0  0  0  0  0  0  0  0  0
    0.8899   -6.5665    0.0000 C   0  0  0  0  0  0  0  0  0  0  0  0
   -0.5773   -6.8783    0.0000 N   0  0  0  0  0  0  0  0  0  0  0  0
   -1.0409   -8.3049    0.0000 C   0  0  0  0  0  0  0  0  0  0  0  0
   -0.0372   -9.4196    0.0000 O   0  0  0  0  0  0  0  0  0  0  0  0
   -2.5081   -8.6168    0.0000 C   0  0  0  0  0  0  0  0  0  0  0  0
   -3.5118   -7.5021    0.0000 C   0  0  0  0  0  0  0  0  0  0  0  0
   -3.0482   -6.0755    0.0000 Cl  0  0  0  0  0  0  0  0  0  0  0  0
   -4.9790   -7.8139    0.0000 C   0  0  0  0  0  0  0  0  0  0  0  0
   -5.4425   -9.2405    0.0000 C   0  0  0  0  0  0  0  0  0  0  0  0
   -4.4388  -10.3552    0.0000 C   0  0  0  0  0  0  0  0  0  0  0  0
   -2.9716  -10.0434    0.0000 C   0  0  0  0  0  0  0  0  0  0  0  0
   -1.9679  -11.1581    0.0000 Cl  0  0  0  0  0  0  0  0  0  0  0  0
  1  2  2  0
  2  3  1  0
  3  4  1  0
  4  5  1  0
  5  6  1  0
  6  7  1  0
  7  8  1  0
  8  9  1  0
  2 10  1  0
 10 11  2  0
 11 12  1  0
 12 13  1  0
 13 14  2  0
 14 15  1  0
 15 16  1  0
 16 17  2  0
 16 18  1  0
 18 19  2  0
 19 20  1  0
 19 21  1  0
 21 22  2  0
 22 23  1  0
 23 24  2  0
 24 25  1  0
  9  4  1  0
 14 10  1  0
 24 18  1  0
M  END
>  <Compound_ID>  (211) 
CHEMBL445813

>  <Active>  (211) 
1.0

>  <Smiles>  (211) 
O=C(NC1CCNCC1)c1n[nH]cc1NC(=O)c1c(Cl)cccc1Cl

>  <canonical_smi>  (211) 
O=C(NC1CCNCC1)c1n[nH]cc1NC(=O)c1c(Cl)cccc1Cl

>  <Set>  (211) 
G2 active

>  <Set_type>  (211) 
Train

>  <MW>  (211) 
382.25

>  <HBD>  (211) 
4

>  <HBA>  (211) 
4

>  <NRB>  (211) 
4

>  <NR>  (211) 
3

>  <NAR>  (211) 
2

>  <PSA>  (211) 
98.91

>  <Standard Type>  (211) 
nan

>  <Standard Relation>  (211) 
nan

>  <Standard Units>  (211) 
nan

>  <Standard Value>  (211) 
nan

>  <Assay ChEMBL ID>  (211) 
nan

>  <Assay Description>  (211) 
nan

>  <BAO Label>  (211) 
nan

$$$$

     RDKit          2D

 35 39  0  0  0  0  0  0  0  0999 V2000
   -2.2447   -8.9500    0.0000 C   0  0  0  0  0  0  0  0  0  0  0  0
   -2.5565   -7.4827    0.0000 N   0  0  0  0  0  0  0  0  0  0  0  0
   -1.4418   -6.4791    0.0000 C   0  0  0  0  0  0  0  0  0  0  0  0
   -0.0152   -6.9426    0.0000 O   0  0  0  0  0  0  0  0  0  0  0  0
   -1.7537   -5.0118    0.0000 C   0  0  0  0  0  0  0  0  0  0  0  0
   -3.1240   -4.4017    0.0000 N   0  0  0  0  0  0  0  0  0  0  0  0
   -2.9672   -2.9099    0.0000 N   0  0  0  0  0  0  0  0  0  0  0  0
   -4.0819   -1.9062    0.0000 C   0  0  0  0  0  0  0  0  0  0  0  0
   -1.5000   -2.5981    0.0000 C   0  0  0  0  0  0  0  0  0  0  0  0
   -0.7500   -3.8971    0.0000 C   0  0  0  0  0  0  0  0  0  0  0  0
    0.7500   -3.8971    0.0000 C   0  0  0  0  0  0  0  0  0  0  0  0
    2.1595   -4.4101    0.0000 C   0  0  0  0  0  0  0  0  0  0  0  0
    0.4895   -5.3743    0.0000 C   0  0  0  0  0  0  0  0  0  0  0  0
    1.5000   -2.5981    0.0000 C   0  0  0  0  0  0  0  0  0  0  0  0
    0.7500   -1.2990    0.0000 C   0  0  0  0  0  0  0  0  0  0  0  0
    1.5000    0.0000    0.0000 C   0  0  0  0  0  0  0  0  0  0  0  0
    0.7500    1.2990    0.0000 N   0  0  0  0  0  0  0  0  0  0  0  0
   -0.7500    1.2990    0.0000 C   0  0  0  0  0  0  0  0  0  0  0  0
   -1.5000    2.5981    0.0000 N   0  0  0  0  0  0  0  0  0  0  0  0
   -0.7500    3.8971    0.0000 C   0  0  0  0  0  0  0  0  0  0  0  0
    0.7500    3.8971    0.0000 C   0  0  0  0  0  0  0  0  0  0  0  0
    1.5000    5.1962    0.0000 C   0  0  0  0  0  0  0  0  0  0  0  0
    0.7500    6.4952    0.0000 C   0  0  0  0  0  0  0  0  0  0  0  0
   -0.7500    6.4952    0.0000 C   0  0  0  0  0  0  0  0  0  0  0  0
   -1.5000    7.7942    0.0000 O   0  0  0  0  0  0  0  0  0  0  0  0
   -0.7500    9.0933    0.0000 C   0  0  0  0  0  0  0  0  0  0  0  0
    0.7500    9.0933    0.0000 C   0  0  0  0  0  0  0  0  0  0  0  0
    1.5000   10.3923    0.0000 C   0  0  0  0  0  0  0  0  0  0  0  0
    0.7500   11.6913    0.0000 N   0  0  0  0  0  0  0  0  0  0  0  0
    1.5000   12.9904    0.0000 C   0  0  0  0  0  0  0  0  0  0  0  0
   -0.7500   11.6913    0.0000 C   0  0  0  0  0  0  0  0  0  0  0  0
   -1.5000   10.3923    0.0000 C   0  0  0  0  0  0  0  0  0  0  0  0
   -1.5000    5.1962    0.0000 C   0  0  0  0  0  0  0  0  0  0  0  0
   -1.5000    0.0000    0.0000 N   0  0  0  0  0  0  0  0  0  0  0  0
   -0.7500   -1.2990    0.0000 C   0  0  0  0  0  0  0  0  0  0  0  0
  1  2  1  0
  2  3  1  0
  3  4  2  0
  3  5  1  0
  5  6  2  0
  6  7  1  0
  7  8  1  0
  7  9  1  0
  9 10  2  0
 10 11  1  0
 11 12  1  0
 11 13  1  0
 11 14  1  0
 14 15  1  0
 15 16  2  0
 16 17  1  0
 17 18  2  0
 18 19  1  0
 19 20  1  0
 20 21  2  0
 21 22  1  0
 22 23  2  0
 23 24  1  0
 24 25  1  0
 25 26  1  0
 26 27  1  0
 27 28  1  0
 28 29  1  0
 29 30  1  0
 29 31  1  0
 31 32  1  0
 24 33  2  0
 18 34  1  0
 34 35  2  0
 10  5  1  0
 35 15  1  0
 35  9  1  0
 33 20  1  0
 32 26  1  0
M  END
>  <Compound_ID>  (212) 
CHEMBL560102

>  <Active>  (212) 
1.0

>  <Smiles>  (212) 
CNC(=O)c1nn(C)c2c1C(C)(C)Cc1cnc(Nc3cccc(OC4CCN(C)CC4)c3)nc1-2

>  <canonical_smi>  (212) 
CNC(=O)c1nn(C)c2c1C(C)(C)Cc1cnc(Nc3cccc(OC4CCN(C)CC4)c3)nc1-2

>  <Set>  (212) 
G2 active

>  <Set_type>  (212) 
Train

>  <MW>  (212) 
475.6

>  <HBD>  (212) 
2

>  <HBA>  (212) 
7

>  <NRB>  (212) 
5

>  <NR>  (212) 
5

>  <NAR>  (212) 
3

>  <PSA>  (212) 
97.2

>  <Standard Type>  (212) 
nan

>  <Standard Relation>  (212) 
nan

>  <Standard Units>  (212) 
nan

>  <Standard Value>  (212) 
nan

>  <Assay ChEMBL ID>  (212) 
nan

>  <Assay Description>  (212) 
nan

>  <BAO Label>  (212) 
nan

$$$$

     RDKit          2D

 30 34  0  0  0  0  0  0  0  0999 V2000
   -1.7024   10.0935    0.0000 N   0  0  0  0  0  0  0  0  0  0  0  0
   -2.0143    8.6263    0.0000 C   0  0  0  0  0  0  0  0  0  0  0  0
   -0.8995    7.6226    0.0000 C   0  0  0  0  0  0  0  0  0  0  0  0
   -1.2114    6.1554    0.0000 C   0  0  0  0  0  0  0  0  0  0  0  0
   -2.6380    5.6918    0.0000 C   0  0  0  0  0  0  0  0  0  0  0  0
   -2.9499    4.2246    0.0000 N   0  0  0  0  0  0  0  0  0  0  0  0
   -1.8351    3.2209    0.0000 C   0  0  0  0  0  0  0  0  0  0  0  0
   -0.4086    3.6844    0.0000 N   0  0  0  0  0  0  0  0  0  0  0  0
    0.7062    2.6807    0.0000 C   0  0  0  0  0  0  0  0  0  0  0  0
    2.1328    3.1443    0.0000 N   0  0  0  0  0  0  0  0  0  0  0  0
    2.4446    4.6115    0.0000 C   0  0  0  0  0  0  0  0  0  0  0  0
    3.8712    5.0750    0.0000 C   0  0  0  0  0  0  0  0  0  0  0  0
    4.9859    4.0713    0.0000 C   0  0  0  0  0  0  0  0  0  0  0  0
    6.4125    4.5348    0.0000 C   0  0  0  0  0  0  0  0  0  0  0  0
    6.7244    6.0021    0.0000 C   0  0  0  0  0  0  0  0  0  0  0  0
    5.6097    7.0058    0.0000 C   0  0  0  0  0  0  0  0  0  0  0  0
    4.1831    6.5422    0.0000 C   0  0  0  0  0  0  0  0  0  0  0  0
    0.3943    1.2135    0.0000 C   0  0  0  0  0  0  0  0  0  0  0  0
    1.2760    0.0000    0.0000 N   0  0  0  0  0  0  0  0  0  0  0  0
    0.3943   -1.2135    0.0000 C   0  0  0  0  0  0  0  0  0  0  0  0
   -1.0323   -0.7500    0.0000 N   0  0  0  0  0  0  0  0  0  0  0  0
   -2.2458   -1.6317    0.0000 C   0  0  0  0  0  0  0  0  0  0  0  0
   -2.2458   -3.1317    0.0000 C   0  0  0  0  0  0  0  0  0  0  0  0
   -3.6724   -3.5952    0.0000 C   0  0  0  0  0  0  0  0  0  0  0  0
   -4.5541   -2.3817    0.0000 C   0  0  0  0  0  0  0  0  0  0  0  0
   -3.6724   -1.1682    0.0000 C   0  0  0  0  0  0  0  0  0  0  0  0
   -1.0323    0.7500    0.0000 C   0  0  0  0  0  0  0  0  0  0  0  0
   -2.1470    1.7537    0.0000 N   0  0  0  0  0  0  0  0  0  0  0  0
   -3.7527    6.6955    0.0000 C   0  0  0  0  0  0  0  0  0  0  0  0
   -3.4408    8.1628    0.0000 C   0  0  0  0  0  0  0  0  0  0  0  0
  1  2  1  0
  2  3  1  0
  3  4  1  0
  4  5  1  0
  5  6  1  0
  6  7  1  0
  7  8  2  0
  8  9  1  0
  9 10  1  0
 10 11  1  0
 11 12  1  0
 12 13  2  0
 13 14  1  0
 14 15  2  0
 15 16  1  0
 16 17  2  0
  9 18  2  0
 18 19  1  0
 19 20  2  0
 20 21  1  0
 21 22  1  0
 22 23  1  0
 23 24  1  0
 24 25  1  0
 25 26  1  0
 21 27  1  0
 27 28  2  0
  5 29  1  0
 29 30  1  0
 30  2  1  0
 28  7  1  0
 17 12  1  0
 27 18  1  0
 26 22  1  0
M  END
>  <Compound_ID>  (213) 
CHEMBL150261

>  <Active>  (213) 
1.0

>  <Smiles>  (213) 
NC1CCC(Nc2nc(NCc3ccccc3)c3ncn(C4CCCC4)c3n2)CC1

>  <canonical_smi>  (213) 
NC1CCC(Nc2nc(NCc3ccccc3)c3ncn(C4CCCC4)c3n2)CC1

>  <Set>  (213) 
G2 active

>  <Set_type>  (213) 
Train

>  <MW>  (213) 
405.55

>  <HBD>  (213) 
3

>  <HBA>  (213) 
6

>  <NRB>  (213) 
6

>  <NR>  (213) 
5

>  <NAR>  (213) 
3

>  <PSA>  (213) 
93.68

>  <Standard Type>  (213) 
nan

>  <Standard Relation>  (213) 
nan

>  <Standard Units>  (213) 
nan

>  <Standard Value>  (213) 
nan

>  <Assay ChEMBL ID>  (213) 
nan

>  <Assay Description>  (213) 
nan

>  <BAO Label>  (213) 
nan

$$$$

     RDKit          2D

 27 31  0  0  0  0  0  0  0  0999 V2000
   -0.0000   -5.1073    0.0000 O   0  0  0  0  0  0  0  0  0  0  0  0
   -0.0000   -3.6073    0.0000 C   0  0  0  0  0  0  0  0  0  0  0  0
    1.2135   -2.7256    0.0000 N   0  0  0  0  0  0  0  0  0  0  0  0
    0.7500   -1.2990    0.0000 C   0  0  0  0  0  0  0  0  0  0  0  0
    1.5000    0.0000    0.0000 C   0  0  0  0  0  0  0  0  0  0  0  0
    0.7500    1.2990    0.0000 C   0  0  0  0  0  0  0  0  0  0  0  0
   -0.7500    1.2990    0.0000 C   0  0  0  0  0  0  0  0  0  0  0  0
   -1.5000    0.0000    0.0000 C   0  0  0  0  0  0  0  0  0  0  0  0
   -3.0000    0.0000    0.0000 C   0  0  0  0  0  0  0  0  0  0  0  0
   -3.7500    1.2990    0.0000 C   0  0  0  0  0  0  0  0  0  0  0  0
   -5.2500    1.2990    0.0000 C   0  0  0  0  0  0  0  0  0  0  0  0
   -6.0000    0.0000    0.0000 N   0  0  0  0  0  0  0  0  0  0  0  0
   -5.2500   -1.2990    0.0000 C   0  0  0  0  0  0  0  0  0  0  0  0
   -3.7500   -1.2990    0.0000 C   0  0  0  0  0  0  0  0  0  0  0  0
   -0.7500   -1.2990    0.0000 C   0  0  0  0  0  0  0  0  0  0  0  0
   -1.2135   -2.7256    0.0000 C   0  0  0  0  0  0  0  0  0  0  0  0
   -2.6401   -3.1891    0.0000 C   0  0  0  0  0  0  0  0  0  0  0  0
   -2.9520   -4.6564    0.0000 C   0  0  0  0  0  0  0  0  0  0  0  0
   -1.9483   -5.7711    0.0000 N   0  0  0  0  0  0  0  0  0  0  0  0
   -2.6983   -7.0701    0.0000 C   0  0  0  0  0  0  0  0  0  0  0  0
   -4.1655   -6.7583    0.0000 C   0  0  0  0  0  0  0  0  0  0  0  0
   -4.3223   -5.2665    0.0000 C   0  0  0  0  0  0  0  0  0  0  0  0
   -5.6926   -4.6564    0.0000 C   0  0  0  0  0  0  0  0  0  0  0  0
   -6.9061   -5.5380    0.0000 C   0  0  0  0  0  0  0  0  0  0  0  0
   -6.7493   -7.0298    0.0000 N   0  0  0  0  0  0  0  0  0  0  0  0
   -5.3790   -7.6399    0.0000 C   0  0  0  0  0  0  0  0  0  0  0  0
   -5.2222   -9.1317    0.0000 O   0  0  0  0  0  0  0  0  0  0  0  0
  1  2  2  0
  2  3  1  0
  3  4  1  0
  4  5  2  0
  5  6  1  0
  6  7  2  0
  7  8  1  0
  8  9  1  0
  9 10  1  0
 10 11  1  0
 11 12  1  0
 12 13  1  0
 13 14  1  0
  8 15  2  0
 15 16  1  0
 16 17  2  0
 17 18  1  0
 18 19  1  0
 19 20  1  0
 20 21  2  0
 21 22  1  0
 22 23  1  0
 23 24  1  0
 24 25  1  0
 25 26  1  0
 26 27  2  0
 16  2  1  0
 22 18  2  0
 15  4  1  0
 26 21  1  0
 14  9  1  0
M  END
>  <Compound_ID>  (214) 
CHEMBL58466

>  <Active>  (214) 
1.0

>  <Smiles>  (214) 
O=C1Nc2cccc(C3CCNCC3)c2/C1=C/c1[nH]cc2c1CCNC2=O

>  <canonical_smi>  (214) 
O=C1Nc2cccc(C3CCNCC3)c2/C1=C/c1[nH]cc2c1CCNC2=O

>  <Set>  (214) 
G2 active

>  <Set_type>  (214) 
Train

>  <MW>  (214) 
362.43

>  <HBD>  (214) 
4

>  <HBA>  (214) 
3

>  <NRB>  (214) 
2

>  <NR>  (214) 
5

>  <NAR>  (214) 
2

>  <PSA>  (214) 
86.02

>  <Standard Type>  (214) 
nan

>  <Standard Relation>  (214) 
nan

>  <Standard Units>  (214) 
nan

>  <Standard Value>  (214) 
nan

>  <Assay ChEMBL ID>  (214) 
nan

>  <Assay Description>  (214) 
nan

>  <BAO Label>  (214) 
nan

$$$$

     RDKit          2D

 18 18  0  0  0  0  0  0  0  0999 V2000
    5.0260   -1.2990    0.0000 C   0  0  0  0  0  0  0  0  0  0  0  0
    3.5260   -1.2990    0.0000 C   0  0  0  0  0  0  0  0  0  0  0  0
    2.7760   -2.5981    0.0000 O   0  0  0  0  0  0  0  0  0  0  0  0
    2.7760    0.0000    0.0000 N   0  0  0  0  0  0  0  0  0  0  0  0
    1.2760    0.0000    0.0000 C   0  0  0  0  0  0  0  0  0  0  0  0
    0.3943    1.2135    0.0000 N   0  0  0  0  0  0  0  0  0  0  0  0
   -1.0323    0.7500    0.0000 C   0  0  0  0  0  0  0  0  0  0  0  0
   -1.0323   -0.7500    0.0000 C   0  0  0  0  0  0  0  0  0  0  0  0
   -2.2458   -1.6317    0.0000 S   0  0  0  0  0  0  0  0  0  0  0  0
   -3.6161   -1.0216    0.0000 C   0  0  0  0  0  0  0  0  0  0  0  0
   -4.8297   -1.9033    0.0000 C   0  0  0  0  0  0  0  0  0  0  0  0
   -4.6729   -3.3950    0.0000 O   0  0  0  0  0  0  0  0  0  0  0  0
   -6.2000   -1.2931    0.0000 O   0  0  0  0  0  0  0  0  0  0  0  0
   -7.4135   -2.1748    0.0000 C   0  0  0  0  0  0  0  0  0  0  0  0
   -8.2952   -0.9613    0.0000 C   0  0  0  0  0  0  0  0  0  0  0  0
   -6.5318   -3.3883    0.0000 C   0  0  0  0  0  0  0  0  0  0  0  0
   -8.6270   -3.0565    0.0000 C   0  0  0  0  0  0  0  0  0  0  0  0
    0.3943   -1.2135    0.0000 S   0  0  0  0  0  0  0  0  0  0  0  0
  1  2  1  0
  2  3  2  0
  2  4  1  0
  4  5  1  0
  5  6  2  0
  6  7  1  0
  7  8  2  0
  8  9  1  0
  9 10  1  0
 10 11  1  0
 11 12  2  0
 11 13  1  0
 13 14  1  0
 14 15  1  0
 14 16  1  0
 14 17  1  0
  8 18  1  0
 18  5  1  0
M  END
>  <Compound_ID>  (215) 
CHEMBL340012

>  <Active>  (215) 
1.0

>  <Smiles>  (215) 
CC(=O)Nc1ncc(SCC(=O)OC(C)(C)C)s1

>  <canonical_smi>  (215) 
CC(=O)Nc1ncc(SCC(=O)OC(C)(C)C)s1

>  <Set>  (215) 
G2 active

>  <Set_type>  (215) 
Train

>  <MW>  (215) 
288.39

>  <HBD>  (215) 
1

>  <HBA>  (215) 
5

>  <NRB>  (215) 
4

>  <NR>  (215) 
1

>  <NAR>  (215) 
1

>  <PSA>  (215) 
68.29

>  <Standard Type>  (215) 
nan

>  <Standard Relation>  (215) 
nan

>  <Standard Units>  (215) 
nan

>  <Standard Value>  (215) 
nan

>  <Assay ChEMBL ID>  (215) 
nan

>  <Assay Description>  (215) 
nan

>  <BAO Label>  (215) 
nan

$$$$

     RDKit          2D

 38 43  0  0  0  0  0  0  0  0999 V2000
   -8.5234   -7.7536    0.0000 C   0  0  0  0  0  0  0  0  0  0  0  0
   -7.0317   -7.5968    0.0000 O   0  0  0  0  0  0  0  0  0  0  0  0
   -6.4216   -6.2265    0.0000 C   0  0  0  0  0  0  0  0  0  0  0  0
   -7.3032   -5.0129    0.0000 C   0  0  0  0  0  0  0  0  0  0  0  0
   -6.6931   -3.6426    0.0000 C   0  0  0  0  0  0  0  0  0  0  0  0
   -5.2013   -3.4858    0.0000 C   0  0  0  0  0  0  0  0  0  0  0  0
   -4.5912   -2.1155    0.0000 C   0  0  0  0  0  0  0  0  0  0  0  0
   -5.3412   -0.8165    0.0000 N   0  0  0  0  0  0  0  0  0  0  0  0
   -4.3375    0.2982    0.0000 N   0  0  0  0  0  0  0  0  0  0  0  0
   -2.9672   -0.3119    0.0000 C   0  0  0  0  0  0  0  0  0  0  0  0
   -3.1240   -1.8037    0.0000 C   0  0  0  0  0  0  0  0  0  0  0  0
   -1.7537   -2.4138    0.0000 C   0  0  0  0  0  0  0  0  0  0  0  0
   -1.4418   -3.8810    0.0000 O   0  0  0  0  0  0  0  0  0  0  0  0
   -0.7500   -1.2990    0.0000 C   0  0  0  0  0  0  0  0  0  0  0  0
    0.7500   -1.2990    0.0000 C   0  0  0  0  0  0  0  0  0  0  0  0
    1.5000   -2.5981    0.0000 N   0  0  0  0  0  0  0  0  0  0  0  0
    3.0000   -2.5981    0.0000 C   0  0  0  0  0  0  0  0  0  0  0  0
    3.7500   -1.2990    0.0000 O   0  0  0  0  0  0  0  0  0  0  0  0
    3.7500   -3.8971    0.0000 N   0  0  0  0  0  0  0  0  0  0  0  0
    5.2500   -3.8971    0.0000 N   0  0  0  0  0  0  0  0  0  0  0  0
    6.0000   -5.1962    0.0000 C   0  0  0  0  0  0  0  0  0  0  0  0
    5.2500   -6.4952    0.0000 O   0  0  0  0  0  0  0  0  0  0  0  0
    7.5000   -5.1962    0.0000 C   0  0  0  0  0  0  0  0  0  0  0  0
    8.2500   -3.8971    0.0000 C   0  0  0  0  0  0  0  0  0  0  0  0
    9.7500   -3.8971    0.0000 C   0  0  0  0  0  0  0  0  0  0  0  0
   10.5000   -5.1962    0.0000 C   0  0  0  0  0  0  0  0  0  0  0  0
    9.7500   -6.4952    0.0000 C   0  0  0  0  0  0  0  0  0  0  0  0
   10.5000   -7.7942    0.0000 C   0  0  0  0  0  0  0  0  0  0  0  0
    9.7500   -9.0933    0.0000 C   0  0  0  0  0  0  0  0  0  0  0  0
    8.2500   -9.0933    0.0000 C   0  0  0  0  0  0  0  0  0  0  0  0
    7.5000   -7.7942    0.0000 C   0  0  0  0  0  0  0  0  0  0  0  0
    8.2500   -6.4952    0.0000 C   0  0  0  0  0  0  0  0  0  0  0  0
    1.5000    0.0000    0.0000 C   0  0  0  0  0  0  0  0  0  0  0  0
    0.7500    1.2990    0.0000 C   0  0  0  0  0  0  0  0  0  0  0  0
   -0.7500    1.2990    0.0000 C   0  0  0  0  0  0  0  0  0  0  0  0
   -1.5000    0.0000    0.0000 C   0  0  0  0  0  0  0  0  0  0  0  0
   -4.3197   -4.6994    0.0000 C   0  0  0  0  0  0  0  0  0  0  0  0
   -4.9298   -6.0697    0.0000 C   0  0  0  0  0  0  0  0  0  0  0  0
  1  2  1  0
  2  3  1  0
  3  4  2  0
  4  5  1  0
  5  6  2  0
  6  7  1  0
  7  8  1  0
  8  9  1  0
  9 10  2  0
 10 11  1  0
 11 12  1  0
 12 13  2  0
 12 14  1  0
 14 15  2  0
 15 16  1  0
 16 17  1  0
 17 18  2  0
 17 19  1  0
 19 20  1  0
 20 21  1  0
 21 22  2  0
 21 23  1  0
 23 24  2  0
 24 25  1  0
 25 26  2  0
 26 27  1  0
 27 28  2  0
 28 29  1  0
 29 30  2  0
 30 31  1  0
 31 32  2  0
 15 33  1  0
 33 34  2  0
 34 35  1  0
 35 36  2  0
  6 37  1  0
 37 38  2  0
 38  3  1  0
 11  7  2  0
 36 14  1  0
 36 10  1  0
 32 23  1  0
 32 27  1  0
M  END
>  <Compound_ID>  (216) 
CHEMBL364805

>  <Active>  (216) 
1.0

>  <Smiles>  (216) 
COc1ccc(-c2[nH]nc3c2C(=O)c2c(NC(=O)NNC(=O)c4cccc5ccccc45)cccc2-3)cc1

>  <canonical_smi>  (216) 
COc1ccc(-c2[nH]nc3c2C(=O)c2c(NC(=O)NNC(=O)c4cccc5ccccc45)cccc2-3)cc1

>  <Set>  (216) 
G2 active

>  <Set_type>  (216) 
Train

>  <MW>  (216) 
503.52

>  <HBD>  (216) 
4

>  <HBA>  (216) 
5

>  <NRB>  (216) 
4

>  <NR>  (216) 
6

>  <NAR>  (216) 
6

>  <PSA>  (216) 
125.21

>  <Standard Type>  (216) 
nan

>  <Standard Relation>  (216) 
nan

>  <Standard Units>  (216) 
nan

>  <Standard Value>  (216) 
nan

>  <Assay ChEMBL ID>  (216) 
nan

>  <Assay Description>  (216) 
nan

>  <BAO Label>  (216) 
nan

$$$$

     RDKit          2D

 24 27  0  0  0  0  0  0  0  0999 V2000
   -5.6213   -4.5165    0.0000 O   0  0  0  0  0  0  0  0  0  0  0  0
   -4.3223   -5.2665    0.0000 C   0  0  0  0  0  0  0  0  0  0  0  0
   -4.1655   -6.7583    0.0000 N   0  0  0  0  0  0  0  0  0  0  0  0
   -2.6983   -7.0701    0.0000 C   0  0  0  0  0  0  0  0  0  0  0  0
   -2.0882   -8.4404    0.0000 N   0  0  0  0  0  0  0  0  0  0  0  0
   -2.9699   -9.6540    0.0000 C   0  0  0  0  0  0  0  0  0  0  0  0
   -2.3597  -11.0243    0.0000 C   0  0  0  0  0  0  0  0  0  0  0  0
   -3.2414  -12.2378    0.0000 C   0  0  0  0  0  0  0  0  0  0  0  0
   -2.6313  -13.6081    0.0000 C   0  0  0  0  0  0  0  0  0  0  0  0
   -1.1395  -13.7649    0.0000 C   0  0  0  0  0  0  0  0  0  0  0  0
   -0.2579  -12.5514    0.0000 C   0  0  0  0  0  0  0  0  0  0  0  0
   -0.8680  -11.1811    0.0000 C   0  0  0  0  0  0  0  0  0  0  0  0
   -1.9483   -5.7711    0.0000 S   0  0  0  0  0  0  0  0  0  0  0  0
   -2.9520   -4.6564    0.0000 C   0  0  0  0  0  0  0  0  0  0  0  0
   -2.6401   -3.1891    0.0000 C   0  0  0  0  0  0  0  0  0  0  0  0
   -1.2135   -2.7256    0.0000 C   0  0  0  0  0  0  0  0  0  0  0  0
   -0.0000   -3.6073    0.0000 C   0  0  0  0  0  0  0  0  0  0  0  0
    1.2135   -2.7256    0.0000 N   0  0  0  0  0  0  0  0  0  0  0  0
    0.7500   -1.2990    0.0000 C   0  0  0  0  0  0  0  0  0  0  0  0
    1.5000    0.0000    0.0000 N   0  0  0  0  0  0  0  0  0  0  0  0
    0.7500    1.2990    0.0000 C   0  0  0  0  0  0  0  0  0  0  0  0
   -0.7500    1.2990    0.0000 C   0  0  0  0  0  0  0  0  0  0  0  0
   -1.5000    0.0000    0.0000 C   0  0  0  0  0  0  0  0  0  0  0  0
   -0.7500   -1.2990    0.0000 C   0  0  0  0  0  0  0  0  0  0  0  0
  1  2  2  0
  2  3  1  0
  3  4  2  0
  4  5  1  0
  5  6  1  0
  6  7  1  0
  7  8  2  0
  8  9  1  0
  9 10  2  0
 10 11  1  0
 11 12  2  0
  4 13  1  0
 13 14  1  0
 14 15  2  0
 15 16  1  0
 16 17  2  0
 17 18  1  0
 18 19  1  0
 19 20  2  0
 20 21  1  0
 21 22  2  0
 22 23  1  0
 23 24  2  0
 14  2  1  0
 24 16  1  0
 12  7  1  0
 24 19  1  0
M  END
>  <Compound_ID>  (217) 
CHEMBL484990

>  <Active>  (217) 
1.0

>  <Smiles>  (217) 
O=C1N=C(NCc2ccccc2)S/C1=C\c1c[nH]c2ncccc12

>  <canonical_smi>  (217) 
O=C1N=C(NCc2ccccc2)S/C1=C\c1c[nH]c2ncccc12

>  <Set>  (217) 
G2 active

>  <Set_type>  (217) 
Train

>  <MW>  (217) 
334.4

>  <HBD>  (217) 
2

>  <HBA>  (217) 
4

>  <NRB>  (217) 
3

>  <NR>  (217) 
4

>  <NAR>  (217) 
3

>  <PSA>  (217) 
70.14

>  <Standard Type>  (217) 
nan

>  <Standard Relation>  (217) 
nan

>  <Standard Units>  (217) 
nan

>  <Standard Value>  (217) 
nan

>  <Assay ChEMBL ID>  (217) 
nan

>  <Assay Description>  (217) 
nan

>  <BAO Label>  (217) 
nan

$$$$

     RDKit          2D

 17 18  0  0  0  0  0  0  0  0999 V2000
    5.0260   -1.2990    0.0000 C   0  0  0  0  0  0  0  0  0  0  0  0
    3.5260   -1.2990    0.0000 C   0  0  0  0  0  0  0  0  0  0  0  0
    2.7760   -2.5981    0.0000 O   0  0  0  0  0  0  0  0  0  0  0  0
    2.7760    0.0000    0.0000 N   0  0  0  0  0  0  0  0  0  0  0  0
    1.2760    0.0000    0.0000 C   0  0  0  0  0  0  0  0  0  0  0  0
    0.3943    1.2135    0.0000 N   0  0  0  0  0  0  0  0  0  0  0  0
   -1.0323    0.7500    0.0000 C   0  0  0  0  0  0  0  0  0  0  0  0
   -2.2458    1.6317    0.0000 C   0  0  0  0  0  0  0  0  0  0  0  0
   -2.0890    3.1235    0.0000 C   0  0  0  0  0  0  0  0  0  0  0  0
   -3.2037    4.1272    0.0000 N   0  0  0  0  0  0  0  0  0  0  0  0
   -2.5936    5.4975    0.0000 N   0  0  0  0  0  0  0  0  0  0  0  0
   -1.1018    5.3407    0.0000 C   0  0  0  0  0  0  0  0  0  0  0  0
   -0.0982    6.4554    0.0000 S   0  0  0  0  0  0  0  0  0  0  0  0
   -0.7900    3.8735    0.0000 N   0  0  0  0  0  0  0  0  0  0  0  0
    0.5803    3.2634    0.0000 N   0  0  0  0  0  0  0  0  0  0  0  0
   -1.0323   -0.7500    0.0000 C   0  0  0  0  0  0  0  0  0  0  0  0
    0.3943   -1.2135    0.0000 S   0  0  0  0  0  0  0  0  0  0  0  0
  1  2  1  0
  2  3  2  0
  2  4  1  0
  4  5  1  0
  5  6  2  0
  6  7  1  0
  7  8  1  0
  8  9  1  0
  9 10  2  0
 10 11  1  0
 11 12  2  0
 12 13  1  0
 12 14  1  0
 14 15  1  0
  7 16  2  0
 16 17  1  0
 17  5  1  0
 14  9  1  0
M  END
>  <Compound_ID>  (218) 
CHEMBL390918

>  <Active>  (218) 
1.0

>  <Smiles>  (218) 
CC(=O)Nc1nc(Cc2nnc(S)n2N)cs1

>  <canonical_smi>  (218) 
CC(=O)Nc1nc(Cc2nnc(S)n2N)cs1

>  <Set>  (218) 
G2 active

>  <Set_type>  (218) 
Train

>  <MW>  (218) 
270.34

>  <HBD>  (218) 
3

>  <HBA>  (218) 
5

>  <NRB>  (218) 
3

>  <NR>  (218) 
2

>  <NAR>  (218) 
2

>  <PSA>  (218) 
98.72

>  <Standard Type>  (218) 
nan

>  <Standard Relation>  (218) 
nan

>  <Standard Units>  (218) 
nan

>  <Standard Value>  (218) 
nan

>  <Assay ChEMBL ID>  (218) 
nan

>  <Assay Description>  (218) 
nan

>  <BAO Label>  (218) 
nan

$$$$

     RDKit          2D

 31 34  0  0  0  0  0  0  0  0999 V2000
    8.0260   -3.8971    0.0000 C   0  0  0  0  0  0  0  0  0  0  0  0
    7.2760   -2.5981    0.0000 C   0  0  0  0  0  0  0  0  0  0  0  0
    5.7760   -2.5981    0.0000 C   0  0  0  0  0  0  0  0  0  0  0  0
    5.0260   -1.2990    0.0000 C   0  0  0  0  0  0  0  0  0  0  0  0
    3.5260   -1.2990    0.0000 N   0  0  0  0  0  0  0  0  0  0  0  0
    2.7760    0.0000    0.0000 C   0  0  0  0  0  0  0  0  0  0  0  0
    3.5260    1.2990    0.0000 O   0  0  0  0  0  0  0  0  0  0  0  0
    1.2760    0.0000    0.0000 N   0  0  0  0  0  0  0  0  0  0  0  0
    0.3943    1.2135    0.0000 C   0  0  0  0  0  0  0  0  0  0  0  0
   -1.0323    0.7500    0.0000 C   0  0  0  0  0  0  0  0  0  0  0  0
   -2.4589    1.2135    0.0000 N   0  0  0  0  0  0  0  0  0  0  0  0
   -3.3405    0.0000    0.0000 N   0  0  0  0  0  0  0  0  0  0  0  0
   -2.4589   -1.2135    0.0000 C   0  0  0  0  0  0  0  0  0  0  0  0
   -2.9224   -2.6401    0.0000 N   0  0  0  0  0  0  0  0  0  0  0  0
   -4.3896   -2.9520    0.0000 C   0  0  0  0  0  0  0  0  0  0  0  0
   -5.3933   -1.8373    0.0000 O   0  0  0  0  0  0  0  0  0  0  0  0
   -4.8531   -4.3786    0.0000 C   0  0  0  0  0  0  0  0  0  0  0  0
   -6.3204   -4.6904    0.0000 C   0  0  0  0  0  0  0  0  0  0  0  0
   -7.3241   -3.5757    0.0000 C   0  0  0  0  0  0  0  0  0  0  0  0
   -8.7913   -3.8876    0.0000 C   0  0  0  0  0  0  0  0  0  0  0  0
   -9.2548   -5.3142    0.0000 C   0  0  0  0  0  0  0  0  0  0  0  0
  -10.7220   -5.6260    0.0000 N   0  0  0  0  0  0  0  0  0  0  0  0
  -11.3321   -6.9964    0.0000 C   0  0  0  0  0  0  0  0  0  0  0  0
  -12.8239   -6.8396    0.0000 C   0  0  0  0  0  0  0  0  0  0  0  0
  -13.1358   -5.3723    0.0000 C   0  0  0  0  0  0  0  0  0  0  0  0
  -11.8367   -4.6223    0.0000 C   0  0  0  0  0  0  0  0  0  0  0  0
  -11.6800   -3.1306    0.0000 O   0  0  0  0  0  0  0  0  0  0  0  0
   -8.2511   -6.4289    0.0000 C   0  0  0  0  0  0  0  0  0  0  0  0
   -6.7839   -6.1170    0.0000 C   0  0  0  0  0  0  0  0  0  0  0  0
   -1.0323   -0.7500    0.0000 C   0  0  0  0  0  0  0  0  0  0  0  0
    0.3943   -1.2135    0.0000 C   0  0  0  0  0  0  0  0  0  0  0  0
  1  2  1  0
  2  3  1  0
  3  4  1  0
  4  5  1  0
  5  6  1  0
  6  7  2  0
  6  8  1  0
  8  9  1  0
  9 10  1  0
 10 11  2  0
 11 12  1  0
 12 13  1  0
 13 14  1  0
 14 15  1  0
 15 16  2  0
 15 17  1  0
 17 18  1  0
 18 19  2  0
 19 20  1  0
 20 21  2  0
 21 22  1  0
 22 23  1  0
 23 24  1  0
 24 25  1  0
 25 26  1  0
 26 27  2  0
 21 28  1  0
 28 29  2  0
 13 30  2  0
 30 31  1  0
 31  8  1  0
 30 10  1  0
 29 18  1  0
 26 22  1  0
M  END
>  <Compound_ID>  (219) 
CHEMBL381565

>  <Active>  (219) 
1.0

>  <Smiles>  (219) 
CCCCNC(=O)N1Cc2n[nH]c(NC(=O)Cc3ccc(N4CCCC4=O)cc3)c2C1

>  <canonical_smi>  (219) 
CCCCNC(=O)N1Cc2n[nH]c(NC(=O)Cc3ccc(N4CCCC4=O)cc3)c2C1

>  <Set>  (219) 
G2 active

>  <Set_type>  (219) 
Train

>  <MW>  (219) 
424.51

>  <HBD>  (219) 
3

>  <HBA>  (219) 
4

>  <NRB>  (219) 
7

>  <NR>  (219) 
4

>  <NAR>  (219) 
2

>  <PSA>  (219) 
110.43

>  <Standard Type>  (219) 
nan

>  <Standard Relation>  (219) 
nan

>  <Standard Units>  (219) 
nan

>  <Standard Value>  (219) 
nan

>  <Assay ChEMBL ID>  (219) 
nan

>  <Assay Description>  (219) 
nan

>  <BAO Label>  (219) 
nan

$$$$

     RDKit          2D

 23 26  0  0  0  0  0  0  0  0999 V2000
    3.4430   -7.9964    0.0000 O   0  0  0  0  0  0  0  0  0  0  0  0
    3.7548   -6.5291    0.0000 C   0  0  0  0  0  0  0  0  0  0  0  0
    2.6401   -5.5255    0.0000 N   0  0  0  0  0  0  0  0  0  0  0  0
    1.2135   -5.9890    0.0000 C   0  0  0  0  0  0  0  0  0  0  0  0
    0.7500   -7.4156    0.0000 C   0  0  0  0  0  0  0  0  0  0  0  0
   -0.7500   -7.4156    0.0000 N   0  0  0  0  0  0  0  0  0  0  0  0
   -1.2135   -5.9890    0.0000 N   0  0  0  0  0  0  0  0  0  0  0  0
   -0.0000   -5.1073    0.0000 C   0  0  0  0  0  0  0  0  0  0  0  0
   -0.0000   -3.6073    0.0000 C   0  0  0  0  0  0  0  0  0  0  0  0
    1.2135   -2.7256    0.0000 N   0  0  0  0  0  0  0  0  0  0  0  0
    0.7500   -1.2990    0.0000 C   0  0  0  0  0  0  0  0  0  0  0  0
    1.5000    0.0000    0.0000 C   0  0  0  0  0  0  0  0  0  0  0  0
    0.7500    1.2990    0.0000 C   0  0  0  0  0  0  0  0  0  0  0  0
   -0.7500    1.2990    0.0000 C   0  0  0  0  0  0  0  0  0  0  0  0
   -1.5000    0.0000    0.0000 C   0  0  0  0  0  0  0  0  0  0  0  0
   -0.7500   -1.2990    0.0000 C   0  0  0  0  0  0  0  0  0  0  0  0
   -1.2135   -2.7256    0.0000 N   0  0  0  0  0  0  0  0  0  0  0  0
    5.1814   -6.0656    0.0000 C   0  0  0  0  0  0  0  0  0  0  0  0
    6.2961   -7.0693    0.0000 C   0  0  0  0  0  0  0  0  0  0  0  0
    7.7227   -6.6058    0.0000 C   0  0  0  0  0  0  0  0  0  0  0  0
    8.0346   -5.1386    0.0000 C   0  0  0  0  0  0  0  0  0  0  0  0
    6.9199   -4.1349    0.0000 C   0  0  0  0  0  0  0  0  0  0  0  0
    5.4933   -4.5984    0.0000 C   0  0  0  0  0  0  0  0  0  0  0  0
  1  2  2  0
  2  3  1  0
  3  4  1  0
  4  5  2  0
  5  6  1  0
  6  7  1  0
  7  8  2  0
  8  9  1  0
  9 10  2  0
 10 11  1  0
 11 12  2  0
 12 13  1  0
 13 14  2  0
 14 15  1  0
 15 16  2  0
 16 17  1  0
  2 18  1  0
 18 19  2  0
 19 20  1  0
 20 21  2  0
 21 22  1  0
 22 23  2  0
  8  4  1  0
 17  9  1  0
 23 18  1  0
 16 11  1  0
M  END
>  <Compound_ID>  (220) 
CHEMBL522891

>  <Active>  (220) 
1.0

>  <Smiles>  (220) 
O=C(Nc1c[nH]nc1-c1nc2ccccc2[nH]1)c1ccccc1

>  <canonical_smi>  (220) 
O=C(Nc1c[nH]nc1-c1nc2ccccc2[nH]1)c1ccccc1

>  <Set>  (220) 
G2 active

>  <Set_type>  (220) 
Train

>  <MW>  (220) 
303.33

>  <HBD>  (220) 
3

>  <HBA>  (220) 
3

>  <NRB>  (220) 
3

>  <NR>  (220) 
4

>  <NAR>  (220) 
4

>  <PSA>  (220) 
86.46

>  <Standard Type>  (220) 
nan

>  <Standard Relation>  (220) 
nan

>  <Standard Units>  (220) 
nan

>  <Standard Value>  (220) 
nan

>  <Assay ChEMBL ID>  (220) 
nan

>  <Assay Description>  (220) 
nan

>  <BAO Label>  (220) 
nan

$$$$

     RDKit          2D

 30 33  0  0  0  0  0  0  0  0999 V2000
   -1.5342  -12.0455    0.0000 N   0  0  0  0  0  0  0  0  0  0  0  0
   -2.9046  -11.4354    0.0000 C   0  0  0  0  0  0  0  0  0  0  0  0
   -3.0613   -9.9436    0.0000 C   0  0  0  0  0  0  0  0  0  0  0  0
   -1.8478   -9.0619    0.0000 N   0  0  0  0  0  0  0  0  0  0  0  0
   -2.0046   -7.5702    0.0000 C   0  0  0  0  0  0  0  0  0  0  0  0
   -3.3037   -6.8202    0.0000 N   0  0  0  0  0  0  0  0  0  0  0  0
   -2.9918   -5.3529    0.0000 N   0  0  0  0  0  0  0  0  0  0  0  0
   -1.5000   -5.1962    0.0000 C   0  0  0  0  0  0  0  0  0  0  0  0
   -0.7500   -3.8971    0.0000 C   0  0  0  0  0  0  0  0  0  0  0  0
    0.7500   -3.8971    0.0000 C   0  0  0  0  0  0  0  0  0  0  0  0
    1.5000   -2.5981    0.0000 C   0  0  0  0  0  0  0  0  0  0  0  0
    0.7500   -1.2990    0.0000 C   0  0  0  0  0  0  0  0  0  0  0  0
    1.5000    0.0000    0.0000 C   0  0  0  0  0  0  0  0  0  0  0  0
    0.7500    1.2990    0.0000 N   0  0  0  0  0  0  0  0  0  0  0  0
   -0.7500    1.2990    0.0000 C   0  0  0  0  0  0  0  0  0  0  0  0
   -1.5000    0.0000    0.0000 C   0  0  0  0  0  0  0  0  0  0  0  0
   -0.7500   -1.2990    0.0000 C   0  0  0  0  0  0  0  0  0  0  0  0
   -1.5000   -2.5981    0.0000 C   0  0  0  0  0  0  0  0  0  0  0  0
   -0.8899   -6.5665    0.0000 S   0  0  0  0  0  0  0  0  0  0  0  0
   -4.1181  -12.3171    0.0000 C   0  0  0  0  0  0  0  0  0  0  0  0
   -3.9613  -13.8089    0.0000 C   0  0  0  0  0  0  0  0  0  0  0  0
   -5.1748  -14.6905    0.0000 C   0  0  0  0  0  0  0  0  0  0  0  0
   -5.0180  -16.1823    0.0000 C   0  0  0  0  0  0  0  0  0  0  0  0
   -3.6477  -16.7924    0.0000 C   0  0  0  0  0  0  0  0  0  0  0  0
   -3.4909  -18.2842    0.0000 C   0  0  0  0  0  0  0  0  0  0  0  0
   -3.3341  -19.7760    0.0000 F   0  0  0  0  0  0  0  0  0  0  0  0
   -4.9827  -18.4410    0.0000 F   0  0  0  0  0  0  0  0  0  0  0  0
   -1.9991  -18.1274    0.0000 F   0  0  0  0  0  0  0  0  0  0  0  0
   -2.4342  -15.9108    0.0000 C   0  0  0  0  0  0  0  0  0  0  0  0
   -2.5910  -14.4190    0.0000 C   0  0  0  0  0  0  0  0  0  0  0  0
  2  1  1  1
  2  3  1  0
  3  4  1  0
  4  5  1  0
  5  6  2  0
  6  7  1  0
  7  8  2  0
  8  9  1  0
  9 10  2  0
 10 11  1  0
 11 12  2  0
 12 13  1  0
 13 14  2  0
 14 15  1  0
 15 16  2  0
 16 17  1  0
 17 18  2  0
  8 19  1  0
  2 20  1  0
 20 21  1  0
 21 22  2  0
 22 23  1  0
 23 24  2  0
 24 25  1  0
 25 26  1  0
 25 27  1  0
 25 28  1  0
 24 29  1  0
 29 30  2  0
 19  5  1  0
 30 21  1  0
 18  9  1  0
 17 12  1  0
M  END
>  <Compound_ID>  (221) 
CHEMBL1080569

>  <Active>  (221) 
1.0

>  <Smiles>  (221) 
N[C@H](CNc1nnc(-c2ccc3cnccc3c2)s1)Cc1ccc(C(F)(F)F)cc1

>  <canonical_smi>  (221) 
N[C@H](CNc1nnc(-c2ccc3cnccc3c2)s1)Cc1ccc(C(F)(F)F)cc1

>  <Set>  (221) 
G2 active

>  <Set_type>  (221) 
Train

>  <MW>  (221) 
429.47

>  <HBD>  (221) 
2

>  <HBA>  (221) 
5

>  <NRB>  (221) 
6

>  <NR>  (221) 
4

>  <NAR>  (221) 
4

>  <PSA>  (221) 
76.72

>  <Standard Type>  (221) 
nan

>  <Standard Relation>  (221) 
nan

>  <Standard Units>  (221) 
nan

>  <Standard Value>  (221) 
nan

>  <Assay ChEMBL ID>  (221) 
nan

>  <Assay Description>  (221) 
nan

>  <BAO Label>  (221) 
nan

$$$$

     RDKit          2D

 35 39  0  0  0  0  0  0  0  0999 V2000
   -2.2447   -8.9500    0.0000 C   0  0  0  0  0  0  0  0  0  0  0  0
   -2.5565   -7.4827    0.0000 N   0  0  0  0  0  0  0  0  0  0  0  0
   -1.4418   -6.4791    0.0000 C   0  0  0  0  0  0  0  0  0  0  0  0
   -0.0152   -6.9426    0.0000 O   0  0  0  0  0  0  0  0  0  0  0  0
   -1.7537   -5.0118    0.0000 C   0  0  0  0  0  0  0  0  0  0  0  0
   -3.1240   -4.4017    0.0000 N   0  0  0  0  0  0  0  0  0  0  0  0
   -2.9672   -2.9099    0.0000 N   0  0  0  0  0  0  0  0  0  0  0  0
   -4.0819   -1.9062    0.0000 C   0  0  0  0  0  0  0  0  0  0  0  0
   -1.5000   -2.5981    0.0000 C   0  0  0  0  0  0  0  0  0  0  0  0
   -0.7500   -3.8971    0.0000 C   0  0  0  0  0  0  0  0  0  0  0  0
    0.7500   -3.8971    0.0000 C   0  0  0  0  0  0  0  0  0  0  0  0
    2.1595   -4.4101    0.0000 C   0  0  0  0  0  0  0  0  0  0  0  0
    0.4895   -5.3743    0.0000 C   0  0  0  0  0  0  0  0  0  0  0  0
    1.5000   -2.5981    0.0000 C   0  0  0  0  0  0  0  0  0  0  0  0
    0.7500   -1.2990    0.0000 C   0  0  0  0  0  0  0  0  0  0  0  0
    1.5000    0.0000    0.0000 C   0  0  0  0  0  0  0  0  0  0  0  0
    0.7500    1.2990    0.0000 N   0  0  0  0  0  0  0  0  0  0  0  0
   -0.7500    1.2990    0.0000 C   0  0  0  0  0  0  0  0  0  0  0  0
   -1.5000    2.5981    0.0000 N   0  0  0  0  0  0  0  0  0  0  0  0
   -0.7500    3.8971    0.0000 C   0  0  0  0  0  0  0  0  0  0  0  0
    0.7500    3.8971    0.0000 C   0  0  0  0  0  0  0  0  0  0  0  0
    1.5000    5.1962    0.0000 C   0  0  0  0  0  0  0  0  0  0  0  0
    0.7500    6.4952    0.0000 C   0  0  0  0  0  0  0  0  0  0  0  0
    1.5000    7.7942    0.0000 C   0  0  0  0  0  0  0  0  0  0  0  0
    3.0000    7.7942    0.0000 N   0  0  0  0  0  0  0  0  0  0  0  0
    3.7500    6.4952    0.0000 C   0  0  0  0  0  0  0  0  0  0  0  0
    5.2500    6.4952    0.0000 C   0  0  0  0  0  0  0  0  0  0  0  0
    6.0000    7.7942    0.0000 N   0  0  0  0  0  0  0  0  0  0  0  0
    7.5000    7.7942    0.0000 C   0  0  0  0  0  0  0  0  0  0  0  0
    5.2500    9.0933    0.0000 C   0  0  0  0  0  0  0  0  0  0  0  0
    3.7500    9.0933    0.0000 C   0  0  0  0  0  0  0  0  0  0  0  0
   -0.7500    6.4952    0.0000 C   0  0  0  0  0  0  0  0  0  0  0  0
   -1.5000    5.1962    0.0000 C   0  0  0  0  0  0  0  0  0  0  0  0
   -1.5000    0.0000    0.0000 N   0  0  0  0  0  0  0  0  0  0  0  0
   -0.7500   -1.2990    0.0000 C   0  0  0  0  0  0  0  0  0  0  0  0
  1  2  1  0
  2  3  1  0
  3  4  2  0
  3  5  1  0
  5  6  2  0
  6  7  1  0
  7  8  1  0
  7  9  1  0
  9 10  2  0
 10 11  1  0
 11 12  1  0
 11 13  1  0
 11 14  1  0
 14 15  1  0
 15 16  2  0
 16 17  1  0
 17 18  2  0
 18 19  1  0
 19 20  1  0
 20 21  2  0
 21 22  1  0
 22 23  2  0
 23 24  1  0
 24 25  1  0
 25 26  1  0
 26 27  1  0
 27 28  1  0
 28 29  1  0
 28 30  1  0
 30 31  1  0
 23 32  1  0
 32 33  2  0
 18 34  1  0
 34 35  2  0
 10  5  1  0
 35 15  1  0
 35  9  1  0
 33 20  1  0
 31 25  1  0
M  END
>  <Compound_ID>  (222) 
CHEMBL549675

>  <Active>  (222) 
1.0

>  <Smiles>  (222) 
CNC(=O)c1nn(C)c2c1C(C)(C)Cc1cnc(Nc3ccc(CN4CCN(C)CC4)cc3)nc1-2

>  <canonical_smi>  (222) 
CNC(=O)c1nn(C)c2c1C(C)(C)Cc1cnc(Nc3ccc(CN4CCN(C)CC4)cc3)nc1-2

>  <Set>  (222) 
G2 active

>  <Set_type>  (222) 
Train

>  <MW>  (222) 
474.61

>  <HBD>  (222) 
2

>  <HBA>  (222) 
7

>  <NRB>  (222) 
5

>  <NR>  (222) 
5

>  <NAR>  (222) 
3

>  <PSA>  (222) 
91.21

>  <Standard Type>  (222) 
nan

>  <Standard Relation>  (222) 
nan

>  <Standard Units>  (222) 
nan

>  <Standard Value>  (222) 
nan

>  <Assay ChEMBL ID>  (222) 
nan

>  <Assay Description>  (222) 
nan

>  <BAO Label>  (222) 
nan

$$$$

     RDKit          2D

 30 33  0  0  0  0  0  0  0  0999 V2000
    7.4146   -6.0524    0.0000 N   0  0  0  0  0  0  0  0  0  0  0  0
    6.2011   -6.9341    0.0000 C   0  0  0  0  0  0  0  0  0  0  0  0
    4.8308   -6.3240    0.0000 C   0  0  0  0  0  0  0  0  0  0  0  0
    4.6740   -4.8322    0.0000 N   0  0  0  0  0  0  0  0  0  0  0  0
    3.3037   -4.2221    0.0000 C   0  0  0  0  0  0  0  0  0  0  0  0
    2.0046   -4.9721    0.0000 N   0  0  0  0  0  0  0  0  0  0  0  0
    0.8899   -3.9684    0.0000 C   0  0  0  0  0  0  0  0  0  0  0  0
    1.5000   -2.5981    0.0000 C   0  0  0  0  0  0  0  0  0  0  0  0
    0.7500   -1.2990    0.0000 C   0  0  0  0  0  0  0  0  0  0  0  0
    1.5000    0.0000    0.0000 C   0  0  0  0  0  0  0  0  0  0  0  0
    0.7500    1.2990    0.0000 C   0  0  0  0  0  0  0  0  0  0  0  0
   -0.7500    1.2990    0.0000 C   0  0  0  0  0  0  0  0  0  0  0  0
   -1.7537    2.4138    0.0000 N   0  0  0  0  0  0  0  0  0  0  0  0
   -3.1240    1.8037    0.0000 N   0  0  0  0  0  0  0  0  0  0  0  0
   -2.9672    0.3119    0.0000 N   0  0  0  0  0  0  0  0  0  0  0  0
   -4.0819   -0.6918    0.0000 N   0  0  0  0  0  0  0  0  0  0  0  0
   -1.5000    0.0000    0.0000 C   0  0  0  0  0  0  0  0  0  0  0  0
   -0.7500   -1.2990    0.0000 C   0  0  0  0  0  0  0  0  0  0  0  0
    2.9918   -2.7549    0.0000 S   0  0  0  0  0  0  0  0  0  0  0  0
    6.3579   -8.4259    0.0000 C   0  0  0  0  0  0  0  0  0  0  0  0
    7.7282   -9.0360    0.0000 C   0  0  0  0  0  0  0  0  0  0  0  0
    7.8850  -10.5278    0.0000 C   0  0  0  0  0  0  0  0  0  0  0  0
    9.2553  -11.1379    0.0000 C   0  0  0  0  0  0  0  0  0  0  0  0
   10.4688  -10.2562    0.0000 C   0  0  0  0  0  0  0  0  0  0  0  0
   11.8391  -10.8663    0.0000 C   0  0  0  0  0  0  0  0  0  0  0  0
   13.2095  -11.4764    0.0000 F   0  0  0  0  0  0  0  0  0  0  0  0
   11.2290  -12.2366    0.0000 F   0  0  0  0  0  0  0  0  0  0  0  0
   12.4492   -9.4960    0.0000 F   0  0  0  0  0  0  0  0  0  0  0  0
   10.3120   -8.7644    0.0000 C   0  0  0  0  0  0  0  0  0  0  0  0
    8.9417   -8.1543    0.0000 C   0  0  0  0  0  0  0  0  0  0  0  0
  2  1  1  1
  2  3  1  0
  3  4  1  0
  4  5  1  0
  5  6  2  0
  6  7  1  0
  7  8  2  0
  8  9  1  0
  9 10  2  0
 10 11  1  0
 11 12  2  0
 12 13  1  0
 13 14  2  0
 14 15  1  0
 15 16  1  0
 15 17  1  0
 17 18  2  0
  8 19  1  0
  2 20  1  0
 20 21  1  0
 21 22  2  0
 22 23  1  0
 23 24  2  0
 24 25  1  0
 25 26  1  0
 25 27  1  0
 25 28  1  0
 24 29  1  0
 29 30  2  0
 19  5  1  0
 30 21  1  0
 18  9  1  0
 17 12  1  0
M  END
>  <Compound_ID>  (223) 
CHEMBL1081830

>  <Active>  (223) 
1.0

>  <Smiles>  (223) 
N[C@H](CNc1ncc(-c2ccc3nnn(N)c3c2)s1)Cc1ccc(C(F)(F)F)cc1

>  <canonical_smi>  (223) 
N[C@H](CNc1ncc(-c2ccc3nnn(N)c3c2)s1)Cc1ccc(C(F)(F)F)cc1

>  <Set>  (223) 
G2 active

>  <Set_type>  (223) 
Train

>  <MW>  (223) 
433.46

>  <HBD>  (223) 
3

>  <HBA>  (223) 
6

>  <NRB>  (223) 
6

>  <NR>  (223) 
4

>  <NAR>  (223) 
4

>  <PSA>  (223) 
107.67

>  <Standard Type>  (223) 
nan

>  <Standard Relation>  (223) 
nan

>  <Standard Units>  (223) 
nan

>  <Standard Value>  (223) 
nan

>  <Assay ChEMBL ID>  (223) 
nan

>  <Assay Description>  (223) 
nan

>  <BAO Label>  (223) 
nan

$$$$

     RDKit          2D

 29 32  0  0  0  0  0  0  0  0999 V2000
    3.0000    0.0000    0.0000 C   0  0  0  0  0  0  0  0  0  0  0  0
    1.5000    0.0000    0.0000 C   0  0  0  0  0  0  0  0  0  0  0  0
    0.7500   -1.2990    0.0000 C   0  0  0  0  0  0  0  0  0  0  0  0
   -0.7500   -1.2990    0.0000 C   0  0  0  0  0  0  0  0  0  0  0  0
   -1.5000   -2.5981    0.0000 N   0  0  0  0  0  0  0  0  0  0  0  0
   -0.8899   -3.9684    0.0000 C   0  0  0  0  0  0  0  0  0  0  0  0
    0.5773   -4.2803    0.0000 O   0  0  0  0  0  0  0  0  0  0  0  0
   -2.0046   -4.9721    0.0000 C   0  0  0  0  0  0  0  0  0  0  0  0
   -3.3037   -4.2221    0.0000 N   0  0  0  0  0  0  0  0  0  0  0  0
   -4.6740   -4.8322    0.0000 C   0  0  0  0  0  0  0  0  0  0  0  0
   -2.9918   -2.7549    0.0000 C   0  0  0  0  0  0  0  0  0  0  0  0
   -3.9955   -1.6402    0.0000 O   0  0  0  0  0  0  0  0  0  0  0  0
   -1.5000    0.0000    0.0000 C   0  0  0  0  0  0  0  0  0  0  0  0
   -3.0000    0.0000    0.0000 O   0  0  0  0  0  0  0  0  0  0  0  0
   -3.7500    1.2990    0.0000 C   0  0  0  0  0  0  0  0  0  0  0  0
   -5.2500    1.2990    0.0000 C   0  0  0  0  0  0  0  0  0  0  0  0
   -6.0000    2.5981    0.0000 C   0  0  0  0  0  0  0  0  0  0  0  0
   -7.5000    2.5981    0.0000 C   0  0  0  0  0  0  0  0  0  0  0  0
   -8.2500    1.2990    0.0000 C   0  0  0  0  0  0  0  0  0  0  0  0
   -9.7500    1.2990    0.0000 O   0  0  0  0  0  0  0  0  0  0  0  0
   -7.5000    0.0000    0.0000 C   0  0  0  0  0  0  0  0  0  0  0  0
   -8.2500   -1.2990    0.0000 O   0  0  0  0  0  0  0  0  0  0  0  0
   -6.0000    0.0000    0.0000 C   0  0  0  0  0  0  0  0  0  0  0  0
   -3.0000    2.5981    0.0000 C   0  0  0  0  0  0  0  0  0  0  0  0
   -3.7500    3.8971    0.0000 O   0  0  0  0  0  0  0  0  0  0  0  0
   -1.5000    2.5981    0.0000 C   0  0  0  0  0  0  0  0  0  0  0  0
   -0.7500    3.8971    0.0000 O   0  0  0  0  0  0  0  0  0  0  0  0
   -0.7500    1.2990    0.0000 C   0  0  0  0  0  0  0  0  0  0  0  0
    0.7500    1.2990    0.0000 C   0  0  0  0  0  0  0  0  0  0  0  0
  1  2  1  0
  2  3  2  0
  3  4  1  0
  4  5  1  0
  5  6  1  0
  6  7  2  0
  6  8  1  0
  8  9  1  0
  9 10  1  0
  9 11  1  0
 11 12  2  0
  4 13  2  0
 13 14  1  0
 14 15  1  0
 15 16  1  0
 16 17  2  0
 17 18  1  0
 18 19  2  0
 19 20  1  0
 19 21  1  0
 21 22  1  0
 21 23  2  0
 15 24  2  0
 24 25  1  0
 24 26  1  0
 26 27  2  0
 26 28  1  0
 28 29  2  0
 29  2  1  0
 11  5  1  0
 28 13  1  0
 23 16  1  0
M  END
>  <Compound_ID>  (224) 
CHEMBL232556

>  <Active>  (224) 
1.0

>  <Smiles>  (224) 
Cc1cc(N2C(=O)CN(C)C2=O)c2oc(-c3ccc(O)c(O)c3)c(O)c(=O)c2c1

>  <canonical_smi>  (224) 
Cc1cc(N2C(=O)CN(C)C2=O)c2oc(-c3ccc(O)c(O)c3)c(O)c(=O)c2c1

>  <Set>  (224) 
G2 active

>  <Set_type>  (224) 
Train

>  <MW>  (224) 
396.36

>  <HBD>  (224) 
3

>  <HBA>  (224) 
7

>  <NRB>  (224) 
2

>  <NR>  (224) 
4

>  <NAR>  (224) 
3

>  <PSA>  (224) 
131.52

>  <Standard Type>  (224) 
nan

>  <Standard Relation>  (224) 
nan

>  <Standard Units>  (224) 
nan

>  <Standard Value>  (224) 
nan

>  <Assay ChEMBL ID>  (224) 
nan

>  <Assay Description>  (224) 
nan

>  <BAO Label>  (224) 
nan

$$$$

     RDKit          2D

 40 42  0  0  0  0  0  0  0  0999 V2000
    8.2500   -9.0933    0.0000 C   0  0  0  0  0  0  0  0  0  0  0  0
    7.5000   -7.7942    0.0000 C   0  0  0  0  0  0  0  0  0  0  0  0
    8.2500   -6.4952    0.0000 C   0  0  0  0  0  0  0  0  0  0  0  0
    6.0000   -7.7942    0.0000 C   0  0  0  0  0  0  0  0  0  0  0  0
    5.2500   -6.4952    0.0000 C   0  0  0  0  0  0  0  0  0  0  0  0
    3.7500   -6.4952    0.0000 N   0  0  0  0  0  0  0  0  0  0  0  0
    3.0000   -5.1962    0.0000 C   0  0  0  0  0  0  0  0  0  0  0  0
    3.7500   -3.8971    0.0000 O   0  0  0  0  0  0  0  0  0  0  0  0
    1.5000   -5.1962    0.0000 C   0  0  0  0  0  0  0  0  0  0  0  0
    0.7500   -6.4952    0.0000 C   0  0  0  0  0  0  0  0  0  0  0  0
    0.7500   -3.8971    0.0000 N   0  0  0  0  0  0  0  0  0  0  0  0
    1.5000   -2.5981    0.0000 C   0  0  0  0  0  0  0  0  0  0  0  0
    3.0000   -2.5981    0.0000 O   0  0  0  0  0  0  0  0  0  0  0  0
    0.7500   -1.2990    0.0000 C   0  0  0  0  0  0  0  0  0  0  0  0
    1.5000    0.0000    0.0000 C   0  0  0  0  0  0  0  0  0  0  0  0
    0.7500    1.2990    0.0000 C   0  0  0  0  0  0  0  0  0  0  0  0
   -0.7500    1.2990    0.0000 C   0  0  0  0  0  0  0  0  0  0  0  0
   -1.5000    2.5981    0.0000 C   0  0  0  0  0  0  0  0  0  0  0  0
   -0.7500    3.8971    0.0000 N   0  0  0  0  0  0  0  0  0  0  0  0
   -1.5000    5.1962    0.0000 C   0  0  0  0  0  0  0  0  0  0  0  0
   -0.7500    6.4952    0.0000 N   0  0  0  0  0  0  0  0  0  0  0  0
   -3.0000    5.1962    0.0000 N   0  0  0  0  0  0  0  0  0  0  0  0
   -1.5000    0.0000    0.0000 C   0  0  0  0  0  0  0  0  0  0  0  0
   -0.7500   -1.2990    0.0000 C   0  0  0  0  0  0  0  0  0  0  0  0
    6.0000   -5.1962    0.0000 C   0  0  0  0  0  0  0  0  0  0  0  0
    5.2500   -3.8971    0.0000 O   0  0  0  0  0  0  0  0  0  0  0  0
    7.5000   -5.1962    0.0000 N   0  0  0  0  0  0  0  0  0  0  0  0
    8.2500   -3.8971    0.0000 C   0  0  0  0  0  0  0  0  0  0  0  0
    7.5000   -2.5981    0.0000 C   0  0  0  0  0  0  0  0  0  0  0  0
    8.2500   -1.2990    0.0000 C   0  0  0  0  0  0  0  0  0  0  0  0
    9.7500   -1.2990    0.0000 C   0  0  0  0  0  0  0  0  0  0  0  0
   10.5000   -2.5981    0.0000 C   0  0  0  0  0  0  0  0  0  0  0  0
    9.7500   -3.8971    0.0000 C   0  0  0  0  0  0  0  0  0  0  0  0
   10.5000   -5.1962    0.0000 C   0  0  0  0  0  0  0  0  0  0  0  0
    9.7500   -6.4952    0.0000 C   0  0  0  0  0  0  0  0  0  0  0  0
   10.5000   -7.7942    0.0000 C   0  0  0  0  0  0  0  0  0  0  0  0
   12.0000   -7.7942    0.0000 C   0  0  0  0  0  0  0  0  0  0  0  0
   12.7500   -6.4952    0.0000 C   0  0  0  0  0  0  0  0  0  0  0  0
   14.2500   -6.4952    0.0000 Cl  0  0  0  0  0  0  0  0  0  0  0  0
   12.0000   -5.1962    0.0000 C   0  0  0  0  0  0  0  0  0  0  0  0
  1  2  1  0
  2  3  1  0
  2  4  1  0
  5  4  1  6
  5  6  1  0
  6  7  1  0
  7  8  2  0
  7  9  1  0
  9 10  1  6
  9 11  1  0
 11 12  1  0
 12 13  2  0
 12 14  1  0
 14 15  2  0
 15 16  1  0
 16 17  2  0
 17 18  1  0
 18 19  1  0
 19 20  2  0
 20 21  1  0
 20 22  1  0
 17 23  1  0
 23 24  2  0
  5 25  1  0
 25 26  2  0
 25 27  1  0
 28 27  1  6
 28 29  1  0
 29 30  1  0
 30 31  1  0
 31 32  1  0
 32 33  1  0
 33 34  1  1
 34 35  2  0
 35 36  1  0
 36 37  2  0
 37 38  1  0
 38 39  1  0
 38 40  2  0
 24 14  1  0
 33 28  1  0
 40 34  1  0
M  END
>  <Compound_ID>  (225) 
CHEMBL205197

>  <Active>  (225) 
1.0

>  <Smiles>  (225) 
CC(C)C[C@H](NC(=O)[C@H](C)NC(=O)c1ccc(CN=C(N)N)cc1)C(=O)N[C@@H]1CCCC[C@H]1c1cccc(Cl)c1

>  <canonical_smi>  (225) 
CC(C)C[C@H](NC(=O)[C@H](C)NC(=O)c1ccc(CN=C(N)N)cc1)C(=O)N[C@@H]1CCCC[C@H]1c1cccc(Cl)c1

>  <Set>  (225) 
G2 active

>  <Set_type>  (225) 
Train

>  <MW>  (225) 
569.15

>  <HBD>  (225) 
5

>  <HBA>  (225) 
5

>  <NRB>  (225) 
11

>  <NR>  (225) 
3

>  <NAR>  (225) 
2

>  <PSA>  (225) 
151.7

>  <Standard Type>  (225) 
nan

>  <Standard Relation>  (225) 
nan

>  <Standard Units>  (225) 
nan

>  <Standard Value>  (225) 
nan

>  <Assay ChEMBL ID>  (225) 
nan

>  <Assay Description>  (225) 
nan

>  <BAO Label>  (225) 
nan

$$$$

     RDKit          2D

 28 31  0  0  0  0  0  0  0  0999 V2000
   -3.7500   -1.2990    0.0000 C   0  0  0  0  0  0  0  0  0  0  0  0
   -3.0000   -2.5981    0.0000 C   0  0  0  0  0  0  0  0  0  0  0  0
   -3.7500   -3.8971    0.0000 C   0  0  0  0  0  0  0  0  0  0  0  0
   -1.5000   -2.5981    0.0000 N   0  0  0  0  0  0  0  0  0  0  0  0
   -0.7500   -3.8971    0.0000 C   0  0  0  0  0  0  0  0  0  0  0  0
   -1.5000   -5.1962    0.0000 O   0  0  0  0  0  0  0  0  0  0  0  0
    0.7500   -3.8971    0.0000 C   0  0  0  0  0  0  0  0  0  0  0  0
    1.5000   -2.5981    0.0000 C   0  0  0  0  0  0  0  0  0  0  0  0
    0.7500   -1.2990    0.0000 C   0  0  0  0  0  0  0  0  0  0  0  0
    1.5000    0.0000    0.0000 C   0  0  0  0  0  0  0  0  0  0  0  0
    0.7500    1.2990    0.0000 N   0  0  0  0  0  0  0  0  0  0  0  0
   -0.7500    1.2990    0.0000 C   0  0  0  0  0  0  0  0  0  0  0  0
   -1.5000    2.5981    0.0000 N   0  0  0  0  0  0  0  0  0  0  0  0
   -0.7500    3.8971    0.0000 C   0  0  0  0  0  0  0  0  0  0  0  0
    0.7500    3.8971    0.0000 C   0  0  0  0  0  0  0  0  0  0  0  0
    1.5000    5.1962    0.0000 C   0  0  0  0  0  0  0  0  0  0  0  0
    0.7500    6.4952    0.0000 C   0  0  0  0  0  0  0  0  0  0  0  0
    1.5000    7.7942    0.0000 N   0  0  0  0  0  0  0  0  0  0  0  0
    3.0000    7.7942    0.0000 C   0  0  0  0  0  0  0  0  0  0  0  0
    3.7500    9.0933    0.0000 C   0  0  0  0  0  0  0  0  0  0  0  0
    3.0000   10.3923    0.0000 N   0  0  0  0  0  0  0  0  0  0  0  0
    3.7500   11.6913    0.0000 C   0  0  0  0  0  0  0  0  0  0  0  0
    1.5000   10.3923    0.0000 C   0  0  0  0  0  0  0  0  0  0  0  0
    0.7500    9.0933    0.0000 C   0  0  0  0  0  0  0  0  0  0  0  0
   -0.7500    6.4952    0.0000 C   0  0  0  0  0  0  0  0  0  0  0  0
   -1.5000    5.1962    0.0000 C   0  0  0  0  0  0  0  0  0  0  0  0
   -1.5000    0.0000    0.0000 N   0  0  0  0  0  0  0  0  0  0  0  0
   -0.7500   -1.2990    0.0000 C   0  0  0  0  0  0  0  0  0  0  0  0
  1  2  1  0
  2  3  1  0
  2  4  1  0
  4  5  1  0
  5  6  2  0
  5  7  1  0
  7  8  2  0
  8  9  1  0
  9 10  2  0
 10 11  1  0
 11 12  2  0
 12 13  1  0
 13 14  1  0
 14 15  2  0
 15 16  1  0
 16 17  2  0
 17 18  1  0
 18 19  1  0
 19 20  1  0
 20 21  1  0
 21 22  1  0
 21 23  1  0
 23 24  1  0
 17 25  1  0
 25 26  2  0
 12 27  1  0
 27 28  2  0
 28  4  1  0
 28  9  1  0
 26 14  1  0
 24 18  1  0
M  END
>  <Compound_ID>  (226) 
CHEMBL143147

>  <Active>  (226) 
1.0

>  <Smiles>  (226) 
CC(C)n1c(=O)ccc2cnc(Nc3ccc(N4CCN(C)CC4)cc3)nc21

>  <canonical_smi>  (226) 
CC(C)n1c(=O)ccc2cnc(Nc3ccc(N4CCN(C)CC4)cc3)nc21

>  <Set>  (226) 
G2 active

>  <Set_type>  (226) 
Train

>  <MW>  (226) 
378.48

>  <HBD>  (226) 
1

>  <HBA>  (226) 
6

>  <NRB>  (226) 
4

>  <NR>  (226) 
4

>  <NAR>  (226) 
3

>  <PSA>  (226) 
66.29

>  <Standard Type>  (226) 
nan

>  <Standard Relation>  (226) 
nan

>  <Standard Units>  (226) 
nan

>  <Standard Value>  (226) 
nan

>  <Assay ChEMBL ID>  (226) 
nan

>  <Assay Description>  (226) 
nan

>  <BAO Label>  (226) 
nan

$$$$

     RDKit          2D

 31 34  0  0  0  0  0  0  0  0999 V2000
   11.5919    6.2498    0.0000 C   0  0  0  0  0  0  0  0  0  0  0  0
   10.5882    7.3645    0.0000 C   0  0  0  0  0  0  0  0  0  0  0  0
    9.1210    7.0526    0.0000 N   0  0  0  0  0  0  0  0  0  0  0  0
    8.6575    5.6260    0.0000 C   0  0  0  0  0  0  0  0  0  0  0  0
    7.1902    5.3142    0.0000 C   0  0  0  0  0  0  0  0  0  0  0  0
    6.1865    6.4289    0.0000 N   0  0  0  0  0  0  0  0  0  0  0  0
    4.7193    6.1170    0.0000 C   0  0  0  0  0  0  0  0  0  0  0  0
    4.2558    4.6904    0.0000 C   0  0  0  0  0  0  0  0  0  0  0  0
    2.7886    4.3786    0.0000 C   0  0  0  0  0  0  0  0  0  0  0  0
    2.3250    2.9520    0.0000 C   0  0  0  0  0  0  0  0  0  0  0  0
    3.3287    1.8373    0.0000 O   0  0  0  0  0  0  0  0  0  0  0  0
    0.8578    2.6401    0.0000 N   0  0  0  0  0  0  0  0  0  0  0  0
    0.3943    1.2135    0.0000 C   0  0  0  0  0  0  0  0  0  0  0  0
    1.2760    0.0000    0.0000 N   0  0  0  0  0  0  0  0  0  0  0  0
    0.3943   -1.2135    0.0000 N   0  0  0  0  0  0  0  0  0  0  0  0
   -1.0323   -0.7500    0.0000 C   0  0  0  0  0  0  0  0  0  0  0  0
   -2.3313   -1.5000    0.0000 N   0  0  0  0  0  0  0  0  0  0  0  0
   -3.6304   -0.7500    0.0000 C   0  0  0  0  0  0  0  0  0  0  0  0
   -4.9294   -1.5000    0.0000 C   0  0  0  0  0  0  0  0  0  0  0  0
   -6.2284   -0.7500    0.0000 C   0  0  0  0  0  0  0  0  0  0  0  0
   -7.5275   -1.5000    0.0000 C   0  0  0  0  0  0  0  0  0  0  0  0
   -7.5275   -3.0000    0.0000 C   0  0  0  0  0  0  0  0  0  0  0  0
   -8.8265   -3.7500    0.0000 O   0  0  0  0  0  0  0  0  0  0  0  0
   -6.2284   -3.7500    0.0000 C   0  0  0  0  0  0  0  0  0  0  0  0
   -4.9294   -3.0000    0.0000 C   0  0  0  0  0  0  0  0  0  0  0  0
   -3.6304    0.7500    0.0000 C   0  0  0  0  0  0  0  0  0  0  0  0
   -4.9294    1.5000    0.0000 Br  0  0  0  0  0  0  0  0  0  0  0  0
   -2.3313    1.5000    0.0000 C   0  0  0  0  0  0  0  0  0  0  0  0
   -1.0323    0.7500    0.0000 C   0  0  0  0  0  0  0  0  0  0  0  0
    6.6501    7.8555    0.0000 C   0  0  0  0  0  0  0  0  0  0  0  0
    8.1173    8.1673    0.0000 C   0  0  0  0  0  0  0  0  0  0  0  0
  1  2  1  0
  2  3  1  0
  3  4  1  0
  4  5  1  0
  5  6  1  0
  6  7  1  0
  7  8  1  0
  8  9  1  0
  9 10  1  0
 10 11  2  0
 10 12  1  0
 12 13  1  0
 13 14  2  0
 14 15  1  0
 15 16  1  0
 16 17  2  0
 17 18  1  0
 18 19  1  0
 19 20  2  0
 20 21  1  0
 21 22  2  0
 22 23  1  0
 22 24  1  0
 24 25  2  0
 18 26  2  0
 26 27  1  0
 26 28  1  0
 28 29  2  0
  6 30  1  0
 30 31  1  0
 31  3  1  0
 29 13  1  0
 29 16  1  0
 25 19  1  0
M  END
>  <Compound_ID>  (227) 
CHEMBL407981

>  <Active>  (227) 
1.0

>  <Smiles>  (227) 
CCN1CCN(CCCC(=O)Nc2n[nH]c3nc(-c4ccc(O)cc4)c(Br)cc23)CC1

>  <canonical_smi>  (227) 
CCN1CCN(CCCC(=O)Nc2n[nH]c3nc(-c4ccc(O)cc4)c(Br)cc23)CC1

>  <Set>  (227) 
G2 active

>  <Set_type>  (227) 
Train

>  <MW>  (227) 
487.4

>  <HBD>  (227) 
3

>  <HBA>  (227) 
6

>  <NRB>  (227) 
7

>  <NR>  (227) 
4

>  <NAR>  (227) 
3

>  <PSA>  (227) 
97.38

>  <Standard Type>  (227) 
nan

>  <Standard Relation>  (227) 
nan

>  <Standard Units>  (227) 
nan

>  <Standard Value>  (227) 
nan

>  <Assay ChEMBL ID>  (227) 
nan

>  <Assay Description>  (227) 
nan

>  <BAO Label>  (227) 
nan

$$$$

     RDKit          2D

 24 27  0  0  0  0  0  0  0  0999 V2000
    3.8083   -8.1375    0.0000 C   0  0  0  0  0  0  0  0  0  0  0  0
    2.3817   -7.6740    0.0000 C   0  0  0  0  0  0  0  0  0  0  0  0
    1.9182   -6.2474    0.0000 C   0  0  0  0  0  0  0  0  0  0  0  0
    0.4182   -6.2474    0.0000 C   0  0  0  0  0  0  0  0  0  0  0  0
   -0.4635   -5.0339    0.0000 C   0  0  0  0  0  0  0  0  0  0  0  0
   -1.9635   -5.0339    0.0000 N   0  0  0  0  0  0  0  0  0  0  0  0
   -2.4271   -3.6073    0.0000 N   0  0  0  0  0  0  0  0  0  0  0  0
   -1.2135   -2.7256    0.0000 C   0  0  0  0  0  0  0  0  0  0  0  0
   -0.0000   -3.6073    0.0000 C   0  0  0  0  0  0  0  0  0  0  0  0
    1.2135   -2.7256    0.0000 C   0  0  0  0  0  0  0  0  0  0  0  0
    2.6401   -3.1891    0.0000 O   0  0  0  0  0  0  0  0  0  0  0  0
    0.7500   -1.2990    0.0000 C   0  0  0  0  0  0  0  0  0  0  0  0
    1.5000    0.0000    0.0000 C   0  0  0  0  0  0  0  0  0  0  0  0
    3.0000    0.0000    0.0000 N   0  0  0  0  0  0  0  0  0  0  0  0
    3.7500    1.2990    0.0000 C   0  0  0  0  0  0  0  0  0  0  0  0
    5.2500    1.2990    0.0000 N   0  0  0  0  0  0  0  0  0  0  0  0
    3.0000    2.5981    0.0000 O   0  0  0  0  0  0  0  0  0  0  0  0
    0.7500    1.2990    0.0000 C   0  0  0  0  0  0  0  0  0  0  0  0
   -0.7500    1.2990    0.0000 C   0  0  0  0  0  0  0  0  0  0  0  0
   -1.5000    0.0000    0.0000 C   0  0  0  0  0  0  0  0  0  0  0  0
   -0.7500   -1.2990    0.0000 C   0  0  0  0  0  0  0  0  0  0  0  0
   -0.0454   -7.6740    0.0000 C   0  0  0  0  0  0  0  0  0  0  0  0
   -1.4720   -8.1375    0.0000 C   0  0  0  0  0  0  0  0  0  0  0  0
    1.1682   -8.5557    0.0000 S   0  0  0  0  0  0  0  0  0  0  0  0
  1  2  1  0
  2  3  2  0
  3  4  1  0
  4  5  1  0
  5  6  1  0
  6  7  1  0
  7  8  2  0
  8  9  1  0
  9 10  1  0
 10 11  2  0
 10 12  1  0
 12 13  2  0
 13 14  1  0
 14 15  1  0
 15 16  1  0
 15 17  2  0
 13 18  1  0
 18 19  2  0
 19 20  1  0
 20 21  2  0
  4 22  2  0
 22 23  1  0
 22 24  1  0
 24  2  1  0
  9  5  2  0
 21 12  1  0
 21  8  1  0
M  END
>  <Compound_ID>  (228) 
CHEMBL150859

>  <Active>  (228) 
1.0

>  <Smiles>  (228) 
Cc1cc(-c2[nH]nc3c2C(=O)c2c(NC(N)=O)cccc2-3)c(C)s1

>  <canonical_smi>  (228) 
Cc1cc(-c2[nH]nc3c2C(=O)c2c(NC(N)=O)cccc2-3)c(C)s1

>  <Set>  (228) 
G2 active

>  <Set_type>  (228) 
Train

>  <MW>  (228) 
338.39

>  <HBD>  (228) 
3

>  <HBA>  (228) 
3

>  <NRB>  (228) 
2

>  <NR>  (228) 
4

>  <NAR>  (228) 
4

>  <PSA>  (228) 
100.87

>  <Standard Type>  (228) 
nan

>  <Standard Relation>  (228) 
nan

>  <Standard Units>  (228) 
nan

>  <Standard Value>  (228) 
nan

>  <Assay ChEMBL ID>  (228) 
nan

>  <Assay Description>  (228) 
nan

>  <BAO Label>  (228) 
nan

$$$$

     RDKit          2D

 37 40  0  0  0  0  0  0  0  0999 V2000
    4.5000    0.0000    0.0000 N   0  0  0  0  0  0  0  0  0  0  0  0
    3.0000    0.0000    0.0000 S   0  0  0  0  0  0  0  0  0  0  0  0
    3.0000   -1.5000    0.0000 O   0  0  0  0  0  0  0  0  0  0  0  0
    3.0000    1.5000    0.0000 O   0  0  0  0  0  0  0  0  0  0  0  0
    1.5000    0.0000    0.0000 C   0  0  0  0  0  0  0  0  0  0  0  0
    0.7500   -1.2990    0.0000 C   0  0  0  0  0  0  0  0  0  0  0  0
   -0.7500   -1.2990    0.0000 C   0  0  0  0  0  0  0  0  0  0  0  0
   -1.5000    0.0000    0.0000 C   0  0  0  0  0  0  0  0  0  0  0  0
   -3.0000    0.0000    0.0000 N   0  0  0  0  0  0  0  0  0  0  0  0
   -3.7500    1.2990    0.0000 C   0  0  0  0  0  0  0  0  0  0  0  0
   -5.2418    1.4558    0.0000 C   0  0  0  0  0  0  0  0  0  0  0  0
   -5.5537    2.9231    0.0000 C   0  0  0  0  0  0  0  0  0  0  0  0
   -6.9240    3.5332    0.0000 C   0  0  0  0  0  0  0  0  0  0  0  0
   -7.0808    5.0249    0.0000 C   0  0  0  0  0  0  0  0  0  0  0  0
   -8.4511    5.6350    0.0000 C   0  0  0  0  0  0  0  0  0  0  0  0
   -9.6646    4.7534    0.0000 C   0  0  0  0  0  0  0  0  0  0  0  0
   -9.5078    3.2616    0.0000 C   0  0  0  0  0  0  0  0  0  0  0  0
  -10.7213    2.3799    0.0000 N   0  0  0  0  0  0  0  0  0  0  0  0
  -12.0917    2.9900    0.0000 C   0  0  0  0  0  0  0  0  0  0  0  0
  -12.2484    4.4818    0.0000 O   0  0  0  0  0  0  0  0  0  0  0  0
  -13.3052    2.1083    0.0000 N   0  0  0  0  0  0  0  0  0  0  0  0
  -14.6755    2.7184    0.0000 C   0  0  0  0  0  0  0  0  0  0  0  0
  -14.8323    4.2102    0.0000 C   0  0  0  0  0  0  0  0  0  0  0  0
  -16.2026    4.8203    0.0000 C   0  0  0  0  0  0  0  0  0  0  0  0
  -16.3594    6.3121    0.0000 C   0  0  0  0  0  0  0  0  0  0  0  0
  -16.5162    7.8039    0.0000 F   0  0  0  0  0  0  0  0  0  0  0  0
  -14.8676    6.4689    0.0000 F   0  0  0  0  0  0  0  0  0  0  0  0
  -17.8512    6.1553    0.0000 F   0  0  0  0  0  0  0  0  0  0  0  0
  -17.4161    3.9386    0.0000 C   0  0  0  0  0  0  0  0  0  0  0  0
  -17.2593    2.4469    0.0000 C   0  0  0  0  0  0  0  0  0  0  0  0
  -15.8890    1.8368    0.0000 C   0  0  0  0  0  0  0  0  0  0  0  0
  -15.7322    0.3450    0.0000 F   0  0  0  0  0  0  0  0  0  0  0  0
   -8.1375    2.6515    0.0000 C   0  0  0  0  0  0  0  0  0  0  0  0
   -4.2546    3.6731    0.0000 N   0  0  0  0  0  0  0  0  0  0  0  0
   -3.1399    2.6694    0.0000 N   0  0  0  0  0  0  0  0  0  0  0  0
   -0.7500    1.2990    0.0000 C   0  0  0  0  0  0  0  0  0  0  0  0
    0.7500    1.2990    0.0000 C   0  0  0  0  0  0  0  0  0  0  0  0
  1  2  1  0
  2  3  2  0
  2  4  2  0
  2  5  1  0
  5  6  2  0
  6  7  1  0
  7  8  2  0
  8  9  1  0
  9 10  1  0
 10 11  1  0
 11 12  2  0
 12 13  1  0
 13 14  2  0
 14 15  1  0
 15 16  2  0
 16 17  1  0
 17 18  1  0
 18 19  1  0
 19 20  2  0
 19 21  1  0
 21 22  1  0
 22 23  2  0
 23 24  1  0
 24 25  1  0
 25 26  1  0
 25 27  1  0
 25 28  1  0
 24 29  2  0
 29 30  1  0
 30 31  2  0
 31 32  1  0
 17 33  2  0
 12 34  1  0
 34 35  1  0
  8 36  1  0
 36 37  2  0
 37  5  1  0
 35 10  2  0
 33 13  1  0
 31 22  1  0
M  END
>  <Compound_ID>  (229) 
CHEMBL321939

>  <Active>  (229) 
1.0

>  <Smiles>  (229) 
NS(=O)(=O)c1ccc(Nc2cc(-c3cccc(NC(=O)Nc4cc(C(F)(F)F)ccc4F)c3)[nH]n2)cc1

>  <canonical_smi>  (229) 
NS(=O)(=O)c1ccc(Nc2cc(-c3cccc(NC(=O)Nc4cc(C(F)(F)F)ccc4F)c3)[nH]n2)cc1

>  <Set>  (229) 
G2 active

>  <Set_type>  (229) 
Train

>  <MW>  (229) 
534.5

>  <HBD>  (229) 
5

>  <HBA>  (229) 
5

>  <NRB>  (229) 
6

>  <NR>  (229) 
4

>  <NAR>  (229) 
4

>  <PSA>  (229) 
142.0

>  <Standard Type>  (229) 
nan

>  <Standard Relation>  (229) 
nan

>  <Standard Units>  (229) 
nan

>  <Standard Value>  (229) 
nan

>  <Assay ChEMBL ID>  (229) 
nan

>  <Assay Description>  (229) 
nan

>  <BAO Label>  (229) 
nan

$$$$

     RDKit          2D

 21 24  0  0  0  0  0  0  0  0999 V2000
   -4.6613    6.0728    0.0000 N   0  0  0  0  0  0  0  0  0  0  0  0
   -3.2910    5.4627    0.0000 C   0  0  0  0  0  0  0  0  0  0  0  0
   -2.0774    6.3444    0.0000 O   0  0  0  0  0  0  0  0  0  0  0  0
   -3.1342    3.9709    0.0000 C   0  0  0  0  0  0  0  0  0  0  0  0
   -4.2489    2.9672    0.0000 N   0  0  0  0  0  0  0  0  0  0  0  0
   -3.6388    1.5969    0.0000 N   0  0  0  0  0  0  0  0  0  0  0  0
   -4.3888    0.2979    0.0000 C   0  0  0  0  0  0  0  0  0  0  0  0
   -5.8888    0.2979    0.0000 C   0  0  0  0  0  0  0  0  0  0  0  0
   -6.6388   -1.0012    0.0000 C   0  0  0  0  0  0  0  0  0  0  0  0
   -5.8888   -2.3002    0.0000 C   0  0  0  0  0  0  0  0  0  0  0  0
   -4.3888   -2.3002    0.0000 N   0  0  0  0  0  0  0  0  0  0  0  0
   -3.6388   -1.0012    0.0000 C   0  0  0  0  0  0  0  0  0  0  0  0
   -2.1470    1.7537    0.0000 C   0  0  0  0  0  0  0  0  0  0  0  0
   -1.8351    3.2209    0.0000 C   0  0  0  0  0  0  0  0  0  0  0  0
   -0.4086    3.6844    0.0000 C   0  0  0  0  0  0  0  0  0  0  0  0
    0.7062    2.6807    0.0000 C   0  0  0  0  0  0  0  0  0  0  0  0
    0.3943    1.2135    0.0000 C   0  0  0  0  0  0  0  0  0  0  0  0
    1.2760    0.0000    0.0000 N   0  0  0  0  0  0  0  0  0  0  0  0
    0.3943   -1.2135    0.0000 N   0  0  0  0  0  0  0  0  0  0  0  0
   -1.0323   -0.7500    0.0000 C   0  0  0  0  0  0  0  0  0  0  0  0
   -1.0323    0.7500    0.0000 C   0  0  0  0  0  0  0  0  0  0  0  0
  1  2  1  0
  2  3  2  0
  2  4  1  0
  4  5  2  0
  5  6  1  0
  6  7  1  0
  7  8  2  0
  8  9  1  0
  9 10  2  0
 10 11  1  0
 11 12  2  0
  6 13  1  0
 13 14  2  0
 14 15  1  0
 15 16  2  0
 16 17  1  0
 17 18  1  0
 18 19  1  0
 19 20  2  0
 20 21  1  0
 14  4  1  0
 21 17  2  0
 12  7  1  0
 21 13  1  0
M  END
>  <Compound_ID>  (230) 
CHEMBL367363

>  <Active>  (230) 
1.0

>  <Smiles>  (230) 
NC(=O)c1nn(-c2cccnc2)c2c1ccc1[nH]ncc12

>  <canonical_smi>  (230) 
NC(=O)c1nn(-c2cccnc2)c2c1ccc1[nH]ncc12

>  <Set>  (230) 
G2 active

>  <Set_type>  (230) 
Train

>  <MW>  (230) 
278.28

>  <HBD>  (230) 
2

>  <HBA>  (230) 
4

>  <NRB>  (230) 
2

>  <NR>  (230) 
4

>  <NAR>  (230) 
4

>  <PSA>  (230) 
102.48

>  <Standard Type>  (230) 
nan

>  <Standard Relation>  (230) 
nan

>  <Standard Units>  (230) 
nan

>  <Standard Value>  (230) 
nan

>  <Assay ChEMBL ID>  (230) 
nan

>  <Assay Description>  (230) 
nan

>  <BAO Label>  (230) 
nan

$$$$

     RDKit          2D

 22 24  0  0  0  0  0  0  0  0999 V2000
    3.7500   -1.2990    0.0000 C   0  0  0  0  0  0  0  0  0  0  0  0
    3.0000    0.0000    0.0000 O   0  0  0  0  0  0  0  0  0  0  0  0
    1.5000    0.0000    0.0000 C   0  0  0  0  0  0  0  0  0  0  0  0
    0.7500   -1.2990    0.0000 C   0  0  0  0  0  0  0  0  0  0  0  0
   -0.7500   -1.2990    0.0000 C   0  0  0  0  0  0  0  0  0  0  0  0
   -1.5000    0.0000    0.0000 C   0  0  0  0  0  0  0  0  0  0  0  0
   -3.0000    0.0000    0.0000 C   0  0  0  0  0  0  0  0  0  0  0  0
   -3.8817   -1.2135    0.0000 N   0  0  0  0  0  0  0  0  0  0  0  0
   -5.3083   -0.7500    0.0000 N   0  0  0  0  0  0  0  0  0  0  0  0
   -5.3083    0.7500    0.0000 C   0  0  0  0  0  0  0  0  0  0  0  0
   -6.5218    1.6317    0.0000 O   0  0  0  0  0  0  0  0  0  0  0  0
   -3.8817    1.2135    0.0000 C   0  0  0  0  0  0  0  0  0  0  0  0
   -3.4182    2.6401    0.0000 N   0  0  0  0  0  0  0  0  0  0  0  0
   -4.4218    3.7548    0.0000 N   0  0  0  0  0  0  0  0  0  0  0  0
   -3.9583    5.1814    0.0000 C   0  0  0  0  0  0  0  0  0  0  0  0
   -2.4911    5.4933    0.0000 C   0  0  0  0  0  0  0  0  0  0  0  0
   -2.0276    6.9199    0.0000 C   0  0  0  0  0  0  0  0  0  0  0  0
   -3.0313    8.0346    0.0000 C   0  0  0  0  0  0  0  0  0  0  0  0
   -4.4985    7.7227    0.0000 N   0  0  0  0  0  0  0  0  0  0  0  0
   -4.9620    6.2961    0.0000 C   0  0  0  0  0  0  0  0  0  0  0  0
   -0.7500    1.2990    0.0000 C   0  0  0  0  0  0  0  0  0  0  0  0
    0.7500    1.2990    0.0000 C   0  0  0  0  0  0  0  0  0  0  0  0
  1  2  1  0
  2  3  1  0
  3  4  2  0
  4  5  1  0
  5  6  2  0
  6  7  1  0
  7  8  2  0
  8  9  1  0
  9 10  1  0
 10 11  2  0
 10 12  1  0
 12 13  2  0
 13 14  1  0
 14 15  1  0
 15 16  2  0
 16 17  1  0
 17 18  2  0
 18 19  1  0
 19 20  2  0
  6 21  1  0
 21 22  2  0
 22  3  1  0
 12  7  1  0
 20 15  1  0
M  END
>  <Compound_ID>  (231) 
CHEMBL1076721

>  <Active>  (231) 
1.0

>  <Smiles>  (231) 
COc1ccc(C2=NNC(=O)/C2=N\Nc2cccnc2)cc1

>  <canonical_smi>  (231) 
COc1ccc(C2=NNC(=O)/C2=N\Nc2cccnc2)cc1

>  <Set>  (231) 
G2 active

>  <Set_type>  (231) 
Train

>  <MW>  (231) 
295.3

>  <HBD>  (231) 
2

>  <HBA>  (231) 
4

>  <NRB>  (231) 
4

>  <NR>  (231) 
3

>  <NAR>  (231) 
2

>  <PSA>  (231) 
87.97

>  <Standard Type>  (231) 
nan

>  <Standard Relation>  (231) 
nan

>  <Standard Units>  (231) 
nan

>  <Standard Value>  (231) 
nan

>  <Assay ChEMBL ID>  (231) 
nan

>  <Assay Description>  (231) 
nan

>  <BAO Label>  (231) 
nan

$$$$

     RDKit          2D

 30 33  0  0  0  0  0  0  0  0999 V2000
    0.7500   -3.8971    0.0000 C   0  0  0  0  0  0  0  0  0  0  0  0
    1.5000   -2.5981    0.0000 C   0  0  0  0  0  0  0  0  0  0  0  0
    0.7500   -1.2990    0.0000 C   0  0  0  0  0  0  0  0  0  0  0  0
    1.5000    0.0000    0.0000 C   0  0  0  0  0  0  0  0  0  0  0  0
    0.7500    1.2990    0.0000 C   0  0  0  0  0  0  0  0  0  0  0  0
   -0.7500    1.2990    0.0000 C   0  0  0  0  0  0  0  0  0  0  0  0
   -1.7537    2.4138    0.0000 N   0  0  0  0  0  0  0  0  0  0  0  0
   -3.1240    1.8037    0.0000 C   0  0  0  0  0  0  0  0  0  0  0  0
   -4.4231    2.5537    0.0000 N   0  0  0  0  0  0  0  0  0  0  0  0
   -2.9672    0.3119    0.0000 C   0  0  0  0  0  0  0  0  0  0  0  0
   -4.0819   -0.6918    0.0000 C   0  0  0  0  0  0  0  0  0  0  0  0
   -5.5085   -0.2283    0.0000 O   0  0  0  0  0  0  0  0  0  0  0  0
   -3.7701   -2.1590    0.0000 C   0  0  0  0  0  0  0  0  0  0  0  0
   -2.3435   -2.6226    0.0000 C   0  0  0  0  0  0  0  0  0  0  0  0
   -1.1515   -1.9889    0.0000 F   0  0  0  0  0  0  0  0  0  0  0  0
   -2.0316   -4.0898    0.0000 C   0  0  0  0  0  0  0  0  0  0  0  0
   -3.1463   -5.0935    0.0000 C   0  0  0  0  0  0  0  0  0  0  0  0
   -4.5729   -4.6300    0.0000 C   0  0  0  0  0  0  0  0  0  0  0  0
   -4.8848   -3.1627    0.0000 C   0  0  0  0  0  0  0  0  0  0  0  0
   -6.3114   -2.6992    0.0000 F   0  0  0  0  0  0  0  0  0  0  0  0
   -1.5000    0.0000    0.0000 N   0  0  0  0  0  0  0  0  0  0  0  0
   -0.7500   -1.2990    0.0000 C   0  0  0  0  0  0  0  0  0  0  0  0
    3.0000   -2.5981    0.0000 C   0  0  0  0  0  0  0  0  0  0  0  0
    3.7500   -3.8971    0.0000 C   0  0  0  0  0  0  0  0  0  0  0  0
    3.0000   -5.1962    0.0000 F   0  0  0  0  0  0  0  0  0  0  0  0
    5.2500   -3.8971    0.0000 C   0  0  0  0  0  0  0  0  0  0  0  0
    6.0000   -2.5981    0.0000 C   0  0  0  0  0  0  0  0  0  0  0  0
    5.2500   -1.2990    0.0000 C   0  0  0  0  0  0  0  0  0  0  0  0
    3.7500   -1.2990    0.0000 C   0  0  0  0  0  0  0  0  0  0  0  0
    3.0000   -0.0000    0.0000 F   0  0  0  0  0  0  0  0  0  0  0  0
  1  2  2  0
  2  3  1  0
  3  4  1  0
  4  5  2  0
  5  6  1  0
  6  7  2  0
  7  8  1  0
  8  9  1  0
  8 10  2  0
 10 11  1  0
 11 12  2  0
 11 13  1  0
 13 14  2  0
 14 15  1  0
 14 16  1  0
 16 17  2  0
 17 18  1  0
 18 19  2  0
 19 20  1  0
 10 21  1  0
 21 22  1  0
  2 23  1  0
 23 24  2  0
 24 25  1  0
 24 26  1  0
 26 27  2  0
 27 28  1  0
 28 29  2  0
 29 30  1  0
 22  3  2  0
 29 23  1  0
 21  6  1  0
 19 13  1  0
M  END
>  <Compound_ID>  (232) 
CHEMBL365608

>  <Active>  (232) 
1.0

>  <Smiles>  (232) 
C=C(c1ccc2nc(N)c(C(=O)c3c(F)cccc3F)n2c1)c1c(F)cccc1F

>  <canonical_smi>  (232) 
C=C(c1ccc2nc(N)c(C(=O)c3c(F)cccc3F)n2c1)c1c(F)cccc1F

>  <Set>  (232) 
G2 active

>  <Set_type>  (232) 
Train

>  <MW>  (232) 
411.36

>  <HBD>  (232) 
1

>  <HBA>  (232) 
3

>  <NRB>  (232) 
4

>  <NR>  (232) 
4

>  <NAR>  (232) 
4

>  <PSA>  (232) 
60.39

>  <Standard Type>  (232) 
nan

>  <Standard Relation>  (232) 
nan

>  <Standard Units>  (232) 
nan

>  <Standard Value>  (232) 
nan

>  <Assay ChEMBL ID>  (232) 
nan

>  <Assay Description>  (232) 
nan

>  <BAO Label>  (232) 
nan

$$$$

     RDKit          2D

 35 38  0  0  0  0  0  0  0  0999 V2000
   -7.7508   -0.0575    0.0000 C   0  0  0  0  0  0  0  0  0  0  0  0
   -6.4517   -0.8075    0.0000 O   0  0  0  0  0  0  0  0  0  0  0  0
   -5.1527   -0.0575    0.0000 C   0  0  0  0  0  0  0  0  0  0  0  0
   -5.1527    1.4425    0.0000 C   0  0  0  0  0  0  0  0  0  0  0  0
   -3.8536    2.1925    0.0000 C   0  0  0  0  0  0  0  0  0  0  0  0
   -2.5546    1.4425    0.0000 C   0  0  0  0  0  0  0  0  0  0  0  0
   -2.5546   -0.0575    0.0000 C   0  0  0  0  0  0  0  0  0  0  0  0
   -3.8536   -0.8075    0.0000 C   0  0  0  0  0  0  0  0  0  0  0  0
   -3.8536   -2.3075    0.0000 C   0  0  0  0  0  0  0  0  0  0  0  0
   -2.6401   -3.1891    0.0000 C   0  0  0  0  0  0  0  0  0  0  0  0
   -1.2135   -2.7256    0.0000 C   0  0  0  0  0  0  0  0  0  0  0  0
   -0.0000   -3.6073    0.0000 C   0  0  0  0  0  0  0  0  0  0  0  0
    1.2135   -2.7256    0.0000 N   0  0  0  0  0  0  0  0  0  0  0  0
    2.6401   -3.1891    0.0000 C   0  0  0  0  0  0  0  0  0  0  0  0
    2.9520   -4.6564    0.0000 C   0  0  0  0  0  0  0  0  0  0  0  0
    4.3786   -5.1199    0.0000 C   0  0  0  0  0  0  0  0  0  0  0  0
    4.6904   -6.5871    0.0000 N   0  0  0  0  0  0  0  0  0  0  0  0
    6.1170   -7.0506    0.0000 C   0  0  0  0  0  0  0  0  0  0  0  0
    7.2317   -6.0469    0.0000 O   0  0  0  0  0  0  0  0  0  0  0  0
    6.4289   -8.5179    0.0000 O   0  0  0  0  0  0  0  0  0  0  0  0
    7.8555   -8.9814    0.0000 C   0  0  0  0  0  0  0  0  0  0  0  0
    7.3919  -10.4080    0.0000 C   0  0  0  0  0  0  0  0  0  0  0  0
    8.3190   -7.5548    0.0000 C   0  0  0  0  0  0  0  0  0  0  0  0
    9.2821   -9.4449    0.0000 C   0  0  0  0  0  0  0  0  0  0  0  0
    0.7500   -1.2990    0.0000 C   0  0  0  0  0  0  0  0  0  0  0  0
    1.5000    0.0000    0.0000 N   0  0  0  0  0  0  0  0  0  0  0  0
    0.7500    1.2990    0.0000 C   0  0  0  0  0  0  0  0  0  0  0  0
   -0.7500    1.2990    0.0000 C   0  0  0  0  0  0  0  0  0  0  0  0
   -1.5000    0.0000    0.0000 C   0  0  0  0  0  0  0  0  0  0  0  0
   -0.7500   -1.2990    0.0000 C   0  0  0  0  0  0  0  0  0  0  0  0
   -3.1036   -4.6157    0.0000 C   0  0  0  0  0  0  0  0  0  0  0  0
   -2.2220   -5.8293    0.0000 O   0  0  0  0  0  0  0  0  0  0  0  0
   -4.6036   -4.6157    0.0000 N   0  0  0  0  0  0  0  0  0  0  0  0
   -5.0672   -3.1891    0.0000 C   0  0  0  0  0  0  0  0  0  0  0  0
   -6.4937   -2.7256    0.0000 O   0  0  0  0  0  0  0  0  0  0  0  0
  1  2  1  0
  2  3  1  0
  3  4  2  0
  4  5  1  0
  5  6  2  0
  6  7  1  0
  7  8  2  0
  8  9  1  0
  9 10  2  0
 10 11  1  0
 11 12  2  0
 12 13  1  0
 13 14  1  0
 14 15  1  0
 15 16  1  0
 16 17  1  0
 17 18  1  0
 18 19  2  0
 18 20  1  0
 20 21  1  0
 21 22  1  0
 21 23  1  0
 21 24  1  0
 13 25  1  0
 25 26  2  0
 26 27  1  0
 27 28  2  0
 28 29  1  0
 29 30  2  0
 10 31  1  0
 31 32  2  0
 31 33  1  0
 33 34  1  0
 34 35  2  0
  8  3  1  0
 34  9  1  0
 30 11  1  0
 30 25  1  0
M  END
>  <Compound_ID>  (233) 
CHEMBL109981

>  <Active>  (233) 
1.0

>  <Smiles>  (233) 
COc1ccccc1C1=C(c2cn(CCCNC(=O)OC(C)(C)C)c3ncccc23)C(=O)NC1=O

>  <canonical_smi>  (233) 
COc1ccccc1C1=C(c2cn(CCCNC(=O)OC(C)(C)C)c3ncccc23)C(=O)NC1=O

>  <Set>  (233) 
G2 active

>  <Set_type>  (233) 
Train

>  <MW>  (233) 
476.53

>  <HBD>  (233) 
2

>  <HBA>  (233) 
6

>  <NRB>  (233) 
7

>  <NR>  (233) 
4

>  <NAR>  (233) 
3

>  <PSA>  (233) 
111.55

>  <Standard Type>  (233) 
nan

>  <Standard Relation>  (233) 
nan

>  <Standard Units>  (233) 
nan

>  <Standard Value>  (233) 
nan

>  <Assay ChEMBL ID>  (233) 
nan

>  <Assay Description>  (233) 
nan

>  <BAO Label>  (233) 
nan

$$$$

     RDKit          2D

 23 26  0  0  0  0  0  0  0  0999 V2000
   -3.0000   -5.1962    0.0000 O   0  0  0  0  0  0  0  0  0  0  0  0
   -3.7500   -3.8971    0.0000 C   0  0  0  0  0  0  0  0  0  0  0  0
   -3.0000   -2.5981    0.0000 C   0  0  0  0  0  0  0  0  0  0  0  0
   -1.5000   -2.5981    0.0000 C   0  0  0  0  0  0  0  0  0  0  0  0
   -0.7500   -3.8971    0.0000 C   0  0  0  0  0  0  0  0  0  0  0  0
    0.7500   -3.8971    0.0000 C   0  0  0  0  0  0  0  0  0  0  0  0
    1.5000   -2.5981    0.0000 C   0  0  0  0  0  0  0  0  0  0  0  0
    0.7500   -1.2990    0.0000 C   0  0  0  0  0  0  0  0  0  0  0  0
    1.5000    0.0000    0.0000 C   0  0  0  0  0  0  0  0  0  0  0  0
    0.7500    1.2990    0.0000 N   0  0  0  0  0  0  0  0  0  0  0  0
   -0.7500    1.2990    0.0000 C   0  0  0  0  0  0  0  0  0  0  0  0
   -1.5000    0.0000    0.0000 C   0  0  0  0  0  0  0  0  0  0  0  0
   -0.7500   -1.2990    0.0000 C   0  0  0  0  0  0  0  0  0  0  0  0
   -5.2500   -3.8971    0.0000 N   0  0  0  0  0  0  0  0  0  0  0  0
   -6.0000   -5.1962    0.0000 C   0  0  0  0  0  0  0  0  0  0  0  0
   -5.3899   -6.5665    0.0000 N   0  0  0  0  0  0  0  0  0  0  0  0
   -6.5046   -7.5702    0.0000 C   0  0  0  0  0  0  0  0  0  0  0  0
   -7.8037   -6.8202    0.0000 C   0  0  0  0  0  0  0  0  0  0  0  0
   -9.1740   -7.4303    0.0000 C   0  0  0  0  0  0  0  0  0  0  0  0
  -10.5743   -6.8927    0.0000 C   0  0  0  0  0  0  0  0  0  0  0  0
  -11.1119   -8.2931    0.0000 C   0  0  0  0  0  0  0  0  0  0  0  0
   -9.7115   -8.8306    0.0000 C   0  0  0  0  0  0  0  0  0  0  0  0
   -7.4918   -5.3529    0.0000 S   0  0  0  0  0  0  0  0  0  0  0  0
  1  2  2  0
  2  3  1  0
  3  4  1  0
  4  5  2  0
  5  6  1  0
  6  7  2  0
  7  8  1  0
  8  9  2  0
  9 10  1  0
 10 11  2  0
 11 12  1  0
 12 13  2  0
  2 14  1  0
 14 15  1  0
 15 16  2  0
 16 17  1  0
 17 18  2  0
 18 19  1  0
 19 20  1  0
 20 21  1  0
 21 22  1  0
 18 23  1  0
 13  4  1  0
 23 15  1  0
 13  8  1  0
 22 19  1  0
M  END
>  <Compound_ID>  (234) 
CHEMBL184404

>  <Active>  (234) 
1.0

>  <Smiles>  (234) 
O=C(Cc1cccc2cnccc12)Nc1ncc(C2CCC2)s1

>  <canonical_smi>  (234) 
O=C(Cc1cccc2cnccc12)Nc1ncc(C2CCC2)s1

>  <Set>  (234) 
G2 active

>  <Set_type>  (234) 
Train

>  <MW>  (234) 
323.42

>  <HBD>  (234) 
1

>  <HBA>  (234) 
3

>  <NRB>  (234) 
4

>  <NR>  (234) 
4

>  <NAR>  (234) 
3

>  <PSA>  (234) 
54.88

>  <Standard Type>  (234) 
nan

>  <Standard Relation>  (234) 
nan

>  <Standard Units>  (234) 
nan

>  <Standard Value>  (234) 
nan

>  <Assay ChEMBL ID>  (234) 
nan

>  <Assay Description>  (234) 
nan

>  <BAO Label>  (234) 
nan

$$$$

     RDKit          2D

 25 28  0  0  0  0  0  0  0  0999 V2000
    0.7500   -3.8971    0.0000 C   0  0  0  0  0  0  0  0  0  0  0  0
    1.5000   -2.5981    0.0000 C   0  0  0  0  0  0  0  0  0  0  0  0
    3.0000   -2.5981    0.0000 C   0  0  0  0  0  0  0  0  0  0  0  0
    3.7500   -1.2990    0.0000 O   0  0  0  0  0  0  0  0  0  0  0  0
    3.7500   -3.8971    0.0000 N   0  0  0  0  0  0  0  0  0  0  0  0
    5.2500   -3.8971    0.0000 C   0  0  0  0  0  0  0  0  0  0  0  0
    6.1317   -2.6836    0.0000 C   0  0  0  0  0  0  0  0  0  0  0  0
    7.5583   -3.1471    0.0000 C   0  0  0  0  0  0  0  0  0  0  0  0
    8.7718   -2.2654    0.0000 C   0  0  0  0  0  0  0  0  0  0  0  0
    9.3819   -0.8951    0.0000 C   0  0  0  0  0  0  0  0  0  0  0  0
   10.2636   -2.1086    0.0000 C   0  0  0  0  0  0  0  0  0  0  0  0
    7.5583   -4.6471    0.0000 N   0  0  0  0  0  0  0  0  0  0  0  0
    6.1317   -5.1106    0.0000 N   0  0  0  0  0  0  0  0  0  0  0  0
    0.7500   -1.2990    0.0000 C   0  0  0  0  0  0  0  0  0  0  0  0
    1.5000    0.0000    0.0000 C   0  0  0  0  0  0  0  0  0  0  0  0
    0.7500    1.2990    0.0000 C   0  0  0  0  0  0  0  0  0  0  0  0
   -0.7500    1.2990    0.0000 C   0  0  0  0  0  0  0  0  0  0  0  0
   -1.5000    2.5981    0.0000 N   0  0  0  0  0  0  0  0  0  0  0  0
   -2.9918    2.7549    0.0000 C   0  0  0  0  0  0  0  0  0  0  0  0
   -3.3037    4.2221    0.0000 N   0  0  0  0  0  0  0  0  0  0  0  0
   -2.0046    4.9721    0.0000 N   0  0  0  0  0  0  0  0  0  0  0  0
   -0.8899    3.9684    0.0000 C   0  0  0  0  0  0  0  0  0  0  0  0
    0.5773    4.2803    0.0000 O   0  0  0  0  0  0  0  0  0  0  0  0
   -1.5000    0.0000    0.0000 C   0  0  0  0  0  0  0  0  0  0  0  0
   -0.7500   -1.2990    0.0000 C   0  0  0  0  0  0  0  0  0  0  0  0
  1  2  1  0
  2  3  1  0
  3  4  2  0
  3  5  1  0
  5  6  1  0
  6  7  1  0
  7  8  2  0
  8  9  1  0
  9 10  1  0
 10 11  1  0
  8 12  1  0
 12 13  1  0
  2 14  1  0
 14 15  2  0
 15 16  1  0
 16 17  2  0
 17 18  1  0
 18 19  1  0
 19 20  2  0
 20 21  1  0
 21 22  2  0
 22 23  1  0
 17 24  1  0
 24 25  2  0
 13  6  2  0
 25 14  1  0
 11  9  1  0
 22 18  1  0
M  END
>  <Compound_ID>  (235) 
CHEMBL370817

>  <Active>  (235) 
1.0

>  <Smiles>  (235) 
CC(C(=O)Nc1cc(C2CC2)[nH]n1)c1ccc(-n2cnnc2O)cc1

>  <canonical_smi>  (235) 
CC(C(=O)Nc1cc(C2CC2)[nH]n1)c1ccc(-n2cnnc2O)cc1

>  <Set>  (235) 
G2 active

>  <Set_type>  (235) 
Train

>  <MW>  (235) 
338.37

>  <HBD>  (235) 
3

>  <HBA>  (235) 
5

>  <NRB>  (235) 
5

>  <NR>  (235) 
4

>  <NAR>  (235) 
3

>  <PSA>  (235) 
108.72

>  <Standard Type>  (235) 
nan

>  <Standard Relation>  (235) 
nan

>  <Standard Units>  (235) 
nan

>  <Standard Value>  (235) 
nan

>  <Assay ChEMBL ID>  (235) 
nan

>  <Assay Description>  (235) 
nan

>  <BAO Label>  (235) 
nan

$$$$

     RDKit          2D

 26 30  0  0  0  0  0  0  0  0999 V2000
   -4.6613    6.0728    0.0000 N   0  0  0  0  0  0  0  0  0  0  0  0
   -3.2910    5.4627    0.0000 C   0  0  0  0  0  0  0  0  0  0  0  0
   -2.0774    6.3444    0.0000 O   0  0  0  0  0  0  0  0  0  0  0  0
   -3.1342    3.9709    0.0000 C   0  0  0  0  0  0  0  0  0  0  0  0
   -4.2489    2.9672    0.0000 N   0  0  0  0  0  0  0  0  0  0  0  0
   -3.6388    1.5969    0.0000 N   0  0  0  0  0  0  0  0  0  0  0  0
   -4.3888    0.2979    0.0000 C   0  0  0  0  0  0  0  0  0  0  0  0
   -5.8888    0.2979    0.0000 C   0  0  0  0  0  0  0  0  0  0  0  0
   -6.6388   -1.0012    0.0000 C   0  0  0  0  0  0  0  0  0  0  0  0
   -5.8888   -2.3002    0.0000 C   0  0  0  0  0  0  0  0  0  0  0  0
   -6.6388   -3.5992    0.0000 C   0  0  0  0  0  0  0  0  0  0  0  0
   -6.0287   -4.9696    0.0000 N   0  0  0  0  0  0  0  0  0  0  0  0
   -7.1434   -5.9733    0.0000 C   0  0  0  0  0  0  0  0  0  0  0  0
   -8.4424   -5.2233    0.0000 C   0  0  0  0  0  0  0  0  0  0  0  0
   -8.1306   -3.7560    0.0000 N   0  0  0  0  0  0  0  0  0  0  0  0
   -4.3888   -2.3002    0.0000 C   0  0  0  0  0  0  0  0  0  0  0  0
   -3.6388   -1.0012    0.0000 C   0  0  0  0  0  0  0  0  0  0  0  0
   -2.1470    1.7537    0.0000 C   0  0  0  0  0  0  0  0  0  0  0  0
   -1.8351    3.2209    0.0000 C   0  0  0  0  0  0  0  0  0  0  0  0
   -0.4086    3.6844    0.0000 C   0  0  0  0  0  0  0  0  0  0  0  0
    0.7062    2.6807    0.0000 C   0  0  0  0  0  0  0  0  0  0  0  0
    0.3943    1.2135    0.0000 C   0  0  0  0  0  0  0  0  0  0  0  0
    1.2760    0.0000    0.0000 N   0  0  0  0  0  0  0  0  0  0  0  0
    0.3943   -1.2135    0.0000 N   0  0  0  0  0  0  0  0  0  0  0  0
   -1.0323   -0.7500    0.0000 C   0  0  0  0  0  0  0  0  0  0  0  0
   -1.0323    0.7500    0.0000 C   0  0  0  0  0  0  0  0  0  0  0  0
  1  2  1  0
  2  3  2  0
  2  4  1  0
  4  5  2  0
  5  6  1  0
  6  7  1  0
  7  8  2  0
  8  9  1  0
  9 10  2  0
 10 11  1  0
 11 12  2  0
 12 13  1  0
 13 14  1  0
 14 15  2  0
 10 16  1  0
 16 17  2  0
  6 18  1  0
 18 19  2  0
 19 20  1  0
 20 21  2  0
 21 22  1  0
 22 23  1  0
 23 24  1  0
 24 25  2  0
 25 26  1  0
 19  4  1  0
 26 22  2  0
 17  7  1  0
 26 18  1  0
 15 11  1  0
M  END
>  <Compound_ID>  (236) 
CHEMBL179599

>  <Active>  (236) 
1.0

>  <Smiles>  (236) 
NC(=O)c1nn(-c2ccc(C3=NCC=N3)cc2)c2c1ccc1[nH]ncc12

>  <canonical_smi>  (236) 
NC(=O)c1nn(-c2ccc(C3=NCC=N3)cc2)c2c1ccc1[nH]ncc12

>  <Set>  (236) 
G2 active

>  <Set_type>  (236) 
Train

>  <MW>  (236) 
343.35

>  <HBD>  (236) 
2

>  <HBA>  (236) 
3

>  <NRB>  (236) 
3

>  <NR>  (236) 
5

>  <NAR>  (236) 
4

>  <PSA>  (236) 
114.31

>  <Standard Type>  (236) 
nan

>  <Standard Relation>  (236) 
nan

>  <Standard Units>  (236) 
nan

>  <Standard Value>  (236) 
nan

>  <Assay ChEMBL ID>  (236) 
nan

>  <Assay Description>  (236) 
nan

>  <BAO Label>  (236) 
nan

$$$$

     RDKit          2D

 22 24  0  0  0  0  0  0  0  0999 V2000
    3.7500   -1.2990    0.0000 C   0  0  0  0  0  0  0  0  0  0  0  0
    3.0000    0.0000    0.0000 O   0  0  0  0  0  0  0  0  0  0  0  0
    1.5000    0.0000    0.0000 C   0  0  0  0  0  0  0  0  0  0  0  0
    0.7500   -1.2990    0.0000 C   0  0  0  0  0  0  0  0  0  0  0  0
   -0.7500   -1.2990    0.0000 C   0  0  0  0  0  0  0  0  0  0  0  0
   -1.5000    0.0000    0.0000 N   0  0  0  0  0  0  0  0  0  0  0  0
   -0.7500    1.2990    0.0000 C   0  0  0  0  0  0  0  0  0  0  0  0
    0.7500    1.2990    0.0000 C   0  0  0  0  0  0  0  0  0  0  0  0
    1.5000    2.5981    0.0000 C   0  0  0  0  0  0  0  0  0  0  0  0
    0.8899    3.9684    0.0000 N   0  0  0  0  0  0  0  0  0  0  0  0
    2.0046    4.9721    0.0000 N   0  0  0  0  0  0  0  0  0  0  0  0
    3.3037    4.2221    0.0000 C   0  0  0  0  0  0  0  0  0  0  0  0
    4.6740    4.8322    0.0000 O   0  0  0  0  0  0  0  0  0  0  0  0
    2.9918    2.7549    0.0000 C   0  0  0  0  0  0  0  0  0  0  0  0
    3.9955    1.6402    0.0000 N   0  0  0  0  0  0  0  0  0  0  0  0
    5.4627    1.9520    0.0000 N   0  0  0  0  0  0  0  0  0  0  0  0
    6.4664    0.8373    0.0000 C   0  0  0  0  0  0  0  0  0  0  0  0
    6.0029   -0.5893    0.0000 C   0  0  0  0  0  0  0  0  0  0  0  0
    7.0066   -1.7040    0.0000 C   0  0  0  0  0  0  0  0  0  0  0  0
    8.4738   -1.3921    0.0000 C   0  0  0  0  0  0  0  0  0  0  0  0
    8.9373    0.0345    0.0000 C   0  0  0  0  0  0  0  0  0  0  0  0
    7.9336    1.1492    0.0000 C   0  0  0  0  0  0  0  0  0  0  0  0
  1  2  1  0
  2  3  1  0
  3  4  2  0
  4  5  1  0
  5  6  2  0
  6  7  1  0
  7  8  2  0
  8  9  1  0
  9 10  2  0
 10 11  1  0
 11 12  1  0
 12 13  2  0
 12 14  1  0
 14 15  2  0
 15 16  1  0
 16 17  1  0
 17 18  2  0
 18 19  1  0
 19 20  2  0
 20 21  1  0
 21 22  2  0
  8  3  1  0
 14  9  1  0
 22 17  1  0
M  END
>  <Compound_ID>  (237) 
CHEMBL1086736

>  <Active>  (237) 
1.0

>  <Smiles>  (237) 
COc1ccncc1C1=NNC(=O)/C1=N\Nc1ccccc1

>  <canonical_smi>  (237) 
COc1ccncc1C1=NNC(=O)/C1=N\Nc1ccccc1

>  <Set>  (237) 
G2 active

>  <Set_type>  (237) 
Train

>  <MW>  (237) 
295.3

>  <HBD>  (237) 
2

>  <HBA>  (237) 
4

>  <NRB>  (237) 
4

>  <NR>  (237) 
3

>  <NAR>  (237) 
2

>  <PSA>  (237) 
87.97

>  <Standard Type>  (237) 
nan

>  <Standard Relation>  (237) 
nan

>  <Standard Units>  (237) 
nan

>  <Standard Value>  (237) 
nan

>  <Assay ChEMBL ID>  (237) 
nan

>  <Assay Description>  (237) 
nan

>  <BAO Label>  (237) 
nan

$$$$

     RDKit          2D

 15 17  0  0  0  0  0  0  0  0999 V2000
   -4.6613    6.0728    0.0000 N   0  0  0  0  0  0  0  0  0  0  0  0
   -3.2910    5.4627    0.0000 C   0  0  0  0  0  0  0  0  0  0  0  0
   -2.0774    6.3444    0.0000 O   0  0  0  0  0  0  0  0  0  0  0  0
   -3.1342    3.9709    0.0000 C   0  0  0  0  0  0  0  0  0  0  0  0
   -4.2489    2.9672    0.0000 N   0  0  0  0  0  0  0  0  0  0  0  0
   -3.6388    1.5969    0.0000 N   0  0  0  0  0  0  0  0  0  0  0  0
   -2.1470    1.7537    0.0000 C   0  0  0  0  0  0  0  0  0  0  0  0
   -1.8351    3.2209    0.0000 C   0  0  0  0  0  0  0  0  0  0  0  0
   -0.4086    3.6844    0.0000 C   0  0  0  0  0  0  0  0  0  0  0  0
    0.7062    2.6807    0.0000 C   0  0  0  0  0  0  0  0  0  0  0  0
    0.3943    1.2135    0.0000 C   0  0  0  0  0  0  0  0  0  0  0  0
    1.2760    0.0000    0.0000 N   0  0  0  0  0  0  0  0  0  0  0  0
    0.3943   -1.2135    0.0000 N   0  0  0  0  0  0  0  0  0  0  0  0
   -1.0323   -0.7500    0.0000 C   0  0  0  0  0  0  0  0  0  0  0  0
   -1.0323    0.7500    0.0000 C   0  0  0  0  0  0  0  0  0  0  0  0
  1  2  1  0
  2  3  2  0
  2  4  1  0
  4  5  1  0
  5  6  1  0
  6  7  2  0
  7  8  1  0
  8  9  1  0
  9 10  2  0
 10 11  1  0
 11 12  1  0
 12 13  1  0
 13 14  2  0
 14 15  1  0
  8  4  2  0
 15 11  2  0
 15  7  1  0
M  END
>  <Compound_ID>  (238) 
CHEMBL362004

>  <Active>  (238) 
1.0

>  <Smiles>  (238) 
NC(=O)c1[nH]nc2c1ccc1[nH]ncc12

>  <canonical_smi>  (238) 
NC(=O)c1[nH]nc2c1ccc1[nH]ncc12

>  <Set>  (238) 
G2 active

>  <Set_type>  (238) 
Train

>  <MW>  (238) 
201.19

>  <HBD>  (238) 
3

>  <HBA>  (238) 
3

>  <NRB>  (238) 
1

>  <NR>  (238) 
3

>  <NAR>  (238) 
3

>  <PSA>  (238) 
100.45

>  <Standard Type>  (238) 
nan

>  <Standard Relation>  (238) 
nan

>  <Standard Units>  (238) 
nan

>  <Standard Value>  (238) 
nan

>  <Assay ChEMBL ID>  (238) 
nan

>  <Assay Description>  (238) 
nan

>  <BAO Label>  (238) 
nan

$$$$

     RDKit          2D

 23 26  0  0  0  0  0  0  0  0999 V2000
    3.7385    5.7246    0.0000 O   0  0  0  0  0  0  0  0  0  0  0  0
    4.0503    4.2574    0.0000 C   0  0  0  0  0  0  0  0  0  0  0  0
    5.4769    3.7939    0.0000 N   0  0  0  0  0  0  0  0  0  0  0  0
    6.5916    4.7976    0.0000 C   0  0  0  0  0  0  0  0  0  0  0  0
    8.0182    4.3340    0.0000 C   0  0  0  0  0  0  0  0  0  0  0  0
    9.1329    5.3377    0.0000 C   0  0  0  0  0  0  0  0  0  0  0  0
    8.8211    6.8050    0.0000 C   0  0  0  0  0  0  0  0  0  0  0  0
    7.3945    7.2685    0.0000 C   0  0  0  0  0  0  0  0  0  0  0  0
    6.2798    6.2648    0.0000 N   0  0  0  0  0  0  0  0  0  0  0  0
    2.9356    3.2537    0.0000 N   0  0  0  0  0  0  0  0  0  0  0  0
    1.5090    3.7172    0.0000 C   0  0  0  0  0  0  0  0  0  0  0  0
    1.1971    5.1844    0.0000 C   0  0  0  0  0  0  0  0  0  0  0  0
   -0.2294    5.6480    0.0000 C   0  0  0  0  0  0  0  0  0  0  0  0
   -1.3442    4.6443    0.0000 C   0  0  0  0  0  0  0  0  0  0  0  0
   -1.0323    3.1771    0.0000 C   0  0  0  0  0  0  0  0  0  0  0  0
    0.3943    2.7135    0.0000 C   0  0  0  0  0  0  0  0  0  0  0  0
    0.3943    1.2135    0.0000 C   0  0  0  0  0  0  0  0  0  0  0  0
    1.2760    0.0000    0.0000 C   0  0  0  0  0  0  0  0  0  0  0  0
    0.3943   -1.2135    0.0000 C   0  0  0  0  0  0  0  0  0  0  0  0
   -1.0323   -0.7500    0.0000 C   0  0  0  0  0  0  0  0  0  0  0  0
   -1.0323    0.7500    0.0000 N   0  0  0  0  0  0  0  0  0  0  0  0
   -1.9140    1.9635    0.0000 C   0  0  0  0  0  0  0  0  0  0  0  0
   -3.4140    1.9635    0.0000 O   0  0  0  0  0  0  0  0  0  0  0  0
  1  2  2  0
  2  3  1  0
  3  4  1  0
  4  5  2  0
  5  6  1  0
  6  7  2  0
  7  8  1  0
  8  9  2  0
  2 10  1  0
 10 11  1  0
 11 12  2  0
 12 13  1  0
 13 14  2  0
 14 15  1  0
 15 16  2  0
 16 17  1  0
 17 18  1  1
 18 19  1  0
 19 20  1  0
 20 21  1  0
 21 22  1  0
 22 23  2  0
  9  4  1  0
 16 11  1  0
 21 17  1  0
 22 15  1  0
M  END
>  <Compound_ID>  (239) 
CHEMBL141247

>  <Active>  (239) 
1.0

>  <Smiles>  (239) 
O=C(Nc1ccccn1)Nc1cccc2c1[C@H]1CCCN1C2=O

>  <canonical_smi>  (239) 
O=C(Nc1ccccn1)Nc1cccc2c1[C@H]1CCCN1C2=O

>  <Set>  (239) 
G2 active

>  <Set_type>  (239) 
Train

>  <MW>  (239) 
308.34

>  <HBD>  (239) 
2

>  <HBA>  (239) 
3

>  <NRB>  (239) 
2

>  <NR>  (239) 
4

>  <NAR>  (239) 
2

>  <PSA>  (239) 
74.33

>  <Standard Type>  (239) 
nan

>  <Standard Relation>  (239) 
nan

>  <Standard Units>  (239) 
nan

>  <Standard Value>  (239) 
nan

>  <Assay ChEMBL ID>  (239) 
nan

>  <Assay Description>  (239) 
nan

>  <BAO Label>  (239) 
nan

$$$$

     RDKit          2D

 31 37  0  0  0  0  0  0  0  0999 V2000
    4.2660   -1.2584    0.0000 O   0  0  0  0  0  0  0  0  0  0  0  0
    3.9542   -2.7256    0.0000 C   0  0  0  0  0  0  0  0  0  0  0  0
    4.9579   -3.8403    0.0000 N   0  0  0  0  0  0  0  0  0  0  0  0
    4.2079   -5.1394    0.0000 C   0  0  0  0  0  0  0  0  0  0  0  0
    4.8180   -6.5097    0.0000 O   0  0  0  0  0  0  0  0  0  0  0  0
    2.7406   -4.8275    0.0000 C   0  0  0  0  0  0  0  0  0  0  0  0
    2.5838   -3.3357    0.0000 C   0  0  0  0  0  0  0  0  0  0  0  0
    1.2135   -2.7256    0.0000 C   0  0  0  0  0  0  0  0  0  0  0  0
    0.7500   -1.2990    0.0000 C   0  0  0  0  0  0  0  0  0  0  0  0
    1.5000    0.0000    0.0000 C   0  0  0  0  0  0  0  0  0  0  0  0
    0.7500    1.2990    0.0000 C   0  0  0  0  0  0  0  0  0  0  0  0
   -0.7500    1.2990    0.0000 C   0  0  0  0  0  0  0  0  0  0  0  0
   -1.5000    2.5981    0.0000 F   0  0  0  0  0  0  0  0  0  0  0  0
   -1.5000    0.0000    0.0000 C   0  0  0  0  0  0  0  0  0  0  0  0
   -0.7500   -1.2990    0.0000 C   0  0  0  0  0  0  0  0  0  0  0  0
   -1.2135   -2.7256    0.0000 N   0  0  0  0  0  0  0  0  0  0  0  0
    0.0000   -3.6073    0.0000 C   0  0  0  0  0  0  0  0  0  0  0  0
    0.1568   -5.0991    0.0000 C   0  0  0  0  0  0  0  0  0  0  0  0
    1.5271   -5.7092    0.0000 C   0  0  0  0  0  0  0  0  0  0  0  0
    1.3703   -7.2010    0.0000 C   0  0  0  0  0  0  0  0  0  0  0  0
    2.3740   -8.3157    0.0000 C   0  0  0  0  0  0  0  0  0  0  0  0
    1.9105   -9.7423    0.0000 C   0  0  0  0  0  0  0  0  0  0  0  0
    0.4433  -10.0541    0.0000 C   0  0  0  0  0  0  0  0  0  0  0  0
   -0.5604   -8.9394    0.0000 C   0  0  0  0  0  0  0  0  0  0  0  0
   -0.0969   -7.5128    0.0000 C   0  0  0  0  0  0  0  0  0  0  0  0
   -0.8469   -6.2138    0.0000 N   0  0  0  0  0  0  0  0  0  0  0  0
   -2.3238   -6.5124    0.0000 C   0  0  0  0  0  0  0  0  0  0  0  0
   -3.2055   -5.2988    0.0000 C   0  0  0  0  0  0  0  0  0  0  0  0
   -4.6972   -5.4556    0.0000 O   0  0  0  0  0  0  0  0  0  0  0  0
   -2.9339   -7.8827    0.0000 C   0  0  0  0  0  0  0  0  0  0  0  0
   -2.0522   -9.0962    0.0000 C   0  0  0  0  0  0  0  0  0  0  0  0
  1  2  2  0
  2  3  1  0
  3  4  1  0
  4  5  2  0
  4  6  1  0
  6  7  2  0
  7  8  1  0
  8  9  1  0
  9 10  2  0
 10 11  1  0
 11 12  2  0
 12 13  1  0
 12 14  1  0
 14 15  2  0
 15 16  1  0
 16 17  1  0
 17 18  1  0
 18 19  2  0
 19 20  1  0
 20 21  2  0
 21 22  1  0
 22 23  2  0
 23 24  1  0
 24 25  2  0
 25 26  1  0
 26 27  1  0
 27 28  1  0
 28 29  1  0
 27 30  1  0
 30 31  1  0
  7  2  1  0
 17  8  2  0
 26 18  1  0
 19  6  1  0
 25 20  1  0
 15  9  1  0
 31 24  1  0
M  END
>  <Compound_ID>  (240) 
CHEMBL318076

>  <Active>  (240) 
1.0

>  <Smiles>  (240) 
O=C1NC(=O)c2c1c1c3ccc(F)cc3[nH]c1c1c2c2cccc3c2n1C(CO)CC3

>  <canonical_smi>  (240) 
O=C1NC(=O)c2c1c1c3ccc(F)cc3[nH]c1c1c2c2cccc3c2n1C(CO)CC3

>  <Set>  (240) 
G2 active

>  <Set_type>  (240) 
Train

>  <MW>  (240) 
413.41

>  <HBD>  (240) 
3

>  <HBA>  (240) 
3

>  <NRB>  (240) 
1

>  <NR>  (240) 
7

>  <NAR>  (240) 
5

>  <PSA>  (240) 
87.12

>  <Standard Type>  (240) 
nan

>  <Standard Relation>  (240) 
nan

>  <Standard Units>  (240) 
nan

>  <Standard Value>  (240) 
nan

>  <Assay ChEMBL ID>  (240) 
nan

>  <Assay Description>  (240) 
nan

>  <BAO Label>  (240) 
nan

$$$$

     RDKit          2D

 35 39  0  0  0  0  0  0  0  0999 V2000
    7.4146   -6.0524    0.0000 N   0  0  0  0  0  0  0  0  0  0  0  0
    6.2011   -6.9341    0.0000 C   0  0  0  0  0  0  0  0  0  0  0  0
    4.8308   -6.3240    0.0000 C   0  0  0  0  0  0  0  0  0  0  0  0
    4.6740   -4.8322    0.0000 N   0  0  0  0  0  0  0  0  0  0  0  0
    3.3037   -4.2221    0.0000 C   0  0  0  0  0  0  0  0  0  0  0  0
    2.0046   -4.9721    0.0000 N   0  0  0  0  0  0  0  0  0  0  0  0
    0.8899   -3.9684    0.0000 N   0  0  0  0  0  0  0  0  0  0  0  0
    1.5000   -2.5981    0.0000 C   0  0  0  0  0  0  0  0  0  0  0  0
    0.7500   -1.2990    0.0000 C   0  0  0  0  0  0  0  0  0  0  0  0
    1.5000    0.0000    0.0000 C   0  0  0  0  0  0  0  0  0  0  0  0
    0.7500    1.2990    0.0000 C   0  0  0  0  0  0  0  0  0  0  0  0
   -0.7500    1.2990    0.0000 C   0  0  0  0  0  0  0  0  0  0  0  0
   -1.7537    2.4138    0.0000 N   0  0  0  0  0  0  0  0  0  0  0  0
   -3.1240    1.8037    0.0000 N   0  0  0  0  0  0  0  0  0  0  0  0
   -2.9672    0.3119    0.0000 C   0  0  0  0  0  0  0  0  0  0  0  0
   -4.0819   -0.6918    0.0000 C   0  0  0  0  0  0  0  0  0  0  0  0
   -5.5085   -0.2283    0.0000 C   0  0  0  0  0  0  0  0  0  0  0  0
   -6.6232   -1.2320    0.0000 C   0  0  0  0  0  0  0  0  0  0  0  0
   -6.3114   -2.6992    0.0000 C   0  0  0  0  0  0  0  0  0  0  0  0
   -4.8848   -3.1627    0.0000 C   0  0  0  0  0  0  0  0  0  0  0  0
   -3.7701   -2.1590    0.0000 C   0  0  0  0  0  0  0  0  0  0  0  0
   -1.5000    0.0000    0.0000 C   0  0  0  0  0  0  0  0  0  0  0  0
   -0.7500   -1.2990    0.0000 C   0  0  0  0  0  0  0  0  0  0  0  0
    2.9918   -2.7549    0.0000 S   0  0  0  0  0  0  0  0  0  0  0  0
    6.3579   -8.4259    0.0000 C   0  0  0  0  0  0  0  0  0  0  0  0
    7.7282   -9.0360    0.0000 C   0  0  0  0  0  0  0  0  0  0  0  0
    7.8850  -10.5278    0.0000 C   0  0  0  0  0  0  0  0  0  0  0  0
    9.2553  -11.1379    0.0000 C   0  0  0  0  0  0  0  0  0  0  0  0
   10.4688  -10.2562    0.0000 C   0  0  0  0  0  0  0  0  0  0  0  0
   10.3120   -8.7644    0.0000 C   0  0  0  0  0  0  0  0  0  0  0  0
   11.5256   -7.8827    0.0000 C   0  0  0  0  0  0  0  0  0  0  0  0
   12.7391   -7.0010    0.0000 F   0  0  0  0  0  0  0  0  0  0  0  0
   12.4072   -9.0962    0.0000 F   0  0  0  0  0  0  0  0  0  0  0  0
   10.6439   -6.6692    0.0000 F   0  0  0  0  0  0  0  0  0  0  0  0
    8.9417   -8.1543    0.0000 C   0  0  0  0  0  0  0  0  0  0  0  0
  2  1  1  1
  2  3  1  0
  3  4  1  0
  4  5  1  0
  5  6  2  0
  6  7  1  0
  7  8  2  0
  8  9  1  0
  9 10  2  0
 10 11  1  0
 11 12  2  0
 12 13  1  0
 13 14  1  0
 14 15  2  0
 15 16  1  0
 16 17  2  0
 17 18  1  0
 18 19  2  0
 19 20  1  0
 20 21  2  0
 15 22  1  0
 22 23  2  0
  8 24  1  0
  2 25  1  0
 25 26  1  0
 26 27  2  0
 27 28  1  0
 28 29  2  0
 29 30  1  0
 30 31  1  0
 31 32  1  0
 31 33  1  0
 31 34  1  0
 30 35  2  0
 24  5  1  0
 35 26  1  0
 23  9  1  0
 22 12  1  0
 21 16  1  0
M  END
>  <Compound_ID>  (241) 
CHEMBL1081438

>  <Active>  (241) 
1.0

>  <Smiles>  (241) 
N[C@H](CNc1nnc(-c2ccc3[nH]nc(-c4ccccc4)c3c2)s1)Cc1cccc(C(F)(F)F)c1

>  <canonical_smi>  (241) 
N[C@H](CNc1nnc(-c2ccc3[nH]nc(-c4ccccc4)c3c2)s1)Cc1cccc(C(F)(F)F)c1

>  <Set>  (241) 
G2 active

>  <Set_type>  (241) 
Train

>  <MW>  (241) 
494.55

>  <HBD>  (241) 
3

>  <HBA>  (241) 
5

>  <NRB>  (241) 
7

>  <NR>  (241) 
5

>  <NAR>  (241) 
5

>  <PSA>  (241) 
92.51

>  <Standard Type>  (241) 
nan

>  <Standard Relation>  (241) 
nan

>  <Standard Units>  (241) 
nan

>  <Standard Value>  (241) 
nan

>  <Assay ChEMBL ID>  (241) 
nan

>  <Assay Description>  (241) 
nan

>  <BAO Label>  (241) 
nan

$$$$

     RDKit          2D

 23 26  0  0  0  0  0  0  0  0999 V2000
    3.7500   -1.2990    0.0000 C   0  0  0  0  0  0  0  0  0  0  0  0
    3.0000    0.0000    0.0000 O   0  0  0  0  0  0  0  0  0  0  0  0
    1.5000    0.0000    0.0000 C   0  0  0  0  0  0  0  0  0  0  0  0
    0.7500   -1.2990    0.0000 C   0  0  0  0  0  0  0  0  0  0  0  0
   -0.7500   -1.2990    0.0000 C   0  0  0  0  0  0  0  0  0  0  0  0
   -1.5000    0.0000    0.0000 N   0  0  0  0  0  0  0  0  0  0  0  0
   -0.7500    1.2990    0.0000 C   0  0  0  0  0  0  0  0  0  0  0  0
    0.7500    1.2990    0.0000 C   0  0  0  0  0  0  0  0  0  0  0  0
    1.2135    2.7256    0.0000 C   0  0  0  0  0  0  0  0  0  0  0  0
    2.6401    3.1891    0.0000 C   0  0  0  0  0  0  0  0  0  0  0  0
    3.7548    2.1855    0.0000 C   0  0  0  0  0  0  0  0  0  0  0  0
    5.1814    2.6490    0.0000 C   0  0  0  0  0  0  0  0  0  0  0  0
    5.4933    4.1162    0.0000 N   0  0  0  0  0  0  0  0  0  0  0  0
    4.3786    5.1199    0.0000 C   0  0  0  0  0  0  0  0  0  0  0  0
    4.6904    6.5871    0.0000 N   0  0  0  0  0  0  0  0  0  0  0  0
    2.9520    4.6564    0.0000 N   0  0  0  0  0  0  0  0  0  0  0  0
    0.0000    3.6073    0.0000 C   0  0  0  0  0  0  0  0  0  0  0  0
   -0.1568    5.0991    0.0000 C   0  0  0  0  0  0  0  0  0  0  0  0
   -1.5271    5.7092    0.0000 C   0  0  0  0  0  0  0  0  0  0  0  0
   -2.7406    4.8275    0.0000 N   0  0  0  0  0  0  0  0  0  0  0  0
   -2.5838    3.3357    0.0000 C   0  0  0  0  0  0  0  0  0  0  0  0
   -3.7974    2.4540    0.0000 N   0  0  0  0  0  0  0  0  0  0  0  0
   -1.2135    2.7256    0.0000 N   0  0  0  0  0  0  0  0  0  0  0  0
  1  2  1  0
  2  3  1  0
  3  4  2  0
  4  5  1  0
  5  6  2  0
  6  7  1  0
  7  8  2  0
  8  9  1  0
  9 10  1  0
 10 11  2  0
 11 12  1  0
 12 13  2  0
 13 14  1  0
 14 15  1  0
 14 16  2  0
  9 17  2  0
 17 18  1  0
 18 19  2  0
 19 20  1  0
 20 21  2  0
 21 22  1  0
 21 23  1  0
  8  3  1  0
 16 10  1  0
 23 17  1  0
 23  7  1  0
M  END
>  <Compound_ID>  (242) 
CHEMBL411704

>  <Active>  (242) 
1.0

>  <Smiles>  (242) 
COc1ccnc2c1c(-c1ccnc(N)n1)c1ccnc(N)n12

>  <canonical_smi>  (242) 
COc1ccnc2c1c(-c1ccnc(N)n1)c1ccnc(N)n12

>  <Set>  (242) 
G2 active

>  <Set_type>  (242) 
Train

>  <MW>  (242) 
307.32

>  <HBD>  (242) 
2

>  <HBA>  (242) 
7

>  <NRB>  (242) 
2

>  <NR>  (242) 
4

>  <NAR>  (242) 
4

>  <PSA>  (242) 
117.24

>  <Standard Type>  (242) 
nan

>  <Standard Relation>  (242) 
nan

>  <Standard Units>  (242) 
nan

>  <Standard Value>  (242) 
nan

>  <Assay ChEMBL ID>  (242) 
nan

>  <Assay Description>  (242) 
nan

>  <BAO Label>  (242) 
nan

$$$$

     RDKit          2D

 28 31  0  0  0  0  0  0  0  0999 V2000
    5.2500   -1.2990    0.0000 C   0  0  0  0  0  0  0  0  0  0  0  0
    3.7500   -1.2990    0.0000 N   0  0  0  0  0  0  0  0  0  0  0  0
    3.0000    0.0000    0.0000 C   0  0  0  0  0  0  0  0  0  0  0  0
    3.7500    1.2990    0.0000 O   0  0  0  0  0  0  0  0  0  0  0  0
    1.5000    0.0000    0.0000 C   0  0  0  0  0  0  0  0  0  0  0  0
    0.7500   -1.2990    0.0000 C   0  0  0  0  0  0  0  0  0  0  0  0
   -0.7500   -1.2990    0.0000 C   0  0  0  0  0  0  0  0  0  0  0  0
   -1.5000    0.0000    0.0000 C   0  0  0  0  0  0  0  0  0  0  0  0
   -3.0000    0.0000    0.0000 N   0  0  0  0  0  0  0  0  0  0  0  0
   -3.7500    1.2990    0.0000 C   0  0  0  0  0  0  0  0  0  0  0  0
   -3.0000    2.5981    0.0000 N   0  0  0  0  0  0  0  0  0  0  0  0
   -3.7500    3.8971    0.0000 C   0  0  0  0  0  0  0  0  0  0  0  0
   -5.2500    3.8971    0.0000 C   0  0  0  0  0  0  0  0  0  0  0  0
   -6.0000    2.5981    0.0000 C   0  0  0  0  0  0  0  0  0  0  0  0
   -7.5000    2.5981    0.0000 C   0  0  0  0  0  0  0  0  0  0  0  0
   -8.3817    1.3846    0.0000 C   0  0  0  0  0  0  0  0  0  0  0  0
   -9.8083    1.8481    0.0000 N   0  0  0  0  0  0  0  0  0  0  0  0
   -9.8083    3.3481    0.0000 C   0  0  0  0  0  0  0  0  0  0  0  0
  -11.0218    4.2298    0.0000 C   0  0  0  0  0  0  0  0  0  0  0  0
  -12.5136    4.3865    0.0000 C   0  0  0  0  0  0  0  0  0  0  0  0
  -11.6319    5.6001    0.0000 C   0  0  0  0  0  0  0  0  0  0  0  0
   -8.3817    3.8116    0.0000 N   0  0  0  0  0  0  0  0  0  0  0  0
   -7.9182    5.2382    0.0000 C   0  0  0  0  0  0  0  0  0  0  0  0
   -6.4509    5.5501    0.0000 C   0  0  0  0  0  0  0  0  0  0  0  0
   -8.9218    6.3529    0.0000 C   0  0  0  0  0  0  0  0  0  0  0  0
   -5.2500    1.2990    0.0000 N   0  0  0  0  0  0  0  0  0  0  0  0
   -0.7500    1.2990    0.0000 C   0  0  0  0  0  0  0  0  0  0  0  0
    0.7500    1.2990    0.0000 C   0  0  0  0  0  0  0  0  0  0  0  0
  1  2  1  0
  2  3  1  0
  3  4  2  0
  3  5  1  0
  5  6  2  0
  6  7  1  0
  7  8  2  0
  8  9  1  0
  9 10  1  0
 10 11  2  0
 11 12  1  0
 12 13  2  0
 13 14  1  0
 14 15  1  0
 15 16  2  0
 16 17  1  0
 17 18  2  0
 18 19  1  0
 19 20  1  0
 20 21  1  0
 18 22  1  0
 22 23  1  0
 23 24  1  0
 23 25  1  0
 14 26  2  0
  8 27  1  0
 27 28  2  0
 28  5  1  0
 26 10  1  0
 22 15  1  0
 21 19  1  0
M  END
>  <Compound_ID>  (243) 
CHEMBL507142

>  <Active>  (243) 
1.0

>  <Smiles>  (243) 
CNC(=O)c1ccc(Nc2nccc(-c3cnc(C4CC4)n3C(C)C)n2)cc1

>  <canonical_smi>  (243) 
CNC(=O)c1ccc(Nc2nccc(-c3cnc(C4CC4)n3C(C)C)n2)cc1

>  <Set>  (243) 
G2 active

>  <Set_type>  (243) 
Train

>  <MW>  (243) 
376.46

>  <HBD>  (243) 
2

>  <HBA>  (243) 
5

>  <NRB>  (243) 
6

>  <NR>  (243) 
4

>  <NAR>  (243) 
3

>  <PSA>  (243) 
84.73

>  <Standard Type>  (243) 
nan

>  <Standard Relation>  (243) 
nan

>  <Standard Units>  (243) 
nan

>  <Standard Value>  (243) 
nan

>  <Assay ChEMBL ID>  (243) 
nan

>  <Assay Description>  (243) 
nan

>  <BAO Label>  (243) 
nan

$$$$

     RDKit          2D

 31 34  0  0  0  0  0  0  0  0999 V2000
    9.0000   -2.5981    0.0000 C   0  0  0  0  0  0  0  0  0  0  0  0
    7.5000   -2.5981    0.0000 O   0  0  0  0  0  0  0  0  0  0  0  0
    6.7500   -1.2990    0.0000 C   0  0  0  0  0  0  0  0  0  0  0  0
    5.2500   -1.2990    0.0000 C   0  0  0  0  0  0  0  0  0  0  0  0
    4.5000    0.0000    0.0000 N   0  0  0  0  0  0  0  0  0  0  0  0
    5.2500    1.2990    0.0000 C   0  0  0  0  0  0  0  0  0  0  0  0
    3.0000    0.0000    0.0000 S   0  0  0  0  0  0  0  0  0  0  0  0
    3.0000   -1.5000    0.0000 O   0  0  0  0  0  0  0  0  0  0  0  0
    3.0000    1.5000    0.0000 O   0  0  0  0  0  0  0  0  0  0  0  0
    1.5000    0.0000    0.0000 C   0  0  0  0  0  0  0  0  0  0  0  0
    0.7500   -1.2990    0.0000 C   0  0  0  0  0  0  0  0  0  0  0  0
   -0.7500   -1.2990    0.0000 C   0  0  0  0  0  0  0  0  0  0  0  0
   -1.5000    0.0000    0.0000 C   0  0  0  0  0  0  0  0  0  0  0  0
   -3.0000    0.0000    0.0000 N   0  0  0  0  0  0  0  0  0  0  0  0
   -3.7500    1.2990    0.0000 C   0  0  0  0  0  0  0  0  0  0  0  0
   -3.0000    2.5981    0.0000 N   0  0  0  0  0  0  0  0  0  0  0  0
   -3.7500    3.8971    0.0000 C   0  0  0  0  0  0  0  0  0  0  0  0
   -5.2500    3.8971    0.0000 C   0  0  0  0  0  0  0  0  0  0  0  0
   -6.0000    2.5981    0.0000 C   0  0  0  0  0  0  0  0  0  0  0  0
   -7.5000    2.5981    0.0000 C   0  0  0  0  0  0  0  0  0  0  0  0
   -8.3817    1.3846    0.0000 C   0  0  0  0  0  0  0  0  0  0  0  0
   -9.8083    1.8481    0.0000 N   0  0  0  0  0  0  0  0  0  0  0  0
   -9.8083    3.3481    0.0000 C   0  0  0  0  0  0  0  0  0  0  0  0
  -11.0218    4.2298    0.0000 C   0  0  0  0  0  0  0  0  0  0  0  0
   -8.3817    3.8116    0.0000 N   0  0  0  0  0  0  0  0  0  0  0  0
   -7.9182    5.2382    0.0000 C   0  0  0  0  0  0  0  0  0  0  0  0
   -8.2300    6.7054    0.0000 C   0  0  0  0  0  0  0  0  0  0  0  0
   -6.8034    6.2419    0.0000 C   0  0  0  0  0  0  0  0  0  0  0  0
   -5.2500    1.2990    0.0000 N   0  0  0  0  0  0  0  0  0  0  0  0
   -0.7500    1.2990    0.0000 C   0  0  0  0  0  0  0  0  0  0  0  0
    0.7500    1.2990    0.0000 C   0  0  0  0  0  0  0  0  0  0  0  0
  1  2  1  0
  2  3  1  0
  3  4  1  0
  4  5  1  0
  5  6  1  0
  5  7  1  0
  7  8  2  0
  7  9  2  0
  7 10  1  0
 10 11  2  0
 11 12  1  0
 12 13  2  0
 13 14  1  0
 14 15  1  0
 15 16  2  0
 16 17  1  0
 17 18  2  0
 18 19  1  0
 19 20  1  0
 20 21  2  0
 21 22  1  0
 22 23  2  0
 23 24  1  0
 23 25  1  0
 25 26  1  0
 26 27  1  0
 27 28  1  0
 19 29  2  0
 13 30  1  0
 30 31  2  0
 31 10  1  0
 29 15  1  0
 25 20  1  0
 28 26  1  0
M  END
>  <Compound_ID>  (244) 
CHEMBL483590

>  <Active>  (244) 
1.0

>  <Smiles>  (244) 
COCCN(C)S(=O)(=O)c1ccc(Nc2nccc(-c3cnc(C)n3C3CC3)n2)cc1

>  <canonical_smi>  (244) 
COCCN(C)S(=O)(=O)c1ccc(Nc2nccc(-c3cnc(C)n3C3CC3)n2)cc1

>  <Set>  (244) 
G2 active

>  <Set_type>  (244) 
Train

>  <MW>  (244) 
442.55

>  <HBD>  (244) 
1

>  <HBA>  (244) 
7

>  <NRB>  (244) 
9

>  <NR>  (244) 
4

>  <NAR>  (244) 
3

>  <PSA>  (244) 
102.24

>  <Standard Type>  (244) 
nan

>  <Standard Relation>  (244) 
nan

>  <Standard Units>  (244) 
nan

>  <Standard Value>  (244) 
nan

>  <Assay ChEMBL ID>  (244) 
nan

>  <Assay Description>  (244) 
nan

>  <BAO Label>  (244) 
nan

$$$$

     RDKit          2D

 20 22  0  0  0  0  0  0  0  0999 V2000
   -0.1920   -7.6177    0.0000 C   0  0  0  0  0  0  0  0  0  0  0  0
    0.4182   -6.2474    0.0000 C   0  0  0  0  0  0  0  0  0  0  0  0
    1.9099   -6.0906    0.0000 C   0  0  0  0  0  0  0  0  0  0  0  0
   -0.4635   -5.0339    0.0000 C   0  0  0  0  0  0  0  0  0  0  0  0
   -1.9635   -5.0339    0.0000 N   0  0  0  0  0  0  0  0  0  0  0  0
   -2.4271   -3.6073    0.0000 N   0  0  0  0  0  0  0  0  0  0  0  0
   -1.2135   -2.7256    0.0000 C   0  0  0  0  0  0  0  0  0  0  0  0
   -0.0000   -3.6073    0.0000 C   0  0  0  0  0  0  0  0  0  0  0  0
    1.2135   -2.7256    0.0000 C   0  0  0  0  0  0  0  0  0  0  0  0
    2.6401   -3.1891    0.0000 O   0  0  0  0  0  0  0  0  0  0  0  0
    0.7500   -1.2990    0.0000 C   0  0  0  0  0  0  0  0  0  0  0  0
    1.5000    0.0000    0.0000 C   0  0  0  0  0  0  0  0  0  0  0  0
    3.0000    0.0000    0.0000 N   0  0  0  0  0  0  0  0  0  0  0  0
    3.7500    1.2990    0.0000 C   0  0  0  0  0  0  0  0  0  0  0  0
    5.2500    1.2990    0.0000 N   0  0  0  0  0  0  0  0  0  0  0  0
    3.0000    2.5981    0.0000 O   0  0  0  0  0  0  0  0  0  0  0  0
    0.7500    1.2990    0.0000 C   0  0  0  0  0  0  0  0  0  0  0  0
   -0.7500    1.2990    0.0000 C   0  0  0  0  0  0  0  0  0  0  0  0
   -1.5000    0.0000    0.0000 C   0  0  0  0  0  0  0  0  0  0  0  0
   -0.7500   -1.2990    0.0000 C   0  0  0  0  0  0  0  0  0  0  0  0
  1  2  1  0
  2  3  1  0
  2  4  1  0
  4  5  2  0
  5  6  1  0
  6  7  1  0
  7  8  2  0
  8  9  1  0
  9 10  2  0
  9 11  1  0
 11 12  2  0
 12 13  1  0
 13 14  1  0
 14 15  1  0
 14 16  2  0
 12 17  1  0
 17 18  2  0
 18 19  1  0
 19 20  2  0
  8  4  1  0
 20 11  1  0
 20  7  1  0
M  END
>  <Compound_ID>  (245) 
CHEMBL148977

>  <Active>  (245) 
1.0

>  <Smiles>  (245) 
CC(C)c1n[nH]c2c1C(=O)c1c(NC(N)=O)cccc1-2

>  <canonical_smi>  (245) 
CC(C)c1n[nH]c2c1C(=O)c1c(NC(N)=O)cccc1-2

>  <Set>  (245) 
G2 active

>  <Set_type>  (245) 
Train

>  <MW>  (245) 
270.29

>  <HBD>  (245) 
3

>  <HBA>  (245) 
3

>  <NRB>  (245) 
2

>  <NR>  (245) 
3

>  <NAR>  (245) 
3

>  <PSA>  (245) 
100.87

>  <Standard Type>  (245) 
nan

>  <Standard Relation>  (245) 
nan

>  <Standard Units>  (245) 
nan

>  <Standard Value>  (245) 
nan

>  <Assay ChEMBL ID>  (245) 
nan

>  <Assay Description>  (245) 
nan

>  <BAO Label>  (245) 
nan

$$$$

     RDKit          2D

 33 35  0  0  0  0  0  0  0  0999 V2000
    7.5000   -2.5981    0.0000 C   0  0  0  0  0  0  0  0  0  0  0  0
    6.0000   -2.5981    0.0000 C   0  0  0  0  0  0  0  0  0  0  0  0
    5.2500   -1.2990    0.0000 C   0  0  0  0  0  0  0  0  0  0  0  0
    3.7500   -1.2990    0.0000 C   0  0  0  0  0  0  0  0  0  0  0  0
    3.0000    0.0000    0.0000 O   0  0  0  0  0  0  0  0  0  0  0  0
    1.5000    0.0000    0.0000 C   0  0  0  0  0  0  0  0  0  0  0  0
    0.7500   -1.2990    0.0000 C   0  0  0  0  0  0  0  0  0  0  0  0
   -0.7500   -1.2990    0.0000 C   0  0  0  0  0  0  0  0  0  0  0  0
   -1.5000   -2.5981    0.0000 F   0  0  0  0  0  0  0  0  0  0  0  0
   -1.5000    0.0000    0.0000 C   0  0  0  0  0  0  0  0  0  0  0  0
   -3.0000    0.0000    0.0000 C   0  0  0  0  0  0  0  0  0  0  0  0
   -3.7500   -1.2990    0.0000 O   0  0  0  0  0  0  0  0  0  0  0  0
   -3.7500    1.2990    0.0000 C   0  0  0  0  0  0  0  0  0  0  0  0
   -3.0000    2.5981    0.0000 C   0  0  0  0  0  0  0  0  0  0  0  0
   -3.7500    3.8971    0.0000 C   0  0  0  0  0  0  0  0  0  0  0  0
   -5.2500    3.8971    0.0000 C   0  0  0  0  0  0  0  0  0  0  0  0
   -6.0000    5.1962    0.0000 N   0  0  0  0  0  0  0  0  0  0  0  0
   -5.2500    6.4952    0.0000 C   0  0  0  0  0  0  0  0  0  0  0  0
   -3.7500    6.4952    0.0000 C   0  0  0  0  0  0  0  0  0  0  0  0
   -3.0000    7.7942    0.0000 C   0  0  0  0  0  0  0  0  0  0  0  0
   -3.7500    9.0933    0.0000 C   0  0  0  0  0  0  0  0  0  0  0  0
   -3.0000   10.3923    0.0000 S   0  0  0  0  0  0  0  0  0  0  0  0
   -2.2500   11.6913    0.0000 N   0  0  0  0  0  0  0  0  0  0  0  0
   -1.7010    9.6423    0.0000 O   0  0  0  0  0  0  0  0  0  0  0  0
   -4.2990   11.1423    0.0000 O   0  0  0  0  0  0  0  0  0  0  0  0
   -5.2500    9.0933    0.0000 C   0  0  0  0  0  0  0  0  0  0  0  0
   -6.0000    7.7942    0.0000 C   0  0  0  0  0  0  0  0  0  0  0  0
   -6.0000    2.5981    0.0000 N   0  0  0  0  0  0  0  0  0  0  0  0
   -5.2500    1.2990    0.0000 C   0  0  0  0  0  0  0  0  0  0  0  0
   -6.0000    0.0000    0.0000 N   0  0  0  0  0  0  0  0  0  0  0  0
   -0.7500    1.2990    0.0000 C   0  0  0  0  0  0  0  0  0  0  0  0
   -1.5000    2.5981    0.0000 F   0  0  0  0  0  0  0  0  0  0  0  0
    0.7500    1.2990    0.0000 C   0  0  0  0  0  0  0  0  0  0  0  0
  1  2  1  0
  2  3  1  0
  3  4  1  0
  4  5  1  0
  5  6  1  0
  6  7  2  0
  7  8  1  0
  8  9  1  0
  8 10  2  0
 10 11  1  0
 11 12  2  0
 11 13  1  0
 13 14  2  0
 14 15  1  0
 15 16  2  0
 16 17  1  0
 17 18  1  0
 18 19  2  0
 19 20  1  0
 20 21  2  0
 21 22  1  0
 22 23  1  0
 22 24  2  0
 22 25  2  0
 21 26  1  0
 26 27  2  0
 16 28  1  0
 28 29  2  0
 29 30  1  0
 10 31  1  0
 31 32  1  0
 31 33  2  0
 33  6  1  0
 29 13  1  0
 27 18  1  0
M  END
>  <Compound_ID>  (246) 
CHEMBL196508

>  <Active>  (246) 
1.0

>  <Smiles>  (246) 
CCCCOc1cc(F)c(C(=O)c2ccc(Nc3ccc(S(N)(=O)=O)cc3)nc2N)c(F)c1

>  <canonical_smi>  (246) 
CCCCOc1cc(F)c(C(=O)c2ccc(Nc3ccc(S(N)(=O)=O)cc3)nc2N)c(F)c1

>  <Set>  (246) 
G2 active

>  <Set_type>  (246) 
Train

>  <MW>  (246) 
476.51

>  <HBD>  (246) 
3

>  <HBA>  (246) 
7

>  <NRB>  (246) 
9

>  <NR>  (246) 
3

>  <NAR>  (246) 
3

>  <PSA>  (246) 
137.4

>  <Standard Type>  (246) 
nan

>  <Standard Relation>  (246) 
nan

>  <Standard Units>  (246) 
nan

>  <Standard Value>  (246) 
nan

>  <Assay ChEMBL ID>  (246) 
nan

>  <Assay Description>  (246) 
nan

>  <BAO Label>  (246) 
nan

$$$$

     RDKit          2D

 22 25  0  0  0  0  0  0  0  0999 V2000
    5.2500   -1.2990    0.0000 N   0  0  0  0  0  0  0  0  0  0  0  0
    3.7500   -1.2990    0.0000 C   0  0  0  0  0  0  0  0  0  0  0  0
    3.0000   -2.5981    0.0000 O   0  0  0  0  0  0  0  0  0  0  0  0
    3.0000    0.0000    0.0000 N   0  0  0  0  0  0  0  0  0  0  0  0
    1.5000    0.0000    0.0000 C   0  0  0  0  0  0  0  0  0  0  0  0
    0.7500   -1.2990    0.0000 C   0  0  0  0  0  0  0  0  0  0  0  0
   -0.7500   -1.2990    0.0000 C   0  0  0  0  0  0  0  0  0  0  0  0
   -1.5000    0.0000    0.0000 C   0  0  0  0  0  0  0  0  0  0  0  0
   -0.7500    1.2990    0.0000 C   0  0  0  0  0  0  0  0  0  0  0  0
    0.7500    1.2990    0.0000 C   0  0  0  0  0  0  0  0  0  0  0  0
    1.2135    2.7256    0.0000 C   0  0  0  0  0  0  0  0  0  0  0  0
    2.6401    3.1891    0.0000 O   0  0  0  0  0  0  0  0  0  0  0  0
    0.0000    3.6073    0.0000 C   0  0  0  0  0  0  0  0  0  0  0  0
   -0.4635    5.0339    0.0000 C   0  0  0  0  0  0  0  0  0  0  0  0
    0.4182    6.2474    0.0000 C   0  0  0  0  0  0  0  0  0  0  0  0
   -0.0454    7.6740    0.0000 C   0  0  0  0  0  0  0  0  0  0  0  0
    1.1682    8.5557    0.0000 C   0  0  0  0  0  0  0  0  0  0  0  0
    2.3817    7.6740    0.0000 C   0  0  0  0  0  0  0  0  0  0  0  0
    1.9182    6.2474    0.0000 O   0  0  0  0  0  0  0  0  0  0  0  0
   -1.9635    5.0339    0.0000 N   0  0  0  0  0  0  0  0  0  0  0  0
   -2.4271    3.6073    0.0000 N   0  0  0  0  0  0  0  0  0  0  0  0
   -1.2135    2.7256    0.0000 C   0  0  0  0  0  0  0  0  0  0  0  0
  1  2  1  0
  2  3  2  0
  2  4  1  0
  4  5  1  0
  5  6  2  0
  6  7  1  0
  7  8  2  0
  8  9  1  0
  9 10  2  0
 10 11  1  0
 11 12  2  0
 11 13  1  0
 13 14  1  0
 14 15  1  0
 15 16  2  0
 16 17  1  0
 17 18  2  0
 18 19  1  0
 14 20  2  0
 20 21  1  0
 21 22  1  0
 10  5  1  0
 22 13  2  0
 22  9  1  0
 19 15  1  0
M  END
>  <Compound_ID>  (247) 
CHEMBL434700

>  <Active>  (247) 
1.0

>  <Smiles>  (247) 
NC(=O)Nc1cccc2c1C(=O)c1c(-c3ccco3)n[nH]c1-2

>  <canonical_smi>  (247) 
NC(=O)Nc1cccc2c1C(=O)c1c(-c3ccco3)n[nH]c1-2

>  <Set>  (247) 
G2 active

>  <Set_type>  (247) 
Train

>  <MW>  (247) 
294.27

>  <HBD>  (247) 
3

>  <HBA>  (247) 
4

>  <NRB>  (247) 
2

>  <NR>  (247) 
4

>  <NAR>  (247) 
4

>  <PSA>  (247) 
114.01

>  <Standard Type>  (247) 
nan

>  <Standard Relation>  (247) 
nan

>  <Standard Units>  (247) 
nan

>  <Standard Value>  (247) 
nan

>  <Assay ChEMBL ID>  (247) 
nan

>  <Assay Description>  (247) 
nan

>  <BAO Label>  (247) 
nan

$$$$

     RDKit          2D

 19 21  0  0  0  0  0  0  0  0999 V2000
    3.0000   -2.5981    0.0000 O   0  0  0  0  0  0  0  0  0  0  0  0
    1.5000   -2.5981    0.0000 C   0  0  0  0  0  0  0  0  0  0  0  0
    0.7500   -3.8971    0.0000 N   0  0  0  0  0  0  0  0  0  0  0  0
    1.5000   -5.1962    0.0000 C   0  0  0  0  0  0  0  0  0  0  0  0
    2.9918   -5.3529    0.0000 C   0  0  0  0  0  0  0  0  0  0  0  0
    3.3037   -6.8202    0.0000 C   0  0  0  0  0  0  0  0  0  0  0  0
    4.6740   -7.4303    0.0000 C   0  0  0  0  0  0  0  0  0  0  0  0
    5.2115   -8.8306    0.0000 C   0  0  0  0  0  0  0  0  0  0  0  0
    6.6119   -8.2931    0.0000 C   0  0  0  0  0  0  0  0  0  0  0  0
    6.0743   -6.8927    0.0000 C   0  0  0  0  0  0  0  0  0  0  0  0
    2.0046   -7.5702    0.0000 N   0  0  0  0  0  0  0  0  0  0  0  0
    0.8899   -6.5665    0.0000 N   0  0  0  0  0  0  0  0  0  0  0  0
    0.7500   -1.2990    0.0000 C   0  0  0  0  0  0  0  0  0  0  0  0
    1.5000    0.0000    0.0000 C   0  0  0  0  0  0  0  0  0  0  0  0
    0.7500    1.2990    0.0000 C   0  0  0  0  0  0  0  0  0  0  0  0
   -0.7500    1.2990    0.0000 C   0  0  0  0  0  0  0  0  0  0  0  0
   -1.5000    2.5981    0.0000 Br  0  0  0  0  0  0  0  0  0  0  0  0
   -1.5000    0.0000    0.0000 C   0  0  0  0  0  0  0  0  0  0  0  0
   -0.7500   -1.2990    0.0000 C   0  0  0  0  0  0  0  0  0  0  0  0
  1  2  2  0
  2  3  1  0
  3  4  1  0
  4  5  1  0
  5  6  2  0
  6  7  1  0
  7  8  1  0
  8  9  1  0
  9 10  1  0
  6 11  1  0
 11 12  1  0
  2 13  1  0
 13 14  2  0
 14 15  1  0
 15 16  2  0
 16 17  1  0
 16 18  1  0
 18 19  2  0
 12  4  2  0
 19 13  1  0
 10  7  1  0
M  END
>  <Compound_ID>  (248) 
CHEMBL112136

>  <Active>  (248) 
1.0

>  <Smiles>  (248) 
O=C(Nc1cc(C2CCC2)[nH]n1)c1ccc(Br)cc1

>  <canonical_smi>  (248) 
O=C(Nc1cc(C2CCC2)[nH]n1)c1ccc(Br)cc1

>  <Set>  (248) 
G2 active

>  <Set_type>  (248) 
Train

>  <MW>  (248) 
320.19

>  <HBD>  (248) 
2

>  <HBA>  (248) 
2

>  <NRB>  (248) 
3

>  <NR>  (248) 
3

>  <NAR>  (248) 
2

>  <PSA>  (248) 
57.78

>  <Standard Type>  (248) 
nan

>  <Standard Relation>  (248) 
nan

>  <Standard Units>  (248) 
nan

>  <Standard Value>  (248) 
nan

>  <Assay ChEMBL ID>  (248) 
nan

>  <Assay Description>  (248) 
nan

>  <BAO Label>  (248) 
nan

$$$$

     RDKit          2D

 24 26  0  0  0  0  0  0  0  0999 V2000
   -0.7500   -3.8971    0.0000 O   0  0  0  0  0  0  0  0  0  0  0  0
    0.7500   -3.8971    0.0000 C   0  0  0  0  0  0  0  0  0  0  0  0
    1.5000   -2.5981    0.0000 N   0  0  0  0  0  0  0  0  0  0  0  0
    0.7500   -1.2990    0.0000 C   0  0  0  0  0  0  0  0  0  0  0  0
    1.5000    0.0000    0.0000 C   0  0  0  0  0  0  0  0  0  0  0  0
    0.7500    1.2990    0.0000 C   0  0  0  0  0  0  0  0  0  0  0  0
   -0.7500    1.2990    0.0000 C   0  0  0  0  0  0  0  0  0  0  0  0
   -1.5000    2.5981    0.0000 F   0  0  0  0  0  0  0  0  0  0  0  0
   -1.5000    0.0000    0.0000 C   0  0  0  0  0  0  0  0  0  0  0  0
   -0.7500   -1.2990    0.0000 C   0  0  0  0  0  0  0  0  0  0  0  0
    1.5000   -5.1962    0.0000 C   0  0  0  0  0  0  0  0  0  0  0  0
    2.9918   -5.3529    0.0000 N   0  0  0  0  0  0  0  0  0  0  0  0
    3.3037   -6.8202    0.0000 N   0  0  0  0  0  0  0  0  0  0  0  0
    2.0046   -7.5702    0.0000 C   0  0  0  0  0  0  0  0  0  0  0  0
    0.8899   -6.5665    0.0000 C   0  0  0  0  0  0  0  0  0  0  0  0
   -0.5773   -6.8783    0.0000 N   0  0  0  0  0  0  0  0  0  0  0  0
   -1.0409   -8.3049    0.0000 C   0  0  0  0  0  0  0  0  0  0  0  0
   -0.0372   -9.4196    0.0000 O   0  0  0  0  0  0  0  0  0  0  0  0
   -2.5081   -8.6168    0.0000 C   0  0  0  0  0  0  0  0  0  0  0  0
   -3.5118   -7.5021    0.0000 C   0  0  0  0  0  0  0  0  0  0  0  0
   -4.9790   -7.8139    0.0000 C   0  0  0  0  0  0  0  0  0  0  0  0
   -5.4425   -9.2405    0.0000 C   0  0  0  0  0  0  0  0  0  0  0  0
   -4.4388  -10.3552    0.0000 C   0  0  0  0  0  0  0  0  0  0  0  0
   -2.9716  -10.0434    0.0000 C   0  0  0  0  0  0  0  0  0  0  0  0
  1  2  2  0
  2  3  1  0
  3  4  1  0
  4  5  2  0
  5  6  1  0
  6  7  2  0
  7  8  1  0
  7  9  1  0
  9 10  2  0
  2 11  1  0
 11 12  2  0
 12 13  1  0
 13 14  1  0
 14 15  2  0
 15 16  1  0
 16 17  1  0
 17 18  2  0
 17 19  1  0
 19 20  1  0
 20 21  1  0
 21 22  1  0
 22 23  1  0
 23 24  1  0
 10  4  1  0
 15 11  1  0
 24 19  1  0
M  END
>  <Compound_ID>  (249) 
CHEMBL463579

>  <Active>  (249) 
1.0

>  <Smiles>  (249) 
O=C(Nc1ccc(F)cc1)c1n[nH]cc1NC(=O)C1CCCCC1

>  <canonical_smi>  (249) 
O=C(Nc1ccc(F)cc1)c1n[nH]cc1NC(=O)C1CCCCC1

>  <Set>  (249) 
G2 active

>  <Set_type>  (249) 
Train

>  <MW>  (249) 
330.36

>  <HBD>  (249) 
3

>  <HBA>  (249) 
3

>  <NRB>  (249) 
4

>  <NR>  (249) 
3

>  <NAR>  (249) 
2

>  <PSA>  (249) 
86.88

>  <Standard Type>  (249) 
nan

>  <Standard Relation>  (249) 
nan

>  <Standard Units>  (249) 
nan

>  <Standard Value>  (249) 
nan

>  <Assay ChEMBL ID>  (249) 
nan

>  <Assay Description>  (249) 
nan

>  <BAO Label>  (249) 
nan

$$$$

     RDKit          2D

 30 33  0  0  0  0  0  0  0  0999 V2000
   -7.4146   -8.6505    0.0000 N   0  0  0  0  0  0  0  0  0  0  0  0
   -7.2578   -7.1587    0.0000 C   0  0  0  0  0  0  0  0  0  0  0  0
   -5.8875   -6.5486    0.0000 C   0  0  0  0  0  0  0  0  0  0  0  0
   -4.6740   -7.4303    0.0000 N   0  0  0  0  0  0  0  0  0  0  0  0
   -3.3037   -6.8202    0.0000 C   0  0  0  0  0  0  0  0  0  0  0  0
   -2.9918   -5.3529    0.0000 C   0  0  0  0  0  0  0  0  0  0  0  0
   -1.5000   -5.1962    0.0000 C   0  0  0  0  0  0  0  0  0  0  0  0
   -0.7500   -3.8971    0.0000 C   0  0  0  0  0  0  0  0  0  0  0  0
    0.7500   -3.8971    0.0000 C   0  0  0  0  0  0  0  0  0  0  0  0
    1.5000   -2.5981    0.0000 C   0  0  0  0  0  0  0  0  0  0  0  0
    0.7500   -1.2990    0.0000 C   0  0  0  0  0  0  0  0  0  0  0  0
    1.5000    0.0000    0.0000 C   0  0  0  0  0  0  0  0  0  0  0  0
    0.7500    1.2990    0.0000 N   0  0  0  0  0  0  0  0  0  0  0  0
   -0.7500    1.2990    0.0000 C   0  0  0  0  0  0  0  0  0  0  0  0
   -1.5000    0.0000    0.0000 C   0  0  0  0  0  0  0  0  0  0  0  0
   -0.7500   -1.2990    0.0000 C   0  0  0  0  0  0  0  0  0  0  0  0
   -1.5000   -2.5981    0.0000 C   0  0  0  0  0  0  0  0  0  0  0  0
   -0.8899   -6.5665    0.0000 N   0  0  0  0  0  0  0  0  0  0  0  0
   -2.0046   -7.5702    0.0000 O   0  0  0  0  0  0  0  0  0  0  0  0
   -8.4713   -6.2770    0.0000 C   0  0  0  0  0  0  0  0  0  0  0  0
   -9.8417   -6.8871    0.0000 C   0  0  0  0  0  0  0  0  0  0  0  0
  -11.0552   -6.0054    0.0000 C   0  0  0  0  0  0  0  0  0  0  0  0
  -12.4255   -6.6156    0.0000 C   0  0  0  0  0  0  0  0  0  0  0  0
  -12.5823   -8.1073    0.0000 C   0  0  0  0  0  0  0  0  0  0  0  0
  -13.9526   -8.7174    0.0000 C   0  0  0  0  0  0  0  0  0  0  0  0
  -15.3229   -9.3275    0.0000 F   0  0  0  0  0  0  0  0  0  0  0  0
  -14.5627   -7.3471    0.0000 F   0  0  0  0  0  0  0  0  0  0  0  0
  -13.3425  -10.0878    0.0000 F   0  0  0  0  0  0  0  0  0  0  0  0
  -11.3688   -8.9890    0.0000 C   0  0  0  0  0  0  0  0  0  0  0  0
   -9.9984   -8.3789    0.0000 C   0  0  0  0  0  0  0  0  0  0  0  0
  2  1  1  1
  2  3  1  0
  3  4  1  0
  4  5  1  0
  5  6  2  0
  6  7  1  0
  7  8  1  0
  8  9  2  0
  9 10  1  0
 10 11  2  0
 11 12  1  0
 12 13  2  0
 13 14  1  0
 14 15  2  0
 15 16  1  0
 16 17  2  0
  7 18  2  0
 18 19  1  0
  2 20  1  0
 20 21  1  0
 21 22  2  0
 22 23  1  0
 23 24  2  0
 24 25  1  0
 25 26  1  0
 25 27  1  0
 25 28  1  0
 24 29  1  0
 29 30  2  0
 19  5  1  0
 30 21  1  0
 17  8  1  0
 16 11  1  0
M  END
>  <Compound_ID>  (250) 
CHEMBL1081104

>  <Active>  (250) 
1.0

>  <Smiles>  (250) 
N[C@H](CNc1cc(-c2ccc3cnccc3c2)no1)Cc1ccc(C(F)(F)F)cc1

>  <canonical_smi>  (250) 
N[C@H](CNc1cc(-c2ccc3cnccc3c2)no1)Cc1ccc(C(F)(F)F)cc1

>  <Set>  (250) 
G2 active

>  <Set_type>  (250) 
Train

>  <MW>  (250) 
412.42

>  <HBD>  (250) 
2

>  <HBA>  (250) 
5

>  <NRB>  (250) 
6

>  <NR>  (250) 
4

>  <NAR>  (250) 
4

>  <PSA>  (250) 
76.97

>  <Standard Type>  (250) 
nan

>  <Standard Relation>  (250) 
nan

>  <Standard Units>  (250) 
nan

>  <Standard Value>  (250) 
nan

>  <Assay ChEMBL ID>  (250) 
nan

>  <Assay Description>  (250) 
nan

>  <BAO Label>  (250) 
nan

$$$$

     RDKit          2D

 32 36  0  0  0  0  0  0  0  0999 V2000
   -8.5234   -7.7536    0.0000 C   0  0  0  0  0  0  0  0  0  0  0  0
   -7.0317   -7.5968    0.0000 O   0  0  0  0  0  0  0  0  0  0  0  0
   -6.4216   -6.2265    0.0000 C   0  0  0  0  0  0  0  0  0  0  0  0
   -7.3032   -5.0129    0.0000 C   0  0  0  0  0  0  0  0  0  0  0  0
   -6.6931   -3.6426    0.0000 C   0  0  0  0  0  0  0  0  0  0  0  0
   -5.2013   -3.4858    0.0000 C   0  0  0  0  0  0  0  0  0  0  0  0
   -4.5912   -2.1155    0.0000 C   0  0  0  0  0  0  0  0  0  0  0  0
   -5.3412   -0.8165    0.0000 N   0  0  0  0  0  0  0  0  0  0  0  0
   -4.3375    0.2982    0.0000 N   0  0  0  0  0  0  0  0  0  0  0  0
   -2.9672   -0.3119    0.0000 C   0  0  0  0  0  0  0  0  0  0  0  0
   -3.1240   -1.8037    0.0000 C   0  0  0  0  0  0  0  0  0  0  0  0
   -1.7537   -2.4138    0.0000 C   0  0  0  0  0  0  0  0  0  0  0  0
   -1.4418   -3.8810    0.0000 O   0  0  0  0  0  0  0  0  0  0  0  0
   -0.7500   -1.2990    0.0000 C   0  0  0  0  0  0  0  0  0  0  0  0
    0.7500   -1.2990    0.0000 C   0  0  0  0  0  0  0  0  0  0  0  0
    1.5000   -2.5981    0.0000 N   0  0  0  0  0  0  0  0  0  0  0  0
    3.0000   -2.5981    0.0000 C   0  0  0  0  0  0  0  0  0  0  0  0
    3.7500   -1.2990    0.0000 O   0  0  0  0  0  0  0  0  0  0  0  0
    3.7500   -3.8971    0.0000 N   0  0  0  0  0  0  0  0  0  0  0  0
    5.2500   -3.8971    0.0000 C   0  0  0  0  0  0  0  0  0  0  0  0
    6.0000   -5.1962    0.0000 C   0  0  0  0  0  0  0  0  0  0  0  0
    5.2500   -6.4952    0.0000 C   0  0  0  0  0  0  0  0  0  0  0  0
    6.0000   -7.7942    0.0000 C   0  0  0  0  0  0  0  0  0  0  0  0
    7.5000   -7.7942    0.0000 C   0  0  0  0  0  0  0  0  0  0  0  0
    8.2500   -6.4952    0.0000 C   0  0  0  0  0  0  0  0  0  0  0  0
    7.5000   -5.1962    0.0000 C   0  0  0  0  0  0  0  0  0  0  0  0
    1.5000    0.0000    0.0000 C   0  0  0  0  0  0  0  0  0  0  0  0
    0.7500    1.2990    0.0000 C   0  0  0  0  0  0  0  0  0  0  0  0
   -0.7500    1.2990    0.0000 C   0  0  0  0  0  0  0  0  0  0  0  0
   -1.5000    0.0000    0.0000 C   0  0  0  0  0  0  0  0  0  0  0  0
   -4.3197   -4.6994    0.0000 C   0  0  0  0  0  0  0  0  0  0  0  0
   -4.9298   -6.0697    0.0000 C   0  0  0  0  0  0  0  0  0  0  0  0
  1  2  1  0
  2  3  1  0
  3  4  2  0
  4  5  1  0
  5  6  2  0
  6  7  1  0
  7  8  1  0
  8  9  1  0
  9 10  2  0
 10 11  1  0
 11 12  1  0
 12 13  2  0
 12 14  1  0
 14 15  2  0
 15 16  1  0
 16 17  1  0
 17 18  2  0
 17 19  1  0
 19 20  1  0
 20 21  1  0
 21 22  2  0
 22 23  1  0
 23 24  2  0
 24 25  1  0
 25 26  2  0
 15 27  1  0
 27 28  2  0
 28 29  1  0
 29 30  2  0
  6 31  1  0
 31 32  2  0
 32  3  1  0
 11  7  2  0
 30 14  1  0
 30 10  1  0
 26 21  1  0
M  END
>  <Compound_ID>  (251) 
CHEMBL358281

>  <Active>  (251) 
1.0

>  <Smiles>  (251) 
COc1ccc(-c2[nH]nc3c2C(=O)c2c(NC(=O)NCc4ccccc4)cccc2-3)cc1

>  <canonical_smi>  (251) 
COc1ccc(-c2[nH]nc3c2C(=O)c2c(NC(=O)NCc4ccccc4)cccc2-3)cc1

>  <Set>  (251) 
G2 active

>  <Set_type>  (251) 
Train

>  <MW>  (251) 
424.46

>  <HBD>  (251) 
3

>  <HBA>  (251) 
4

>  <NRB>  (251) 
5

>  <NR>  (251) 
5

>  <NAR>  (251) 
5

>  <PSA>  (251) 
96.11

>  <Standard Type>  (251) 
nan

>  <Standard Relation>  (251) 
nan

>  <Standard Units>  (251) 
nan

>  <Standard Value>  (251) 
nan

>  <Assay ChEMBL ID>  (251) 
nan

>  <Assay Description>  (251) 
nan

>  <BAO Label>  (251) 
nan

$$$$

     RDKit          2D

 26 29  0  0  0  0  0  0  0  0999 V2000
   -0.7500   -3.8971    0.0000 O   0  0  0  0  0  0  0  0  0  0  0  0
    0.7500   -3.8971    0.0000 C   0  0  0  0  0  0  0  0  0  0  0  0
    1.5000   -2.5981    0.0000 C   0  0  0  0  0  0  0  0  0  0  0  0
    0.7500   -1.2990    0.0000 C   0  0  0  0  0  0  0  0  0  0  0  0
    1.5000    0.0000    0.0000 C   0  0  0  0  0  0  0  0  0  0  0  0
    0.7500    1.2990    0.0000 C   0  0  0  0  0  0  0  0  0  0  0  0
   -0.7500    1.2990    0.0000 C   0  0  0  0  0  0  0  0  0  0  0  0
   -1.5000    2.5981    0.0000 O   0  0  0  0  0  0  0  0  0  0  0  0
   -0.7500    3.8971    0.0000 C   0  0  0  0  0  0  0  0  0  0  0  0
   -1.5000    5.1962    0.0000 C   0  0  0  0  0  0  0  0  0  0  0  0
   -0.7500    6.4952    0.0000 N   0  0  0  0  0  0  0  0  0  0  0  0
   -1.3601    7.8655    0.0000 C   0  0  0  0  0  0  0  0  0  0  0  0
   -0.2454    8.8692    0.0000 C   0  0  0  0  0  0  0  0  0  0  0  0
    1.0537    8.1192    0.0000 C   0  0  0  0  0  0  0  0  0  0  0  0
    0.7418    6.6520    0.0000 C   0  0  0  0  0  0  0  0  0  0  0  0
   -1.5000    0.0000    0.0000 C   0  0  0  0  0  0  0  0  0  0  0  0
   -0.7500   -1.2990    0.0000 C   0  0  0  0  0  0  0  0  0  0  0  0
    1.5000   -5.1962    0.0000 N   0  0  0  0  0  0  0  0  0  0  0  0
    0.7500   -6.4952    0.0000 C   0  0  0  0  0  0  0  0  0  0  0  0
    1.3601   -7.8655    0.0000 C   0  0  0  0  0  0  0  0  0  0  0  0
    0.2454   -8.8692    0.0000 C   0  0  0  0  0  0  0  0  0  0  0  0
    0.4022  -10.3610    0.0000 C   0  0  0  0  0  0  0  0  0  0  0  0
    1.2839  -11.5745    0.0000 C   0  0  0  0  0  0  0  0  0  0  0  0
   -0.2079  -11.7313    0.0000 C   0  0  0  0  0  0  0  0  0  0  0  0
   -1.0537   -8.1192    0.0000 N   0  0  0  0  0  0  0  0  0  0  0  0
   -0.7418   -6.6520    0.0000 N   0  0  0  0  0  0  0  0  0  0  0  0
  1  2  2  0
  2  3  1  0
  3  4  1  0
  4  5  2  0
  5  6  1  0
  6  7  2  0
  7  8  1  0
  8  9  1  0
  9 10  1  0
 10 11  1  0
 11 12  1  0
 12 13  1  0
 13 14  1  0
 14 15  1  0
  7 16  1  0
 16 17  2  0
  2 18  1  0
 18 19  1  0
 19 20  1  0
 20 21  2  0
 21 22  1  0
 22 23  1  0
 23 24  1  0
 21 25  1  0
 25 26  1  0
 17  4  1  0
 26 19  2  0
 15 11  1  0
 24 22  1  0
M  END
>  <Compound_ID>  (252) 
CHEMBL323821

>  <Active>  (252) 
1.0

>  <Smiles>  (252) 
O=C(Cc1ccc(OCCN2CCCC2)cc1)Nc1cc(C2CC2)[nH]n1

>  <canonical_smi>  (252) 
O=C(Cc1ccc(OCCN2CCCC2)cc1)Nc1cc(C2CC2)[nH]n1

>  <Set>  (252) 
G2 active

>  <Set_type>  (252) 
Train

>  <MW>  (252) 
354.45

>  <HBD>  (252) 
2

>  <HBA>  (252) 
4

>  <NRB>  (252) 
8

>  <NR>  (252) 
4

>  <NAR>  (252) 
2

>  <PSA>  (252) 
70.25

>  <Standard Type>  (252) 
nan

>  <Standard Relation>  (252) 
nan

>  <Standard Units>  (252) 
nan

>  <Standard Value>  (252) 
nan

>  <Assay ChEMBL ID>  (252) 
nan

>  <Assay Description>  (252) 
nan

>  <BAO Label>  (252) 
nan

$$$$

     RDKit          2D

 24 26  0  0  0  0  0  0  0  0999 V2000
    3.7500   -1.2990    0.0000 C   0  0  0  0  0  0  0  0  0  0  0  0
    3.0000    0.0000    0.0000 O   0  0  0  0  0  0  0  0  0  0  0  0
    1.5000    0.0000    0.0000 C   0  0  0  0  0  0  0  0  0  0  0  0
    0.7500   -1.2990    0.0000 C   0  0  0  0  0  0  0  0  0  0  0  0
   -0.7500   -1.2990    0.0000 C   0  0  0  0  0  0  0  0  0  0  0  0
   -1.5000    0.0000    0.0000 C   0  0  0  0  0  0  0  0  0  0  0  0
   -3.0000    0.0000    0.0000 C   0  0  0  0  0  0  0  0  0  0  0  0
   -3.8817   -1.2135    0.0000 N   0  0  0  0  0  0  0  0  0  0  0  0
   -5.3083   -0.7500    0.0000 N   0  0  0  0  0  0  0  0  0  0  0  0
   -5.3083    0.7500    0.0000 C   0  0  0  0  0  0  0  0  0  0  0  0
   -6.5218    1.6317    0.0000 O   0  0  0  0  0  0  0  0  0  0  0  0
   -3.8817    1.2135    0.0000 C   0  0  0  0  0  0  0  0  0  0  0  0
   -3.4182    2.6401    0.0000 N   0  0  0  0  0  0  0  0  0  0  0  0
   -4.4218    3.7548    0.0000 N   0  0  0  0  0  0  0  0  0  0  0  0
   -3.9583    5.1814    0.0000 C   0  0  0  0  0  0  0  0  0  0  0  0
   -2.4911    5.4933    0.0000 C   0  0  0  0  0  0  0  0  0  0  0  0
   -2.0276    6.9199    0.0000 C   0  0  0  0  0  0  0  0  0  0  0  0
   -3.0313    8.0346    0.0000 C   0  0  0  0  0  0  0  0  0  0  0  0
   -4.4985    7.7227    0.0000 C   0  0  0  0  0  0  0  0  0  0  0  0
   -5.5022    8.8374    0.0000 O   0  0  0  0  0  0  0  0  0  0  0  0
   -5.0387   10.2640    0.0000 C   0  0  0  0  0  0  0  0  0  0  0  0
   -4.9620    6.2961    0.0000 C   0  0  0  0  0  0  0  0  0  0  0  0
   -0.7500    1.2990    0.0000 C   0  0  0  0  0  0  0  0  0  0  0  0
    0.7500    1.2990    0.0000 C   0  0  0  0  0  0  0  0  0  0  0  0
  1  2  1  0
  2  3  1  0
  3  4  2  0
  4  5  1  0
  5  6  2  0
  6  7  1  0
  7  8  2  0
  8  9  1  0
  9 10  1  0
 10 11  2  0
 10 12  1  0
 12 13  2  0
 13 14  1  0
 14 15  1  0
 15 16  2  0
 16 17  1  0
 17 18  2  0
 18 19  1  0
 19 20  1  0
 20 21  1  0
 19 22  2  0
  6 23  1  0
 23 24  2  0
 24  3  1  0
 12  7  1  0
 22 15  1  0
M  END
>  <Compound_ID>  (253) 
CHEMBL1080902

>  <Active>  (253) 
1.0

>  <Smiles>  (253) 
COc1ccc(C2=NNC(=O)/C2=N\Nc2cccc(OC)c2)cc1

>  <canonical_smi>  (253) 
COc1ccc(C2=NNC(=O)/C2=N\Nc2cccc(OC)c2)cc1

>  <Set>  (253) 
G2 active

>  <Set_type>  (253) 
Train

>  <MW>  (253) 
324.34

>  <HBD>  (253) 
2

>  <HBA>  (253) 
4

>  <NRB>  (253) 
5

>  <NR>  (253) 
3

>  <NAR>  (253) 
2

>  <PSA>  (253) 
84.31

>  <Standard Type>  (253) 
nan

>  <Standard Relation>  (253) 
nan

>  <Standard Units>  (253) 
nan

>  <Standard Value>  (253) 
nan

>  <Assay ChEMBL ID>  (253) 
nan

>  <Assay Description>  (253) 
nan

>  <BAO Label>  (253) 
nan

$$$$

     RDKit          2D

 23 26  0  0  0  0  0  0  0  0999 V2000
   -3.0000   -5.1962    0.0000 O   0  0  0  0  0  0  0  0  0  0  0  0
   -3.7500   -3.8971    0.0000 C   0  0  0  0  0  0  0  0  0  0  0  0
   -5.2500   -3.8971    0.0000 N   0  0  0  0  0  0  0  0  0  0  0  0
   -6.0000   -5.1962    0.0000 C   0  0  0  0  0  0  0  0  0  0  0  0
   -5.3899   -6.5665    0.0000 N   0  0  0  0  0  0  0  0  0  0  0  0
   -6.5046   -7.5702    0.0000 C   0  0  0  0  0  0  0  0  0  0  0  0
   -7.8037   -6.8202    0.0000 C   0  0  0  0  0  0  0  0  0  0  0  0
   -9.1740   -7.4303    0.0000 C   0  0  0  0  0  0  0  0  0  0  0  0
  -10.5743   -6.8927    0.0000 C   0  0  0  0  0  0  0  0  0  0  0  0
  -11.1119   -8.2931    0.0000 C   0  0  0  0  0  0  0  0  0  0  0  0
   -9.7115   -8.8306    0.0000 C   0  0  0  0  0  0  0  0  0  0  0  0
   -7.4918   -5.3529    0.0000 S   0  0  0  0  0  0  0  0  0  0  0  0
   -3.0000   -2.5981    0.0000 N   0  0  0  0  0  0  0  0  0  0  0  0
   -1.5000   -2.5981    0.0000 C   0  0  0  0  0  0  0  0  0  0  0  0
   -0.7500   -3.8971    0.0000 C   0  0  0  0  0  0  0  0  0  0  0  0
    0.7500   -3.8971    0.0000 C   0  0  0  0  0  0  0  0  0  0  0  0
    1.5000   -2.5981    0.0000 C   0  0  0  0  0  0  0  0  0  0  0  0
    0.7500   -1.2990    0.0000 C   0  0  0  0  0  0  0  0  0  0  0  0
    1.5000    0.0000    0.0000 C   0  0  0  0  0  0  0  0  0  0  0  0
    0.7500    1.2990    0.0000 N   0  0  0  0  0  0  0  0  0  0  0  0
   -0.7500    1.2990    0.0000 C   0  0  0  0  0  0  0  0  0  0  0  0
   -1.5000    0.0000    0.0000 C   0  0  0  0  0  0  0  0  0  0  0  0
   -0.7500   -1.2990    0.0000 C   0  0  0  0  0  0  0  0  0  0  0  0
  1  2  2  0
  2  3  1  0
  3  4  1  0
  4  5  2  0
  5  6  1  0
  6  7  2  0
  7  8  1  0
  8  9  1  0
  9 10  1  0
 10 11  1  0
  7 12  1  0
  2 13  1  0
 13 14  1  0
 14 15  2  0
 15 16  1  0
 16 17  2  0
 17 18  1  0
 18 19  2  0
 19 20  1  0
 20 21  2  0
 21 22  1  0
 22 23  2  0
 12  4  1  0
 23 14  1  0
 11  8  1  0
 23 18  1  0
M  END
>  <Compound_ID>  (254) 
CHEMBL364213

>  <Active>  (254) 
1.0

>  <Smiles>  (254) 
O=C(Nc1ncc(C2CCC2)s1)Nc1cccc2cnccc12

>  <canonical_smi>  (254) 
O=C(Nc1ncc(C2CCC2)s1)Nc1cccc2cnccc12

>  <Set>  (254) 
G2 active

>  <Set_type>  (254) 
Train

>  <MW>  (254) 
324.41

>  <HBD>  (254) 
2

>  <HBA>  (254) 
3

>  <NRB>  (254) 
3

>  <NR>  (254) 
4

>  <NAR>  (254) 
3

>  <PSA>  (254) 
66.91

>  <Standard Type>  (254) 
nan

>  <Standard Relation>  (254) 
nan

>  <Standard Units>  (254) 
nan

>  <Standard Value>  (254) 
nan

>  <Assay ChEMBL ID>  (254) 
nan

>  <Assay Description>  (254) 
nan

>  <BAO Label>  (254) 
nan

$$$$

     RDKit          2D

 18 19  0  0  0  0  0  0  0  0999 V2000
   -3.6375   -7.8476    0.0000 C   0  0  0  0  0  0  0  0  0  0  0  0
   -2.4240   -8.7293    0.0000 C   0  0  0  0  0  0  0  0  0  0  0  0
   -2.5808  -10.2211    0.0000 C   0  0  0  0  0  0  0  0  0  0  0  0
   -1.0537   -8.1192    0.0000 C   0  0  0  0  0  0  0  0  0  0  0  0
    0.2454   -8.8692    0.0000 C   0  0  0  0  0  0  0  0  0  0  0  0
    1.3601   -7.8655    0.0000 N   0  0  0  0  0  0  0  0  0  0  0  0
    0.7500   -6.4952    0.0000 C   0  0  0  0  0  0  0  0  0  0  0  0
    1.5000   -5.1962    0.0000 N   0  0  0  0  0  0  0  0  0  0  0  0
    0.7500   -3.8971    0.0000 C   0  0  0  0  0  0  0  0  0  0  0  0
   -0.7500   -3.8971    0.0000 O   0  0  0  0  0  0  0  0  0  0  0  0
    1.5000   -2.5981    0.0000 C   0  0  0  0  0  0  0  0  0  0  0  0
    0.7500   -1.2990    0.0000 C   0  0  0  0  0  0  0  0  0  0  0  0
    1.5000    0.0000    0.0000 C   0  0  0  0  0  0  0  0  0  0  0  0
    0.7500    1.2990    0.0000 C   0  0  0  0  0  0  0  0  0  0  0  0
   -0.7500    1.2990    0.0000 C   0  0  0  0  0  0  0  0  0  0  0  0
   -1.5000    0.0000    0.0000 C   0  0  0  0  0  0  0  0  0  0  0  0
   -0.7500   -1.2990    0.0000 C   0  0  0  0  0  0  0  0  0  0  0  0
   -0.7418   -6.6520    0.0000 S   0  0  0  0  0  0  0  0  0  0  0  0
  1  2  1  0
  2  3  1  0
  2  4  1  0
  4  5  2  0
  5  6  1  0
  6  7  2  0
  7  8  1  0
  8  9  1  0
  9 10  2  0
  9 11  1  0
 11 12  1  0
 12 13  2  0
 13 14  1  0
 14 15  2  0
 15 16  1  0
 16 17  2  0
  7 18  1  0
 18  4  1  0
 17 12  1  0
M  END
>  <Compound_ID>  (255) 
CHEMBL426972

>  <Active>  (255) 
1.0

>  <Smiles>  (255) 
CC(C)c1cnc(NC(=O)Cc2ccccc2)s1

>  <canonical_smi>  (255) 
CC(C)c1cnc(NC(=O)Cc2ccccc2)s1

>  <Set>  (255) 
G2 active

>  <Set_type>  (255) 
Train

>  <MW>  (255) 
260.36

>  <HBD>  (255) 
1

>  <HBA>  (255) 
2

>  <NRB>  (255) 
4

>  <NR>  (255) 
2

>  <NAR>  (255) 
2

>  <PSA>  (255) 
41.99

>  <Standard Type>  (255) 
nan

>  <Standard Relation>  (255) 
nan

>  <Standard Units>  (255) 
nan

>  <Standard Value>  (255) 
nan

>  <Assay ChEMBL ID>  (255) 
nan

>  <Assay Description>  (255) 
nan

>  <BAO Label>  (255) 
nan

$$$$

     RDKit          2D

 22 25  0  0  0  0  0  0  0  0999 V2000
   -1.8373   -5.6601    0.0000 O   0  0  0  0  0  0  0  0  0  0  0  0
   -2.9520   -4.6564    0.0000 C   0  0  0  0  0  0  0  0  0  0  0  0
   -2.6401   -3.1891    0.0000 C   0  0  0  0  0  0  0  0  0  0  0  0
   -1.2135   -2.7256    0.0000 N   0  0  0  0  0  0  0  0  0  0  0  0
   -0.0000   -3.6073    0.0000 C   0  0  0  0  0  0  0  0  0  0  0  0
    1.2135   -2.7256    0.0000 C   0  0  0  0  0  0  0  0  0  0  0  0
    0.7500   -1.2990    0.0000 C   0  0  0  0  0  0  0  0  0  0  0  0
    1.5000    0.0000    0.0000 C   0  0  0  0  0  0  0  0  0  0  0  0
    0.7500    1.2990    0.0000 C   0  0  0  0  0  0  0  0  0  0  0  0
   -0.7500    1.2990    0.0000 C   0  0  0  0  0  0  0  0  0  0  0  0
   -1.5000    0.0000    0.0000 C   0  0  0  0  0  0  0  0  0  0  0  0
   -0.7500   -1.2990    0.0000 C   0  0  0  0  0  0  0  0  0  0  0  0
   -4.3786   -5.1199    0.0000 N   0  0  0  0  0  0  0  0  0  0  0  0
   -4.6904   -6.5871    0.0000 C   0  0  0  0  0  0  0  0  0  0  0  0
   -3.6867   -7.7018    0.0000 N   0  0  0  0  0  0  0  0  0  0  0  0
   -4.4367   -9.0009    0.0000 C   0  0  0  0  0  0  0  0  0  0  0  0
   -5.9040   -8.6890    0.0000 C   0  0  0  0  0  0  0  0  0  0  0  0
   -7.0187   -9.6927    0.0000 C   0  0  0  0  0  0  0  0  0  0  0  0
   -8.5166   -9.6142    0.0000 C   0  0  0  0  0  0  0  0  0  0  0  0
   -8.5951  -11.1121    0.0000 C   0  0  0  0  0  0  0  0  0  0  0  0
   -7.0972  -11.1906    0.0000 C   0  0  0  0  0  0  0  0  0  0  0  0
   -6.0607   -7.1972    0.0000 S   0  0  0  0  0  0  0  0  0  0  0  0
  1  2  2  0
  2  3  1  0
  3  4  1  0
  4  5  1  0
  5  6  2  0
  6  7  1  0
  7  8  2  0
  8  9  1  0
  9 10  2  0
 10 11  1  0
 11 12  2  0
  2 13  1  0
 13 14  1  0
 14 15  2  0
 15 16  1  0
 16 17  2  0
 17 18  1  0
 18 19  1  0
 19 20  1  0
 20 21  1  0
 17 22  1  0
 12  4  1  0
 22 14  1  0
 12  7  1  0
 21 18  1  0
M  END
>  <Compound_ID>  (256) 
CHEMBL364338

>  <Active>  (256) 
1.0

>  <Smiles>  (256) 
O=C(Cn1ccc2ccccc21)Nc1ncc(C2CCC2)s1

>  <canonical_smi>  (256) 
O=C(Cn1ccc2ccccc21)Nc1ncc(C2CCC2)s1

>  <Set>  (256) 
G2 active

>  <Set_type>  (256) 
Train

>  <MW>  (256) 
311.41

>  <HBD>  (256) 
1

>  <HBA>  (256) 
2

>  <NRB>  (256) 
4

>  <NR>  (256) 
4

>  <NAR>  (256) 
3

>  <PSA>  (256) 
46.92

>  <Standard Type>  (256) 
nan

>  <Standard Relation>  (256) 
nan

>  <Standard Units>  (256) 
nan

>  <Standard Value>  (256) 
nan

>  <Assay ChEMBL ID>  (256) 
nan

>  <Assay Description>  (256) 
nan

>  <BAO Label>  (256) 
nan

$$$$

     RDKit          2D

 21 23  0  0  0  0  0  0  0  0999 V2000
    3.0000    0.0000    0.0000 C   0  0  0  0  0  0  0  0  0  0  0  0
    1.5000    0.0000    0.0000 C   0  0  0  0  0  0  0  0  0  0  0  0
    0.7500   -1.2990    0.0000 C   0  0  0  0  0  0  0  0  0  0  0  0
   -0.7500   -1.2990    0.0000 C   0  0  0  0  0  0  0  0  0  0  0  0
   -1.5000   -2.5981    0.0000 C   0  0  0  0  0  0  0  0  0  0  0  0
   -1.5000    0.0000    0.0000 C   0  0  0  0  0  0  0  0  0  0  0  0
   -0.7500    1.2990    0.0000 C   0  0  0  0  0  0  0  0  0  0  0  0
   -1.5000    2.5981    0.0000 N   0  0  0  0  0  0  0  0  0  0  0  0
   -0.7500    3.8971    0.0000 C   0  0  0  0  0  0  0  0  0  0  0  0
    0.7500    3.8971    0.0000 N   0  0  0  0  0  0  0  0  0  0  0  0
    1.5000    5.1962    0.0000 C   0  0  0  0  0  0  0  0  0  0  0  0
    0.7500    6.4952    0.0000 C   0  0  0  0  0  0  0  0  0  0  0  0
   -0.7500    6.4952    0.0000 C   0  0  0  0  0  0  0  0  0  0  0  0
   -1.5000    7.7942    0.0000 C   0  0  0  0  0  0  0  0  0  0  0  0
   -2.9918    7.9510    0.0000 N   0  0  0  0  0  0  0  0  0  0  0  0
   -3.3037    9.4182    0.0000 C   0  0  0  0  0  0  0  0  0  0  0  0
   -4.6740   10.0283    0.0000 C   0  0  0  0  0  0  0  0  0  0  0  0
   -2.0046   10.1682    0.0000 C   0  0  0  0  0  0  0  0  0  0  0  0
   -0.8899    9.1645    0.0000 S   0  0  0  0  0  0  0  0  0  0  0  0
   -1.5000    5.1962    0.0000 N   0  0  0  0  0  0  0  0  0  0  0  0
    0.7500    1.2990    0.0000 C   0  0  0  0  0  0  0  0  0  0  0  0
  1  2  1  0
  2  3  2  0
  3  4  1  0
  4  5  1  0
  4  6  2  0
  6  7  1  0
  7  8  1  0
  8  9  1  0
  9 10  2  0
 10 11  1  0
 11 12  2  0
 12 13  1  0
 13 14  1  0
 14 15  2  0
 15 16  1  0
 16 17  1  0
 16 18  2  0
 18 19  1  0
 13 20  2  0
  7 21  2  0
 21  2  1  0
 20  9  1  0
 19 14  1  0
M  END
>  <Compound_ID>  (257) 
CHEMBL453217

>  <Active>  (257) 
1.0

>  <Smiles>  (257) 
Cc1cc(C)cc(Nc2nccc(-c3nc(C)cs3)n2)c1

>  <canonical_smi>  (257) 
Cc1cc(C)cc(Nc2nccc(-c3nc(C)cs3)n2)c1

>  <Set>  (257) 
G2 active

>  <Set_type>  (257) 
Train

>  <MW>  (257) 
296.4

>  <HBD>  (257) 
1

>  <HBA>  (257) 
4

>  <NRB>  (257) 
3

>  <NR>  (257) 
3

>  <NAR>  (257) 
3

>  <PSA>  (257) 
50.7

>  <Standard Type>  (257) 
nan

>  <Standard Relation>  (257) 
nan

>  <Standard Units>  (257) 
nan

>  <Standard Value>  (257) 
nan

>  <Assay ChEMBL ID>  (257) 
nan

>  <Assay Description>  (257) 
nan

>  <BAO Label>  (257) 
nan

$$$$

     RDKit          2D

 30 34  0  0  0  0  0  0  0  0999 V2000
    7.4261    1.1048    0.0000 C   0  0  0  0  0  0  0  0  0  0  0  0
    6.3114    0.1011    0.0000 N   0  0  0  0  0  0  0  0  0  0  0  0
    6.6232   -1.3661    0.0000 C   0  0  0  0  0  0  0  0  0  0  0  0
    5.5085   -2.3698    0.0000 C   0  0  0  0  0  0  0  0  0  0  0  0
    4.0819   -1.9062    0.0000 C   0  0  0  0  0  0  0  0  0  0  0  0
    2.9672   -2.9099    0.0000 N   0  0  0  0  0  0  0  0  0  0  0  0
    3.1240   -4.4017    0.0000 N   0  0  0  0  0  0  0  0  0  0  0  0
    1.7537   -5.0118    0.0000 C   0  0  0  0  0  0  0  0  0  0  0  0
    1.4418   -6.4791    0.0000 C   0  0  0  0  0  0  0  0  0  0  0  0
    2.5565   -7.4827    0.0000 N   0  0  0  0  0  0  0  0  0  0  0  0
    0.0152   -6.9426    0.0000 O   0  0  0  0  0  0  0  0  0  0  0  0
    0.7500   -3.8971    0.0000 C   0  0  0  0  0  0  0  0  0  0  0  0
    1.5000   -2.5981    0.0000 C   0  0  0  0  0  0  0  0  0  0  0  0
    0.7500   -1.2990    0.0000 C   0  0  0  0  0  0  0  0  0  0  0  0
    1.5000    0.0000    0.0000 N   0  0  0  0  0  0  0  0  0  0  0  0
    0.7500    1.2990    0.0000 C   0  0  0  0  0  0  0  0  0  0  0  0
    1.5000    2.5981    0.0000 N   0  0  0  0  0  0  0  0  0  0  0  0
    3.0000    2.5981    0.0000 C   0  0  0  0  0  0  0  0  0  0  0  0
    3.7500    1.2990    0.0000 C   0  0  0  0  0  0  0  0  0  0  0  0
    5.2500    1.2990    0.0000 C   0  0  0  0  0  0  0  0  0  0  0  0
    6.0000    2.5981    0.0000 C   0  0  0  0  0  0  0  0  0  0  0  0
    5.2500    3.8971    0.0000 C   0  0  0  0  0  0  0  0  0  0  0  0
    3.7500    3.8971    0.0000 C   0  0  0  0  0  0  0  0  0  0  0  0
   -0.7500    1.2990    0.0000 N   0  0  0  0  0  0  0  0  0  0  0  0
   -1.5000    0.0000    0.0000 C   0  0  0  0  0  0  0  0  0  0  0  0
   -0.7500   -1.2990    0.0000 C   0  0  0  0  0  0  0  0  0  0  0  0
   -1.5000   -2.5981    0.0000 C   0  0  0  0  0  0  0  0  0  0  0  0
   -0.7500   -3.8971    0.0000 C   0  0  0  0  0  0  0  0  0  0  0  0
    3.7701   -0.4390    0.0000 C   0  0  0  0  0  0  0  0  0  0  0  0
    4.8848    0.5647    0.0000 C   0  0  0  0  0  0  0  0  0  0  0  0
  1  2  1  0
  2  3  1  0
  3  4  1  0
  4  5  1  0
  5  6  1  0
  6  7  1  0
  7  8  2  0
  8  9  1  0
  9 10  1  0
  9 11  2  0
  8 12  1  0
 12 13  2  0
 13 14  1  0
 14 15  2  0
 15 16  1  0
 16 17  1  0
 17 18  1  0
 18 19  2  0
 19 20  1  0
 20 21  2  0
 21 22  1  0
 22 23  2  0
 16 24  2  0
 24 25  1  0
 25 26  2  0
 26 27  1  0
 27 28  1  0
  5 29  1  0
 29 30  1  0
 30  2  1  0
 13  6  1  0
 26 14  1  0
 28 12  1  0
 23 18  1  0
M  END
>  <Compound_ID>  (258) 
CHEMBL1098057

>  <Active>  (258) 
1.0

>  <Smiles>  (258) 
CN1CCC(n2nc(C(N)=O)c3c2-c2nc(Nc4ccccc4)ncc2CC3)CC1

>  <canonical_smi>  (258) 
CN1CCC(n2nc(C(N)=O)c3c2-c2nc(Nc4ccccc4)ncc2CC3)CC1

>  <Set>  (258) 
G2 active

>  <Set_type>  (258) 
Train

>  <MW>  (258) 
403.49

>  <HBD>  (258) 
2

>  <HBA>  (258) 
6

>  <NRB>  (258) 
4

>  <NR>  (258) 
5

>  <NAR>  (258) 
3

>  <PSA>  (258) 
101.96

>  <Standard Type>  (258) 
nan

>  <Standard Relation>  (258) 
nan

>  <Standard Units>  (258) 
nan

>  <Standard Value>  (258) 
nan

>  <Assay ChEMBL ID>  (258) 
nan

>  <Assay Description>  (258) 
nan

>  <BAO Label>  (258) 
nan

$$$$

     RDKit          2D

 22 25  0  0  0  0  0  0  0  0999 V2000
   -4.3764    3.7611    0.0000 O   0  0  0  0  0  0  0  0  0  0  0  0
   -4.6883    2.2939    0.0000 C   0  0  0  0  0  0  0  0  0  0  0  0
   -6.1149    1.8303    0.0000 N   0  0  0  0  0  0  0  0  0  0  0  0
   -7.2296    2.8340    0.0000 C   0  0  0  0  0  0  0  0  0  0  0  0
   -8.6968    2.5222    0.0000 N   0  0  0  0  0  0  0  0  0  0  0  0
   -9.4468    3.8212    0.0000 C   0  0  0  0  0  0  0  0  0  0  0  0
   -8.4431    4.9359    0.0000 C   0  0  0  0  0  0  0  0  0  0  0  0
   -8.7550    6.4031    0.0000 C   0  0  0  0  0  0  0  0  0  0  0  0
   -7.9380    7.6612    0.0000 C   0  0  0  0  0  0  0  0  0  0  0  0
   -9.1960    8.4781    0.0000 C   0  0  0  0  0  0  0  0  0  0  0  0
  -10.0130    7.2201    0.0000 C   0  0  0  0  0  0  0  0  0  0  0  0
   -7.0728    4.3258    0.0000 S   0  0  0  0  0  0  0  0  0  0  0  0
   -3.5736    1.2902    0.0000 N   0  0  0  0  0  0  0  0  0  0  0  0
   -2.1470    1.7537    0.0000 C   0  0  0  0  0  0  0  0  0  0  0  0
   -1.8351    3.2209    0.0000 C   0  0  0  0  0  0  0  0  0  0  0  0
   -0.4086    3.6844    0.0000 C   0  0  0  0  0  0  0  0  0  0  0  0
    0.7062    2.6807    0.0000 C   0  0  0  0  0  0  0  0  0  0  0  0
    0.3943    1.2135    0.0000 C   0  0  0  0  0  0  0  0  0  0  0  0
    1.2760    0.0000    0.0000 N   0  0  0  0  0  0  0  0  0  0  0  0
    0.3943   -1.2135    0.0000 N   0  0  0  0  0  0  0  0  0  0  0  0
   -1.0323   -0.7500    0.0000 N   0  0  0  0  0  0  0  0  0  0  0  0
   -1.0323    0.7500    0.0000 C   0  0  0  0  0  0  0  0  0  0  0  0
  1  2  2  0
  2  3  1  0
  3  4  1  0
  4  5  2  0
  5  6  1  0
  6  7  2  0
  7  8  1  0
  8  9  1  0
  9 10  1  0
 10 11  1  0
  7 12  1  0
  2 13  1  0
 13 14  1  0
 14 15  2  0
 15 16  1  0
 16 17  2  0
 17 18  1  0
 18 19  1  0
 19 20  1  0
 20 21  2  0
 21 22  1  0
 12  4  1  0
 22 14  1  0
 11  8  1  0
 22 18  2  0
M  END
>  <Compound_ID>  (259) 
CHEMBL186371

>  <Active>  (259) 
1.0

>  <Smiles>  (259) 
O=C(Nc1ncc(C2CCC2)s1)Nc1cccc2[nH]nnc12

>  <canonical_smi>  (259) 
O=C(Nc1ncc(C2CCC2)s1)Nc1cccc2[nH]nnc12

>  <Set>  (259) 
G2 active

>  <Set_type>  (259) 
Train

>  <MW>  (259) 
314.37

>  <HBD>  (259) 
3

>  <HBA>  (259) 
4

>  <NRB>  (259) 
3

>  <NR>  (259) 
4

>  <NAR>  (259) 
3

>  <PSA>  (259) 
95.59

>  <Standard Type>  (259) 
nan

>  <Standard Relation>  (259) 
nan

>  <Standard Units>  (259) 
nan

>  <Standard Value>  (259) 
nan

>  <Assay ChEMBL ID>  (259) 
nan

>  <Assay Description>  (259) 
nan

>  <BAO Label>  (259) 
nan

$$$$

     RDKit          2D

 18 20  0  0  0  0  0  0  0  0999 V2000
    3.7500   -1.2990    0.0000 C   0  0  0  0  0  0  0  0  0  0  0  0
    3.0000    0.0000    0.0000 O   0  0  0  0  0  0  0  0  0  0  0  0
    1.5000    0.0000    0.0000 C   0  0  0  0  0  0  0  0  0  0  0  0
    0.7500   -1.2990    0.0000 C   0  0  0  0  0  0  0  0  0  0  0  0
   -0.7500   -1.2990    0.0000 C   0  0  0  0  0  0  0  0  0  0  0  0
   -1.5000    0.0000    0.0000 C   0  0  0  0  0  0  0  0  0  0  0  0
   -0.7500    1.2990    0.0000 C   0  0  0  0  0  0  0  0  0  0  0  0
    0.7500    1.2990    0.0000 C   0  0  0  0  0  0  0  0  0  0  0  0
   -1.7537    2.4138    0.0000 C   0  0  0  0  0  0  0  0  0  0  0  0
   -1.4418    3.8810    0.0000 C   0  0  0  0  0  0  0  0  0  0  0  0
   -2.5565    4.8847    0.0000 C   0  0  0  0  0  0  0  0  0  0  0  0
   -4.0238    4.5728    0.0000 C   0  0  0  0  0  0  0  0  0  0  0  0
   -4.7738    5.8718    0.0000 N   0  0  0  0  0  0  0  0  0  0  0  0
   -3.7701    6.9866    0.0000 C   0  0  0  0  0  0  0  0  0  0  0  0
   -2.3998    6.3765    0.0000 N   0  0  0  0  0  0  0  0  0  0  0  0
   -3.1240    1.8037    0.0000 C   0  0  0  0  0  0  0  0  0  0  0  0
   -4.4231    2.5537    0.0000 O   0  0  0  0  0  0  0  0  0  0  0  0
   -2.9672    0.3119    0.0000 N   0  0  0  0  0  0  0  0  0  0  0  0
  1  2  1  0
  2  3  1  0
  3  4  2  0
  4  5  1  0
  5  6  2  0
  6  7  1  0
  7  8  2  0
  7  9  1  0
  9 10  2  0
 10 11  1  0
 11 12  2  0
 12 13  1  0
 13 14  2  0
 14 15  1  0
  9 16  1  0
 16 17  2  0
 16 18  1  0
  8  3  1  0
 15 11  1  0
 18  6  1  0
M  END
>  <Compound_ID>  (260) 
CHEMBL258805

>  <Active>  (260) 
1.0

>  <Smiles>  (260) 
COc1ccc2c(c1)/C(=C/c1cnc[nH]1)C(=O)N2

>  <canonical_smi>  (260) 
COc1ccc2c(c1)/C(=C/c1cnc[nH]1)C(=O)N2

>  <Set>  (260) 
G2 active

>  <Set_type>  (260) 
Train

>  <MW>  (260) 
241.25

>  <HBD>  (260) 
2

>  <HBA>  (260) 
3

>  <NRB>  (260) 
2

>  <NR>  (260) 
3

>  <NAR>  (260) 
2

>  <PSA>  (260) 
67.01

>  <Standard Type>  (260) 
nan

>  <Standard Relation>  (260) 
nan

>  <Standard Units>  (260) 
nan

>  <Standard Value>  (260) 
nan

>  <Assay ChEMBL ID>  (260) 
nan

>  <Assay Description>  (260) 
nan

>  <BAO Label>  (260) 
nan

$$$$

     RDKit          2D

 24 27  0  0  0  0  0  0  0  0999 V2000
    4.6740   -7.4303    0.0000 C   0  0  0  0  0  0  0  0  0  0  0  0
    3.3037   -6.8202    0.0000 C   0  0  0  0  0  0  0  0  0  0  0  0
    2.9918   -5.3529    0.0000 C   0  0  0  0  0  0  0  0  0  0  0  0
    1.5000   -5.1962    0.0000 C   0  0  0  0  0  0  0  0  0  0  0  0
    0.7500   -3.8971    0.0000 C   0  0  0  0  0  0  0  0  0  0  0  0
    1.5000   -2.5981    0.0000 N   0  0  0  0  0  0  0  0  0  0  0  0
    0.7500   -1.2990    0.0000 C   0  0  0  0  0  0  0  0  0  0  0  0
    1.5000    0.0000    0.0000 N   0  0  0  0  0  0  0  0  0  0  0  0
    0.7500    1.2990    0.0000 C   0  0  0  0  0  0  0  0  0  0  0  0
   -0.7500    1.2990    0.0000 C   0  0  0  0  0  0  0  0  0  0  0  0
   -1.5000    2.5981    0.0000 Br  0  0  0  0  0  0  0  0  0  0  0  0
   -1.5000    0.0000    0.0000 C   0  0  0  0  0  0  0  0  0  0  0  0
   -3.0000    0.0000    0.0000 N   0  0  0  0  0  0  0  0  0  0  0  0
   -3.7500    1.2990    0.0000 C   0  0  0  0  0  0  0  0  0  0  0  0
   -5.2418    1.4558    0.0000 C   0  0  0  0  0  0  0  0  0  0  0  0
   -5.5537    2.9231    0.0000 C   0  0  0  0  0  0  0  0  0  0  0  0
   -6.9240    3.5332    0.0000 C   0  0  0  0  0  0  0  0  0  0  0  0
   -8.4158    3.3764    0.0000 C   0  0  0  0  0  0  0  0  0  0  0  0
   -7.8056    4.7467    0.0000 C   0  0  0  0  0  0  0  0  0  0  0  0
   -4.2546    3.6731    0.0000 N   0  0  0  0  0  0  0  0  0  0  0  0
   -3.1399    2.6694    0.0000 N   0  0  0  0  0  0  0  0  0  0  0  0
   -0.7500   -1.2990    0.0000 N   0  0  0  0  0  0  0  0  0  0  0  0
    0.8899   -6.5665    0.0000 O   0  0  0  0  0  0  0  0  0  0  0  0
    2.0046   -7.5702    0.0000 N   0  0  0  0  0  0  0  0  0  0  0  0
  1  2  1  0
  2  3  1  0
  3  4  2  0
  4  5  1  0
  5  6  1  0
  6  7  1  0
  7  8  2  0
  8  9  1  0
  9 10  2  0
 10 11  1  0
 10 12  1  0
 12 13  1  0
 13 14  1  0
 14 15  1  0
 15 16  2  0
 16 17  1  0
 17 18  1  0
 18 19  1  0
 16 20  1  0
 20 21  1  0
 12 22  2  0
  4 23  1  0
 23 24  1  0
 24  2  2  0
 22  7  1  0
 21 14  2  0
 19 17  1  0
M  END
>  <Compound_ID>  (261) 
CHEMBL497854

>  <Active>  (261) 
1.0

>  <Smiles>  (261) 
Cc1cc(CNc2ncc(Br)c(Nc3cc(C4CC4)[nH]n3)n2)on1

>  <canonical_smi>  (261) 
Cc1cc(CNc2ncc(Br)c(Nc3cc(C4CC4)[nH]n3)n2)on1

>  <Set>  (261) 
G2 active

>  <Set_type>  (261) 
Train

>  <MW>  (261) 
390.25

>  <HBD>  (261) 
3

>  <HBA>  (261) 
7

>  <NRB>  (261) 
6

>  <NR>  (261) 
4

>  <NAR>  (261) 
3

>  <PSA>  (261) 
104.55

>  <Standard Type>  (261) 
nan

>  <Standard Relation>  (261) 
nan

>  <Standard Units>  (261) 
nan

>  <Standard Value>  (261) 
nan

>  <Assay ChEMBL ID>  (261) 
nan

>  <Assay Description>  (261) 
nan

>  <BAO Label>  (261) 
nan

$$$$

     RDKit          2D

 30 33  0  0  0  0  0  0  0  0999 V2000
   -7.4146   -8.6505    0.0000 N   0  0  0  0  0  0  0  0  0  0  0  0
   -7.2578   -7.1587    0.0000 C   0  0  0  0  0  0  0  0  0  0  0  0
   -5.8875   -6.5486    0.0000 C   0  0  0  0  0  0  0  0  0  0  0  0
   -4.6740   -7.4303    0.0000 C   0  0  0  0  0  0  0  0  0  0  0  0
   -3.3037   -6.8202    0.0000 C   0  0  0  0  0  0  0  0  0  0  0  0
   -2.9918   -5.3529    0.0000 C   0  0  0  0  0  0  0  0  0  0  0  0
   -1.5000   -5.1962    0.0000 C   0  0  0  0  0  0  0  0  0  0  0  0
   -0.7500   -3.8971    0.0000 C   0  0  0  0  0  0  0  0  0  0  0  0
    0.7500   -3.8971    0.0000 C   0  0  0  0  0  0  0  0  0  0  0  0
    1.5000   -2.5981    0.0000 C   0  0  0  0  0  0  0  0  0  0  0  0
    0.7500   -1.2990    0.0000 C   0  0  0  0  0  0  0  0  0  0  0  0
    1.5000    0.0000    0.0000 C   0  0  0  0  0  0  0  0  0  0  0  0
    0.7500    1.2990    0.0000 N   0  0  0  0  0  0  0  0  0  0  0  0
   -0.7500    1.2990    0.0000 C   0  0  0  0  0  0  0  0  0  0  0  0
   -1.5000    0.0000    0.0000 C   0  0  0  0  0  0  0  0  0  0  0  0
   -0.7500   -1.2990    0.0000 C   0  0  0  0  0  0  0  0  0  0  0  0
   -1.5000   -2.5981    0.0000 C   0  0  0  0  0  0  0  0  0  0  0  0
   -0.8899   -6.5665    0.0000 N   0  0  0  0  0  0  0  0  0  0  0  0
   -2.0046   -7.5702    0.0000 O   0  0  0  0  0  0  0  0  0  0  0  0
   -8.4713   -6.2770    0.0000 C   0  0  0  0  0  0  0  0  0  0  0  0
   -9.8417   -6.8871    0.0000 C   0  0  0  0  0  0  0  0  0  0  0  0
  -11.0552   -6.0054    0.0000 C   0  0  0  0  0  0  0  0  0  0  0  0
  -12.4255   -6.6156    0.0000 C   0  0  0  0  0  0  0  0  0  0  0  0
  -12.5823   -8.1073    0.0000 C   0  0  0  0  0  0  0  0  0  0  0  0
  -13.9526   -8.7174    0.0000 C   0  0  0  0  0  0  0  0  0  0  0  0
  -15.3229   -9.3275    0.0000 F   0  0  0  0  0  0  0  0  0  0  0  0
  -14.5627   -7.3471    0.0000 F   0  0  0  0  0  0  0  0  0  0  0  0
  -13.3425  -10.0878    0.0000 F   0  0  0  0  0  0  0  0  0  0  0  0
  -11.3688   -8.9890    0.0000 C   0  0  0  0  0  0  0  0  0  0  0  0
   -9.9984   -8.3789    0.0000 C   0  0  0  0  0  0  0  0  0  0  0  0
  2  1  1  1
  2  3  1  0
  3  4  1  0
  4  5  1  0
  5  6  2  0
  6  7  1  0
  7  8  1  0
  8  9  2  0
  9 10  1  0
 10 11  2  0
 11 12  1  0
 12 13  2  0
 13 14  1  0
 14 15  2  0
 15 16  1  0
 16 17  2  0
  7 18  2  0
 18 19  1  0
  2 20  1  0
 20 21  1  0
 21 22  2  0
 22 23  1  0
 23 24  2  0
 24 25  1  0
 25 26  1  0
 25 27  1  0
 25 28  1  0
 24 29  1  0
 29 30  2  0
 19  5  1  0
 30 21  1  0
 17  8  1  0
 16 11  1  0
M  END
>  <Compound_ID>  (262) 
CHEMBL1081105

>  <Active>  (262) 
1.0

>  <Smiles>  (262) 
N[C@H](CCc1cc(-c2ccc3cnccc3c2)no1)Cc1ccc(C(F)(F)F)cc1

>  <canonical_smi>  (262) 
N[C@H](CCc1cc(-c2ccc3cnccc3c2)no1)Cc1ccc(C(F)(F)F)cc1

>  <Set>  (262) 
G2 active

>  <Set_type>  (262) 
Train

>  <MW>  (262) 
411.43

>  <HBD>  (262) 
1

>  <HBA>  (262) 
4

>  <NRB>  (262) 
6

>  <NR>  (262) 
4

>  <NAR>  (262) 
4

>  <PSA>  (262) 
64.94

>  <Standard Type>  (262) 
nan

>  <Standard Relation>  (262) 
nan

>  <Standard Units>  (262) 
nan

>  <Standard Value>  (262) 
nan

>  <Assay ChEMBL ID>  (262) 
nan

>  <Assay Description>  (262) 
nan

>  <BAO Label>  (262) 
nan

$$$$

     RDKit          2D

 26 29  0  0  0  0  0  0  0  0999 V2000
    9.9762    6.5662    0.0000 C   0  0  0  0  0  0  0  0  0  0  0  0
    9.0946    7.7797    0.0000 C   0  0  0  0  0  0  0  0  0  0  0  0
    9.7047    9.1501    0.0000 C   0  0  0  0  0  0  0  0  0  0  0  0
    7.6028    7.6230    0.0000 N   0  0  0  0  0  0  0  0  0  0  0  0
    6.7211    8.8365    0.0000 C   0  0  0  0  0  0  0  0  0  0  0  0
    7.3312   10.2068    0.0000 O   0  0  0  0  0  0  0  0  0  0  0  0
    5.2293    8.6797    0.0000 N   0  0  0  0  0  0  0  0  0  0  0  0
    4.2256    9.7944    0.0000 C   0  0  0  0  0  0  0  0  0  0  0  0
    2.8553    9.1843    0.0000 C   0  0  0  0  0  0  0  0  0  0  0  0
    1.3881    9.4962    0.0000 N   0  0  0  0  0  0  0  0  0  0  0  0
    0.6381    8.1971    0.0000 N   0  0  0  0  0  0  0  0  0  0  0  0
    1.6418    7.0824    0.0000 C   0  0  0  0  0  0  0  0  0  0  0  0
    1.3299    5.6152    0.0000 N   0  0  0  0  0  0  0  0  0  0  0  0
   -0.0967    5.1517    0.0000 C   0  0  0  0  0  0  0  0  0  0  0  0
   -1.2114    6.1554    0.0000 O   0  0  0  0  0  0  0  0  0  0  0  0
   -0.4086    3.6844    0.0000 C   0  0  0  0  0  0  0  0  0  0  0  0
   -1.8351    3.2209    0.0000 C   0  0  0  0  0  0  0  0  0  0  0  0
   -2.1470    1.7537    0.0000 C   0  0  0  0  0  0  0  0  0  0  0  0
   -1.0323    0.7500    0.0000 C   0  0  0  0  0  0  0  0  0  0  0  0
    0.3943    1.2135    0.0000 C   0  0  0  0  0  0  0  0  0  0  0  0
    0.7062    2.6807    0.0000 C   0  0  0  0  0  0  0  0  0  0  0  0
    1.2760    0.0000    0.0000 O   0  0  0  0  0  0  0  0  0  0  0  0
    0.3943   -1.2135    0.0000 C   0  0  0  0  0  0  0  0  0  0  0  0
   -1.0323   -0.7500    0.0000 O   0  0  0  0  0  0  0  0  0  0  0  0
    3.0121    7.6925    0.0000 C   0  0  0  0  0  0  0  0  0  0  0  0
    4.4793    7.3806    0.0000 C   0  0  0  0  0  0  0  0  0  0  0  0
  1  2  1  0
  2  3  1  0
  2  4  1  0
  4  5  1  0
  5  6  2  0
  5  7  1  0
  7  8  1  0
  8  9  1  0
  9 10  2  0
 10 11  1  0
 11 12  1  0
 12 13  1  0
 13 14  1  0
 14 15  2  0
 14 16  1  0
 16 17  2  0
 17 18  1  0
 18 19  2  0
 19 20  1  0
 20 21  2  0
 20 22  1  0
 22 23  1  0
 23 24  1  0
 12 25  2  0
 25 26  1  0
 26  7  1  0
 25  9  1  0
 21 16  1  0
 24 19  1  0
M  END
>  <Compound_ID>  (263) 
CHEMBL439514

>  <Active>  (263) 
1.0

>  <Smiles>  (263) 
CC(C)NC(=O)N1Cc2n[nH]c(NC(=O)c3ccc4c(c3)OCO4)c2C1

>  <canonical_smi>  (263) 
CC(C)NC(=O)N1Cc2n[nH]c(NC(=O)c3ccc4c(c3)OCO4)c2C1

>  <Set>  (263) 
G2 active

>  <Set_type>  (263) 
Train

>  <MW>  (263) 
357.37

>  <HBD>  (263) 
3

>  <HBA>  (263) 
5

>  <NRB>  (263) 
3

>  <NR>  (263) 
4

>  <NAR>  (263) 
2

>  <PSA>  (263) 
108.58

>  <Standard Type>  (263) 
nan

>  <Standard Relation>  (263) 
nan

>  <Standard Units>  (263) 
nan

>  <Standard Value>  (263) 
nan

>  <Assay ChEMBL ID>  (263) 
nan

>  <Assay Description>  (263) 
nan

>  <BAO Label>  (263) 
nan

$$$$

     RDKit          2D

 19 22  0  0  0  0  0  0  0  0999 V2000
    1.5000    0.0000    0.0000 C   0  0  0  0  0  0  0  0  0  0  0  0
    0.7500   -1.2990    0.0000 C   0  0  0  0  0  0  0  0  0  0  0  0
   -0.7500   -1.2990    0.0000 N   0  0  0  0  0  0  0  0  0  0  0  0
   -1.5000    0.0000    0.0000 N   0  0  0  0  0  0  0  0  0  0  0  0
   -2.9672    0.3119    0.0000 N   0  0  0  0  0  0  0  0  0  0  0  0
   -3.1240    1.8037    0.0000 C   0  0  0  0  0  0  0  0  0  0  0  0
   -1.7537    2.4138    0.0000 C   0  0  0  0  0  0  0  0  0  0  0  0
   -1.4418    3.8810    0.0000 C   0  0  0  0  0  0  0  0  0  0  0  0
   -0.0152    4.3445    0.0000 C   0  0  0  0  0  0  0  0  0  0  0  0
    0.2966    5.8117    0.0000 C   0  0  0  0  0  0  0  0  0  0  0  0
   -0.8181    6.8154    0.0000 N   0  0  0  0  0  0  0  0  0  0  0  0
   -2.2447    6.3519    0.0000 C   0  0  0  0  0  0  0  0  0  0  0  0
   -3.3594    7.3556    0.0000 N   0  0  0  0  0  0  0  0  0  0  0  0
   -3.0475    8.8228    0.0000 C   0  0  0  0  0  0  0  0  0  0  0  0
   -3.5111   10.2494    0.0000 C   0  0  0  0  0  0  0  0  0  0  0  0
   -2.0438    9.9375    0.0000 C   0  0  0  0  0  0  0  0  0  0  0  0
   -2.5565    4.8847    0.0000 N   0  0  0  0  0  0  0  0  0  0  0  0
   -0.7500    1.2990    0.0000 C   0  0  0  0  0  0  0  0  0  0  0  0
    0.7500    1.2990    0.0000 C   0  0  0  0  0  0  0  0  0  0  0  0
  1  2  1  0
  2  3  2  0
  3  4  1  0
  4  5  1  0
  5  6  2  0
  6  7  1  0
  7  8  1  0
  8  9  2  0
  9 10  1  0
 10 11  2  0
 11 12  1  0
 12 13  1  0
 13 14  1  0
 14 15  1  0
 15 16  1  0
 12 17  2  0
  7 18  2  0
 18 19  1  0
 19  1  2  0
 18  4  1  0
 17  8  1  0
 16 14  1  0
M  END
>  <Compound_ID>  (264) 
CHEMBL525194

>  <Active>  (264) 
1.0

>  <Smiles>  (264) 
c1cnn2ncc(-c3ccnc(NC4CC4)n3)c2c1

>  <canonical_smi>  (264) 
c1cnn2ncc(-c3ccnc(NC4CC4)n3)c2c1

>  <Set>  (264) 
G2 active

>  <Set_type>  (264) 
Train

>  <MW>  (264) 
252.28

>  <HBD>  (264) 
1

>  <HBA>  (264) 
5

>  <NRB>  (264) 
3

>  <NR>  (264) 
4

>  <NAR>  (264) 
3

>  <PSA>  (264) 
68.0

>  <Standard Type>  (264) 
nan

>  <Standard Relation>  (264) 
nan

>  <Standard Units>  (264) 
nan

>  <Standard Value>  (264) 
nan

>  <Assay ChEMBL ID>  (264) 
nan

>  <Assay Description>  (264) 
nan

>  <BAO Label>  (264) 
nan

$$$$

     RDKit          2D

 28 31  0  0  0  0  0  0  0  0999 V2000
   -1.8836    6.6179    0.0000 C   0  0  0  0  0  0  0  0  0  0  0  0
   -3.3102    6.1544    0.0000 N   0  0  0  0  0  0  0  0  0  0  0  0
   -3.6221    4.6871    0.0000 C   0  0  0  0  0  0  0  0  0  0  0  0
   -2.5074    3.6834    0.0000 O   0  0  0  0  0  0  0  0  0  0  0  0
   -5.0487    4.2236    0.0000 C   0  0  0  0  0  0  0  0  0  0  0  0
   -5.3605    2.7564    0.0000 N   0  0  0  0  0  0  0  0  0  0  0  0
   -4.2458    1.7527    0.0000 C   0  0  0  0  0  0  0  0  0  0  0  0
   -4.5577    0.2855    0.0000 C   0  0  0  0  0  0  0  0  0  0  0  0
   -5.9843   -0.1781    0.0000 C   0  0  0  0  0  0  0  0  0  0  0  0
   -6.2961   -1.6453    0.0000 N   0  0  0  0  0  0  0  0  0  0  0  0
   -5.1814   -2.6490    0.0000 C   0  0  0  0  0  0  0  0  0  0  0  0
   -5.4933   -4.1162    0.0000 N   0  0  0  0  0  0  0  0  0  0  0  0
   -4.3786   -5.1199    0.0000 C   0  0  0  0  0  0  0  0  0  0  0  0
   -2.9520   -4.6564    0.0000 C   0  0  0  0  0  0  0  0  0  0  0  0
   -1.8373   -5.6601    0.0000 Cl  0  0  0  0  0  0  0  0  0  0  0  0
   -2.6401   -3.1891    0.0000 C   0  0  0  0  0  0  0  0  0  0  0  0
   -1.2135   -2.7256    0.0000 C   0  0  0  0  0  0  0  0  0  0  0  0
   -0.0000   -3.6073    0.0000 C   0  0  0  0  0  0  0  0  0  0  0  0
    1.2135   -2.7256    0.0000 N   0  0  0  0  0  0  0  0  0  0  0  0
    0.7500   -1.2990    0.0000 C   0  0  0  0  0  0  0  0  0  0  0  0
    1.5000    0.0000    0.0000 C   0  0  0  0  0  0  0  0  0  0  0  0
    0.7500    1.2990    0.0000 C   0  0  0  0  0  0  0  0  0  0  0  0
   -0.7500    1.2990    0.0000 C   0  0  0  0  0  0  0  0  0  0  0  0
   -1.5000    0.0000    0.0000 C   0  0  0  0  0  0  0  0  0  0  0  0
   -0.7500   -1.2990    0.0000 C   0  0  0  0  0  0  0  0  0  0  0  0
   -3.7548   -2.1855    0.0000 N   0  0  0  0  0  0  0  0  0  0  0  0
   -7.0990    0.8256    0.0000 C   0  0  0  0  0  0  0  0  0  0  0  0
   -6.7871    2.2929    0.0000 C   0  0  0  0  0  0  0  0  0  0  0  0
  1  2  1  0
  2  3  1  0
  3  4  2  0
  3  5  1  0
  5  6  1  0
  6  7  1  0
  7  8  1  0
  8  9  1  0
  9 10  1  0
 10 11  1  0
 11 12  2  0
 12 13  1  0
 13 14  2  0
 14 15  1  0
 14 16  1  0
 16 17  1  0
 17 18  2  0
 18 19  1  0
 19 20  1  0
 20 21  2  0
 21 22  1  0
 22 23  2  0
 23 24  1  0
 24 25  2  0
 16 26  2  0
  9 27  1  0
 27 28  1  0
 28  6  1  0
 26 11  1  0
 25 17  1  0
 25 20  1  0
M  END
>  <Compound_ID>  (265) 
CHEMBL245336

>  <Active>  (265) 
1.0

>  <Smiles>  (265) 
CNC(=O)CN1CCC(Nc2ncc(Cl)c(-c3c[nH]c4ccccc34)n2)CC1

>  <canonical_smi>  (265) 
CNC(=O)CN1CCC(Nc2ncc(Cl)c(-c3c[nH]c4ccccc34)n2)CC1

>  <Set>  (265) 
G2 active

>  <Set_type>  (265) 
Train

>  <MW>  (265) 
398.9

>  <HBD>  (265) 
3

>  <HBA>  (265) 
5

>  <NRB>  (265) 
5

>  <NR>  (265) 
4

>  <NAR>  (265) 
3

>  <PSA>  (265) 
85.94

>  <Standard Type>  (265) 
nan

>  <Standard Relation>  (265) 
nan

>  <Standard Units>  (265) 
nan

>  <Standard Value>  (265) 
nan

>  <Assay ChEMBL ID>  (265) 
nan

>  <Assay Description>  (265) 
nan

>  <BAO Label>  (265) 
nan

$$$$

     RDKit          2D

 26 29  0  0  0  0  0  0  0  0999 V2000
    0.7500   -3.8971    0.0000 C   0  0  0  0  0  0  0  0  0  0  0  0
    1.5000   -2.5981    0.0000 C   0  0  0  0  0  0  0  0  0  0  0  0
    3.0000   -2.5981    0.0000 C   0  0  0  0  0  0  0  0  0  0  0  0
    3.7500   -1.2990    0.0000 O   0  0  0  0  0  0  0  0  0  0  0  0
    3.7500   -3.8971    0.0000 N   0  0  0  0  0  0  0  0  0  0  0  0
    5.2500   -3.8971    0.0000 C   0  0  0  0  0  0  0  0  0  0  0  0
    6.1317   -2.6836    0.0000 C   0  0  0  0  0  0  0  0  0  0  0  0
    7.5583   -3.1471    0.0000 C   0  0  0  0  0  0  0  0  0  0  0  0
    8.7718   -2.2654    0.0000 C   0  0  0  0  0  0  0  0  0  0  0  0
    9.3819   -0.8951    0.0000 C   0  0  0  0  0  0  0  0  0  0  0  0
   10.2636   -2.1086    0.0000 C   0  0  0  0  0  0  0  0  0  0  0  0
    7.5583   -4.6471    0.0000 N   0  0  0  0  0  0  0  0  0  0  0  0
    6.1317   -5.1106    0.0000 N   0  0  0  0  0  0  0  0  0  0  0  0
    0.7500   -1.2990    0.0000 C   0  0  0  0  0  0  0  0  0  0  0  0
    1.5000    0.0000    0.0000 C   0  0  0  0  0  0  0  0  0  0  0  0
    0.7500    1.2990    0.0000 C   0  0  0  0  0  0  0  0  0  0  0  0
   -0.7500    1.2990    0.0000 C   0  0  0  0  0  0  0  0  0  0  0  0
   -1.5000    2.5981    0.0000 N   0  0  0  0  0  0  0  0  0  0  0  0
   -2.9918    2.7549    0.0000 C   0  0  0  0  0  0  0  0  0  0  0  0
   -3.9955    1.6402    0.0000 O   0  0  0  0  0  0  0  0  0  0  0  0
   -3.3037    4.2221    0.0000 C   0  0  0  0  0  0  0  0  0  0  0  0
   -2.0046    4.9721    0.0000 N   0  0  0  0  0  0  0  0  0  0  0  0
   -0.8899    3.9684    0.0000 C   0  0  0  0  0  0  0  0  0  0  0  0
    0.5773    4.2803    0.0000 O   0  0  0  0  0  0  0  0  0  0  0  0
   -1.5000    0.0000    0.0000 C   0  0  0  0  0  0  0  0  0  0  0  0
   -0.7500   -1.2990    0.0000 C   0  0  0  0  0  0  0  0  0  0  0  0
  1  2  1  0
  2  3  1  0
  3  4  2  0
  3  5  1  0
  5  6  1  0
  6  7  1  0
  7  8  2  0
  8  9  1  0
  9 10  1  0
 10 11  1  0
  8 12  1  0
 12 13  1  0
  2 14  1  0
 14 15  2  0
 15 16  1  0
 16 17  2  0
 17 18  1  0
 18 19  1  0
 19 20  2  0
 19 21  1  0
 21 22  1  0
 22 23  1  0
 23 24  2  0
 17 25  1  0
 25 26  2  0
 13  6  2  0
 26 14  1  0
 11  9  1  0
 23 18  1  0
M  END
>  <Compound_ID>  (266) 
CHEMBL372467

>  <Active>  (266) 
1.0

>  <Smiles>  (266) 
CC(C(=O)Nc1cc(C2CC2)[nH]n1)c1ccc(N2C(=O)CNC2=O)cc1

>  <canonical_smi>  (266) 
CC(C(=O)Nc1cc(C2CC2)[nH]n1)c1ccc(N2C(=O)CNC2=O)cc1

>  <Set>  (266) 
G2 active

>  <Set_type>  (266) 
Train

>  <MW>  (266) 
353.38

>  <HBD>  (266) 
3

>  <HBA>  (266) 
4

>  <NRB>  (266) 
5

>  <NR>  (266) 
4

>  <NAR>  (266) 
2

>  <PSA>  (266) 
107.19

>  <Standard Type>  (266) 
nan

>  <Standard Relation>  (266) 
nan

>  <Standard Units>  (266) 
nan

>  <Standard Value>  (266) 
nan

>  <Assay ChEMBL ID>  (266) 
nan

>  <Assay Description>  (266) 
nan

>  <BAO Label>  (266) 
nan

$$$$

     RDKit          2D

 30 33  0  0  0  0  0  0  0  0999 V2000
   -1.5342  -12.0455    0.0000 N   0  0  0  0  0  0  0  0  0  0  0  0
   -2.9046  -11.4354    0.0000 C   0  0  0  0  0  0  0  0  0  0  0  0
   -3.0613   -9.9436    0.0000 C   0  0  0  0  0  0  0  0  0  0  0  0
   -1.8478   -9.0619    0.0000 N   0  0  0  0  0  0  0  0  0  0  0  0
   -2.0046   -7.5702    0.0000 C   0  0  0  0  0  0  0  0  0  0  0  0
   -3.3037   -6.8202    0.0000 N   0  0  0  0  0  0  0  0  0  0  0  0
   -2.9918   -5.3529    0.0000 C   0  0  0  0  0  0  0  0  0  0  0  0
   -1.5000   -5.1962    0.0000 C   0  0  0  0  0  0  0  0  0  0  0  0
   -0.7500   -3.8971    0.0000 C   0  0  0  0  0  0  0  0  0  0  0  0
    0.7500   -3.8971    0.0000 C   0  0  0  0  0  0  0  0  0  0  0  0
    1.5000   -2.5981    0.0000 C   0  0  0  0  0  0  0  0  0  0  0  0
    0.7500   -1.2990    0.0000 C   0  0  0  0  0  0  0  0  0  0  0  0
    1.5000    0.0000    0.0000 C   0  0  0  0  0  0  0  0  0  0  0  0
    0.7500    1.2990    0.0000 N   0  0  0  0  0  0  0  0  0  0  0  0
   -0.7500    1.2990    0.0000 C   0  0  0  0  0  0  0  0  0  0  0  0
   -1.5000    0.0000    0.0000 N   0  0  0  0  0  0  0  0  0  0  0  0
   -0.7500   -1.2990    0.0000 C   0  0  0  0  0  0  0  0  0  0  0  0
   -1.5000   -2.5981    0.0000 C   0  0  0  0  0  0  0  0  0  0  0  0
   -0.8899   -6.5665    0.0000 S   0  0  0  0  0  0  0  0  0  0  0  0
   -4.1181  -12.3171    0.0000 C   0  0  0  0  0  0  0  0  0  0  0  0
   -3.9613  -13.8089    0.0000 C   0  0  0  0  0  0  0  0  0  0  0  0
   -5.1748  -14.6905    0.0000 C   0  0  0  0  0  0  0  0  0  0  0  0
   -5.0180  -16.1823    0.0000 C   0  0  0  0  0  0  0  0  0  0  0  0
   -3.6477  -16.7924    0.0000 C   0  0  0  0  0  0  0  0  0  0  0  0
   -3.4909  -18.2842    0.0000 C   0  0  0  0  0  0  0  0  0  0  0  0
   -3.3341  -19.7760    0.0000 F   0  0  0  0  0  0  0  0  0  0  0  0
   -4.9827  -18.4410    0.0000 F   0  0  0  0  0  0  0  0  0  0  0  0
   -1.9991  -18.1274    0.0000 F   0  0  0  0  0  0  0  0  0  0  0  0
   -2.4342  -15.9108    0.0000 C   0  0  0  0  0  0  0  0  0  0  0  0
   -2.5910  -14.4190    0.0000 C   0  0  0  0  0  0  0  0  0  0  0  0
  2  1  1  1
  2  3  1  0
  3  4  1  0
  4  5  1  0
  5  6  2  0
  6  7  1  0
  7  8  2  0
  8  9  1  0
  9 10  2  0
 10 11  1  0
 11 12  2  0
 12 13  1  0
 13 14  2  0
 14 15  1  0
 15 16  2  0
 16 17  1  0
 17 18  2  0
  8 19  1  0
  2 20  1  0
 20 21  1  0
 21 22  2  0
 22 23  1  0
 23 24  2  0
 24 25  1  0
 25 26  1  0
 25 27  1  0
 25 28  1  0
 24 29  1  0
 29 30  2  0
 19  5  1  0
 30 21  1  0
 18  9  1  0
 17 12  1  0
M  END
>  <Compound_ID>  (267) 
CHEMBL1081296

>  <Active>  (267) 
1.0

>  <Smiles>  (267) 
N[C@H](CNc1ncc(-c2ccc3cncnc3c2)s1)Cc1ccc(C(F)(F)F)cc1

>  <canonical_smi>  (267) 
N[C@H](CNc1ncc(-c2ccc3cncnc3c2)s1)Cc1ccc(C(F)(F)F)cc1

>  <Set>  (267) 
G2 active

>  <Set_type>  (267) 
Train

>  <MW>  (267) 
429.47

>  <HBD>  (267) 
2

>  <HBA>  (267) 
5

>  <NRB>  (267) 
6

>  <NR>  (267) 
4

>  <NAR>  (267) 
4

>  <PSA>  (267) 
76.72

>  <Standard Type>  (267) 
nan

>  <Standard Relation>  (267) 
nan

>  <Standard Units>  (267) 
nan

>  <Standard Value>  (267) 
nan

>  <Assay ChEMBL ID>  (267) 
nan

>  <Assay Description>  (267) 
nan

>  <BAO Label>  (267) 
nan

$$$$

     RDKit          2D

 30 33  0  0  0  0  0  0  0  0999 V2000
    7.4146   -6.0524    0.0000 N   0  0  0  0  0  0  0  0  0  0  0  0
    6.2011   -6.9341    0.0000 C   0  0  0  0  0  0  0  0  0  0  0  0
    4.8308   -6.3240    0.0000 C   0  0  0  0  0  0  0  0  0  0  0  0
    4.6740   -4.8322    0.0000 N   0  0  0  0  0  0  0  0  0  0  0  0
    3.3037   -4.2221    0.0000 C   0  0  0  0  0  0  0  0  0  0  0  0
    2.0046   -4.9721    0.0000 N   0  0  0  0  0  0  0  0  0  0  0  0
    0.8899   -3.9684    0.0000 C   0  0  0  0  0  0  0  0  0  0  0  0
    1.5000   -2.5981    0.0000 C   0  0  0  0  0  0  0  0  0  0  0  0
    0.7500   -1.2990    0.0000 C   0  0  0  0  0  0  0  0  0  0  0  0
    1.5000    0.0000    0.0000 C   0  0  0  0  0  0  0  0  0  0  0  0
    0.7500    1.2990    0.0000 C   0  0  0  0  0  0  0  0  0  0  0  0
   -0.7500    1.2990    0.0000 C   0  0  0  0  0  0  0  0  0  0  0  0
   -1.7537    2.4138    0.0000 N   0  0  0  0  0  0  0  0  0  0  0  0
   -3.1240    1.8037    0.0000 C   0  0  0  0  0  0  0  0  0  0  0  0
   -4.4231    2.5537    0.0000 O   0  0  0  0  0  0  0  0  0  0  0  0
   -2.9672    0.3119    0.0000 O   0  0  0  0  0  0  0  0  0  0  0  0
   -1.5000    0.0000    0.0000 C   0  0  0  0  0  0  0  0  0  0  0  0
   -0.7500   -1.2990    0.0000 C   0  0  0  0  0  0  0  0  0  0  0  0
    2.9918   -2.7549    0.0000 S   0  0  0  0  0  0  0  0  0  0  0  0
    6.3579   -8.4259    0.0000 C   0  0  0  0  0  0  0  0  0  0  0  0
    7.7282   -9.0360    0.0000 C   0  0  0  0  0  0  0  0  0  0  0  0
    7.8850  -10.5278    0.0000 C   0  0  0  0  0  0  0  0  0  0  0  0
    9.2553  -11.1379    0.0000 C   0  0  0  0  0  0  0  0  0  0  0  0
   10.4688  -10.2562    0.0000 C   0  0  0  0  0  0  0  0  0  0  0  0
   11.8391  -10.8663    0.0000 C   0  0  0  0  0  0  0  0  0  0  0  0
   13.2095  -11.4764    0.0000 F   0  0  0  0  0  0  0  0  0  0  0  0
   11.2290  -12.2366    0.0000 F   0  0  0  0  0  0  0  0  0  0  0  0
   12.4492   -9.4960    0.0000 F   0  0  0  0  0  0  0  0  0  0  0  0
   10.3120   -8.7644    0.0000 C   0  0  0  0  0  0  0  0  0  0  0  0
    8.9417   -8.1543    0.0000 C   0  0  0  0  0  0  0  0  0  0  0  0
  2  1  1  1
  2  3  1  0
  3  4  1  0
  4  5  1  0
  5  6  2  0
  6  7  1  0
  7  8  2  0
  8  9  1  0
  9 10  2  0
 10 11  1  0
 11 12  2  0
 12 13  1  0
 13 14  1  0
 14 15  2  0
 14 16  1  0
 16 17  1  0
 17 18  2  0
  8 19  1  0
  2 20  1  0
 20 21  1  0
 21 22  2  0
 22 23  1  0
 23 24  2  0
 24 25  1  0
 25 26  1  0
 25 27  1  0
 25 28  1  0
 24 29  1  0
 29 30  2  0
 19  5  1  0
 30 21  1  0
 18  9  1  0
 17 12  1  0
M  END
>  <Compound_ID>  (268) 
CHEMBL1081852

>  <Active>  (268) 
1.0

>  <Smiles>  (268) 
N[C@H](CNc1ncc(-c2ccc3[nH]c(=O)oc3c2)s1)Cc1ccc(C(F)(F)F)cc1

>  <canonical_smi>  (268) 
N[C@H](CNc1ncc(-c2ccc3[nH]c(=O)oc3c2)s1)Cc1ccc(C(F)(F)F)cc1

>  <Set>  (268) 
G2 active

>  <Set_type>  (268) 
Train

>  <MW>  (268) 
434.44

>  <HBD>  (268) 
3

>  <HBA>  (268) 
5

>  <NRB>  (268) 
6

>  <NR>  (268) 
4

>  <NAR>  (268) 
4

>  <PSA>  (268) 
96.94

>  <Standard Type>  (268) 
nan

>  <Standard Relation>  (268) 
nan

>  <Standard Units>  (268) 
nan

>  <Standard Value>  (268) 
nan

>  <Assay ChEMBL ID>  (268) 
nan

>  <Assay Description>  (268) 
nan

>  <BAO Label>  (268) 
nan

$$$$

     RDKit          2D

 20 23  0  0  0  0  0  0  0  0999 V2000
    5.2500   -1.2990    0.0000 N   0  0  0  0  0  0  0  0  0  0  0  0
    3.7500   -1.2990    0.0000 C   0  0  0  0  0  0  0  0  0  0  0  0
    3.0000   -2.5981    0.0000 O   0  0  0  0  0  0  0  0  0  0  0  0
    3.0000    0.0000    0.0000 N   0  0  0  0  0  0  0  0  0  0  0  0
    1.5000    0.0000    0.0000 C   0  0  0  0  0  0  0  0  0  0  0  0
    0.7500   -1.2990    0.0000 C   0  0  0  0  0  0  0  0  0  0  0  0
   -0.7500   -1.2990    0.0000 C   0  0  0  0  0  0  0  0  0  0  0  0
   -1.5000    0.0000    0.0000 C   0  0  0  0  0  0  0  0  0  0  0  0
   -0.7500    1.2990    0.0000 C   0  0  0  0  0  0  0  0  0  0  0  0
    0.7500    1.2990    0.0000 C   0  0  0  0  0  0  0  0  0  0  0  0
    1.2135    2.7256    0.0000 C   0  0  0  0  0  0  0  0  0  0  0  0
    2.6401    3.1891    0.0000 O   0  0  0  0  0  0  0  0  0  0  0  0
    0.0000    3.6073    0.0000 C   0  0  0  0  0  0  0  0  0  0  0  0
   -0.4635    5.0339    0.0000 C   0  0  0  0  0  0  0  0  0  0  0  0
    0.4182    6.2474    0.0000 C   0  0  0  0  0  0  0  0  0  0  0  0
    0.5749    7.7392    0.0000 C   0  0  0  0  0  0  0  0  0  0  0  0
    1.7885    6.8575    0.0000 C   0  0  0  0  0  0  0  0  0  0  0  0
   -1.9635    5.0339    0.0000 N   0  0  0  0  0  0  0  0  0  0  0  0
   -2.4271    3.6073    0.0000 N   0  0  0  0  0  0  0  0  0  0  0  0
   -1.2135    2.7256    0.0000 C   0  0  0  0  0  0  0  0  0  0  0  0
  1  2  1  0
  2  3  2  0
  2  4  1  0
  4  5  1  0
  5  6  2  0
  6  7  1  0
  7  8  2  0
  8  9  1  0
  9 10  2  0
 10 11  1  0
 11 12  2  0
 11 13  1  0
 13 14  1  0
 14 15  1  0
 15 16  1  0
 16 17  1  0
 14 18  2  0
 18 19  1  0
 19 20  1  0
 10  5  1  0
 20 13  2  0
 20  9  1  0
 17 15  1  0
M  END
>  <Compound_ID>  (269) 
CHEMBL148865

>  <Active>  (269) 
1.0

>  <Smiles>  (269) 
NC(=O)Nc1cccc2c1C(=O)c1c(C3CC3)n[nH]c1-2

>  <canonical_smi>  (269) 
NC(=O)Nc1cccc2c1C(=O)c1c(C3CC3)n[nH]c1-2

>  <Set>  (269) 
G2 active

>  <Set_type>  (269) 
Train

>  <MW>  (269) 
268.28

>  <HBD>  (269) 
3

>  <HBA>  (269) 
3

>  <NRB>  (269) 
2

>  <NR>  (269) 
4

>  <NAR>  (269) 
3

>  <PSA>  (269) 
100.87

>  <Standard Type>  (269) 
nan

>  <Standard Relation>  (269) 
nan

>  <Standard Units>  (269) 
nan

>  <Standard Value>  (269) 
nan

>  <Assay ChEMBL ID>  (269) 
nan

>  <Assay Description>  (269) 
nan

>  <BAO Label>  (269) 
nan

$$$$

     RDKit          2D

 23 24  0  0  0  0  0  0  0  0999 V2000
    5.7760   -2.5981    0.0000 C   0  0  0  0  0  0  0  0  0  0  0  0
    5.0260   -1.2990    0.0000 C   0  0  0  0  0  0  0  0  0  0  0  0
    5.7760    0.0000    0.0000 C   0  0  0  0  0  0  0  0  0  0  0  0
    3.5260   -1.2990    0.0000 C   0  0  0  0  0  0  0  0  0  0  0  0
    2.7760   -2.5981    0.0000 O   0  0  0  0  0  0  0  0  0  0  0  0
    2.7760    0.0000    0.0000 N   0  0  0  0  0  0  0  0  0  0  0  0
    1.2760    0.0000    0.0000 C   0  0  0  0  0  0  0  0  0  0  0  0
    0.3943    1.2135    0.0000 N   0  0  0  0  0  0  0  0  0  0  0  0
   -1.0323    0.7500    0.0000 C   0  0  0  0  0  0  0  0  0  0  0  0
   -1.0323   -0.7500    0.0000 C   0  0  0  0  0  0  0  0  0  0  0  0
   -2.2458   -1.6317    0.0000 S   0  0  0  0  0  0  0  0  0  0  0  0
   -2.0890   -3.1235    0.0000 O   0  0  0  0  0  0  0  0  0  0  0  0
   -3.6161   -1.0216    0.0000 C   0  0  0  0  0  0  0  0  0  0  0  0
   -4.8297   -1.9033    0.0000 C   0  0  0  0  0  0  0  0  0  0  0  0
   -4.8297   -3.4033    0.0000 N   0  0  0  0  0  0  0  0  0  0  0  0
   -6.2562   -3.8668    0.0000 C   0  0  0  0  0  0  0  0  0  0  0  0
   -7.1379   -2.6533    0.0000 C   0  0  0  0  0  0  0  0  0  0  0  0
   -8.6379   -2.6533    0.0000 C   0  0  0  0  0  0  0  0  0  0  0  0
   -8.6379   -1.1533    0.0000 C   0  0  0  0  0  0  0  0  0  0  0  0
   -8.6379   -4.1533    0.0000 C   0  0  0  0  0  0  0  0  0  0  0  0
  -10.1379   -2.6533    0.0000 C   0  0  0  0  0  0  0  0  0  0  0  0
   -6.2562   -1.4397    0.0000 O   0  0  0  0  0  0  0  0  0  0  0  0
    0.3943   -1.2135    0.0000 S   0  0  0  0  0  0  0  0  0  0  0  0
  1  2  1  0
  2  3  1  0
  2  4  1  0
  4  5  2  0
  4  6  1  0
  6  7  1  0
  7  8  2  0
  8  9  1  0
  9 10  2  0
 10 11  1  0
 11 12  2  0
 11 13  1  0
 13 14  1  0
 14 15  2  0
 15 16  1  0
 16 17  2  0
 17 18  1  0
 18 19  1  0
 18 20  1  0
 18 21  1  0
 17 22  1  0
 10 23  1  0
 23  7  1  0
 22 14  1  0
M  END
>  <Compound_ID>  (270) 
CHEMBL126782

>  <Active>  (270) 
1.0

>  <Smiles>  (270) 
CC(C)C(=O)Nc1ncc(S(=O)Cc2ncc(C(C)(C)C)o2)s1

>  <canonical_smi>  (270) 
CC(C)C(=O)Nc1ncc(S(=O)Cc2ncc(C(C)(C)C)o2)s1

>  <Set>  (270) 
G2 active

>  <Set_type>  (270) 
Train

>  <MW>  (270) 
355.49

>  <HBD>  (270) 
1

>  <HBA>  (270) 
5

>  <NRB>  (270) 
5

>  <NR>  (270) 
2

>  <NAR>  (270) 
2

>  <PSA>  (270) 
85.09

>  <Standard Type>  (270) 
nan

>  <Standard Relation>  (270) 
nan

>  <Standard Units>  (270) 
nan

>  <Standard Value>  (270) 
nan

>  <Assay ChEMBL ID>  (270) 
nan

>  <Assay Description>  (270) 
nan

>  <BAO Label>  (270) 
nan

$$$$

     RDKit          2D

 30 34  0  0  0  0  0  0  0  0999 V2000
    3.4430   -7.9964    0.0000 O   0  0  0  0  0  0  0  0  0  0  0  0
    3.7548   -6.5291    0.0000 C   0  0  0  0  0  0  0  0  0  0  0  0
    2.6401   -5.5255    0.0000 N   0  0  0  0  0  0  0  0  0  0  0  0
    1.2135   -5.9890    0.0000 C   0  0  0  0  0  0  0  0  0  0  0  0
    0.7500   -7.4156    0.0000 C   0  0  0  0  0  0  0  0  0  0  0  0
   -0.7500   -7.4156    0.0000 N   0  0  0  0  0  0  0  0  0  0  0  0
   -1.2135   -5.9890    0.0000 N   0  0  0  0  0  0  0  0  0  0  0  0
   -0.0000   -5.1073    0.0000 C   0  0  0  0  0  0  0  0  0  0  0  0
   -0.0000   -3.6073    0.0000 C   0  0  0  0  0  0  0  0  0  0  0  0
    1.2135   -2.7256    0.0000 N   0  0  0  0  0  0  0  0  0  0  0  0
    0.7500   -1.2990    0.0000 C   0  0  0  0  0  0  0  0  0  0  0  0
    1.5000    0.0000    0.0000 C   0  0  0  0  0  0  0  0  0  0  0  0
    0.7500    1.2990    0.0000 C   0  0  0  0  0  0  0  0  0  0  0  0
    1.5000    2.5981    0.0000 C   0  0  0  0  0  0  0  0  0  0  0  0
    3.0000    2.5981    0.0000 N   0  0  0  0  0  0  0  0  0  0  0  0
    3.7500    1.2990    0.0000 C   0  0  0  0  0  0  0  0  0  0  0  0
    5.2500    1.2990    0.0000 C   0  0  0  0  0  0  0  0  0  0  0  0
    6.0000    2.5981    0.0000 O   0  0  0  0  0  0  0  0  0  0  0  0
    5.2500    3.8971    0.0000 C   0  0  0  0  0  0  0  0  0  0  0  0
    3.7500    3.8971    0.0000 C   0  0  0  0  0  0  0  0  0  0  0  0
   -0.7500    1.2990    0.0000 C   0  0  0  0  0  0  0  0  0  0  0  0
   -1.5000    0.0000    0.0000 C   0  0  0  0  0  0  0  0  0  0  0  0
   -0.7500   -1.2990    0.0000 C   0  0  0  0  0  0  0  0  0  0  0  0
   -1.2135   -2.7256    0.0000 N   0  0  0  0  0  0  0  0  0  0  0  0
    5.1814   -6.0656    0.0000 C   0  0  0  0  0  0  0  0  0  0  0  0
    6.2961   -7.0693    0.0000 C   0  0  0  0  0  0  0  0  0  0  0  0
    7.7227   -6.6058    0.0000 C   0  0  0  0  0  0  0  0  0  0  0  0
    8.0346   -5.1386    0.0000 C   0  0  0  0  0  0  0  0  0  0  0  0
    6.9199   -4.1349    0.0000 C   0  0  0  0  0  0  0  0  0  0  0  0
    5.4933   -4.5984    0.0000 C   0  0  0  0  0  0  0  0  0  0  0  0
  1  2  2  0
  2  3  1  0
  3  4  1  0
  4  5  2  0
  5  6  1  0
  6  7  1  0
  7  8  2  0
  8  9  1  0
  9 10  2  0
 10 11  1  0
 11 12  2  0
 12 13  1  0
 13 14  1  0
 14 15  1  0
 15 16  1  0
 16 17  1  0
 17 18  1  0
 18 19  1  0
 19 20  1  0
 13 21  2  0
 21 22  1  0
 22 23  2  0
 23 24  1  0
  2 25  1  0
 25 26  2  0
 26 27  1  0
 27 28  2  0
 28 29  1  0
 29 30  2  0
  8  4  1  0
 24  9  1  0
 30 25  1  0
 23 11  1  0
 20 15  1  0
M  END
>  <Compound_ID>  (271) 
CHEMBL496569

>  <Active>  (271) 
1.0

>  <Smiles>  (271) 
O=C(Nc1c[nH]nc1-c1nc2cc(CN3CCOCC3)ccc2[nH]1)c1ccccc1

>  <canonical_smi>  (271) 
O=C(Nc1c[nH]nc1-c1nc2cc(CN3CCOCC3)ccc2[nH]1)c1ccccc1

>  <Set>  (271) 
G2 active

>  <Set_type>  (271) 
Train

>  <MW>  (271) 
402.46

>  <HBD>  (271) 
3

>  <HBA>  (271) 
5

>  <NRB>  (271) 
5

>  <NR>  (271) 
5

>  <NAR>  (271) 
4

>  <PSA>  (271) 
98.93

>  <Standard Type>  (271) 
nan

>  <Standard Relation>  (271) 
nan

>  <Standard Units>  (271) 
nan

>  <Standard Value>  (271) 
nan

>  <Assay ChEMBL ID>  (271) 
nan

>  <Assay Description>  (271) 
nan

>  <BAO Label>  (271) 
nan

$$$$

     RDKit          2D

 29 32  0  0  0  0  0  0  0  0999 V2000
   -0.7500   -6.4952    0.0000 C   0  0  0  0  0  0  0  0  0  0  0  0
   -1.5000   -5.1962    0.0000 O   0  0  0  0  0  0  0  0  0  0  0  0
   -0.7500   -3.8971    0.0000 C   0  0  0  0  0  0  0  0  0  0  0  0
    0.7500   -3.8971    0.0000 C   0  0  0  0  0  0  0  0  0  0  0  0
    1.5000   -2.5981    0.0000 C   0  0  0  0  0  0  0  0  0  0  0  0
    0.7500   -1.2990    0.0000 C   0  0  0  0  0  0  0  0  0  0  0  0
    1.5000    0.0000    0.0000 C   0  0  0  0  0  0  0  0  0  0  0  0
    0.7500    1.2990    0.0000 N   0  0  0  0  0  0  0  0  0  0  0  0
   -0.7500    1.2990    0.0000 C   0  0  0  0  0  0  0  0  0  0  0  0
   -1.5000    2.5981    0.0000 N   0  0  0  0  0  0  0  0  0  0  0  0
   -0.7500    3.8971    0.0000 C   0  0  0  0  0  0  0  0  0  0  0  0
    0.7500    3.8971    0.0000 C   0  0  0  0  0  0  0  0  0  0  0  0
    1.5000    5.1962    0.0000 C   0  0  0  0  0  0  0  0  0  0  0  0
    0.7500    6.4952    0.0000 C   0  0  0  0  0  0  0  0  0  0  0  0
    1.5000    7.7942    0.0000 N   0  0  0  0  0  0  0  0  0  0  0  0
    3.0000    7.7942    0.0000 C   0  0  0  0  0  0  0  0  0  0  0  0
    3.7500    9.0933    0.0000 C   0  0  0  0  0  0  0  0  0  0  0  0
    3.0000   10.3923    0.0000 N   0  0  0  0  0  0  0  0  0  0  0  0
    1.5000   10.3923    0.0000 C   0  0  0  0  0  0  0  0  0  0  0  0
    0.7500    9.0933    0.0000 C   0  0  0  0  0  0  0  0  0  0  0  0
   -0.7500    6.4952    0.0000 C   0  0  0  0  0  0  0  0  0  0  0  0
   -1.5000    7.7942    0.0000 F   0  0  0  0  0  0  0  0  0  0  0  0
   -1.5000    5.1962    0.0000 C   0  0  0  0  0  0  0  0  0  0  0  0
   -1.5000    0.0000    0.0000 N   0  0  0  0  0  0  0  0  0  0  0  0
   -0.7500   -1.2990    0.0000 C   0  0  0  0  0  0  0  0  0  0  0  0
   -1.5000   -2.5981    0.0000 C   0  0  0  0  0  0  0  0  0  0  0  0
   -3.0000   -2.5981    0.0000 C   0  0  0  0  0  0  0  0  0  0  0  0
   -3.7500   -3.8971    0.0000 C   0  0  0  0  0  0  0  0  0  0  0  0
   -3.7500   -1.2990    0.0000 C   0  0  0  0  0  0  0  0  0  0  0  0
  1  2  1  0
  2  3  1  0
  3  4  2  0
  4  5  1  0
  5  6  2  0
  6  7  1  0
  7  8  2  0
  8  9  1  0
  9 10  1  0
 10 11  1  0
 11 12  2  0
 12 13  1  0
 13 14  2  0
 14 15  1  0
 15 16  1  0
 16 17  1  0
 17 18  1  0
 18 19  1  0
 19 20  1  0
 14 21  1  0
 21 22  1  0
 21 23  2  0
  9 24  2  0
 24 25  1  0
 25 26  2  0
 26 27  1  0
 27 28  1  0
 27 29  1  0
 26  3  1  0
 25  6  1  0
 23 11  1  0
 20 15  1  0
M  END
>  <Compound_ID>  (272) 
CHEMBL182498

>  <Active>  (272) 
1.0

>  <Smiles>  (272) 
COc1ccc2cnc(Nc3ccc(N4CCNCC4)c(F)c3)nc2c1C(C)C

>  <canonical_smi>  (272) 
COc1ccc2cnc(Nc3ccc(N4CCNCC4)c(F)c3)nc2c1C(C)C

>  <Set>  (272) 
G2 active

>  <Set_type>  (272) 
Train

>  <MW>  (272) 
395.48

>  <HBD>  (272) 
2

>  <HBA>  (272) 
6

>  <NRB>  (272) 
5

>  <NR>  (272) 
4

>  <NAR>  (272) 
3

>  <PSA>  (272) 
62.31

>  <Standard Type>  (272) 
nan

>  <Standard Relation>  (272) 
nan

>  <Standard Units>  (272) 
nan

>  <Standard Value>  (272) 
nan

>  <Assay ChEMBL ID>  (272) 
nan

>  <Assay Description>  (272) 
nan

>  <BAO Label>  (272) 
nan

$$$$

     RDKit          2D

 27 29  0  0  0  0  0  0  0  0999 V2000
    7.4557  -15.8033    0.0000 C   0  0  0  0  0  0  0  0  0  0  0  0
    8.7547  -15.0533    0.0000 C   0  0  0  0  0  0  0  0  0  0  0  0
   10.0538  -14.3033    0.0000 C   0  0  0  0  0  0  0  0  0  0  0  0
    9.5047  -16.3523    0.0000 C   0  0  0  0  0  0  0  0  0  0  0  0
    8.0047  -13.7542    0.0000 C   0  0  0  0  0  0  0  0  0  0  0  0
    8.6148  -12.3839    0.0000 C   0  0  0  0  0  0  0  0  0  0  0  0
    7.5001  -11.3802    0.0000 N   0  0  0  0  0  0  0  0  0  0  0  0
    6.2011  -12.1302    0.0000 C   0  0  0  0  0  0  0  0  0  0  0  0
    4.8308  -11.5201    0.0000 C   0  0  0  0  0  0  0  0  0  0  0  0
    4.6740  -10.0283    0.0000 S   0  0  0  0  0  0  0  0  0  0  0  0
    3.3037   -9.4182    0.0000 C   0  0  0  0  0  0  0  0  0  0  0  0
    2.0046  -10.1682    0.0000 C   0  0  0  0  0  0  0  0  0  0  0  0
    0.8899   -9.1645    0.0000 N   0  0  0  0  0  0  0  0  0  0  0  0
    1.5000   -7.7942    0.0000 C   0  0  0  0  0  0  0  0  0  0  0  0
    0.7500   -6.4952    0.0000 N   0  0  0  0  0  0  0  0  0  0  0  0
    1.5000   -5.1962    0.0000 C   0  0  0  0  0  0  0  0  0  0  0  0
    3.0000   -5.1962    0.0000 O   0  0  0  0  0  0  0  0  0  0  0  0
    0.7500   -3.8971    0.0000 O   0  0  0  0  0  0  0  0  0  0  0  0
    1.5000   -2.5981    0.0000 C   0  0  0  0  0  0  0  0  0  0  0  0
    0.7500   -1.2990    0.0000 C   0  0  0  0  0  0  0  0  0  0  0  0
    1.5000    0.0000    0.0000 C   0  0  0  0  0  0  0  0  0  0  0  0
    0.7500    1.2990    0.0000 C   0  0  0  0  0  0  0  0  0  0  0  0
   -0.7500    1.2990    0.0000 C   0  0  0  0  0  0  0  0  0  0  0  0
   -1.5000    0.0000    0.0000 C   0  0  0  0  0  0  0  0  0  0  0  0
   -0.7500   -1.2990    0.0000 C   0  0  0  0  0  0  0  0  0  0  0  0
    2.9918   -7.9510    0.0000 S   0  0  0  0  0  0  0  0  0  0  0  0
    6.5129  -13.5975    0.0000 O   0  0  0  0  0  0  0  0  0  0  0  0
  1  2  1  0
  2  3  1  0
  2  4  1  0
  2  5  1  0
  5  6  2  0
  6  7  1  0
  7  8  2  0
  8  9  1  0
  9 10  1  0
 10 11  1  0
 11 12  2  0
 12 13  1  0
 13 14  2  0
 14 15  1  0
 15 16  1  0
 16 17  2  0
 16 18  1  0
 18 19  1  0
 19 20  1  0
 20 21  2  0
 21 22  1  0
 22 23  2  0
 23 24  1  0
 24 25  2  0
 14 26  1  0
  8 27  1  0
 27  5  1  0
 26 11  1  0
 25 20  1  0
M  END
>  <Compound_ID>  (273) 
CHEMBL129475

>  <Active>  (273) 
1.0

>  <Smiles>  (273) 
CC(C)(C)c1cnc(CSc2cnc(NC(=O)OCc3ccccc3)s2)o1

>  <canonical_smi>  (273) 
CC(C)(C)c1cnc(CSc2cnc(NC(=O)OCc3ccccc3)s2)o1

>  <Set>  (273) 
G2 active

>  <Set_type>  (273) 
Train

>  <MW>  (273) 
403.53

>  <HBD>  (273) 
1

>  <HBA>  (273) 
6

>  <NRB>  (273) 
6

>  <NR>  (273) 
3

>  <NAR>  (273) 
3

>  <PSA>  (273) 
77.25

>  <Standard Type>  (273) 
nan

>  <Standard Relation>  (273) 
nan

>  <Standard Units>  (273) 
nan

>  <Standard Value>  (273) 
nan

>  <Assay ChEMBL ID>  (273) 
nan

>  <Assay Description>  (273) 
nan

>  <BAO Label>  (273) 
nan

$$$$

     RDKit          2D

 31 35  0  0  0  0  0  0  0  0999 V2000
   -9.6388   -8.7954    0.0000 C   0  0  0  0  0  0  0  0  0  0  0  0
   -8.8888   -7.4964    0.0000 N   0  0  0  0  0  0  0  0  0  0  0  0
   -9.6388   -6.1973    0.0000 C   0  0  0  0  0  0  0  0  0  0  0  0
   -8.8888   -4.8983    0.0000 C   0  0  0  0  0  0  0  0  0  0  0  0
   -7.3888   -4.8983    0.0000 N   0  0  0  0  0  0  0  0  0  0  0  0
   -6.6388   -3.5992    0.0000 S   0  0  0  0  0  0  0  0  0  0  0  0
   -7.9378   -2.8492    0.0000 O   0  0  0  0  0  0  0  0  0  0  0  0
   -5.3397   -4.3492    0.0000 O   0  0  0  0  0  0  0  0  0  0  0  0
   -5.8888   -2.3002    0.0000 C   0  0  0  0  0  0  0  0  0  0  0  0
   -4.3888   -2.3002    0.0000 C   0  0  0  0  0  0  0  0  0  0  0  0
   -3.6388   -1.0012    0.0000 C   0  0  0  0  0  0  0  0  0  0  0  0
   -4.3888    0.2979    0.0000 C   0  0  0  0  0  0  0  0  0  0  0  0
   -3.6388    1.5969    0.0000 N   0  0  0  0  0  0  0  0  0  0  0  0
   -4.2489    2.9672    0.0000 N   0  0  0  0  0  0  0  0  0  0  0  0
   -3.1342    3.9709    0.0000 C   0  0  0  0  0  0  0  0  0  0  0  0
   -3.2910    5.4627    0.0000 C   0  0  0  0  0  0  0  0  0  0  0  0
   -4.6613    6.0728    0.0000 N   0  0  0  0  0  0  0  0  0  0  0  0
   -2.0774    6.3444    0.0000 O   0  0  0  0  0  0  0  0  0  0  0  0
   -1.8351    3.2209    0.0000 C   0  0  0  0  0  0  0  0  0  0  0  0
   -0.4086    3.6844    0.0000 C   0  0  0  0  0  0  0  0  0  0  0  0
    0.7062    2.6807    0.0000 C   0  0  0  0  0  0  0  0  0  0  0  0
    0.3943    1.2135    0.0000 C   0  0  0  0  0  0  0  0  0  0  0  0
    1.2760    0.0000    0.0000 N   0  0  0  0  0  0  0  0  0  0  0  0
    0.3943   -1.2135    0.0000 N   0  0  0  0  0  0  0  0  0  0  0  0
   -1.0323   -0.7500    0.0000 C   0  0  0  0  0  0  0  0  0  0  0  0
   -1.0323    0.7500    0.0000 C   0  0  0  0  0  0  0  0  0  0  0  0
   -2.1470    1.7537    0.0000 C   0  0  0  0  0  0  0  0  0  0  0  0
   -5.8888    0.2979    0.0000 C   0  0  0  0  0  0  0  0  0  0  0  0
   -6.6388   -1.0012    0.0000 C   0  0  0  0  0  0  0  0  0  0  0  0
   -6.6388   -6.1973    0.0000 C   0  0  0  0  0  0  0  0  0  0  0  0
   -7.3888   -7.4964    0.0000 C   0  0  0  0  0  0  0  0  0  0  0  0
  1  2  1  0
  2  3  1  0
  3  4  1  0
  4  5  1  0
  5  6  1  0
  6  7  2  0
  6  8  2  0
  6  9  1  0
  9 10  2  0
 10 11  1  0
 11 12  2  0
 12 13  1  0
 13 14  1  0
 14 15  2  0
 15 16  1  0
 16 17  1  0
 16 18  2  0
 15 19  1  0
 19 20  2  0
 20 21  1  0
 21 22  2  0
 22 23  1  0
 23 24  1  0
 24 25  2  0
 25 26  1  0
 26 27  2  0
 12 28  1  0
 28 29  2  0
  5 30  1  0
 30 31  1  0
 31  2  1  0
 29  9  1  0
 27 13  1  0
 27 19  1  0
 26 22  1  0
M  END
>  <Compound_ID>  (274) 
CHEMBL360695

>  <Active>  (274) 
1.0

>  <Smiles>  (274) 
CN1CCN(S(=O)(=O)c2ccc(-n3nc(C(N)=O)c4ccc5[nH]ncc5c43)cc2)CC1

>  <canonical_smi>  (274) 
CN1CCN(S(=O)(=O)c2ccc(-n3nc(C(N)=O)c4ccc5[nH]ncc5c43)cc2)CC1

>  <Set>  (274) 
G2 active

>  <Set_type>  (274) 
Train

>  <MW>  (274) 
439.5

>  <HBD>  (274) 
2

>  <HBA>  (274) 
6

>  <NRB>  (274) 
4

>  <NR>  (274) 
5

>  <NAR>  (274) 
4

>  <PSA>  (274) 
130.21

>  <Standard Type>  (274) 
nan

>  <Standard Relation>  (274) 
nan

>  <Standard Units>  (274) 
nan

>  <Standard Value>  (274) 
nan

>  <Assay ChEMBL ID>  (274) 
nan

>  <Assay Description>  (274) 
nan

>  <BAO Label>  (274) 
nan

$$$$

     RDKit          2D

 30 33  0  0  0  0  0  0  0  0999 V2000
   -1.6317   -0.0855    0.0000 C   0  0  0  0  0  0  0  0  0  0  0  0
   -0.7500   -1.2990    0.0000 N   0  0  0  0  0  0  0  0  0  0  0  0
    0.7500   -1.2990    0.0000 C   0  0  0  0  0  0  0  0  0  0  0  0
    1.2135   -2.7256    0.0000 C   0  0  0  0  0  0  0  0  0  0  0  0
    2.6401   -3.1891    0.0000 C   0  0  0  0  0  0  0  0  0  0  0  0
    3.8536   -2.3075    0.0000 C   0  0  0  0  0  0  0  0  0  0  0  0
    3.8536   -0.8075    0.0000 C   0  0  0  0  0  0  0  0  0  0  0  0
    5.1527   -0.0575    0.0000 C   0  0  0  0  0  0  0  0  0  0  0  0
    5.1527    1.4425    0.0000 C   0  0  0  0  0  0  0  0  0  0  0  0
    3.8536    2.1925    0.0000 C   0  0  0  0  0  0  0  0  0  0  0  0
    2.5546    1.4425    0.0000 C   0  0  0  0  0  0  0  0  0  0  0  0
    1.2556    2.1925    0.0000 N   0  0  0  0  0  0  0  0  0  0  0  0
    1.2556    3.6925    0.0000 C   0  0  0  0  0  0  0  0  0  0  0  0
   -0.0435    4.4425    0.0000 C   0  0  0  0  0  0  0  0  0  0  0  0
   -1.3425    3.6925    0.0000 O   0  0  0  0  0  0  0  0  0  0  0  0
   -0.0435    5.9425    0.0000 C   0  0  0  0  0  0  0  0  0  0  0  0
   -1.3425    6.6925    0.0000 O   0  0  0  0  0  0  0  0  0  0  0  0
    2.5546   -0.0575    0.0000 C   0  0  0  0  0  0  0  0  0  0  0  0
    5.0672   -3.1891    0.0000 C   0  0  0  0  0  0  0  0  0  0  0  0
    6.4937   -2.7256    0.0000 O   0  0  0  0  0  0  0  0  0  0  0  0
    4.6036   -4.6157    0.0000 N   0  0  0  0  0  0  0  0  0  0  0  0
    3.1036   -4.6157    0.0000 C   0  0  0  0  0  0  0  0  0  0  0  0
    2.2220   -5.8293    0.0000 O   0  0  0  0  0  0  0  0  0  0  0  0
   -0.0000   -3.6073    0.0000 C   0  0  0  0  0  0  0  0  0  0  0  0
   -0.1568   -5.0991    0.0000 C   0  0  0  0  0  0  0  0  0  0  0  0
   -1.5271   -5.7092    0.0000 C   0  0  0  0  0  0  0  0  0  0  0  0
   -1.6839   -7.2010    0.0000 F   0  0  0  0  0  0  0  0  0  0  0  0
   -2.7406   -4.8275    0.0000 C   0  0  0  0  0  0  0  0  0  0  0  0
   -2.5838   -3.3357    0.0000 C   0  0  0  0  0  0  0  0  0  0  0  0
   -1.2135   -2.7256    0.0000 C   0  0  0  0  0  0  0  0  0  0  0  0
  1  2  1  0
  2  3  1  0
  3  4  2  0
  4  5  1  0
  5  6  2  0
  6  7  1  0
  7  8  2  0
  8  9  1  0
  9 10  2  0
 10 11  1  0
 11 12  1  0
 12 13  1  0
 13 14  1  0
 14 15  1  0
 14 16  1  0
 16 17  1  0
 11 18  2  0
  6 19  1  0
 19 20  2  0
 19 21  1  0
 21 22  1  0
 22 23  2  0
  4 24  1  0
 24 25  2  0
 25 26  1  0
 26 27  1  0
 26 28  2  0
 28 29  1  0
 29 30  2  0
 30  2  1  0
 22  5  1  0
 30 24  1  0
 18  7  1  0
M  END
>  <Compound_ID>  (275) 
CHEMBL1082152

>  <Active>  (275) 
1.0

>  <Smiles>  (275) 
Cn1cc(C2=C(c3cccc(NCC(O)CO)c3)C(=O)NC2=O)c2cc(F)ccc21

>  <canonical_smi>  (275) 
Cn1cc(C2=C(c3cccc(NCC(O)CO)c3)C(=O)NC2=O)c2cc(F)ccc21

>  <Set>  (275) 
G2 active

>  <Set_type>  (275) 
Train

>  <MW>  (275) 
409.42

>  <HBD>  (275) 
4

>  <HBA>  (275) 
5

>  <NRB>  (275) 
6

>  <NR>  (275) 
4

>  <NAR>  (275) 
3

>  <PSA>  (275) 
103.59

>  <Standard Type>  (275) 
nan

>  <Standard Relation>  (275) 
nan

>  <Standard Units>  (275) 
nan

>  <Standard Value>  (275) 
nan

>  <Assay ChEMBL ID>  (275) 
nan

>  <Assay Description>  (275) 
nan

>  <BAO Label>  (275) 
nan

$$$$

     RDKit          2D

 28 31  0  0  0  0  0  0  0  0999 V2000
    0.3207   -8.5658    0.0000 C   0  0  0  0  0  0  0  0  0  0  0  0
    0.4775   -7.0740    0.0000 C   0  0  0  0  0  0  0  0  0  0  0  0
    1.8478   -6.4639    0.0000 N   0  0  0  0  0  0  0  0  0  0  0  0
    2.0046   -4.9721    0.0000 C   0  0  0  0  0  0  0  0  0  0  0  0
    3.3037   -4.2221    0.0000 N   0  0  0  0  0  0  0  0  0  0  0  0
    2.9918   -2.7549    0.0000 C   0  0  0  0  0  0  0  0  0  0  0  0
    3.9955   -1.6402    0.0000 C   0  0  0  0  0  0  0  0  0  0  0  0
    1.5000   -2.5981    0.0000 C   0  0  0  0  0  0  0  0  0  0  0  0
    0.7500   -1.2990    0.0000 C   0  0  0  0  0  0  0  0  0  0  0  0
    1.5000    0.0000    0.0000 C   0  0  0  0  0  0  0  0  0  0  0  0
    0.7500    1.2990    0.0000 C   0  0  0  0  0  0  0  0  0  0  0  0
   -0.7500    1.2990    0.0000 N   0  0  0  0  0  0  0  0  0  0  0  0
   -1.5000    0.0000    0.0000 C   0  0  0  0  0  0  0  0  0  0  0  0
   -3.0000    0.0000    0.0000 N   0  0  0  0  0  0  0  0  0  0  0  0
   -3.7500    1.2990    0.0000 C   0  0  0  0  0  0  0  0  0  0  0  0
   -3.0000    2.5981    0.0000 C   0  0  0  0  0  0  0  0  0  0  0  0
   -3.7500    3.8971    0.0000 C   0  0  0  0  0  0  0  0  0  0  0  0
   -5.2500    3.8971    0.0000 C   0  0  0  0  0  0  0  0  0  0  0  0
   -6.0000    5.1962    0.0000 N   0  0  0  0  0  0  0  0  0  0  0  0
   -5.2500    6.4952    0.0000 C   0  0  0  0  0  0  0  0  0  0  0  0
   -6.0000    7.7942    0.0000 C   0  0  0  0  0  0  0  0  0  0  0  0
   -7.5000    7.7942    0.0000 O   0  0  0  0  0  0  0  0  0  0  0  0
   -8.2500    6.4952    0.0000 C   0  0  0  0  0  0  0  0  0  0  0  0
   -7.5000    5.1962    0.0000 C   0  0  0  0  0  0  0  0  0  0  0  0
   -6.0000    2.5981    0.0000 C   0  0  0  0  0  0  0  0  0  0  0  0
   -5.2500    1.2990    0.0000 C   0  0  0  0  0  0  0  0  0  0  0  0
   -0.7500   -1.2990    0.0000 N   0  0  0  0  0  0  0  0  0  0  0  0
    0.8899   -3.9684    0.0000 S   0  0  0  0  0  0  0  0  0  0  0  0
  1  2  1  0
  2  3  1  0
  3  4  1  0
  4  5  2  0
  5  6  1  0
  6  7  1  0
  6  8  2  0
  8  9  1  0
  9 10  2  0
 10 11  1  0
 11 12  2  0
 12 13  1  0
 13 14  1  0
 14 15  1  0
 15 16  2  0
 16 17  1  0
 17 18  2  0
 18 19  1  0
 19 20  1  0
 20 21  1  0
 21 22  1  0
 22 23  1  0
 23 24  1  0
 18 25  1  0
 25 26  2  0
 13 27  2  0
  8 28  1  0
 28  4  1  0
 27  9  1  0
 26 15  1  0
 24 19  1  0
M  END
>  <Compound_ID>  (276) 
CHEMBL1084630

>  <Active>  (276) 
1.0

>  <Smiles>  (276) 
CCNc1nc(C)c(-c2ccnc(Nc3ccc(N4CCOCC4)cc3)n2)s1

>  <canonical_smi>  (276) 
CCNc1nc(C)c(-c2ccnc(Nc3ccc(N4CCOCC4)cc3)n2)s1

>  <Set>  (276) 
G2 active

>  <Set_type>  (276) 
Train

>  <MW>  (276) 
396.52

>  <HBD>  (276) 
2

>  <HBA>  (276) 
7

>  <NRB>  (276) 
6

>  <NR>  (276) 
4

>  <NAR>  (276) 
3

>  <PSA>  (276) 
75.2

>  <Standard Type>  (276) 
nan

>  <Standard Relation>  (276) 
nan

>  <Standard Units>  (276) 
nan

>  <Standard Value>  (276) 
nan

>  <Assay ChEMBL ID>  (276) 
nan

>  <Assay Description>  (276) 
nan

>  <BAO Label>  (276) 
nan

$$$$

     RDKit          2D

 31 35  0  0  0  0  0  0  0  0999 V2000
    3.4430   -7.9964    0.0000 O   0  0  0  0  0  0  0  0  0  0  0  0
    3.7548   -6.5291    0.0000 C   0  0  0  0  0  0  0  0  0  0  0  0
    5.1814   -6.0656    0.0000 N   0  0  0  0  0  0  0  0  0  0  0  0
    6.2961   -7.0693    0.0000 C   0  0  0  0  0  0  0  0  0  0  0  0
    5.9843   -8.5365    0.0000 C   0  0  0  0  0  0  0  0  0  0  0  0
    7.0990   -9.5402    0.0000 C   0  0  0  0  0  0  0  0  0  0  0  0
    8.5256   -9.0767    0.0000 C   0  0  0  0  0  0  0  0  0  0  0  0
    8.8374   -7.6095    0.0000 N   0  0  0  0  0  0  0  0  0  0  0  0
    7.7227   -6.6058    0.0000 C   0  0  0  0  0  0  0  0  0  0  0  0
    2.6401   -5.5255    0.0000 N   0  0  0  0  0  0  0  0  0  0  0  0
    1.2135   -5.9890    0.0000 C   0  0  0  0  0  0  0  0  0  0  0  0
    0.7500   -7.4156    0.0000 C   0  0  0  0  0  0  0  0  0  0  0  0
   -0.7500   -7.4156    0.0000 N   0  0  0  0  0  0  0  0  0  0  0  0
   -1.2135   -5.9890    0.0000 N   0  0  0  0  0  0  0  0  0  0  0  0
   -0.0000   -5.1073    0.0000 C   0  0  0  0  0  0  0  0  0  0  0  0
   -0.0000   -3.6073    0.0000 C   0  0  0  0  0  0  0  0  0  0  0  0
    1.2135   -2.7256    0.0000 N   0  0  0  0  0  0  0  0  0  0  0  0
    0.7500   -1.2990    0.0000 C   0  0  0  0  0  0  0  0  0  0  0  0
    1.5000    0.0000    0.0000 C   0  0  0  0  0  0  0  0  0  0  0  0
    0.7500    1.2990    0.0000 C   0  0  0  0  0  0  0  0  0  0  0  0
    1.5000    2.5981    0.0000 C   0  0  0  0  0  0  0  0  0  0  0  0
    3.0000    2.5981    0.0000 N   0  0  0  0  0  0  0  0  0  0  0  0
    3.7500    1.2990    0.0000 C   0  0  0  0  0  0  0  0  0  0  0  0
    5.2500    1.2990    0.0000 C   0  0  0  0  0  0  0  0  0  0  0  0
    6.0000    2.5981    0.0000 O   0  0  0  0  0  0  0  0  0  0  0  0
    5.2500    3.8971    0.0000 C   0  0  0  0  0  0  0  0  0  0  0  0
    3.7500    3.8971    0.0000 C   0  0  0  0  0  0  0  0  0  0  0  0
   -0.7500    1.2990    0.0000 C   0  0  0  0  0  0  0  0  0  0  0  0
   -1.5000    0.0000    0.0000 C   0  0  0  0  0  0  0  0  0  0  0  0
   -0.7500   -1.2990    0.0000 C   0  0  0  0  0  0  0  0  0  0  0  0
   -1.2135   -2.7256    0.0000 N   0  0  0  0  0  0  0  0  0  0  0  0
  1  2  2  0
  2  3  1  0
  3  4  1  0
  4  5  2  0
  5  6  1  0
  6  7  2  0
  7  8  1  0
  8  9  2  0
  2 10  1  0
 10 11  1  0
 11 12  2  0
 12 13  1  0
 13 14  1  0
 14 15  2  0
 15 16  1  0
 16 17  2  0
 17 18  1  0
 18 19  2  0
 19 20  1  0
 20 21  1  0
 21 22  1  0
 22 23  1  0
 23 24  1  0
 24 25  1  0
 25 26  1  0
 26 27  1  0
 20 28  2  0
 28 29  1  0
 29 30  2  0
 30 31  1  0
  9  4  1  0
 15 11  1  0
 31 16  1  0
 30 18  1  0
 27 22  1  0
M  END
>  <Compound_ID>  (277) 
CHEMBL523923

>  <Active>  (277) 
1.0

>  <Smiles>  (277) 
O=C(Nc1cccnc1)Nc1c[nH]nc1-c1nc2cc(CN3CCOCC3)ccc2[nH]1

>  <canonical_smi>  (277) 
O=C(Nc1cccnc1)Nc1c[nH]nc1-c1nc2cc(CN3CCOCC3)ccc2[nH]1

>  <Set>  (277) 
G2 active

>  <Set_type>  (277) 
Train

>  <MW>  (277) 
418.46

>  <HBD>  (277) 
4

>  <HBA>  (277) 
6

>  <NRB>  (277) 
5

>  <NR>  (277) 
5

>  <NAR>  (277) 
4

>  <PSA>  (277) 
123.85

>  <Standard Type>  (277) 
nan

>  <Standard Relation>  (277) 
nan

>  <Standard Units>  (277) 
nan

>  <Standard Value>  (277) 
nan

>  <Assay ChEMBL ID>  (277) 
nan

>  <Assay Description>  (277) 
nan

>  <BAO Label>  (277) 
nan

$$$$

     RDKit          2D

 30 34  0  0  0  0  0  0  0  0999 V2000
   -1.7455   -5.5373    0.0000 C   0  0  0  0  0  0  0  0  0  0  0  0
   -0.7418   -6.6520    0.0000 N   0  0  0  0  0  0  0  0  0  0  0  0
   -1.0537   -8.1192    0.0000 N   0  0  0  0  0  0  0  0  0  0  0  0
    0.2454   -8.8692    0.0000 C   0  0  0  0  0  0  0  0  0  0  0  0
    1.3601   -7.8655    0.0000 C   0  0  0  0  0  0  0  0  0  0  0  0
    0.7500   -6.4952    0.0000 C   0  0  0  0  0  0  0  0  0  0  0  0
    1.5000   -5.1962    0.0000 C   0  0  0  0  0  0  0  0  0  0  0  0
    0.7500   -3.8971    0.0000 N   0  0  0  0  0  0  0  0  0  0  0  0
    1.5000   -2.5981    0.0000 C   0  0  0  0  0  0  0  0  0  0  0  0
    3.0000   -2.5981    0.0000 O   0  0  0  0  0  0  0  0  0  0  0  0
    0.7500   -1.2990    0.0000 C   0  0  0  0  0  0  0  0  0  0  0  0
    1.5000    0.0000    0.0000 C   0  0  0  0  0  0  0  0  0  0  0  0
    0.7500    1.2990    0.0000 C   0  0  0  0  0  0  0  0  0  0  0  0
   -0.7500    1.2990    0.0000 C   0  0  0  0  0  0  0  0  0  0  0  0
   -1.7537    2.4138    0.0000 C   0  0  0  0  0  0  0  0  0  0  0  0
   -3.1240    1.8037    0.0000 C   0  0  0  0  0  0  0  0  0  0  0  0
   -4.4231    2.5537    0.0000 C   0  0  0  0  0  0  0  0  0  0  0  0
   -5.7934    1.9435    0.0000 N   0  0  0  0  0  0  0  0  0  0  0  0
   -6.7971    3.0583    0.0000 N   0  0  0  0  0  0  0  0  0  0  0  0
   -6.0471    4.3573    0.0000 C   0  0  0  0  0  0  0  0  0  0  0  0
   -4.5798    4.0454    0.0000 C   0  0  0  0  0  0  0  0  0  0  0  0
   -3.4651    5.0491    0.0000 C   0  0  0  0  0  0  0  0  0  0  0  0
   -2.0385    4.5856    0.0000 C   0  0  0  0  0  0  0  0  0  0  0  0
   -0.9238    5.5893    0.0000 C   0  0  0  0  0  0  0  0  0  0  0  0
   -1.2357    7.0565    0.0000 C   0  0  0  0  0  0  0  0  0  0  0  0
   -2.6623    7.5200    0.0000 C   0  0  0  0  0  0  0  0  0  0  0  0
   -3.7770    6.5164    0.0000 C   0  0  0  0  0  0  0  0  0  0  0  0
   -2.9672    0.3119    0.0000 N   0  0  0  0  0  0  0  0  0  0  0  0
   -1.5000    0.0000    0.0000 C   0  0  0  0  0  0  0  0  0  0  0  0
   -0.7500   -1.2990    0.0000 C   0  0  0  0  0  0  0  0  0  0  0  0
  1  2  1  0
  2  3  1  0
  3  4  2  0
  4  5  1  0
  5  6  2  0
  6  7  1  0
  7  8  1  0
  8  9  1  0
  9 10  2  0
  9 11  1  0
 11 12  2  0
 12 13  1  0
 13 14  2  0
 14 15  1  0
 15 16  2  0
 16 17  1  0
 17 18  2  0
 18 19  1  0
 19 20  1  0
 20 21  2  0
 21 22  1  0
 22 23  2  0
 23 24  1  0
 24 25  2  0
 25 26  1  0
 26 27  2  0
 16 28  1  0
 28 29  1  0
 29 30  2  0
  6  2  1  0
 30 11  1  0
 29 14  1  0
 21 17  1  0
 27 22  1  0
M  END
>  <Compound_ID>  (278) 
CHEMBL1164262

>  <Active>  (278) 
1.0

>  <Smiles>  (278) 
Cn1nccc1CNC(=O)c1ccc2cc(-c3n[nH]cc3-c3ccccc3)[nH]c2c1

>  <canonical_smi>  (278) 
Cn1nccc1CNC(=O)c1ccc2cc(-c3n[nH]cc3-c3ccccc3)[nH]c2c1

>  <Set>  (278) 
G2 active

>  <Set_type>  (278) 
Train

>  <MW>  (278) 
396.45

>  <HBD>  (278) 
3

>  <HBA>  (278) 
3

>  <NRB>  (278) 
5

>  <NR>  (278) 
5

>  <NAR>  (278) 
5

>  <PSA>  (278) 
91.39

>  <Standard Type>  (278) 
nan

>  <Standard Relation>  (278) 
nan

>  <Standard Units>  (278) 
nan

>  <Standard Value>  (278) 
nan

>  <Assay ChEMBL ID>  (278) 
nan

>  <Assay Description>  (278) 
nan

>  <BAO Label>  (278) 
nan

$$$$

     RDKit          2D

 34 38  0  0  0  0  0  0  0  0999 V2000
   -2.2447   -8.9500    0.0000 C   0  0  0  0  0  0  0  0  0  0  0  0
   -2.5565   -7.4827    0.0000 N   0  0  0  0  0  0  0  0  0  0  0  0
   -1.4418   -6.4791    0.0000 C   0  0  0  0  0  0  0  0  0  0  0  0
   -0.0152   -6.9426    0.0000 O   0  0  0  0  0  0  0  0  0  0  0  0
   -1.7537   -5.0118    0.0000 C   0  0  0  0  0  0  0  0  0  0  0  0
   -3.1240   -4.4017    0.0000 N   0  0  0  0  0  0  0  0  0  0  0  0
   -2.9672   -2.9099    0.0000 N   0  0  0  0  0  0  0  0  0  0  0  0
   -4.0819   -1.9062    0.0000 C   0  0  0  0  0  0  0  0  0  0  0  0
   -1.5000   -2.5981    0.0000 C   0  0  0  0  0  0  0  0  0  0  0  0
   -0.7500   -3.8971    0.0000 C   0  0  0  0  0  0  0  0  0  0  0  0
    0.7500   -3.8971    0.0000 C   0  0  0  0  0  0  0  0  0  0  0  0
    2.1595   -4.4101    0.0000 C   0  0  0  0  0  0  0  0  0  0  0  0
    0.4895   -5.3743    0.0000 C   0  0  0  0  0  0  0  0  0  0  0  0
    1.5000   -2.5981    0.0000 C   0  0  0  0  0  0  0  0  0  0  0  0
    0.7500   -1.2990    0.0000 C   0  0  0  0  0  0  0  0  0  0  0  0
    1.5000    0.0000    0.0000 C   0  0  0  0  0  0  0  0  0  0  0  0
    0.7500    1.2990    0.0000 N   0  0  0  0  0  0  0  0  0  0  0  0
   -0.7500    1.2990    0.0000 C   0  0  0  0  0  0  0  0  0  0  0  0
   -1.5000    2.5981    0.0000 N   0  0  0  0  0  0  0  0  0  0  0  0
   -0.7500    3.8971    0.0000 C   0  0  0  0  0  0  0  0  0  0  0  0
    0.7500    3.8971    0.0000 C   0  0  0  0  0  0  0  0  0  0  0  0
    1.5000    5.1962    0.0000 C   0  0  0  0  0  0  0  0  0  0  0  0
    0.7500    6.4952    0.0000 C   0  0  0  0  0  0  0  0  0  0  0  0
   -0.7500    6.4952    0.0000 C   0  0  0  0  0  0  0  0  0  0  0  0
   -1.5000    7.7942    0.0000 C   0  0  0  0  0  0  0  0  0  0  0  0
   -0.7500    9.0933    0.0000 N   0  0  0  0  0  0  0  0  0  0  0  0
    0.7500    9.0933    0.0000 C   0  0  0  0  0  0  0  0  0  0  0  0
    1.5000   10.3923    0.0000 C   0  0  0  0  0  0  0  0  0  0  0  0
    0.7500   11.6913    0.0000 O   0  0  0  0  0  0  0  0  0  0  0  0
   -0.7500   11.6913    0.0000 C   0  0  0  0  0  0  0  0  0  0  0  0
   -1.5000   10.3923    0.0000 C   0  0  0  0  0  0  0  0  0  0  0  0
   -1.5000    5.1962    0.0000 C   0  0  0  0  0  0  0  0  0  0  0  0
   -1.5000    0.0000    0.0000 N   0  0  0  0  0  0  0  0  0  0  0  0
   -0.7500   -1.2990    0.0000 C   0  0  0  0  0  0  0  0  0  0  0  0
  1  2  1  0
  2  3  1  0
  3  4  2  0
  3  5  1  0
  5  6  2  0
  6  7  1  0
  7  8  1  0
  7  9  1  0
  9 10  2  0
 10 11  1  0
 11 12  1  0
 11 13  1  0
 11 14  1  0
 14 15  1  0
 15 16  2  0
 16 17  1  0
 17 18  2  0
 18 19  1  0
 19 20  1  0
 20 21  2  0
 21 22  1  0
 22 23  2  0
 23 24  1  0
 24 25  1  0
 25 26  1  0
 26 27  1  0
 27 28  1  0
 28 29  1  0
 29 30  1  0
 30 31  1  0
 24 32  2  0
 18 33  1  0
 33 34  2  0
 10  5  1  0
 34 15  1  0
 34  9  1  0
 32 20  1  0
 31 26  1  0
M  END
>  <Compound_ID>  (279) 
CHEMBL565160

>  <Active>  (279) 
1.0

>  <Smiles>  (279) 
CNC(=O)c1nn(C)c2c1C(C)(C)Cc1cnc(Nc3cccc(CN4CCOCC4)c3)nc1-2

>  <canonical_smi>  (279) 
CNC(=O)c1nn(C)c2c1C(C)(C)Cc1cnc(Nc3cccc(CN4CCOCC4)c3)nc1-2

>  <Set>  (279) 
G2 active

>  <Set_type>  (279) 
Train

>  <MW>  (279) 
461.57

>  <HBD>  (279) 
2

>  <HBA>  (279) 
7

>  <NRB>  (279) 
5

>  <NR>  (279) 
5

>  <NAR>  (279) 
3

>  <PSA>  (279) 
97.2

>  <Standard Type>  (279) 
nan

>  <Standard Relation>  (279) 
nan

>  <Standard Units>  (279) 
nan

>  <Standard Value>  (279) 
nan

>  <Assay ChEMBL ID>  (279) 
nan

>  <Assay Description>  (279) 
nan

>  <BAO Label>  (279) 
nan

$$$$

     RDKit          2D

 23 26  0  0  0  0  0  0  0  0999 V2000
   -3.7500   -3.8971    0.0000 O   0  0  0  0  0  0  0  0  0  0  0  0
   -3.0000   -5.1962    0.0000 C   0  0  0  0  0  0  0  0  0  0  0  0
   -1.5000   -5.1962    0.0000 N   0  0  0  0  0  0  0  0  0  0  0  0
   -0.7500   -3.8971    0.0000 C   0  0  0  0  0  0  0  0  0  0  0  0
    0.7500   -3.8971    0.0000 C   0  0  0  0  0  0  0  0  0  0  0  0
    1.5000   -2.5981    0.0000 C   0  0  0  0  0  0  0  0  0  0  0  0
    0.7500   -1.2990    0.0000 C   0  0  0  0  0  0  0  0  0  0  0  0
    1.5000    0.0000    0.0000 N   0  0  0  0  0  0  0  0  0  0  0  0
    0.7500    1.2990    0.0000 C   0  0  0  0  0  0  0  0  0  0  0  0
   -0.7500    1.2990    0.0000 C   0  0  0  0  0  0  0  0  0  0  0  0
   -1.5000    0.0000    0.0000 C   0  0  0  0  0  0  0  0  0  0  0  0
   -0.7500   -1.2990    0.0000 C   0  0  0  0  0  0  0  0  0  0  0  0
   -1.5000   -2.5981    0.0000 C   0  0  0  0  0  0  0  0  0  0  0  0
   -3.7500   -6.4952    0.0000 N   0  0  0  0  0  0  0  0  0  0  0  0
   -5.2500   -6.4952    0.0000 C   0  0  0  0  0  0  0  0  0  0  0  0
   -6.1317   -7.7087    0.0000 N   0  0  0  0  0  0  0  0  0  0  0  0
   -7.5583   -7.2452    0.0000 C   0  0  0  0  0  0  0  0  0  0  0  0
   -7.5583   -5.7452    0.0000 C   0  0  0  0  0  0  0  0  0  0  0  0
   -8.7718   -4.8635    0.0000 C   0  0  0  0  0  0  0  0  0  0  0  0
   -9.0064   -3.3820    0.0000 C   0  0  0  0  0  0  0  0  0  0  0  0
  -10.4880   -3.6166    0.0000 C   0  0  0  0  0  0  0  0  0  0  0  0
  -10.2533   -5.0982    0.0000 C   0  0  0  0  0  0  0  0  0  0  0  0
   -6.1317   -5.2817    0.0000 S   0  0  0  0  0  0  0  0  0  0  0  0
  1  2  2  0
  2  3  1  0
  3  4  1  0
  4  5  2  0
  5  6  1  0
  6  7  2  0
  7  8  1  0
  8  9  2  0
  9 10  1  0
 10 11  2  0
 11 12  1  0
 12 13  2  0
  2 14  1  0
 14 15  1  0
 15 16  2  0
 16 17  1  0
 17 18  2  0
 18 19  1  0
 19 20  1  0
 20 21  1  0
 21 22  1  0
 18 23  1  0
 13  4  1  0
 23 15  1  0
 12  7  1  0
 22 19  1  0
M  END
>  <Compound_ID>  (280) 
CHEMBL187015

>  <Active>  (280) 
1.0

>  <Smiles>  (280) 
O=C(Nc1ccc2ncccc2c1)Nc1ncc(C2CCC2)s1

>  <canonical_smi>  (280) 
O=C(Nc1ccc2ncccc2c1)Nc1ncc(C2CCC2)s1

>  <Set>  (280) 
G2 active

>  <Set_type>  (280) 
Train

>  <MW>  (280) 
324.41

>  <HBD>  (280) 
2

>  <HBA>  (280) 
3

>  <NRB>  (280) 
3

>  <NR>  (280) 
4

>  <NAR>  (280) 
3

>  <PSA>  (280) 
66.91

>  <Standard Type>  (280) 
nan

>  <Standard Relation>  (280) 
nan

>  <Standard Units>  (280) 
nan

>  <Standard Value>  (280) 
nan

>  <Assay ChEMBL ID>  (280) 
nan

>  <Assay Description>  (280) 
nan

>  <BAO Label>  (280) 
nan

$$$$

     RDKit          2D

 23 26  0  0  0  0  0  0  0  0999 V2000
   -3.7500   -3.8971    0.0000 O   0  0  0  0  0  0  0  0  0  0  0  0
   -3.0000   -5.1962    0.0000 C   0  0  0  0  0  0  0  0  0  0  0  0
   -1.5000   -5.1962    0.0000 N   0  0  0  0  0  0  0  0  0  0  0  0
   -0.7500   -3.8971    0.0000 C   0  0  0  0  0  0  0  0  0  0  0  0
    0.7500   -3.8971    0.0000 C   0  0  0  0  0  0  0  0  0  0  0  0
    1.5000   -2.5981    0.0000 C   0  0  0  0  0  0  0  0  0  0  0  0
    0.7500   -1.2990    0.0000 C   0  0  0  0  0  0  0  0  0  0  0  0
    1.5000    0.0000    0.0000 C   0  0  0  0  0  0  0  0  0  0  0  0
    0.7500    1.2990    0.0000 N   0  0  0  0  0  0  0  0  0  0  0  0
   -0.7500    1.2990    0.0000 C   0  0  0  0  0  0  0  0  0  0  0  0
   -1.5000    0.0000    0.0000 C   0  0  0  0  0  0  0  0  0  0  0  0
   -0.7500   -1.2990    0.0000 C   0  0  0  0  0  0  0  0  0  0  0  0
   -1.5000   -2.5981    0.0000 C   0  0  0  0  0  0  0  0  0  0  0  0
   -3.7500   -6.4952    0.0000 N   0  0  0  0  0  0  0  0  0  0  0  0
   -5.2500   -6.4952    0.0000 C   0  0  0  0  0  0  0  0  0  0  0  0
   -6.1317   -7.7087    0.0000 N   0  0  0  0  0  0  0  0  0  0  0  0
   -7.5583   -7.2452    0.0000 C   0  0  0  0  0  0  0  0  0  0  0  0
   -7.5583   -5.7452    0.0000 C   0  0  0  0  0  0  0  0  0  0  0  0
   -8.7718   -4.8635    0.0000 C   0  0  0  0  0  0  0  0  0  0  0  0
   -9.0064   -3.3820    0.0000 C   0  0  0  0  0  0  0  0  0  0  0  0
  -10.4880   -3.6166    0.0000 C   0  0  0  0  0  0  0  0  0  0  0  0
  -10.2533   -5.0982    0.0000 C   0  0  0  0  0  0  0  0  0  0  0  0
   -6.1317   -5.2817    0.0000 S   0  0  0  0  0  0  0  0  0  0  0  0
  1  2  2  0
  2  3  1  0
  3  4  1  0
  4  5  2  0
  5  6  1  0
  6  7  2  0
  7  8  1  0
  8  9  2  0
  9 10  1  0
 10 11  2  0
 11 12  1  0
 12 13  2  0
  2 14  1  0
 14 15  1  0
 15 16  2  0
 16 17  1  0
 17 18  2  0
 18 19  1  0
 19 20  1  0
 20 21  1  0
 21 22  1  0
 18 23  1  0
 13  4  1  0
 23 15  1  0
 12  7  1  0
 22 19  1  0
M  END
>  <Compound_ID>  (281) 
CHEMBL359591

>  <Active>  (281) 
1.0

>  <Smiles>  (281) 
O=C(Nc1ccc2cnccc2c1)Nc1ncc(C2CCC2)s1

>  <canonical_smi>  (281) 
O=C(Nc1ccc2cnccc2c1)Nc1ncc(C2CCC2)s1

>  <Set>  (281) 
G2 active

>  <Set_type>  (281) 
Train

>  <MW>  (281) 
324.41

>  <HBD>  (281) 
2

>  <HBA>  (281) 
3

>  <NRB>  (281) 
3

>  <NR>  (281) 
4

>  <NAR>  (281) 
3

>  <PSA>  (281) 
66.91

>  <Standard Type>  (281) 
nan

>  <Standard Relation>  (281) 
nan

>  <Standard Units>  (281) 
nan

>  <Standard Value>  (281) 
nan

>  <Assay ChEMBL ID>  (281) 
nan

>  <Assay Description>  (281) 
nan

>  <BAO Label>  (281) 
nan

$$$$

     RDKit          2D

 25 28  0  0  0  0  0  0  0  0999 V2000
   -1.8373   -5.6601    0.0000 O   0  0  0  0  0  0  0  0  0  0  0  0
   -2.9520   -4.6564    0.0000 C   0  0  0  0  0  0  0  0  0  0  0  0
   -4.3786   -5.1199    0.0000 C   0  0  0  0  0  0  0  0  0  0  0  0
   -4.6904   -6.5871    0.0000 C   0  0  0  0  0  0  0  0  0  0  0  0
   -6.1170   -7.0506    0.0000 C   0  0  0  0  0  0  0  0  0  0  0  0
   -6.4289   -8.5179    0.0000 C   0  0  0  0  0  0  0  0  0  0  0  0
   -5.3142   -9.5216    0.0000 C   0  0  0  0  0  0  0  0  0  0  0  0
   -3.8876   -9.0580    0.0000 C   0  0  0  0  0  0  0  0  0  0  0  0
   -3.5757   -7.5908    0.0000 C   0  0  0  0  0  0  0  0  0  0  0  0
   -2.6401   -3.1891    0.0000 N   0  0  0  0  0  0  0  0  0  0  0  0
   -1.2135   -2.7256    0.0000 C   0  0  0  0  0  0  0  0  0  0  0  0
   -0.0000   -3.6073    0.0000 N   0  0  0  0  0  0  0  0  0  0  0  0
    1.2135   -2.7256    0.0000 N   0  0  0  0  0  0  0  0  0  0  0  0
    0.7500   -1.2990    0.0000 C   0  0  0  0  0  0  0  0  0  0  0  0
    1.5000    0.0000    0.0000 C   0  0  0  0  0  0  0  0  0  0  0  0
    0.7500    1.2990    0.0000 C   0  0  0  0  0  0  0  0  0  0  0  0
   -0.7500    1.2990    0.0000 C   0  0  0  0  0  0  0  0  0  0  0  0
   -1.5000    2.5981    0.0000 N   0  0  0  0  0  0  0  0  0  0  0  0
   -2.9918    2.7549    0.0000 C   0  0  0  0  0  0  0  0  0  0  0  0
   -3.3037    4.2221    0.0000 C   0  0  0  0  0  0  0  0  0  0  0  0
   -2.0046    4.9721    0.0000 C   0  0  0  0  0  0  0  0  0  0  0  0
   -0.8899    3.9684    0.0000 C   0  0  0  0  0  0  0  0  0  0  0  0
    0.5773    4.2803    0.0000 O   0  0  0  0  0  0  0  0  0  0  0  0
   -1.5000    0.0000    0.0000 C   0  0  0  0  0  0  0  0  0  0  0  0
   -0.7500   -1.2990    0.0000 C   0  0  0  0  0  0  0  0  0  0  0  0
  1  2  2  0
  2  3  1  0
  3  4  1  0
  4  5  2  0
  5  6  1  0
  6  7  2  0
  7  8  1  0
  8  9  2  0
  2 10  1  0
 10 11  1  0
 11 12  2  0
 12 13  1  0
 13 14  1  0
 14 15  2  0
 15 16  1  0
 16 17  2  0
 17 18  1  0
 18 19  1  0
 19 20  1  0
 20 21  1  0
 21 22  1  0
 22 23  2  0
 17 24  1  0
 24 25  2  0
  9  4  1  0
 25 11  1  0
 25 14  1  0
 22 18  1  0
M  END
>  <Compound_ID>  (282) 
CHEMBL404747

>  <Active>  (282) 
1.0

>  <Smiles>  (282) 
O=C(Cc1ccccc1)Nc1n[nH]c2ccc(N3CCCC3=O)cc12

>  <canonical_smi>  (282) 
O=C(Cc1ccccc1)Nc1n[nH]c2ccc(N3CCCC3=O)cc12

>  <Set>  (282) 
G2 active

>  <Set_type>  (282) 
Train

>  <MW>  (282) 
334.38

>  <HBD>  (282) 
2

>  <HBA>  (282) 
3

>  <NRB>  (282) 
4

>  <NR>  (282) 
4

>  <NAR>  (282) 
3

>  <PSA>  (282) 
78.09

>  <Standard Type>  (282) 
nan

>  <Standard Relation>  (282) 
nan

>  <Standard Units>  (282) 
nan

>  <Standard Value>  (282) 
nan

>  <Assay ChEMBL ID>  (282) 
nan

>  <Assay Description>  (282) 
nan

>  <BAO Label>  (282) 
nan

$$$$

     RDKit          2D

 37 41  0  0  0  0  0  0  0  0999 V2000
    7.5000   -2.5981    0.0000 C   0  0  0  0  0  0  0  0  0  0  0  0
    6.0000   -2.5981    0.0000 C   0  0  0  0  0  0  0  0  0  0  0  0
    5.2500   -3.8971    0.0000 C   0  0  0  0  0  0  0  0  0  0  0  0
    3.7500   -3.8971    0.0000 N   0  0  0  0  0  0  0  0  0  0  0  0
    3.0000   -2.5981    0.0000 C   0  0  0  0  0  0  0  0  0  0  0  0
    1.5000   -2.5981    0.0000 N   0  0  0  0  0  0  0  0  0  0  0  0
    0.7500   -1.2990    0.0000 C   0  0  0  0  0  0  0  0  0  0  0  0
    1.5000    0.0000    0.0000 C   0  0  0  0  0  0  0  0  0  0  0  0
    0.7500    1.2990    0.0000 C   0  0  0  0  0  0  0  0  0  0  0  0
   -0.7500    1.2990    0.0000 C   0  0  0  0  0  0  0  0  0  0  0  0
   -1.5000    0.0000    0.0000 C   0  0  0  0  0  0  0  0  0  0  0  0
   -0.7500   -1.2990    0.0000 C   0  0  0  0  0  0  0  0  0  0  0  0
   -1.7537   -2.4138    0.0000 O   0  0  0  0  0  0  0  0  0  0  0  0
   -3.1240   -1.8037    0.0000 C   0  0  0  0  0  0  0  0  0  0  0  0
   -3.5875   -3.2302    0.0000 F   0  0  0  0  0  0  0  0  0  0  0  0
   -4.5912   -1.4918    0.0000 F   0  0  0  0  0  0  0  0  0  0  0  0
   -2.9672   -0.3119    0.0000 O   0  0  0  0  0  0  0  0  0  0  0  0
    3.7500   -1.2990    0.0000 N   0  0  0  0  0  0  0  0  0  0  0  0
    5.2500   -1.2990    0.0000 C   0  0  0  0  0  0  0  0  0  0  0  0
    6.0000   -0.0000    0.0000 C   0  0  0  0  0  0  0  0  0  0  0  0
    5.3899    1.3703    0.0000 C   0  0  0  0  0  0  0  0  0  0  0  0
    6.5046    2.3740    0.0000 N   0  0  0  0  0  0  0  0  0  0  0  0
    7.8037    1.6240    0.0000 C   0  0  0  0  0  0  0  0  0  0  0  0
    9.1740    2.2341    0.0000 C   0  0  0  0  0  0  0  0  0  0  0  0
    9.3308    3.7259    0.0000 O   0  0  0  0  0  0  0  0  0  0  0  0
   10.3875    1.3524    0.0000 N   0  0  0  0  0  0  0  0  0  0  0  0
   11.7578    1.9625    0.0000 C   0  0  0  0  0  0  0  0  0  0  0  0
   11.9146    3.4543    0.0000 C   0  0  0  0  0  0  0  0  0  0  0  0
   13.2849    4.0644    0.0000 O   0  0  0  0  0  0  0  0  0  0  0  0
   12.9713    1.0809    0.0000 C   0  0  0  0  0  0  0  0  0  0  0  0
   12.8145   -0.4109    0.0000 C   0  0  0  0  0  0  0  0  0  0  0  0
   14.0281   -1.2926    0.0000 C   0  0  0  0  0  0  0  0  0  0  0  0
   15.3984   -0.6825    0.0000 C   0  0  0  0  0  0  0  0  0  0  0  0
   15.5552    0.8093    0.0000 C   0  0  0  0  0  0  0  0  0  0  0  0
   16.9255    1.4194    0.0000 Cl  0  0  0  0  0  0  0  0  0  0  0  0
   14.3417    1.6910    0.0000 C   0  0  0  0  0  0  0  0  0  0  0  0
    7.4918    0.1568    0.0000 C   0  0  0  0  0  0  0  0  0  0  0  0
  1  2  1  0
  2  3  2  0
  3  4  1  0
  4  5  2  0
  5  6  1  0
  6  7  1  0
  7  8  2  0
  8  9  1  0
  9 10  2  0
 10 11  1  0
 11 12  2  0
 12 13  1  0
 13 14  1  0
 14 15  1  0
 14 16  1  0
 14 17  1  0
  5 18  1  0
 18 19  2  0
 19 20  1  0
 20 21  2  0
 21 22  1  0
 22 23  1  0
 23 24  1  0
 24 25  2  0
 24 26  1  0
 26 27  1  0
 27 28  1  6
 28 29  1  0
 27 30  1  0
 30 31  2  0
 31 32  1  0
 32 33  2  0
 33 34  1  0
 34 35  1  0
 34 36  2  0
 23 37  2  0
 19  2  1  0
 37 20  1  0
 12  7  1  0
 36 30  1  0
 17 11  1  0
M  END
>  <Compound_ID>  (283) 
CHEMBL576683

>  <Active>  (283) 
1.0

>  <Smiles>  (283) 
Cc1cnc(Nc2cccc3c2OC(F)(F)O3)nc1-c1c[nH]c(C(=O)N[C@H](CO)c2cccc(Cl)c2)c1

>  <canonical_smi>  (283) 
Cc1cnc(Nc2cccc3c2OC(F)(F)O3)nc1-c1c[nH]c(C(=O)N[C@H](CO)c2cccc(Cl)c2)c1

>  <Set>  (283) 
G2 active

>  <Set_type>  (283) 
Train

>  <MW>  (283) 
527.92

>  <HBD>  (283) 
4

>  <HBA>  (283) 
7

>  <NRB>  (283) 
7

>  <NR>  (283) 
5

>  <NAR>  (283) 
4

>  <PSA>  (283) 
121.39

>  <Standard Type>  (283) 
nan

>  <Standard Relation>  (283) 
nan

>  <Standard Units>  (283) 
nan

>  <Standard Value>  (283) 
nan

>  <Assay ChEMBL ID>  (283) 
nan

>  <Assay Description>  (283) 
nan

>  <BAO Label>  (283) 
nan

$$$$

     RDKit          2D

 29 33  0  0  0  0  0  0  0  0999 V2000
   -1.5000   -5.1962    0.0000 O   0  0  0  0  0  0  0  0  0  0  0  0
   -0.7500   -3.8971    0.0000 C   0  0  0  0  0  0  0  0  0  0  0  0
    0.7500   -3.8971    0.0000 C   0  0  0  0  0  0  0  0  0  0  0  0
    1.5000   -2.5981    0.0000 C   0  0  0  0  0  0  0  0  0  0  0  0
    0.7500   -1.2990    0.0000 C   0  0  0  0  0  0  0  0  0  0  0  0
    1.5000    0.0000    0.0000 C   0  0  0  0  0  0  0  0  0  0  0  0
    0.7500    1.2990    0.0000 N   0  0  0  0  0  0  0  0  0  0  0  0
   -0.7500    1.2990    0.0000 C   0  0  0  0  0  0  0  0  0  0  0  0
   -1.5000    2.5981    0.0000 N   0  0  0  0  0  0  0  0  0  0  0  0
   -0.7500    3.8971    0.0000 C   0  0  0  0  0  0  0  0  0  0  0  0
    0.7500    3.8971    0.0000 C   0  0  0  0  0  0  0  0  0  0  0  0
    1.5000    5.1962    0.0000 C   0  0  0  0  0  0  0  0  0  0  0  0
    0.7500    6.4952    0.0000 C   0  0  0  0  0  0  0  0  0  0  0  0
    1.5000    7.7942    0.0000 N   0  0  0  0  0  0  0  0  0  0  0  0
    3.0000    7.7942    0.0000 C   0  0  0  0  0  0  0  0  0  0  0  0
    3.7500    9.0933    0.0000 C   0  0  0  0  0  0  0  0  0  0  0  0
    3.0000   10.3923    0.0000 O   0  0  0  0  0  0  0  0  0  0  0  0
    1.5000   10.3923    0.0000 C   0  0  0  0  0  0  0  0  0  0  0  0
    0.7500    9.0933    0.0000 C   0  0  0  0  0  0  0  0  0  0  0  0
   -0.7500    6.4952    0.0000 C   0  0  0  0  0  0  0  0  0  0  0  0
   -1.5000    5.1962    0.0000 C   0  0  0  0  0  0  0  0  0  0  0  0
   -1.5000    0.0000    0.0000 N   0  0  0  0  0  0  0  0  0  0  0  0
   -0.7500   -1.2990    0.0000 C   0  0  0  0  0  0  0  0  0  0  0  0
   -1.5000   -2.5981    0.0000 C   0  0  0  0  0  0  0  0  0  0  0  0
   -3.0000   -2.5981    0.0000 C   0  0  0  0  0  0  0  0  0  0  0  0
   -3.8817   -3.8116    0.0000 C   0  0  0  0  0  0  0  0  0  0  0  0
   -5.3083   -3.3481    0.0000 C   0  0  0  0  0  0  0  0  0  0  0  0
   -5.3083   -1.8481    0.0000 C   0  0  0  0  0  0  0  0  0  0  0  0
   -3.8817   -1.3846    0.0000 C   0  0  0  0  0  0  0  0  0  0  0  0
  1  2  1  0
  2  3  2  0
  3  4  1  0
  4  5  2  0
  5  6  1  0
  6  7  2  0
  7  8  1  0
  8  9  1  0
  9 10  1  0
 10 11  2  0
 11 12  1  0
 12 13  2  0
 13 14  1  0
 14 15  1  0
 15 16  1  0
 16 17  1  0
 17 18  1  0
 18 19  1  0
 13 20  1  0
 20 21  2  0
  8 22  2  0
 22 23  1  0
 23 24  2  0
 24 25  1  0
 25 26  1  0
 26 27  1  0
 27 28  1  0
 28 29  1  0
 24  2  1  0
 29 25  1  0
 23  5  1  0
 21 10  1  0
 19 14  1  0
M  END
>  <Compound_ID>  (284) 
CHEMBL180341

>  <Active>  (284) 
1.0

>  <Smiles>  (284) 
Oc1ccc2cnc(Nc3ccc(N4CCOCC4)cc3)nc2c1C1CCCC1

>  <canonical_smi>  (284) 
Oc1ccc2cnc(Nc3ccc(N4CCOCC4)cc3)nc2c1C1CCCC1

>  <Set>  (284) 
G2 active

>  <Set_type>  (284) 
Train

>  <MW>  (284) 
390.49

>  <HBD>  (284) 
2

>  <HBA>  (284) 
6

>  <NRB>  (284) 
4

>  <NR>  (284) 
5

>  <NAR>  (284) 
3

>  <PSA>  (284) 
70.51

>  <Standard Type>  (284) 
nan

>  <Standard Relation>  (284) 
nan

>  <Standard Units>  (284) 
nan

>  <Standard Value>  (284) 
nan

>  <Assay ChEMBL ID>  (284) 
nan

>  <Assay Description>  (284) 
nan

>  <BAO Label>  (284) 
nan

$$$$

     RDKit          2D

 34 39  0  0  0  0  0  0  0  0999 V2000
    3.7385    5.7246    0.0000 O   0  0  0  0  0  0  0  0  0  0  0  0
    4.0503    4.2574    0.0000 C   0  0  0  0  0  0  0  0  0  0  0  0
    5.4769    3.7939    0.0000 N   0  0  0  0  0  0  0  0  0  0  0  0
    6.5916    4.7976    0.0000 C   0  0  0  0  0  0  0  0  0  0  0  0
    6.4348    6.2893    0.0000 C   0  0  0  0  0  0  0  0  0  0  0  0
    7.8051    6.8994    0.0000 C   0  0  0  0  0  0  0  0  0  0  0  0
    8.1170    8.3667    0.0000 C   0  0  0  0  0  0  0  0  0  0  0  0
    9.5436    8.8302    0.0000 N   0  0  0  0  0  0  0  0  0  0  0  0
    9.8555   10.2974    0.0000 C   0  0  0  0  0  0  0  0  0  0  0  0
   11.2258   10.9075    0.0000 C   0  0  0  0  0  0  0  0  0  0  0  0
   11.0690   12.3993    0.0000 C   0  0  0  0  0  0  0  0  0  0  0  0
   12.0727   13.5140    0.0000 C   0  0  0  0  0  0  0  0  0  0  0  0
   11.6092   14.9406    0.0000 C   0  0  0  0  0  0  0  0  0  0  0  0
   10.1419   15.2525    0.0000 C   0  0  0  0  0  0  0  0  0  0  0  0
    9.6784   16.6791    0.0000 Cl  0  0  0  0  0  0  0  0  0  0  0  0
    9.1382   14.1378    0.0000 C   0  0  0  0  0  0  0  0  0  0  0  0
    9.6018   12.7112    0.0000 C   0  0  0  0  0  0  0  0  0  0  0  0
    8.8518   11.4121    0.0000 C   0  0  0  0  0  0  0  0  0  0  0  0
    8.8088    5.7847    0.0000 N   0  0  0  0  0  0  0  0  0  0  0  0
    8.0588    4.4857    0.0000 N   0  0  0  0  0  0  0  0  0  0  0  0
    2.9356    3.2537    0.0000 N   0  0  0  0  0  0  0  0  0  0  0  0
    1.5090    3.7172    0.0000 C   0  0  0  0  0  0  0  0  0  0  0  0
    1.1971    5.1844    0.0000 C   0  0  0  0  0  0  0  0  0  0  0  0
   -0.2294    5.6480    0.0000 C   0  0  0  0  0  0  0  0  0  0  0  0
   -1.3442    4.6443    0.0000 C   0  0  0  0  0  0  0  0  0  0  0  0
   -1.0323    3.1771    0.0000 C   0  0  0  0  0  0  0  0  0  0  0  0
    0.3943    2.7135    0.0000 C   0  0  0  0  0  0  0  0  0  0  0  0
    0.3943    1.2135    0.0000 C   0  0  0  0  0  0  0  0  0  0  0  0
    1.2760    0.0000    0.0000 C   0  0  0  0  0  0  0  0  0  0  0  0
    0.3943   -1.2135    0.0000 C   0  0  0  0  0  0  0  0  0  0  0  0
   -1.0323   -0.7500    0.0000 C   0  0  0  0  0  0  0  0  0  0  0  0
   -1.0323    0.7500    0.0000 N   0  0  0  0  0  0  0  0  0  0  0  0
   -1.9140    1.9635    0.0000 C   0  0  0  0  0  0  0  0  0  0  0  0
   -3.4140    1.9635    0.0000 O   0  0  0  0  0  0  0  0  0  0  0  0
  1  2  2  0
  2  3  1  0
  3  4  1  0
  4  5  2  0
  5  6  1  0
  6  7  1  0
  7  8  1  0
  9  8  1  6
  9 10  1  0
 10 11  1  0
 11 12  2  0
 12 13  1  0
 13 14  2  0
 14 15  1  0
 14 16  1  0
 16 17  2  0
 17 18  1  0
  6 19  2  0
 19 20  1  0
  2 21  1  0
 21 22  1  0
 22 23  2  0
 23 24  1  0
 24 25  2  0
 25 26  1  0
 26 27  2  0
 27 28  1  0
 28 29  1  1
 29 30  1  0
 30 31  1  0
 31 32  1  0
 32 33  1  0
 33 34  2  0
 20  4  1  0
 27 22  1  0
 32 28  1  0
 18  9  1  0
 33 26  1  0
 17 11  1  0
M  END
>  <Compound_ID>  (285) 
CHEMBL143748

>  <Active>  (285) 
1.0

>  <Smiles>  (285) 
O=C(Nc1cc(CN[C@H]2Cc3ccc(Cl)cc3C2)n[nH]1)Nc1cccc2c1[C@H]1CCCN1C2=O

>  <canonical_smi>  (285) 
O=C(Nc1cc(CN[C@H]2Cc3ccc(Cl)cc3C2)n[nH]1)Nc1cccc2c1[C@H]1CCCN1C2=O

>  <Set>  (285) 
G2 active

>  <Set_type>  (285) 
Train

>  <MW>  (285) 
476.97

>  <HBD>  (285) 
4

>  <HBA>  (285) 
4

>  <NRB>  (285) 
5

>  <NR>  (285) 
6

>  <NAR>  (285) 
3

>  <PSA>  (285) 
102.15

>  <Standard Type>  (285) 
nan

>  <Standard Relation>  (285) 
nan

>  <Standard Units>  (285) 
nan

>  <Standard Value>  (285) 
nan

>  <Assay ChEMBL ID>  (285) 
nan

>  <Assay Description>  (285) 
nan

>  <BAO Label>  (285) 
nan

$$$$

     RDKit          2D

 29 31  0  0  0  0  0  0  0  0999 V2000
    3.7500   -6.4952    0.0000 C   0  0  0  0  0  0  0  0  0  0  0  0
    3.0000   -5.1962    0.0000 N   0  0  0  0  0  0  0  0  0  0  0  0
    3.7500   -3.8971    0.0000 C   0  0  0  0  0  0  0  0  0  0  0  0
    3.0000   -2.5981    0.0000 C   0  0  0  0  0  0  0  0  0  0  0  0
    3.7500   -1.2990    0.0000 N   0  0  0  0  0  0  0  0  0  0  0  0
    5.2500   -1.2990    0.0000 C   0  0  0  0  0  0  0  0  0  0  0  0
    3.0000    0.0000    0.0000 C   0  0  0  0  0  0  0  0  0  0  0  0
    3.7500    1.2990    0.0000 O   0  0  0  0  0  0  0  0  0  0  0  0
    1.5000    0.0000    0.0000 C   0  0  0  0  0  0  0  0  0  0  0  0
    0.7500   -1.2990    0.0000 C   0  0  0  0  0  0  0  0  0  0  0  0
   -0.7500   -1.2990    0.0000 C   0  0  0  0  0  0  0  0  0  0  0  0
   -1.5000   -2.5981    0.0000 S   0  0  0  0  0  0  0  0  0  0  0  0
   -3.0000   -2.5981    0.0000 C   0  0  0  0  0  0  0  0  0  0  0  0
   -3.8817   -3.8116    0.0000 C   0  0  0  0  0  0  0  0  0  0  0  0
   -5.3083   -3.3481    0.0000 N   0  0  0  0  0  0  0  0  0  0  0  0
   -5.3083   -1.8481    0.0000 C   0  0  0  0  0  0  0  0  0  0  0  0
   -6.5218   -0.9664    0.0000 N   0  0  0  0  0  0  0  0  0  0  0  0
   -6.3650    0.5254    0.0000 C   0  0  0  0  0  0  0  0  0  0  0  0
   -4.9947    1.1355    0.0000 C   0  0  0  0  0  0  0  0  0  0  0  0
   -4.8379    2.6273    0.0000 C   0  0  0  0  0  0  0  0  0  0  0  0
   -6.0514    3.5090    0.0000 C   0  0  0  0  0  0  0  0  0  0  0  0
   -7.4217    2.8988    0.0000 C   0  0  0  0  0  0  0  0  0  0  0  0
   -8.6353    3.7805    0.0000 Br  0  0  0  0  0  0  0  0  0  0  0  0
   -7.5785    1.4071    0.0000 N   0  0  0  0  0  0  0  0  0  0  0  0
   -3.8817   -1.3846    0.0000 S   0  0  0  0  0  0  0  0  0  0  0  0
   -1.5000    0.0000    0.0000 C   0  0  0  0  0  0  0  0  0  0  0  0
   -0.7500    1.2990    0.0000 C   0  0  0  0  0  0  0  0  0  0  0  0
    0.7500    1.2990    0.0000 C   0  0  0  0  0  0  0  0  0  0  0  0
    1.5000    2.5981    0.0000 C   0  0  0  0  0  0  0  0  0  0  0  0
  1  2  1  0
  2  3  1  0
  3  4  1  0
  4  5  1  0
  5  6  1  0
  5  7  1  0
  7  8  2  0
  7  9  1  0
  9 10  2  0
 10 11  1  0
 11 12  1  0
 12 13  1  0
 13 14  2  0
 14 15  1  0
 15 16  2  0
 16 17  1  0
 17 18  1  0
 18 19  2  0
 19 20  1  0
 20 21  2  0
 21 22  1  0
 22 23  1  0
 22 24  2  0
 16 25  1  0
 11 26  2  0
 26 27  1  0
 27 28  2  0
 28 29  1  0
 28  9  1  0
 25 13  1  0
 24 18  1  0
M  END
>  <Compound_ID>  (286) 
CHEMBL254269

>  <Active>  (286) 
1.0

>  <Smiles>  (286) 
CNCCN(C)C(=O)c1cc(Sc2cnc(Nc3cccc(Br)n3)s2)ccc1C

>  <canonical_smi>  (286) 
CNCCN(C)C(=O)c1cc(Sc2cnc(Nc3cccc(Br)n3)s2)ccc1C

>  <Set>  (286) 
G2 active

>  <Set_type>  (286) 
Train

>  <MW>  (286) 
492.47

>  <HBD>  (286) 
2

>  <HBA>  (286) 
6

>  <NRB>  (286) 
8

>  <NR>  (286) 
3

>  <NAR>  (286) 
3

>  <PSA>  (286) 
70.15

>  <Standard Type>  (286) 
nan

>  <Standard Relation>  (286) 
nan

>  <Standard Units>  (286) 
nan

>  <Standard Value>  (286) 
nan

>  <Assay ChEMBL ID>  (286) 
nan

>  <Assay Description>  (286) 
nan

>  <BAO Label>  (286) 
nan

$$$$

     RDKit          2D

 25 28  0  0  0  0  0  0  0  0999 V2000
    6.1091    2.0882    0.0000 N   0  0  0  0  0  0  0  0  0  0  0  0
    4.7388    2.6983    0.0000 C   0  0  0  0  0  0  0  0  0  0  0  0
    4.4269    4.1655    0.0000 N   0  0  0  0  0  0  0  0  0  0  0  0
    2.9352    4.3223    0.0000 C   0  0  0  0  0  0  0  0  0  0  0  0
    2.1852    5.6213    0.0000 O   0  0  0  0  0  0  0  0  0  0  0  0
    2.3250    2.9520    0.0000 C   0  0  0  0  0  0  0  0  0  0  0  0
    0.8578    2.6401    0.0000 C   0  0  0  0  0  0  0  0  0  0  0  0
    0.3943    1.2135    0.0000 C   0  0  0  0  0  0  0  0  0  0  0  0
    1.2760    0.0000    0.0000 N   0  0  0  0  0  0  0  0  0  0  0  0
    0.3943   -1.2135    0.0000 N   0  0  0  0  0  0  0  0  0  0  0  0
    0.3943   -2.7135    0.0000 C   0  0  0  0  0  0  0  0  0  0  0  0
    1.6078   -3.5952    0.0000 C   0  0  0  0  0  0  0  0  0  0  0  0
    1.4510   -5.0870    0.0000 O   0  0  0  0  0  0  0  0  0  0  0  0
    2.6646   -5.9687    0.0000 C   0  0  0  0  0  0  0  0  0  0  0  0
    2.5078   -7.4604    0.0000 C   0  0  0  0  0  0  0  0  0  0  0  0
    3.7213   -8.3421    0.0000 C   0  0  0  0  0  0  0  0  0  0  0  0
    5.0916   -7.7320    0.0000 C   0  0  0  0  0  0  0  0  0  0  0  0
    6.3051   -8.6137    0.0000 Cl  0  0  0  0  0  0  0  0  0  0  0  0
    5.2484   -6.2402    0.0000 C   0  0  0  0  0  0  0  0  0  0  0  0
    4.0349   -5.3586    0.0000 C   0  0  0  0  0  0  0  0  0  0  0  0
   -1.0323   -3.1771    0.0000 N   0  0  0  0  0  0  0  0  0  0  0  0
   -1.9140   -1.9635    0.0000 N   0  0  0  0  0  0  0  0  0  0  0  0
   -1.0323   -0.7500    0.0000 C   0  0  0  0  0  0  0  0  0  0  0  0
   -1.0323    0.7500    0.0000 S   0  0  0  0  0  0  0  0  0  0  0  0
    3.4398    1.9483    0.0000 S   0  0  0  0  0  0  0  0  0  0  0  0
  1  2  1  0
  2  3  2  0
  3  4  1  0
  4  5  1  0
  4  6  2  0
  6  7  1  0
  7  8  1  0
  8  9  2  0
  9 10  1  0
 10 11  1  0
 11 12  1  0
 12 13  1  0
 13 14  1  0
 14 15  2  0
 15 16  1  0
 16 17  2  0
 17 18  1  0
 17 19  1  0
 19 20  2  0
 11 21  2  0
 21 22  1  0
 22 23  2  0
 23 24  1  0
  6 25  1  0
 25  2  1  0
 24  8  1  0
 23 10  1  0
 20 14  1  0
M  END
>  <Compound_ID>  (287) 
CHEMBL559301

>  <Active>  (287) 
1.0

>  <Smiles>  (287) 
Nc1nc(O)c(Cc2nn3c(COc4ccc(Cl)cc4)nnc3s2)s1

>  <canonical_smi>  (287) 
Nc1nc(O)c(Cc2nn3c(COc4ccc(Cl)cc4)nnc3s2)s1

>  <Set>  (287) 
G2 active

>  <Set_type>  (287) 
Train

>  <MW>  (287) 
394.87

>  <HBD>  (287) 
2

>  <HBA>  (287) 
7

>  <NRB>  (287) 
5

>  <NR>  (287) 
4

>  <NAR>  (287) 
4

>  <PSA>  (287) 
111.45

>  <Standard Type>  (287) 
nan

>  <Standard Relation>  (287) 
nan

>  <Standard Units>  (287) 
nan

>  <Standard Value>  (287) 
nan

>  <Assay ChEMBL ID>  (287) 
nan

>  <Assay Description>  (287) 
nan

>  <BAO Label>  (287) 
nan

$$$$

     RDKit          2D

 30 33  0  0  0  0  0  0  0  0999 V2000
    7.4146   -6.0524    0.0000 N   0  0  0  0  0  0  0  0  0  0  0  0
    6.2011   -6.9341    0.0000 C   0  0  0  0  0  0  0  0  0  0  0  0
    4.8308   -6.3240    0.0000 C   0  0  0  0  0  0  0  0  0  0  0  0
    4.6740   -4.8322    0.0000 N   0  0  0  0  0  0  0  0  0  0  0  0
    3.3037   -4.2221    0.0000 C   0  0  0  0  0  0  0  0  0  0  0  0
    2.0046   -4.9721    0.0000 N   0  0  0  0  0  0  0  0  0  0  0  0
    0.8899   -3.9684    0.0000 C   0  0  0  0  0  0  0  0  0  0  0  0
    1.5000   -2.5981    0.0000 C   0  0  0  0  0  0  0  0  0  0  0  0
    0.7500   -1.2990    0.0000 C   0  0  0  0  0  0  0  0  0  0  0  0
    1.5000    0.0000    0.0000 C   0  0  0  0  0  0  0  0  0  0  0  0
    0.7500    1.2990    0.0000 C   0  0  0  0  0  0  0  0  0  0  0  0
   -0.7500    1.2990    0.0000 C   0  0  0  0  0  0  0  0  0  0  0  0
   -1.5000    0.0000    0.0000 C   0  0  0  0  0  0  0  0  0  0  0  0
   -0.7500   -1.2990    0.0000 C   0  0  0  0  0  0  0  0  0  0  0  0
   -2.9672    0.3119    0.0000 C   0  0  0  0  0  0  0  0  0  0  0  0
   -3.1240    1.8037    0.0000 C   0  0  0  0  0  0  0  0  0  0  0  0
   -4.4231    2.5537    0.0000 O   0  0  0  0  0  0  0  0  0  0  0  0
   -1.7537    2.4138    0.0000 N   0  0  0  0  0  0  0  0  0  0  0  0
    2.9918   -2.7549    0.0000 S   0  0  0  0  0  0  0  0  0  0  0  0
    6.3579   -8.4259    0.0000 C   0  0  0  0  0  0  0  0  0  0  0  0
    7.7282   -9.0360    0.0000 C   0  0  0  0  0  0  0  0  0  0  0  0
    7.8850  -10.5278    0.0000 C   0  0  0  0  0  0  0  0  0  0  0  0
    9.2553  -11.1379    0.0000 C   0  0  0  0  0  0  0  0  0  0  0  0
   10.4688  -10.2562    0.0000 C   0  0  0  0  0  0  0  0  0  0  0  0
   11.8391  -10.8663    0.0000 C   0  0  0  0  0  0  0  0  0  0  0  0
   13.2095  -11.4764    0.0000 F   0  0  0  0  0  0  0  0  0  0  0  0
   11.2290  -12.2366    0.0000 F   0  0  0  0  0  0  0  0  0  0  0  0
   12.4492   -9.4960    0.0000 F   0  0  0  0  0  0  0  0  0  0  0  0
   10.3120   -8.7644    0.0000 C   0  0  0  0  0  0  0  0  0  0  0  0
    8.9417   -8.1543    0.0000 C   0  0  0  0  0  0  0  0  0  0  0  0
  2  1  1  1
  2  3  1  0
  3  4  1  0
  4  5  1  0
  5  6  2  0
  6  7  1  0
  7  8  2  0
  8  9  1  0
  9 10  2  0
 10 11  1  0
 11 12  2  0
 12 13  1  0
 13 14  2  0
 13 15  1  0
 15 16  1  0
 16 17  2  0
 16 18  1  0
  8 19  1  0
  2 20  1  0
 20 21  1  0
 21 22  2  0
 22 23  1  0
 23 24  2  0
 24 25  1  0
 25 26  1  0
 25 27  1  0
 25 28  1  0
 24 29  1  0
 29 30  2  0
 19  5  1  0
 30 21  1  0
 14  9  1  0
 18 12  1  0
M  END
>  <Compound_ID>  (288) 
CHEMBL1081831

>  <Active>  (288) 
1.0

>  <Smiles>  (288) 
N[C@H](CNc1ncc(-c2ccc3c(c2)CC(=O)N3)s1)Cc1ccc(C(F)(F)F)cc1

>  <canonical_smi>  (288) 
N[C@H](CNc1ncc(-c2ccc3c(c2)CC(=O)N3)s1)Cc1ccc(C(F)(F)F)cc1

>  <Set>  (288) 
G2 active

>  <Set_type>  (288) 
Train

>  <MW>  (288) 
432.47

>  <HBD>  (288) 
3

>  <HBA>  (288) 
4

>  <NRB>  (288) 
6

>  <NR>  (288) 
4

>  <NAR>  (288) 
3

>  <PSA>  (288) 
80.04

>  <Standard Type>  (288) 
nan

>  <Standard Relation>  (288) 
nan

>  <Standard Units>  (288) 
nan

>  <Standard Value>  (288) 
nan

>  <Assay ChEMBL ID>  (288) 
nan

>  <Assay Description>  (288) 
nan

>  <BAO Label>  (288) 
nan

$$$$

     RDKit          2D

 21 23  0  0  0  0  0  0  0  0999 V2000
   -8.6562    2.3705    0.0000 C   0  0  0  0  0  0  0  0  0  0  0  0
   -7.2296    2.8340    0.0000 C   0  0  0  0  0  0  0  0  0  0  0  0
   -6.1149    1.8303    0.0000 C   0  0  0  0  0  0  0  0  0  0  0  0
   -4.6883    2.2939    0.0000 C   0  0  0  0  0  0  0  0  0  0  0  0
   -3.5736    1.2902    0.0000 O   0  0  0  0  0  0  0  0  0  0  0  0
   -2.1470    1.7537    0.0000 C   0  0  0  0  0  0  0  0  0  0  0  0
   -1.8351    3.2209    0.0000 C   0  0  0  0  0  0  0  0  0  0  0  0
   -2.9499    4.2246    0.0000 C   0  0  0  0  0  0  0  0  0  0  0  0
   -4.3764    3.7611    0.0000 O   0  0  0  0  0  0  0  0  0  0  0  0
   -2.6380    5.6918    0.0000 C   0  0  0  0  0  0  0  0  0  0  0  0
   -3.6417    6.8066    0.0000 C   0  0  0  0  0  0  0  0  0  0  0  0
   -2.8917    8.1056    0.0000 C   0  0  0  0  0  0  0  0  0  0  0  0
   -1.4245    7.7937    0.0000 C   0  0  0  0  0  0  0  0  0  0  0  0
   -1.2677    6.3019    0.0000 S   0  0  0  0  0  0  0  0  0  0  0  0
   -0.4086    3.6844    0.0000 C   0  0  0  0  0  0  0  0  0  0  0  0
    0.7062    2.6807    0.0000 N   0  0  0  0  0  0  0  0  0  0  0  0
    0.3943    1.2135    0.0000 C   0  0  0  0  0  0  0  0  0  0  0  0
    1.2760    0.0000    0.0000 N   0  0  0  0  0  0  0  0  0  0  0  0
    0.3943   -1.2135    0.0000 N   0  0  0  0  0  0  0  0  0  0  0  0
   -1.0323   -0.7500    0.0000 C   0  0  0  0  0  0  0  0  0  0  0  0
   -1.0323    0.7500    0.0000 C   0  0  0  0  0  0  0  0  0  0  0  0
  1  2  1  0
  2  3  1  0
  3  4  1  0
  4  5  1  0
  5  6  1  0
  6  7  1  0
  7  8  1  0
  8  9  2  0
  8 10  1  0
 10 11  2  0
 11 12  1  0
 12 13  2  0
 13 14  1  0
  7 15  2  0
 15 16  1  0
 16 17  1  0
 17 18  2  0
 18 19  1  0
 19 20  2  0
 20 21  1  0
 21  6  2  0
 14 10  1  0
 21 17  1  0
M  END
>  <Compound_ID>  (289) 
CHEMBL82243

>  <Active>  (289) 
1.0

>  <Smiles>  (289) 
CCCCOc1c(C(=O)c2cccs2)c[nH]c2nncc1-2

>  <canonical_smi>  (289) 
CCCCOc1c(C(=O)c2cccs2)c[nH]c2nncc1-2

>  <Set>  (289) 
G2 active

>  <Set_type>  (289) 
Train

>  <MW>  (289) 
301.37

>  <HBD>  (289) 
1

>  <HBA>  (289) 
4

>  <NRB>  (289) 
6

>  <NR>  (289) 
3

>  <NAR>  (289) 
3

>  <PSA>  (289) 
67.87

>  <Standard Type>  (289) 
nan

>  <Standard Relation>  (289) 
nan

>  <Standard Units>  (289) 
nan

>  <Standard Value>  (289) 
nan

>  <Assay ChEMBL ID>  (289) 
nan

>  <Assay Description>  (289) 
nan

>  <BAO Label>  (289) 
nan

$$$$

     RDKit          2D

 18 19  0  0  0  0  0  0  0  0999 V2000
    4.8308   -8.9221    0.0000 C   0  0  0  0  0  0  0  0  0  0  0  0
    4.6740   -7.4303    0.0000 C   0  0  0  0  0  0  0  0  0  0  0  0
    5.8875   -6.5486    0.0000 C   0  0  0  0  0  0  0  0  0  0  0  0
    3.3037   -6.8202    0.0000 C   0  0  0  0  0  0  0  0  0  0  0  0
    2.9918   -5.3529    0.0000 C   0  0  0  0  0  0  0  0  0  0  0  0
    1.5000   -5.1962    0.0000 C   0  0  0  0  0  0  0  0  0  0  0  0
    0.7500   -3.8971    0.0000 N   0  0  0  0  0  0  0  0  0  0  0  0
    1.5000   -2.5981    0.0000 C   0  0  0  0  0  0  0  0  0  0  0  0
    3.0000   -2.5981    0.0000 O   0  0  0  0  0  0  0  0  0  0  0  0
    0.7500   -1.2990    0.0000 C   0  0  0  0  0  0  0  0  0  0  0  0
    1.5000    0.0000    0.0000 C   0  0  0  0  0  0  0  0  0  0  0  0
    0.7500    1.2990    0.0000 C   0  0  0  0  0  0  0  0  0  0  0  0
   -0.7500    1.2990    0.0000 C   0  0  0  0  0  0  0  0  0  0  0  0
   -1.5000    2.5981    0.0000 Br  0  0  0  0  0  0  0  0  0  0  0  0
   -1.5000    0.0000    0.0000 C   0  0  0  0  0  0  0  0  0  0  0  0
   -0.7500   -1.2990    0.0000 C   0  0  0  0  0  0  0  0  0  0  0  0
    0.8899   -6.5665    0.0000 N   0  0  0  0  0  0  0  0  0  0  0  0
    2.0046   -7.5702    0.0000 N   0  0  0  0  0  0  0  0  0  0  0  0
  1  2  1  0
  2  3  1  0
  2  4  1  0
  4  5  2  0
  5  6  1  0
  6  7  1  0
  7  8  1  0
  8  9  2  0
  8 10  1  0
 10 11  2  0
 11 12  1  0
 12 13  2  0
 13 14  1  0
 13 15  1  0
 15 16  2  0
  6 17  2  0
 17 18  1  0
 18  4  1  0
 16 10  1  0
M  END
>  <Compound_ID>  (290) 
CHEMBL430703

>  <Active>  (290) 
1.0

>  <Smiles>  (290) 
CC(C)c1cc(NC(=O)c2ccc(Br)cc2)n[nH]1

>  <canonical_smi>  (290) 
CC(C)c1cc(NC(=O)c2ccc(Br)cc2)n[nH]1

>  <Set>  (290) 
G2 active

>  <Set_type>  (290) 
Train

>  <MW>  (290) 
308.18

>  <HBD>  (290) 
2

>  <HBA>  (290) 
2

>  <NRB>  (290) 
3

>  <NR>  (290) 
2

>  <NAR>  (290) 
2

>  <PSA>  (290) 
57.78

>  <Standard Type>  (290) 
nan

>  <Standard Relation>  (290) 
nan

>  <Standard Units>  (290) 
nan

>  <Standard Value>  (290) 
nan

>  <Assay ChEMBL ID>  (290) 
nan

>  <Assay Description>  (290) 
nan

>  <BAO Label>  (290) 
nan

$$$$

     RDKit          2D

 31 37  0  0  0  0  0  0  0  0999 V2000
    4.2660   -1.2584    0.0000 O   0  0  0  0  0  0  0  0  0  0  0  0
    3.9542   -2.7256    0.0000 C   0  0  0  0  0  0  0  0  0  0  0  0
    4.9579   -3.8403    0.0000 N   0  0  0  0  0  0  0  0  0  0  0  0
    4.2079   -5.1394    0.0000 C   0  0  0  0  0  0  0  0  0  0  0  0
    4.8180   -6.5097    0.0000 O   0  0  0  0  0  0  0  0  0  0  0  0
    2.7406   -4.8275    0.0000 C   0  0  0  0  0  0  0  0  0  0  0  0
    2.5838   -3.3357    0.0000 C   0  0  0  0  0  0  0  0  0  0  0  0
    1.2135   -2.7256    0.0000 C   0  0  0  0  0  0  0  0  0  0  0  0
    0.7500   -1.2990    0.0000 C   0  0  0  0  0  0  0  0  0  0  0  0
    1.5000    0.0000    0.0000 C   0  0  0  0  0  0  0  0  0  0  0  0
    0.7500    1.2990    0.0000 C   0  0  0  0  0  0  0  0  0  0  0  0
   -0.7500    1.2990    0.0000 C   0  0  0  0  0  0  0  0  0  0  0  0
   -1.5000    0.0000    0.0000 C   0  0  0  0  0  0  0  0  0  0  0  0
   -0.7500   -1.2990    0.0000 C   0  0  0  0  0  0  0  0  0  0  0  0
   -1.2135   -2.7256    0.0000 N   0  0  0  0  0  0  0  0  0  0  0  0
    0.0000   -3.6073    0.0000 C   0  0  0  0  0  0  0  0  0  0  0  0
    0.1568   -5.0991    0.0000 C   0  0  0  0  0  0  0  0  0  0  0  0
    1.5271   -5.7092    0.0000 C   0  0  0  0  0  0  0  0  0  0  0  0
    1.3703   -7.2010    0.0000 C   0  0  0  0  0  0  0  0  0  0  0  0
    2.3740   -8.3157    0.0000 C   0  0  0  0  0  0  0  0  0  0  0  0
    1.9105   -9.7423    0.0000 C   0  0  0  0  0  0  0  0  0  0  0  0
    0.4433  -10.0541    0.0000 C   0  0  0  0  0  0  0  0  0  0  0  0
   -0.5604   -8.9394    0.0000 C   0  0  0  0  0  0  0  0  0  0  0  0
   -0.0969   -7.5128    0.0000 C   0  0  0  0  0  0  0  0  0  0  0  0
   -0.8469   -6.2138    0.0000 N   0  0  0  0  0  0  0  0  0  0  0  0
   -2.2172   -5.6037    0.0000 C   0  0  0  0  0  0  0  0  0  0  0  0
   -3.6591   -6.0172    0.0000 C   0  0  0  0  0  0  0  0  0  0  0  0
   -4.4979   -7.2607    0.0000 C   0  0  0  0  0  0  0  0  0  0  0  0
   -4.3411   -8.7525    0.0000 C   0  0  0  0  0  0  0  0  0  0  0  0
   -3.2621   -9.7945    0.0000 N   0  0  0  0  0  0  0  0  0  0  0  0
   -1.7658   -9.8991    0.0000 C   0  0  0  0  0  0  0  0  0  0  0  0
  1  2  2  0
  2  3  1  0
  3  4  1  0
  4  5  2  0
  4  6  1  0
  6  7  2  0
  7  8  1  0
  8  9  1  0
  9 10  2  0
 10 11  1  0
 11 12  2  0
 12 13  1  0
 13 14  2  0
 14 15  1  0
 15 16  1  0
 16 17  1  0
 17 18  2  0
 18 19  1  0
 19 20  2  0
 20 21  1  0
 21 22  2  0
 22 23  1  0
 23 24  2  0
 24 25  1  0
 25 26  1  0
 26 27  1  0
 27 28  1  0
 28 29  1  0
 29 30  1  0
 30 31  1  0
  7  2  1  0
 16  8  2  0
 25 17  1  0
 18  6  1  0
 24 19  1  0
 14  9  1  0
 31 23  1  0
M  END
>  <Compound_ID>  (291) 
CHEMBL557581

>  <Active>  (291) 
1.0

>  <Smiles>  (291) 
O=C1NC(=O)c2c1c1c3ccccc3[nH]c1c1c2c2cccc3c2n1CCCCNC3

>  <canonical_smi>  (291) 
O=C1NC(=O)c2c1c1c3ccccc3[nH]c1c1c2c2cccc3c2n1CCCCNC3

>  <Set>  (291) 
G2 active

>  <Set_type>  (291) 
Train

>  <MW>  (291) 
408.46

>  <HBD>  (291) 
3

>  <HBA>  (291) 
3

>  <NRB>  (291) 
0

>  <NR>  (291) 
7

>  <NAR>  (291) 
5

>  <PSA>  (291) 
78.92

>  <Standard Type>  (291) 
nan

>  <Standard Relation>  (291) 
nan

>  <Standard Units>  (291) 
nan

>  <Standard Value>  (291) 
nan

>  <Assay ChEMBL ID>  (291) 
nan

>  <Assay Description>  (291) 
nan

>  <BAO Label>  (291) 
nan

$$$$

     RDKit          2D

 31 35  0  0  0  0  0  0  0  0999 V2000
    0.7500   -3.8971    0.0000 C   0  0  0  0  0  0  0  0  0  0  0  0
    1.5000   -2.5981    0.0000 C   0  0  0  0  0  0  0  0  0  0  0  0
    3.0000   -2.5981    0.0000 C   0  0  0  0  0  0  0  0  0  0  0  0
    3.7500   -1.2990    0.0000 O   0  0  0  0  0  0  0  0  0  0  0  0
    3.7500   -3.8971    0.0000 N   0  0  0  0  0  0  0  0  0  0  0  0
    5.2500   -3.8971    0.0000 C   0  0  0  0  0  0  0  0  0  0  0  0
    6.1317   -2.6836    0.0000 C   0  0  0  0  0  0  0  0  0  0  0  0
    7.5583   -3.1471    0.0000 C   0  0  0  0  0  0  0  0  0  0  0  0
    8.7718   -2.2654    0.0000 C   0  0  0  0  0  0  0  0  0  0  0  0
    9.3819   -0.8951    0.0000 C   0  0  0  0  0  0  0  0  0  0  0  0
   10.2636   -2.1086    0.0000 C   0  0  0  0  0  0  0  0  0  0  0  0
    7.5583   -4.6471    0.0000 N   0  0  0  0  0  0  0  0  0  0  0  0
    6.1317   -5.1106    0.0000 N   0  0  0  0  0  0  0  0  0  0  0  0
    0.7500   -1.2990    0.0000 C   0  0  0  0  0  0  0  0  0  0  0  0
    1.5000    0.0000    0.0000 C   0  0  0  0  0  0  0  0  0  0  0  0
    0.7500    1.2990    0.0000 C   0  0  0  0  0  0  0  0  0  0  0  0
   -0.7500    1.2990    0.0000 C   0  0  0  0  0  0  0  0  0  0  0  0
   -1.5000    2.5981    0.0000 N   0  0  0  0  0  0  0  0  0  0  0  0
   -2.9918    2.7549    0.0000 C   0  0  0  0  0  0  0  0  0  0  0  0
   -3.9955    1.6402    0.0000 O   0  0  0  0  0  0  0  0  0  0  0  0
   -3.3037    4.2221    0.0000 C   0  0  0  0  0  0  0  0  0  0  0  0
   -2.0046    4.9721    0.0000 C   0  0  0  0  0  0  0  0  0  0  0  0
   -0.8899    3.9684    0.0000 C   0  0  0  0  0  0  0  0  0  0  0  0
    0.5773    4.2803    0.0000 C   0  0  0  0  0  0  0  0  0  0  0  0
    1.5810    3.1655    0.0000 C   0  0  0  0  0  0  0  0  0  0  0  0
    3.0482    3.4774    0.0000 C   0  0  0  0  0  0  0  0  0  0  0  0
    3.5118    4.9040    0.0000 C   0  0  0  0  0  0  0  0  0  0  0  0
    2.5081    6.0187    0.0000 C   0  0  0  0  0  0  0  0  0  0  0  0
    1.0409    5.7068    0.0000 C   0  0  0  0  0  0  0  0  0  0  0  0
   -1.5000    0.0000    0.0000 C   0  0  0  0  0  0  0  0  0  0  0  0
   -0.7500   -1.2990    0.0000 C   0  0  0  0  0  0  0  0  0  0  0  0
  1  2  1  0
  2  3  1  0
  3  4  2  0
  3  5  1  0
  5  6  1  0
  6  7  1  0
  7  8  2  0
  8  9  1  0
  9 10  1  0
 10 11  1  0
  8 12  1  0
 12 13  1  0
  2 14  1  0
 14 15  2  0
 15 16  1  0
 16 17  2  0
 17 18  1  0
 18 19  1  0
 19 20  2  0
 19 21  1  0
 21 22  1  0
 22 23  1  0
 23 24  1  0
 24 25  2  0
 25 26  1  0
 26 27  2  0
 27 28  1  0
 28 29  2  0
 17 30  1  0
 30 31  2  0
 13  6  2  0
 31 14  1  0
 11  9  1  0
 23 18  1  0
 29 24  1  0
M  END
>  <Compound_ID>  (292) 
CHEMBL192440

>  <Active>  (292) 
1.0

>  <Smiles>  (292) 
CC(C(=O)Nc1cc(C2CC2)[nH]n1)c1ccc(N2C(=O)CCC2c2ccccc2)cc1

>  <canonical_smi>  (292) 
CC(C(=O)Nc1cc(C2CC2)[nH]n1)c1ccc(N2C(=O)CCC2c2ccccc2)cc1

>  <Set>  (292) 
G2 active

>  <Set_type>  (292) 
Train

>  <MW>  (292) 
414.51

>  <HBD>  (292) 
2

>  <HBA>  (292) 
3

>  <NRB>  (292) 
6

>  <NR>  (292) 
5

>  <NAR>  (292) 
3

>  <PSA>  (292) 
78.09

>  <Standard Type>  (292) 
nan

>  <Standard Relation>  (292) 
nan

>  <Standard Units>  (292) 
nan

>  <Standard Value>  (292) 
nan

>  <Assay ChEMBL ID>  (292) 
nan

>  <Assay Description>  (292) 
nan

>  <BAO Label>  (292) 
nan

$$$$

     RDKit          2D

 24 26  0  0  0  0  0  0  0  0999 V2000
    5.2500   -1.2990    0.0000 C   0  0  0  0  0  0  0  0  0  0  0  0
    3.7500   -1.2990    0.0000 C   0  0  0  0  0  0  0  0  0  0  0  0
    3.0000    0.0000    0.0000 N   0  0  0  0  0  0  0  0  0  0  0  0
    3.7500    1.2990    0.0000 C   0  0  0  0  0  0  0  0  0  0  0  0
    5.2500    1.2990    0.0000 C   0  0  0  0  0  0  0  0  0  0  0  0
    1.5000    0.0000    0.0000 C   0  0  0  0  0  0  0  0  0  0  0  0
    0.7500   -1.2990    0.0000 C   0  0  0  0  0  0  0  0  0  0  0  0
   -0.7500   -1.2990    0.0000 C   0  0  0  0  0  0  0  0  0  0  0  0
   -1.5000    0.0000    0.0000 C   0  0  0  0  0  0  0  0  0  0  0  0
   -2.9672    0.3119    0.0000 N   0  0  0  0  0  0  0  0  0  0  0  0
   -3.1240    1.8037    0.0000 N   0  0  0  0  0  0  0  0  0  0  0  0
   -1.7537    2.4138    0.0000 C   0  0  0  0  0  0  0  0  0  0  0  0
   -1.4418    3.8810    0.0000 N   0  0  0  0  0  0  0  0  0  0  0  0
   -2.5565    4.8847    0.0000 C   0  0  0  0  0  0  0  0  0  0  0  0
   -3.9831    4.4211    0.0000 O   0  0  0  0  0  0  0  0  0  0  0  0
   -2.2447    6.3519    0.0000 C   0  0  0  0  0  0  0  0  0  0  0  0
   -3.3594    7.3556    0.0000 C   0  0  0  0  0  0  0  0  0  0  0  0
   -3.0475    8.8228    0.0000 C   0  0  0  0  0  0  0  0  0  0  0  0
   -4.1622    9.8265    0.0000 C   0  0  0  0  0  0  0  0  0  0  0  0
   -5.5888    9.3630    0.0000 C   0  0  0  0  0  0  0  0  0  0  0  0
   -5.9007    7.8958    0.0000 C   0  0  0  0  0  0  0  0  0  0  0  0
   -4.7860    6.8921    0.0000 C   0  0  0  0  0  0  0  0  0  0  0  0
   -0.7500    1.2990    0.0000 C   0  0  0  0  0  0  0  0  0  0  0  0
    0.7500    1.2990    0.0000 C   0  0  0  0  0  0  0  0  0  0  0  0
  1  2  1  0
  2  3  1  0
  3  4  1  0
  4  5  1  0
  3  6  1  0
  6  7  2  0
  7  8  1  0
  8  9  2  0
  9 10  1  0
 10 11  1  0
 11 12  2  0
 12 13  1  0
 13 14  1  0
 14 15  2  0
 14 16  1  0
 16 17  1  0
 17 18  2  0
 18 19  1  0
 19 20  2  0
 20 21  1  0
 21 22  2  0
 12 23  1  0
 23 24  2  0
 24  6  1  0
 23  9  1  0
 22 17  1  0
M  END
>  <Compound_ID>  (293) 
CHEMBL402910

>  <Active>  (293) 
1.0

>  <Smiles>  (293) 
CCN(CC)c1ccc2[nH]nc(NC(=O)Cc3ccccc3)c2c1

>  <canonical_smi>  (293) 
CCN(CC)c1ccc2[nH]nc(NC(=O)Cc3ccccc3)c2c1

>  <Set>  (293) 
G2 active

>  <Set_type>  (293) 
Train

>  <MW>  (293) 
322.41

>  <HBD>  (293) 
2

>  <HBA>  (293) 
3

>  <NRB>  (293) 
6

>  <NR>  (293) 
3

>  <NAR>  (293) 
3

>  <PSA>  (293) 
61.02

>  <Standard Type>  (293) 
nan

>  <Standard Relation>  (293) 
nan

>  <Standard Units>  (293) 
nan

>  <Standard Value>  (293) 
nan

>  <Assay ChEMBL ID>  (293) 
nan

>  <Assay Description>  (293) 
nan

>  <BAO Label>  (293) 
nan

$$$$

     RDKit          2D

 24 27  0  0  0  0  0  0  0  0999 V2000
   -0.7500   -6.4952    0.0000 C   0  0  0  0  0  0  0  0  0  0  0  0
   -1.5000   -5.1962    0.0000 O   0  0  0  0  0  0  0  0  0  0  0  0
   -0.7500   -3.8971    0.0000 C   0  0  0  0  0  0  0  0  0  0  0  0
    0.7500   -3.8971    0.0000 C   0  0  0  0  0  0  0  0  0  0  0  0
    1.5000   -2.5981    0.0000 C   0  0  0  0  0  0  0  0  0  0  0  0
    0.7500   -1.2990    0.0000 C   0  0  0  0  0  0  0  0  0  0  0  0
    1.5000    0.0000    0.0000 C   0  0  0  0  0  0  0  0  0  0  0  0
    0.7500    1.2990    0.0000 N   0  0  0  0  0  0  0  0  0  0  0  0
   -0.7500    1.2990    0.0000 C   0  0  0  0  0  0  0  0  0  0  0  0
   -1.5000    2.5981    0.0000 N   0  0  0  0  0  0  0  0  0  0  0  0
   -0.7500    3.8971    0.0000 C   0  0  0  0  0  0  0  0  0  0  0  0
    0.7500    3.8971    0.0000 C   0  0  0  0  0  0  0  0  0  0  0  0
    1.5000    5.1962    0.0000 C   0  0  0  0  0  0  0  0  0  0  0  0
    0.7500    6.4952    0.0000 C   0  0  0  0  0  0  0  0  0  0  0  0
   -0.7500    6.4952    0.0000 C   0  0  0  0  0  0  0  0  0  0  0  0
   -1.5000    5.1962    0.0000 C   0  0  0  0  0  0  0  0  0  0  0  0
   -1.5000    0.0000    0.0000 N   0  0  0  0  0  0  0  0  0  0  0  0
   -0.7500   -1.2990    0.0000 C   0  0  0  0  0  0  0  0  0  0  0  0
   -1.5000   -2.5981    0.0000 C   0  0  0  0  0  0  0  0  0  0  0  0
   -3.0000   -2.5981    0.0000 C   0  0  0  0  0  0  0  0  0  0  0  0
   -3.8817   -3.8116    0.0000 C   0  0  0  0  0  0  0  0  0  0  0  0
   -5.3083   -3.3481    0.0000 C   0  0  0  0  0  0  0  0  0  0  0  0
   -5.3083   -1.8481    0.0000 C   0  0  0  0  0  0  0  0  0  0  0  0
   -3.8817   -1.3846    0.0000 C   0  0  0  0  0  0  0  0  0  0  0  0
  1  2  1  0
  2  3  1  0
  3  4  2  0
  4  5  1  0
  5  6  2  0
  6  7  1  0
  7  8  2  0
  8  9  1  0
  9 10  1  0
 10 11  1  0
 11 12  2  0
 12 13  1  0
 13 14  2  0
 14 15  1  0
 15 16  2  0
  9 17  2  0
 17 18  1  0
 18 19  2  0
 19 20  1  0
 20 21  1  0
 21 22  1  0
 22 23  1  0
 23 24  1  0
 19  3  1  0
 24 20  1  0
 18  6  1  0
 16 11  1  0
M  END
>  <Compound_ID>  (294) 
CHEMBL183455

>  <Active>  (294) 
1.0

>  <Smiles>  (294) 
COc1ccc2cnc(Nc3ccccc3)nc2c1C1CCCC1

>  <canonical_smi>  (294) 
COc1ccc2cnc(Nc3ccccc3)nc2c1C1CCCC1

>  <Set>  (294) 
G2 active

>  <Set_type>  (294) 
Train

>  <MW>  (294) 
319.41

>  <HBD>  (294) 
1

>  <HBA>  (294) 
4

>  <NRB>  (294) 
4

>  <NR>  (294) 
4

>  <NAR>  (294) 
3

>  <PSA>  (294) 
47.04

>  <Standard Type>  (294) 
nan

>  <Standard Relation>  (294) 
nan

>  <Standard Units>  (294) 
nan

>  <Standard Value>  (294) 
nan

>  <Assay ChEMBL ID>  (294) 
nan

>  <Assay Description>  (294) 
nan

>  <BAO Label>  (294) 
nan

$$$$

     RDKit          2D

 21 23  0  0  0  0  0  0  0  0999 V2000
   -8.6562    2.3705    0.0000 C   0  0  0  0  0  0  0  0  0  0  0  0
   -7.2296    2.8340    0.0000 C   0  0  0  0  0  0  0  0  0  0  0  0
   -6.1149    1.8303    0.0000 C   0  0  0  0  0  0  0  0  0  0  0  0
   -4.6883    2.2939    0.0000 C   0  0  0  0  0  0  0  0  0  0  0  0
   -3.5736    1.2902    0.0000 O   0  0  0  0  0  0  0  0  0  0  0  0
   -2.1470    1.7537    0.0000 C   0  0  0  0  0  0  0  0  0  0  0  0
   -1.8351    3.2209    0.0000 C   0  0  0  0  0  0  0  0  0  0  0  0
   -2.9499    4.2246    0.0000 C   0  0  0  0  0  0  0  0  0  0  0  0
   -4.3764    3.7611    0.0000 O   0  0  0  0  0  0  0  0  0  0  0  0
   -2.6380    5.6918    0.0000 C   0  0  0  0  0  0  0  0  0  0  0  0
   -3.6417    6.8066    0.0000 N   0  0  0  0  0  0  0  0  0  0  0  0
   -2.8917    8.1056    0.0000 C   0  0  0  0  0  0  0  0  0  0  0  0
   -1.4245    7.7937    0.0000 C   0  0  0  0  0  0  0  0  0  0  0  0
   -1.2677    6.3019    0.0000 S   0  0  0  0  0  0  0  0  0  0  0  0
   -0.4086    3.6844    0.0000 C   0  0  0  0  0  0  0  0  0  0  0  0
    0.7062    2.6807    0.0000 N   0  0  0  0  0  0  0  0  0  0  0  0
    0.3943    1.2135    0.0000 C   0  0  0  0  0  0  0  0  0  0  0  0
    1.2760    0.0000    0.0000 N   0  0  0  0  0  0  0  0  0  0  0  0
    0.3943   -1.2135    0.0000 N   0  0  0  0  0  0  0  0  0  0  0  0
   -1.0323   -0.7500    0.0000 C   0  0  0  0  0  0  0  0  0  0  0  0
   -1.0323    0.7500    0.0000 C   0  0  0  0  0  0  0  0  0  0  0  0
  1  2  1  0
  2  3  1  0
  3  4  1  0
  4  5  1  0
  5  6  1  0
  6  7  1  0
  7  8  1  0
  8  9  2  0
  8 10  1  0
 10 11  2  0
 11 12  1  0
 12 13  2  0
 13 14  1  0
  7 15  2  0
 15 16  1  0
 16 17  1  0
 17 18  2  0
 18 19  1  0
 19 20  2  0
 20 21  1  0
 21  6  2  0
 14 10  1  0
 21 17  1  0
M  END
>  <Compound_ID>  (295) 
CHEMBL78959

>  <Active>  (295) 
1.0

>  <Smiles>  (295) 
CCCCOc1c(C(=O)c2nccs2)c[nH]c2nncc1-2

>  <canonical_smi>  (295) 
CCCCOc1c(C(=O)c2nccs2)c[nH]c2nncc1-2

>  <Set>  (295) 
G2 active

>  <Set_type>  (295) 
Train

>  <MW>  (295) 
302.36

>  <HBD>  (295) 
1

>  <HBA>  (295) 
5

>  <NRB>  (295) 
6

>  <NR>  (295) 
3

>  <NAR>  (295) 
3

>  <PSA>  (295) 
80.76

>  <Standard Type>  (295) 
nan

>  <Standard Relation>  (295) 
nan

>  <Standard Units>  (295) 
nan

>  <Standard Value>  (295) 
nan

>  <Assay ChEMBL ID>  (295) 
nan

>  <Assay Description>  (295) 
nan

>  <BAO Label>  (295) 
nan

$$$$

     RDKit          2D

 26 28  0  0  0  0  0  0  0  0999 V2000
   -3.4408    8.1628    0.0000 C   0  0  0  0  0  0  0  0  0  0  0  0
   -3.7527    6.6955    0.0000 C   0  0  0  0  0  0  0  0  0  0  0  0
   -2.6380    5.6918    0.0000 C   0  0  0  0  0  0  0  0  0  0  0  0
   -1.2114    6.1554    0.0000 C   0  0  0  0  0  0  0  0  0  0  0  0
   -0.8995    7.6226    0.0000 O   0  0  0  0  0  0  0  0  0  0  0  0
   -2.9499    4.2246    0.0000 N   0  0  0  0  0  0  0  0  0  0  0  0
   -1.8351    3.2209    0.0000 C   0  0  0  0  0  0  0  0  0  0  0  0
   -0.4086    3.6844    0.0000 N   0  0  0  0  0  0  0  0  0  0  0  0
    0.7062    2.6807    0.0000 C   0  0  0  0  0  0  0  0  0  0  0  0
    2.1328    3.1443    0.0000 N   0  0  0  0  0  0  0  0  0  0  0  0
    2.4446    4.6115    0.0000 C   0  0  0  0  0  0  0  0  0  0  0  0
    3.8712    5.0750    0.0000 C   0  0  0  0  0  0  0  0  0  0  0  0
    4.9859    4.0713    0.0000 C   0  0  0  0  0  0  0  0  0  0  0  0
    6.4125    4.5348    0.0000 C   0  0  0  0  0  0  0  0  0  0  0  0
    6.7244    6.0021    0.0000 C   0  0  0  0  0  0  0  0  0  0  0  0
    5.6097    7.0058    0.0000 C   0  0  0  0  0  0  0  0  0  0  0  0
    4.1831    6.5422    0.0000 C   0  0  0  0  0  0  0  0  0  0  0  0
    0.3943    1.2135    0.0000 C   0  0  0  0  0  0  0  0  0  0  0  0
    1.2760    0.0000    0.0000 N   0  0  0  0  0  0  0  0  0  0  0  0
    0.3943   -1.2135    0.0000 C   0  0  0  0  0  0  0  0  0  0  0  0
   -1.0323   -0.7500    0.0000 C   0  0  0  0  0  0  0  0  0  0  0  0
   -2.2458   -1.6317    0.0000 C   0  0  0  0  0  0  0  0  0  0  0  0
   -2.0890   -3.1235    0.0000 C   0  0  0  0  0  0  0  0  0  0  0  0
   -3.6161   -1.0216    0.0000 C   0  0  0  0  0  0  0  0  0  0  0  0
   -1.0323    0.7500    0.0000 N   0  0  0  0  0  0  0  0  0  0  0  0
   -2.1470    1.7537    0.0000 N   0  0  0  0  0  0  0  0  0  0  0  0
  1  2  1  0
  3  2  1  6
  3  4  1  0
  4  5  1  0
  3  6  1  0
  6  7  1  0
  7  8  1  0
  8  9  2  0
  9 10  1  0
 10 11  1  0
 11 12  1  0
 12 13  2  0
 13 14  1  0
 14 15  2  0
 15 16  1  0
 16 17  2  0
  9 18  1  0
 18 19  2  0
 19 20  1  0
 20 21  2  0
 21 22  1  0
 22 23  1  0
 22 24  1  0
 21 25  1  0
 25 26  1  0
 26  7  2  0
 17 12  1  0
 25 18  1  0
M  END
>  <Compound_ID>  (296) 
CHEMBL482211

>  <Active>  (296) 
1.0

>  <Smiles>  (296) 
CC[C@H](CO)Nc1nc(NCc2ccccc2)c2ncc(C(C)C)n2n1

>  <canonical_smi>  (296) 
CC[C@H](CO)Nc1nc(NCc2ccccc2)c2ncc(C(C)C)n2n1

>  <Set>  (296) 
G2 active

>  <Set_type>  (296) 
Train

>  <MW>  (296) 
354.46

>  <HBD>  (296) 
3

>  <HBA>  (296) 
6

>  <NRB>  (296) 
8

>  <NR>  (296) 
3

>  <NAR>  (296) 
3

>  <PSA>  (296) 
87.37

>  <Standard Type>  (296) 
nan

>  <Standard Relation>  (296) 
nan

>  <Standard Units>  (296) 
nan

>  <Standard Value>  (296) 
nan

>  <Assay ChEMBL ID>  (296) 
nan

>  <Assay Description>  (296) 
nan

>  <BAO Label>  (296) 
nan

$$$$

     RDKit          2D

 14 15  0  0  0  0  0  0  0  0999 V2000
    7.2760   -2.5981    0.0000 C   0  0  0  0  0  0  0  0  0  0  0  0
    5.7760   -2.5981    0.0000 C   0  0  0  0  0  0  0  0  0  0  0  0
    5.0260   -1.2990    0.0000 C   0  0  0  0  0  0  0  0  0  0  0  0
    3.5260   -1.2990    0.0000 C   0  0  0  0  0  0  0  0  0  0  0  0
    2.7760   -2.5981    0.0000 O   0  0  0  0  0  0  0  0  0  0  0  0
    2.7760    0.0000    0.0000 N   0  0  0  0  0  0  0  0  0  0  0  0
    1.2760    0.0000    0.0000 C   0  0  0  0  0  0  0  0  0  0  0  0
    0.3943    1.2135    0.0000 C   0  0  0  0  0  0  0  0  0  0  0  0
   -1.0323    0.7500    0.0000 C   0  0  0  0  0  0  0  0  0  0  0  0
   -2.2458    1.6317    0.0000 C   0  0  0  0  0  0  0  0  0  0  0  0
   -3.7376    1.7885    0.0000 C   0  0  0  0  0  0  0  0  0  0  0  0
   -2.8559    3.0020    0.0000 C   0  0  0  0  0  0  0  0  0  0  0  0
   -1.0323   -0.7500    0.0000 N   0  0  0  0  0  0  0  0  0  0  0  0
    0.3943   -1.2135    0.0000 N   0  0  0  0  0  0  0  0  0  0  0  0
  1  2  1  0
  2  3  1  0
  3  4  1  0
  4  5  2  0
  4  6  1  0
  6  7  1  0
  7  8  1  0
  8  9  2  0
  9 10  1  0
 10 11  1  0
 11 12  1  0
  9 13  1  0
 13 14  1  0
 14  7  2  0
 12 10  1  0
M  END
>  <Compound_ID>  (297) 
CHEMBL112442

>  <Active>  (297) 
1.0

>  <Smiles>  (297) 
CCCC(=O)Nc1cc(C2CC2)[nH]n1

>  <canonical_smi>  (297) 
CCCC(=O)Nc1cc(C2CC2)[nH]n1

>  <Set>  (297) 
G2 active

>  <Set_type>  (297) 
Train

>  <MW>  (297) 
193.25

>  <HBD>  (297) 
2

>  <HBA>  (297) 
2

>  <NRB>  (297) 
4

>  <NR>  (297) 
2

>  <NAR>  (297) 
1

>  <PSA>  (297) 
57.78

>  <Standard Type>  (297) 
nan

>  <Standard Relation>  (297) 
nan

>  <Standard Units>  (297) 
nan

>  <Standard Value>  (297) 
nan

>  <Assay ChEMBL ID>  (297) 
nan

>  <Assay Description>  (297) 
nan

>  <BAO Label>  (297) 
nan

$$$$

     RDKit          2D

 24 26  0  0  0  0  0  0  0  0999 V2000
    7.4557  -13.2052    0.0000 C   0  0  0  0  0  0  0  0  0  0  0  0
    8.7547  -12.4552    0.0000 C   0  0  0  0  0  0  0  0  0  0  0  0
   10.0538  -11.7052    0.0000 C   0  0  0  0  0  0  0  0  0  0  0  0
    9.5047  -13.7542    0.0000 C   0  0  0  0  0  0  0  0  0  0  0  0
    8.0047  -11.1562    0.0000 C   0  0  0  0  0  0  0  0  0  0  0  0
    8.6148   -9.7859    0.0000 C   0  0  0  0  0  0  0  0  0  0  0  0
    7.5001   -8.7822    0.0000 N   0  0  0  0  0  0  0  0  0  0  0  0
    6.2011   -9.5322    0.0000 C   0  0  0  0  0  0  0  0  0  0  0  0
    4.8308   -8.9221    0.0000 C   0  0  0  0  0  0  0  0  0  0  0  0
    4.6740   -7.4303    0.0000 S   0  0  0  0  0  0  0  0  0  0  0  0
    3.3037   -6.8202    0.0000 C   0  0  0  0  0  0  0  0  0  0  0  0
    2.0046   -7.5702    0.0000 C   0  0  0  0  0  0  0  0  0  0  0  0
    0.8899   -6.5665    0.0000 N   0  0  0  0  0  0  0  0  0  0  0  0
    1.5000   -5.1962    0.0000 C   0  0  0  0  0  0  0  0  0  0  0  0
    0.7500   -3.8971    0.0000 N   0  0  0  0  0  0  0  0  0  0  0  0
    1.5000   -2.5981    0.0000 C   0  0  0  0  0  0  0  0  0  0  0  0
    0.7500   -1.2990    0.0000 C   0  0  0  0  0  0  0  0  0  0  0  0
    1.5000    0.0000    0.0000 C   0  0  0  0  0  0  0  0  0  0  0  0
    0.7500    1.2990    0.0000 C   0  0  0  0  0  0  0  0  0  0  0  0
   -0.7500    1.2990    0.0000 N   0  0  0  0  0  0  0  0  0  0  0  0
   -1.5000    0.0000    0.0000 C   0  0  0  0  0  0  0  0  0  0  0  0
   -0.7500   -1.2990    0.0000 C   0  0  0  0  0  0  0  0  0  0  0  0
    2.9918   -5.3529    0.0000 S   0  0  0  0  0  0  0  0  0  0  0  0
    6.5129  -10.9994    0.0000 O   0  0  0  0  0  0  0  0  0  0  0  0
  1  2  1  0
  2  3  1  0
  2  4  1  0
  2  5  1  0
  5  6  2  0
  6  7  1  0
  7  8  2  0
  8  9  1  0
  9 10  1  0
 10 11  1  0
 11 12  2  0
 12 13  1  0
 13 14  2  0
 14 15  1  0
 15 16  1  0
 16 17  1  0
 17 18  1  0
 18 19  1  0
 19 20  1  0
 20 21  1  0
 21 22  1  0
 14 23  1  0
  8 24  1  0
 24  5  1  0
 23 11  1  0
 22 17  1  0
M  END
>  <Compound_ID>  (298) 
CHEMBL524629

>  <Active>  (298) 
1.0

>  <Smiles>  (298) 
CC(C)(C)c1cnc(CSc2cnc(NCC3CCNCC3)s2)o1

>  <canonical_smi>  (298) 
CC(C)(C)c1cnc(CSc2cnc(NCC3CCNCC3)s2)o1

>  <Set>  (298) 
G2 active

>  <Set_type>  (298) 
Train

>  <MW>  (298) 
366.56

>  <HBD>  (298) 
2

>  <HBA>  (298) 
6

>  <NRB>  (298) 
6

>  <NR>  (298) 
3

>  <NAR>  (298) 
2

>  <PSA>  (298) 
62.98

>  <Standard Type>  (298) 
nan

>  <Standard Relation>  (298) 
nan

>  <Standard Units>  (298) 
nan

>  <Standard Value>  (298) 
nan

>  <Assay ChEMBL ID>  (298) 
nan

>  <Assay Description>  (298) 
nan

>  <BAO Label>  (298) 
nan

$$$$

     RDKit          2D

 34 37  0  0  0  0  0  0  0  0999 V2000
    3.0000    0.0000    0.0000 C   0  0  0  0  0  0  0  0  0  0  0  0
    1.5000    0.0000    0.0000 C   0  0  0  0  0  0  0  0  0  0  0  0
    0.7500   -1.2990    0.0000 C   0  0  0  0  0  0  0  0  0  0  0  0
   -0.7500   -1.2990    0.0000 C   0  0  0  0  0  0  0  0  0  0  0  0
   -1.5000    0.0000    0.0000 C   0  0  0  0  0  0  0  0  0  0  0  0
   -3.0000    0.0000    0.0000 S   0  0  0  0  0  0  0  0  0  0  0  0
   -3.7500    1.2990    0.0000 C   0  0  0  0  0  0  0  0  0  0  0  0
   -5.2418    1.4558    0.0000 C   0  0  0  0  0  0  0  0  0  0  0  0
   -5.5537    2.9231    0.0000 N   0  0  0  0  0  0  0  0  0  0  0  0
   -4.2546    3.6731    0.0000 C   0  0  0  0  0  0  0  0  0  0  0  0
   -4.0978    5.1648    0.0000 N   0  0  0  0  0  0  0  0  0  0  0  0
   -5.3113    6.0465    0.0000 C   0  0  0  0  0  0  0  0  0  0  0  0
   -5.1546    7.5383    0.0000 C   0  0  0  0  0  0  0  0  0  0  0  0
   -6.3681    8.4200    0.0000 C   0  0  0  0  0  0  0  0  0  0  0  0
   -7.7384    7.8099    0.0000 C   0  0  0  0  0  0  0  0  0  0  0  0
   -7.8952    6.3181    0.0000 C   0  0  0  0  0  0  0  0  0  0  0  0
   -9.2655    5.7080    0.0000 Br  0  0  0  0  0  0  0  0  0  0  0  0
   -6.6817    5.4364    0.0000 N   0  0  0  0  0  0  0  0  0  0  0  0
   -3.1399    2.6694    0.0000 S   0  0  0  0  0  0  0  0  0  0  0  0
   -0.7500    1.2990    0.0000 C   0  0  0  0  0  0  0  0  0  0  0  0
    0.7500    1.2990    0.0000 C   0  0  0  0  0  0  0  0  0  0  0  0
    1.5000    2.5981    0.0000 C   0  0  0  0  0  0  0  0  0  0  0  0
    3.0000    2.5981    0.0000 O   0  0  0  0  0  0  0  0  0  0  0  0
    0.7500    3.8971    0.0000 N   0  0  0  0  0  0  0  0  0  0  0  0
    1.5000    5.1962    0.0000 C   0  0  0  0  0  0  0  0  0  0  0  0
    0.7500    6.4952    0.0000 C   0  0  0  0  0  0  0  0  0  0  0  0
   -0.7500    6.4952    0.0000 N   0  0  0  0  0  0  0  0  0  0  0  0
   -1.5000    7.7942    0.0000 C   0  0  0  0  0  0  0  0  0  0  0  0
   -3.0000    7.7942    0.0000 O   0  0  0  0  0  0  0  0  0  0  0  0
   -0.7500    9.0933    0.0000 C   0  0  0  0  0  0  0  0  0  0  0  0
   -1.5000   10.3923    0.0000 C   0  0  0  0  0  0  0  0  0  0  0  0
    0.7500    9.0933    0.0000 N   0  0  0  0  0  0  0  0  0  0  0  0
   -1.5000    5.1962    0.0000 C   0  0  0  0  0  0  0  0  0  0  0  0
   -0.7500    3.8971    0.0000 C   0  0  0  0  0  0  0  0  0  0  0  0
  1  2  1  0
  2  3  2  0
  3  4  1  0
  4  5  2  0
  5  6  1  0
  6  7  1  0
  7  8  2  0
  8  9  1  0
  9 10  2  0
 10 11  1  0
 11 12  1  0
 12 13  2  0
 13 14  1  0
 14 15  2  0
 15 16  1  0
 16 17  1  0
 16 18  2  0
 10 19  1  0
  5 20  1  0
 20 21  2  0
 21 22  1  0
 22 23  2  0
 22 24  1  0
 24 25  1  0
 25 26  1  0
 26 27  1  0
 27 28  1  0
 28 29  2  0
 28 30  1  0
 30 31  1  1
 30 32  1  0
 27 33  1  0
 33 34  1  0
 21  2  1  0
 34 24  1  0
 19  7  1  0
 18 12  1  0
M  END
>  <Compound_ID>  (299) 
CHEMBL251796

>  <Active>  (299) 
1.0

>  <Smiles>  (299) 
Cc1ccc(Sc2cnc(Nc3cccc(Br)n3)s2)cc1C(=O)N1CCN(C(=O)[C@@H](C)N)CC1

>  <canonical_smi>  (299) 
Cc1ccc(Sc2cnc(Nc3cccc(Br)n3)s2)cc1C(=O)N1CCN(C(=O)[C@@H](C)N)CC1

>  <Set>  (299) 
G2 active

>  <Set_type>  (299) 
Train

>  <MW>  (299) 
561.53

>  <HBD>  (299) 
2

>  <HBA>  (299) 
7

>  <NRB>  (299) 
6

>  <NR>  (299) 
4

>  <NAR>  (299) 
3

>  <PSA>  (299) 
104.45

>  <Standard Type>  (299) 
nan

>  <Standard Relation>  (299) 
nan

>  <Standard Units>  (299) 
nan

>  <Standard Value>  (299) 
nan

>  <Assay ChEMBL ID>  (299) 
nan

>  <Assay Description>  (299) 
nan

>  <BAO Label>  (299) 
nan

$$$$

     RDKit          2D

 26 29  0  0  0  0  0  0  0  0999 V2000
    0.7500   -3.8971    0.0000 C   0  0  0  0  0  0  0  0  0  0  0  0
    1.5000   -2.5981    0.0000 C   0  0  0  0  0  0  0  0  0  0  0  0
    3.0000   -2.5981    0.0000 C   0  0  0  0  0  0  0  0  0  0  0  0
    3.7500   -1.2990    0.0000 O   0  0  0  0  0  0  0  0  0  0  0  0
    3.7500   -3.8971    0.0000 N   0  0  0  0  0  0  0  0  0  0  0  0
    5.2500   -3.8971    0.0000 C   0  0  0  0  0  0  0  0  0  0  0  0
    6.1317   -2.6836    0.0000 C   0  0  0  0  0  0  0  0  0  0  0  0
    7.5583   -3.1471    0.0000 C   0  0  0  0  0  0  0  0  0  0  0  0
    8.7718   -2.2654    0.0000 C   0  0  0  0  0  0  0  0  0  0  0  0
    9.3819   -0.8951    0.0000 C   0  0  0  0  0  0  0  0  0  0  0  0
   10.2636   -2.1086    0.0000 C   0  0  0  0  0  0  0  0  0  0  0  0
    7.5583   -4.6471    0.0000 N   0  0  0  0  0  0  0  0  0  0  0  0
    6.1317   -5.1106    0.0000 N   0  0  0  0  0  0  0  0  0  0  0  0
    0.7500   -1.2990    0.0000 C   0  0  0  0  0  0  0  0  0  0  0  0
    1.5000    0.0000    0.0000 C   0  0  0  0  0  0  0  0  0  0  0  0
    0.7500    1.2990    0.0000 C   0  0  0  0  0  0  0  0  0  0  0  0
   -0.7500    1.2990    0.0000 C   0  0  0  0  0  0  0  0  0  0  0  0
   -1.5000    2.5981    0.0000 N   0  0  0  0  0  0  0  0  0  0  0  0
   -0.7500    3.8971    0.0000 C   0  0  0  0  0  0  0  0  0  0  0  0
   -1.5000    5.1962    0.0000 C   0  0  0  0  0  0  0  0  0  0  0  0
   -3.0000    5.1962    0.0000 C   0  0  0  0  0  0  0  0  0  0  0  0
   -3.7500    3.8971    0.0000 C   0  0  0  0  0  0  0  0  0  0  0  0
   -3.0000    2.5981    0.0000 C   0  0  0  0  0  0  0  0  0  0  0  0
   -3.7500    1.2990    0.0000 O   0  0  0  0  0  0  0  0  0  0  0  0
   -1.5000    0.0000    0.0000 C   0  0  0  0  0  0  0  0  0  0  0  0
   -0.7500   -1.2990    0.0000 C   0  0  0  0  0  0  0  0  0  0  0  0
  1  2  1  0
  2  3  1  0
  3  4  2  0
  3  5  1  0
  5  6  1  0
  6  7  1  0
  7  8  2  0
  8  9  1  0
  9 10  1  0
 10 11  1  0
  8 12  1  0
 12 13  1  0
  2 14  1  0
 14 15  2  0
 15 16  1  0
 16 17  2  0
 17 18  1  0
 18 19  1  0
 19 20  1  0
 20 21  1  0
 21 22  1  0
 22 23  1  0
 23 24  2  0
 17 25  1  0
 25 26  2  0
 13  6  2  0
 26 14  1  0
 11  9  1  0
 23 18  1  0
M  END
>  <Compound_ID>  (300) 
CHEMBL191865

>  <Active>  (300) 
1.0

>  <Smiles>  (300) 
CC(C(=O)Nc1cc(C2CC2)[nH]n1)c1ccc(N2CCCCC2=O)cc1

>  <canonical_smi>  (300) 
CC(C(=O)Nc1cc(C2CC2)[nH]n1)c1ccc(N2CCCCC2=O)cc1

>  <Set>  (300) 
G2 active

>  <Set_type>  (300) 
Train

>  <MW>  (300) 
352.44

>  <HBD>  (300) 
2

>  <HBA>  (300) 
3

>  <NRB>  (300) 
5

>  <NR>  (300) 
4

>  <NAR>  (300) 
2

>  <PSA>  (300) 
78.09

>  <Standard Type>  (300) 
nan

>  <Standard Relation>  (300) 
nan

>  <Standard Units>  (300) 
nan

>  <Standard Value>  (300) 
nan

>  <Assay ChEMBL ID>  (300) 
nan

>  <Assay Description>  (300) 
nan

>  <BAO Label>  (300) 
nan

$$$$

     RDKit          2D

 29 33  0  0  0  0  0  0  0  0999 V2000
   -1.5000   -5.1962    0.0000 O   0  0  0  0  0  0  0  0  0  0  0  0
   -0.7500   -3.8971    0.0000 C   0  0  0  0  0  0  0  0  0  0  0  0
    0.7500   -3.8971    0.0000 C   0  0  0  0  0  0  0  0  0  0  0  0
    1.5000   -2.5981    0.0000 C   0  0  0  0  0  0  0  0  0  0  0  0
    0.7500   -1.2990    0.0000 C   0  0  0  0  0  0  0  0  0  0  0  0
    1.5000    0.0000    0.0000 C   0  0  0  0  0  0  0  0  0  0  0  0
    0.7500    1.2990    0.0000 N   0  0  0  0  0  0  0  0  0  0  0  0
   -0.7500    1.2990    0.0000 C   0  0  0  0  0  0  0  0  0  0  0  0
   -1.5000    2.5981    0.0000 N   0  0  0  0  0  0  0  0  0  0  0  0
   -0.7500    3.8971    0.0000 C   0  0  0  0  0  0  0  0  0  0  0  0
    0.7500    3.8971    0.0000 C   0  0  0  0  0  0  0  0  0  0  0  0
    1.5000    5.1962    0.0000 C   0  0  0  0  0  0  0  0  0  0  0  0
    0.7500    6.4952    0.0000 C   0  0  0  0  0  0  0  0  0  0  0  0
    1.5000    7.7942    0.0000 N   0  0  0  0  0  0  0  0  0  0  0  0
    3.0000    7.7942    0.0000 C   0  0  0  0  0  0  0  0  0  0  0  0
    3.7500    9.0933    0.0000 C   0  0  0  0  0  0  0  0  0  0  0  0
    3.0000   10.3923    0.0000 C   0  0  0  0  0  0  0  0  0  0  0  0
    1.5000   10.3923    0.0000 C   0  0  0  0  0  0  0  0  0  0  0  0
    0.7500    9.0933    0.0000 C   0  0  0  0  0  0  0  0  0  0  0  0
   -0.7500    6.4952    0.0000 C   0  0  0  0  0  0  0  0  0  0  0  0
   -1.5000    5.1962    0.0000 C   0  0  0  0  0  0  0  0  0  0  0  0
   -1.5000    0.0000    0.0000 N   0  0  0  0  0  0  0  0  0  0  0  0
   -0.7500   -1.2990    0.0000 C   0  0  0  0  0  0  0  0  0  0  0  0
   -1.5000   -2.5981    0.0000 N   0  0  0  0  0  0  0  0  0  0  0  0
   -3.0000   -2.5981    0.0000 C   0  0  0  0  0  0  0  0  0  0  0  0
   -3.8817   -3.8116    0.0000 C   0  0  0  0  0  0  0  0  0  0  0  0
   -5.3083   -3.3481    0.0000 C   0  0  0  0  0  0  0  0  0  0  0  0
   -5.3083   -1.8481    0.0000 C   0  0  0  0  0  0  0  0  0  0  0  0
   -3.8817   -1.3846    0.0000 C   0  0  0  0  0  0  0  0  0  0  0  0
  1  2  2  0
  2  3  1  0
  3  4  2  0
  4  5  1  0
  5  6  2  0
  6  7  1  0
  7  8  2  0
  8  9  1  0
  9 10  1  0
 10 11  2  0
 11 12  1  0
 12 13  2  0
 13 14  1  0
 14 15  1  0
 15 16  1  0
 16 17  1  0
 17 18  1  0
 18 19  1  0
 13 20  1  0
 20 21  2  0
  8 22  1  0
 22 23  2  0
 23 24  1  0
 24 25  1  0
 25 26  1  0
 26 27  1  0
 27 28  1  0
 28 29  1  0
 24  2  1  0
 29 25  1  0
 23  5  1  0
 21 10  1  0
 19 14  1  0
M  END
>  <Compound_ID>  (301) 
CHEMBL372207

>  <Active>  (301) 
1.0

>  <Smiles>  (301) 
O=c1ccc2cnc(Nc3ccc(N4CCCCC4)cc3)nc2n1C1CCCC1

>  <canonical_smi>  (301) 
O=c1ccc2cnc(Nc3ccc(N4CCCCC4)cc3)nc2n1C1CCCC1

>  <Set>  (301) 
G2 active

>  <Set_type>  (301) 
Train

>  <MW>  (301) 
389.5

>  <HBD>  (301) 
1

>  <HBA>  (301) 
5

>  <NRB>  (301) 
4

>  <NR>  (301) 
5

>  <NAR>  (301) 
3

>  <PSA>  (301) 
63.05

>  <Standard Type>  (301) 
nan

>  <Standard Relation>  (301) 
nan

>  <Standard Units>  (301) 
nan

>  <Standard Value>  (301) 
nan

>  <Assay ChEMBL ID>  (301) 
nan

>  <Assay Description>  (301) 
nan

>  <BAO Label>  (301) 
nan

$$$$

     RDKit          2D

 24 25  0  0  0  0  0  0  0  0999 V2000
    5.7760   -2.5981    0.0000 C   0  0  0  0  0  0  0  0  0  0  0  0
    5.0260   -1.2990    0.0000 C   0  0  0  0  0  0  0  0  0  0  0  0
    5.7760    0.0000    0.0000 C   0  0  0  0  0  0  0  0  0  0  0  0
    3.5260   -1.2990    0.0000 C   0  0  0  0  0  0  0  0  0  0  0  0
    2.7760   -2.5981    0.0000 O   0  0  0  0  0  0  0  0  0  0  0  0
    2.7760    0.0000    0.0000 N   0  0  0  0  0  0  0  0  0  0  0  0
    1.2760    0.0000    0.0000 C   0  0  0  0  0  0  0  0  0  0  0  0
    0.3943    1.2135    0.0000 N   0  0  0  0  0  0  0  0  0  0  0  0
   -1.0323    0.7500    0.0000 C   0  0  0  0  0  0  0  0  0  0  0  0
   -1.0323   -0.7500    0.0000 C   0  0  0  0  0  0  0  0  0  0  0  0
   -2.2458   -1.6317    0.0000 S   0  0  0  0  0  0  0  0  0  0  0  0
   -1.3641   -2.8452    0.0000 O   0  0  0  0  0  0  0  0  0  0  0  0
   -3.1275   -0.4182    0.0000 O   0  0  0  0  0  0  0  0  0  0  0  0
   -3.4593   -2.5134    0.0000 C   0  0  0  0  0  0  0  0  0  0  0  0
   -3.3025   -4.0051    0.0000 C   0  0  0  0  0  0  0  0  0  0  0  0
   -2.0035   -4.7551    0.0000 N   0  0  0  0  0  0  0  0  0  0  0  0
   -2.3154   -6.2224    0.0000 C   0  0  0  0  0  0  0  0  0  0  0  0
   -3.8072   -6.3792    0.0000 C   0  0  0  0  0  0  0  0  0  0  0  0
   -4.5572   -7.6782    0.0000 C   0  0  0  0  0  0  0  0  0  0  0  0
   -5.8562   -6.9282    0.0000 C   0  0  0  0  0  0  0  0  0  0  0  0
   -3.2581   -8.4282    0.0000 C   0  0  0  0  0  0  0  0  0  0  0  0
   -5.3072   -8.9772    0.0000 C   0  0  0  0  0  0  0  0  0  0  0  0
   -4.4173   -5.0088    0.0000 O   0  0  0  0  0  0  0  0  0  0  0  0
    0.3943   -1.2135    0.0000 S   0  0  0  0  0  0  0  0  0  0  0  0
  1  2  1  0
  2  3  1  0
  2  4  1  0
  4  5  2  0
  4  6  1  0
  6  7  1  0
  7  8  2  0
  8  9  1  0
  9 10  2  0
 10 11  1  0
 11 12  2  0
 11 13  2  0
 11 14  1  0
 14 15  1  0
 15 16  2  0
 16 17  1  0
 17 18  2  0
 18 19  1  0
 19 20  1  0
 19 21  1  0
 19 22  1  0
 18 23  1  0
 10 24  1  0
 24  7  1  0
 23 15  1  0
M  END
>  <Compound_ID>  (302) 
CHEMBL435992

>  <Active>  (302) 
1.0

>  <Smiles>  (302) 
CC(C)C(=O)Nc1ncc(S(=O)(=O)Cc2ncc(C(C)(C)C)o2)s1

>  <canonical_smi>  (302) 
CC(C)C(=O)Nc1ncc(S(=O)(=O)Cc2ncc(C(C)(C)C)o2)s1

>  <Set>  (302) 
G2 active

>  <Set_type>  (302) 
Train

>  <MW>  (302) 
371.48

>  <HBD>  (302) 
1

>  <HBA>  (302) 
6

>  <NRB>  (302) 
5

>  <NR>  (302) 
2

>  <NAR>  (302) 
2

>  <PSA>  (302) 
102.16

>  <Standard Type>  (302) 
nan

>  <Standard Relation>  (302) 
nan

>  <Standard Units>  (302) 
nan

>  <Standard Value>  (302) 
nan

>  <Assay ChEMBL ID>  (302) 
nan

>  <Assay Description>  (302) 
nan

>  <BAO Label>  (302) 
nan

$$$$

     RDKit          2D

 21 23  0  0  0  0  0  0  0  0999 V2000
   -3.7500   -3.8971    0.0000 C   0  0  0  0  0  0  0  0  0  0  0  0
   -3.0000   -2.5981    0.0000 C   0  0  0  0  0  0  0  0  0  0  0  0
   -3.7500   -1.2990    0.0000 C   0  0  0  0  0  0  0  0  0  0  0  0
   -1.5000   -2.5981    0.0000 C   0  0  0  0  0  0  0  0  0  0  0  0
   -0.7500   -3.8971    0.0000 C   0  0  0  0  0  0  0  0  0  0  0  0
   -1.5000   -5.1962    0.0000 O   0  0  0  0  0  0  0  0  0  0  0  0
    0.7500   -3.8971    0.0000 C   0  0  0  0  0  0  0  0  0  0  0  0
    1.5000   -2.5981    0.0000 C   0  0  0  0  0  0  0  0  0  0  0  0
    0.7500   -1.2990    0.0000 C   0  0  0  0  0  0  0  0  0  0  0  0
    1.5000    0.0000    0.0000 C   0  0  0  0  0  0  0  0  0  0  0  0
    0.7500    1.2990    0.0000 N   0  0  0  0  0  0  0  0  0  0  0  0
   -0.7500    1.2990    0.0000 C   0  0  0  0  0  0  0  0  0  0  0  0
   -1.5000    2.5981    0.0000 N   0  0  0  0  0  0  0  0  0  0  0  0
   -0.7500    3.8971    0.0000 C   0  0  0  0  0  0  0  0  0  0  0  0
    0.7500    3.8971    0.0000 C   0  0  0  0  0  0  0  0  0  0  0  0
    1.5000    5.1962    0.0000 C   0  0  0  0  0  0  0  0  0  0  0  0
    0.7500    6.4952    0.0000 C   0  0  0  0  0  0  0  0  0  0  0  0
   -0.7500    6.4952    0.0000 C   0  0  0  0  0  0  0  0  0  0  0  0
   -1.5000    5.1962    0.0000 C   0  0  0  0  0  0  0  0  0  0  0  0
   -1.5000    0.0000    0.0000 N   0  0  0  0  0  0  0  0  0  0  0  0
   -0.7500   -1.2990    0.0000 C   0  0  0  0  0  0  0  0  0  0  0  0
  1  2  1  0
  2  3  1  0
  2  4  1  0
  4  5  2  0
  5  6  1  0
  5  7  1  0
  7  8  2  0
  8  9  1  0
  9 10  2  0
 10 11  1  0
 11 12  2  0
 12 13  1  0
 13 14  1  0
 14 15  2  0
 15 16  1  0
 16 17  2  0
 17 18  1  0
 18 19  2  0
 12 20  1  0
 20 21  2  0
 21  4  1  0
 21  9  1  0
 19 14  1  0
M  END
>  <Compound_ID>  (303) 
CHEMBL180993

>  <Active>  (303) 
1.0

>  <Smiles>  (303) 
CC(C)c1c(O)ccc2cnc(Nc3ccccc3)nc12

>  <canonical_smi>  (303) 
CC(C)c1c(O)ccc2cnc(Nc3ccccc3)nc12

>  <Set>  (303) 
G2 active

>  <Set_type>  (303) 
Train

>  <MW>  (303) 
279.34

>  <HBD>  (303) 
2

>  <HBA>  (303) 
4

>  <NRB>  (303) 
3

>  <NR>  (303) 
3

>  <NAR>  (303) 
3

>  <PSA>  (303) 
58.04

>  <Standard Type>  (303) 
nan

>  <Standard Relation>  (303) 
nan

>  <Standard Units>  (303) 
nan

>  <Standard Value>  (303) 
nan

>  <Assay ChEMBL ID>  (303) 
nan

>  <Assay Description>  (303) 
nan

>  <BAO Label>  (303) 
nan

$$$$

     RDKit          2D

 26 30  0  0  0  0  0  0  0  0999 V2000
   -4.6613    6.0728    0.0000 N   0  0  0  0  0  0  0  0  0  0  0  0
   -3.2910    5.4627    0.0000 C   0  0  0  0  0  0  0  0  0  0  0  0
   -2.0774    6.3444    0.0000 O   0  0  0  0  0  0  0  0  0  0  0  0
   -3.1342    3.9709    0.0000 C   0  0  0  0  0  0  0  0  0  0  0  0
   -4.2489    2.9672    0.0000 N   0  0  0  0  0  0  0  0  0  0  0  0
   -3.6388    1.5969    0.0000 N   0  0  0  0  0  0  0  0  0  0  0  0
   -4.3888    0.2979    0.0000 C   0  0  0  0  0  0  0  0  0  0  0  0
   -5.8888    0.2979    0.0000 C   0  0  0  0  0  0  0  0  0  0  0  0
   -6.6388   -1.0012    0.0000 C   0  0  0  0  0  0  0  0  0  0  0  0
   -5.8888   -2.3002    0.0000 C   0  0  0  0  0  0  0  0  0  0  0  0
   -6.6388   -3.5992    0.0000 C   0  0  0  0  0  0  0  0  0  0  0  0
   -6.0287   -4.9696    0.0000 N   0  0  0  0  0  0  0  0  0  0  0  0
   -7.1434   -5.9733    0.0000 C   0  0  0  0  0  0  0  0  0  0  0  0
   -8.4424   -5.2233    0.0000 C   0  0  0  0  0  0  0  0  0  0  0  0
   -8.1306   -3.7560    0.0000 N   0  0  0  0  0  0  0  0  0  0  0  0
   -4.3888   -2.3002    0.0000 C   0  0  0  0  0  0  0  0  0  0  0  0
   -3.6388   -1.0012    0.0000 C   0  0  0  0  0  0  0  0  0  0  0  0
   -2.1470    1.7537    0.0000 C   0  0  0  0  0  0  0  0  0  0  0  0
   -1.8351    3.2209    0.0000 C   0  0  0  0  0  0  0  0  0  0  0  0
   -0.4086    3.6844    0.0000 C   0  0  0  0  0  0  0  0  0  0  0  0
    0.7062    2.6807    0.0000 C   0  0  0  0  0  0  0  0  0  0  0  0
    0.3943    1.2135    0.0000 C   0  0  0  0  0  0  0  0  0  0  0  0
    1.2760    0.0000    0.0000 N   0  0  0  0  0  0  0  0  0  0  0  0
    0.3943   -1.2135    0.0000 N   0  0  0  0  0  0  0  0  0  0  0  0
   -1.0323   -0.7500    0.0000 C   0  0  0  0  0  0  0  0  0  0  0  0
   -1.0323    0.7500    0.0000 C   0  0  0  0  0  0  0  0  0  0  0  0
  1  2  1  0
  2  3  2  0
  2  4  1  0
  4  5  2  0
  5  6  1  0
  6  7  1  0
  7  8  2  0
  8  9  1  0
  9 10  2  0
 10 11  1  0
 11 12  2  0
 12 13  1  0
 13 14  1  0
 14 15  2  0
 10 16  1  0
 16 17  2  0
  6 18  1  0
 18 19  2  0
 19 20  1  0
 20 21  1  0
 21 22  1  0
 22 23  2  0
 23 24  1  0
 24 25  1  0
 25 26  2  0
 19  4  1  0
 26 22  1  0
 17  7  1  0
 26 18  1  0
 15 11  1  0
M  END
>  <Compound_ID>  (304) 
CHEMBL179511

>  <Active>  (304) 
1.0

>  <Smiles>  (304) 
NC(=O)c1nn(-c2ccc(C3=NCC=N3)cc2)c2c1CCc1n[nH]cc1-2

>  <canonical_smi>  (304) 
NC(=O)c1nn(-c2ccc(C3=NCC=N3)cc2)c2c1CCc1n[nH]cc1-2

>  <Set>  (304) 
G2 active

>  <Set_type>  (304) 
Train

>  <MW>  (304) 
345.37

>  <HBD>  (304) 
2

>  <HBA>  (304) 
3

>  <NRB>  (304) 
3

>  <NR>  (304) 
5

>  <NAR>  (304) 
3

>  <PSA>  (304) 
114.31

>  <Standard Type>  (304) 
nan

>  <Standard Relation>  (304) 
nan

>  <Standard Units>  (304) 
nan

>  <Standard Value>  (304) 
nan

>  <Assay ChEMBL ID>  (304) 
nan

>  <Assay Description>  (304) 
nan

>  <BAO Label>  (304) 
nan

$$$$

     RDKit          2D

 17 19  0  0  0  0  0  0  0  0999 V2000
    2.7760    0.0000    0.0000 C   0  0  0  0  0  0  0  0  0  0  0  0
    1.2760    0.0000    0.0000 C   0  0  0  0  0  0  0  0  0  0  0  0
    0.3943    1.2135    0.0000 N   0  0  0  0  0  0  0  0  0  0  0  0
   -1.0323    0.7500    0.0000 N   0  0  0  0  0  0  0  0  0  0  0  0
   -1.0323   -0.7500    0.0000 C   0  0  0  0  0  0  0  0  0  0  0  0
   -1.9140   -1.9635    0.0000 S   0  0  0  0  0  0  0  0  0  0  0  0
   -1.0323   -3.1771    0.0000 C   0  0  0  0  0  0  0  0  0  0  0  0
   -1.4958   -4.6036    0.0000 C   0  0  0  0  0  0  0  0  0  0  0  0
   -2.9630   -4.9155    0.0000 C   0  0  0  0  0  0  0  0  0  0  0  0
   -3.5731   -6.2858    0.0000 S   0  0  0  0  0  0  0  0  0  0  0  0
   -5.0649   -6.1290    0.0000 C   0  0  0  0  0  0  0  0  0  0  0  0
   -6.0686   -7.2437    0.0000 N   0  0  0  0  0  0  0  0  0  0  0  0
   -5.3768   -4.6618    0.0000 N   0  0  0  0  0  0  0  0  0  0  0  0
   -4.0778   -3.9118    0.0000 C   0  0  0  0  0  0  0  0  0  0  0  0
   -3.9210   -2.4200    0.0000 O   0  0  0  0  0  0  0  0  0  0  0  0
    0.3943   -2.7135    0.0000 N   0  0  0  0  0  0  0  0  0  0  0  0
    0.3943   -1.2135    0.0000 N   0  0  0  0  0  0  0  0  0  0  0  0
  1  2  1  0
  2  3  2  0
  3  4  1  0
  4  5  2  0
  5  6  1  0
  6  7  1  0
  7  8  1  0
  8  9  1  0
  9 10  1  0
 10 11  1  0
 11 12  1  0
 11 13  2  0
 13 14  1  0
 14 15  1  0
  7 16  2  0
 16 17  1  0
 17  2  1  0
 17  5  1  0
 14  9  2  0
M  END
>  <Compound_ID>  (305) 
CHEMBL556214

>  <Active>  (305) 
1.0

>  <Smiles>  (305) 
Cc1nnc2sc(Cc3sc(N)nc3O)nn12

>  <canonical_smi>  (305) 
Cc1nnc2sc(Cc3sc(N)nc3O)nn12

>  <Set>  (305) 
G2 active

>  <Set_type>  (305) 
Train

>  <MW>  (305) 
268.33

>  <HBD>  (305) 
2

>  <HBA>  (305) 
6

>  <NRB>  (305) 
2

>  <NR>  (305) 
3

>  <NAR>  (305) 
3

>  <PSA>  (305) 
102.22

>  <Standard Type>  (305) 
nan

>  <Standard Relation>  (305) 
nan

>  <Standard Units>  (305) 
nan

>  <Standard Value>  (305) 
nan

>  <Assay ChEMBL ID>  (305) 
nan

>  <Assay Description>  (305) 
nan

>  <BAO Label>  (305) 
nan

$$$$

     RDKit          2D

 35 42  0  0  0  0  0  0  0  0999 V2000
    7.9532   -3.2017    0.0000 C   0  0  0  0  0  0  0  0  0  0  0  0
    6.4699   -2.9781    0.0000 O   0  0  0  0  0  0  0  0  0  0  0  0
    5.5347   -4.1509    0.0000 C   0  0  0  0  0  0  0  0  0  0  0  0
    6.0827   -5.5472    0.0000 O   0  0  0  0  0  0  0  0  0  0  0  0
    4.0514   -3.9273    0.0000 C   0  0  0  0  0  0  0  0  0  0  0  0
    4.4288   -2.4756    0.0000 O   0  0  0  0  0  0  0  0  0  0  0  0
    3.9841   -5.4258    0.0000 C   0  0  0  0  0  0  0  0  0  0  0  0
    2.5382   -5.8249    0.0000 C   0  0  0  0  0  0  0  0  0  0  0  0
    3.2490   -4.5040    0.0000 O   0  0  0  0  0  0  0  0  0  0  0  0
    2.6595   -3.1247    0.0000 C   0  0  0  0  0  0  0  0  0  0  0  0
    3.6464   -1.9951    0.0000 C   0  0  0  0  0  0  0  0  0  0  0  0
    1.2135   -2.7256    0.0000 N   0  0  0  0  0  0  0  0  0  0  0  0
    0.7500   -1.2990    0.0000 C   0  0  0  0  0  0  0  0  0  0  0  0
    1.5000    0.0000    0.0000 C   0  0  0  0  0  0  0  0  0  0  0  0
    0.7500    1.2990    0.0000 C   0  0  0  0  0  0  0  0  0  0  0  0
   -0.7500    1.2990    0.0000 C   0  0  0  0  0  0  0  0  0  0  0  0
   -1.5000    0.0000    0.0000 C   0  0  0  0  0  0  0  0  0  0  0  0
   -0.7500   -1.2990    0.0000 C   0  0  0  0  0  0  0  0  0  0  0  0
   -1.2135   -2.7256    0.0000 C   0  0  0  0  0  0  0  0  0  0  0  0
   -2.5518   -3.5691    0.0000 C   0  0  0  0  0  0  0  0  0  0  0  0
   -2.6191   -5.0676    0.0000 C   0  0  0  0  0  0  0  0  0  0  0  0
   -1.3550   -5.8751    0.0000 C   0  0  0  0  0  0  0  0  0  0  0  0
   -1.0212   -7.3375    0.0000 C   0  0  0  0  0  0  0  0  0  0  0  0
   -1.8846   -8.5641    0.0000 C   0  0  0  0  0  0  0  0  0  0  0  0
   -1.2541   -9.9251    0.0000 C   0  0  0  0  0  0  0  0  0  0  0  0
    0.2399  -10.0596    0.0000 C   0  0  0  0  0  0  0  0  0  0  0  0
    1.1033   -8.8330    0.0000 C   0  0  0  0  0  0  0  0  0  0  0  0
    0.4728   -7.4720    0.0000 C   0  0  0  0  0  0  0  0  0  0  0  0
    1.0623   -6.0927    0.0000 N   0  0  0  0  0  0  0  0  0  0  0  0
   -0.0673   -5.1058    0.0000 C   0  0  0  0  0  0  0  0  0  0  0  0
   -0.0000   -3.6073    0.0000 C   0  0  0  0  0  0  0  0  0  0  0  0
   -4.0650   -5.4667    0.0000 C   0  0  0  0  0  0  0  0  0  0  0  0
   -4.5921   -6.8710    0.0000 O   0  0  0  0  0  0  0  0  0  0  0  0
   -4.8913   -4.2148    0.0000 N   0  0  0  0  0  0  0  0  0  0  0  0
   -3.9561   -3.0421    0.0000 C   0  0  0  0  0  0  0  0  0  0  0  0
  1  2  1  0
  2  3  1  0
  3  4  2  0
  3  5  1  0
  5  6  1  6
  5  7  1  0
  8  7  1  6
  8  9  1  0
  9 10  1  0
 10 11  1  1
 10 12  1  0
 12 13  1  0
 13 14  2  0
 14 15  1  0
 15 16  2  0
 16 17  1  0
 17 18  2  0
 18 19  1  0
 19 20  2  0
 20 21  1  0
 21 22  2  0
 22 23  1  0
 23 24  2  0
 24 25  1  0
 25 26  2  0
 26 27  1  0
 27 28  2  0
 28 29  1  0
 29 30  1  0
 30 31  2  0
 21 32  1  0
 32 33  2  0
 32 34  1  0
 34 35  1  0
 10  5  1  0
 31 12  1  0
 29  8  1  0
 18 13  1  0
 31 19  1  0
 35 20  1  0
 30 22  1  0
 28 23  1  0
M  END
>  <Compound_ID>  (306) 
CHEMBL281948

>  <Active>  (306) 
1.0

>  <Smiles>  (306) 
COC(=O)[C@@]1(O)C[C@H]2O[C@]1(C)n1c3ccccc3c3c4c(c5c6ccccc6n2c5c31)C(=O)NC4

>  <canonical_smi>  (306) 
COC(=O)[C@@]1(O)C[C@H]2O[C@]1(C)n1c3ccccc3c3c4c(c5c6ccccc6n2c5c31)C(=O)NC4

>  <Set>  (306) 
G2 active

>  <Set_type>  (306) 
Train

>  <MW>  (306) 
467.48

>  <HBD>  (306) 
2

>  <HBA>  (306) 
5

>  <NRB>  (306) 
1

>  <NR>  (306) 
8

>  <NAR>  (306) 
5

>  <PSA>  (306) 
94.72

>  <Standard Type>  (306) 
nan

>  <Standard Relation>  (306) 
nan

>  <Standard Units>  (306) 
nan

>  <Standard Value>  (306) 
nan

>  <Assay ChEMBL ID>  (306) 
nan

>  <Assay Description>  (306) 
nan

>  <BAO Label>  (306) 
nan

$$$$

     RDKit          2D

 21 24  0  0  0  0  0  0  0  0999 V2000
   -4.6613    6.0728    0.0000 N   0  0  0  0  0  0  0  0  0  0  0  0
   -3.2910    5.4627    0.0000 C   0  0  0  0  0  0  0  0  0  0  0  0
   -2.0774    6.3444    0.0000 O   0  0  0  0  0  0  0  0  0  0  0  0
   -3.1342    3.9709    0.0000 C   0  0  0  0  0  0  0  0  0  0  0  0
   -4.2489    2.9672    0.0000 N   0  0  0  0  0  0  0  0  0  0  0  0
   -3.6388    1.5969    0.0000 N   0  0  0  0  0  0  0  0  0  0  0  0
   -4.3888    0.2979    0.0000 C   0  0  0  0  0  0  0  0  0  0  0  0
   -5.8888    0.2979    0.0000 C   0  0  0  0  0  0  0  0  0  0  0  0
   -6.6388   -1.0012    0.0000 C   0  0  0  0  0  0  0  0  0  0  0  0
   -5.8888   -2.3002    0.0000 C   0  0  0  0  0  0  0  0  0  0  0  0
   -4.3888   -2.3002    0.0000 C   0  0  0  0  0  0  0  0  0  0  0  0
   -3.6388   -1.0012    0.0000 N   0  0  0  0  0  0  0  0  0  0  0  0
   -2.1470    1.7537    0.0000 C   0  0  0  0  0  0  0  0  0  0  0  0
   -1.8351    3.2209    0.0000 C   0  0  0  0  0  0  0  0  0  0  0  0
   -0.4086    3.6844    0.0000 C   0  0  0  0  0  0  0  0  0  0  0  0
    0.7062    2.6807    0.0000 C   0  0  0  0  0  0  0  0  0  0  0  0
    0.3943    1.2135    0.0000 C   0  0  0  0  0  0  0  0  0  0  0  0
    1.2760    0.0000    0.0000 N   0  0  0  0  0  0  0  0  0  0  0  0
    0.3943   -1.2135    0.0000 N   0  0  0  0  0  0  0  0  0  0  0  0
   -1.0323   -0.7500    0.0000 C   0  0  0  0  0  0  0  0  0  0  0  0
   -1.0323    0.7500    0.0000 C   0  0  0  0  0  0  0  0  0  0  0  0
  1  2  1  0
  2  3  2  0
  2  4  1  0
  4  5  2  0
  5  6  1  0
  6  7  1  0
  7  8  2  0
  8  9  1  0
  9 10  2  0
 10 11  1  0
 11 12  2  0
  6 13  1  0
 13 14  2  0
 14 15  1  0
 15 16  1  0
 16 17  1  0
 17 18  2  0
 18 19  1  0
 19 20  1  0
 20 21  2  0
 14  4  1  0
 21 17  1  0
 12  7  1  0
 21 13  1  0
M  END
>  <Compound_ID>  (307) 
CHEMBL440379

>  <Active>  (307) 
1.0

>  <Smiles>  (307) 
NC(=O)c1nn(-c2ccccn2)c2c1CCc1n[nH]cc1-2

>  <canonical_smi>  (307) 
NC(=O)c1nn(-c2ccccn2)c2c1CCc1n[nH]cc1-2

>  <Set>  (307) 
G2 active

>  <Set_type>  (307) 
Train

>  <MW>  (307) 
280.29

>  <HBD>  (307) 
2

>  <HBA>  (307) 
4

>  <NRB>  (307) 
2

>  <NR>  (307) 
4

>  <NAR>  (307) 
3

>  <PSA>  (307) 
102.48

>  <Standard Type>  (307) 
nan

>  <Standard Relation>  (307) 
nan

>  <Standard Units>  (307) 
nan

>  <Standard Value>  (307) 
nan

>  <Assay ChEMBL ID>  (307) 
nan

>  <Assay Description>  (307) 
nan

>  <BAO Label>  (307) 
nan

$$$$

     RDKit          2D

 33 37  0  0  0  0  0  0  0  0999 V2000
   -1.7024   10.0935    0.0000 N   0  0  0  0  0  0  0  0  0  0  0  0
   -2.0143    8.6263    0.0000 C   0  0  0  0  0  0  0  0  0  0  0  0
   -0.8995    7.6226    0.0000 C   0  0  0  0  0  0  0  0  0  0  0  0
   -1.2114    6.1554    0.0000 C   0  0  0  0  0  0  0  0  0  0  0  0
   -2.6380    5.6918    0.0000 C   0  0  0  0  0  0  0  0  0  0  0  0
   -2.9499    4.2246    0.0000 N   0  0  0  0  0  0  0  0  0  0  0  0
   -1.8351    3.2209    0.0000 C   0  0  0  0  0  0  0  0  0  0  0  0
   -0.4086    3.6844    0.0000 C   0  0  0  0  0  0  0  0  0  0  0  0
    0.7062    2.6807    0.0000 C   0  0  0  0  0  0  0  0  0  0  0  0
    2.1328    3.1443    0.0000 N   0  0  0  0  0  0  0  0  0  0  0  0
    2.4446    4.6115    0.0000 C   0  0  0  0  0  0  0  0  0  0  0  0
    3.8712    5.0750    0.0000 C   0  0  0  0  0  0  0  0  0  0  0  0
    4.1831    6.5422    0.0000 C   0  0  0  0  0  0  0  0  0  0  0  0
    3.0684    7.5459    0.0000 C   0  0  0  0  0  0  0  0  0  0  0  0
    3.3802    9.0132    0.0000 S   0  0  0  0  0  0  0  0  0  0  0  0
    1.9130    9.3250    0.0000 O   0  0  0  0  0  0  0  0  0  0  0  0
    4.8474    8.7013    0.0000 O   0  0  0  0  0  0  0  0  0  0  0  0
    3.6921   10.4804    0.0000 C   0  0  0  0  0  0  0  0  0  0  0  0
    5.1187   10.9439    0.0000 C   0  0  0  0  0  0  0  0  0  0  0  0
    5.4305   12.4111    0.0000 C   0  0  0  0  0  0  0  0  0  0  0  0
    4.3158   13.4148    0.0000 C   0  0  0  0  0  0  0  0  0  0  0  0
    2.8892   12.9513    0.0000 C   0  0  0  0  0  0  0  0  0  0  0  0
    2.5774   11.4841    0.0000 C   0  0  0  0  0  0  0  0  0  0  0  0
    1.6418    7.0824    0.0000 C   0  0  0  0  0  0  0  0  0  0  0  0
    1.3299    5.6152    0.0000 C   0  0  0  0  0  0  0  0  0  0  0  0
    0.3943    1.2135    0.0000 N   0  0  0  0  0  0  0  0  0  0  0  0
    1.2760    0.0000    0.0000 N   0  0  0  0  0  0  0  0  0  0  0  0
    0.3943   -1.2135    0.0000 C   0  0  0  0  0  0  0  0  0  0  0  0
   -1.0323   -0.7500    0.0000 N   0  0  0  0  0  0  0  0  0  0  0  0
   -1.0323    0.7500    0.0000 C   0  0  0  0  0  0  0  0  0  0  0  0
   -2.1470    1.7537    0.0000 N   0  0  0  0  0  0  0  0  0  0  0  0
   -3.7527    6.6955    0.0000 C   0  0  0  0  0  0  0  0  0  0  0  0
   -3.4408    8.1628    0.0000 C   0  0  0  0  0  0  0  0  0  0  0  0
  1  2  1  0
  2  3  1  0
  3  4  1  0
  4  5  1  0
  5  6  1  0
  6  7  1  0
  7  8  1  0
  8  9  2  0
  9 10  1  0
 10 11  1  0
 11 12  2  0
 12 13  1  0
 13 14  2  0
 14 15  1  0
 15 16  2  0
 15 17  2  0
 15 18  1  0
 18 19  2  0
 19 20  1  0
 20 21  2  0
 21 22  1  0
 22 23  2  0
 14 24  1  0
 24 25  2  0
  9 26  1  0
 26 27  1  0
 27 28  2  0
 28 29  1  0
 29 30  2  0
 30 31  1  0
  5 32  1  0
 32 33  1  0
 33  2  1  0
 31  7  2  0
 25 11  1  0
 30 26  1  0
 23 18  1  0
M  END
>  <Compound_ID>  (308) 
CHEMBL382607

>  <Active>  (308) 
1.0

>  <Smiles>  (308) 
NC1CCC(Nc2cc(Nc3ccc(S(=O)(=O)c4ccccc4)cc3)n3ncnc3n2)CC1

>  <canonical_smi>  (308) 
NC1CCC(Nc2cc(Nc3ccc(S(=O)(=O)c4ccccc4)cc3)n3ncnc3n2)CC1

>  <Set>  (308) 
G2 active

>  <Set_type>  (308) 
Train

>  <MW>  (308) 
463.57

>  <HBD>  (308) 
3

>  <HBA>  (308) 
8

>  <NRB>  (308) 
6

>  <NR>  (308) 
5

>  <NAR>  (308) 
4

>  <PSA>  (308) 
127.3

>  <Standard Type>  (308) 
nan

>  <Standard Relation>  (308) 
nan

>  <Standard Units>  (308) 
nan

>  <Standard Value>  (308) 
nan

>  <Assay ChEMBL ID>  (308) 
nan

>  <Assay Description>  (308) 
nan

>  <BAO Label>  (308) 
nan

$$$$

     RDKit          2D

 18 19  0  0  0  0  0  0  0  0999 V2000
   -3.6375   -7.8476    0.0000 C   0  0  0  0  0  0  0  0  0  0  0  0
   -2.4240   -8.7293    0.0000 C   0  0  0  0  0  0  0  0  0  0  0  0
   -2.5808  -10.2211    0.0000 C   0  0  0  0  0  0  0  0  0  0  0  0
   -1.0537   -8.1192    0.0000 C   0  0  0  0  0  0  0  0  0  0  0  0
    0.2454   -8.8692    0.0000 C   0  0  0  0  0  0  0  0  0  0  0  0
    1.3601   -7.8655    0.0000 N   0  0  0  0  0  0  0  0  0  0  0  0
    0.7500   -6.4952    0.0000 C   0  0  0  0  0  0  0  0  0  0  0  0
    1.5000   -5.1962    0.0000 N   0  0  0  0  0  0  0  0  0  0  0  0
    0.7500   -3.8971    0.0000 C   0  0  0  0  0  0  0  0  0  0  0  0
   -0.7500   -3.8971    0.0000 O   0  0  0  0  0  0  0  0  0  0  0  0
    1.5000   -2.5981    0.0000 N   0  0  0  0  0  0  0  0  0  0  0  0
    0.7500   -1.2990    0.0000 C   0  0  0  0  0  0  0  0  0  0  0  0
    1.5000    0.0000    0.0000 C   0  0  0  0  0  0  0  0  0  0  0  0
    0.7500    1.2990    0.0000 C   0  0  0  0  0  0  0  0  0  0  0  0
   -0.7500    1.2990    0.0000 C   0  0  0  0  0  0  0  0  0  0  0  0
   -1.5000    0.0000    0.0000 C   0  0  0  0  0  0  0  0  0  0  0  0
   -0.7500   -1.2990    0.0000 C   0  0  0  0  0  0  0  0  0  0  0  0
   -0.7418   -6.6520    0.0000 S   0  0  0  0  0  0  0  0  0  0  0  0
  1  2  1  0
  2  3  1  0
  2  4  1  0
  4  5  2  0
  5  6  1  0
  6  7  2  0
  7  8  1  0
  8  9  1  0
  9 10  2  0
  9 11  1  0
 11 12  1  0
 12 13  2  0
 13 14  1  0
 14 15  2  0
 15 16  1  0
 16 17  2  0
  7 18  1  0
 18  4  1  0
 17 12  1  0
M  END
>  <Compound_ID>  (309) 
CHEMBL186510

>  <Active>  (309) 
1.0

>  <Smiles>  (309) 
CC(C)c1cnc(NC(=O)Nc2ccccc2)s1

>  <canonical_smi>  (309) 
CC(C)c1cnc(NC(=O)Nc2ccccc2)s1

>  <Set>  (309) 
G2 active

>  <Set_type>  (309) 
Train

>  <MW>  (309) 
261.35

>  <HBD>  (309) 
2

>  <HBA>  (309) 
2

>  <NRB>  (309) 
3

>  <NR>  (309) 
2

>  <NAR>  (309) 
2

>  <PSA>  (309) 
54.02

>  <Standard Type>  (309) 
nan

>  <Standard Relation>  (309) 
nan

>  <Standard Units>  (309) 
nan

>  <Standard Value>  (309) 
nan

>  <Assay ChEMBL ID>  (309) 
nan

>  <Assay Description>  (309) 
nan

>  <BAO Label>  (309) 
nan

$$$$

     RDKit          2D

 38 41  0  0  0  0  0  0  0  0999 V2000
    3.0000    0.0000    0.0000 C   0  0  0  0  0  0  0  0  0  0  0  0
    1.5000    0.0000    0.0000 N   0  0  0  0  0  0  0  0  0  0  0  0
    0.7500   -1.2990    0.0000 C   0  0  0  0  0  0  0  0  0  0  0  0
   -0.7500   -1.2990    0.0000 C   0  0  0  0  0  0  0  0  0  0  0  0
   -1.5000    0.0000    0.0000 N   0  0  0  0  0  0  0  0  0  0  0  0
   -3.0000    0.0000    0.0000 C   0  0  0  0  0  0  0  0  0  0  0  0
   -3.7500    1.2990    0.0000 C   0  0  0  0  0  0  0  0  0  0  0  0
   -5.2500    1.2990    0.0000 C   0  0  0  0  0  0  0  0  0  0  0  0
   -6.0000    0.0000    0.0000 O   0  0  0  0  0  0  0  0  0  0  0  0
   -6.0000    2.5981    0.0000 N   0  0  0  0  0  0  0  0  0  0  0  0
   -7.5000    2.5981    0.0000 S   0  0  0  0  0  0  0  0  0  0  0  0
   -7.5000    1.0981    0.0000 O   0  0  0  0  0  0  0  0  0  0  0  0
   -7.5000    4.0981    0.0000 O   0  0  0  0  0  0  0  0  0  0  0  0
   -9.0000    2.5981    0.0000 C   0  0  0  0  0  0  0  0  0  0  0  0
   -9.7500    3.8971    0.0000 C   0  0  0  0  0  0  0  0  0  0  0  0
  -11.2500    3.8971    0.0000 C   0  0  0  0  0  0  0  0  0  0  0  0
  -12.0000    2.5981    0.0000 C   0  0  0  0  0  0  0  0  0  0  0  0
  -13.5000    2.5981    0.0000 N   0  0  0  0  0  0  0  0  0  0  0  0
  -14.2500    3.8971    0.0000 C   0  0  0  0  0  0  0  0  0  0  0  0
  -15.7418    4.0539    0.0000 N   0  0  0  0  0  0  0  0  0  0  0  0
  -16.0537    5.5211    0.0000 C   0  0  0  0  0  0  0  0  0  0  0  0
  -17.4240    6.1312    0.0000 N   0  0  0  0  0  0  0  0  0  0  0  0
  -14.7546    6.2711    0.0000 N   0  0  0  0  0  0  0  0  0  0  0  0
  -14.5978    7.7629    0.0000 C   0  0  0  0  0  0  0  0  0  0  0  0
  -15.8113    8.6446    0.0000 O   0  0  0  0  0  0  0  0  0  0  0  0
  -13.2275    8.3730    0.0000 C   0  0  0  0  0  0  0  0  0  0  0  0
  -12.0140    7.4913    0.0000 C   0  0  0  0  0  0  0  0  0  0  0  0
  -12.1708    5.9996    0.0000 F   0  0  0  0  0  0  0  0  0  0  0  0
  -10.6437    8.1014    0.0000 C   0  0  0  0  0  0  0  0  0  0  0  0
  -10.4869    9.5932    0.0000 C   0  0  0  0  0  0  0  0  0  0  0  0
  -11.7004   10.4749    0.0000 C   0  0  0  0  0  0  0  0  0  0  0  0
  -13.0707    9.8648    0.0000 C   0  0  0  0  0  0  0  0  0  0  0  0
  -14.2842   10.7465    0.0000 F   0  0  0  0  0  0  0  0  0  0  0  0
  -13.6399    5.2674    0.0000 N   0  0  0  0  0  0  0  0  0  0  0  0
  -11.2500    1.2990    0.0000 C   0  0  0  0  0  0  0  0  0  0  0  0
   -9.7500    1.2990    0.0000 C   0  0  0  0  0  0  0  0  0  0  0  0
   -0.7500    1.2990    0.0000 C   0  0  0  0  0  0  0  0  0  0  0  0
    0.7500    1.2990    0.0000 C   0  0  0  0  0  0  0  0  0  0  0  0
  1  2  1  0
  2  3  1  0
  3  4  1  0
  4  5  1  0
  5  6  1  0
  6  7  1  0
  7  8  1  0
  8  9  2  0
  8 10  1  0
 10 11  1  0
 11 12  2  0
 11 13  2  0
 11 14  1  0
 14 15  2  0
 15 16  1  0
 16 17  2  0
 17 18  1  0
 18 19  1  0
 19 20  1  0
 20 21  2  0
 21 22  1  0
 21 23  1  0
 23 24  1  0
 24 25  2  0
 24 26  1  0
 26 27  2  0
 27 28  1  0
 27 29  1  0
 29 30  2  0
 30 31  1  0
 31 32  2  0
 32 33  1  0
 23 34  1  0
 17 35  1  0
 35 36  2  0
  5 37  1  0
 37 38  1  0
 38  2  1  0
 36 14  1  0
 34 19  2  0
 32 26  1  0
M  END
>  <Compound_ID>  (310) 
CHEMBL210765

>  <Active>  (310) 
1.0

>  <Smiles>  (310) 
CN1CCN(CCC(=O)NS(=O)(=O)c2ccc(Nc3nc(N)n(C(=O)c4c(F)cccc4F)n3)cc2)CC1

>  <canonical_smi>  (310) 
CN1CCN(CCC(=O)NS(=O)(=O)c2ccc(Nc3nc(N)n(C(=O)c4c(F)cccc4F)n3)cc2)CC1

>  <Set>  (310) 
G2 active

>  <Set_type>  (310) 
Train

>  <MW>  (310) 
548.58

>  <HBD>  (310) 
3

>  <HBA>  (310) 
10

>  <NRB>  (310) 
8

>  <NR>  (310) 
4

>  <NAR>  (310) 
3

>  <PSA>  (310) 
155.55

>  <Standard Type>  (310) 
nan

>  <Standard Relation>  (310) 
nan

>  <Standard Units>  (310) 
nan

>  <Standard Value>  (310) 
nan

>  <Assay ChEMBL ID>  (310) 
nan

>  <Assay Description>  (310) 
nan

>  <BAO Label>  (310) 
nan

$$$$

     RDKit          2D

 26 31  0  0  0  0  0  0  0  0999 V2000
    3.6918   -0.0161    0.0000 O   0  0  0  0  0  0  0  0  0  0  0  0
    4.0037   -1.4834    0.0000 C   0  0  0  0  0  0  0  0  0  0  0  0
    5.3740   -2.0935    0.0000 N   0  0  0  0  0  0  0  0  0  0  0  0
    5.2172   -3.5852    0.0000 C   0  0  0  0  0  0  0  0  0  0  0  0
    6.3319   -4.5889    0.0000 O   0  0  0  0  0  0  0  0  0  0  0  0
    3.7500   -3.8971    0.0000 C   0  0  0  0  0  0  0  0  0  0  0  0
    3.0000   -2.5981    0.0000 C   0  0  0  0  0  0  0  0  0  0  0  0
    1.5000   -2.5981    0.0000 C   0  0  0  0  0  0  0  0  0  0  0  0
    0.7500   -1.2990    0.0000 C   0  0  0  0  0  0  0  0  0  0  0  0
    1.5000    0.0000    0.0000 C   0  0  0  0  0  0  0  0  0  0  0  0
    0.7500    1.2990    0.0000 C   0  0  0  0  0  0  0  0  0  0  0  0
   -0.7500    1.2990    0.0000 C   0  0  0  0  0  0  0  0  0  0  0  0
   -1.5000    0.0000    0.0000 C   0  0  0  0  0  0  0  0  0  0  0  0
   -0.7500   -1.2990    0.0000 C   0  0  0  0  0  0  0  0  0  0  0  0
   -1.5000   -2.5981    0.0000 C   0  0  0  0  0  0  0  0  0  0  0  0
   -0.7500   -3.8971    0.0000 C   0  0  0  0  0  0  0  0  0  0  0  0
    0.7500   -3.8971    0.0000 C   0  0  0  0  0  0  0  0  0  0  0  0
    1.5000   -5.1962    0.0000 C   0  0  0  0  0  0  0  0  0  0  0  0
    1.0365   -6.6227    0.0000 N   0  0  0  0  0  0  0  0  0  0  0  0
    2.2500   -7.5044    0.0000 C   0  0  0  0  0  0  0  0  0  0  0  0
    2.4068   -8.9962    0.0000 C   0  0  0  0  0  0  0  0  0  0  0  0
    3.7771   -9.6063    0.0000 C   0  0  0  0  0  0  0  0  0  0  0  0
    4.9906   -8.7246    0.0000 C   0  0  0  0  0  0  0  0  0  0  0  0
    4.8338   -7.2328    0.0000 C   0  0  0  0  0  0  0  0  0  0  0  0
    3.4635   -6.6227    0.0000 C   0  0  0  0  0  0  0  0  0  0  0  0
    3.0000   -5.1962    0.0000 C   0  0  0  0  0  0  0  0  0  0  0  0
  1  2  2  0
  2  3  1  0
  3  4  1  0
  4  5  2  0
  4  6  1  0
  6  7  2  0
  7  8  1  0
  8  9  2  0
  9 10  1  0
 10 11  2  0
 11 12  1  0
 12 13  2  0
 13 14  1  0
 14 15  2  0
 15 16  1  0
 16 17  2  0
 17 18  1  0
 18 19  1  0
 19 20  1  0
 20 21  2  0
 21 22  1  0
 22 23  2  0
 23 24  1  0
 24 25  2  0
 25 26  1  0
  7  2  1  0
 17  8  1  0
 26 18  2  0
 26  6  1  0
 14  9  1  0
 25 20  1  0
M  END
>  <Compound_ID>  (311) 
CHEMBL332575

>  <Active>  (311) 
1.0

>  <Smiles>  (311) 
O=C1NC(=O)c2c1c1c3ccccc3ccc1c1[nH]c3ccccc3c21

>  <canonical_smi>  (311) 
O=C1NC(=O)c2c1c1c3ccccc3ccc1c1[nH]c3ccccc3c21

>  <Set>  (311) 
G2 active

>  <Set_type>  (311) 
Train

>  <MW>  (311) 
336.35

>  <HBD>  (311) 
2

>  <HBA>  (311) 
2

>  <NRB>  (311) 
0

>  <NR>  (311) 
6

>  <NAR>  (311) 
5

>  <PSA>  (311) 
61.96

>  <Standard Type>  (311) 
nan

>  <Standard Relation>  (311) 
nan

>  <Standard Units>  (311) 
nan

>  <Standard Value>  (311) 
nan

>  <Assay ChEMBL ID>  (311) 
nan

>  <Assay Description>  (311) 
nan

>  <BAO Label>  (311) 
nan

$$$$

     RDKit          2D

 31 34  0  0  0  0  0  0  0  0999 V2000
   -2.6401   -3.1891    0.0000 C   0  0  0  0  0  0  0  0  0  0  0  0
   -1.2135   -2.7256    0.0000 N   0  0  0  0  0  0  0  0  0  0  0  0
   -0.0000   -3.6073    0.0000 C   0  0  0  0  0  0  0  0  0  0  0  0
   -0.0000   -5.1073    0.0000 O   0  0  0  0  0  0  0  0  0  0  0  0
    1.2135   -2.7256    0.0000 N   0  0  0  0  0  0  0  0  0  0  0  0
    0.7500   -1.2990    0.0000 C   0  0  0  0  0  0  0  0  0  0  0  0
    1.5000    0.0000    0.0000 C   0  0  0  0  0  0  0  0  0  0  0  0
    0.7500    1.2990    0.0000 C   0  0  0  0  0  0  0  0  0  0  0  0
   -0.7500    1.2990    0.0000 C   0  0  0  0  0  0  0  0  0  0  0  0
   -1.5000    2.5981    0.0000 C   0  0  0  0  0  0  0  0  0  0  0  0
   -2.9918    2.7549    0.0000 C   0  0  0  0  0  0  0  0  0  0  0  0
   -3.3037    4.2221    0.0000 N   0  0  0  0  0  0  0  0  0  0  0  0
   -2.0046    4.9721    0.0000 C   0  0  0  0  0  0  0  0  0  0  0  0
   -1.8478    6.4639    0.0000 N   0  0  0  0  0  0  0  0  0  0  0  0
   -0.4775    7.0740    0.0000 C   0  0  0  0  0  0  0  0  0  0  0  0
   -0.3207    8.5658    0.0000 C   0  0  0  0  0  0  0  0  0  0  0  0
   -1.5342    9.4474    0.0000 N   0  0  0  0  0  0  0  0  0  0  0  0
    1.0496    9.1759    0.0000 C   0  0  0  0  0  0  0  0  0  0  0  0
    1.2064   10.6676    0.0000 C   0  0  0  0  0  0  0  0  0  0  0  0
    2.5767   11.2778    0.0000 C   0  0  0  0  0  0  0  0  0  0  0  0
    2.7335   12.7695    0.0000 C   0  0  0  0  0  0  0  0  0  0  0  0
    1.5200   13.6512    0.0000 C   0  0  0  0  0  0  0  0  0  0  0  0
    1.6768   15.1430    0.0000 C   0  0  0  0  0  0  0  0  0  0  0  0
    1.8336   16.6348    0.0000 F   0  0  0  0  0  0  0  0  0  0  0  0
    3.1686   14.9862    0.0000 F   0  0  0  0  0  0  0  0  0  0  0  0
    0.1850   15.2998    0.0000 F   0  0  0  0  0  0  0  0  0  0  0  0
    0.1497   13.0411    0.0000 C   0  0  0  0  0  0  0  0  0  0  0  0
   -0.0071   11.5493    0.0000 C   0  0  0  0  0  0  0  0  0  0  0  0
   -0.8899    3.9684    0.0000 S   0  0  0  0  0  0  0  0  0  0  0  0
   -1.5000    0.0000    0.0000 C   0  0  0  0  0  0  0  0  0  0  0  0
   -0.7500   -1.2990    0.0000 C   0  0  0  0  0  0  0  0  0  0  0  0
  1  2  1  0
  2  3  1  0
  3  4  2  0
  3  5  1  0
  5  6  1  0
  6  7  2  0
  7  8  1  0
  8  9  2  0
  9 10  1  0
 10 11  2  0
 11 12  1  0
 12 13  2  0
 13 14  1  0
 14 15  1  0
 15 16  1  0
 16 17  1  1
 16 18  1  0
 18 19  1  0
 19 20  2  0
 20 21  1  0
 21 22  2  0
 22 23  1  0
 23 24  1  0
 23 25  1  0
 23 26  1  0
 22 27  1  0
 27 28  2  0
 13 29  1  0
  9 30  1  0
 30 31  2  0
 31  2  1  0
 31  6  1  0
 29 10  1  0
 28 19  1  0
M  END
>  <Compound_ID>  (312) 
CHEMBL1082016

>  <Active>  (312) 
1.0

>  <Smiles>  (312) 
Cn1c(=O)[nH]c2ccc(-c3cnc(NC[C@@H](N)Cc4ccc(C(F)(F)F)cc4)s3)cc21

>  <canonical_smi>  (312) 
Cn1c(=O)[nH]c2ccc(-c3cnc(NC[C@@H](N)Cc4ccc(C(F)(F)F)cc4)s3)cc21

>  <Set>  (312) 
G2 active

>  <Set_type>  (312) 
Train

>  <MW>  (312) 
447.49

>  <HBD>  (312) 
3

>  <HBA>  (312) 
4

>  <NRB>  (312) 
6

>  <NR>  (312) 
4

>  <NAR>  (312) 
4

>  <PSA>  (312) 
88.73

>  <Standard Type>  (312) 
nan

>  <Standard Relation>  (312) 
nan

>  <Standard Units>  (312) 
nan

>  <Standard Value>  (312) 
nan

>  <Assay ChEMBL ID>  (312) 
nan

>  <Assay Description>  (312) 
nan

>  <BAO Label>  (312) 
nan

$$$$

     RDKit          2D

 25 28  0  0  0  0  0  0  0  0999 V2000
   -4.3764    3.7611    0.0000 O   0  0  0  0  0  0  0  0  0  0  0  0
   -2.9499    4.2246    0.0000 C   0  0  0  0  0  0  0  0  0  0  0  0
   -2.6380    5.6918    0.0000 C   0  0  0  0  0  0  0  0  0  0  0  0
   -1.2114    6.1554    0.0000 C   0  0  0  0  0  0  0  0  0  0  0  0
   -0.8995    7.6226    0.0000 C   0  0  0  0  0  0  0  0  0  0  0  0
   -2.0143    8.6263    0.0000 C   0  0  0  0  0  0  0  0  0  0  0  0
   -3.4408    8.1628    0.0000 C   0  0  0  0  0  0  0  0  0  0  0  0
   -3.7527    6.6955    0.0000 C   0  0  0  0  0  0  0  0  0  0  0  0
   -1.8351    3.2209    0.0000 C   0  0  0  0  0  0  0  0  0  0  0  0
   -0.4086    3.6844    0.0000 C   0  0  0  0  0  0  0  0  0  0  0  0
    0.7062    2.6807    0.0000 N   0  0  0  0  0  0  0  0  0  0  0  0
    0.3943    1.2135    0.0000 C   0  0  0  0  0  0  0  0  0  0  0  0
    1.2760    0.0000    0.0000 N   0  0  0  0  0  0  0  0  0  0  0  0
    0.3943   -1.2135    0.0000 N   0  0  0  0  0  0  0  0  0  0  0  0
   -1.0323   -0.7500    0.0000 C   0  0  0  0  0  0  0  0  0  0  0  0
   -1.0323    0.7500    0.0000 C   0  0  0  0  0  0  0  0  0  0  0  0
   -2.1470    1.7537    0.0000 C   0  0  0  0  0  0  0  0  0  0  0  0
   -3.5736    1.2902    0.0000 O   0  0  0  0  0  0  0  0  0  0  0  0
   -4.6883    2.2939    0.0000 C   0  0  0  0  0  0  0  0  0  0  0  0
   -6.1149    1.8303    0.0000 C   0  0  0  0  0  0  0  0  0  0  0  0
   -7.2296    2.8340    0.0000 C   0  0  0  0  0  0  0  0  0  0  0  0
   -8.6562    2.3705    0.0000 C   0  0  0  0  0  0  0  0  0  0  0  0
   -8.9681    0.9033    0.0000 C   0  0  0  0  0  0  0  0  0  0  0  0
   -7.8533   -0.1004    0.0000 C   0  0  0  0  0  0  0  0  0  0  0  0
   -6.4268    0.3631    0.0000 C   0  0  0  0  0  0  0  0  0  0  0  0
  1  2  2  0
  2  3  1  0
  3  4  2  0
  4  5  1  0
  5  6  2  0
  6  7  1  0
  7  8  2  0
  2  9  1  0
  9 10  2  0
 10 11  1  0
 11 12  1  0
 12 13  2  0
 13 14  1  0
 14 15  2  0
 15 16  1  0
 16 17  2  0
 17 18  1  0
 18 19  1  0
 19 20  1  0
 20 21  2  0
 21 22  1  0
 22 23  2  0
 23 24  1  0
 24 25  2  0
  8  3  1  0
 17  9  1  0
 25 20  1  0
 16 12  1  0
M  END
>  <Compound_ID>  (313) 
CHEMBL14593

>  <Active>  (313) 
1.0

>  <Smiles>  (313) 
O=C(c1ccccc1)c1c[nH]c2nncc-2c1OCc1ccccc1

>  <canonical_smi>  (313) 
O=C(c1ccccc1)c1c[nH]c2nncc-2c1OCc1ccccc1

>  <Set>  (313) 
G2 active

>  <Set_type>  (313) 
Train

>  <MW>  (313) 
329.36

>  <HBD>  (313) 
1

>  <HBA>  (313) 
4

>  <NRB>  (313) 
5

>  <NR>  (313) 
4

>  <NAR>  (313) 
4

>  <PSA>  (313) 
67.87

>  <Standard Type>  (313) 
nan

>  <Standard Relation>  (313) 
nan

>  <Standard Units>  (313) 
nan

>  <Standard Value>  (313) 
nan

>  <Assay ChEMBL ID>  (313) 
nan

>  <Assay Description>  (313) 
nan

>  <BAO Label>  (313) 
nan

$$$$

     RDKit          2D

 30 33  0  0  0  0  0  0  0  0999 V2000
    7.4146   -6.0524    0.0000 N   0  0  0  0  0  0  0  0  0  0  0  0
    6.2011   -6.9341    0.0000 C   0  0  0  0  0  0  0  0  0  0  0  0
    4.8308   -6.3240    0.0000 C   0  0  0  0  0  0  0  0  0  0  0  0
    4.6740   -4.8322    0.0000 N   0  0  0  0  0  0  0  0  0  0  0  0
    3.3037   -4.2221    0.0000 C   0  0  0  0  0  0  0  0  0  0  0  0
    2.0046   -4.9721    0.0000 N   0  0  0  0  0  0  0  0  0  0  0  0
    0.8899   -3.9684    0.0000 C   0  0  0  0  0  0  0  0  0  0  0  0
    1.5000   -2.5981    0.0000 C   0  0  0  0  0  0  0  0  0  0  0  0
    0.7500   -1.2990    0.0000 C   0  0  0  0  0  0  0  0  0  0  0  0
    1.5000    0.0000    0.0000 C   0  0  0  0  0  0  0  0  0  0  0  0
    0.7500    1.2990    0.0000 C   0  0  0  0  0  0  0  0  0  0  0  0
   -0.7500    1.2990    0.0000 C   0  0  0  0  0  0  0  0  0  0  0  0
   -1.7537    2.4138    0.0000 N   0  0  0  0  0  0  0  0  0  0  0  0
   -3.1240    1.8037    0.0000 C   0  0  0  0  0  0  0  0  0  0  0  0
   -4.4231    2.5537    0.0000 O   0  0  0  0  0  0  0  0  0  0  0  0
   -2.9672    0.3119    0.0000 S   0  0  0  0  0  0  0  0  0  0  0  0
   -1.5000    0.0000    0.0000 C   0  0  0  0  0  0  0  0  0  0  0  0
   -0.7500   -1.2990    0.0000 C   0  0  0  0  0  0  0  0  0  0  0  0
    2.9918   -2.7549    0.0000 S   0  0  0  0  0  0  0  0  0  0  0  0
    6.3579   -8.4259    0.0000 C   0  0  0  0  0  0  0  0  0  0  0  0
    7.7282   -9.0360    0.0000 C   0  0  0  0  0  0  0  0  0  0  0  0
    7.8850  -10.5278    0.0000 C   0  0  0  0  0  0  0  0  0  0  0  0
    9.2553  -11.1379    0.0000 C   0  0  0  0  0  0  0  0  0  0  0  0
   10.4688  -10.2562    0.0000 C   0  0  0  0  0  0  0  0  0  0  0  0
   11.8391  -10.8663    0.0000 C   0  0  0  0  0  0  0  0  0  0  0  0
   13.2095  -11.4764    0.0000 F   0  0  0  0  0  0  0  0  0  0  0  0
   11.2290  -12.2366    0.0000 F   0  0  0  0  0  0  0  0  0  0  0  0
   12.4492   -9.4960    0.0000 F   0  0  0  0  0  0  0  0  0  0  0  0
   10.3120   -8.7644    0.0000 C   0  0  0  0  0  0  0  0  0  0  0  0
    8.9417   -8.1543    0.0000 C   0  0  0  0  0  0  0  0  0  0  0  0
  2  1  1  1
  2  3  1  0
  3  4  1  0
  4  5  1  0
  5  6  2  0
  6  7  1  0
  7  8  2  0
  8  9  1  0
  9 10  2  0
 10 11  1  0
 11 12  2  0
 12 13  1  0
 13 14  1  0
 14 15  2  0
 14 16  1  0
 16 17  1  0
 17 18  2  0
  8 19  1  0
  2 20  1  0
 20 21  1  0
 21 22  2  0
 22 23  1  0
 23 24  2  0
 24 25  1  0
 25 26  1  0
 25 27  1  0
 25 28  1  0
 24 29  1  0
 29 30  2  0
 19  5  1  0
 30 21  1  0
 18  9  1  0
 17 12  1  0
M  END
>  <Compound_ID>  (314) 
CHEMBL1081853

>  <Active>  (314) 
1.0

>  <Smiles>  (314) 
N[C@H](CNc1ncc(-c2ccc3[nH]c(=O)sc3c2)s1)Cc1ccc(C(F)(F)F)cc1

>  <canonical_smi>  (314) 
N[C@H](CNc1ncc(-c2ccc3[nH]c(=O)sc3c2)s1)Cc1ccc(C(F)(F)F)cc1

>  <Set>  (314) 
G2 active

>  <Set_type>  (314) 
Train

>  <MW>  (314) 
450.51

>  <HBD>  (314) 
3

>  <HBA>  (314) 
4

>  <NRB>  (314) 
6

>  <NR>  (314) 
4

>  <NAR>  (314) 
4

>  <PSA>  (314) 
83.8

>  <Standard Type>  (314) 
nan

>  <Standard Relation>  (314) 
nan

>  <Standard Units>  (314) 
nan

>  <Standard Value>  (314) 
nan

>  <Assay ChEMBL ID>  (314) 
nan

>  <Assay Description>  (314) 
nan

>  <BAO Label>  (314) 
nan

$$$$

     RDKit          2D

 19 21  0  0  0  0  0  0  0  0999 V2000
   -0.7500   -3.8971    0.0000 O   0  0  0  0  0  0  0  0  0  0  0  0
    0.7500   -3.8971    0.0000 C   0  0  0  0  0  0  0  0  0  0  0  0
    1.5000   -2.5981    0.0000 N   0  0  0  0  0  0  0  0  0  0  0  0
    0.7500   -1.2990    0.0000 C   0  0  0  0  0  0  0  0  0  0  0  0
    1.5000    0.0000    0.0000 C   0  0  0  0  0  0  0  0  0  0  0  0
    0.7500    1.2990    0.0000 C   0  0  0  0  0  0  0  0  0  0  0  0
   -0.7500    1.2990    0.0000 C   0  0  0  0  0  0  0  0  0  0  0  0
   -1.5000    0.0000    0.0000 C   0  0  0  0  0  0  0  0  0  0  0  0
   -0.7500   -1.2990    0.0000 C   0  0  0  0  0  0  0  0  0  0  0  0
    1.5000   -5.1962    0.0000 N   0  0  0  0  0  0  0  0  0  0  0  0
    0.7500   -6.4952    0.0000 C   0  0  0  0  0  0  0  0  0  0  0  0
    1.3601   -7.8655    0.0000 N   0  0  0  0  0  0  0  0  0  0  0  0
    0.2454   -8.8692    0.0000 C   0  0  0  0  0  0  0  0  0  0  0  0
   -1.0537   -8.1192    0.0000 C   0  0  0  0  0  0  0  0  0  0  0  0
   -2.4240   -8.7293    0.0000 C   0  0  0  0  0  0  0  0  0  0  0  0
   -3.8243   -8.1918    0.0000 C   0  0  0  0  0  0  0  0  0  0  0  0
   -4.3619   -9.5921    0.0000 C   0  0  0  0  0  0  0  0  0  0  0  0
   -2.9615  -10.1297    0.0000 C   0  0  0  0  0  0  0  0  0  0  0  0
   -0.7418   -6.6520    0.0000 S   0  0  0  0  0  0  0  0  0  0  0  0
  1  2  2  0
  2  3  1  0
  3  4  1  0
  4  5  2  0
  5  6  1  0
  6  7  2  0
  7  8  1  0
  8  9  2  0
  2 10  1  0
 10 11  1  0
 11 12  2  0
 12 13  1  0
 13 14  2  0
 14 15  1  0
 15 16  1  0
 16 17  1  0
 17 18  1  0
 14 19  1  0
  9  4  1  0
 19 11  1  0
 18 15  1  0
M  END
>  <Compound_ID>  (315) 
CHEMBL185470

>  <Active>  (315) 
1.0

>  <Smiles>  (315) 
O=C(Nc1ccccc1)Nc1ncc(C2CCC2)s1

>  <canonical_smi>  (315) 
O=C(Nc1ccccc1)Nc1ncc(C2CCC2)s1

>  <Set>  (315) 
G2 active

>  <Set_type>  (315) 
Train

>  <MW>  (315) 
273.36

>  <HBD>  (315) 
2

>  <HBA>  (315) 
2

>  <NRB>  (315) 
3

>  <NR>  (315) 
3

>  <NAR>  (315) 
2

>  <PSA>  (315) 
54.02

>  <Standard Type>  (315) 
nan

>  <Standard Relation>  (315) 
nan

>  <Standard Units>  (315) 
nan

>  <Standard Value>  (315) 
nan

>  <Assay ChEMBL ID>  (315) 
nan

>  <Assay Description>  (315) 
nan

>  <BAO Label>  (315) 
nan

$$$$

     RDKit          2D

 30 33  0  0  0  0  0  0  0  0999 V2000
    0.4775   -7.0740    0.0000 C   0  0  0  0  0  0  0  0  0  0  0  0
    1.8478   -6.4639    0.0000 N   0  0  0  0  0  0  0  0  0  0  0  0
    2.0046   -4.9721    0.0000 C   0  0  0  0  0  0  0  0  0  0  0  0
    3.3037   -4.2221    0.0000 N   0  0  0  0  0  0  0  0  0  0  0  0
    2.9918   -2.7549    0.0000 C   0  0  0  0  0  0  0  0  0  0  0  0
    3.9955   -1.6402    0.0000 C   0  0  0  0  0  0  0  0  0  0  0  0
    1.5000   -2.5981    0.0000 C   0  0  0  0  0  0  0  0  0  0  0  0
    0.7500   -1.2990    0.0000 C   0  0  0  0  0  0  0  0  0  0  0  0
    1.5000    0.0000    0.0000 C   0  0  0  0  0  0  0  0  0  0  0  0
    0.7500    1.2990    0.0000 C   0  0  0  0  0  0  0  0  0  0  0  0
   -0.7500    1.2990    0.0000 N   0  0  0  0  0  0  0  0  0  0  0  0
   -1.5000    0.0000    0.0000 C   0  0  0  0  0  0  0  0  0  0  0  0
   -3.0000    0.0000    0.0000 N   0  0  0  0  0  0  0  0  0  0  0  0
   -3.7500    1.2990    0.0000 C   0  0  0  0  0  0  0  0  0  0  0  0
   -3.0000    2.5981    0.0000 C   0  0  0  0  0  0  0  0  0  0  0  0
   -3.7500    3.8971    0.0000 C   0  0  0  0  0  0  0  0  0  0  0  0
   -5.2500    3.8971    0.0000 C   0  0  0  0  0  0  0  0  0  0  0  0
   -6.0000    5.1962    0.0000 N   0  0  0  0  0  0  0  0  0  0  0  0
   -5.2500    6.4952    0.0000 C   0  0  0  0  0  0  0  0  0  0  0  0
   -6.0000    7.7942    0.0000 C   0  0  0  0  0  0  0  0  0  0  0  0
   -7.5000    7.7942    0.0000 N   0  0  0  0  0  0  0  0  0  0  0  0
   -8.2500    9.0933    0.0000 C   0  0  0  0  0  0  0  0  0  0  0  0
   -7.5000   10.3923    0.0000 C   0  0  0  0  0  0  0  0  0  0  0  0
   -9.7500    9.0933    0.0000 O   0  0  0  0  0  0  0  0  0  0  0  0
   -8.2500    6.4952    0.0000 C   0  0  0  0  0  0  0  0  0  0  0  0
   -7.5000    5.1962    0.0000 C   0  0  0  0  0  0  0  0  0  0  0  0
   -6.0000    2.5981    0.0000 C   0  0  0  0  0  0  0  0  0  0  0  0
   -5.2500    1.2990    0.0000 C   0  0  0  0  0  0  0  0  0  0  0  0
   -0.7500   -1.2990    0.0000 N   0  0  0  0  0  0  0  0  0  0  0  0
    0.8899   -3.9684    0.0000 S   0  0  0  0  0  0  0  0  0  0  0  0
  1  2  1  0
  2  3  1  0
  3  4  2  0
  4  5  1  0
  5  6  1  0
  5  7  2  0
  7  8  1  0
  8  9  2  0
  9 10  1  0
 10 11  2  0
 11 12  1  0
 12 13  1  0
 13 14  1  0
 14 15  2  0
 15 16  1  0
 16 17  2  0
 17 18  1  0
 18 19  1  0
 19 20  1  0
 20 21  1  0
 21 22  1  0
 22 23  1  0
 22 24  2  0
 21 25  1  0
 25 26  1  0
 17 27  1  0
 27 28  2  0
 12 29  2  0
  7 30  1  0
 30  3  1  0
 29  8  1  0
 28 14  1  0
 26 18  1  0
M  END
>  <Compound_ID>  (316) 
CHEMBL1083785

>  <Active>  (316) 
1.0

>  <Smiles>  (316) 
CNc1nc(C)c(-c2ccnc(Nc3ccc(N4CCN(C(C)=O)CC4)cc3)n2)s1

>  <canonical_smi>  (316) 
CNc1nc(C)c(-c2ccnc(Nc3ccc(N4CCN(C(C)=O)CC4)cc3)n2)s1

>  <Set>  (316) 
G2 active

>  <Set_type>  (316) 
Train

>  <MW>  (316) 
423.55

>  <HBD>  (316) 
2

>  <HBA>  (316) 
7

>  <NRB>  (316) 
5

>  <NR>  (316) 
4

>  <NAR>  (316) 
3

>  <PSA>  (316) 
86.28

>  <Standard Type>  (316) 
nan

>  <Standard Relation>  (316) 
nan

>  <Standard Units>  (316) 
nan

>  <Standard Value>  (316) 
nan

>  <Assay ChEMBL ID>  (316) 
nan

>  <Assay Description>  (316) 
nan

>  <BAO Label>  (316) 
nan

$$$$

     RDKit          2D

 39 44  0  0  0  0  0  0  0  0999 V2000
   -7.3273  -10.0303    0.0000 C   0  0  0  0  0  0  0  0  0  0  0  0
   -5.9007  -10.4938    0.0000 C   0  0  0  0  0  0  0  0  0  0  0  0
   -4.7860   -9.4901    0.0000 C   0  0  0  0  0  0  0  0  0  0  0  0
   -3.3594   -9.9537    0.0000 C   0  0  0  0  0  0  0  0  0  0  0  0
   -2.2447   -8.9500    0.0000 C   0  0  0  0  0  0  0  0  0  0  0  0
   -2.5565   -7.4827    0.0000 N   0  0  0  0  0  0  0  0  0  0  0  0
   -1.4418   -6.4791    0.0000 C   0  0  0  0  0  0  0  0  0  0  0  0
   -0.0152   -6.9426    0.0000 O   0  0  0  0  0  0  0  0  0  0  0  0
   -1.7537   -5.0118    0.0000 C   0  0  0  0  0  0  0  0  0  0  0  0
   -3.1240   -4.4017    0.0000 N   0  0  0  0  0  0  0  0  0  0  0  0
   -2.9672   -2.9099    0.0000 N   0  0  0  0  0  0  0  0  0  0  0  0
   -4.0819   -1.9062    0.0000 C   0  0  0  0  0  0  0  0  0  0  0  0
   -1.5000   -2.5981    0.0000 C   0  0  0  0  0  0  0  0  0  0  0  0
   -0.7500   -3.8971    0.0000 C   0  0  0  0  0  0  0  0  0  0  0  0
    0.7500   -3.8971    0.0000 C   0  0  0  0  0  0  0  0  0  0  0  0
    1.5000   -2.5981    0.0000 C   0  0  0  0  0  0  0  0  0  0  0  0
    0.7500   -1.2990    0.0000 C   0  0  0  0  0  0  0  0  0  0  0  0
    1.5000    0.0000    0.0000 C   0  0  0  0  0  0  0  0  0  0  0  0
    0.7500    1.2990    0.0000 N   0  0  0  0  0  0  0  0  0  0  0  0
   -0.7500    1.2990    0.0000 C   0  0  0  0  0  0  0  0  0  0  0  0
   -1.5000    2.5981    0.0000 N   0  0  0  0  0  0  0  0  0  0  0  0
   -0.7500    3.8971    0.0000 C   0  0  0  0  0  0  0  0  0  0  0  0
    0.7500    3.8971    0.0000 C   0  0  0  0  0  0  0  0  0  0  0  0
    1.5000    5.1962    0.0000 C   0  0  0  0  0  0  0  0  0  0  0  0
    0.7500    6.4952    0.0000 C   0  0  0  0  0  0  0  0  0  0  0  0
    1.5000    7.7942    0.0000 N   0  0  0  0  0  0  0  0  0  0  0  0
    3.0000    7.7942    0.0000 C   0  0  0  0  0  0  0  0  0  0  0  0
    3.7500    9.0933    0.0000 C   0  0  0  0  0  0  0  0  0  0  0  0
    3.0000   10.3923    0.0000 N   0  0  0  0  0  0  0  0  0  0  0  0
    3.7500   11.6913    0.0000 C   0  0  0  0  0  0  0  0  0  0  0  0
    1.5000   10.3923    0.0000 C   0  0  0  0  0  0  0  0  0  0  0  0
    0.7500    9.0933    0.0000 C   0  0  0  0  0  0  0  0  0  0  0  0
   -0.7500    6.4952    0.0000 C   0  0  0  0  0  0  0  0  0  0  0  0
   -1.5000    5.1962    0.0000 C   0  0  0  0  0  0  0  0  0  0  0  0
   -1.5000    0.0000    0.0000 N   0  0  0  0  0  0  0  0  0  0  0  0
   -0.7500   -1.2990    0.0000 C   0  0  0  0  0  0  0  0  0  0  0  0
   -3.0475  -11.4209    0.0000 C   0  0  0  0  0  0  0  0  0  0  0  0
   -4.1622  -12.4246    0.0000 C   0  0  0  0  0  0  0  0  0  0  0  0
   -5.5888  -11.9611    0.0000 N   0  0  0  0  0  0  0  0  0  0  0  0
  1  2  1  0
  2  3  2  0
  3  4  1  0
  4  5  1  0
  5  6  1  0
  6  7  1  0
  7  8  2  0
  7  9  1  0
  9 10  2  0
 10 11  1  0
 11 12  1  0
 11 13  1  0
 13 14  2  0
 14 15  1  0
 15 16  1  0
 16 17  1  0
 17 18  2  0
 18 19  1  0
 19 20  2  0
 20 21  1  0
 21 22  1  0
 22 23  2  0
 23 24  1  0
 24 25  2  0
 25 26  1  0
 26 27  1  0
 27 28  1  0
 28 29  1  0
 29 30  1  0
 29 31  1  0
 31 32  1  0
 25 33  1  0
 33 34  2  0
 20 35  1  0
 35 36  2  0
  4 37  2  0
 37 38  1  0
 38 39  2  0
 39  2  1  0
 14  9  1  0
 36 17  1  0
 36 13  1  0
 34 22  1  0
 32 26  1  0
M  END
>  <Compound_ID>  (317) 
CHEMBL1169805

>  <Active>  (317) 
1.0

>  <Smiles>  (317) 
Cc1cc(CNC(=O)c2nn(C)c3c2CCc2cnc(Nc4ccc(N5CCN(C)CC5)cc4)nc2-3)ccn1

>  <canonical_smi>  (317) 
Cc1cc(CNC(=O)c2nn(C)c3c2CCc2cnc(Nc4ccc(N5CCN(C)CC5)cc4)nc2-3)ccn1

>  <Set>  (317) 
G2 active

>  <Set_type>  (317) 
Train

>  <MW>  (317) 
523.65

>  <HBD>  (317) 
2

>  <HBA>  (317) 
8

>  <NRB>  (317) 
6

>  <NR>  (317) 
6

>  <NAR>  (317) 
4

>  <PSA>  (317) 
104.1

>  <Standard Type>  (317) 
nan

>  <Standard Relation>  (317) 
nan

>  <Standard Units>  (317) 
nan

>  <Standard Value>  (317) 
nan

>  <Assay ChEMBL ID>  (317) 
nan

>  <Assay Description>  (317) 
nan

>  <BAO Label>  (317) 
nan

$$$$

     RDKit          2D

 34 40  0  0  0  0  0  0  0  0999 V2000
   -4.3240   -7.6191    0.0000 C   0  0  0  0  0  0  0  0  0  0  0  0
   -2.8974   -8.0826    0.0000 N   0  0  0  0  0  0  0  0  0  0  0  0
   -2.4339   -9.5092    0.0000 C   0  0  0  0  0  0  0  0  0  0  0  0
   -0.9339   -9.5092    0.0000 C   0  0  0  0  0  0  0  0  0  0  0  0
   -0.4704   -8.0826    0.0000 C   0  0  0  0  0  0  0  0  0  0  0  0
    0.8999   -7.4725    0.0000 C   0  0  0  0  0  0  0  0  0  0  0  0
    1.0567   -5.9808    0.0000 C   0  0  0  0  0  0  0  0  0  0  0  0
   -0.1568   -5.0991    0.0000 C   0  0  0  0  0  0  0  0  0  0  0  0
   -0.0000   -3.6073    0.0000 C   0  0  0  0  0  0  0  0  0  0  0  0
    1.2135   -2.7256    0.0000 N   0  0  0  0  0  0  0  0  0  0  0  0
    0.7500   -1.2990    0.0000 C   0  0  0  0  0  0  0  0  0  0  0  0
    1.5000    0.0000    0.0000 C   0  0  0  0  0  0  0  0  0  0  0  0
    0.7500    1.2990    0.0000 C   0  0  0  0  0  0  0  0  0  0  0  0
    1.5000    2.5981    0.0000 O   0  0  0  0  0  0  0  0  0  0  0  0
    3.0000    2.5981    0.0000 C   0  0  0  0  0  0  0  0  0  0  0  0
    3.7500    3.8971    0.0000 C   0  0  0  0  0  0  0  0  0  0  0  0
    5.2500    3.8971    0.0000 C   0  0  0  0  0  0  0  0  0  0  0  0
    6.0000    5.1962    0.0000 C   0  0  0  0  0  0  0  0  0  0  0  0
    5.2500    6.4952    0.0000 C   0  0  0  0  0  0  0  0  0  0  0  0
    3.7500    6.4952    0.0000 C   0  0  0  0  0  0  0  0  0  0  0  0
    3.0000    5.1962    0.0000 C   0  0  0  0  0  0  0  0  0  0  0  0
   -0.7500    1.2990    0.0000 C   0  0  0  0  0  0  0  0  0  0  0  0
   -1.5000    0.0000    0.0000 C   0  0  0  0  0  0  0  0  0  0  0  0
   -0.7500   -1.2990    0.0000 C   0  0  0  0  0  0  0  0  0  0  0  0
   -1.2135   -2.7256    0.0000 C   0  0  0  0  0  0  0  0  0  0  0  0
   -2.5838   -3.3357    0.0000 C   0  0  0  0  0  0  0  0  0  0  0  0
   -2.7406   -4.8275    0.0000 C   0  0  0  0  0  0  0  0  0  0  0  0
   -1.5271   -5.7092    0.0000 C   0  0  0  0  0  0  0  0  0  0  0  0
   -1.6839   -7.2010    0.0000 C   0  0  0  0  0  0  0  0  0  0  0  0
   -4.2079   -5.1394    0.0000 C   0  0  0  0  0  0  0  0  0  0  0  0
   -4.8180   -6.5097    0.0000 O   0  0  0  0  0  0  0  0  0  0  0  0
   -4.9579   -3.8403    0.0000 N   0  0  0  0  0  0  0  0  0  0  0  0
   -3.9542   -2.7256    0.0000 C   0  0  0  0  0  0  0  0  0  0  0  0
   -4.2660   -1.2584    0.0000 O   0  0  0  0  0  0  0  0  0  0  0  0
  1  2  1  0
  2  3  1  0
  3  4  2  0
  4  5  1  0
  5  6  2  0
  6  7  1  0
  7  8  2  0
  8  9  1  0
  9 10  1  0
 10 11  1  0
 11 12  2  0
 12 13  1  0
 13 14  1  0
 14 15  1  0
 15 16  1  0
 16 17  2  0
 17 18  1  0
 18 19  2  0
 19 20  1  0
 20 21  2  0
 13 22  2  0
 22 23  1  0
 23 24  2  0
 24 25  1  0
 25 26  1  0
 26 27  2  0
 27 28  1  0
 28 29  2  0
 27 30  1  0
 30 31  2  0
 30 32  1  0
 32 33  1  0
 33 34  2  0
 29  2  1  0
 29  5  1  0
 28  8  1  0
 25  9  2  0
 33 26  1  0
 24 11  1  0
 21 16  1  0
M  END
>  <Compound_ID>  (318) 
CHEMBL75953

>  <Active>  (318) 
1.0

>  <Smiles>  (318) 
Cn1ccc2ccc3c4[nH]c5cc(OCc6ccccc6)ccc5c4c4c(c3c21)C(=O)NC4=O

>  <canonical_smi>  (318) 
Cn1ccc2ccc3c4[nH]c5cc(OCc6ccccc6)ccc5c4c4c(c3c21)C(=O)NC4=O

>  <Set>  (318) 
G2 active

>  <Set_type>  (318) 
Train

>  <MW>  (318) 
445.48

>  <HBD>  (318) 
2

>  <HBA>  (318) 
3

>  <NRB>  (318) 
3

>  <NR>  (318) 
7

>  <NAR>  (318) 
6

>  <PSA>  (318) 
76.12

>  <Standard Type>  (318) 
nan

>  <Standard Relation>  (318) 
nan

>  <Standard Units>  (318) 
nan

>  <Standard Value>  (318) 
nan

>  <Assay ChEMBL ID>  (318) 
nan

>  <Assay Description>  (318) 
nan

>  <BAO Label>  (318) 
nan

$$$$

     RDKit          2D

 24 27  0  0  0  0  0  0  0  0999 V2000
    2.2484    6.9199    0.0000 N   0  0  0  0  0  0  0  0  0  0  0  0
    1.7849    5.4933    0.0000 C   0  0  0  0  0  0  0  0  0  0  0  0
    2.7886    4.3786    0.0000 C   0  0  0  0  0  0  0  0  0  0  0  0
    2.3250    2.9520    0.0000 C   0  0  0  0  0  0  0  0  0  0  0  0
    0.8578    2.6401    0.0000 C   0  0  0  0  0  0  0  0  0  0  0  0
    0.3943    1.2135    0.0000 C   0  0  0  0  0  0  0  0  0  0  0  0
    1.2760    0.0000    0.0000 N   0  0  0  0  0  0  0  0  0  0  0  0
    0.3943   -1.2135    0.0000 N   0  0  0  0  0  0  0  0  0  0  0  0
    0.3943   -2.7135    0.0000 C   0  0  0  0  0  0  0  0  0  0  0  0
    1.6078   -3.5952    0.0000 C   0  0  0  0  0  0  0  0  0  0  0  0
    1.4510   -5.0870    0.0000 O   0  0  0  0  0  0  0  0  0  0  0  0
    2.6646   -5.9687    0.0000 C   0  0  0  0  0  0  0  0  0  0  0  0
    2.5078   -7.4604    0.0000 C   0  0  0  0  0  0  0  0  0  0  0  0
    3.7213   -8.3421    0.0000 C   0  0  0  0  0  0  0  0  0  0  0  0
    5.0916   -7.7320    0.0000 C   0  0  0  0  0  0  0  0  0  0  0  0
    6.3051   -8.6137    0.0000 Cl  0  0  0  0  0  0  0  0  0  0  0  0
    5.2484   -6.2402    0.0000 C   0  0  0  0  0  0  0  0  0  0  0  0
    4.0349   -5.3586    0.0000 C   0  0  0  0  0  0  0  0  0  0  0  0
   -1.0323   -3.1771    0.0000 N   0  0  0  0  0  0  0  0  0  0  0  0
   -1.9140   -1.9635    0.0000 N   0  0  0  0  0  0  0  0  0  0  0  0
   -1.0323   -0.7500    0.0000 C   0  0  0  0  0  0  0  0  0  0  0  0
   -1.0323    0.7500    0.0000 S   0  0  0  0  0  0  0  0  0  0  0  0
   -0.1459    3.7548    0.0000 C   0  0  0  0  0  0  0  0  0  0  0  0
    0.3177    5.1814    0.0000 C   0  0  0  0  0  0  0  0  0  0  0  0
  1  2  1  0
  2  3  2  0
  3  4  1  0
  4  5  2  0
  5  6  1  0
  6  7  2  0
  7  8  1  0
  8  9  1  0
  9 10  1  0
 10 11  1  0
 11 12  1  0
 12 13  2  0
 13 14  1  0
 14 15  2  0
 15 16  1  0
 15 17  1  0
 17 18  2  0
  9 19  2  0
 19 20  1  0
 20 21  2  0
 21 22  1  0
  5 23  1  0
 23 24  2  0
 24  2  1  0
 22  6  1  0
 21  8  1  0
 18 12  1  0
M  END
>  <Compound_ID>  (319) 
CHEMBL561179

>  <Active>  (319) 
1.0

>  <Smiles>  (319) 
Nc1ccc(-c2nn3c(COc4ccc(Cl)cc4)nnc3s2)cc1

>  <canonical_smi>  (319) 
Nc1ccc(-c2nn3c(COc4ccc(Cl)cc4)nnc3s2)cc1

>  <Set>  (319) 
G2 active

>  <Set_type>  (319) 
Train

>  <MW>  (319) 
357.83

>  <HBD>  (319) 
1

>  <HBA>  (319) 
5

>  <NRB>  (319) 
4

>  <NR>  (319) 
4

>  <NAR>  (319) 
4

>  <PSA>  (319) 
78.33

>  <Standard Type>  (319) 
nan

>  <Standard Relation>  (319) 
nan

>  <Standard Units>  (319) 
nan

>  <Standard Value>  (319) 
nan

>  <Assay ChEMBL ID>  (319) 
nan

>  <Assay Description>  (319) 
nan

>  <BAO Label>  (319) 
nan

$$$$

     RDKit          2D

 22 24  0  0  0  0  0  0  0  0999 V2000
    5.6097    7.0058    0.0000 C   0  0  0  0  0  0  0  0  0  0  0  0
    4.1831    6.5422    0.0000 C   0  0  0  0  0  0  0  0  0  0  0  0
    3.8712    5.0750    0.0000 C   0  0  0  0  0  0  0  0  0  0  0  0
    2.4446    4.6115    0.0000 C   0  0  0  0  0  0  0  0  0  0  0  0
    2.1328    3.1443    0.0000 O   0  0  0  0  0  0  0  0  0  0  0  0
    0.7062    2.6807    0.0000 C   0  0  0  0  0  0  0  0  0  0  0  0
    0.3943    1.2135    0.0000 C   0  0  0  0  0  0  0  0  0  0  0  0
    1.2760    0.0000    0.0000 C   0  0  0  0  0  0  0  0  0  0  0  0
    0.3943   -1.2135    0.0000 N   0  0  0  0  0  0  0  0  0  0  0  0
   -1.0323   -0.7500    0.0000 N   0  0  0  0  0  0  0  0  0  0  0  0
   -1.0323    0.7500    0.0000 C   0  0  0  0  0  0  0  0  0  0  0  0
   -2.1470    1.7537    0.0000 N   0  0  0  0  0  0  0  0  0  0  0  0
   -1.8351    3.2209    0.0000 C   0  0  0  0  0  0  0  0  0  0  0  0
   -0.4086    3.6844    0.0000 C   0  0  0  0  0  0  0  0  0  0  0  0
   -0.0967    5.1517    0.0000 S   0  0  0  0  0  0  0  0  0  0  0  0
    1.3299    5.6152    0.0000 O   0  0  0  0  0  0  0  0  0  0  0  0
   -1.2114    6.1554    0.0000 C   0  0  0  0  0  0  0  0  0  0  0  0
   -0.8995    7.6226    0.0000 C   0  0  0  0  0  0  0  0  0  0  0  0
   -2.0143    8.6263    0.0000 C   0  0  0  0  0  0  0  0  0  0  0  0
   -3.4408    8.1628    0.0000 C   0  0  0  0  0  0  0  0  0  0  0  0
   -3.7527    6.6955    0.0000 C   0  0  0  0  0  0  0  0  0  0  0  0
   -2.6380    5.6918    0.0000 C   0  0  0  0  0  0  0  0  0  0  0  0
  1  2  1  0
  2  3  1  0
  3  4  1  0
  4  5  1  0
  5  6  1  0
  6  7  2  0
  7  8  1  0
  8  9  2  0
  9 10  1  0
 10 11  2  0
 11 12  1  0
 12 13  1  0
 13 14  2  0
 14 15  1  0
 15 16  2  0
 15 17  1  0
 17 18  2  0
 18 19  1  0
 19 20  2  0
 20 21  1  0
 21 22  2  0
 14  6  1  0
 22 17  1  0
 11  7  1  0
M  END
>  <Compound_ID>  (320) 
CHEMBL76925

>  <Active>  (320) 
1.0

>  <Smiles>  (320) 
CCCCOc1c2cnnc-2[nH]cc1S(=O)c1ccccc1

>  <canonical_smi>  (320) 
CCCCOc1c2cnnc-2[nH]cc1S(=O)c1ccccc1

>  <Set>  (320) 
G2 active

>  <Set_type>  (320) 
Train

>  <MW>  (320) 
315.4

>  <HBD>  (320) 
1

>  <HBA>  (320) 
4

>  <NRB>  (320) 
6

>  <NR>  (320) 
3

>  <NAR>  (320) 
3

>  <PSA>  (320) 
67.87

>  <Standard Type>  (320) 
nan

>  <Standard Relation>  (320) 
nan

>  <Standard Units>  (320) 
nan

>  <Standard Value>  (320) 
nan

>  <Assay ChEMBL ID>  (320) 
nan

>  <Assay Description>  (320) 
nan

>  <BAO Label>  (320) 
nan

$$$$

     RDKit          2D

 21 22  0  0  0  0  0  0  0  0999 V2000
   -5.0078  -11.0558    0.0000 C   0  0  0  0  0  0  0  0  0  0  0  0
   -3.6375  -10.4457    0.0000 C   0  0  0  0  0  0  0  0  0  0  0  0
   -3.4807   -8.9539    0.0000 O   0  0  0  0  0  0  0  0  0  0  0  0
   -2.4240  -11.3274    0.0000 N   0  0  0  0  0  0  0  0  0  0  0  0
   -1.0537  -10.7173    0.0000 C   0  0  0  0  0  0  0  0  0  0  0  0
    0.2454  -11.4673    0.0000 N   0  0  0  0  0  0  0  0  0  0  0  0
    1.3601  -10.4636    0.0000 C   0  0  0  0  0  0  0  0  0  0  0  0
    0.7500   -9.0933    0.0000 C   0  0  0  0  0  0  0  0  0  0  0  0
    1.5000   -7.7942    0.0000 S   0  0  0  0  0  0  0  0  0  0  0  0
    0.7500   -6.4952    0.0000 C   0  0  0  0  0  0  0  0  0  0  0  0
    1.5000   -5.1962    0.0000 C   0  0  0  0  0  0  0  0  0  0  0  0
    3.0000   -5.1962    0.0000 O   0  0  0  0  0  0  0  0  0  0  0  0
    0.7500   -3.8971    0.0000 O   0  0  0  0  0  0  0  0  0  0  0  0
    1.5000   -2.5981    0.0000 C   0  0  0  0  0  0  0  0  0  0  0  0
    0.7500   -1.2990    0.0000 C   0  0  0  0  0  0  0  0  0  0  0  0
    1.5000    0.0000    0.0000 C   0  0  0  0  0  0  0  0  0  0  0  0
    0.7500    1.2990    0.0000 C   0  0  0  0  0  0  0  0  0  0  0  0
   -0.7500    1.2990    0.0000 C   0  0  0  0  0  0  0  0  0  0  0  0
   -1.5000    0.0000    0.0000 C   0  0  0  0  0  0  0  0  0  0  0  0
   -0.7500   -1.2990    0.0000 C   0  0  0  0  0  0  0  0  0  0  0  0
   -0.7418   -9.2501    0.0000 S   0  0  0  0  0  0  0  0  0  0  0  0
  1  2  1  0
  2  3  2  0
  2  4  1  0
  4  5  1  0
  5  6  2  0
  6  7  1  0
  7  8  2  0
  8  9  1  0
  9 10  1  0
 10 11  1  0
 11 12  2  0
 11 13  1  0
 13 14  1  0
 14 15  1  0
 15 16  2  0
 16 17  1  0
 17 18  2  0
 18 19  1  0
 19 20  2  0
  8 21  1  0
 21  5  1  0
 20 15  1  0
M  END
>  <Compound_ID>  (321) 
CHEMBL339246

>  <Active>  (321) 
1.0

>  <Smiles>  (321) 
CC(=O)Nc1ncc(SCC(=O)OCc2ccccc2)s1

>  <canonical_smi>  (321) 
CC(=O)Nc1ncc(SCC(=O)OCc2ccccc2)s1

>  <Set>  (321) 
G2 active

>  <Set_type>  (321) 
Train

>  <MW>  (321) 
322.41

>  <HBD>  (321) 
1

>  <HBA>  (321) 
5

>  <NRB>  (321) 
6

>  <NR>  (321) 
2

>  <NAR>  (321) 
2

>  <PSA>  (321) 
68.29

>  <Standard Type>  (321) 
nan

>  <Standard Relation>  (321) 
nan

>  <Standard Units>  (321) 
nan

>  <Standard Value>  (321) 
nan

>  <Assay ChEMBL ID>  (321) 
nan

>  <Assay Description>  (321) 
nan

>  <BAO Label>  (321) 
nan

$$$$

     RDKit          2D

 20 23  0  0  0  0  0  0  0  0999 V2000
   -1.8373   -5.6601    0.0000 O   0  0  0  0  0  0  0  0  0  0  0  0
   -2.9520   -4.6564    0.0000 C   0  0  0  0  0  0  0  0  0  0  0  0
   -2.6401   -3.1891    0.0000 N   0  0  0  0  0  0  0  0  0  0  0  0
   -1.2135   -2.7256    0.0000 C   0  0  0  0  0  0  0  0  0  0  0  0
   -0.0000   -3.6073    0.0000 N   0  0  0  0  0  0  0  0  0  0  0  0
    1.2135   -2.7256    0.0000 N   0  0  0  0  0  0  0  0  0  0  0  0
    0.7500   -1.2990    0.0000 C   0  0  0  0  0  0  0  0  0  0  0  0
    1.5000    0.0000    0.0000 C   0  0  0  0  0  0  0  0  0  0  0  0
    0.7500    1.2990    0.0000 C   0  0  0  0  0  0  0  0  0  0  0  0
    1.5000    2.5981    0.0000 C   0  0  0  0  0  0  0  0  0  0  0  0
    0.8899    3.9684    0.0000 C   0  0  0  0  0  0  0  0  0  0  0  0
    2.0046    4.9721    0.0000 C   0  0  0  0  0  0  0  0  0  0  0  0
    3.3037    4.2221    0.0000 C   0  0  0  0  0  0  0  0  0  0  0  0
    2.9918    2.7549    0.0000 S   0  0  0  0  0  0  0  0  0  0  0  0
   -0.7500    1.2990    0.0000 C   0  0  0  0  0  0  0  0  0  0  0  0
   -1.5000    0.0000    0.0000 C   0  0  0  0  0  0  0  0  0  0  0  0
   -0.7500   -1.2990    0.0000 C   0  0  0  0  0  0  0  0  0  0  0  0
   -4.3786   -5.1199    0.0000 C   0  0  0  0  0  0  0  0  0  0  0  0
   -5.3823   -6.2346    0.0000 C   0  0  0  0  0  0  0  0  0  0  0  0
   -5.8458   -4.8080    0.0000 C   0  0  0  0  0  0  0  0  0  0  0  0
  1  2  2  0
  2  3  1  0
  3  4  1  0
  4  5  2  0
  5  6  1  0
  6  7  1  0
  7  8  2  0
  8  9  1  0
  9 10  1  0
 10 11  2  0
 11 12  1  0
 12 13  2  0
 13 14  1  0
  9 15  2  0
 15 16  1  0
 16 17  2  0
  2 18  1  0
 18 19  1  0
 19 20  1  0
 17  4  1  0
 20 18  1  0
 17  7  1  0
 14 10  1  0
M  END
>  <Compound_ID>  (322) 
CHEMBL318522

>  <Active>  (322) 
1.0

>  <Smiles>  (322) 
O=C(Nc1n[nH]c2cc(-c3cccs3)ccc12)C1CC1

>  <canonical_smi>  (322) 
O=C(Nc1n[nH]c2cc(-c3cccs3)ccc12)C1CC1

>  <Set>  (322) 
G2 active

>  <Set_type>  (322) 
Train

>  <MW>  (322) 
283.36

>  <HBD>  (322) 
2

>  <HBA>  (322) 
2

>  <NRB>  (322) 
3

>  <NR>  (322) 
4

>  <NAR>  (322) 
3

>  <PSA>  (322) 
57.78

>  <Standard Type>  (322) 
nan

>  <Standard Relation>  (322) 
nan

>  <Standard Units>  (322) 
nan

>  <Standard Value>  (322) 
nan

>  <Assay ChEMBL ID>  (322) 
nan

>  <Assay Description>  (322) 
nan

>  <BAO Label>  (322) 
nan

$$$$

     RDKit          2D

 30 33  0  0  0  0  0  0  0  0999 V2000
   -1.5342  -12.0455    0.0000 N   0  0  0  0  0  0  0  0  0  0  0  0
   -2.9046  -11.4354    0.0000 C   0  0  0  0  0  0  0  0  0  0  0  0
   -3.0613   -9.9436    0.0000 C   0  0  0  0  0  0  0  0  0  0  0  0
   -1.8478   -9.0619    0.0000 N   0  0  0  0  0  0  0  0  0  0  0  0
   -2.0046   -7.5702    0.0000 C   0  0  0  0  0  0  0  0  0  0  0  0
   -3.3037   -6.8202    0.0000 N   0  0  0  0  0  0  0  0  0  0  0  0
   -2.9918   -5.3529    0.0000 N   0  0  0  0  0  0  0  0  0  0  0  0
   -1.5000   -5.1962    0.0000 C   0  0  0  0  0  0  0  0  0  0  0  0
   -0.7500   -3.8971    0.0000 C   0  0  0  0  0  0  0  0  0  0  0  0
    0.7500   -3.8971    0.0000 C   0  0  0  0  0  0  0  0  0  0  0  0
    1.5000   -2.5981    0.0000 C   0  0  0  0  0  0  0  0  0  0  0  0
    0.7500   -1.2990    0.0000 C   0  0  0  0  0  0  0  0  0  0  0  0
    1.5000    0.0000    0.0000 C   0  0  0  0  0  0  0  0  0  0  0  0
    0.7500    1.2990    0.0000 N   0  0  0  0  0  0  0  0  0  0  0  0
   -0.7500    1.2990    0.0000 C   0  0  0  0  0  0  0  0  0  0  0  0
   -1.5000    0.0000    0.0000 C   0  0  0  0  0  0  0  0  0  0  0  0
   -0.7500   -1.2990    0.0000 C   0  0  0  0  0  0  0  0  0  0  0  0
   -1.5000   -2.5981    0.0000 C   0  0  0  0  0  0  0  0  0  0  0  0
   -0.8899   -6.5665    0.0000 O   0  0  0  0  0  0  0  0  0  0  0  0
   -4.1181  -12.3171    0.0000 C   0  0  0  0  0  0  0  0  0  0  0  0
   -3.9613  -13.8089    0.0000 C   0  0  0  0  0  0  0  0  0  0  0  0
   -5.1748  -14.6905    0.0000 C   0  0  0  0  0  0  0  0  0  0  0  0
   -5.0180  -16.1823    0.0000 C   0  0  0  0  0  0  0  0  0  0  0  0
   -3.6477  -16.7924    0.0000 C   0  0  0  0  0  0  0  0  0  0  0  0
   -3.4909  -18.2842    0.0000 C   0  0  0  0  0  0  0  0  0  0  0  0
   -3.3341  -19.7760    0.0000 F   0  0  0  0  0  0  0  0  0  0  0  0
   -4.9827  -18.4410    0.0000 F   0  0  0  0  0  0  0  0  0  0  0  0
   -1.9991  -18.1274    0.0000 F   0  0  0  0  0  0  0  0  0  0  0  0
   -2.4342  -15.9108    0.0000 C   0  0  0  0  0  0  0  0  0  0  0  0
   -2.5910  -14.4190    0.0000 C   0  0  0  0  0  0  0  0  0  0  0  0
  2  1  1  1
  2  3  1  0
  3  4  1  0
  4  5  1  0
  5  6  2  0
  6  7  1  0
  7  8  2  0
  8  9  1  0
  9 10  2  0
 10 11  1  0
 11 12  2  0
 12 13  1  0
 13 14  2  0
 14 15  1  0
 15 16  2  0
 16 17  1  0
 17 18  2  0
  8 19  1  0
  2 20  1  0
 20 21  1  0
 21 22  2  0
 22 23  1  0
 23 24  2  0
 24 25  1  0
 25 26  1  0
 25 27  1  0
 25 28  1  0
 24 29  1  0
 29 30  2  0
 19  5  1  0
 30 21  1  0
 18  9  1  0
 17 12  1  0
M  END
>  <Compound_ID>  (323) 
CHEMBL1081119

>  <Active>  (323) 
1.0

>  <Smiles>  (323) 
N[C@H](CNc1nnc(-c2ccc3cnccc3c2)o1)Cc1ccc(C(F)(F)F)cc1

>  <canonical_smi>  (323) 
N[C@H](CNc1nnc(-c2ccc3cnccc3c2)o1)Cc1ccc(C(F)(F)F)cc1

>  <Set>  (323) 
G2 active

>  <Set_type>  (323) 
Train

>  <MW>  (323) 
413.4

>  <HBD>  (323) 
2

>  <HBA>  (323) 
6

>  <NRB>  (323) 
6

>  <NR>  (323) 
4

>  <NAR>  (323) 
4

>  <PSA>  (323) 
89.86

>  <Standard Type>  (323) 
nan

>  <Standard Relation>  (323) 
nan

>  <Standard Units>  (323) 
nan

>  <Standard Value>  (323) 
nan

>  <Assay ChEMBL ID>  (323) 
nan

>  <Assay Description>  (323) 
nan

>  <BAO Label>  (323) 
nan

$$$$

     RDKit          2D

 22 24  0  0  0  0  0  0  0  0999 V2000
    8.7547  -12.4552    0.0000 C   0  0  0  0  0  0  0  0  0  0  0  0
    8.0047  -11.1562    0.0000 C   0  0  0  0  0  0  0  0  0  0  0  0
    6.5047  -11.1562    0.0000 O   0  0  0  0  0  0  0  0  0  0  0  0
    8.7547   -9.8571    0.0000 N   0  0  0  0  0  0  0  0  0  0  0  0
    8.0047   -8.5581    0.0000 C   0  0  0  0  0  0  0  0  0  0  0  0
    8.6148   -7.1878    0.0000 N   0  0  0  0  0  0  0  0  0  0  0  0
    7.5001   -6.1841    0.0000 C   0  0  0  0  0  0  0  0  0  0  0  0
    6.2011   -6.9341    0.0000 C   0  0  0  0  0  0  0  0  0  0  0  0
    4.8308   -6.3240    0.0000 S   0  0  0  0  0  0  0  0  0  0  0  0
    4.6740   -4.8322    0.0000 C   0  0  0  0  0  0  0  0  0  0  0  0
    3.3037   -4.2221    0.0000 C   0  0  0  0  0  0  0  0  0  0  0  0
    2.0046   -4.9721    0.0000 N   0  0  0  0  0  0  0  0  0  0  0  0
    0.8899   -3.9684    0.0000 C   0  0  0  0  0  0  0  0  0  0  0  0
    1.5000   -2.5981    0.0000 C   0  0  0  0  0  0  0  0  0  0  0  0
    0.7500   -1.2990    0.0000 C   0  0  0  0  0  0  0  0  0  0  0  0
    1.5000    0.0000    0.0000 C   0  0  0  0  0  0  0  0  0  0  0  0
    0.7500    1.2990    0.0000 C   0  0  0  0  0  0  0  0  0  0  0  0
   -0.7500    1.2990    0.0000 C   0  0  0  0  0  0  0  0  0  0  0  0
   -1.5000    0.0000    0.0000 C   0  0  0  0  0  0  0  0  0  0  0  0
   -0.7500   -1.2990    0.0000 C   0  0  0  0  0  0  0  0  0  0  0  0
    2.9918   -2.7549    0.0000 O   0  0  0  0  0  0  0  0  0  0  0  0
    6.5129   -8.4013    0.0000 S   0  0  0  0  0  0  0  0  0  0  0  0
  1  2  1  0
  2  3  2  0
  2  4  1  0
  4  5  1  0
  5  6  2  0
  6  7  1  0
  7  8  2  0
  8  9  1  0
  9 10  1  0
 10 11  1  0
 11 12  2  0
 12 13  1  0
 13 14  2  0
 14 15  1  0
 15 16  2  0
 16 17  1  0
 17 18  2  0
 18 19  1  0
 19 20  2  0
 14 21  1  0
  8 22  1  0
 22  5  1  0
 21 11  1  0
 20 15  1  0
M  END
>  <Compound_ID>  (324) 
CHEMBL125731

>  <Active>  (324) 
1.0

>  <Smiles>  (324) 
CC(=O)Nc1ncc(SCc2ncc(-c3ccccc3)o2)s1

>  <canonical_smi>  (324) 
CC(=O)Nc1ncc(SCc2ncc(-c3ccccc3)o2)s1

>  <Set>  (324) 
G2 active

>  <Set_type>  (324) 
Train

>  <MW>  (324) 
331.42

>  <HBD>  (324) 
1

>  <HBA>  (324) 
5

>  <NRB>  (324) 
5

>  <NR>  (324) 
3

>  <NAR>  (324) 
3

>  <PSA>  (324) 
68.02

>  <Standard Type>  (324) 
nan

>  <Standard Relation>  (324) 
nan

>  <Standard Units>  (324) 
nan

>  <Standard Value>  (324) 
nan

>  <Assay ChEMBL ID>  (324) 
nan

>  <Assay Description>  (324) 
nan

>  <BAO Label>  (324) 
nan

$$$$

     RDKit          2D

 27 30  0  0  0  0  0  0  0  0999 V2000
   -9.1472    6.3086    0.0000 N   0  0  0  0  0  0  0  0  0  0  0  0
   -8.0325    5.3050    0.0000 S   0  0  0  0  0  0  0  0  0  0  0  0
   -7.0288    6.4197    0.0000 O   0  0  0  0  0  0  0  0  0  0  0  0
   -9.0362    4.1902    0.0000 O   0  0  0  0  0  0  0  0  0  0  0  0
   -6.9177    4.3013    0.0000 C   0  0  0  0  0  0  0  0  0  0  0  0
   -5.4912    4.7648    0.0000 C   0  0  0  0  0  0  0  0  0  0  0  0
   -4.3764    3.7611    0.0000 C   0  0  0  0  0  0  0  0  0  0  0  0
   -4.6883    2.2939    0.0000 C   0  0  0  0  0  0  0  0  0  0  0  0
   -3.5736    1.2902    0.0000 N   0  0  0  0  0  0  0  0  0  0  0  0
   -2.1470    1.7537    0.0000 C   0  0  0  0  0  0  0  0  0  0  0  0
   -1.8351    3.2209    0.0000 C   0  0  0  0  0  0  0  0  0  0  0  0
   -0.4086    3.6844    0.0000 C   0  0  0  0  0  0  0  0  0  0  0  0
   -0.0967    5.1517    0.0000 O   0  0  0  0  0  0  0  0  0  0  0  0
    1.3299    5.6152    0.0000 C   0  0  0  0  0  0  0  0  0  0  0  0
    2.4446    4.6115    0.0000 C   0  0  0  0  0  0  0  0  0  0  0  0
    3.8712    5.0750    0.0000 C   0  0  0  0  0  0  0  0  0  0  0  0
    4.1831    6.5422    0.0000 C   0  0  0  0  0  0  0  0  0  0  0  0
    3.0684    7.5459    0.0000 C   0  0  0  0  0  0  0  0  0  0  0  0
    1.6418    7.0824    0.0000 C   0  0  0  0  0  0  0  0  0  0  0  0
    0.7062    2.6807    0.0000 N   0  0  0  0  0  0  0  0  0  0  0  0
    0.3943    1.2135    0.0000 C   0  0  0  0  0  0  0  0  0  0  0  0
    1.2760    0.0000    0.0000 N   0  0  0  0  0  0  0  0  0  0  0  0
    0.3943   -1.2135    0.0000 C   0  0  0  0  0  0  0  0  0  0  0  0
   -1.0323   -0.7500    0.0000 N   0  0  0  0  0  0  0  0  0  0  0  0
   -1.0323    0.7500    0.0000 N   0  0  0  0  0  0  0  0  0  0  0  0
   -6.1149    1.8303    0.0000 C   0  0  0  0  0  0  0  0  0  0  0  0
   -7.2296    2.8340    0.0000 C   0  0  0  0  0  0  0  0  0  0  0  0
  1  2  1  0
  2  3  2  0
  2  4  2  0
  2  5  1  0
  5  6  2  0
  6  7  1  0
  7  8  2  0
  8  9  1  0
  9 10  1  0
 10 11  2  0
 11 12  1  0
 12 13  1  0
 13 14  1  0
 14 15  1  0
 15 16  1  0
 16 17  1  0
 17 18  1  0
 18 19  1  0
 12 20  2  0
 20 21  1  0
 21 22  2  0
 22 23  1  0
 23 24  2  0
 24 25  1  0
  8 26  1  0
 26 27  2  0
 27  5  1  0
 25 10  1  0
 19 14  1  0
 25 21  1  0
M  END
>  <Compound_ID>  (325) 
CHEMBL203407

>  <Active>  (325) 
1.0

>  <Smiles>  (325) 
NS(=O)(=O)c1ccc(Nc2cc(OC3CCCCC3)nc3ncnn23)cc1

>  <canonical_smi>  (325) 
NS(=O)(=O)c1ccc(Nc2cc(OC3CCCCC3)nc3ncnn23)cc1

>  <Set>  (325) 
G2 active

>  <Set_type>  (325) 
Train

>  <MW>  (325) 
388.45

>  <HBD>  (325) 
2

>  <HBA>  (325) 
7

>  <NRB>  (325) 
5

>  <NR>  (325) 
4

>  <NAR>  (325) 
3

>  <PSA>  (325) 
124.5

>  <Standard Type>  (325) 
nan

>  <Standard Relation>  (325) 
nan

>  <Standard Units>  (325) 
nan

>  <Standard Value>  (325) 
nan

>  <Assay ChEMBL ID>  (325) 
nan

>  <Assay Description>  (325) 
nan

>  <BAO Label>  (325) 
nan

$$$$

     RDKit          2D

 29 33  0  0  0  0  0  0  0  0999 V2000
    5.2500   -1.2990    0.0000 C   0  0  0  0  0  0  0  0  0  0  0  0
    3.7500   -1.2990    0.0000 C   0  0  0  0  0  0  0  0  0  0  0  0
    3.0000   -2.5981    0.0000 O   0  0  0  0  0  0  0  0  0  0  0  0
    3.0000    0.0000    0.0000 N   0  0  0  0  0  0  0  0  0  0  0  0
    1.5000    0.0000    0.0000 C   0  0  0  0  0  0  0  0  0  0  0  0
    0.7500   -1.2990    0.0000 C   0  0  0  0  0  0  0  0  0  0  0  0
   -0.7500   -1.2990    0.0000 C   0  0  0  0  0  0  0  0  0  0  0  0
   -1.5000    0.0000    0.0000 C   0  0  0  0  0  0  0  0  0  0  0  0
   -0.7500    1.2990    0.0000 C   0  0  0  0  0  0  0  0  0  0  0  0
    0.7500    1.2990    0.0000 C   0  0  0  0  0  0  0  0  0  0  0  0
    1.2135    2.7256    0.0000 C   0  0  0  0  0  0  0  0  0  0  0  0
    2.6401    3.1891    0.0000 O   0  0  0  0  0  0  0  0  0  0  0  0
    0.0000    3.6073    0.0000 C   0  0  0  0  0  0  0  0  0  0  0  0
   -0.4635    5.0339    0.0000 C   0  0  0  0  0  0  0  0  0  0  0  0
    0.4182    6.2474    0.0000 C   0  0  0  0  0  0  0  0  0  0  0  0
    1.9099    6.0906    0.0000 C   0  0  0  0  0  0  0  0  0  0  0  0
    2.7916    7.3041    0.0000 C   0  0  0  0  0  0  0  0  0  0  0  0
    2.1815    8.6745    0.0000 C   0  0  0  0  0  0  0  0  0  0  0  0
    3.0632    9.8880    0.0000 N   0  0  0  0  0  0  0  0  0  0  0  0
    4.5550    9.7312    0.0000 C   0  0  0  0  0  0  0  0  0  0  0  0
    5.4366   10.9447    0.0000 C   0  0  0  0  0  0  0  0  0  0  0  0
    4.8265   12.3150    0.0000 O   0  0  0  0  0  0  0  0  0  0  0  0
    3.3348   12.4718    0.0000 C   0  0  0  0  0  0  0  0  0  0  0  0
    2.4531   11.2583    0.0000 C   0  0  0  0  0  0  0  0  0  0  0  0
    0.6897    8.8313    0.0000 C   0  0  0  0  0  0  0  0  0  0  0  0
   -0.1920    7.6177    0.0000 C   0  0  0  0  0  0  0  0  0  0  0  0
   -1.9635    5.0339    0.0000 N   0  0  0  0  0  0  0  0  0  0  0  0
   -2.4271    3.6073    0.0000 N   0  0  0  0  0  0  0  0  0  0  0  0
   -1.2135    2.7256    0.0000 C   0  0  0  0  0  0  0  0  0  0  0  0
  1  2  1  0
  2  3  2  0
  2  4  1  0
  4  5  1  0
  5  6  2  0
  6  7  1  0
  7  8  2  0
  8  9  1  0
  9 10  2  0
 10 11  1  0
 11 12  2  0
 11 13  1  0
 13 14  1  0
 14 15  1  0
 15 16  2  0
 16 17  1  0
 17 18  2  0
 18 19  1  0
 19 20  1  0
 20 21  1  0
 21 22  1  0
 22 23  1  0
 23 24  1  0
 18 25  1  0
 25 26  2  0
 14 27  2  0
 27 28  1  0
 28 29  1  0
 10  5  1  0
 29 13  2  0
 29  9  1  0
 26 15  1  0
 24 19  1  0
M  END
>  <Compound_ID>  (326) 
CHEMBL147122

>  <Active>  (326) 
1.0

>  <Smiles>  (326) 
CC(=O)Nc1cccc2c1C(=O)c1c(-c3ccc(N4CCOCC4)cc3)n[nH]c1-2

>  <canonical_smi>  (326) 
CC(=O)Nc1cccc2c1C(=O)c1c(-c3ccc(N4CCOCC4)cc3)n[nH]c1-2

>  <Set>  (326) 
G2 active

>  <Set_type>  (326) 
Train

>  <MW>  (326) 
388.43

>  <HBD>  (326) 
2

>  <HBA>  (326) 
5

>  <NRB>  (326) 
3

>  <NR>  (326) 
5

>  <NAR>  (326) 
4

>  <PSA>  (326) 
87.32

>  <Standard Type>  (326) 
nan

>  <Standard Relation>  (326) 
nan

>  <Standard Units>  (326) 
nan

>  <Standard Value>  (326) 
nan

>  <Assay ChEMBL ID>  (326) 
nan

>  <Assay Description>  (326) 
nan

>  <BAO Label>  (326) 
nan

$$$$

     RDKit          2D

 30 34  0  0  0  0  0  0  0  0999 V2000
   -0.7500   -6.4952    0.0000 C   0  0  0  0  0  0  0  0  0  0  0  0
   -1.5000   -5.1962    0.0000 O   0  0  0  0  0  0  0  0  0  0  0  0
   -0.7500   -3.8971    0.0000 C   0  0  0  0  0  0  0  0  0  0  0  0
    0.7500   -3.8971    0.0000 C   0  0  0  0  0  0  0  0  0  0  0  0
    1.5000   -2.5981    0.0000 C   0  0  0  0  0  0  0  0  0  0  0  0
    0.7500   -1.2990    0.0000 C   0  0  0  0  0  0  0  0  0  0  0  0
    1.5000    0.0000    0.0000 C   0  0  0  0  0  0  0  0  0  0  0  0
    0.7500    1.2990    0.0000 N   0  0  0  0  0  0  0  0  0  0  0  0
   -0.7500    1.2990    0.0000 C   0  0  0  0  0  0  0  0  0  0  0  0
   -1.5000    2.5981    0.0000 N   0  0  0  0  0  0  0  0  0  0  0  0
   -0.7500    3.8971    0.0000 C   0  0  0  0  0  0  0  0  0  0  0  0
    0.7500    3.8971    0.0000 C   0  0  0  0  0  0  0  0  0  0  0  0
    1.5000    5.1962    0.0000 C   0  0  0  0  0  0  0  0  0  0  0  0
    0.7500    6.4952    0.0000 C   0  0  0  0  0  0  0  0  0  0  0  0
    1.5000    7.7942    0.0000 N   0  0  0  0  0  0  0  0  0  0  0  0
    3.0000    7.7942    0.0000 C   0  0  0  0  0  0  0  0  0  0  0  0
    3.7500    9.0933    0.0000 C   0  0  0  0  0  0  0  0  0  0  0  0
    3.0000   10.3923    0.0000 C   0  0  0  0  0  0  0  0  0  0  0  0
    1.5000   10.3923    0.0000 C   0  0  0  0  0  0  0  0  0  0  0  0
    0.7500    9.0933    0.0000 C   0  0  0  0  0  0  0  0  0  0  0  0
   -0.7500    6.4952    0.0000 C   0  0  0  0  0  0  0  0  0  0  0  0
   -1.5000    5.1962    0.0000 C   0  0  0  0  0  0  0  0  0  0  0  0
   -1.5000    0.0000    0.0000 N   0  0  0  0  0  0  0  0  0  0  0  0
   -0.7500   -1.2990    0.0000 C   0  0  0  0  0  0  0  0  0  0  0  0
   -1.5000   -2.5981    0.0000 C   0  0  0  0  0  0  0  0  0  0  0  0
   -3.0000   -2.5981    0.0000 C   0  0  0  0  0  0  0  0  0  0  0  0
   -3.8817   -3.8116    0.0000 C   0  0  0  0  0  0  0  0  0  0  0  0
   -5.3083   -3.3481    0.0000 C   0  0  0  0  0  0  0  0  0  0  0  0
   -5.3083   -1.8481    0.0000 C   0  0  0  0  0  0  0  0  0  0  0  0
   -3.8817   -1.3846    0.0000 C   0  0  0  0  0  0  0  0  0  0  0  0
  1  2  1  0
  2  3  1  0
  3  4  2  0
  4  5  1  0
  5  6  2  0
  6  7  1  0
  7  8  2  0
  8  9  1  0
  9 10  1  0
 10 11  1  0
 11 12  2  0
 12 13  1  0
 13 14  2  0
 14 15  1  0
 15 16  1  0
 16 17  1  0
 17 18  1  0
 18 19  1  0
 19 20  1  0
 14 21  1  0
 21 22  2  0
  9 23  2  0
 23 24  1  0
 24 25  2  0
 25 26  1  0
 26 27  1  0
 27 28  1  0
 28 29  1  0
 29 30  1  0
 25  3  1  0
 30 26  1  0
 24  6  1  0
 22 11  1  0
 20 15  1  0
M  END
>  <Compound_ID>  (327) 
CHEMBL183269

>  <Active>  (327) 
1.0

>  <Smiles>  (327) 
COc1ccc2cnc(Nc3ccc(N4CCCCC4)cc3)nc2c1C1CCCC1

>  <canonical_smi>  (327) 
COc1ccc2cnc(Nc3ccc(N4CCCCC4)cc3)nc2c1C1CCCC1

>  <Set>  (327) 
G2 active

>  <Set_type>  (327) 
Train

>  <MW>  (327) 
402.54

>  <HBD>  (327) 
1

>  <HBA>  (327) 
5

>  <NRB>  (327) 
5

>  <NR>  (327) 
5

>  <NAR>  (327) 
3

>  <PSA>  (327) 
50.28

>  <Standard Type>  (327) 
nan

>  <Standard Relation>  (327) 
nan

>  <Standard Units>  (327) 
nan

>  <Standard Value>  (327) 
nan

>  <Assay ChEMBL ID>  (327) 
nan

>  <Assay Description>  (327) 
nan

>  <BAO Label>  (327) 
nan

$$$$

     RDKit          2D

 24 27  0  0  0  0  0  0  0  0999 V2000
   -2.9520   -4.6564    0.0000 C   0  0  0  0  0  0  0  0  0  0  0  0
   -2.6401   -3.1891    0.0000 S   0  0  0  0  0  0  0  0  0  0  0  0
   -1.2135   -2.7256    0.0000 C   0  0  0  0  0  0  0  0  0  0  0  0
   -0.0000   -3.6073    0.0000 N   0  0  0  0  0  0  0  0  0  0  0  0
    1.2135   -2.7256    0.0000 N   0  0  0  0  0  0  0  0  0  0  0  0
    2.6401   -3.1891    0.0000 C   0  0  0  0  0  0  0  0  0  0  0  0
    2.9520   -4.6564    0.0000 C   0  0  0  0  0  0  0  0  0  0  0  0
    1.8373   -5.6601    0.0000 Cl  0  0  0  0  0  0  0  0  0  0  0  0
    4.3786   -5.1199    0.0000 C   0  0  0  0  0  0  0  0  0  0  0  0
    5.4933   -4.1162    0.0000 C   0  0  0  0  0  0  0  0  0  0  0  0
    6.9199   -4.5797    0.0000 Cl  0  0  0  0  0  0  0  0  0  0  0  0
    5.1814   -2.6490    0.0000 C   0  0  0  0  0  0  0  0  0  0  0  0
    3.7548   -2.1855    0.0000 C   0  0  0  0  0  0  0  0  0  0  0  0
    3.4430   -0.7182    0.0000 Cl  0  0  0  0  0  0  0  0  0  0  0  0
    0.7500   -1.2990    0.0000 C   0  0  0  0  0  0  0  0  0  0  0  0
    1.5000    0.0000    0.0000 N   0  0  0  0  0  0  0  0  0  0  0  0
    0.7500    1.2990    0.0000 C   0  0  0  0  0  0  0  0  0  0  0  0
    1.5000    2.5981    0.0000 C   0  0  0  0  0  0  0  0  0  0  0  0
    1.5000    4.0981    0.0000 C   0  0  0  0  0  0  0  0  0  0  0  0
    2.7990    3.3481    0.0000 C   0  0  0  0  0  0  0  0  0  0  0  0
   -0.7500    1.2990    0.0000 N   0  0  0  0  0  0  0  0  0  0  0  0
   -1.5000    0.0000    0.0000 C   0  0  0  0  0  0  0  0  0  0  0  0
   -3.0000    0.0000    0.0000 O   0  0  0  0  0  0  0  0  0  0  0  0
   -0.7500   -1.2990    0.0000 C   0  0  0  0  0  0  0  0  0  0  0  0
  1  2  1  0
  2  3  1  0
  3  4  2  0
  4  5  1  0
  5  6  1  0
  6  7  2  0
  7  8  1  0
  7  9  1  0
  9 10  2  0
 10 11  1  0
 10 12  1  0
 12 13  2  0
 13 14  1  0
  5 15  1  0
 15 16  2  0
 16 17  1  0
 17 18  1  0
 18 19  1  0
 19 20  1  0
 17 21  2  0
 21 22  1  0
 22 23  1  0
 22 24  2  0
 24  3  1  0
 13  6  1  0
 24 15  1  0
 20 18  1  0
M  END
>  <Compound_ID>  (328) 
CHEMBL187353

>  <Active>  (328) 
1.0

>  <Smiles>  (328) 
CSc1nn(-c2c(Cl)cc(Cl)cc2Cl)c2nc(C3CC3)nc(O)c12

>  <canonical_smi>  (328) 
CSc1nn(-c2c(Cl)cc(Cl)cc2Cl)c2nc(C3CC3)nc(O)c12

>  <Set>  (328) 
G2 active

>  <Set_type>  (328) 
Train

>  <MW>  (328) 
401.71

>  <HBD>  (328) 
1

>  <HBA>  (328) 
5

>  <NRB>  (328) 
3

>  <NR>  (328) 
4

>  <NAR>  (328) 
3

>  <PSA>  (328) 
63.83

>  <Standard Type>  (328) 
nan

>  <Standard Relation>  (328) 
nan

>  <Standard Units>  (328) 
nan

>  <Standard Value>  (328) 
nan

>  <Assay ChEMBL ID>  (328) 
nan

>  <Assay Description>  (328) 
nan

>  <BAO Label>  (328) 
nan

$$$$

     RDKit          2D

 25 27  0  0  0  0  0  0  0  0999 V2000
   -3.7527    6.6955    0.0000 C   0  0  0  0  0  0  0  0  0  0  0  0
   -2.6380    5.6918    0.0000 C   0  0  0  0  0  0  0  0  0  0  0  0
   -2.9499    4.2246    0.0000 N   0  0  0  0  0  0  0  0  0  0  0  0
   -4.3764    3.7611    0.0000 C   0  0  0  0  0  0  0  0  0  0  0  0
   -5.4912    4.7648    0.0000 C   0  0  0  0  0  0  0  0  0  0  0  0
   -1.8351    3.2209    0.0000 C   0  0  0  0  0  0  0  0  0  0  0  0
   -0.4086    3.6844    0.0000 C   0  0  0  0  0  0  0  0  0  0  0  0
    0.7062    2.6807    0.0000 C   0  0  0  0  0  0  0  0  0  0  0  0
    2.1328    3.1443    0.0000 N   0  0  0  0  0  0  0  0  0  0  0  0
    2.4446    4.6115    0.0000 C   0  0  0  0  0  0  0  0  0  0  0  0
    3.8712    5.0750    0.0000 C   0  0  0  0  0  0  0  0  0  0  0  0
    4.1831    6.5422    0.0000 C   0  0  0  0  0  0  0  0  0  0  0  0
    3.0684    7.5459    0.0000 C   0  0  0  0  0  0  0  0  0  0  0  0
    3.3802    9.0132    0.0000 S   0  0  0  0  0  0  0  0  0  0  0  0
    3.6921   10.4804    0.0000 N   0  0  0  0  0  0  0  0  0  0  0  0
    4.8474    8.7013    0.0000 O   0  0  0  0  0  0  0  0  0  0  0  0
    1.9130    9.3250    0.0000 O   0  0  0  0  0  0  0  0  0  0  0  0
    1.6418    7.0824    0.0000 C   0  0  0  0  0  0  0  0  0  0  0  0
    1.3299    5.6152    0.0000 C   0  0  0  0  0  0  0  0  0  0  0  0
    0.3943    1.2135    0.0000 N   0  0  0  0  0  0  0  0  0  0  0  0
    1.2760    0.0000    0.0000 N   0  0  0  0  0  0  0  0  0  0  0  0
    0.3943   -1.2135    0.0000 C   0  0  0  0  0  0  0  0  0  0  0  0
   -1.0323   -0.7500    0.0000 N   0  0  0  0  0  0  0  0  0  0  0  0
   -1.0323    0.7500    0.0000 C   0  0  0  0  0  0  0  0  0  0  0  0
   -2.1470    1.7537    0.0000 N   0  0  0  0  0  0  0  0  0  0  0  0
  1  2  1  0
  2  3  1  0
  3  4  1  0
  4  5  1  0
  3  6  1  0
  6  7  1  0
  7  8  2  0
  8  9  1  0
  9 10  1  0
 10 11  2  0
 11 12  1  0
 12 13  2  0
 13 14  1  0
 14 15  1  0
 14 16  2  0
 14 17  2  0
 13 18  1  0
 18 19  2  0
  8 20  1  0
 20 21  1  0
 21 22  2  0
 22 23  1  0
 23 24  2  0
 24 25  1  0
 25  6  2  0
 19 10  1  0
 24 20  1  0
M  END
>  <Compound_ID>  (329) 
CHEMBL203571

>  <Active>  (329) 
1.0

>  <Smiles>  (329) 
CCN(CC)c1cc(Nc2ccc(S(N)(=O)=O)cc2)n2ncnc2n1

>  <canonical_smi>  (329) 
CCN(CC)c1cc(Nc2ccc(S(N)(=O)=O)cc2)n2ncnc2n1

>  <Set>  (329) 
G2 active

>  <Set_type>  (329) 
Train

>  <MW>  (329) 
361.43

>  <HBD>  (329) 
2

>  <HBA>  (329) 
7

>  <NRB>  (329) 
6

>  <NR>  (329) 
3

>  <NAR>  (329) 
3

>  <PSA>  (329) 
118.51

>  <Standard Type>  (329) 
nan

>  <Standard Relation>  (329) 
nan

>  <Standard Units>  (329) 
nan

>  <Standard Value>  (329) 
nan

>  <Assay ChEMBL ID>  (329) 
nan

>  <Assay Description>  (329) 
nan

>  <BAO Label>  (329) 
nan

$$$$

     RDKit          2D

 41 45  0  0  0  0  0  0  0  0999 V2000
    3.0000    0.0000    0.0000 C   0  0  0  0  0  0  0  0  0  0  0  0
    1.5000    0.0000    0.0000 C   0  0  0  0  0  0  0  0  0  0  0  0
    0.7500   -1.2990    0.0000 C   0  0  0  0  0  0  0  0  0  0  0  0
    1.5000   -2.5981    0.0000 C   0  0  0  0  0  0  0  0  0  0  0  0
    3.0000   -2.5981    0.0000 O   0  0  0  0  0  0  0  0  0  0  0  0
    0.7500   -3.8971    0.0000 N   0  0  0  0  0  0  0  0  0  0  0  0
    1.5000   -5.1962    0.0000 C   0  0  0  0  0  0  0  0  0  0  0  0
    0.7500   -6.4952    0.0000 C   0  0  0  0  0  0  0  0  0  0  0  0
    1.5000   -7.7942    0.0000 C   0  0  0  0  0  0  0  0  0  0  0  0
    3.0000   -7.7942    0.0000 C   0  0  0  0  0  0  0  0  0  0  0  0
    3.7500   -6.4952    0.0000 C   0  0  0  0  0  0  0  0  0  0  0  0
    5.2500   -6.4952    0.0000 N   0  0  0  0  0  4  0  0  0  0  0  0
    6.0000   -5.1962    0.0000 O   0  0  0  0  0  0  0  0  0  0  0  0
    6.0000   -7.7942    0.0000 O   0  0  0  0  0  1  0  0  0  0  0  0
    3.0000   -5.1962    0.0000 C   0  0  0  0  0  0  0  0  0  0  0  0
   -0.7500   -1.2990    0.0000 C   0  0  0  0  0  0  0  0  0  0  0  0
   -1.5000   -2.5981    0.0000 C   0  0  0  0  0  0  0  0  0  0  0  0
   -0.7500   -3.8971    0.0000 C   0  0  0  0  0  0  0  0  0  0  0  0
   -1.5000   -5.1962    0.0000 C   0  0  0  0  0  0  0  0  0  0  0  0
   -3.0000   -5.1962    0.0000 C   0  0  0  0  0  0  0  0  0  0  0  0
   -3.7500   -6.4952    0.0000 O   0  0  0  0  0  0  0  0  0  0  0  0
   -3.7500   -3.8971    0.0000 C   0  0  0  0  0  0  0  0  0  0  0  0
   -3.0000   -2.5981    0.0000 C   0  0  0  0  0  0  0  0  0  0  0  0
   -3.7500   -1.2990    0.0000 O   0  0  0  0  0  0  0  0  0  0  0  0
   -1.5000    0.0000    0.0000 N   0  0  0  0  0  0  0  0  0  0  0  0
   -0.7500    1.2990    0.0000 C   0  0  0  0  0  0  0  0  0  0  0  0
   -1.5000    2.5981    0.0000 N   0  0  0  0  0  0  0  0  0  0  0  0
   -0.7500    3.8971    0.0000 N   0  0  0  0  0  0  0  0  0  0  0  0
   -1.3601    5.2674    0.0000 C   0  0  0  0  0  0  0  0  0  0  0  0
   -2.8273    5.5793    0.0000 O   0  0  0  0  0  0  0  0  0  0  0  0
   -0.2454    6.2711    0.0000 C   0  0  0  0  0  0  0  0  0  0  0  0
   -0.4022    7.7629    0.0000 C   0  0  0  0  0  0  0  0  0  0  0  0
   -1.7725    8.3730    0.0000 C   0  0  0  0  0  0  0  0  0  0  0  0
   -3.0715    7.6230    0.0000 C   0  0  0  0  0  0  0  0  0  0  0  0
   -4.1863    8.6267    0.0000 C   0  0  0  0  0  0  0  0  0  0  0  0
   -3.5761    9.9970    0.0000 C   0  0  0  0  0  0  0  0  0  0  0  0
   -2.0844    9.8402    0.0000 O   0  0  0  0  0  0  0  0  0  0  0  0
    1.0537    5.5211    0.0000 S   0  0  0  0  0  0  0  0  0  0  0  0
    0.7418    4.0539    0.0000 C   0  0  0  0  0  0  0  0  0  0  0  0
    1.7455    2.9392    0.0000 S   0  0  0  0  0  0  0  0  0  0  0  0
    0.7500    1.2990    0.0000 N   0  0  0  0  0  0  0  0  0  0  0  0
  1  2  1  0
  2  3  2  0
  3  4  1  0
  4  5  2  0
  4  6  1  0
  6  7  1  0
  7  8  2  0
  8  9  1  0
  9 10  2  0
 10 11  1  0
 11 12  1  0
 12 13  2  0
 12 14  1  0
 11 15  2  0
  3 16  1  0
 16 17  1  0
 17 18  2  0
 18 19  1  0
 19 20  2  0
 20 21  1  0
 20 22  1  0
 22 23  2  0
 23 24  1  0
 16 25  1  0
 25 26  1  0
 26 27  1  0
 27 28  1  0
 28 29  1  0
 29 30  2  0
 29 31  1  0
 31 32  2  0
 32 33  1  0
 33 34  2  0
 34 35  1  0
 35 36  2  0
 36 37  1  0
 31 38  1  0
 38 39  1  0
 39 40  2  0
 26 41  2  0
 41  2  1  0
 15  7  1  0
 23 17  1  0
 39 28  1  0
 37 33  1  0
M  CHG  2  12   1  14  -1
M  END
>  <Compound_ID>  (330) 
CHEMBL1077107

>  <Active>  (330) 
1.0

>  <Smiles>  (330) 
CC1=C(C(=O)Nc2cccc([N+](=O)[O-])c2)C(c2ccc(O)cc2O)NC(NN2C(=O)/C(=C\c3ccco3)SC2=S)=N1

>  <canonical_smi>  (330) 
CC1=C(C(=O)Nc2cccc([N+](=O)[O-])c2)C(c2ccc(O)cc2O)NC(NN2C(=O)/C(=C\c3ccco3)SC2=S)=N1

>  <Set>  (330) 
G2 active

>  <Set_type>  (330) 
Train

>  <MW>  (330) 
592.62

>  <HBD>  (330) 
5

>  <HBA>  (330) 
11

>  <NRB>  (330) 
6

>  <NR>  (330) 
5

>  <NAR>  (330) 
3

>  <PSA>  (330) 
182.57

>  <Standard Type>  (330) 
nan

>  <Standard Relation>  (330) 
nan

>  <Standard Units>  (330) 
nan

>  <Standard Value>  (330) 
nan

>  <Assay ChEMBL ID>  (330) 
nan

>  <Assay Description>  (330) 
nan

>  <BAO Label>  (330) 
nan

$$$$

     RDKit          2D

 18 20  0  0  0  0  0  0  0  0999 V2000
    2.7760    0.0000    0.0000 S   0  0  0  0  0  0  0  0  0  0  0  0
    1.2760    0.0000    0.0000 C   0  0  0  0  0  0  0  0  0  0  0  0
    0.3943    1.2135    0.0000 N   0  0  0  0  0  0  0  0  0  0  0  0
   -1.0323    0.7500    0.0000 N   0  0  0  0  0  0  0  0  0  0  0  0
   -2.4589    1.2135    0.0000 C   0  0  0  0  0  0  0  0  0  0  0  0
   -2.9224    2.6401    0.0000 C   0  0  0  0  0  0  0  0  0  0  0  0
   -1.9187    3.7548    0.0000 O   0  0  0  0  0  0  0  0  0  0  0  0
   -2.3822    5.1814    0.0000 C   0  0  0  0  0  0  0  0  0  0  0  0
   -1.3785    6.2961    0.0000 C   0  0  0  0  0  0  0  0  0  0  0  0
   -1.8421    7.7227    0.0000 C   0  0  0  0  0  0  0  0  0  0  0  0
   -3.3093    8.0346    0.0000 C   0  0  0  0  0  0  0  0  0  0  0  0
   -3.7728    9.4612    0.0000 Cl  0  0  0  0  0  0  0  0  0  0  0  0
   -4.3130    6.9199    0.0000 C   0  0  0  0  0  0  0  0  0  0  0  0
   -3.8494    5.4933    0.0000 C   0  0  0  0  0  0  0  0  0  0  0  0
   -3.3405    0.0000    0.0000 N   0  0  0  0  0  0  0  0  0  0  0  0
   -2.4589   -1.2135    0.0000 N   0  0  0  0  0  0  0  0  0  0  0  0
   -1.0323   -0.7500    0.0000 C   0  0  0  0  0  0  0  0  0  0  0  0
    0.3943   -1.2135    0.0000 S   0  0  0  0  0  0  0  0  0  0  0  0
  1  2  1  0
  2  3  2  0
  3  4  1  0
  4  5  1  0
  5  6  1  0
  6  7  1  0
  7  8  1  0
  8  9  2  0
  9 10  1  0
 10 11  2  0
 11 12  1  0
 11 13  1  0
 13 14  2  0
  5 15  2  0
 15 16  1  0
 16 17  2  0
 17 18  1  0
 18  2  1  0
 17  4  1  0
 14  8  1  0
M  END
>  <Compound_ID>  (331) 
CHEMBL555229

>  <Active>  (331) 
1.0

>  <Smiles>  (331) 
Sc1nn2c(COc3ccc(Cl)cc3)nnc2s1

>  <canonical_smi>  (331) 
Sc1nn2c(COc3ccc(Cl)cc3)nnc2s1

>  <Set>  (331) 
G2 active

>  <Set_type>  (331) 
Train

>  <MW>  (331) 
298.78

>  <HBD>  (331) 
1

>  <HBA>  (331) 
4

>  <NRB>  (331) 
3

>  <NR>  (331) 
3

>  <NAR>  (331) 
3

>  <PSA>  (331) 
52.31

>  <Standard Type>  (331) 
nan

>  <Standard Relation>  (331) 
nan

>  <Standard Units>  (331) 
nan

>  <Standard Value>  (331) 
nan

>  <Assay ChEMBL ID>  (331) 
nan

>  <Assay Description>  (331) 
nan

>  <BAO Label>  (331) 
nan

$$$$

     RDKit          2D

 31 35  0  0  0  0  0  0  0  0999 V2000
    4.0819   -1.9062    0.0000 C   0  0  0  0  0  0  0  0  0  0  0  0
    2.9672   -2.9099    0.0000 N   0  0  0  0  0  0  0  0  0  0  0  0
    3.1240   -4.4017    0.0000 N   0  0  0  0  0  0  0  0  0  0  0  0
    1.7537   -5.0118    0.0000 C   0  0  0  0  0  0  0  0  0  0  0  0
    1.4418   -6.4791    0.0000 C   0  0  0  0  0  0  0  0  0  0  0  0
    2.5565   -7.4827    0.0000 N   0  0  0  0  0  0  0  0  0  0  0  0
    0.0152   -6.9426    0.0000 O   0  0  0  0  0  0  0  0  0  0  0  0
    0.7500   -3.8971    0.0000 C   0  0  0  0  0  0  0  0  0  0  0  0
    1.5000   -2.5981    0.0000 C   0  0  0  0  0  0  0  0  0  0  0  0
    0.7500   -1.2990    0.0000 C   0  0  0  0  0  0  0  0  0  0  0  0
    1.5000    0.0000    0.0000 N   0  0  0  0  0  0  0  0  0  0  0  0
    0.7500    1.2990    0.0000 C   0  0  0  0  0  0  0  0  0  0  0  0
    1.5000    2.5981    0.0000 N   0  0  0  0  0  0  0  0  0  0  0  0
    3.0000    2.5981    0.0000 C   0  0  0  0  0  0  0  0  0  0  0  0
    3.7500    1.2990    0.0000 C   0  0  0  0  0  0  0  0  0  0  0  0
    5.2500    1.2990    0.0000 C   0  0  0  0  0  0  0  0  0  0  0  0
    6.0000    2.5981    0.0000 C   0  0  0  0  0  0  0  0  0  0  0  0
    5.2500    3.8971    0.0000 C   0  0  0  0  0  0  0  0  0  0  0  0
    3.7500    3.8971    0.0000 C   0  0  0  0  0  0  0  0  0  0  0  0
    3.0000    5.1962    0.0000 N   0  0  0  0  0  0  0  0  0  0  0  0
    3.7500    6.4952    0.0000 C   0  0  0  0  0  0  0  0  0  0  0  0
    5.2500    6.4952    0.0000 C   0  0  0  0  0  0  0  0  0  0  0  0
    6.0000    7.7942    0.0000 C   0  0  0  0  0  0  0  0  0  0  0  0
    5.2500    9.0933    0.0000 C   0  0  0  0  0  0  0  0  0  0  0  0
    3.7500    9.0933    0.0000 C   0  0  0  0  0  0  0  0  0  0  0  0
    3.0000    7.7942    0.0000 C   0  0  0  0  0  0  0  0  0  0  0  0
   -0.7500    1.2990    0.0000 N   0  0  0  0  0  0  0  0  0  0  0  0
   -1.5000    0.0000    0.0000 C   0  0  0  0  0  0  0  0  0  0  0  0
   -0.7500   -1.2990    0.0000 C   0  0  0  0  0  0  0  0  0  0  0  0
   -1.5000   -2.5981    0.0000 C   0  0  0  0  0  0  0  0  0  0  0  0
   -0.7500   -3.8971    0.0000 C   0  0  0  0  0  0  0  0  0  0  0  0
  1  2  1  0
  2  3  1  0
  3  4  2  0
  4  5  1  0
  5  6  1  0
  5  7  2  0
  4  8  1  0
  8  9  2  0
  9 10  1  0
 10 11  2  0
 11 12  1  0
 12 13  1  0
 13 14  1  0
 14 15  2  0
 15 16  1  0
 16 17  2  0
 17 18  1  0
 18 19  2  0
 19 20  1  0
 20 21  1  0
 21 22  2  0
 22 23  1  0
 23 24  2  0
 24 25  1  0
 25 26  2  0
 12 27  2  0
 27 28  1  0
 28 29  2  0
 29 30  1  0
 30 31  1  0
  9  2  1  0
 29 10  1  0
 31  8  1  0
 19 14  1  0
 26 21  1  0
M  END
>  <Compound_ID>  (332) 
CHEMBL1094820

>  <Active>  (332) 
1.0

>  <Smiles>  (332) 
Cn1nc(C(N)=O)c2c1-c1nc(Nc3ccccc3Nc3ccccc3)ncc1CC2

>  <canonical_smi>  (332) 
Cn1nc(C(N)=O)c2c1-c1nc(Nc3ccccc3Nc3ccccc3)ncc1CC2

>  <Set>  (332) 
G2 active

>  <Set_type>  (332) 
Train

>  <MW>  (332) 
411.47

>  <HBD>  (332) 
3

>  <HBA>  (332) 
6

>  <NRB>  (332) 
5

>  <NR>  (332) 
5

>  <NAR>  (332) 
4

>  <PSA>  (332) 
110.75

>  <Standard Type>  (332) 
nan

>  <Standard Relation>  (332) 
nan

>  <Standard Units>  (332) 
nan

>  <Standard Value>  (332) 
nan

>  <Assay ChEMBL ID>  (332) 
nan

>  <Assay Description>  (332) 
nan

>  <BAO Label>  (332) 
nan

$$$$

     RDKit          2D

 36 42  0  0  0  0  0  0  0  0999 V2000
   -8.7604   -0.0649    0.0000 C   0  0  0  0  0  0  0  0  0  0  0  0
   -8.4485   -1.5321    0.0000 N   0  0  0  0  0  0  0  0  0  0  0  0
   -9.4522   -2.6468    0.0000 C   0  0  0  0  0  0  0  0  0  0  0  0
   -8.7022   -3.9458    0.0000 C   0  0  0  0  0  0  0  0  0  0  0  0
   -7.2350   -3.6340    0.0000 C   0  0  0  0  0  0  0  0  0  0  0  0
   -6.0214   -4.5156    0.0000 C   0  0  0  0  0  0  0  0  0  0  0  0
   -4.6511   -3.9055    0.0000 C   0  0  0  0  0  0  0  0  0  0  0  0
   -4.4943   -2.4138    0.0000 C   0  0  0  0  0  0  0  0  0  0  0  0
   -3.1240   -1.8037    0.0000 C   0  0  0  0  0  0  0  0  0  0  0  0
   -1.7537   -2.4138    0.0000 N   0  0  0  0  0  0  0  0  0  0  0  0
   -0.7500   -1.2990    0.0000 C   0  0  0  0  0  0  0  0  0  0  0  0
    0.7500   -1.2990    0.0000 C   0  0  0  0  0  0  0  0  0  0  0  0
    1.5000   -2.5981    0.0000 C   0  0  0  0  0  0  0  0  0  0  0  0
    3.0000   -2.5981    0.0000 C   0  0  0  0  0  0  0  0  0  0  0  0
    3.7500   -3.8971    0.0000 N   0  0  0  0  0  0  0  0  0  0  0  0
    5.2500   -3.8971    0.0000 C   0  0  0  0  0  0  0  0  0  0  0  0
    6.0000   -5.1962    0.0000 C   0  0  0  0  0  0  0  0  0  0  0  0
    7.5000   -5.1962    0.0000 C   0  0  0  0  0  0  0  0  0  0  0  0
    8.2500   -3.8971    0.0000 C   0  0  0  0  0  0  0  0  0  0  0  0
    9.7500   -3.8971    0.0000 O   0  0  0  0  0  0  0  0  0  0  0  0
    7.5000   -2.5981    0.0000 C   0  0  0  0  0  0  0  0  0  0  0  0
    6.0000   -2.5981    0.0000 C   0  0  0  0  0  0  0  0  0  0  0  0
    1.5000    0.0000    0.0000 C   0  0  0  0  0  0  0  0  0  0  0  0
    0.7500    1.2990    0.0000 C   0  0  0  0  0  0  0  0  0  0  0  0
   -0.7500    1.2990    0.0000 C   0  0  0  0  0  0  0  0  0  0  0  0
   -1.5000    0.0000    0.0000 C   0  0  0  0  0  0  0  0  0  0  0  0
   -2.9672   -0.3119    0.0000 C   0  0  0  0  0  0  0  0  0  0  0  0
   -4.1807    0.5698    0.0000 C   0  0  0  0  0  0  0  0  0  0  0  0
   -5.5511   -0.0403    0.0000 C   0  0  0  0  0  0  0  0  0  0  0  0
   -5.7079   -1.5321    0.0000 C   0  0  0  0  0  0  0  0  0  0  0  0
   -7.0782   -2.1422    0.0000 C   0  0  0  0  0  0  0  0  0  0  0  0
   -6.5548    1.0744    0.0000 C   0  0  0  0  0  0  0  0  0  0  0  0
   -8.0465    0.9176    0.0000 O   0  0  0  0  0  0  0  0  0  0  0  0
   -5.8048    2.3735    0.0000 N   0  0  0  0  0  0  0  0  0  0  0  0
   -4.3375    2.0616    0.0000 C   0  0  0  0  0  0  0  0  0  0  0  0
   -3.2228    3.0653    0.0000 O   0  0  0  0  0  0  0  0  0  0  0  0
  1  2  1  0
  2  3  1  0
  3  4  2  0
  4  5  1  0
  5  6  2  0
  6  7  1  0
  7  8  2  0
  8  9  1  0
  9 10  1  0
 10 11  1  0
 11 12  2  0
 12 13  1  0
 13 14  1  0
 14 15  1  0
 15 16  1  0
 16 17  1  0
 17 18  1  0
 18 19  1  0
 19 20  1  0
 19 21  1  0
 21 22  1  0
 12 23  1  0
 23 24  2  0
 24 25  1  0
 25 26  2  0
 26 27  1  0
 27 28  1  0
 28 29  2  0
 29 30  1  0
 30 31  2  0
 29 32  1  0
 32 33  2  0
 32 34  1  0
 34 35  1  0
 35 36  2  0
 31  2  1  0
 31  5  1  0
 30  8  1  0
 27  9  2  0
 35 28  1  0
 26 11  1  0
 22 16  1  0
M  END
>  <Compound_ID>  (333) 
CHEMBL73764

>  <Active>  (333) 
1.0

>  <Smiles>  (333) 
Cn1ccc2ccc3c4[nH]c5c(CCNC6CCC(O)CC6)cccc5c4c4c(c3c21)C(=O)NC4=O

>  <canonical_smi>  (333) 
Cn1ccc2ccc3c4[nH]c5c(CCNC6CCC(O)CC6)cccc5c4c4c(c3c21)C(=O)NC4=O

>  <Set>  (333) 
G2 active

>  <Set_type>  (333) 
Train

>  <MW>  (333) 
480.57

>  <HBD>  (333) 
4

>  <HBA>  (333) 
4

>  <NRB>  (333) 
4

>  <NR>  (333) 
7

>  <NAR>  (333) 
5

>  <PSA>  (333) 
99.15

>  <Standard Type>  (333) 
nan

>  <Standard Relation>  (333) 
nan

>  <Standard Units>  (333) 
nan

>  <Standard Value>  (333) 
nan

>  <Assay ChEMBL ID>  (333) 
nan

>  <Assay Description>  (333) 
nan

>  <BAO Label>  (333) 
nan

$$$$

     RDKit          2D

 23 26  0  0  0  0  0  0  0  0999 V2000
    3.7500   -1.2990    0.0000 O   0  0  0  0  0  0  0  0  0  0  0  0
    3.0000   -2.5981    0.0000 C   0  0  0  0  0  0  0  0  0  0  0  0
    1.5000   -2.5981    0.0000 N   0  0  0  0  0  0  0  0  0  0  0  0
    0.7500   -1.2990    0.0000 C   0  0  0  0  0  0  0  0  0  0  0  0
    1.5000    0.0000    0.0000 N   0  0  0  0  0  0  0  0  0  0  0  0
    0.7500    1.2990    0.0000 C   0  0  0  0  0  0  0  0  0  0  0  0
   -0.7500    1.2990    0.0000 N   0  0  0  0  0  0  0  0  0  0  0  0
   -1.5000    0.0000    0.0000 C   0  0  0  0  0  0  0  0  0  0  0  0
   -2.9672   -0.3119    0.0000 O   0  0  0  0  0  0  0  0  0  0  0  0
   -3.1240   -1.8037    0.0000 C   0  0  0  0  0  0  0  0  0  0  0  0
   -4.4231   -2.5537    0.0000 C   0  0  0  0  0  0  0  0  0  0  0  0
   -5.7221   -1.8037    0.0000 C   0  0  0  0  0  0  0  0  0  0  0  0
   -7.0211   -2.5537    0.0000 C   0  0  0  0  0  0  0  0  0  0  0  0
   -7.0211   -4.0537    0.0000 C   0  0  0  0  0  0  0  0  0  0  0  0
   -5.7221   -4.8037    0.0000 N   0  0  0  0  0  0  0  0  0  0  0  0
   -4.4231   -4.0537    0.0000 C   0  0  0  0  0  0  0  0  0  0  0  0
   -1.7537   -2.4138    0.0000 C   0  0  0  0  0  0  0  0  0  0  0  0
   -0.7500   -1.2990    0.0000 C   0  0  0  0  0  0  0  0  0  0  0  0
    3.7500   -3.8971    0.0000 C   0  0  0  0  0  0  0  0  0  0  0  0
    5.2418   -4.0539    0.0000 C   0  0  0  0  0  0  0  0  0  0  0  0
    5.5537   -5.5211    0.0000 C   0  0  0  0  0  0  0  0  0  0  0  0
    4.2546   -6.2711    0.0000 C   0  0  0  0  0  0  0  0  0  0  0  0
    3.1399   -5.2674    0.0000 C   0  0  0  0  0  0  0  0  0  0  0  0
  1  2  2  0
  2  3  1  0
  3  4  1  0
  4  5  2  0
  5  6  1  0
  6  7  2  0
  7  8  1  0
  8  9  1  0
  9 10  1  0
 10 11  1  0
 11 12  2  0
 12 13  1  0
 13 14  2  0
 14 15  1  0
 15 16  2  0
 10 17  2  0
 17 18  1  0
  2 19  1  0
 19 20  1  0
 20 21  1  0
 21 22  1  0
 22 23  1  0
 18  4  1  0
 23 19  1  0
 18  8  2  0
 16 11  1  0
M  END
>  <Compound_ID>  (334) 
CHEMBL182419

>  <Active>  (334) 
1.0

>  <Smiles>  (334) 
O=C(Nc1ncnc2oc(-c3cccnc3)cc12)C1CCCC1

>  <canonical_smi>  (334) 
O=C(Nc1ncnc2oc(-c3cccnc3)cc12)C1CCCC1

>  <Set>  (334) 
G2 active

>  <Set_type>  (334) 
Train

>  <MW>  (334) 
308.34

>  <HBD>  (334) 
1

>  <HBA>  (334) 
5

>  <NRB>  (334) 
3

>  <NR>  (334) 
4

>  <NAR>  (334) 
3

>  <PSA>  (334) 
80.91

>  <Standard Type>  (334) 
nan

>  <Standard Relation>  (334) 
nan

>  <Standard Units>  (334) 
nan

>  <Standard Value>  (334) 
nan

>  <Assay ChEMBL ID>  (334) 
nan

>  <Assay Description>  (334) 
nan

>  <BAO Label>  (334) 
nan

$$$$

     RDKit          2D

 36 40  0  0  0  0  0  0  0  0999 V2000
   -0.1452    8.5486    0.0000 C   0  0  0  0  0  0  0  0  0  0  0  0
   -1.5718    8.0851    0.0000 N   0  0  0  0  0  0  0  0  0  0  0  0
   -2.6865    9.0888    0.0000 C   0  0  0  0  0  0  0  0  0  0  0  0
   -1.8836    6.6179    0.0000 C   0  0  0  0  0  0  0  0  0  0  0  0
   -3.3102    6.1544    0.0000 C   0  0  0  0  0  0  0  0  0  0  0  0
   -4.4249    7.1580    0.0000 O   0  0  0  0  0  0  0  0  0  0  0  0
   -3.6221    4.6871    0.0000 C   0  0  0  0  0  0  0  0  0  0  0  0
   -5.0487    4.2236    0.0000 O   0  0  0  0  0  0  0  0  0  0  0  0
   -5.3605    2.7564    0.0000 C   0  0  0  0  0  0  0  0  0  0  0  0
   -4.2458    1.7527    0.0000 C   0  0  0  0  0  0  0  0  0  0  0  0
   -4.5577    0.2855    0.0000 C   0  0  0  0  0  0  0  0  0  0  0  0
   -5.9843   -0.1781    0.0000 C   0  0  0  0  0  0  0  0  0  0  0  0
   -6.2961   -1.6453    0.0000 N   0  0  0  0  0  0  0  0  0  0  0  0
   -5.1814   -2.6490    0.0000 C   0  0  0  0  0  0  0  0  0  0  0  0
   -5.4933   -4.1162    0.0000 N   0  0  0  0  0  0  0  0  0  0  0  0
   -4.3786   -5.1199    0.0000 C   0  0  0  0  0  0  0  0  0  0  0  0
   -2.9520   -4.6564    0.0000 C   0  0  0  0  0  0  0  0  0  0  0  0
   -2.6401   -3.1891    0.0000 C   0  0  0  0  0  0  0  0  0  0  0  0
   -1.2135   -2.7256    0.0000 C   0  0  0  0  0  0  0  0  0  0  0  0
   -0.0000   -3.6073    0.0000 C   0  0  0  0  0  0  0  0  0  0  0  0
    1.2135   -2.7256    0.0000 N   0  0  0  0  0  0  0  0  0  0  0  0
    0.7500   -1.2990    0.0000 N   0  0  0  0  0  0  0  0  0  0  0  0
    1.5000    0.0000    0.0000 N   0  0  0  0  0  0  0  0  0  0  0  0
    0.7500    1.2990    0.0000 C   0  0  0  0  0  0  0  0  0  0  0  0
    1.5000    2.5981    0.0000 N   0  0  0  0  0  0  0  0  0  0  0  0
    3.0000    2.5981    0.0000 C   0  0  0  0  0  0  0  0  0  0  0  0
    3.7500    3.8971    0.0000 C   0  0  0  0  0  0  0  0  0  0  0  0
    3.0000    5.1962    0.0000 O   0  0  0  0  0  0  0  0  0  0  0  0
    1.5000    5.1962    0.0000 C   0  0  0  0  0  0  0  0  0  0  0  0
    0.7500    3.8971    0.0000 C   0  0  0  0  0  0  0  0  0  0  0  0
   -0.7500    1.2990    0.0000 C   0  0  0  0  0  0  0  0  0  0  0  0
   -1.5000    0.0000    0.0000 C   0  0  0  0  0  0  0  0  0  0  0  0
   -0.7500   -1.2990    0.0000 C   0  0  0  0  0  0  0  0  0  0  0  0
   -3.7548   -2.1855    0.0000 N   0  0  0  0  0  0  0  0  0  0  0  0
   -7.0990    0.8256    0.0000 C   0  0  0  0  0  0  0  0  0  0  0  0
   -6.7871    2.2929    0.0000 C   0  0  0  0  0  0  0  0  0  0  0  0
  1  2  1  0
  2  3  1  0
  2  4  1  0
  4  5  1  0
  5  6  1  0
  5  7  1  0
  7  8  1  0
  8  9  1  0
  9 10  2  0
 10 11  1  0
 11 12  2  0
 12 13  1  0
 13 14  1  0
 14 15  2  0
 15 16  1  0
 16 17  2  0
 17 18  1  0
 18 19  1  0
 19 20  1  0
 20 21  2  0
 21 22  1  0
 22 23  1  0
 23 24  2  0
 24 25  1  0
 25 26  1  0
 26 27  1  0
 27 28  1  0
 28 29  1  0
 29 30  1  0
 24 31  1  0
 31 32  2  0
 32 33  1  0
 18 34  2  0
 12 35  1  0
 35 36  2  0
 36  9  1  0
 34 14  1  0
 33 19  2  0
 33 22  1  0
 30 25  1  0
M  END
>  <Compound_ID>  (335) 
CHEMBL521871

>  <Active>  (335) 
1.0

>  <Smiles>  (335) 
CN(C)CC(O)COc1ccc(Nc2nccc(-c3cnn4nc(N5CCOCC5)ccc34)n2)cc1

>  <canonical_smi>  (335) 
CN(C)CC(O)COc1ccc(Nc2nccc(-c3cnn4nc(N5CCOCC5)ccc34)n2)cc1

>  <Set>  (335) 
G2 active

>  <Set_type>  (335) 
Train

>  <MW>  (335) 
490.57

>  <HBD>  (335) 
2

>  <HBA>  (335) 
10

>  <NRB>  (335) 
9

>  <NR>  (335) 
5

>  <NAR>  (335) 
4

>  <PSA>  (335) 
113.17

>  <Standard Type>  (335) 
nan

>  <Standard Relation>  (335) 
nan

>  <Standard Units>  (335) 
nan

>  <Standard Value>  (335) 
nan

>  <Assay ChEMBL ID>  (335) 
nan

>  <Assay Description>  (335) 
nan

>  <BAO Label>  (335) 
nan

$$$$

     RDKit          2D

 35 39  0  0  0  0  0  0  0  0999 V2000
    4.7960    2.1491    0.0000 C   0  0  0  0  0  0  0  0  0  0  0  0
    3.3287    1.8373    0.0000 O   0  0  0  0  0  0  0  0  0  0  0  0
    2.3250    2.9520    0.0000 C   0  0  0  0  0  0  0  0  0  0  0  0
    0.8578    2.6401    0.0000 C   0  0  0  0  0  0  0  0  0  0  0  0
   -0.1459    3.7548    0.0000 O   0  0  0  0  0  0  0  0  0  0  0  0
    0.3943    1.2135    0.0000 N   0  0  0  0  0  0  0  0  0  0  0  0
    1.2760    0.0000    0.0000 C   0  0  0  0  0  0  0  0  0  0  0  0
    0.3943   -1.2135    0.0000 C   0  0  0  0  0  0  0  0  0  0  0  0
    0.3943   -2.7135    0.0000 N   0  0  0  0  0  0  0  0  0  0  0  0
   -1.0323   -3.1771    0.0000 N   0  0  0  0  0  0  0  0  0  0  0  0
   -1.9140   -1.9635    0.0000 C   0  0  0  0  0  0  0  0  0  0  0  0
   -3.4140   -1.9635    0.0000 N   0  0  0  0  0  0  0  0  0  0  0  0
   -4.1640   -0.6645    0.0000 C   0  0  0  0  0  0  0  0  0  0  0  0
   -3.4140    0.6346    0.0000 O   0  0  0  0  0  0  0  0  0  0  0  0
   -5.6640   -0.6645    0.0000 C   0  0  0  0  0  0  0  0  0  0  0  0
   -6.4140    0.6346    0.0000 C   0  0  0  0  0  0  0  0  0  0  0  0
   -7.9140    0.6346    0.0000 C   0  0  0  0  0  0  0  0  0  0  0  0
   -8.6640   -0.6645    0.0000 C   0  0  0  0  0  0  0  0  0  0  0  0
  -10.1640   -0.6645    0.0000 N   0  0  0  0  0  0  0  0  0  0  0  0
  -10.9140    0.6346    0.0000 C   0  0  0  0  0  0  0  0  0  0  0  0
  -12.4140    0.6346    0.0000 C   0  0  0  0  0  0  0  0  0  0  0  0
  -13.1640   -0.6645    0.0000 N   0  0  0  0  0  0  0  0  0  0  0  0
  -14.6640   -0.6645    0.0000 C   0  0  0  0  0  0  0  0  0  0  0  0
  -12.4140   -1.9635    0.0000 C   0  0  0  0  0  0  0  0  0  0  0  0
  -10.9140   -1.9635    0.0000 C   0  0  0  0  0  0  0  0  0  0  0  0
   -7.9140   -1.9635    0.0000 C   0  0  0  0  0  0  0  0  0  0  0  0
   -6.4140   -1.9635    0.0000 C   0  0  0  0  0  0  0  0  0  0  0  0
   -1.0323   -0.7500    0.0000 C   0  0  0  0  0  0  0  0  0  0  0  0
   -1.0323    0.7500    0.0000 C   0  0  0  0  0  0  0  0  0  0  0  0
    2.7886    4.3786    0.0000 C   0  0  0  0  0  0  0  0  0  0  0  0
    4.2558    4.6904    0.0000 C   0  0  0  0  0  0  0  0  0  0  0  0
    4.7193    6.1170    0.0000 C   0  0  0  0  0  0  0  0  0  0  0  0
    3.7156    7.2317    0.0000 C   0  0  0  0  0  0  0  0  0  0  0  0
    2.2484    6.9199    0.0000 C   0  0  0  0  0  0  0  0  0  0  0  0
    1.7849    5.4933    0.0000 C   0  0  0  0  0  0  0  0  0  0  0  0
  1  2  1  0
  3  2  1  1
  3  4  1  0
  4  5  2  0
  4  6  1  0
  6  7  1  0
  7  8  1  0
  8  9  1  0
  9 10  1  0
 10 11  2  0
 11 12  1  0
 12 13  1  0
 13 14  2  0
 13 15  1  0
 15 16  2  0
 16 17  1  0
 17 18  2  0
 18 19  1  0
 19 20  1  0
 20 21  1  0
 21 22  1  0
 22 23  1  0
 22 24  1  0
 24 25  1  0
 18 26  1  0
 26 27  2  0
 11 28  1  0
 28 29  1  0
  3 30  1  0
 30 31  2  0
 31 32  1  0
 32 33  2  0
 33 34  1  0
 34 35  2  0
 29  6  1  0
 35 30  1  0
 28  8  2  0
 27 15  1  0
 25 19  1  0
M  END
>  <Compound_ID>  (336) 
CHEMBL402548

>  <Active>  (336) 
1.0

>  <Smiles>  (336) 
CO[C@@H](C(=O)N1Cc2[nH]nc(NC(=O)c3ccc(N4CCN(C)CC4)cc3)c2C1)c1ccccc1

>  <canonical_smi>  (336) 
CO[C@@H](C(=O)N1Cc2[nH]nc(NC(=O)c3ccc(N4CCN(C)CC4)cc3)c2C1)c1ccccc1

>  <Set>  (336) 
G2 active

>  <Set_type>  (336) 
Train

>  <MW>  (336) 
474.57

>  <HBD>  (336) 
2

>  <HBA>  (336) 
6

>  <NRB>  (336) 
6

>  <NR>  (336) 
5

>  <NAR>  (336) 
3

>  <PSA>  (336) 
93.8

>  <Standard Type>  (336) 
nan

>  <Standard Relation>  (336) 
nan

>  <Standard Units>  (336) 
nan

>  <Standard Value>  (336) 
nan

>  <Assay ChEMBL ID>  (336) 
nan

>  <Assay Description>  (336) 
nan

>  <BAO Label>  (336) 
nan

$$$$

     RDKit          2D

 20 23  0  0  0  0  0  0  0  0999 V2000
   -1.8373   -5.6601    0.0000 O   0  0  0  0  0  0  0  0  0  0  0  0
   -2.9520   -4.6564    0.0000 C   0  0  0  0  0  0  0  0  0  0  0  0
   -2.6401   -3.1891    0.0000 N   0  0  0  0  0  0  0  0  0  0  0  0
   -1.2135   -2.7256    0.0000 C   0  0  0  0  0  0  0  0  0  0  0  0
   -0.0000   -3.6073    0.0000 N   0  0  0  0  0  0  0  0  0  0  0  0
    1.2135   -2.7256    0.0000 N   0  0  0  0  0  0  0  0  0  0  0  0
    0.7500   -1.2990    0.0000 C   0  0  0  0  0  0  0  0  0  0  0  0
    1.5000    0.0000    0.0000 C   0  0  0  0  0  0  0  0  0  0  0  0
    0.7500    1.2990    0.0000 C   0  0  0  0  0  0  0  0  0  0  0  0
    1.5000    2.5981    0.0000 C   0  0  0  0  0  0  0  0  0  0  0  0
    0.8899    3.9684    0.0000 C   0  0  0  0  0  0  0  0  0  0  0  0
    2.0046    4.9721    0.0000 C   0  0  0  0  0  0  0  0  0  0  0  0
    3.3037    4.2221    0.0000 S   0  0  0  0  0  0  0  0  0  0  0  0
    2.9918    2.7549    0.0000 C   0  0  0  0  0  0  0  0  0  0  0  0
   -0.7500    1.2990    0.0000 C   0  0  0  0  0  0  0  0  0  0  0  0
   -1.5000    0.0000    0.0000 C   0  0  0  0  0  0  0  0  0  0  0  0
   -0.7500   -1.2990    0.0000 C   0  0  0  0  0  0  0  0  0  0  0  0
   -4.3786   -5.1199    0.0000 C   0  0  0  0  0  0  0  0  0  0  0  0
   -5.3823   -6.2346    0.0000 C   0  0  0  0  0  0  0  0  0  0  0  0
   -5.8458   -4.8080    0.0000 C   0  0  0  0  0  0  0  0  0  0  0  0
  1  2  2  0
  2  3  1  0
  3  4  1  0
  4  5  2  0
  5  6  1  0
  6  7  1  0
  7  8  2  0
  8  9  1  0
  9 10  1  0
 10 11  1  0
 11 12  2  0
 12 13  1  0
 13 14  1  0
  9 15  2  0
 15 16  1  0
 16 17  2  0
  2 18  1  0
 18 19  1  0
 19 20  1  0
 17  4  1  0
 20 18  1  0
 17  7  1  0
 14 10  2  0
M  END
>  <Compound_ID>  (337) 
CHEMBL260928

>  <Active>  (337) 
1.0

>  <Smiles>  (337) 
O=C(Nc1n[nH]c2cc(-c3ccsc3)ccc12)C1CC1

>  <canonical_smi>  (337) 
O=C(Nc1n[nH]c2cc(-c3ccsc3)ccc12)C1CC1

>  <Set>  (337) 
G2 active

>  <Set_type>  (337) 
Train

>  <MW>  (337) 
283.36

>  <HBD>  (337) 
2

>  <HBA>  (337) 
2

>  <NRB>  (337) 
3

>  <NR>  (337) 
4

>  <NAR>  (337) 
3

>  <PSA>  (337) 
57.78

>  <Standard Type>  (337) 
nan

>  <Standard Relation>  (337) 
nan

>  <Standard Units>  (337) 
nan

>  <Standard Value>  (337) 
nan

>  <Assay ChEMBL ID>  (337) 
nan

>  <Assay Description>  (337) 
nan

>  <BAO Label>  (337) 
nan

$$$$

     RDKit          2D

 28 31  0  0  0  0  0  0  0  0999 V2000
    4.5000    0.0000    0.0000 N   0  0  0  0  0  0  0  0  0  0  0  0
    3.0000    0.0000    0.0000 S   0  0  0  0  0  0  0  0  0  0  0  0
    3.0000   -1.5000    0.0000 O   0  0  0  0  0  0  0  0  0  0  0  0
    3.0000    1.5000    0.0000 O   0  0  0  0  0  0  0  0  0  0  0  0
    1.5000    0.0000    0.0000 C   0  0  0  0  0  0  0  0  0  0  0  0
    0.7500   -1.2990    0.0000 C   0  0  0  0  0  0  0  0  0  0  0  0
   -0.7500   -1.2990    0.0000 C   0  0  0  0  0  0  0  0  0  0  0  0
   -1.5000    0.0000    0.0000 C   0  0  0  0  0  0  0  0  0  0  0  0
   -3.0000    0.0000    0.0000 N   0  0  0  0  0  0  0  0  0  0  0  0
   -3.7500    1.2990    0.0000 C   0  0  0  0  0  0  0  0  0  0  0  0
   -5.2418    1.4558    0.0000 C   0  0  0  0  0  0  0  0  0  0  0  0
   -5.5537    2.9231    0.0000 C   0  0  0  0  0  0  0  0  0  0  0  0
   -6.9240    3.5332    0.0000 C   0  0  0  0  0  0  0  0  0  0  0  0
   -7.0808    5.0249    0.0000 C   0  0  0  0  0  0  0  0  0  0  0  0
   -8.4511    5.6350    0.0000 C   0  0  0  0  0  0  0  0  0  0  0  0
   -9.6646    4.7534    0.0000 C   0  0  0  0  0  0  0  0  0  0  0  0
   -9.5078    3.2616    0.0000 C   0  0  0  0  0  0  0  0  0  0  0  0
  -10.7213    2.3799    0.0000 N   0  0  0  0  0  0  0  0  0  0  0  0
  -12.0917    2.9900    0.0000 C   0  0  0  0  0  0  0  0  0  0  0  0
  -13.3052    2.1083    0.0000 C   0  0  0  0  0  0  0  0  0  0  0  0
  -13.1484    0.6166    0.0000 O   0  0  0  0  0  0  0  0  0  0  0  0
  -11.7781    0.0064    0.0000 C   0  0  0  0  0  0  0  0  0  0  0  0
  -10.5645    0.8881    0.0000 C   0  0  0  0  0  0  0  0  0  0  0  0
   -8.1375    2.6515    0.0000 C   0  0  0  0  0  0  0  0  0  0  0  0
   -4.2546    3.6731    0.0000 N   0  0  0  0  0  0  0  0  0  0  0  0
   -3.1399    2.6694    0.0000 N   0  0  0  0  0  0  0  0  0  0  0  0
   -0.7500    1.2990    0.0000 C   0  0  0  0  0  0  0  0  0  0  0  0
    0.7500    1.2990    0.0000 C   0  0  0  0  0  0  0  0  0  0  0  0
  1  2  1  0
  2  3  2  0
  2  4  2  0
  2  5  1  0
  5  6  2  0
  6  7  1  0
  7  8  2  0
  8  9  1  0
  9 10  1  0
 10 11  1  0
 11 12  2  0
 12 13  1  0
 13 14  2  0
 14 15  1  0
 15 16  2  0
 16 17  1  0
 17 18  1  0
 18 19  1  0
 19 20  1  0
 20 21  1  0
 21 22  1  0
 22 23  1  0
 17 24  2  0
 12 25  1  0
 25 26  1  0
  8 27  1  0
 27 28  2  0
 28  5  1  0
 26 10  2  0
 24 13  1  0
 23 18  1  0
M  END
>  <Compound_ID>  (338) 
CHEMBL103039

>  <Active>  (338) 
1.0

>  <Smiles>  (338) 
NS(=O)(=O)c1ccc(Nc2cc(-c3cccc(N4CCOCC4)c3)[nH]n2)cc1

>  <canonical_smi>  (338) 
NS(=O)(=O)c1ccc(Nc2cc(-c3cccc(N4CCOCC4)c3)[nH]n2)cc1

>  <Set>  (338) 
G2 active

>  <Set_type>  (338) 
Train

>  <MW>  (338) 
399.48

>  <HBD>  (338) 
3

>  <HBA>  (338) 
6

>  <NRB>  (338) 
5

>  <NR>  (338) 
4

>  <NAR>  (338) 
3

>  <PSA>  (338) 
113.34

>  <Standard Type>  (338) 
nan

>  <Standard Relation>  (338) 
nan

>  <Standard Units>  (338) 
nan

>  <Standard Value>  (338) 
nan

>  <Assay ChEMBL ID>  (338) 
nan

>  <Assay Description>  (338) 
nan

>  <BAO Label>  (338) 
nan

$$$$

     RDKit          2D

 20 23  0  0  0  0  0  0  0  0999 V2000
   -1.8373   -5.6601    0.0000 O   0  0  0  0  0  0  0  0  0  0  0  0
   -2.9520   -4.6564    0.0000 C   0  0  0  0  0  0  0  0  0  0  0  0
   -2.6401   -3.1891    0.0000 N   0  0  0  0  0  0  0  0  0  0  0  0
   -1.2135   -2.7256    0.0000 C   0  0  0  0  0  0  0  0  0  0  0  0
   -0.0000   -3.6073    0.0000 N   0  0  0  0  0  0  0  0  0  0  0  0
    1.2135   -2.7256    0.0000 N   0  0  0  0  0  0  0  0  0  0  0  0
    0.7500   -1.2990    0.0000 C   0  0  0  0  0  0  0  0  0  0  0  0
    1.5000    0.0000    0.0000 C   0  0  0  0  0  0  0  0  0  0  0  0
    0.7500    1.2990    0.0000 C   0  0  0  0  0  0  0  0  0  0  0  0
    1.5000    2.5981    0.0000 C   0  0  0  0  0  0  0  0  0  0  0  0
    0.8899    3.9684    0.0000 C   0  0  0  0  0  0  0  0  0  0  0  0
    2.0046    4.9721    0.0000 C   0  0  0  0  0  0  0  0  0  0  0  0
    3.3037    4.2221    0.0000 C   0  0  0  0  0  0  0  0  0  0  0  0
    2.9918    2.7549    0.0000 N   0  0  0  0  0  0  0  0  0  0  0  0
   -0.7500    1.2990    0.0000 C   0  0  0  0  0  0  0  0  0  0  0  0
   -1.5000    0.0000    0.0000 C   0  0  0  0  0  0  0  0  0  0  0  0
   -0.7500   -1.2990    0.0000 C   0  0  0  0  0  0  0  0  0  0  0  0
   -4.3786   -5.1199    0.0000 C   0  0  0  0  0  0  0  0  0  0  0  0
   -5.3823   -6.2346    0.0000 C   0  0  0  0  0  0  0  0  0  0  0  0
   -5.8458   -4.8080    0.0000 C   0  0  0  0  0  0  0  0  0  0  0  0
  1  2  2  0
  2  3  1  0
  3  4  1  0
  4  5  2  0
  5  6  1  0
  6  7  1  0
  7  8  2  0
  8  9  1  0
  9 10  1  0
 10 11  2  0
 11 12  1  0
 12 13  2  0
 13 14  1  0
  9 15  2  0
 15 16  1  0
 16 17  2  0
  2 18  1  0
 18 19  1  0
 19 20  1  0
 17  4  1  0
 20 18  1  0
 17  7  1  0
 14 10  1  0
M  END
>  <Compound_ID>  (339) 
CHEMBL260929

>  <Active>  (339) 
1.0

>  <Smiles>  (339) 
O=C(Nc1n[nH]c2cc(-c3ccc[nH]3)ccc12)C1CC1

>  <canonical_smi>  (339) 
O=C(Nc1n[nH]c2cc(-c3ccc[nH]3)ccc12)C1CC1

>  <Set>  (339) 
G2 active

>  <Set_type>  (339) 
Train

>  <MW>  (339) 
266.3

>  <HBD>  (339) 
3

>  <HBA>  (339) 
2

>  <NRB>  (339) 
3

>  <NR>  (339) 
4

>  <NAR>  (339) 
3

>  <PSA>  (339) 
73.57

>  <Standard Type>  (339) 
nan

>  <Standard Relation>  (339) 
nan

>  <Standard Units>  (339) 
nan

>  <Standard Value>  (339) 
nan

>  <Assay ChEMBL ID>  (339) 
nan

>  <Assay Description>  (339) 
nan

>  <BAO Label>  (339) 
nan

$$$$

     RDKit          2D

 25 27  0  0  0  0  0  0  0  0999 V2000
   -9.7500   -9.0933    0.0000 C   0  0  0  0  0  0  0  0  0  0  0  0
   -8.2500   -9.0933    0.0000 O   0  0  0  0  0  0  0  0  0  0  0  0
   -7.5000   -7.7942    0.0000 C   0  0  0  0  0  0  0  0  0  0  0  0
   -8.2500   -6.4952    0.0000 C   0  0  0  0  0  0  0  0  0  0  0  0
   -7.5000   -5.1962    0.0000 N   0  0  0  0  0  0  0  0  0  0  0  0
   -6.0000   -5.1962    0.0000 C   0  0  0  0  0  0  0  0  0  0  0  0
   -5.2500   -3.8971    0.0000 C   0  0  0  0  0  0  0  0  0  0  0  0
   -3.7500   -3.8971    0.0000 N   0  0  0  0  0  0  0  0  0  0  0  0
   -3.0000   -2.5981    0.0000 C   0  0  0  0  0  0  0  0  0  0  0  0
   -1.5000   -2.5981    0.0000 C   0  0  0  0  0  0  0  0  0  0  0  0
   -0.7500   -3.8971    0.0000 C   0  0  0  0  0  0  0  0  0  0  0  0
   -1.5000   -5.1962    0.0000 O   0  0  0  0  0  0  0  0  0  0  0  0
    0.7500   -3.8971    0.0000 N   0  0  0  0  0  0  0  0  0  0  0  0
    1.5000   -2.5981    0.0000 C   0  0  0  0  0  0  0  0  0  0  0  0
    3.0000   -2.5981    0.0000 O   0  0  0  0  0  0  0  0  0  0  0  0
    0.7500   -1.2990    0.0000 C   0  0  0  0  0  0  0  0  0  0  0  0
    1.5000    0.0000    0.0000 C   0  0  0  0  0  0  0  0  0  0  0  0
    0.7500    1.2990    0.0000 C   0  0  0  0  0  0  0  0  0  0  0  0
   -0.7500    1.2990    0.0000 C   0  0  0  0  0  0  0  0  0  0  0  0
   -1.5000    2.5981    0.0000 I   0  0  0  0  0  0  0  0  0  0  0  0
   -1.5000    0.0000    0.0000 C   0  0  0  0  0  0  0  0  0  0  0  0
   -0.7500   -1.2990    0.0000 C   0  0  0  0  0  0  0  0  0  0  0  0
   -5.2500   -6.4952    0.0000 C   0  0  0  0  0  0  0  0  0  0  0  0
   -6.0000   -7.7942    0.0000 C   0  0  0  0  0  0  0  0  0  0  0  0
   -5.2500   -9.0933    0.0000 O   0  0  0  0  0  0  0  0  0  0  0  0
  1  2  1  0
  2  3  1  0
  3  4  2  0
  4  5  1  0
  5  6  2  0
  6  7  1  0
  7  8  1  0
  8  9  1  0
  9 10  2  0
 10 11  1  0
 11 12  2  0
 11 13  1  0
 13 14  1  0
 14 15  2  0
 14 16  1  0
 16 17  2  0
 17 18  1  0
 18 19  2  0
 19 20  1  0
 19 21  1  0
 21 22  2  0
  6 23  1  0
 23 24  2  0
 24 25  1  0
 24  3  1  0
 22 10  1  0
 22 16  1  0
M  END
>  <Compound_ID>  (340) 
CHEMBL477063

>  <Active>  (340) 
1.0

>  <Smiles>  (340) 
COc1cnc(CN/C=C2\C(=O)NC(=O)c3ccc(I)cc32)cc1O

>  <canonical_smi>  (340) 
COc1cnc(CN/C=C2\C(=O)NC(=O)c3ccc(I)cc32)cc1O

>  <Set>  (340) 
G2 active

>  <Set_type>  (340) 
Train

>  <MW>  (340) 
451.22

>  <HBD>  (340) 
3

>  <HBA>  (340) 
6

>  <NRB>  (340) 
4

>  <NR>  (340) 
3

>  <NAR>  (340) 
2

>  <PSA>  (340) 
100.55

>  <Standard Type>  (340) 
nan

>  <Standard Relation>  (340) 
nan

>  <Standard Units>  (340) 
nan

>  <Standard Value>  (340) 
nan

>  <Assay ChEMBL ID>  (340) 
nan

>  <Assay Description>  (340) 
nan

>  <BAO Label>  (340) 
nan

$$$$

     RDKit          2D

 26 28  0  0  0  0  0  0  0  0999 V2000
    3.0684    7.5459    0.0000 C   0  0  0  0  0  0  0  0  0  0  0  0
    1.6418    7.0824    0.0000 C   0  0  0  0  0  0  0  0  0  0  0  0
    1.3299    5.6152    0.0000 C   0  0  0  0  0  0  0  0  0  0  0  0
    2.4446    4.6115    0.0000 C   0  0  0  0  0  0  0  0  0  0  0  0
    3.8712    5.0750    0.0000 O   0  0  0  0  0  0  0  0  0  0  0  0
   -0.0967    5.1517    0.0000 N   0  0  0  0  0  0  0  0  0  0  0  0
   -0.4086    3.6844    0.0000 C   0  0  0  0  0  0  0  0  0  0  0  0
   -1.8351    3.2209    0.0000 N   0  0  0  0  0  0  0  0  0  0  0  0
   -2.1470    1.7537    0.0000 C   0  0  0  0  0  0  0  0  0  0  0  0
   -3.5736    1.2902    0.0000 N   0  0  0  0  0  0  0  0  0  0  0  0
   -4.6883    2.2939    0.0000 C   0  0  0  0  0  0  0  0  0  0  0  0
   -6.1149    1.8303    0.0000 C   0  0  0  0  0  0  0  0  0  0  0  0
   -7.2296    2.8340    0.0000 C   0  0  0  0  0  0  0  0  0  0  0  0
   -8.6562    2.3705    0.0000 C   0  0  0  0  0  0  0  0  0  0  0  0
   -8.9681    0.9033    0.0000 C   0  0  0  0  0  0  0  0  0  0  0  0
   -7.8533   -0.1004    0.0000 C   0  0  0  0  0  0  0  0  0  0  0  0
   -6.4268    0.3631    0.0000 C   0  0  0  0  0  0  0  0  0  0  0  0
   -1.0323    0.7500    0.0000 C   0  0  0  0  0  0  0  0  0  0  0  0
    0.3943    1.2135    0.0000 C   0  0  0  0  0  0  0  0  0  0  0  0
    0.7062    2.6807    0.0000 N   0  0  0  0  0  0  0  0  0  0  0  0
    1.2760    0.0000    0.0000 N   0  0  0  0  0  0  0  0  0  0  0  0
    2.7760    0.0000    0.0000 C   0  0  0  0  0  0  0  0  0  0  0  0
    3.5260   -1.2990    0.0000 C   0  0  0  0  0  0  0  0  0  0  0  0
    3.5260    1.2990    0.0000 C   0  0  0  0  0  0  0  0  0  0  0  0
    0.3943   -1.2135    0.0000 C   0  0  0  0  0  0  0  0  0  0  0  0
   -1.0323   -0.7500    0.0000 N   0  0  0  0  0  0  0  0  0  0  0  0
  1  2  1  0
  3  2  1  6
  3  4  1  0
  4  5  1  0
  3  6  1  0
  6  7  1  0
  7  8  2  0
  8  9  1  0
  9 10  1  0
 10 11  1  0
 11 12  1  0
 12 13  2  0
 13 14  1  0
 14 15  2  0
 15 16  1  0
 16 17  2  0
  9 18  2  0
 18 19  1  0
 19 20  2  0
 19 21  1  0
 21 22  1  0
 22 23  1  0
 22 24  1  0
 21 25  1  0
 25 26  1  0
 20  7  1  0
 17 12  1  0
 26 18  1  0
M  END
>  <Compound_ID>  (341) 
CHEMBL1087791

>  <Active>  (341) 
1.0

>  <Smiles>  (341) 
CC[C@H](CO)Nc1nc(NCc2ccccc2)c2c(n1)N(C(C)C)CN2

>  <canonical_smi>  (341) 
CC[C@H](CO)Nc1nc(NCc2ccccc2)c2c(n1)N(C(C)C)CN2

>  <Set>  (341) 
G2 active

>  <Set_type>  (341) 
Train

>  <MW>  (341) 
356.47

>  <HBD>  (341) 
4

>  <HBA>  (341) 
7

>  <NRB>  (341) 
8

>  <NR>  (341) 
3

>  <NAR>  (341) 
2

>  <PSA>  (341) 
85.34

>  <Standard Type>  (341) 
nan

>  <Standard Relation>  (341) 
nan

>  <Standard Units>  (341) 
nan

>  <Standard Value>  (341) 
nan

>  <Assay ChEMBL ID>  (341) 
nan

>  <Assay Description>  (341) 
nan

>  <BAO Label>  (341) 
nan

$$$$

     RDKit          2D

 41 45  0  0  0  0  0  0  0  0999 V2000
   -7.3273  -10.0303    0.0000 C   0  0  0  0  0  0  0  0  0  0  0  0
   -5.9007  -10.4938    0.0000 C   0  0  0  0  0  0  0  0  0  0  0  0
   -4.7860   -9.4901    0.0000 C   0  0  0  0  0  0  0  0  0  0  0  0
   -3.3594   -9.9537    0.0000 C   0  0  0  0  0  0  0  0  0  0  0  0
   -2.2447   -8.9500    0.0000 C   0  0  0  0  0  0  0  0  0  0  0  0
   -2.5565   -7.4827    0.0000 N   0  0  0  0  0  0  0  0  0  0  0  0
   -1.4418   -6.4791    0.0000 C   0  0  0  0  0  0  0  0  0  0  0  0
   -0.0152   -6.9426    0.0000 O   0  0  0  0  0  0  0  0  0  0  0  0
   -1.7537   -5.0118    0.0000 C   0  0  0  0  0  0  0  0  0  0  0  0
   -3.1240   -4.4017    0.0000 N   0  0  0  0  0  0  0  0  0  0  0  0
   -2.9672   -2.9099    0.0000 N   0  0  0  0  0  0  0  0  0  0  0  0
   -4.0819   -1.9062    0.0000 C   0  0  0  0  0  0  0  0  0  0  0  0
   -5.5085   -2.3698    0.0000 C   0  0  0  0  0  0  0  0  0  0  0  0
   -6.6232   -1.3661    0.0000 C   0  0  0  0  0  0  0  0  0  0  0  0
   -8.0498   -1.8296    0.0000 N   0  0  0  0  0  0  0  0  0  0  0  0
   -1.5000   -2.5981    0.0000 C   0  0  0  0  0  0  0  0  0  0  0  0
   -0.7500   -3.8971    0.0000 C   0  0  0  0  0  0  0  0  0  0  0  0
    0.7500   -3.8971    0.0000 C   0  0  0  0  0  0  0  0  0  0  0  0
    1.5000   -2.5981    0.0000 C   0  0  0  0  0  0  0  0  0  0  0  0
    0.7500   -1.2990    0.0000 C   0  0  0  0  0  0  0  0  0  0  0  0
    1.5000    0.0000    0.0000 C   0  0  0  0  0  0  0  0  0  0  0  0
    0.7500    1.2990    0.0000 N   0  0  0  0  0  0  0  0  0  0  0  0
   -0.7500    1.2990    0.0000 C   0  0  0  0  0  0  0  0  0  0  0  0
   -1.5000    2.5981    0.0000 N   0  0  0  0  0  0  0  0  0  0  0  0
   -0.7500    3.8971    0.0000 C   0  0  0  0  0  0  0  0  0  0  0  0
    0.7500    3.8971    0.0000 C   0  0  0  0  0  0  0  0  0  0  0  0
    1.5000    5.1962    0.0000 C   0  0  0  0  0  0  0  0  0  0  0  0
    0.7500    6.4952    0.0000 C   0  0  0  0  0  0  0  0  0  0  0  0
   -0.7500    6.4952    0.0000 C   0  0  0  0  0  0  0  0  0  0  0  0
   -1.5000    7.7942    0.0000 C   0  0  0  0  0  0  0  0  0  0  0  0
   -0.7500    9.0933    0.0000 C   0  0  0  0  0  0  0  0  0  0  0  0
    0.7500    9.0933    0.0000 O   0  0  0  0  0  0  0  0  0  0  0  0
   -1.5000   10.3923    0.0000 N   0  0  0  0  0  0  0  0  0  0  0  0
   -0.7500   11.6913    0.0000 C   0  0  0  0  0  0  0  0  0  0  0  0
   -3.0000   10.3923    0.0000 C   0  0  0  0  0  0  0  0  0  0  0  0
   -1.5000    5.1962    0.0000 C   0  0  0  0  0  0  0  0  0  0  0  0
   -1.5000    0.0000    0.0000 N   0  0  0  0  0  0  0  0  0  0  0  0
   -0.7500   -1.2990    0.0000 C   0  0  0  0  0  0  0  0  0  0  0  0
   -3.0475  -11.4209    0.0000 C   0  0  0  0  0  0  0  0  0  0  0  0
   -4.1622  -12.4246    0.0000 C   0  0  0  0  0  0  0  0  0  0  0  0
   -5.5888  -11.9611    0.0000 N   0  0  0  0  0  0  0  0  0  0  0  0
  1  2  1  0
  2  3  2  0
  3  4  1  0
  4  5  1  0
  5  6  1  0
  6  7  1  0
  7  8  2  0
  7  9  1  0
  9 10  2  0
 10 11  1  0
 11 12  1  0
 12 13  1  0
 13 14  1  0
 14 15  1  0
 11 16  1  0
 16 17  2  0
 17 18  1  0
 18 19  1  0
 19 20  1  0
 20 21  2  0
 21 22  1  0
 22 23  2  0
 23 24  1  0
 24 25  1  0
 25 26  2  0
 26 27  1  0
 27 28  2  0
 28 29  1  0
 29 30  1  0
 30 31  1  0
 31 32  2  0
 31 33  1  0
 33 34  1  0
 33 35  1  0
 29 36  2  0
 23 37  1  0
 37 38  2  0
  4 39  2  0
 39 40  1  0
 40 41  2  0
 41  2  1  0
 17  9  1  0
 38 20  1  0
 38 16  1  0
 36 25  1  0
M  END
>  <Compound_ID>  (342) 
CHEMBL1172241

>  <Active>  (342) 
1.0

>  <Smiles>  (342) 
Cc1cc(CNC(=O)c2nn(CCCN)c3c2CCc2cnc(Nc4cccc(CC(=O)N(C)C)c4)nc2-3)ccn1

>  <canonical_smi>  (342) 
Cc1cc(CNC(=O)c2nn(CCCN)c3c2CCc2cnc(Nc4cccc(CC(=O)N(C)C)c4)nc2-3)ccn1

>  <Set>  (342) 
G2 active

>  <Set_type>  (342) 
Train

>  <MW>  (342) 
553.67

>  <HBD>  (342) 
3

>  <HBA>  (342) 
8

>  <NRB>  (342) 
10

>  <NR>  (342) 
5

>  <NAR>  (342) 
4

>  <PSA>  (342) 
143.95

>  <Standard Type>  (342) 
nan

>  <Standard Relation>  (342) 
nan

>  <Standard Units>  (342) 
nan

>  <Standard Value>  (342) 
nan

>  <Assay ChEMBL ID>  (342) 
nan

>  <Assay Description>  (342) 
nan

>  <BAO Label>  (342) 
nan

$$$$

     RDKit          2D

 23 25  0  0  0  0  0  0  0  0999 V2000
    5.6097    7.0058    0.0000 C   0  0  0  0  0  0  0  0  0  0  0  0
    4.1831    6.5422    0.0000 C   0  0  0  0  0  0  0  0  0  0  0  0
    3.8712    5.0750    0.0000 C   0  0  0  0  0  0  0  0  0  0  0  0
    2.4446    4.6115    0.0000 C   0  0  0  0  0  0  0  0  0  0  0  0
    2.1328    3.1443    0.0000 O   0  0  0  0  0  0  0  0  0  0  0  0
    0.7062    2.6807    0.0000 C   0  0  0  0  0  0  0  0  0  0  0  0
    0.3943    1.2135    0.0000 C   0  0  0  0  0  0  0  0  0  0  0  0
    1.2760    0.0000    0.0000 C   0  0  0  0  0  0  0  0  0  0  0  0
    0.3943   -1.2135    0.0000 N   0  0  0  0  0  0  0  0  0  0  0  0
   -1.0323   -0.7500    0.0000 N   0  0  0  0  0  0  0  0  0  0  0  0
   -1.0323    0.7500    0.0000 C   0  0  0  0  0  0  0  0  0  0  0  0
   -2.1470    1.7537    0.0000 N   0  0  0  0  0  0  0  0  0  0  0  0
   -1.8351    3.2209    0.0000 C   0  0  0  0  0  0  0  0  0  0  0  0
   -0.4086    3.6844    0.0000 C   0  0  0  0  0  0  0  0  0  0  0  0
   -0.0967    5.1517    0.0000 S   0  0  0  0  0  0  0  0  0  0  0  0
    1.3705    4.8398    0.0000 O   0  0  0  0  0  0  0  0  0  0  0  0
   -1.5639    5.4635    0.0000 O   0  0  0  0  0  0  0  0  0  0  0  0
    0.2152    6.6189    0.0000 C   0  0  0  0  0  0  0  0  0  0  0  0
    1.6418    7.0824    0.0000 C   0  0  0  0  0  0  0  0  0  0  0  0
    1.9536    8.5496    0.0000 C   0  0  0  0  0  0  0  0  0  0  0  0
    0.8389    9.5533    0.0000 C   0  0  0  0  0  0  0  0  0  0  0  0
   -0.5877    9.0898    0.0000 C   0  0  0  0  0  0  0  0  0  0  0  0
   -0.8995    7.6226    0.0000 C   0  0  0  0  0  0  0  0  0  0  0  0
  1  2  1  0
  2  3  1  0
  3  4  1  0
  4  5  1  0
  5  6  1  0
  6  7  2  0
  7  8  1  0
  8  9  2  0
  9 10  1  0
 10 11  2  0
 11 12  1  0
 12 13  1  0
 13 14  2  0
 14 15  1  0
 15 16  2  0
 15 17  2  0
 15 18  1  0
 18 19  2  0
 19 20  1  0
 20 21  2  0
 21 22  1  0
 22 23  2  0
 14  6  1  0
 23 18  1  0
 11  7  1  0
M  END
>  <Compound_ID>  (343) 
CHEMBL76872

>  <Active>  (343) 
1.0

>  <Smiles>  (343) 
CCCCOc1c2cnnc-2[nH]cc1S(=O)(=O)c1ccccc1

>  <canonical_smi>  (343) 
CCCCOc1c2cnnc-2[nH]cc1S(=O)(=O)c1ccccc1

>  <Set>  (343) 
G2 active

>  <Set_type>  (343) 
Train

>  <MW>  (343) 
331.4

>  <HBD>  (343) 
1

>  <HBA>  (343) 
5

>  <NRB>  (343) 
6

>  <NR>  (343) 
3

>  <NAR>  (343) 
3

>  <PSA>  (343) 
84.94

>  <Standard Type>  (343) 
nan

>  <Standard Relation>  (343) 
nan

>  <Standard Units>  (343) 
nan

>  <Standard Value>  (343) 
nan

>  <Assay ChEMBL ID>  (343) 
nan

>  <Assay Description>  (343) 
nan

>  <BAO Label>  (343) 
nan

$$$$

     RDKit          2D

 23 25  0  0  0  0  0  0  0  0999 V2000
   -3.2082  -13.0594    0.0000 C   0  0  0  0  0  0  0  0  0  0  0  0
   -1.9092  -13.8094    0.0000 C   0  0  0  0  0  0  0  0  0  0  0  0
   -0.6101  -14.5594    0.0000 C   0  0  0  0  0  0  0  0  0  0  0  0
   -2.6592  -15.1085    0.0000 C   0  0  0  0  0  0  0  0  0  0  0  0
   -1.1592  -12.5104    0.0000 C   0  0  0  0  0  0  0  0  0  0  0  0
    0.3326  -12.3536    0.0000 C   0  0  0  0  0  0  0  0  0  0  0  0
    0.6445  -10.8864    0.0000 N   0  0  0  0  0  0  0  0  0  0  0  0
   -0.6546  -10.1364    0.0000 C   0  0  0  0  0  0  0  0  0  0  0  0
   -0.8113   -8.6446    0.0000 C   0  0  0  0  0  0  0  0  0  0  0  0
    0.4022   -7.7629    0.0000 S   0  0  0  0  0  0  0  0  0  0  0  0
    0.2454   -6.2711    0.0000 C   0  0  0  0  0  0  0  0  0  0  0  0
   -1.0537   -5.5211    0.0000 C   0  0  0  0  0  0  0  0  0  0  0  0
   -0.7418   -4.0539    0.0000 N   0  0  0  0  0  0  0  0  0  0  0  0
    0.7500   -3.8971    0.0000 C   0  0  0  0  0  0  0  0  0  0  0  0
    1.5000   -2.5981    0.0000 N   0  0  0  0  0  0  0  0  0  0  0  0
    0.7500   -1.2990    0.0000 C   0  0  0  0  0  0  0  0  0  0  0  0
    1.5000    0.0000    0.0000 C   0  0  0  0  0  0  0  0  0  0  0  0
    0.7500    1.2990    0.0000 C   0  0  0  0  0  0  0  0  0  0  0  0
   -0.7500    1.2990    0.0000 N   0  0  0  0  0  0  0  0  0  0  0  0
   -1.5000    0.0000    0.0000 C   0  0  0  0  0  0  0  0  0  0  0  0
   -0.7500   -1.2990    0.0000 C   0  0  0  0  0  0  0  0  0  0  0  0
    1.3601   -5.2674    0.0000 S   0  0  0  0  0  0  0  0  0  0  0  0
   -1.7693  -11.1401    0.0000 O   0  0  0  0  0  0  0  0  0  0  0  0
  1  2  1  0
  2  3  1  0
  2  4  1  0
  2  5  1  0
  5  6  2  0
  6  7  1  0
  7  8  2  0
  8  9  1  0
  9 10  1  0
 10 11  1  0
 11 12  2  0
 12 13  1  0
 13 14  2  0
 14 15  1  0
 15 16  1  0
 16 17  1  0
 17 18  1  0
 18 19  1  0
 19 20  1  0
 20 21  1  0
 14 22  1  0
  8 23  1  0
 23  5  1  0
 22 11  1  0
 21 16  1  0
M  END
>  <Compound_ID>  (344) 
CHEMBL509772

>  <Active>  (344) 
1.0

>  <Smiles>  (344) 
CC(C)(C)c1cnc(CSc2cnc(NC3CCNCC3)s2)o1

>  <canonical_smi>  (344) 
CC(C)(C)c1cnc(CSc2cnc(NC3CCNCC3)s2)o1

>  <Set>  (344) 
G2 active

>  <Set_type>  (344) 
Train

>  <MW>  (344) 
352.53

>  <HBD>  (344) 
2

>  <HBA>  (344) 
6

>  <NRB>  (344) 
5

>  <NR>  (344) 
3

>  <NAR>  (344) 
2

>  <PSA>  (344) 
62.98

>  <Standard Type>  (344) 
nan

>  <Standard Relation>  (344) 
nan

>  <Standard Units>  (344) 
nan

>  <Standard Value>  (344) 
nan

>  <Assay ChEMBL ID>  (344) 
nan

>  <Assay Description>  (344) 
nan

>  <BAO Label>  (344) 
nan

$$$$

     RDKit          2D

 27 30  0  0  0  0  0  0  0  0999 V2000
   -0.0000   -5.1073    0.0000 N   0  0  0  0  0  0  0  0  0  0  0  0
   -0.0000   -3.6073    0.0000 C   0  0  0  0  0  0  0  0  0  0  0  0
    1.2135   -2.7256    0.0000 N   0  0  0  0  0  0  0  0  0  0  0  0
    0.7500   -1.2990    0.0000 C   0  0  0  0  0  0  0  0  0  0  0  0
    1.5000    0.0000    0.0000 C   0  0  0  0  0  0  0  0  0  0  0  0
    0.7500    1.2990    0.0000 C   0  0  0  0  0  0  0  0  0  0  0  0
   -0.7500    1.2990    0.0000 C   0  0  0  0  0  0  0  0  0  0  0  0
   -1.5000    2.5981    0.0000 C   0  0  0  0  0  0  0  0  0  0  0  0
   -3.0000    2.5981    0.0000 O   0  0  0  0  0  0  0  0  0  0  0  0
   -0.7500    3.8971    0.0000 C   0  0  0  0  0  0  0  0  0  0  0  0
    0.7500    3.8971    0.0000 C   0  0  0  0  0  0  0  0  0  0  0  0
    1.5000    2.5981    0.0000 F   0  0  0  0  0  0  0  0  0  0  0  0
    1.5000    5.1962    0.0000 C   0  0  0  0  0  0  0  0  0  0  0  0
    0.7500    6.4952    0.0000 C   0  0  0  0  0  0  0  0  0  0  0  0
   -0.7500    6.4952    0.0000 C   0  0  0  0  0  0  0  0  0  0  0  0
   -1.5000    5.1962    0.0000 C   0  0  0  0  0  0  0  0  0  0  0  0
   -3.0000    5.1962    0.0000 F   0  0  0  0  0  0  0  0  0  0  0  0
   -1.5000    0.0000    0.0000 C   0  0  0  0  0  0  0  0  0  0  0  0
   -0.7500   -1.2990    0.0000 N   0  0  0  0  0  0  0  0  0  0  0  0
   -1.2135   -2.7256    0.0000 C   0  0  0  0  0  0  0  0  0  0  0  0
   -2.6401   -3.1891    0.0000 C   0  0  0  0  0  0  0  0  0  0  0  0
   -3.7548   -2.1855    0.0000 O   0  0  0  0  0  0  0  0  0  0  0  0
   -2.9520   -4.6564    0.0000 C   0  0  0  0  0  0  0  0  0  0  0  0
   -1.9483   -5.7711    0.0000 C   0  0  0  0  0  0  0  0  0  0  0  0
   -2.6983   -7.0701    0.0000 C   0  0  0  0  0  0  0  0  0  0  0  0
   -4.1655   -6.7583    0.0000 C   0  0  0  0  0  0  0  0  0  0  0  0
   -4.3223   -5.2665    0.0000 S   0  0  0  0  0  0  0  0  0  0  0  0
  1  2  1  0
  2  3  1  0
  3  4  2  0
  4  5  1  0
  5  6  2  0
  6  7  1  0
  7  8  1  0
  8  9  2  0
  8 10  1  0
 10 11  2  0
 11 12  1  0
 11 13  1  0
 13 14  2  0
 14 15  1  0
 15 16  2  0
 16 17  1  0
  7 18  2  0
 18 19  1  0
 19 20  1  0
 20 21  1  0
 21 22  2  0
 21 23  1  0
 23 24  2  0
 24 25  1  0
 25 26  2  0
 26 27  1  0
 20  2  2  0
 27 23  1  0
 19  4  1  0
 16 10  1  0
M  END
>  <Compound_ID>  (345) 
CHEMBL186952

>  <Active>  (345) 
1.0

>  <Smiles>  (345) 
Nc1nc2ccc(C(=O)c3c(F)cccc3F)cn2c1C(=O)c1cccs1

>  <canonical_smi>  (345) 
Nc1nc2ccc(C(=O)c3c(F)cccc3F)cn2c1C(=O)c1cccs1

>  <Set>  (345) 
G2 active

>  <Set_type>  (345) 
Train

>  <MW>  (345) 
383.38

>  <HBD>  (345) 
1

>  <HBA>  (345) 
4

>  <NRB>  (345) 
4

>  <NR>  (345) 
4

>  <NAR>  (345) 
4

>  <PSA>  (345) 
77.46

>  <Standard Type>  (345) 
nan

>  <Standard Relation>  (345) 
nan

>  <Standard Units>  (345) 
nan

>  <Standard Value>  (345) 
nan

>  <Assay ChEMBL ID>  (345) 
nan

>  <Assay Description>  (345) 
nan

>  <BAO Label>  (345) 
nan

$$$$

     RDKit          2D

 28 31  0  0  0  0  0  0  0  0999 V2000
   -8.3928    7.2347    0.0000 C   0  0  0  0  0  0  0  0  0  0  0  0
   -8.7047    5.7675    0.0000 C   0  0  0  0  0  0  0  0  0  0  0  0
   -7.5900    4.7638    0.0000 N   0  0  0  0  0  0  0  0  0  0  0  0
   -7.9018    3.2966    0.0000 C   0  0  0  0  0  0  0  0  0  0  0  0
   -9.3284    2.8330    0.0000 O   0  0  0  0  0  0  0  0  0  0  0  0
   -6.7871    2.2929    0.0000 N   0  0  0  0  0  0  0  0  0  0  0  0
   -5.3605    2.7564    0.0000 C   0  0  0  0  0  0  0  0  0  0  0  0
   -4.2458    1.7527    0.0000 C   0  0  0  0  0  0  0  0  0  0  0  0
   -4.5577    0.2855    0.0000 C   0  0  0  0  0  0  0  0  0  0  0  0
   -5.9843   -0.1781    0.0000 C   0  0  0  0  0  0  0  0  0  0  0  0
   -6.2961   -1.6453    0.0000 N   0  0  0  0  0  0  0  0  0  0  0  0
   -5.1814   -2.6490    0.0000 C   0  0  0  0  0  0  0  0  0  0  0  0
   -5.4933   -4.1162    0.0000 N   0  0  0  0  0  0  0  0  0  0  0  0
   -4.3786   -5.1199    0.0000 C   0  0  0  0  0  0  0  0  0  0  0  0
   -2.9520   -4.6564    0.0000 C   0  0  0  0  0  0  0  0  0  0  0  0
   -1.8373   -5.6601    0.0000 Cl  0  0  0  0  0  0  0  0  0  0  0  0
   -2.6401   -3.1891    0.0000 C   0  0  0  0  0  0  0  0  0  0  0  0
   -1.2135   -2.7256    0.0000 C   0  0  0  0  0  0  0  0  0  0  0  0
   -0.0000   -3.6073    0.0000 C   0  0  0  0  0  0  0  0  0  0  0  0
    1.2135   -2.7256    0.0000 N   0  0  0  0  0  0  0  0  0  0  0  0
    0.7500   -1.2990    0.0000 C   0  0  0  0  0  0  0  0  0  0  0  0
    1.5000    0.0000    0.0000 C   0  0  0  0  0  0  0  0  0  0  0  0
    0.7500    1.2990    0.0000 C   0  0  0  0  0  0  0  0  0  0  0  0
   -0.7500    1.2990    0.0000 C   0  0  0  0  0  0  0  0  0  0  0  0
   -1.5000    0.0000    0.0000 C   0  0  0  0  0  0  0  0  0  0  0  0
   -0.7500   -1.2990    0.0000 C   0  0  0  0  0  0  0  0  0  0  0  0
   -3.7548   -2.1855    0.0000 N   0  0  0  0  0  0  0  0  0  0  0  0
   -7.0990    0.8256    0.0000 C   0  0  0  0  0  0  0  0  0  0  0  0
  1  2  1  0
  2  3  1  0
  3  4  1  0
  4  5  2  0
  4  6  1  0
  6  7  1  0
  7  8  1  0
  8  9  1  0
  9 10  1  0
 10 11  1  6
 11 12  1  0
 12 13  2  0
 13 14  1  0
 14 15  2  0
 15 16  1  0
 15 17  1  0
 17 18  1  0
 18 19  2  0
 19 20  1  0
 20 21  1  0
 21 22  2  0
 22 23  1  0
 23 24  2  0
 24 25  1  0
 25 26  2  0
 17 27  2  0
 10 28  1  0
 28  6  1  0
 27 12  1  0
 26 18  1  0
 26 21  1  0
M  END
>  <Compound_ID>  (346) 
CHEMBL392614

>  <Active>  (346) 
1.0

>  <Smiles>  (346) 
CCNC(=O)N1CCC[C@H](Nc2ncc(Cl)c(-c3c[nH]c4ccccc34)n2)C1

>  <canonical_smi>  (346) 
CCNC(=O)N1CCC[C@H](Nc2ncc(Cl)c(-c3c[nH]c4ccccc34)n2)C1

>  <Set>  (346) 
G2 active

>  <Set_type>  (346) 
Train

>  <MW>  (346) 
398.9

>  <HBD>  (346) 
3

>  <HBA>  (346) 
4

>  <NRB>  (346) 
4

>  <NR>  (346) 
4

>  <NAR>  (346) 
3

>  <PSA>  (346) 
85.94

>  <Standard Type>  (346) 
nan

>  <Standard Relation>  (346) 
nan

>  <Standard Units>  (346) 
nan

>  <Standard Value>  (346) 
nan

>  <Assay ChEMBL ID>  (346) 
nan

>  <Assay Description>  (346) 
nan

>  <BAO Label>  (346) 
nan

$$$$

     RDKit          2D

 27 31  0  0  0  0  0  0  0  0999 V2000
   -4.6613    6.0728    0.0000 N   0  0  0  0  0  0  0  0  0  0  0  0
   -3.2910    5.4627    0.0000 C   0  0  0  0  0  0  0  0  0  0  0  0
   -2.0774    6.3444    0.0000 O   0  0  0  0  0  0  0  0  0  0  0  0
   -3.1342    3.9709    0.0000 C   0  0  0  0  0  0  0  0  0  0  0  0
   -4.2489    2.9672    0.0000 N   0  0  0  0  0  0  0  0  0  0  0  0
   -3.6388    1.5969    0.0000 N   0  0  0  0  0  0  0  0  0  0  0  0
   -4.3888    0.2979    0.0000 C   0  0  0  0  0  0  0  0  0  0  0  0
   -5.8888    0.2979    0.0000 C   0  0  0  0  0  0  0  0  0  0  0  0
   -6.6388   -1.0012    0.0000 C   0  0  0  0  0  0  0  0  0  0  0  0
   -5.8888   -2.3002    0.0000 C   0  0  0  0  0  0  0  0  0  0  0  0
   -6.6388   -3.5992    0.0000 N   0  0  0  0  0  0  0  0  0  0  0  0
   -8.1388   -3.5992    0.0000 C   0  0  0  0  0  0  0  0  0  0  0  0
   -8.8888   -4.8983    0.0000 C   0  0  0  0  0  0  0  0  0  0  0  0
   -8.1388   -6.1973    0.0000 O   0  0  0  0  0  0  0  0  0  0  0  0
   -6.6388   -6.1973    0.0000 C   0  0  0  0  0  0  0  0  0  0  0  0
   -5.8888   -4.8983    0.0000 C   0  0  0  0  0  0  0  0  0  0  0  0
   -4.3888   -2.3002    0.0000 C   0  0  0  0  0  0  0  0  0  0  0  0
   -3.6388   -1.0012    0.0000 C   0  0  0  0  0  0  0  0  0  0  0  0
   -2.1470    1.7537    0.0000 C   0  0  0  0  0  0  0  0  0  0  0  0
   -1.8351    3.2209    0.0000 C   0  0  0  0  0  0  0  0  0  0  0  0
   -0.4086    3.6844    0.0000 C   0  0  0  0  0  0  0  0  0  0  0  0
    0.7062    2.6807    0.0000 C   0  0  0  0  0  0  0  0  0  0  0  0
    0.3943    1.2135    0.0000 C   0  0  0  0  0  0  0  0  0  0  0  0
    1.2760    0.0000    0.0000 N   0  0  0  0  0  0  0  0  0  0  0  0
    0.3943   -1.2135    0.0000 N   0  0  0  0  0  0  0  0  0  0  0  0
   -1.0323   -0.7500    0.0000 C   0  0  0  0  0  0  0  0  0  0  0  0
   -1.0323    0.7500    0.0000 C   0  0  0  0  0  0  0  0  0  0  0  0
  1  2  1  0
  2  3  2  0
  2  4  1  0
  4  5  2  0
  5  6  1  0
  6  7  1  0
  7  8  2  0
  8  9  1  0
  9 10  2  0
 10 11  1  0
 11 12  1  0
 12 13  1  0
 13 14  1  0
 14 15  1  0
 15 16  1  0
 10 17  1  0
 17 18  2  0
  6 19  1  0
 19 20  2  0
 20 21  1  0
 21 22  1  0
 22 23  1  0
 23 24  2  0
 24 25  1  0
 25 26  1  0
 26 27  2  0
 20  4  1  0
 27 23  1  0
 18  7  1  0
 27 19  1  0
 16 11  1  0
M  END
>  <Compound_ID>  (347) 
CHEMBL359738

>  <Active>  (347) 
1.0

>  <Smiles>  (347) 
NC(=O)c1nn(-c2ccc(N3CCOCC3)cc2)c2c1CCc1n[nH]cc1-2

>  <canonical_smi>  (347) 
NC(=O)c1nn(-c2ccc(N3CCOCC3)cc2)c2c1CCc1n[nH]cc1-2

>  <Set>  (347) 
G2 active

>  <Set_type>  (347) 
Train

>  <MW>  (347) 
364.41

>  <HBD>  (347) 
2

>  <HBA>  (347) 
5

>  <NRB>  (347) 
3

>  <NR>  (347) 
5

>  <NAR>  (347) 
3

>  <PSA>  (347) 
102.06

>  <Standard Type>  (347) 
nan

>  <Standard Relation>  (347) 
nan

>  <Standard Units>  (347) 
nan

>  <Standard Value>  (347) 
nan

>  <Assay ChEMBL ID>  (347) 
nan

>  <Assay Description>  (347) 
nan

>  <BAO Label>  (347) 
nan

$$$$

     RDKit          2D

 31 35  0  0  0  0  0  0  0  0999 V2000
    4.0819   -1.9062    0.0000 C   0  0  0  0  0  0  0  0  0  0  0  0
    2.9672   -2.9099    0.0000 N   0  0  0  0  0  0  0  0  0  0  0  0
    3.1240   -4.4017    0.0000 N   0  0  0  0  0  0  0  0  0  0  0  0
    1.7537   -5.0118    0.0000 C   0  0  0  0  0  0  0  0  0  0  0  0
    1.4418   -6.4791    0.0000 C   0  0  0  0  0  0  0  0  0  0  0  0
    2.5565   -7.4827    0.0000 N   0  0  0  0  0  0  0  0  0  0  0  0
    0.0152   -6.9426    0.0000 O   0  0  0  0  0  0  0  0  0  0  0  0
    0.7500   -3.8971    0.0000 C   0  0  0  0  0  0  0  0  0  0  0  0
    1.5000   -2.5981    0.0000 C   0  0  0  0  0  0  0  0  0  0  0  0
    0.7500   -1.2990    0.0000 C   0  0  0  0  0  0  0  0  0  0  0  0
    1.5000    0.0000    0.0000 N   0  0  0  0  0  0  0  0  0  0  0  0
    0.7500    1.2990    0.0000 C   0  0  0  0  0  0  0  0  0  0  0  0
    1.5000    2.5981    0.0000 N   0  0  0  0  0  0  0  0  0  0  0  0
    3.0000    2.5981    0.0000 C   0  0  0  0  0  0  0  0  0  0  0  0
    3.7500    1.2990    0.0000 C   0  0  0  0  0  0  0  0  0  0  0  0
    5.2500    1.2990    0.0000 C   0  0  0  0  0  0  0  0  0  0  0  0
    6.0000    2.5981    0.0000 C   0  0  0  0  0  0  0  0  0  0  0  0
    5.2500    3.8971    0.0000 C   0  0  0  0  0  0  0  0  0  0  0  0
    3.7500    3.8971    0.0000 C   0  0  0  0  0  0  0  0  0  0  0  0
    3.0000    5.1962    0.0000 C   0  0  0  0  0  0  0  0  0  0  0  0
    3.7500    6.4952    0.0000 C   0  0  0  0  0  0  0  0  0  0  0  0
    5.2500    6.4952    0.0000 C   0  0  0  0  0  0  0  0  0  0  0  0
    6.0000    7.7942    0.0000 C   0  0  0  0  0  0  0  0  0  0  0  0
    5.2500    9.0933    0.0000 C   0  0  0  0  0  0  0  0  0  0  0  0
    3.7500    9.0933    0.0000 C   0  0  0  0  0  0  0  0  0  0  0  0
    3.0000    7.7942    0.0000 C   0  0  0  0  0  0  0  0  0  0  0  0
   -0.7500    1.2990    0.0000 N   0  0  0  0  0  0  0  0  0  0  0  0
   -1.5000    0.0000    0.0000 C   0  0  0  0  0  0  0  0  0  0  0  0
   -0.7500   -1.2990    0.0000 C   0  0  0  0  0  0  0  0  0  0  0  0
   -1.5000   -2.5981    0.0000 C   0  0  0  0  0  0  0  0  0  0  0  0
   -0.7500   -3.8971    0.0000 C   0  0  0  0  0  0  0  0  0  0  0  0
  1  2  1  0
  2  3  1  0
  3  4  2  0
  4  5  1  0
  5  6  1  0
  5  7  2  0
  4  8  1  0
  8  9  2  0
  9 10  1  0
 10 11  2  0
 11 12  1  0
 12 13  1  0
 13 14  1  0
 14 15  2  0
 15 16  1  0
 16 17  2  0
 17 18  1  0
 18 19  2  0
 19 20  1  0
 20 21  1  0
 21 22  2  0
 22 23  1  0
 23 24  2  0
 24 25  1  0
 25 26  2  0
 12 27  2  0
 27 28  1  0
 28 29  2  0
 29 30  1  0
 30 31  1  0
  9  2  1  0
 29 10  1  0
 31  8  1  0
 19 14  1  0
 26 21  1  0
M  END
>  <Compound_ID>  (348) 
CHEMBL1094488

>  <Active>  (348) 
1.0

>  <Smiles>  (348) 
Cn1nc(C(N)=O)c2c1-c1nc(Nc3ccccc3Cc3ccccc3)ncc1CC2

>  <canonical_smi>  (348) 
Cn1nc(C(N)=O)c2c1-c1nc(Nc3ccccc3Cc3ccccc3)ncc1CC2

>  <Set>  (348) 
G2 active

>  <Set_type>  (348) 
Train

>  <MW>  (348) 
410.48

>  <HBD>  (348) 
2

>  <HBA>  (348) 
5

>  <NRB>  (348) 
5

>  <NR>  (348) 
5

>  <NAR>  (348) 
4

>  <PSA>  (348) 
98.72

>  <Standard Type>  (348) 
nan

>  <Standard Relation>  (348) 
nan

>  <Standard Units>  (348) 
nan

>  <Standard Value>  (348) 
nan

>  <Assay ChEMBL ID>  (348) 
nan

>  <Assay Description>  (348) 
nan

>  <BAO Label>  (348) 
nan

$$$$

     RDKit          2D

 30 34  0  0  0  0  0  0  0  0999 V2000
    4.0819   -1.9062    0.0000 C   0  0  0  0  0  0  0  0  0  0  0  0
    2.9672   -2.9099    0.0000 N   0  0  0  0  0  0  0  0  0  0  0  0
    3.1240   -4.4017    0.0000 N   0  0  0  0  0  0  0  0  0  0  0  0
    1.7537   -5.0118    0.0000 C   0  0  0  0  0  0  0  0  0  0  0  0
    1.4418   -6.4791    0.0000 C   0  0  0  0  0  0  0  0  0  0  0  0
    0.0152   -6.9426    0.0000 O   0  0  0  0  0  0  0  0  0  0  0  0
    2.5565   -7.4827    0.0000 N   0  0  0  0  0  0  0  0  0  0  0  0
    2.2447   -8.9500    0.0000 C   0  0  0  0  0  0  0  0  0  0  0  0
    0.8181   -9.4135    0.0000 C   0  0  0  0  0  0  0  0  0  0  0  0
    0.5062  -10.8807    0.0000 C   0  0  0  0  0  0  0  0  0  0  0  0
    1.6209  -11.8844    0.0000 C   0  0  0  0  0  0  0  0  0  0  0  0
    3.0475  -11.4209    0.0000 C   0  0  0  0  0  0  0  0  0  0  0  0
    3.3594   -9.9537    0.0000 C   0  0  0  0  0  0  0  0  0  0  0  0
    0.7500   -3.8971    0.0000 C   0  0  0  0  0  0  0  0  0  0  0  0
    1.5000   -2.5981    0.0000 C   0  0  0  0  0  0  0  0  0  0  0  0
    0.7500   -1.2990    0.0000 C   0  0  0  0  0  0  0  0  0  0  0  0
    1.5000    0.0000    0.0000 N   0  0  0  0  0  0  0  0  0  0  0  0
    0.7500    1.2990    0.0000 C   0  0  0  0  0  0  0  0  0  0  0  0
    1.5000    2.5981    0.0000 N   0  0  0  0  0  0  0  0  0  0  0  0
    3.0000    2.5981    0.0000 C   0  0  0  0  0  0  0  0  0  0  0  0
    3.7500    1.2990    0.0000 C   0  0  0  0  0  0  0  0  0  0  0  0
    5.2500    1.2990    0.0000 C   0  0  0  0  0  0  0  0  0  0  0  0
    6.0000    2.5981    0.0000 C   0  0  0  0  0  0  0  0  0  0  0  0
    5.2500    3.8971    0.0000 C   0  0  0  0  0  0  0  0  0  0  0  0
    3.7500    3.8971    0.0000 C   0  0  0  0  0  0  0  0  0  0  0  0
   -0.7500    1.2990    0.0000 N   0  0  0  0  0  0  0  0  0  0  0  0
   -1.5000    0.0000    0.0000 C   0  0  0  0  0  0  0  0  0  0  0  0
   -0.7500   -1.2990    0.0000 C   0  0  0  0  0  0  0  0  0  0  0  0
   -1.5000   -2.5981    0.0000 C   0  0  0  0  0  0  0  0  0  0  0  0
   -0.7500   -3.8971    0.0000 C   0  0  0  0  0  0  0  0  0  0  0  0
  1  2  1  0
  2  3  1  0
  3  4  2  0
  4  5  1  0
  5  6  2  0
  5  7  1  0
  7  8  1  0
  8  9  2  0
  9 10  1  0
 10 11  2  0
 11 12  1  0
 12 13  2  0
  4 14  1  0
 14 15  2  0
 15 16  1  0
 16 17  2  0
 17 18  1  0
 18 19  1  0
 19 20  1  0
 20 21  2  0
 21 22  1  0
 22 23  2  0
 23 24  1  0
 24 25  2  0
 18 26  2  0
 26 27  1  0
 27 28  2  0
 28 29  1  0
 29 30  1  0
 15  2  1  0
 28 16  1  0
 13  8  1  0
 30 14  1  0
 25 20  1  0
M  END
>  <Compound_ID>  (349) 
CHEMBL563150

>  <Active>  (349) 
1.0

>  <Smiles>  (349) 
Cn1nc(C(=O)Nc2ccccc2)c2c1-c1nc(Nc3ccccc3)ncc1CC2

>  <canonical_smi>  (349) 
Cn1nc(C(=O)Nc2ccccc2)c2c1-c1nc(Nc3ccccc3)ncc1CC2

>  <Set>  (349) 
G2 active

>  <Set_type>  (349) 
Train

>  <MW>  (349) 
396.45

>  <HBD>  (349) 
2

>  <HBA>  (349) 
5

>  <NRB>  (349) 
4

>  <NR>  (349) 
5

>  <NAR>  (349) 
4

>  <PSA>  (349) 
84.73

>  <Standard Type>  (349) 
nan

>  <Standard Relation>  (349) 
nan

>  <Standard Units>  (349) 
nan

>  <Standard Value>  (349) 
nan

>  <Assay ChEMBL ID>  (349) 
nan

>  <Assay Description>  (349) 
nan

>  <BAO Label>  (349) 
nan

$$$$

     RDKit          2D

 27 31  0  0  0  0  0  0  0  0999 V2000
   -2.6401   -3.1891    0.0000 C   0  0  0  0  0  0  0  0  0  0  0  0
   -1.2135   -2.7256    0.0000 N   0  0  0  0  0  0  0  0  0  0  0  0
   -0.0000   -3.6073    0.0000 C   0  0  0  0  0  0  0  0  0  0  0  0
    1.2135   -2.7256    0.0000 C   0  0  0  0  0  0  0  0  0  0  0  0
    2.6401   -3.1891    0.0000 C   0  0  0  0  0  0  0  0  0  0  0  0
    3.8536   -2.3075    0.0000 C   0  0  0  0  0  0  0  0  0  0  0  0
    3.8536   -0.8075    0.0000 C   0  0  0  0  0  0  0  0  0  0  0  0
    2.6401    0.0742    0.0000 C   0  0  0  0  0  0  0  0  0  0  0  0
    3.1036    1.5008    0.0000 N   0  0  0  0  0  0  0  0  0  0  0  0
    2.2220    2.7143    0.0000 C   0  0  0  0  0  0  0  0  0  0  0  0
    4.6036    1.5008    0.0000 C   0  0  0  0  0  0  0  0  0  0  0  0
    5.6073    2.6155    0.0000 C   0  0  0  0  0  0  0  0  0  0  0  0
    7.0746    2.3036    0.0000 C   0  0  0  0  0  0  0  0  0  0  0  0
    7.5381    0.8771    0.0000 C   0  0  0  0  0  0  0  0  0  0  0  0
    6.5344   -0.2377    0.0000 C   0  0  0  0  0  0  0  0  0  0  0  0
    5.0672    0.0742    0.0000 C   0  0  0  0  0  0  0  0  0  0  0  0
    5.0672   -3.1891    0.0000 C   0  0  0  0  0  0  0  0  0  0  0  0
    6.4937   -2.7256    0.0000 O   0  0  0  0  0  0  0  0  0  0  0  0
    4.6036   -4.6157    0.0000 N   0  0  0  0  0  0  0  0  0  0  0  0
    3.1036   -4.6157    0.0000 C   0  0  0  0  0  0  0  0  0  0  0  0
    2.2220   -5.8293    0.0000 O   0  0  0  0  0  0  0  0  0  0  0  0
    0.7500   -1.2990    0.0000 C   0  0  0  0  0  0  0  0  0  0  0  0
    1.5000    0.0000    0.0000 C   0  0  0  0  0  0  0  0  0  0  0  0
    0.7500    1.2990    0.0000 C   0  0  0  0  0  0  0  0  0  0  0  0
   -0.7500    1.2990    0.0000 C   0  0  0  0  0  0  0  0  0  0  0  0
   -1.5000    0.0000    0.0000 C   0  0  0  0  0  0  0  0  0  0  0  0
   -0.7500   -1.2990    0.0000 C   0  0  0  0  0  0  0  0  0  0  0  0
  1  2  1  0
  2  3  1  0
  3  4  2  0
  4  5  1  0
  5  6  2  0
  6  7  1  0
  7  8  2  0
  8  9  1  0
  9 10  1  0
  9 11  1  0
 11 12  2  0
 12 13  1  0
 13 14  2  0
 14 15  1  0
 15 16  2  0
  6 17  1  0
 17 18  2  0
 17 19  1  0
 19 20  1  0
 20 21  2  0
  4 22  1  0
 22 23  2  0
 23 24  1  0
 24 25  2  0
 25 26  1  0
 26 27  2  0
 27  2  1  0
 20  5  1  0
 27 22  1  0
 16  7  1  0
 16 11  1  0
M  END
>  <Compound_ID>  (350) 
CHEMBL301515

>  <Active>  (350) 
1.0

>  <Smiles>  (350) 
Cn1cc(C2=C(c3cn(C)c4ccccc34)C(=O)NC2=O)c2ccccc21

>  <canonical_smi>  (350) 
Cn1cc(C2=C(c3cn(C)c4ccccc34)C(=O)NC2=O)c2ccccc21

>  <Set>  (350) 
G2 active

>  <Set_type>  (350) 
Train

>  <MW>  (350) 
355.4

>  <HBD>  (350) 
1

>  <HBA>  (350) 
2

>  <NRB>  (350) 
2

>  <NR>  (350) 
5

>  <NAR>  (350) 
4

>  <PSA>  (350) 
56.03

>  <Standard Type>  (350) 
nan

>  <Standard Relation>  (350) 
nan

>  <Standard Units>  (350) 
nan

>  <Standard Value>  (350) 
nan

>  <Assay ChEMBL ID>  (350) 
nan

>  <Assay Description>  (350) 
nan

>  <BAO Label>  (350) 
nan

$$$$

     RDKit          2D

 31 34  0  0  0  0  0  0  0  0999 V2000
   -2.9520   -4.6564    0.0000 C   0  0  0  0  0  0  0  0  0  0  0  0
   -2.6401   -3.1891    0.0000 C   0  0  0  0  0  0  0  0  0  0  0  0
   -1.2135   -2.7256    0.0000 C   0  0  0  0  0  0  0  0  0  0  0  0
   -0.0000   -3.6073    0.0000 N   0  0  0  0  0  0  0  0  0  0  0  0
    1.2135   -2.7256    0.0000 N   0  0  0  0  0  0  0  0  0  0  0  0
    2.6401   -3.1891    0.0000 C   0  0  0  0  0  0  0  0  0  0  0  0
    2.9520   -4.6564    0.0000 C   0  0  0  0  0  0  0  0  0  0  0  0
    1.8373   -5.6601    0.0000 Cl  0  0  0  0  0  0  0  0  0  0  0  0
    4.3786   -5.1199    0.0000 C   0  0  0  0  0  0  0  0  0  0  0  0
    5.4933   -4.1162    0.0000 C   0  0  0  0  0  0  0  0  0  0  0  0
    6.9199   -4.5797    0.0000 Cl  0  0  0  0  0  0  0  0  0  0  0  0
    5.1814   -2.6490    0.0000 C   0  0  0  0  0  0  0  0  0  0  0  0
    3.7548   -2.1855    0.0000 C   0  0  0  0  0  0  0  0  0  0  0  0
    3.4430   -0.7182    0.0000 Cl  0  0  0  0  0  0  0  0  0  0  0  0
    0.7500   -1.2990    0.0000 C   0  0  0  0  0  0  0  0  0  0  0  0
    1.5000    0.0000    0.0000 N   0  0  0  0  0  0  0  0  0  0  0  0
    0.7500    1.2990    0.0000 C   0  0  0  0  0  0  0  0  0  0  0  0
    1.5000    2.5981    0.0000 C   0  0  0  0  0  0  0  0  0  0  0  0
    3.0000    2.5981    0.0000 C   0  0  0  0  0  0  0  0  0  0  0  0
    3.7500    3.8971    0.0000 C   0  0  0  0  0  0  0  0  0  0  0  0
    3.0000    5.1962    0.0000 C   0  0  0  0  0  0  0  0  0  0  0  0
    3.7500    6.4952    0.0000 O   0  0  0  0  0  0  0  0  0  0  0  0
    5.2500    6.4952    0.0000 C   0  0  0  0  0  0  0  0  0  0  0  0
    1.5000    5.1962    0.0000 C   0  0  0  0  0  0  0  0  0  0  0  0
    0.7500    6.4952    0.0000 O   0  0  0  0  0  0  0  0  0  0  0  0
   -0.7500    6.4952    0.0000 C   0  0  0  0  0  0  0  0  0  0  0  0
    0.7500    3.8971    0.0000 C   0  0  0  0  0  0  0  0  0  0  0  0
   -0.7500    1.2990    0.0000 N   0  0  0  0  0  0  0  0  0  0  0  0
   -1.5000    0.0000    0.0000 C   0  0  0  0  0  0  0  0  0  0  0  0
   -3.0000    0.0000    0.0000 O   0  0  0  0  0  0  0  0  0  0  0  0
   -0.7500   -1.2990    0.0000 C   0  0  0  0  0  0  0  0  0  0  0  0
  1  2  1  0
  2  3  1  0
  3  4  2  0
  4  5  1  0
  5  6  1  0
  6  7  2  0
  7  8  1  0
  7  9  1  0
  9 10  2  0
 10 11  1  0
 10 12  1  0
 12 13  2  0
 13 14  1  0
  5 15  1  0
 15 16  2  0
 16 17  1  0
 17 18  1  0
 18 19  2  0
 19 20  1  0
 20 21  2  0
 21 22  1  0
 22 23  1  0
 21 24  1  0
 24 25  1  0
 25 26  1  0
 24 27  2  0
 17 28  2  0
 28 29  1  0
 29 30  1  0
 29 31  2  0
 31  3  1  0
 13  6  1  0
 31 15  1  0
 27 18  1  0
M  END
>  <Compound_ID>  (351) 
CHEMBL191519

>  <Active>  (351) 
1.0

>  <Smiles>  (351) 
CCc1nn(-c2c(Cl)cc(Cl)cc2Cl)c2nc(-c3ccc(OC)c(OC)c3)nc(O)c12

>  <canonical_smi>  (351) 
CCc1nn(-c2c(Cl)cc(Cl)cc2Cl)c2nc(-c3ccc(OC)c(OC)c3)nc(O)c12

>  <Set>  (351) 
G2 active

>  <Set_type>  (351) 
Train

>  <MW>  (351) 
479.75

>  <HBD>  (351) 
1

>  <HBA>  (351) 
6

>  <NRB>  (351) 
5

>  <NR>  (351) 
4

>  <NAR>  (351) 
4

>  <PSA>  (351) 
82.29

>  <Standard Type>  (351) 
nan

>  <Standard Relation>  (351) 
nan

>  <Standard Units>  (351) 
nan

>  <Standard Value>  (351) 
nan

>  <Assay ChEMBL ID>  (351) 
nan

>  <Assay Description>  (351) 
nan

>  <BAO Label>  (351) 
nan

$$$$

     RDKit          2D

 24 27  0  0  0  0  0  0  0  0999 V2000
    3.0000    0.0000    0.0000 O   0  0  0  0  0  0  0  0  0  0  0  0
    1.5000    0.0000    0.0000 C   0  0  0  0  0  0  0  0  0  0  0  0
    0.7500   -1.2990    0.0000 C   0  0  0  0  0  0  0  0  0  0  0  0
   -0.7500   -1.2990    0.0000 C   0  0  0  0  0  0  0  0  0  0  0  0
   -1.5000    0.0000    0.0000 C   0  0  0  0  0  0  0  0  0  0  0  0
   -3.0000    0.0000    0.0000 C   0  0  0  0  0  0  0  0  0  0  0  0
   -3.8817   -1.2135    0.0000 N   0  0  0  0  0  0  0  0  0  0  0  0
   -5.3083   -0.7500    0.0000 N   0  0  0  0  0  0  0  0  0  0  0  0
   -5.3083    0.7500    0.0000 C   0  0  0  0  0  0  0  0  0  0  0  0
   -3.8817    1.2135    0.0000 C   0  0  0  0  0  0  0  0  0  0  0  0
   -3.4182    2.6401    0.0000 C   0  0  0  0  0  0  0  0  0  0  0  0
   -1.9509    2.9520    0.0000 C   0  0  0  0  0  0  0  0  0  0  0  0
   -1.4874    4.3786    0.0000 C   0  0  0  0  0  0  0  0  0  0  0  0
   -2.4911    5.4933    0.0000 N   0  0  0  0  0  0  0  0  0  0  0  0
   -3.9583    5.1814    0.0000 C   0  0  0  0  0  0  0  0  0  0  0  0
   -4.9620    6.2961    0.0000 N   0  0  0  0  0  0  0  0  0  0  0  0
   -4.4985    7.7227    0.0000 C   0  0  0  0  0  0  0  0  0  0  0  0
   -5.3802    8.9362    0.0000 C   0  0  0  0  0  0  0  0  0  0  0  0
   -4.4985   10.1498    0.0000 C   0  0  0  0  0  0  0  0  0  0  0  0
   -3.0719    9.6862    0.0000 C   0  0  0  0  0  0  0  0  0  0  0  0
   -3.0719    8.1862    0.0000 C   0  0  0  0  0  0  0  0  0  0  0  0
   -4.4218    3.7548    0.0000 N   0  0  0  0  0  0  0  0  0  0  0  0
   -0.7500    1.2990    0.0000 C   0  0  0  0  0  0  0  0  0  0  0  0
    0.7500    1.2990    0.0000 C   0  0  0  0  0  0  0  0  0  0  0  0
  1  2  1  0
  2  3  1  0
  3  4  1  0
  4  5  1  0
  5  6  1  0
  6  7  2  0
  7  8  1  0
  8  9  1  0
  9 10  2  0
 10 11  1  0
 11 12  2  0
 12 13  1  0
 13 14  2  0
 14 15  1  0
 15 16  1  0
 16 17  1  0
 17 18  1  0
 18 19  1  0
 19 20  1  0
 20 21  1  0
 15 22  2  0
  5 23  1  0
 23 24  1  0
 24  2  1  0
 10  6  1  0
 22 11  1  0
 21 17  1  0
M  END
>  <Compound_ID>  (352) 
CHEMBL507249

>  <Active>  (352) 
1.0

>  <Smiles>  (352) 
OC1CCC(c2n[nH]cc2-c2ccnc(NC3CCCC3)n2)CC1

>  <canonical_smi>  (352) 
OC1CCC(c2n[nH]cc2-c2ccnc(NC3CCCC3)n2)CC1

>  <Set>  (352) 
G2 active

>  <Set_type>  (352) 
Train

>  <MW>  (352) 
327.43

>  <HBD>  (352) 
3

>  <HBA>  (352) 
5

>  <NRB>  (352) 
4

>  <NR>  (352) 
4

>  <NAR>  (352) 
2

>  <PSA>  (352) 
86.72

>  <Standard Type>  (352) 
nan

>  <Standard Relation>  (352) 
nan

>  <Standard Units>  (352) 
nan

>  <Standard Value>  (352) 
nan

>  <Assay ChEMBL ID>  (352) 
nan

>  <Assay Description>  (352) 
nan

>  <BAO Label>  (352) 
nan

$$$$

     RDKit          2D

 32 35  0  0  0  0  0  0  0  0999 V2000
    3.5260    1.2990    0.0000 C   0  0  0  0  0  0  0  0  0  0  0  0
    2.7760    0.0000    0.0000 C   0  0  0  0  0  0  0  0  0  0  0  0
    3.5260   -1.2990    0.0000 C   0  0  0  0  0  0  0  0  0  0  0  0
    1.2760    0.0000    0.0000 N   0  0  0  0  0  0  0  0  0  0  0  0
    0.3943    1.2135    0.0000 C   0  0  0  0  0  0  0  0  0  0  0  0
   -1.0323    0.7500    0.0000 N   0  0  0  0  0  0  0  0  0  0  0  0
   -1.0323   -0.7500    0.0000 C   0  0  0  0  0  0  0  0  0  0  0  0
   -2.1470   -1.7537    0.0000 C   0  0  0  0  0  0  0  0  0  0  0  0
   -3.5736   -1.2902    0.0000 N   0  0  0  0  0  0  0  0  0  0  0  0
   -4.6883   -2.2939    0.0000 C   0  0  0  0  0  0  0  0  0  0  0  0
   -6.1149   -1.8303    0.0000 C   0  0  0  0  0  0  0  0  0  0  0  0
   -7.2296   -2.8340    0.0000 C   0  0  0  0  0  0  0  0  0  0  0  0
   -6.9177   -4.3013    0.0000 C   0  0  0  0  0  0  0  0  0  0  0  0
   -8.0325   -5.3050    0.0000 C   0  0  0  0  0  0  0  0  0  0  0  0
   -9.4590   -4.8414    0.0000 C   0  0  0  0  0  0  0  0  0  0  0  0
  -10.5738   -5.8451    0.0000 C   0  0  0  0  0  0  0  0  0  0  0  0
  -10.2619   -7.3123    0.0000 C   0  0  0  0  0  0  0  0  0  0  0  0
   -8.8353   -7.7759    0.0000 C   0  0  0  0  0  0  0  0  0  0  0  0
   -7.7206   -6.7722    0.0000 C   0  0  0  0  0  0  0  0  0  0  0  0
   -5.4912   -4.7648    0.0000 C   0  0  0  0  0  0  0  0  0  0  0  0
   -4.3764   -3.7611    0.0000 C   0  0  0  0  0  0  0  0  0  0  0  0
   -1.8351   -3.2209    0.0000 N   0  0  0  0  0  0  0  0  0  0  0  0
   -0.4086   -3.6844    0.0000 C   0  0  0  0  0  0  0  0  0  0  0  0
   -0.0967   -5.1517    0.0000 N   0  0  0  0  0  0  0  0  0  0  0  0
   -1.2114   -6.1554    0.0000 C   0  0  0  0  0  0  0  0  0  0  0  0
   -0.8995   -7.6226    0.0000 C   0  0  0  0  0  0  0  0  0  0  0  0
   -2.0143   -8.6263    0.0000 O   0  0  0  0  0  0  0  0  0  0  0  0
    1.3299   -5.6152    0.0000 C   0  0  0  0  0  0  0  0  0  0  0  0
    1.6418   -7.0824    0.0000 C   0  0  0  0  0  0  0  0  0  0  0  0
    3.0684   -7.5459    0.0000 O   0  0  0  0  0  0  0  0  0  0  0  0
    0.7062   -2.6807    0.0000 N   0  0  0  0  0  0  0  0  0  0  0  0
    0.3943   -1.2135    0.0000 C   0  0  0  0  0  0  0  0  0  0  0  0
  1  2  1  0
  2  3  1  0
  2  4  1  0
  4  5  1  0
  5  6  2  0
  6  7  1  0
  7  8  2  0
  8  9  1  0
  9 10  1  0
 10 11  2  0
 11 12  1  0
 12 13  2  0
 13 14  1  0
 14 15  2  0
 15 16  1  0
 16 17  2  0
 17 18  1  0
 18 19  2  0
 13 20  1  0
 20 21  2  0
  8 22  1  0
 22 23  2  0
 23 24  1  0
 24 25  1  0
 25 26  1  0
 26 27  1  0
 24 28  1  0
 28 29  1  0
 29 30  1  0
 23 31  1  0
 31 32  2  0
 32  4  1  0
 32  7  1  0
 21 10  1  0
 19 14  1  0
M  END
>  <Compound_ID>  (353) 
CHEMBL93892

>  <Active>  (353) 
1.0

>  <Smiles>  (353) 
CC(C)n1cnc2c(Nc3ccc(-c4ccccc4)cc3)nc(N(CCO)CCO)nc21

>  <canonical_smi>  (353) 
CC(C)n1cnc2c(Nc3ccc(-c4ccccc4)cc3)nc(N(CCO)CCO)nc21

>  <Set>  (353) 
G2 active

>  <Set_type>  (353) 
Train

>  <MW>  (353) 
432.53

>  <HBD>  (353) 
3

>  <HBA>  (353) 
7

>  <NRB>  (353) 
9

>  <NR>  (353) 
4

>  <NAR>  (353) 
4

>  <PSA>  (353) 
99.33

>  <Standard Type>  (353) 
nan

>  <Standard Relation>  (353) 
nan

>  <Standard Units>  (353) 
nan

>  <Standard Value>  (353) 
nan

>  <Assay ChEMBL ID>  (353) 
nan

>  <Assay Description>  (353) 
nan

>  <BAO Label>  (353) 
nan

$$$$

     RDKit          2D

 32 35  0  0  0  0  0  0  0  0999 V2000
    3.5260    1.2990    0.0000 C   0  0  0  0  0  0  0  0  0  0  0  0
    2.7760    0.0000    0.0000 C   0  0  0  0  0  0  0  0  0  0  0  0
    3.5260   -1.2990    0.0000 C   0  0  0  0  0  0  0  0  0  0  0  0
    1.2760    0.0000    0.0000 N   0  0  0  0  0  0  0  0  0  0  0  0
    0.3943    1.2135    0.0000 C   0  0  0  0  0  0  0  0  0  0  0  0
   -1.0323    0.7500    0.0000 N   0  0  0  0  0  0  0  0  0  0  0  0
   -1.0323   -0.7500    0.0000 C   0  0  0  0  0  0  0  0  0  0  0  0
   -2.1470   -1.7537    0.0000 C   0  0  0  0  0  0  0  0  0  0  0  0
   -3.5736   -1.2902    0.0000 N   0  0  0  0  0  0  0  0  0  0  0  0
   -4.6883   -2.2939    0.0000 C   0  0  0  0  0  0  0  0  0  0  0  0
   -6.1149   -1.8303    0.0000 C   0  0  0  0  0  0  0  0  0  0  0  0
   -6.4268   -0.3631    0.0000 C   0  0  0  0  0  0  0  0  0  0  0  0
   -7.8533    0.1004    0.0000 C   0  0  0  0  0  0  0  0  0  0  0  0
   -8.9681   -0.9033    0.0000 C   0  0  0  0  0  0  0  0  0  0  0  0
  -10.3946   -0.4398    0.0000 C   0  0  0  0  0  0  0  0  0  0  0  0
  -11.6082   -1.3214    0.0000 C   0  0  0  0  0  0  0  0  0  0  0  0
  -12.8217   -0.4398    0.0000 C   0  0  0  0  0  0  0  0  0  0  0  0
  -12.3582    0.9868    0.0000 C   0  0  0  0  0  0  0  0  0  0  0  0
  -10.8582    0.9868    0.0000 S   0  0  0  0  0  0  0  0  0  0  0  0
   -8.6562   -2.3705    0.0000 C   0  0  0  0  0  0  0  0  0  0  0  0
   -7.2296   -2.8340    0.0000 C   0  0  0  0  0  0  0  0  0  0  0  0
   -1.8351   -3.2209    0.0000 N   0  0  0  0  0  0  0  0  0  0  0  0
   -0.4086   -3.6844    0.0000 C   0  0  0  0  0  0  0  0  0  0  0  0
   -0.0967   -5.1517    0.0000 N   0  0  0  0  0  0  0  0  0  0  0  0
   -1.2114   -6.1554    0.0000 C   0  0  0  0  0  0  0  0  0  0  0  0
   -0.8995   -7.6226    0.0000 C   0  0  0  0  0  0  0  0  0  0  0  0
   -2.0143   -8.6263    0.0000 O   0  0  0  0  0  0  0  0  0  0  0  0
    1.3299   -5.6152    0.0000 C   0  0  0  0  0  0  0  0  0  0  0  0
    1.6418   -7.0824    0.0000 C   0  0  0  0  0  0  0  0  0  0  0  0
    3.0684   -7.5459    0.0000 O   0  0  0  0  0  0  0  0  0  0  0  0
    0.7062   -2.6807    0.0000 N   0  0  0  0  0  0  0  0  0  0  0  0
    0.3943   -1.2135    0.0000 C   0  0  0  0  0  0  0  0  0  0  0  0
  1  2  1  0
  2  3  1  0
  2  4  1  0
  4  5  1  0
  5  6  2  0
  6  7  1  0
  7  8  2  0
  8  9  1  0
  9 10  1  0
 10 11  1  0
 11 12  2  0
 12 13  1  0
 13 14  2  0
 14 15  1  0
 15 16  2  0
 16 17  1  0
 17 18  2  0
 18 19  1  0
 14 20  1  0
 20 21  2  0
  8 22  1  0
 22 23  2  0
 23 24  1  0
 24 25  1  0
 25 26  1  0
 26 27  1  0
 24 28  1  0
 28 29  1  0
 29 30  1  0
 23 31  1  0
 31 32  2  0
 32  4  1  0
 32  7  1  0
 21 11  1  0
 19 15  1  0
M  END
>  <Compound_ID>  (354) 
CHEMBL90941

>  <Active>  (354) 
1.0

>  <Smiles>  (354) 
CC(C)n1cnc2c(NCc3ccc(-c4cccs4)cc3)nc(N(CCO)CCO)nc21

>  <canonical_smi>  (354) 
CC(C)n1cnc2c(NCc3ccc(-c4cccs4)cc3)nc(N(CCO)CCO)nc21

>  <Set>  (354) 
G2 active

>  <Set_type>  (354) 
Train

>  <MW>  (354) 
452.58

>  <HBD>  (354) 
3

>  <HBA>  (354) 
7

>  <NRB>  (354) 
10

>  <NR>  (354) 
4

>  <NAR>  (354) 
4

>  <PSA>  (354) 
99.33

>  <Standard Type>  (354) 
nan

>  <Standard Relation>  (354) 
nan

>  <Standard Units>  (354) 
nan

>  <Standard Value>  (354) 
nan

>  <Assay ChEMBL ID>  (354) 
nan

>  <Assay Description>  (354) 
nan

>  <BAO Label>  (354) 
nan

$$$$

     RDKit          2D

 32 35  0  0  0  0  0  0  0  0999 V2000
    3.5260    1.2990    0.0000 C   0  0  0  0  0  0  0  0  0  0  0  0
    2.7760    0.0000    0.0000 C   0  0  0  0  0  0  0  0  0  0  0  0
    3.5260   -1.2990    0.0000 C   0  0  0  0  0  0  0  0  0  0  0  0
    1.2760    0.0000    0.0000 N   0  0  0  0  0  0  0  0  0  0  0  0
    0.3943    1.2135    0.0000 C   0  0  0  0  0  0  0  0  0  0  0  0
   -1.0323    0.7500    0.0000 N   0  0  0  0  0  0  0  0  0  0  0  0
   -1.0323   -0.7500    0.0000 C   0  0  0  0  0  0  0  0  0  0  0  0
   -2.1470   -1.7537    0.0000 C   0  0  0  0  0  0  0  0  0  0  0  0
   -3.5736   -1.2902    0.0000 N   0  0  0  0  0  0  0  0  0  0  0  0
   -4.6883   -2.2939    0.0000 C   0  0  0  0  0  0  0  0  0  0  0  0
   -6.1149   -1.8303    0.0000 C   0  0  0  0  0  0  0  0  0  0  0  0
   -6.4268   -0.3631    0.0000 C   0  0  0  0  0  0  0  0  0  0  0  0
   -7.8533    0.1004    0.0000 C   0  0  0  0  0  0  0  0  0  0  0  0
   -8.9681   -0.9033    0.0000 C   0  0  0  0  0  0  0  0  0  0  0  0
  -10.3946   -0.4398    0.0000 C   0  0  0  0  0  0  0  0  0  0  0  0
  -10.7065    1.0275    0.0000 C   0  0  0  0  0  0  0  0  0  0  0  0
  -12.1331    1.4910    0.0000 C   0  0  0  0  0  0  0  0  0  0  0  0
  -13.2478    0.4873    0.0000 C   0  0  0  0  0  0  0  0  0  0  0  0
  -12.9359   -0.9799    0.0000 C   0  0  0  0  0  0  0  0  0  0  0  0
  -11.5094   -1.4435    0.0000 C   0  0  0  0  0  0  0  0  0  0  0  0
   -8.6562   -2.3705    0.0000 C   0  0  0  0  0  0  0  0  0  0  0  0
   -7.2296   -2.8340    0.0000 C   0  0  0  0  0  0  0  0  0  0  0  0
   -1.8351   -3.2209    0.0000 N   0  0  0  0  0  0  0  0  0  0  0  0
   -0.4086   -3.6844    0.0000 C   0  0  0  0  0  0  0  0  0  0  0  0
   -0.0967   -5.1517    0.0000 N   0  0  0  0  0  0  0  0  0  0  0  0
   -1.2114   -6.1554    0.0000 C   0  0  0  0  0  0  0  0  0  0  0  0
   -0.8995   -7.6226    0.0000 C   0  0  0  0  0  0  0  0  0  0  0  0
    0.5271   -8.0861    0.0000 O   0  0  0  0  0  0  0  0  0  0  0  0
   -2.0143   -8.6263    0.0000 C   0  0  0  0  0  0  0  0  0  0  0  0
   -1.7024  -10.0935    0.0000 O   0  0  0  0  0  0  0  0  0  0  0  0
    0.7062   -2.6807    0.0000 N   0  0  0  0  0  0  0  0  0  0  0  0
    0.3943   -1.2135    0.0000 C   0  0  0  0  0  0  0  0  0  0  0  0
  1  2  1  0
  2  3  1  0
  2  4  1  0
  4  5  1  0
  5  6  2  0
  6  7  1  0
  7  8  2  0
  8  9  1  0
  9 10  1  0
 10 11  1  0
 11 12  2  0
 12 13  1  0
 13 14  2  0
 14 15  1  0
 15 16  2  0
 16 17  1  0
 17 18  2  0
 18 19  1  0
 19 20  2  0
 14 21  1  0
 21 22  2  0
  8 23  1  0
 23 24  2  0
 24 25  1  0
 25 26  1  0
 26 27  1  0
 27 28  1  0
 27 29  1  0
 29 30  1  0
 24 31  1  0
 31 32  2  0
 32  4  1  0
 32  7  1  0
 22 11  1  0
 20 15  1  0
M  END
>  <Compound_ID>  (355) 
CHEMBL92288

>  <Active>  (355) 
1.0

>  <Smiles>  (355) 
CC(C)n1cnc2c(NCc3ccc(-c4ccccc4)cc3)nc(NCC(O)CO)nc21

>  <canonical_smi>  (355) 
CC(C)n1cnc2c(NCc3ccc(-c4ccccc4)cc3)nc(NCC(O)CO)nc21

>  <Set>  (355) 
G2 active

>  <Set_type>  (355) 
Train

>  <MW>  (355) 
432.53

>  <HBD>  (355) 
4

>  <HBA>  (355) 
7

>  <NRB>  (355) 
9

>  <NR>  (355) 
4

>  <NAR>  (355) 
4

>  <PSA>  (355) 
108.12

>  <Standard Type>  (355) 
nan

>  <Standard Relation>  (355) 
nan

>  <Standard Units>  (355) 
nan

>  <Standard Value>  (355) 
nan

>  <Assay ChEMBL ID>  (355) 
nan

>  <Assay Description>  (355) 
nan

>  <BAO Label>  (355) 
nan

$$$$

     RDKit          2D

 26 28  0  0  0  0  0  0  0  0999 V2000
   -5.0490   -3.1471    0.0000 C   0  0  0  0  0  0  0  0  0  0  0  0
   -3.7500   -3.8971    0.0000 C   0  0  0  0  0  0  0  0  0  0  0  0
   -2.4510   -4.6471    0.0000 C   0  0  0  0  0  0  0  0  0  0  0  0
   -4.5000   -5.1962    0.0000 C   0  0  0  0  0  0  0  0  0  0  0  0
   -3.0000   -2.5981    0.0000 N   0  0  0  0  0  0  0  0  0  0  0  0
   -1.5000   -2.5981    0.0000 C   0  0  0  0  0  0  0  0  0  0  0  0
   -0.7500   -3.8971    0.0000 N   0  0  0  0  0  0  0  0  0  0  0  0
    0.7500   -3.8971    0.0000 C   0  0  0  0  0  0  0  0  0  0  0  0
    1.5000   -5.1962    0.0000 C   0  0  0  0  0  0  0  0  0  0  0  0
    2.2500   -6.4952    0.0000 F   0  0  0  0  0  0  0  0  0  0  0  0
    0.2010   -5.9462    0.0000 F   0  0  0  0  0  0  0  0  0  0  0  0
    2.7990   -4.4462    0.0000 F   0  0  0  0  0  0  0  0  0  0  0  0
    1.5000   -2.5981    0.0000 N   0  0  0  0  0  0  0  0  0  0  0  0
    0.7500   -1.2990    0.0000 C   0  0  0  0  0  0  0  0  0  0  0  0
    1.5000    0.0000    0.0000 C   0  0  0  0  0  0  0  0  0  0  0  0
    0.7500    1.2990    0.0000 C   0  0  0  0  0  0  0  0  0  0  0  0
   -0.7500    1.2990    0.0000 C   0  0  0  0  0  0  0  0  0  0  0  0
   -1.5000    2.5981    0.0000 C   0  0  0  0  0  0  0  0  0  0  0  0
   -0.7500    3.8971    0.0000 C   0  0  0  0  0  0  0  0  0  0  0  0
   -1.5000    5.1962    0.0000 C   0  0  0  0  0  0  0  0  0  0  0  0
   -3.0000    5.1962    0.0000 C   0  0  0  0  0  0  0  0  0  0  0  0
   -3.7500    3.8971    0.0000 C   0  0  0  0  0  0  0  0  0  0  0  0
   -5.2500    3.8971    0.0000 N   0  0  0  0  0  0  0  0  0  0  0  0
   -3.0000    2.5981    0.0000 C   0  0  0  0  0  0  0  0  0  0  0  0
   -1.5000    0.0000    0.0000 C   0  0  0  0  0  0  0  0  0  0  0  0
   -0.7500   -1.2990    0.0000 C   0  0  0  0  0  0  0  0  0  0  0  0
  1  2  1  0
  2  3  1  0
  2  4  1  0
  2  5  1  0
  5  6  1  0
  6  7  2  0
  7  8  1  0
  8  9  1  0
  9 10  1  0
  9 11  1  0
  9 12  1  0
  8 13  2  0
 13 14  1  0
 14 15  2  0
 15 16  1  0
 16 17  2  0
 17 18  1  0
 18 19  2  0
 19 20  1  0
 20 21  2  0
 21 22  1  0
 22 23  1  0
 22 24  2  0
 17 25  1  0
 25 26  2  0
 26  6  1  0
 26 14  1  0
 24 18  1  0
M  END
>  <Compound_ID>  (356) 
CHEMBL278894

>  <Active>  (356) 
1.0

>  <Smiles>  (356) 
CC(C)(C)Nc1nc(C(F)(F)F)nc2ccc(-c3cccc(N)c3)cc12

>  <canonical_smi>  (356) 
CC(C)(C)Nc1nc(C(F)(F)F)nc2ccc(-c3cccc(N)c3)cc12

>  <Set>  (356) 
G2 active

>  <Set_type>  (356) 
Train

>  <MW>  (356) 
360.38

>  <HBD>  (356) 
2

>  <HBA>  (356) 
4

>  <NRB>  (356) 
2

>  <NR>  (356) 
3

>  <NAR>  (356) 
3

>  <PSA>  (356) 
63.83

>  <Standard Type>  (356) 
nan

>  <Standard Relation>  (356) 
nan

>  <Standard Units>  (356) 
nan

>  <Standard Value>  (356) 
nan

>  <Assay ChEMBL ID>  (356) 
nan

>  <Assay Description>  (356) 
nan

>  <BAO Label>  (356) 
nan

$$$$

     RDKit          2D

 28 31  0  0  0  0  0  0  0  0999 V2000
   -1.8836    6.6179    0.0000 C   0  0  0  0  0  0  0  0  0  0  0  0
   -3.3102    6.1544    0.0000 C   0  0  0  0  0  0  0  0  0  0  0  0
   -3.6221    4.6871    0.0000 N   0  0  0  0  0  0  0  0  0  0  0  0
   -5.0487    4.2236    0.0000 C   0  0  0  0  0  0  0  0  0  0  0  0
   -6.1634    5.2273    0.0000 O   0  0  0  0  0  0  0  0  0  0  0  0
   -5.3605    2.7564    0.0000 N   0  0  0  0  0  0  0  0  0  0  0  0
   -4.2458    1.7527    0.0000 C   0  0  0  0  0  0  0  0  0  0  0  0
   -4.5577    0.2855    0.0000 C   0  0  0  0  0  0  0  0  0  0  0  0
   -5.9843   -0.1781    0.0000 C   0  0  0  0  0  0  0  0  0  0  0  0
   -6.2961   -1.6453    0.0000 N   0  0  0  0  0  0  0  0  0  0  0  0
   -5.1814   -2.6490    0.0000 C   0  0  0  0  0  0  0  0  0  0  0  0
   -5.4933   -4.1162    0.0000 N   0  0  0  0  0  0  0  0  0  0  0  0
   -4.3786   -5.1199    0.0000 C   0  0  0  0  0  0  0  0  0  0  0  0
   -2.9520   -4.6564    0.0000 C   0  0  0  0  0  0  0  0  0  0  0  0
   -1.8373   -5.6601    0.0000 Cl  0  0  0  0  0  0  0  0  0  0  0  0
   -2.6401   -3.1891    0.0000 C   0  0  0  0  0  0  0  0  0  0  0  0
   -1.2135   -2.7256    0.0000 C   0  0  0  0  0  0  0  0  0  0  0  0
   -0.0000   -3.6073    0.0000 C   0  0  0  0  0  0  0  0  0  0  0  0
    1.2135   -2.7256    0.0000 N   0  0  0  0  0  0  0  0  0  0  0  0
    0.7500   -1.2990    0.0000 C   0  0  0  0  0  0  0  0  0  0  0  0
    1.5000    0.0000    0.0000 C   0  0  0  0  0  0  0  0  0  0  0  0
    0.7500    1.2990    0.0000 C   0  0  0  0  0  0  0  0  0  0  0  0
   -0.7500    1.2990    0.0000 C   0  0  0  0  0  0  0  0  0  0  0  0
   -1.5000    0.0000    0.0000 C   0  0  0  0  0  0  0  0  0  0  0  0
   -0.7500   -1.2990    0.0000 N   0  0  0  0  0  0  0  0  0  0  0  0
   -3.7548   -2.1855    0.0000 N   0  0  0  0  0  0  0  0  0  0  0  0
   -7.0990    0.8256    0.0000 C   0  0  0  0  0  0  0  0  0  0  0  0
   -6.7871    2.2929    0.0000 C   0  0  0  0  0  0  0  0  0  0  0  0
  1  2  1  0
  2  3  1  0
  3  4  1  0
  4  5  2  0
  4  6  1  0
  6  7  1  0
  7  8  1  0
  8  9  1  0
  9 10  1  0
 10 11  1  0
 11 12  2  0
 12 13  1  0
 13 14  2  0
 14 15  1  0
 14 16  1  0
 16 17  1  0
 17 18  2  0
 18 19  1  0
 19 20  2  0
 20 21  1  0
 21 22  2  0
 22 23  1  0
 23 24  2  0
 24 25  1  0
 16 26  2  0
  9 27  1  0
 27 28  1  0
 28  6  1  0
 26 11  1  0
 25 17  1  0
 25 20  1  0
M  END
>  <Compound_ID>  (357) 
CHEMBL397531

>  <Active>  (357) 
1.0

>  <Smiles>  (357) 
CCNC(=O)N1CCC(Nc2ncc(Cl)c(-c3cnc4ccccn34)n2)CC1

>  <canonical_smi>  (357) 
CCNC(=O)N1CCC(Nc2ncc(Cl)c(-c3cnc4ccccn34)n2)CC1

>  <Set>  (357) 
G2 active

>  <Set_type>  (357) 
Train

>  <MW>  (357) 
399.89

>  <HBD>  (357) 
2

>  <HBA>  (357) 
5

>  <NRB>  (357) 
4

>  <NR>  (357) 
4

>  <NAR>  (357) 
3

>  <PSA>  (357) 
87.45

>  <Standard Type>  (357) 
nan

>  <Standard Relation>  (357) 
nan

>  <Standard Units>  (357) 
nan

>  <Standard Value>  (357) 
nan

>  <Assay ChEMBL ID>  (357) 
nan

>  <Assay Description>  (357) 
nan

>  <BAO Label>  (357) 
nan

$$$$

     RDKit          2D

 31 33  0  0  0  0  0  0  0  0999 V2000
   11.8306   -3.9579    0.0000 C   0  0  0  0  0  0  0  0  0  0  0  0
   10.4603   -4.5680    0.0000 C   0  0  0  0  0  0  0  0  0  0  0  0
   10.3035   -6.0598    0.0000 O   0  0  0  0  0  0  0  0  0  0  0  0
    9.2468   -3.6863    0.0000 N   0  0  0  0  0  0  0  0  0  0  0  0
    7.8765   -4.2964    0.0000 C   0  0  0  0  0  0  0  0  0  0  0  0
    6.5774   -3.5464    0.0000 N   0  0  0  0  0  0  0  0  0  0  0  0
    5.4627   -4.5501    0.0000 C   0  0  0  0  0  0  0  0  0  0  0  0
    3.9955   -4.2382    0.0000 C   0  0  0  0  0  0  0  0  0  0  0  0
    2.9918   -5.3529    0.0000 C   0  0  0  0  0  0  0  0  0  0  0  0
    3.3037   -6.8202    0.0000 N   0  0  0  0  0  0  0  0  0  0  0  0
    2.0046   -7.5702    0.0000 N   0  0  0  0  0  0  0  0  0  0  0  0
    0.8899   -6.5665    0.0000 C   0  0  0  0  0  0  0  0  0  0  0  0
   -0.5773   -6.8783    0.0000 S   0  0  0  0  0  0  0  0  0  0  0  0
   -1.0409   -8.3049    0.0000 C   0  0  0  0  0  0  0  0  0  0  0  0
   -2.5081   -8.6168    0.0000 C   0  0  0  0  0  0  0  0  0  0  0  0
   -3.5118   -7.5021    0.0000 O   0  0  0  0  0  0  0  0  0  0  0  0
   -2.9716  -10.0434    0.0000 N   0  0  0  0  0  0  0  0  0  0  0  0
   -4.4388  -10.3552    0.0000 N   0  0  0  0  0  0  0  0  0  0  0  0
    1.5000   -5.1962    0.0000 N   0  0  0  0  0  0  0  0  0  0  0  0
    0.7500   -3.8971    0.0000 N   0  0  0  0  0  0  0  0  0  0  0  0
    1.5000   -2.5981    0.0000 C   0  0  0  0  0  0  0  0  0  0  0  0
    3.0000   -2.5981    0.0000 O   0  0  0  0  0  0  0  0  0  0  0  0
    0.7500   -1.2990    0.0000 C   0  0  0  0  0  0  0  0  0  0  0  0
    1.5000    0.0000    0.0000 C   0  0  0  0  0  0  0  0  0  0  0  0
    0.7500    1.2990    0.0000 C   0  0  0  0  0  0  0  0  0  0  0  0
   -0.7500    1.2990    0.0000 C   0  0  0  0  0  0  0  0  0  0  0  0
   -1.5000    2.5981    0.0000 Cl  0  0  0  0  0  0  0  0  0  0  0  0
   -1.5000    0.0000    0.0000 C   0  0  0  0  0  0  0  0  0  0  0  0
   -0.7500   -1.2990    0.0000 C   0  0  0  0  0  0  0  0  0  0  0  0
    6.0728   -5.9204    0.0000 C   0  0  0  0  0  0  0  0  0  0  0  0
    7.5646   -5.7636    0.0000 S   0  0  0  0  0  0  0  0  0  0  0  0
  1  2  1  0
  2  3  2  0
  2  4  1  0
  4  5  1  0
  5  6  2  0
  6  7  1  0
  7  8  1  0
  8  9  1  0
  9 10  2  0
 10 11  1  0
 11 12  2  0
 12 13  1  0
 13 14  1  0
 14 15  1  0
 15 16  2  0
 15 17  1  0
 17 18  1  0
 12 19  1  0
 19 20  1  0
 20 21  1  0
 21 22  2  0
 21 23  1  0
 23 24  2  0
 24 25  1  0
 25 26  2  0
 26 27  1  0
 26 28  1  0
 28 29  2  0
  7 30  2  0
 30 31  1  0
 31  5  1  0
 19  9  1  0
 29 23  1  0
M  END
>  <Compound_ID>  (358) 
CHEMBL233491

>  <Active>  (358) 
1.0

>  <Smiles>  (358) 
CC(=O)Nc1nc(Cc2nnc(SCC(=O)NN)n2NC(=O)c2ccc(Cl)cc2)cs1

>  <canonical_smi>  (358) 
CC(=O)Nc1nc(Cc2nnc(SCC(=O)NN)n2NC(=O)c2ccc(Cl)cc2)cs1

>  <Set>  (358) 
G2 active

>  <Set_type>  (358) 
Train

>  <MW>  (358) 
480.96

>  <HBD>  (358) 
4

>  <HBA>  (358) 
8

>  <NRB>  (358) 
8

>  <NR>  (358) 
3

>  <NAR>  (358) 
3

>  <PSA>  (358) 
156.92

>  <Standard Type>  (358) 
nan

>  <Standard Relation>  (358) 
nan

>  <Standard Units>  (358) 
nan

>  <Standard Value>  (358) 
nan

>  <Assay ChEMBL ID>  (358) 
nan

>  <Assay Description>  (358) 
nan

>  <BAO Label>  (358) 
nan

$$$$

     RDKit          2D

 22 24  0  0  0  0  0  0  0  0999 V2000
    3.0000    0.0000    0.0000 C   0  0  0  0  0  0  0  0  0  0  0  0
    1.5000    0.0000    0.0000 C   0  0  0  0  0  0  0  0  0  0  0  0
    0.7500   -1.2990    0.0000 C   0  0  0  0  0  0  0  0  0  0  0  0
   -0.7500   -1.2990    0.0000 C   0  0  0  0  0  0  0  0  0  0  0  0
   -1.5000   -2.5981    0.0000 N   0  0  0  0  0  0  0  0  0  0  0  0
   -1.5000    0.0000    0.0000 C   0  0  0  0  0  0  0  0  0  0  0  0
   -3.0000    0.0000    0.0000 O   0  0  0  0  0  0  0  0  0  0  0  0
   -3.7500    1.2990    0.0000 C   0  0  0  0  0  0  0  0  0  0  0  0
   -5.2500    1.2990    0.0000 C   0  0  0  0  0  0  0  0  0  0  0  0
   -6.0000    2.5981    0.0000 C   0  0  0  0  0  0  0  0  0  0  0  0
   -7.5000    2.5981    0.0000 C   0  0  0  0  0  0  0  0  0  0  0  0
   -8.2500    1.2990    0.0000 C   0  0  0  0  0  0  0  0  0  0  0  0
   -9.7500    1.2990    0.0000 O   0  0  0  0  0  0  0  0  0  0  0  0
   -7.5000    0.0000    0.0000 C   0  0  0  0  0  0  0  0  0  0  0  0
   -8.2500   -1.2990    0.0000 O   0  0  0  0  0  0  0  0  0  0  0  0
   -6.0000    0.0000    0.0000 C   0  0  0  0  0  0  0  0  0  0  0  0
   -3.0000    2.5981    0.0000 C   0  0  0  0  0  0  0  0  0  0  0  0
   -3.7500    3.8971    0.0000 O   0  0  0  0  0  0  0  0  0  0  0  0
   -1.5000    2.5981    0.0000 C   0  0  0  0  0  0  0  0  0  0  0  0
   -0.7500    3.8971    0.0000 O   0  0  0  0  0  0  0  0  0  0  0  0
   -0.7500    1.2990    0.0000 C   0  0  0  0  0  0  0  0  0  0  0  0
    0.7500    1.2990    0.0000 C   0  0  0  0  0  0  0  0  0  0  0  0
  1  2  1  0
  2  3  2  0
  3  4  1  0
  4  5  1  0
  4  6  2  0
  6  7  1  0
  7  8  1  0
  8  9  1  0
  9 10  2  0
 10 11  1  0
 11 12  2  0
 12 13  1  0
 12 14  1  0
 14 15  1  0
 14 16  2  0
  8 17  2  0
 17 18  1  0
 17 19  1  0
 19 20  2  0
 19 21  1  0
 21 22  2  0
 22  2  1  0
 21  6  1  0
 16  9  1  0
M  END
>  <Compound_ID>  (359) 
CHEMBL232123

>  <Active>  (359) 
1.0

>  <Smiles>  (359) 
Cc1cc(N)c2oc(-c3ccc(O)c(O)c3)c(O)c(=O)c2c1

>  <canonical_smi>  (359) 
Cc1cc(N)c2oc(-c3ccc(O)c(O)c3)c(O)c(=O)c2c1

>  <Set>  (359) 
G2 active

>  <Set_type>  (359) 
Train

>  <MW>  (359) 
299.28

>  <HBD>  (359) 
4

>  <HBA>  (359) 
6

>  <NRB>  (359) 
1

>  <NR>  (359) 
3

>  <NAR>  (359) 
3

>  <PSA>  (359) 
116.92

>  <Standard Type>  (359) 
nan

>  <Standard Relation>  (359) 
nan

>  <Standard Units>  (359) 
nan

>  <Standard Value>  (359) 
nan

>  <Assay ChEMBL ID>  (359) 
nan

>  <Assay Description>  (359) 
nan

>  <BAO Label>  (359) 
nan

$$$$

     RDKit          2D

 20 23  0  0  0  0  0  0  0  0999 V2000
   -1.8373   -5.6601    0.0000 O   0  0  0  0  0  0  0  0  0  0  0  0
   -2.9520   -4.6564    0.0000 C   0  0  0  0  0  0  0  0  0  0  0  0
   -2.6401   -3.1891    0.0000 N   0  0  0  0  0  0  0  0  0  0  0  0
   -1.2135   -2.7256    0.0000 C   0  0  0  0  0  0  0  0  0  0  0  0
   -0.0000   -3.6073    0.0000 N   0  0  0  0  0  0  0  0  0  0  0  0
    1.2135   -2.7256    0.0000 N   0  0  0  0  0  0  0  0  0  0  0  0
    0.7500   -1.2990    0.0000 C   0  0  0  0  0  0  0  0  0  0  0  0
    1.5000    0.0000    0.0000 C   0  0  0  0  0  0  0  0  0  0  0  0
    0.7500    1.2990    0.0000 C   0  0  0  0  0  0  0  0  0  0  0  0
    1.5000    2.5981    0.0000 C   0  0  0  0  0  0  0  0  0  0  0  0
    0.8899    3.9684    0.0000 C   0  0  0  0  0  0  0  0  0  0  0  0
    2.0046    4.9721    0.0000 C   0  0  0  0  0  0  0  0  0  0  0  0
    3.3037    4.2221    0.0000 C   0  0  0  0  0  0  0  0  0  0  0  0
    2.9918    2.7549    0.0000 O   0  0  0  0  0  0  0  0  0  0  0  0
   -0.7500    1.2990    0.0000 C   0  0  0  0  0  0  0  0  0  0  0  0
   -1.5000    0.0000    0.0000 C   0  0  0  0  0  0  0  0  0  0  0  0
   -0.7500   -1.2990    0.0000 C   0  0  0  0  0  0  0  0  0  0  0  0
   -4.3786   -5.1199    0.0000 C   0  0  0  0  0  0  0  0  0  0  0  0
   -5.3823   -6.2346    0.0000 C   0  0  0  0  0  0  0  0  0  0  0  0
   -5.8458   -4.8080    0.0000 C   0  0  0  0  0  0  0  0  0  0  0  0
  1  2  2  0
  2  3  1  0
  3  4  1  0
  4  5  2  0
  5  6  1  0
  6  7  1  0
  7  8  2  0
  8  9  1  0
  9 10  1  0
 10 11  2  0
 11 12  1  0
 12 13  2  0
 13 14  1  0
  9 15  2  0
 15 16  1  0
 16 17  2  0
  2 18  1  0
 18 19  1  0
 19 20  1  0
 17  4  1  0
 20 18  1  0
 17  7  1  0
 14 10  1  0
M  END
>  <Compound_ID>  (360) 
CHEMBL421207

>  <Active>  (360) 
1.0

>  <Smiles>  (360) 
O=C(Nc1n[nH]c2cc(-c3ccco3)ccc12)C1CC1

>  <canonical_smi>  (360) 
O=C(Nc1n[nH]c2cc(-c3ccco3)ccc12)C1CC1

>  <Set>  (360) 
G2 active

>  <Set_type>  (360) 
Train

>  <MW>  (360) 
267.29

>  <HBD>  (360) 
2

>  <HBA>  (360) 
3

>  <NRB>  (360) 
3

>  <NR>  (360) 
4

>  <NAR>  (360) 
3

>  <PSA>  (360) 
70.92

>  <Standard Type>  (360) 
nan

>  <Standard Relation>  (360) 
nan

>  <Standard Units>  (360) 
nan

>  <Standard Value>  (360) 
nan

>  <Assay ChEMBL ID>  (360) 
nan

>  <Assay Description>  (360) 
nan

>  <BAO Label>  (360) 
nan

$$$$

     RDKit          2D

 21 24  0  0  0  0  0  0  0  0999 V2000
    3.3287    1.8373    0.0000 O   0  0  0  0  0  0  0  0  0  0  0  0
    2.3250    2.9520    0.0000 C   0  0  0  0  0  0  0  0  0  0  0  0
    0.8578    2.6401    0.0000 N   0  0  0  0  0  0  0  0  0  0  0  0
    0.3943    1.2135    0.0000 C   0  0  0  0  0  0  0  0  0  0  0  0
    1.2760    0.0000    0.0000 N   0  0  0  0  0  0  0  0  0  0  0  0
    0.3943   -1.2135    0.0000 N   0  0  0  0  0  0  0  0  0  0  0  0
   -1.0323   -0.7500    0.0000 C   0  0  0  0  0  0  0  0  0  0  0  0
   -2.3313   -1.5000    0.0000 N   0  0  0  0  0  0  0  0  0  0  0  0
   -3.6304   -0.7500    0.0000 C   0  0  0  0  0  0  0  0  0  0  0  0
   -4.9294   -1.5000    0.0000 C   0  0  0  0  0  0  0  0  0  0  0  0
   -5.0862   -2.9918    0.0000 C   0  0  0  0  0  0  0  0  0  0  0  0
   -6.5534   -3.3037    0.0000 C   0  0  0  0  0  0  0  0  0  0  0  0
   -7.3034   -2.0046    0.0000 C   0  0  0  0  0  0  0  0  0  0  0  0
   -6.2997   -0.8899    0.0000 S   0  0  0  0  0  0  0  0  0  0  0  0
   -3.6304    0.7500    0.0000 C   0  0  0  0  0  0  0  0  0  0  0  0
   -4.9294    1.5000    0.0000 Br  0  0  0  0  0  0  0  0  0  0  0  0
   -2.3313    1.5000    0.0000 C   0  0  0  0  0  0  0  0  0  0  0  0
   -1.0323    0.7500    0.0000 C   0  0  0  0  0  0  0  0  0  0  0  0
    2.7886    4.3786    0.0000 C   0  0  0  0  0  0  0  0  0  0  0  0
    2.4767    5.8458    0.0000 C   0  0  0  0  0  0  0  0  0  0  0  0
    3.9033    5.3823    0.0000 C   0  0  0  0  0  0  0  0  0  0  0  0
  1  2  2  0
  2  3  1  0
  3  4  1  0
  4  5  2  0
  5  6  1  0
  6  7  1  0
  7  8  2  0
  8  9  1  0
  9 10  1  0
 10 11  2  0
 11 12  1  0
 12 13  2  0
 13 14  1  0
  9 15  2  0
 15 16  1  0
 15 17  1  0
 17 18  2  0
  2 19  1  0
 19 20  1  0
 20 21  1  0
 18  4  1  0
 21 19  1  0
 18  7  1  0
 14 10  1  0
M  END
>  <Compound_ID>  (361) 
CHEMBL260231

>  <Active>  (361) 
1.0

>  <Smiles>  (361) 
O=C(Nc1n[nH]c2nc(-c3cccs3)c(Br)cc12)C1CC1

>  <canonical_smi>  (361) 
O=C(Nc1n[nH]c2nc(-c3cccs3)c(Br)cc12)C1CC1

>  <Set>  (361) 
G2 active

>  <Set_type>  (361) 
Train

>  <MW>  (361) 
363.24

>  <HBD>  (361) 
2

>  <HBA>  (361) 
3

>  <NRB>  (361) 
3

>  <NR>  (361) 
4

>  <NAR>  (361) 
3

>  <PSA>  (361) 
70.67

>  <Standard Type>  (361) 
nan

>  <Standard Relation>  (361) 
nan

>  <Standard Units>  (361) 
nan

>  <Standard Value>  (361) 
nan

>  <Assay ChEMBL ID>  (361) 
nan

>  <Assay Description>  (361) 
nan

>  <BAO Label>  (361) 
nan

$$$$

     RDKit          2D

 28 31  0  0  0  0  0  0  0  0999 V2000
    3.0000    0.0000    0.0000 C   0  0  0  0  0  0  0  0  0  0  0  0
    1.5000    0.0000    0.0000 C   0  0  0  0  0  0  0  0  0  0  0  0
    0.7500   -1.2990    0.0000 C   0  0  0  0  0  0  0  0  0  0  0  0
   -0.7500   -1.2990    0.0000 C   0  0  0  0  0  0  0  0  0  0  0  0
   -1.5000   -2.5981    0.0000 N   0  0  0  0  0  0  0  0  0  0  0  0
   -3.0000   -2.5981    0.0000 C   0  0  0  0  0  0  0  0  0  0  0  0
   -3.7500   -3.8971    0.0000 C   0  0  0  0  0  0  0  0  0  0  0  0
   -3.0000   -5.1962    0.0000 N   0  0  0  0  0  0  0  0  0  0  0  0
   -3.7500   -6.4952    0.0000 C   0  0  0  0  0  0  0  0  0  0  0  0
   -1.5000   -5.1962    0.0000 C   0  0  0  0  0  0  0  0  0  0  0  0
   -0.7500   -3.8971    0.0000 C   0  0  0  0  0  0  0  0  0  0  0  0
   -1.5000    0.0000    0.0000 C   0  0  0  0  0  0  0  0  0  0  0  0
   -3.0000    0.0000    0.0000 O   0  0  0  0  0  0  0  0  0  0  0  0
   -3.7500    1.2990    0.0000 C   0  0  0  0  0  0  0  0  0  0  0  0
   -5.2500    1.2990    0.0000 C   0  0  0  0  0  0  0  0  0  0  0  0
   -6.0000    2.5981    0.0000 C   0  0  0  0  0  0  0  0  0  0  0  0
   -7.5000    2.5981    0.0000 C   0  0  0  0  0  0  0  0  0  0  0  0
   -8.2500    1.2990    0.0000 C   0  0  0  0  0  0  0  0  0  0  0  0
   -9.7500    1.2990    0.0000 O   0  0  0  0  0  0  0  0  0  0  0  0
   -7.5000    0.0000    0.0000 C   0  0  0  0  0  0  0  0  0  0  0  0
   -8.2500   -1.2990    0.0000 O   0  0  0  0  0  0  0  0  0  0  0  0
   -6.0000    0.0000    0.0000 C   0  0  0  0  0  0  0  0  0  0  0  0
   -3.0000    2.5981    0.0000 C   0  0  0  0  0  0  0  0  0  0  0  0
   -3.7500    3.8971    0.0000 O   0  0  0  0  0  0  0  0  0  0  0  0
   -1.5000    2.5981    0.0000 C   0  0  0  0  0  0  0  0  0  0  0  0
   -0.7500    3.8971    0.0000 O   0  0  0  0  0  0  0  0  0  0  0  0
   -0.7500    1.2990    0.0000 C   0  0  0  0  0  0  0  0  0  0  0  0
    0.7500    1.2990    0.0000 C   0  0  0  0  0  0  0  0  0  0  0  0
  1  2  1  0
  2  3  2  0
  3  4  1  0
  4  5  1  0
  5  6  1  0
  6  7  1  0
  7  8  1  0
  8  9  1  0
  8 10  1  0
 10 11  1  0
  4 12  2  0
 12 13  1  0
 13 14  1  0
 14 15  1  0
 15 16  2  0
 16 17  1  0
 17 18  2  0
 18 19  1  0
 18 20  1  0
 20 21  1  0
 20 22  2  0
 14 23  2  0
 23 24  1  0
 23 25  1  0
 25 26  2  0
 25 27  1  0
 27 28  2  0
 28  2  1  0
 11  5  1  0
 27 12  1  0
 22 15  1  0
M  END
>  <Compound_ID>  (362) 
CHEMBL232737

>  <Active>  (362) 
1.0

>  <Smiles>  (362) 
Cc1cc(N2CCN(C)CC2)c2oc(-c3ccc(O)c(O)c3)c(O)c(=O)c2c1

>  <canonical_smi>  (362) 
Cc1cc(N2CCN(C)CC2)c2oc(-c3ccc(O)c(O)c3)c(O)c(=O)c2c1

>  <Set>  (362) 
G2 active

>  <Set_type>  (362) 
Train

>  <MW>  (362) 
382.42

>  <HBD>  (362) 
3

>  <HBA>  (362) 
7

>  <NRB>  (362) 
2

>  <NR>  (362) 
4

>  <NAR>  (362) 
3

>  <PSA>  (362) 
97.38

>  <Standard Type>  (362) 
nan

>  <Standard Relation>  (362) 
nan

>  <Standard Units>  (362) 
nan

>  <Standard Value>  (362) 
nan

>  <Assay ChEMBL ID>  (362) 
nan

>  <Assay Description>  (362) 
nan

>  <BAO Label>  (362) 
nan

$$$$

     RDKit          2D

 35 39  0  0  0  0  0  0  0  0999 V2000
    3.3802    9.0132    0.0000 C   0  0  0  0  0  0  0  0  0  0  0  0
    3.0684    7.5459    0.0000 C   0  0  0  0  0  0  0  0  0  0  0  0
    4.1831    6.5422    0.0000 C   0  0  0  0  0  0  0  0  0  0  0  0
    3.8712    5.0750    0.0000 N   0  0  0  0  0  0  0  0  0  0  0  0
    2.4446    4.6115    0.0000 C   0  0  0  0  0  0  0  0  0  0  0  0
    2.1328    3.1443    0.0000 N   0  0  0  0  0  0  0  0  0  0  0  0
    0.7062    2.6807    0.0000 C   0  0  0  0  0  0  0  0  0  0  0  0
   -0.4086    3.6844    0.0000 C   0  0  0  0  0  0  0  0  0  0  0  0
   -1.8351    3.2209    0.0000 C   0  0  0  0  0  0  0  0  0  0  0  0
   -2.1470    1.7537    0.0000 C   0  0  0  0  0  0  0  0  0  0  0  0
   -1.0323    0.7500    0.0000 C   0  0  0  0  0  0  0  0  0  0  0  0
    0.3943    1.2135    0.0000 C   0  0  0  0  0  0  0  0  0  0  0  0
    1.2760    0.0000    0.0000 C   0  0  0  0  0  0  0  0  0  0  0  0
    0.3943   -1.2135    0.0000 C   0  0  0  0  0  0  0  0  0  0  0  0
   -1.0323   -0.7500    0.0000 C   0  0  0  0  0  0  0  0  0  0  0  0
    1.3299    5.6152    0.0000 N   0  0  0  0  0  0  0  0  0  0  0  0
    1.6418    7.0824    0.0000 C   0  0  0  0  0  0  0  0  0  0  0  0
    0.5271    8.0861    0.0000 C   0  0  0  0  0  0  0  0  0  0  0  0
   -0.9402    7.7742    0.0000 C   0  0  0  0  0  0  0  0  0  0  0  0
   -1.6902    9.0733    0.0000 N   0  0  0  0  0  0  0  0  0  0  0  0
   -0.6865   10.1880    0.0000 C   0  0  0  0  0  0  0  0  0  0  0  0
   -0.9983   11.6552    0.0000 C   0  0  0  0  0  0  0  0  0  0  0  0
   -2.4249   12.1187    0.0000 O   0  0  0  0  0  0  0  0  0  0  0  0
    0.1164   12.6589    0.0000 N   0  0  0  0  0  0  0  0  0  0  0  0
   -0.1955   14.1261    0.0000 C   0  0  0  0  0  0  0  0  0  0  0  0
   -1.6221   14.5897    0.0000 C   0  0  0  0  0  0  0  0  0  0  0  0
   -1.9339   16.0569    0.0000 O   0  0  0  0  0  0  0  0  0  0  0  0
    0.9192   15.1298    0.0000 C   0  0  0  0  0  0  0  0  0  0  0  0
    2.3458   14.6663    0.0000 C   0  0  0  0  0  0  0  0  0  0  0  0
    3.4605   15.6700    0.0000 C   0  0  0  0  0  0  0  0  0  0  0  0
    3.1487   17.1372    0.0000 C   0  0  0  0  0  0  0  0  0  0  0  0
    1.7221   17.6007    0.0000 C   0  0  0  0  0  0  0  0  0  0  0  0
    1.4102   19.0680    0.0000 Cl  0  0  0  0  0  0  0  0  0  0  0  0
    0.6074   16.5971    0.0000 C   0  0  0  0  0  0  0  0  0  0  0  0
    0.6838    9.5779    0.0000 C   0  0  0  0  0  0  0  0  0  0  0  0
  1  2  1  0
  2  3  2  0
  3  4  1  0
  4  5  2  0
  5  6  1  0
  6  7  1  0
  7  8  2  0
  8  9  1  0
  9 10  2  0
 10 11  1  0
 11 12  2  0
 12 13  1  0
 13 14  1  0
 14 15  1  0
  5 16  1  0
 16 17  2  0
 17 18  1  0
 18 19  2  0
 19 20  1  0
 20 21  1  0
 21 22  1  0
 22 23  2  0
 22 24  1  0
 24 25  1  0
 25 26  1  6
 26 27  1  0
 25 28  1  0
 28 29  2  0
 29 30  1  0
 30 31  2  0
 31 32  1  0
 32 33  1  0
 32 34  2  0
 21 35  2  0
 17  2  1  0
 35 18  1  0
 12  7  1  0
 34 28  1  0
 15 11  1  0
M  END
>  <Compound_ID>  (363) 
CHEMBL568937

>  <Active>  (363) 
1.0

>  <Smiles>  (363) 
Cc1cnc(Nc2cccc3c2CCC3)nc1-c1c[nH]c(C(=O)N[C@H](CO)c2cccc(Cl)c2)c1

>  <canonical_smi>  (363) 
Cc1cnc(Nc2cccc3c2CCC3)nc1-c1c[nH]c(C(=O)N[C@H](CO)c2cccc(Cl)c2)c1

>  <Set>  (363) 
G2 active

>  <Set_type>  (363) 
Train

>  <MW>  (363) 
487.99

>  <HBD>  (363) 
4

>  <HBA>  (363) 
5

>  <NRB>  (363) 
7

>  <NR>  (363) 
5

>  <NAR>  (363) 
4

>  <PSA>  (363) 
102.93

>  <Standard Type>  (363) 
nan

>  <Standard Relation>  (363) 
nan

>  <Standard Units>  (363) 
nan

>  <Standard Value>  (363) 
nan

>  <Assay ChEMBL ID>  (363) 
nan

>  <Assay Description>  (363) 
nan

>  <BAO Label>  (363) 
nan

$$$$

     RDKit          2D

 22 25  0  0  0  0  0  0  0  0999 V2000
   -4.3764    3.7611    0.0000 O   0  0  0  0  0  0  0  0  0  0  0  0
   -4.6883    2.2939    0.0000 C   0  0  0  0  0  0  0  0  0  0  0  0
   -6.1149    1.8303    0.0000 N   0  0  0  0  0  0  0  0  0  0  0  0
   -7.2296    2.8340    0.0000 C   0  0  0  0  0  0  0  0  0  0  0  0
   -8.6968    2.5222    0.0000 N   0  0  0  0  0  0  0  0  0  0  0  0
   -9.4468    3.8212    0.0000 C   0  0  0  0  0  0  0  0  0  0  0  0
   -8.4431    4.9359    0.0000 C   0  0  0  0  0  0  0  0  0  0  0  0
   -8.7550    6.4031    0.0000 C   0  0  0  0  0  0  0  0  0  0  0  0
   -7.9380    7.6612    0.0000 C   0  0  0  0  0  0  0  0  0  0  0  0
   -9.1960    8.4781    0.0000 C   0  0  0  0  0  0  0  0  0  0  0  0
  -10.0130    7.2201    0.0000 C   0  0  0  0  0  0  0  0  0  0  0  0
   -7.0728    4.3258    0.0000 S   0  0  0  0  0  0  0  0  0  0  0  0
   -3.5736    1.2902    0.0000 N   0  0  0  0  0  0  0  0  0  0  0  0
   -2.1470    1.7537    0.0000 C   0  0  0  0  0  0  0  0  0  0  0  0
   -1.8351    3.2209    0.0000 C   0  0  0  0  0  0  0  0  0  0  0  0
   -0.4086    3.6844    0.0000 C   0  0  0  0  0  0  0  0  0  0  0  0
    0.7062    2.6807    0.0000 C   0  0  0  0  0  0  0  0  0  0  0  0
    0.3943    1.2135    0.0000 C   0  0  0  0  0  0  0  0  0  0  0  0
    1.2760    0.0000    0.0000 C   0  0  0  0  0  0  0  0  0  0  0  0
    0.3943   -1.2135    0.0000 N   0  0  0  0  0  0  0  0  0  0  0  0
   -1.0323   -0.7500    0.0000 N   0  0  0  0  0  0  0  0  0  0  0  0
   -1.0323    0.7500    0.0000 C   0  0  0  0  0  0  0  0  0  0  0  0
  1  2  2  0
  2  3  1  0
  3  4  1  0
  4  5  2  0
  5  6  1  0
  6  7  2  0
  7  8  1  0
  8  9  1  0
  9 10  1  0
 10 11  1  0
  7 12  1  0
  2 13  1  0
 13 14  1  0
 14 15  2  0
 15 16  1  0
 16 17  2  0
 17 18  1  0
 18 19  2  0
 19 20  1  0
 20 21  1  0
 21 22  2  0
 12  4  1  0
 22 14  1  0
 11  8  1  0
 22 18  1  0
M  END
>  <Compound_ID>  (364) 
CHEMBL363283

>  <Active>  (364) 
1.0

>  <Smiles>  (364) 
O=C(Nc1ncc(C2CCC2)s1)Nc1cccc2c[nH]nc12

>  <canonical_smi>  (364) 
O=C(Nc1ncc(C2CCC2)s1)Nc1cccc2c[nH]nc12

>  <Set>  (364) 
G2 active

>  <Set_type>  (364) 
Train

>  <MW>  (364) 
313.39

>  <HBD>  (364) 
3

>  <HBA>  (364) 
3

>  <NRB>  (364) 
3

>  <NR>  (364) 
4

>  <NAR>  (364) 
3

>  <PSA>  (364) 
82.7

>  <Standard Type>  (364) 
nan

>  <Standard Relation>  (364) 
nan

>  <Standard Units>  (364) 
nan

>  <Standard Value>  (364) 
nan

>  <Assay ChEMBL ID>  (364) 
nan

>  <Assay Description>  (364) 
nan

>  <BAO Label>  (364) 
nan

$$$$

     RDKit          2D

 31 37  0  0  0  0  0  0  0  0999 V2000
    4.3240   -7.6191    0.0000 C   0  0  0  0  0  0  0  0  0  0  0  0
    2.8974   -8.0826    0.0000 N   0  0  0  0  0  0  0  0  0  0  0  0
    2.4339   -9.5092    0.0000 C   0  0  0  0  0  0  0  0  0  0  0  0
    0.9339   -9.5092    0.0000 C   0  0  0  0  0  0  0  0  0  0  0  0
    0.4704   -8.0826    0.0000 C   0  0  0  0  0  0  0  0  0  0  0  0
   -0.8999   -7.4725    0.0000 C   0  0  0  0  0  0  0  0  0  0  0  0
   -1.0567   -5.9808    0.0000 C   0  0  0  0  0  0  0  0  0  0  0  0
    0.1568   -5.0991    0.0000 C   0  0  0  0  0  0  0  0  0  0  0  0
    1.5271   -5.7092    0.0000 C   0  0  0  0  0  0  0  0  0  0  0  0
    2.7406   -4.8275    0.0000 C   0  0  0  0  0  0  0  0  0  0  0  0
    2.5838   -3.3357    0.0000 C   0  0  0  0  0  0  0  0  0  0  0  0
    1.2135   -2.7256    0.0000 C   0  0  0  0  0  0  0  0  0  0  0  0
    0.7500   -1.2990    0.0000 C   0  0  0  0  0  0  0  0  0  0  0  0
    1.5000    0.0000    0.0000 C   0  0  0  0  0  0  0  0  0  0  0  0
    0.7500    1.2990    0.0000 C   0  0  0  0  0  0  0  0  0  0  0  0
   -0.7500    1.2990    0.0000 C   0  0  0  0  0  0  0  0  0  0  0  0
   -1.5000    0.0000    0.0000 C   0  0  0  0  0  0  0  0  0  0  0  0
   -0.7500   -1.2990    0.0000 C   0  0  0  0  0  0  0  0  0  0  0  0
   -1.2135   -2.7256    0.0000 N   0  0  0  0  0  0  0  0  0  0  0  0
    0.0000   -3.6073    0.0000 C   0  0  0  0  0  0  0  0  0  0  0  0
   -2.7202   -2.7406    0.0000 C   0  0  0  0  0  0  0  0  0  0  0  0
   -3.6019   -1.5271    0.0000 C   0  0  0  0  0  0  0  0  0  0  0  0
   -5.0937   -1.6839    0.0000 C   0  0  0  0  0  0  0  0  0  0  0  0
   -5.9753   -0.4704    0.0000 O   0  0  0  0  0  0  0  0  0  0  0  0
   -2.9918   -0.1568    0.0000 C   0  0  0  0  0  0  0  0  0  0  0  0
    3.9542   -2.7256    0.0000 C   0  0  0  0  0  0  0  0  0  0  0  0
    4.2660   -1.2584    0.0000 O   0  0  0  0  0  0  0  0  0  0  0  0
    4.9579   -3.8403    0.0000 N   0  0  0  0  0  0  0  0  0  0  0  0
    4.2079   -5.1394    0.0000 C   0  0  0  0  0  0  0  0  0  0  0  0
    4.8180   -6.5097    0.0000 O   0  0  0  0  0  0  0  0  0  0  0  0
    1.6839   -7.2010    0.0000 C   0  0  0  0  0  0  0  0  0  0  0  0
  1  2  1  0
  2  3  1  0
  3  4  2  0
  4  5  1  0
  5  6  2  0
  6  7  1  0
  7  8  2  0
  8  9  1  0
  9 10  1  0
 10 11  2  0
 11 12  1  0
 12 13  1  0
 13 14  2  0
 14 15  1  0
 15 16  2  0
 16 17  1  0
 17 18  2  0
 18 19  1  0
 19 20  1  0
 19 21  1  0
 21 22  1  0
 22 23  1  0
 23 24  1  0
 22 25  1  0
 11 26  1  0
 26 27  2  0
 26 28  1  0
 28 29  1  0
 29 30  2  0
  9 31  2  0
 31  2  1  0
 31  5  1  0
 20  8  1  0
 29 10  1  0
 20 12  2  0
 18 13  1  0
 25 17  1  0
M  END
>  <Compound_ID>  (365) 
CHEMBL104526

>  <Active>  (365) 
1.0

>  <Smiles>  (365) 
Cn1ccc2ccc3c(c4c(c5c6cccc7c6n(c35)CC(CO)C7)C(=O)NC4=O)c21

>  <canonical_smi>  (365) 
Cn1ccc2ccc3c(c4c(c5c6cccc7c6n(c35)CC(CO)C7)C(=O)NC4=O)c21

>  <Set>  (365) 
G2 active

>  <Set_type>  (365) 
Train

>  <MW>  (365) 
409.45

>  <HBD>  (365) 
2

>  <HBA>  (365) 
3

>  <NRB>  (365) 
1

>  <NR>  (365) 
7

>  <NAR>  (365) 
5

>  <PSA>  (365) 
76.26

>  <Standard Type>  (365) 
nan

>  <Standard Relation>  (365) 
nan

>  <Standard Units>  (365) 
nan

>  <Standard Value>  (365) 
nan

>  <Assay ChEMBL ID>  (365) 
nan

>  <Assay Description>  (365) 
nan

>  <BAO Label>  (365) 
nan

$$$$

     RDKit          2D

 24 27  0  0  0  0  0  0  0  0999 V2000
   -4.3764    3.7611    0.0000 O   0  0  0  0  0  0  0  0  0  0  0  0
   -2.9499    4.2246    0.0000 C   0  0  0  0  0  0  0  0  0  0  0  0
   -2.6380    5.6918    0.0000 C   0  0  0  0  0  0  0  0  0  0  0  0
   -1.2114    6.1554    0.0000 C   0  0  0  0  0  0  0  0  0  0  0  0
   -0.8995    7.6226    0.0000 C   0  0  0  0  0  0  0  0  0  0  0  0
   -2.0143    8.6263    0.0000 C   0  0  0  0  0  0  0  0  0  0  0  0
   -3.4408    8.1628    0.0000 C   0  0  0  0  0  0  0  0  0  0  0  0
   -3.7527    6.6955    0.0000 C   0  0  0  0  0  0  0  0  0  0  0  0
   -1.8351    3.2209    0.0000 C   0  0  0  0  0  0  0  0  0  0  0  0
   -0.4086    3.6844    0.0000 C   0  0  0  0  0  0  0  0  0  0  0  0
    0.7062    2.6807    0.0000 N   0  0  0  0  0  0  0  0  0  0  0  0
    0.3943    1.2135    0.0000 C   0  0  0  0  0  0  0  0  0  0  0  0
    1.2760    0.0000    0.0000 N   0  0  0  0  0  0  0  0  0  0  0  0
    0.3943   -1.2135    0.0000 N   0  0  0  0  0  0  0  0  0  0  0  0
   -1.0323   -0.7500    0.0000 C   0  0  0  0  0  0  0  0  0  0  0  0
   -1.0323    0.7500    0.0000 C   0  0  0  0  0  0  0  0  0  0  0  0
   -2.1470    1.7537    0.0000 C   0  0  0  0  0  0  0  0  0  0  0  0
   -3.5736    1.2902    0.0000 O   0  0  0  0  0  0  0  0  0  0  0  0
   -3.8855   -0.1771    0.0000 C   0  0  0  0  0  0  0  0  0  0  0  0
   -2.7707   -1.1807    0.0000 C   0  0  0  0  0  0  0  0  0  0  0  0
   -3.0826   -2.6480    0.0000 C   0  0  0  0  0  0  0  0  0  0  0  0
   -4.5092   -3.1115    0.0000 C   0  0  0  0  0  0  0  0  0  0  0  0
   -5.6239   -2.1078    0.0000 C   0  0  0  0  0  0  0  0  0  0  0  0
   -5.3120   -0.6406    0.0000 C   0  0  0  0  0  0  0  0  0  0  0  0
  1  2  2  0
  2  3  1  0
  3  4  2  0
  4  5  1  0
  5  6  2  0
  6  7  1  0
  7  8  2  0
  2  9  1  0
  9 10  2  0
 10 11  1  0
 11 12  1  0
 12 13  2  0
 13 14  1  0
 14 15  2  0
 15 16  1  0
 16 17  2  0
 17 18  1  0
 18 19  1  0
 19 20  1  0
 20 21  1  0
 21 22  1  0
 22 23  1  0
 23 24  1  0
  8  3  1  0
 17  9  1  0
 24 19  1  0
 16 12  1  0
M  END
>  <Compound_ID>  (366) 
CHEMBL279590

>  <Active>  (366) 
1.0

>  <Smiles>  (366) 
O=C(c1ccccc1)c1c[nH]c2nncc-2c1OC1CCCCC1

>  <canonical_smi>  (366) 
O=C(c1ccccc1)c1c[nH]c2nncc-2c1OC1CCCCC1

>  <Set>  (366) 
G2 active

>  <Set_type>  (366) 
Train

>  <MW>  (366) 
321.38

>  <HBD>  (366) 
1

>  <HBA>  (366) 
4

>  <NRB>  (366) 
4

>  <NR>  (366) 
4

>  <NAR>  (366) 
3

>  <PSA>  (366) 
67.87

>  <Standard Type>  (366) 
nan

>  <Standard Relation>  (366) 
nan

>  <Standard Units>  (366) 
nan

>  <Standard Value>  (366) 
nan

>  <Assay ChEMBL ID>  (366) 
nan

>  <Assay Description>  (366) 
nan

>  <BAO Label>  (366) 
nan

$$$$

     RDKit          2D

 22 24  0  0  0  0  0  0  0  0999 V2000
  -10.0849   -6.9740    0.0000 N   0  0  0  0  0  0  0  0  0  0  0  0
   -8.6583   -6.5105    0.0000 S   0  0  0  0  0  0  0  0  0  0  0  0
   -9.1218   -5.0839    0.0000 O   0  0  0  0  0  0  0  0  0  0  0  0
   -8.1948   -7.9371    0.0000 O   0  0  0  0  0  0  0  0  0  0  0  0
   -7.2317   -6.0469    0.0000 C   0  0  0  0  0  0  0  0  0  0  0  0
   -6.9199   -4.5797    0.0000 C   0  0  0  0  0  0  0  0  0  0  0  0
   -5.4933   -4.1162    0.0000 C   0  0  0  0  0  0  0  0  0  0  0  0
   -4.3786   -5.1199    0.0000 C   0  0  0  0  0  0  0  0  0  0  0  0
   -2.9520   -4.6564    0.0000 N   0  0  0  0  0  0  0  0  0  0  0  0
   -2.6401   -3.1891    0.0000 C   0  0  0  0  0  0  0  0  0  0  0  0
   -3.7548   -2.1855    0.0000 O   0  0  0  0  0  0  0  0  0  0  0  0
   -1.2135   -2.7256    0.0000 C   0  0  0  0  0  0  0  0  0  0  0  0
   -0.0000   -3.6073    0.0000 N   0  0  0  0  0  0  0  0  0  0  0  0
    1.2135   -2.7256    0.0000 N   0  0  0  0  0  0  0  0  0  0  0  0
    0.7500   -1.2990    0.0000 C   0  0  0  0  0  0  0  0  0  0  0  0
    1.5000    0.0000    0.0000 C   0  0  0  0  0  0  0  0  0  0  0  0
    0.7500    1.2990    0.0000 C   0  0  0  0  0  0  0  0  0  0  0  0
   -0.7500    1.2990    0.0000 C   0  0  0  0  0  0  0  0  0  0  0  0
   -1.5000    0.0000    0.0000 C   0  0  0  0  0  0  0  0  0  0  0  0
   -0.7500   -1.2990    0.0000 C   0  0  0  0  0  0  0  0  0  0  0  0
   -4.6904   -6.5871    0.0000 C   0  0  0  0  0  0  0  0  0  0  0  0
   -6.1170   -7.0506    0.0000 C   0  0  0  0  0  0  0  0  0  0  0  0
  1  2  1  0
  2  3  2  0
  2  4  2  0
  2  5  1  0
  5  6  2  0
  6  7  1  0
  7  8  2  0
  8  9  1  0
  9 10  1  0
 10 11  2  0
 10 12  1  0
 12 13  2  0
 13 14  1  0
 14 15  1  0
 15 16  2  0
 16 17  1  0
 17 18  2  0
 18 19  1  0
 19 20  2  0
  8 21  1  0
 21 22  2  0
 22  5  1  0
 20 12  1  0
 20 15  1  0
M  END
>  <Compound_ID>  (367) 
CHEMBL455946

>  <Active>  (367) 
1.0

>  <Smiles>  (367) 
NS(=O)(=O)c1ccc(NC(=O)c2n[nH]c3ccccc23)cc1

>  <canonical_smi>  (367) 
NS(=O)(=O)c1ccc(NC(=O)c2n[nH]c3ccccc23)cc1

>  <Set>  (367) 
G2 active

>  <Set_type>  (367) 
Train

>  <MW>  (367) 
316.34

>  <HBD>  (367) 
3

>  <HBA>  (367) 
4

>  <NRB>  (367) 
3

>  <NR>  (367) 
3

>  <NAR>  (367) 
3

>  <PSA>  (367) 
117.94

>  <Standard Type>  (367) 
nan

>  <Standard Relation>  (367) 
nan

>  <Standard Units>  (367) 
nan

>  <Standard Value>  (367) 
nan

>  <Assay ChEMBL ID>  (367) 
nan

>  <Assay Description>  (367) 
nan

>  <BAO Label>  (367) 
nan

$$$$

     RDKit          2D

 28 31  0  0  0  0  0  0  0  0999 V2000
   -0.7500   -6.4952    0.0000 C   0  0  0  0  0  0  0  0  0  0  0  0
   -1.5000   -5.1962    0.0000 O   0  0  0  0  0  0  0  0  0  0  0  0
   -0.7500   -3.8971    0.0000 C   0  0  0  0  0  0  0  0  0  0  0  0
    0.7500   -3.8971    0.0000 C   0  0  0  0  0  0  0  0  0  0  0  0
    1.5000   -2.5981    0.0000 C   0  0  0  0  0  0  0  0  0  0  0  0
    0.7500   -1.2990    0.0000 C   0  0  0  0  0  0  0  0  0  0  0  0
    1.5000    0.0000    0.0000 C   0  0  0  0  0  0  0  0  0  0  0  0
    0.7500    1.2990    0.0000 N   0  0  0  0  0  0  0  0  0  0  0  0
   -0.7500    1.2990    0.0000 C   0  0  0  0  0  0  0  0  0  0  0  0
   -1.5000    2.5981    0.0000 N   0  0  0  0  0  0  0  0  0  0  0  0
   -0.7500    3.8971    0.0000 C   0  0  0  0  0  0  0  0  0  0  0  0
    0.7500    3.8971    0.0000 C   0  0  0  0  0  0  0  0  0  0  0  0
    1.5000    5.1962    0.0000 C   0  0  0  0  0  0  0  0  0  0  0  0
    0.7500    6.4952    0.0000 C   0  0  0  0  0  0  0  0  0  0  0  0
    1.5000    7.7942    0.0000 N   0  0  0  0  0  0  0  0  0  0  0  0
    3.0000    7.7942    0.0000 C   0  0  0  0  0  0  0  0  0  0  0  0
    3.7500    9.0933    0.0000 C   0  0  0  0  0  0  0  0  0  0  0  0
    3.0000   10.3923    0.0000 O   0  0  0  0  0  0  0  0  0  0  0  0
    1.5000   10.3923    0.0000 C   0  0  0  0  0  0  0  0  0  0  0  0
    0.7500    9.0933    0.0000 C   0  0  0  0  0  0  0  0  0  0  0  0
   -0.7500    6.4952    0.0000 C   0  0  0  0  0  0  0  0  0  0  0  0
   -1.5000    5.1962    0.0000 C   0  0  0  0  0  0  0  0  0  0  0  0
   -1.5000    0.0000    0.0000 N   0  0  0  0  0  0  0  0  0  0  0  0
   -0.7500   -1.2990    0.0000 C   0  0  0  0  0  0  0  0  0  0  0  0
   -1.5000   -2.5981    0.0000 C   0  0  0  0  0  0  0  0  0  0  0  0
   -3.0000   -2.5981    0.0000 C   0  0  0  0  0  0  0  0  0  0  0  0
   -3.7500   -3.8971    0.0000 C   0  0  0  0  0  0  0  0  0  0  0  0
   -3.7500   -1.2990    0.0000 C   0  0  0  0  0  0  0  0  0  0  0  0
  1  2  1  0
  2  3  1  0
  3  4  2  0
  4  5  1  0
  5  6  2  0
  6  7  1  0
  7  8  2  0
  8  9  1  0
  9 10  1  0
 10 11  1  0
 11 12  2  0
 12 13  1  0
 13 14  2  0
 14 15  1  0
 15 16  1  0
 16 17  1  0
 17 18  1  0
 18 19  1  0
 19 20  1  0
 14 21  1  0
 21 22  2  0
  9 23  2  0
 23 24  1  0
 24 25  2  0
 25 26  1  0
 26 27  1  0
 26 28  1  0
 25  3  1  0
 24  6  1  0
 22 11  1  0
 20 15  1  0
M  END
>  <Compound_ID>  (368) 
CHEMBL182011

>  <Active>  (368) 
1.0

>  <Smiles>  (368) 
COc1ccc2cnc(Nc3ccc(N4CCOCC4)cc3)nc2c1C(C)C

>  <canonical_smi>  (368) 
COc1ccc2cnc(Nc3ccc(N4CCOCC4)cc3)nc2c1C(C)C

>  <Set>  (368) 
G2 active

>  <Set_type>  (368) 
Train

>  <MW>  (368) 
378.48

>  <HBD>  (368) 
1

>  <HBA>  (368) 
6

>  <NRB>  (368) 
5

>  <NR>  (368) 
4

>  <NAR>  (368) 
3

>  <PSA>  (368) 
59.51

>  <Standard Type>  (368) 
nan

>  <Standard Relation>  (368) 
nan

>  <Standard Units>  (368) 
nan

>  <Standard Value>  (368) 
nan

>  <Assay ChEMBL ID>  (368) 
nan

>  <Assay Description>  (368) 
nan

>  <BAO Label>  (368) 
nan

$$$$

     RDKit          2D

 38 42  0  0  0  0  0  0  0  0999 V2000
   -5.1962  -11.1073    0.0000 O   0  0  0  0  0  0  0  0  0  0  0  0
   -6.4952  -10.3573    0.0000 C   0  0  0  0  0  0  0  0  0  0  0  0
   -6.4952   -8.8573    0.0000 N   0  0  0  0  0  0  0  0  0  0  0  0
   -5.1962   -8.1073    0.0000 S   0  0  0  0  0  0  0  0  0  0  0  0
   -5.9462   -6.8083    0.0000 O   0  0  0  0  0  0  0  0  0  0  0  0
   -4.4462   -9.4063    0.0000 O   0  0  0  0  0  0  0  0  0  0  0  0
   -3.8971   -7.3573    0.0000 C   0  0  0  0  0  0  0  0  0  0  0  0
   -2.5981   -8.1073    0.0000 C   0  0  0  0  0  0  0  0  0  0  0  0
   -1.2990   -7.3573    0.0000 C   0  0  0  0  0  0  0  0  0  0  0  0
   -1.2990   -5.8573    0.0000 C   0  0  0  0  0  0  0  0  0  0  0  0
   -0.0000   -5.1073    0.0000 N   0  0  0  0  0  0  0  0  0  0  0  0
   -0.0000   -3.6073    0.0000 C   0  0  0  0  0  0  0  0  0  0  0  0
    1.2135   -2.7256    0.0000 C   0  0  0  0  0  0  0  0  0  0  0  0
    0.7500   -1.2990    0.0000 N   0  0  0  0  0  0  0  0  0  0  0  0
    1.5000    0.0000    0.0000 C   0  0  0  0  0  0  0  0  0  0  0  0
    0.7500    1.2990    0.0000 C   0  0  0  0  0  0  0  0  0  0  0  0
    1.5000    2.5981    0.0000 C   0  0  0  0  0  0  0  0  0  0  0  0
    0.7500    3.8971    0.0000 O   0  0  0  0  0  0  0  0  0  0  0  0
    3.0000    2.5981    0.0000 C   0  0  0  0  0  0  0  0  0  0  0  0
    3.7500    1.2990    0.0000 C   0  0  0  0  0  0  0  0  0  0  0  0
    3.0000   -0.0000    0.0000 Cl  0  0  0  0  0  0  0  0  0  0  0  0
    5.2500    1.2990    0.0000 C   0  0  0  0  0  0  0  0  0  0  0  0
    6.0000    2.5981    0.0000 C   0  0  0  0  0  0  0  0  0  0  0  0
    5.2500    3.8971    0.0000 C   0  0  0  0  0  0  0  0  0  0  0  0
    3.7500    3.8971    0.0000 C   0  0  0  0  0  0  0  0  0  0  0  0
    3.0000    5.1962    0.0000 Cl  0  0  0  0  0  0  0  0  0  0  0  0
   -0.7500    1.2990    0.0000 C   0  0  0  0  0  0  0  0  0  0  0  0
   -1.5000    0.0000    0.0000 C   0  0  0  0  0  0  0  0  0  0  0  0
   -0.7500   -1.2990    0.0000 C   0  0  0  0  0  0  0  0  0  0  0  0
   -1.2135   -2.7256    0.0000 N   0  0  0  0  0  0  0  0  0  0  0  0
   -2.5981   -5.1073    0.0000 C   0  0  0  0  0  0  0  0  0  0  0  0
   -3.8971   -5.8573    0.0000 C   0  0  0  0  0  0  0  0  0  0  0  0
   -7.7942  -11.1073    0.0000 C   0  0  0  0  0  0  0  0  0  0  0  0
   -9.0933  -10.3573    0.0000 C   0  0  0  0  0  0  0  0  0  0  0  0
  -10.3923  -11.1073    0.0000 C   0  0  0  0  0  0  0  0  0  0  0  0
  -10.3923  -12.6073    0.0000 C   0  0  0  0  0  0  0  0  0  0  0  0
   -9.0933  -13.3573    0.0000 C   0  0  0  0  0  0  0  0  0  0  0  0
   -7.7942  -12.6073    0.0000 C   0  0  0  0  0  0  0  0  0  0  0  0
  1  2  2  0
  2  3  1  0
  3  4  1  0
  4  5  2  0
  4  6  2  0
  4  7  1  0
  7  8  2  0
  8  9  1  0
  9 10  2  0
 10 11  1  0
 11 12  1  0
 12 13  2  0
 13 14  1  0
 14 15  1  0
 15 16  2  0
 16 17  1  0
 17 18  2  0
 17 19  1  0
 19 20  2  0
 20 21  1  0
 20 22  1  0
 22 23  2  0
 23 24  1  0
 24 25  2  0
 25 26  1  0
 16 27  1  0
 27 28  2  0
 28 29  1  0
 29 30  2  0
 10 31  1  0
 31 32  2  0
  2 33  1  0
 33 34  2  0
 34 35  1  0
 35 36  2  0
 36 37  1  0
 37 38  2  0
 32  7  1  0
 38 33  1  0
 30 12  1  0
 29 14  1  0
 25 19  1  0
M  END
>  <Compound_ID>  (369) 
CHEMBL180903

>  <Active>  (369) 
1.0

>  <Smiles>  (369) 
O=C(NS(=O)(=O)c1ccc(Nc2cn3cc(C(=O)c4c(Cl)cccc4Cl)ccc3n2)cc1)c1ccccc1

>  <canonical_smi>  (369) 
O=C(NS(=O)(=O)c1ccc(Nc2cn3cc(C(=O)c4c(Cl)cccc4Cl)ccc3n2)cc1)c1ccccc1

>  <Set>  (369) 
G2 active

>  <Set_type>  (369) 
Train

>  <MW>  (369) 
565.44

>  <HBD>  (369) 
2

>  <HBA>  (369) 
6

>  <NRB>  (369) 
7

>  <NR>  (369) 
5

>  <NAR>  (369) 
5

>  <PSA>  (369) 
109.64

>  <Standard Type>  (369) 
nan

>  <Standard Relation>  (369) 
nan

>  <Standard Units>  (369) 
nan

>  <Standard Value>  (369) 
nan

>  <Assay ChEMBL ID>  (369) 
nan

>  <Assay Description>  (369) 
nan

>  <BAO Label>  (369) 
nan

$$$$

     RDKit          2D

 23 26  0  0  0  0  0  0  0  0999 V2000
   -7.9018    3.2966    0.0000 Cl  0  0  0  0  0  0  0  0  0  0  0  0
   -6.7871    2.2929    0.0000 C   0  0  0  0  0  0  0  0  0  0  0  0
   -5.3605    2.7564    0.0000 C   0  0  0  0  0  0  0  0  0  0  0  0
   -4.2458    1.7527    0.0000 C   0  0  0  0  0  0  0  0  0  0  0  0
   -4.5577    0.2855    0.0000 C   0  0  0  0  0  0  0  0  0  0  0  0
   -5.9843   -0.1781    0.0000 C   0  0  0  0  0  0  0  0  0  0  0  0
   -6.2961   -1.6453    0.0000 N   0  0  0  0  0  0  0  0  0  0  0  0
   -5.1814   -2.6490    0.0000 C   0  0  0  0  0  0  0  0  0  0  0  0
   -5.4933   -4.1162    0.0000 N   0  0  0  0  0  0  0  0  0  0  0  0
   -4.3786   -5.1199    0.0000 C   0  0  0  0  0  0  0  0  0  0  0  0
   -2.9520   -4.6564    0.0000 C   0  0  0  0  0  0  0  0  0  0  0  0
   -2.6401   -3.1891    0.0000 C   0  0  0  0  0  0  0  0  0  0  0  0
   -1.2135   -2.7256    0.0000 N   0  0  0  0  0  0  0  0  0  0  0  0
   -0.0000   -3.6073    0.0000 C   0  0  0  0  0  0  0  0  0  0  0  0
    1.2135   -2.7256    0.0000 N   0  0  0  0  0  0  0  0  0  0  0  0
    0.7500   -1.2990    0.0000 C   0  0  0  0  0  0  0  0  0  0  0  0
    1.5000    0.0000    0.0000 C   0  0  0  0  0  0  0  0  0  0  0  0
    0.7500    1.2990    0.0000 C   0  0  0  0  0  0  0  0  0  0  0  0
   -0.7500    1.2990    0.0000 C   0  0  0  0  0  0  0  0  0  0  0  0
   -1.5000    0.0000    0.0000 C   0  0  0  0  0  0  0  0  0  0  0  0
   -0.7500   -1.2990    0.0000 C   0  0  0  0  0  0  0  0  0  0  0  0
   -3.7548   -2.1855    0.0000 N   0  0  0  0  0  0  0  0  0  0  0  0
   -7.0990    0.8256    0.0000 C   0  0  0  0  0  0  0  0  0  0  0  0
  1  2  1  0
  2  3  2  0
  3  4  1  0
  4  5  2  0
  5  6  1  0
  6  7  1  0
  7  8  1  0
  8  9  2  0
  9 10  1  0
 10 11  2  0
 11 12  1  0
 12 13  1  0
 13 14  1  0
 14 15  2  0
 15 16  1  0
 16 17  2  0
 17 18  1  0
 18 19  2  0
 19 20  1  0
 20 21  2  0
 12 22  2  0
  6 23  2  0
 23  2  1  0
 22  8  1  0
 21 13  1  0
 21 16  1  0
M  END
>  <Compound_ID>  (370) 
CHEMBL74680

>  <Active>  (370) 
1.0

>  <Smiles>  (370) 
Clc1cccc(Nc2nccc(-n3cnc4ccccc43)n2)c1

>  <canonical_smi>  (370) 
Clc1cccc(Nc2nccc(-n3cnc4ccccc43)n2)c1

>  <Set>  (370) 
G2 active

>  <Set_type>  (370) 
Train

>  <MW>  (370) 
321.77

>  <HBD>  (370) 
1

>  <HBA>  (370) 
4

>  <NRB>  (370) 
3

>  <NR>  (370) 
4

>  <NAR>  (370) 
4

>  <PSA>  (370) 
55.63

>  <Standard Type>  (370) 
nan

>  <Standard Relation>  (370) 
nan

>  <Standard Units>  (370) 
nan

>  <Standard Value>  (370) 
nan

>  <Assay ChEMBL ID>  (370) 
nan

>  <Assay Description>  (370) 
nan

>  <BAO Label>  (370) 
nan

$$$$

     RDKit          2D

 35 41  0  0  0  0  0  0  0  0999 V2000
   -8.7604   -0.0649    0.0000 C   0  0  0  0  0  0  0  0  0  0  0  0
   -8.4485   -1.5321    0.0000 N   0  0  0  0  0  0  0  0  0  0  0  0
   -9.4522   -2.6468    0.0000 C   0  0  0  0  0  0  0  0  0  0  0  0
   -8.7022   -3.9458    0.0000 C   0  0  0  0  0  0  0  0  0  0  0  0
   -7.2350   -3.6340    0.0000 C   0  0  0  0  0  0  0  0  0  0  0  0
   -6.0214   -4.5156    0.0000 C   0  0  0  0  0  0  0  0  0  0  0  0
   -4.6511   -3.9055    0.0000 C   0  0  0  0  0  0  0  0  0  0  0  0
   -4.4943   -2.4138    0.0000 C   0  0  0  0  0  0  0  0  0  0  0  0
   -3.1240   -1.8037    0.0000 C   0  0  0  0  0  0  0  0  0  0  0  0
   -1.7537   -2.4138    0.0000 N   0  0  0  0  0  0  0  0  0  0  0  0
   -0.7500   -1.2990    0.0000 C   0  0  0  0  0  0  0  0  0  0  0  0
    0.7500   -1.2990    0.0000 C   0  0  0  0  0  0  0  0  0  0  0  0
    1.5000   -2.5981    0.0000 C   0  0  0  0  0  0  0  0  0  0  0  0
    3.0000   -2.5981    0.0000 C   0  0  0  0  0  0  0  0  0  0  0  0
    3.7500   -3.8971    0.0000 N   0  0  0  0  0  0  0  0  0  0  0  0
    5.2418   -4.0539    0.0000 C   0  0  0  0  0  0  0  0  0  0  0  0
    5.5537   -5.5211    0.0000 C   0  0  0  0  0  0  0  0  0  0  0  0
    4.2546   -6.2711    0.0000 C   0  0  0  0  0  0  0  0  0  0  0  0
    3.1399   -5.2674    0.0000 C   0  0  0  0  0  0  0  0  0  0  0  0
    1.6727   -5.5793    0.0000 C   0  0  0  0  0  0  0  0  0  0  0  0
    1.2091   -7.0059    0.0000 O   0  0  0  0  0  0  0  0  0  0  0  0
    1.5000    0.0000    0.0000 C   0  0  0  0  0  0  0  0  0  0  0  0
    0.7500    1.2990    0.0000 C   0  0  0  0  0  0  0  0  0  0  0  0
   -0.7500    1.2990    0.0000 C   0  0  0  0  0  0  0  0  0  0  0  0
   -1.5000    0.0000    0.0000 C   0  0  0  0  0  0  0  0  0  0  0  0
   -2.9672   -0.3119    0.0000 C   0  0  0  0  0  0  0  0  0  0  0  0
   -4.1807    0.5698    0.0000 C   0  0  0  0  0  0  0  0  0  0  0  0
   -5.5511   -0.0403    0.0000 C   0  0  0  0  0  0  0  0  0  0  0  0
   -5.7079   -1.5321    0.0000 C   0  0  0  0  0  0  0  0  0  0  0  0
   -7.0782   -2.1422    0.0000 C   0  0  0  0  0  0  0  0  0  0  0  0
   -6.5548    1.0744    0.0000 C   0  0  0  0  0  0  0  0  0  0  0  0
   -8.0465    0.9176    0.0000 O   0  0  0  0  0  0  0  0  0  0  0  0
   -5.8048    2.3735    0.0000 N   0  0  0  0  0  0  0  0  0  0  0  0
   -4.3375    2.0616    0.0000 C   0  0  0  0  0  0  0  0  0  0  0  0
   -3.2228    3.0653    0.0000 O   0  0  0  0  0  0  0  0  0  0  0  0
  1  2  1  0
  2  3  1  0
  3  4  2  0
  4  5  1  0
  5  6  2  0
  6  7  1  0
  7  8  2  0
  8  9  1  0
  9 10  1  0
 10 11  1  0
 11 12  2  0
 12 13  1  0
 13 14  1  0
 14 15  1  0
 15 16  1  0
 16 17  1  0
 17 18  1  0
 18 19  1  0
 19 20  1  1
 20 21  1  0
 12 22  1  0
 22 23  2  0
 23 24  1  0
 24 25  2  0
 25 26  1  0
 26 27  1  0
 27 28  2  0
 28 29  1  0
 29 30  2  0
 28 31  1  0
 31 32  2  0
 31 33  1  0
 33 34  1  0
 34 35  2  0
 30  2  1  0
 30  5  1  0
 29  8  1  0
 26  9  2  0
 34 27  1  0
 25 11  1  0
 19 15  1  0
M  END
>  <Compound_ID>  (371) 
CHEMBL308979

>  <Active>  (371) 
1.0

>  <Smiles>  (371) 
Cn1ccc2ccc3c4[nH]c5c(CCN6CCC[C@H]6CO)cccc5c4c4c(c3c21)C(=O)NC4=O

>  <canonical_smi>  (371) 
Cn1ccc2ccc3c4[nH]c5c(CCN6CCC[C@H]6CO)cccc5c4c4c(c3c21)C(=O)NC4=O

>  <Set>  (371) 
G2 active

>  <Set_type>  (371) 
Train

>  <MW>  (371) 
466.54

>  <HBD>  (371) 
3

>  <HBA>  (371) 
4

>  <NRB>  (371) 
4

>  <NR>  (371) 
7

>  <NAR>  (371) 
5

>  <PSA>  (371) 
90.36

>  <Standard Type>  (371) 
nan

>  <Standard Relation>  (371) 
nan

>  <Standard Units>  (371) 
nan

>  <Standard Value>  (371) 
nan

>  <Assay ChEMBL ID>  (371) 
nan

>  <Assay Description>  (371) 
nan

>  <BAO Label>  (371) 
nan

$$$$

     RDKit          2D

 31 34  0  0  0  0  0  0  0  0999 V2000
   -6.4952   -5.8573    0.0000 O   0  0  0  0  0  0  0  0  0  0  0  0
   -6.4952   -7.3573    0.0000 C   0  0  0  0  0  0  0  0  0  0  0  0
   -5.1962   -8.1073    0.0000 N   0  0  0  0  0  0  0  0  0  0  0  0
   -3.8971   -7.3573    0.0000 C   0  0  0  0  0  0  0  0  0  0  0  0
   -3.8971   -5.8573    0.0000 S   0  0  0  0  0  0  0  0  0  0  0  0
   -2.5981   -8.1073    0.0000 N   0  0  0  0  0  0  0  0  0  0  0  0
   -1.2990   -7.3573    0.0000 C   0  0  0  0  0  0  0  0  0  0  0  0
    0.0000   -8.1073    0.0000 C   0  0  0  0  0  0  0  0  0  0  0  0
    1.2990   -7.3573    0.0000 C   0  0  0  0  0  0  0  0  0  0  0  0
    1.2990   -5.8573    0.0000 C   0  0  0  0  0  0  0  0  0  0  0  0
    2.5981   -5.1073    0.0000 O   0  0  0  0  0  0  0  0  0  0  0  0
   -0.0000   -5.1073    0.0000 C   0  0  0  0  0  0  0  0  0  0  0  0
   -0.0000   -3.6073    0.0000 C   0  0  0  0  0  0  0  0  0  0  0  0
    1.2135   -2.7256    0.0000 N   0  0  0  0  0  0  0  0  0  0  0  0
    0.7500   -1.2990    0.0000 C   0  0  0  0  0  0  0  0  0  0  0  0
    1.5000    0.0000    0.0000 C   0  0  0  0  0  0  0  0  0  0  0  0
    0.7500    1.2990    0.0000 C   0  0  0  0  0  0  0  0  0  0  0  0
   -0.7500    1.2990    0.0000 C   0  0  0  0  0  0  0  0  0  0  0  0
   -1.5000    0.0000    0.0000 C   0  0  0  0  0  0  0  0  0  0  0  0
   -0.7500   -1.2990    0.0000 C   0  0  0  0  0  0  0  0  0  0  0  0
   -1.2135   -2.7256    0.0000 S   0  0  0  0  0  0  0  0  0  0  0  0
   -1.2990   -5.8573    0.0000 C   0  0  0  0  0  0  0  0  0  0  0  0
   -7.7942   -8.1073    0.0000 C   0  0  0  0  0  0  0  0  0  0  0  0
   -9.0933   -7.3573    0.0000 C   0  0  0  0  0  0  0  0  0  0  0  0
  -10.3923   -8.1073    0.0000 C   0  0  0  0  0  0  0  0  0  0  0  0
  -10.3923   -9.6073    0.0000 C   0  0  0  0  0  0  0  0  0  0  0  0
  -11.6913  -10.3573    0.0000 N   0  0  0  0  0  4  0  0  0  0  0  0
  -11.6913  -11.8573    0.0000 O   0  0  0  0  0  0  0  0  0  0  0  0
  -12.9904   -9.6073    0.0000 O   0  0  0  0  0  1  0  0  0  0  0  0
   -9.0933  -10.3573    0.0000 C   0  0  0  0  0  0  0  0  0  0  0  0
   -7.7942   -9.6073    0.0000 C   0  0  0  0  0  0  0  0  0  0  0  0
  1  2  2  0
  2  3  1  0
  3  4  1  0
  4  5  2  0
  4  6  1  0
  6  7  1  0
  7  8  2  0
  8  9  1  0
  9 10  2  0
 10 11  1  0
 10 12  1  0
 12 13  1  0
 13 14  2  0
 14 15  1  0
 15 16  2  0
 16 17  1  0
 17 18  2  0
 18 19  1  0
 19 20  2  0
 20 21  1  0
 12 22  2  0
  2 23  1  0
 23 24  2  0
 24 25  1  0
 25 26  2  0
 26 27  1  0
 27 28  2  0
 27 29  1  0
 26 30  1  0
 30 31  2  0
 22  7  1  0
 31 23  1  0
 21 13  1  0
 20 15  1  0
M  CHG  2  27   1  29  -1
M  END
>  <Compound_ID>  (372) 
CHEMBL460746

>  <Active>  (372) 
1.0

>  <Smiles>  (372) 
O=C(NC(=S)Nc1ccc(O)c(-c2nc3ccccc3s2)c1)c1ccc([N+](=O)[O-])cc1

>  <canonical_smi>  (372) 
O=C(NC(=S)Nc1ccc(O)c(-c2nc3ccccc3s2)c1)c1ccc([N+](=O)[O-])cc1

>  <Set>  (372) 
G2 active

>  <Set_type>  (372) 
Train

>  <MW>  (372) 
450.5

>  <HBD>  (372) 
3

>  <HBA>  (372) 
7

>  <NRB>  (372) 
4

>  <NR>  (372) 
4

>  <NAR>  (372) 
4

>  <PSA>  (372) 
117.39

>  <Standard Type>  (372) 
nan

>  <Standard Relation>  (372) 
nan

>  <Standard Units>  (372) 
nan

>  <Standard Value>  (372) 
nan

>  <Assay ChEMBL ID>  (372) 
nan

>  <Assay Description>  (372) 
nan

>  <BAO Label>  (372) 
nan

$$$$

     RDKit          2D

 20 21  0  0  0  0  0  0  0  0999 V2000
   -0.0372   -9.4196    0.0000 O   0  0  0  0  0  0  0  0  0  0  0  0
   -1.0409   -8.3049    0.0000 C   0  0  0  0  0  0  0  0  0  0  0  0
   -2.5081   -8.6168    0.0000 C   0  0  0  0  0  0  0  0  0  0  0  0
   -2.9716  -10.0434    0.0000 O   0  0  0  0  0  0  0  0  0  0  0  0
   -0.5773   -6.8783    0.0000 N   0  0  0  0  0  0  0  0  0  0  0  0
    0.8899   -6.5665    0.0000 C   0  0  0  0  0  0  0  0  0  0  0  0
    2.0046   -7.5702    0.0000 C   0  0  0  0  0  0  0  0  0  0  0  0
    3.3037   -6.8202    0.0000 N   0  0  0  0  0  0  0  0  0  0  0  0
    2.9918   -5.3529    0.0000 N   0  0  0  0  0  0  0  0  0  0  0  0
    1.5000   -5.1962    0.0000 C   0  0  0  0  0  0  0  0  0  0  0  0
    0.7500   -3.8971    0.0000 C   0  0  0  0  0  0  0  0  0  0  0  0
   -0.7500   -3.8971    0.0000 O   0  0  0  0  0  0  0  0  0  0  0  0
    1.5000   -2.5981    0.0000 N   0  0  0  0  0  0  0  0  0  0  0  0
    0.7500   -1.2990    0.0000 C   0  0  0  0  0  0  0  0  0  0  0  0
    1.5000    0.0000    0.0000 C   0  0  0  0  0  0  0  0  0  0  0  0
    0.7500    1.2990    0.0000 C   0  0  0  0  0  0  0  0  0  0  0  0
   -0.7500    1.2990    0.0000 C   0  0  0  0  0  0  0  0  0  0  0  0
   -1.5000    2.5981    0.0000 F   0  0  0  0  0  0  0  0  0  0  0  0
   -1.5000    0.0000    0.0000 C   0  0  0  0  0  0  0  0  0  0  0  0
   -0.7500   -1.2990    0.0000 C   0  0  0  0  0  0  0  0  0  0  0  0
  1  2  2  0
  2  3  1  0
  3  4  1  0
  2  5  1  0
  5  6  1  0
  6  7  2  0
  7  8  1  0
  8  9  1  0
  9 10  2  0
 10 11  1  0
 11 12  2  0
 11 13  1  0
 13 14  1  0
 14 15  2  0
 15 16  1  0
 16 17  2  0
 17 18  1  0
 17 19  1  0
 19 20  2  0
 10  6  1  0
 20 14  1  0
M  END
>  <Compound_ID>  (373) 
CHEMBL443198

>  <Active>  (373) 
1.0

>  <Smiles>  (373) 
O=C(CO)Nc1c[nH]nc1C(=O)Nc1ccc(F)cc1

>  <canonical_smi>  (373) 
O=C(CO)Nc1c[nH]nc1C(=O)Nc1ccc(F)cc1

>  <Set>  (373) 
G2 active

>  <Set_type>  (373) 
Train

>  <MW>  (373) 
278.24

>  <HBD>  (373) 
4

>  <HBA>  (373) 
4

>  <NRB>  (373) 
4

>  <NR>  (373) 
2

>  <NAR>  (373) 
2

>  <PSA>  (373) 
107.11

>  <Standard Type>  (373) 
nan

>  <Standard Relation>  (373) 
nan

>  <Standard Units>  (373) 
nan

>  <Standard Value>  (373) 
nan

>  <Assay ChEMBL ID>  (373) 
nan

>  <Assay Description>  (373) 
nan

>  <BAO Label>  (373) 
nan

$$$$

     RDKit          2D

 27 30  0  0  0  0  0  0  0  0999 V2000
    3.3287    1.8373    0.0000 O   0  0  0  0  0  0  0  0  0  0  0  0
    2.3250    2.9520    0.0000 C   0  0  0  0  0  0  0  0  0  0  0  0
    2.7886    4.3786    0.0000 C   0  0  0  0  0  0  0  0  0  0  0  0
    4.2558    4.6904    0.0000 C   0  0  0  0  0  0  0  0  0  0  0  0
    5.2595    3.5757    0.0000 C   0  0  0  0  0  0  0  0  0  0  0  0
    6.7267    3.8876    0.0000 C   0  0  0  0  0  0  0  0  0  0  0  0
    7.1902    5.3142    0.0000 C   0  0  0  0  0  0  0  0  0  0  0  0
    6.1865    6.4289    0.0000 C   0  0  0  0  0  0  0  0  0  0  0  0
    4.7193    6.1170    0.0000 C   0  0  0  0  0  0  0  0  0  0  0  0
    0.8578    2.6401    0.0000 N   0  0  0  0  0  0  0  0  0  0  0  0
    0.3943    1.2135    0.0000 C   0  0  0  0  0  0  0  0  0  0  0  0
    1.2760    0.0000    0.0000 N   0  0  0  0  0  0  0  0  0  0  0  0
    0.3943   -1.2135    0.0000 N   0  0  0  0  0  0  0  0  0  0  0  0
   -1.0323   -0.7500    0.0000 C   0  0  0  0  0  0  0  0  0  0  0  0
   -1.0323    0.7500    0.0000 C   0  0  0  0  0  0  0  0  0  0  0  0
   -2.4589    1.2135    0.0000 C   0  0  0  0  0  0  0  0  0  0  0  0
   -3.3405    0.0000    0.0000 N   0  0  0  0  0  0  0  0  0  0  0  0
   -4.8405    0.0000    0.0000 C   0  0  0  0  0  0  0  0  0  0  0  0
   -5.5905   -1.2990    0.0000 O   0  0  0  0  0  0  0  0  0  0  0  0
   -5.5905    1.2990    0.0000 N   0  0  0  0  0  0  0  0  0  0  0  0
   -7.0905    1.2990    0.0000 C   0  0  0  0  0  0  0  0  0  0  0  0
   -7.8405    2.5981    0.0000 C   0  0  0  0  0  0  0  0  0  0  0  0
   -9.3405    2.5981    0.0000 C   0  0  0  0  0  0  0  0  0  0  0  0
  -10.0905    1.2990    0.0000 C   0  0  0  0  0  0  0  0  0  0  0  0
   -9.3405    0.0000    0.0000 C   0  0  0  0  0  0  0  0  0  0  0  0
   -7.8405    0.0000    0.0000 C   0  0  0  0  0  0  0  0  0  0  0  0
   -2.4589   -1.2135    0.0000 C   0  0  0  0  0  0  0  0  0  0  0  0
  1  2  2  0
  2  3  1  0
  3  4  1  0
  4  5  2  0
  5  6  1  0
  6  7  2  0
  7  8  1  0
  8  9  2  0
  2 10  1  0
 10 11  1  0
 11 12  1  0
 12 13  1  0
 13 14  2  0
 14 15  1  0
 15 16  1  0
 16 17  1  0
 17 18  1  0
 18 19  2  0
 18 20  1  0
 20 21  1  0
 21 22  2  0
 22 23  1  0
 23 24  2  0
 24 25  1  0
 25 26  2  0
 17 27  1  0
  9  4  1  0
 15 11  2  0
 26 21  1  0
 27 14  1  0
M  END
>  <Compound_ID>  (374) 
CHEMBL203707

>  <Active>  (374) 
1.0

>  <Smiles>  (374) 
O=C(Cc1ccccc1)Nc1[nH]nc2c1CN(C(=O)Nc1ccccc1)C2

>  <canonical_smi>  (374) 
O=C(Cc1ccccc1)Nc1[nH]nc2c1CN(C(=O)Nc1ccccc1)C2

>  <Set>  (374) 
G2 active

>  <Set_type>  (374) 
Train

>  <MW>  (374) 
361.41

>  <HBD>  (374) 
3

>  <HBA>  (374) 
3

>  <NRB>  (374) 
4

>  <NR>  (374) 
4

>  <NAR>  (374) 
3

>  <PSA>  (374) 
90.12

>  <Standard Type>  (374) 
nan

>  <Standard Relation>  (374) 
nan

>  <Standard Units>  (374) 
nan

>  <Standard Value>  (374) 
nan

>  <Assay ChEMBL ID>  (374) 
nan

>  <Assay Description>  (374) 
nan

>  <BAO Label>  (374) 
nan

$$$$

     RDKit          2D

 23 26  0  0  0  0  0  0  0  0999 V2000
    5.2500   -1.2990    0.0000 C   0  0  0  0  0  0  0  0  0  0  0  0
    3.7500   -1.2990    0.0000 C   0  0  0  0  0  0  0  0  0  0  0  0
    3.0000   -2.5981    0.0000 O   0  0  0  0  0  0  0  0  0  0  0  0
    3.0000    0.0000    0.0000 N   0  0  0  0  0  0  0  0  0  0  0  0
    1.5000    0.0000    0.0000 C   0  0  0  0  0  0  0  0  0  0  0  0
    0.7500   -1.2990    0.0000 C   0  0  0  0  0  0  0  0  0  0  0  0
   -0.7500   -1.2990    0.0000 C   0  0  0  0  0  0  0  0  0  0  0  0
   -1.5000    0.0000    0.0000 C   0  0  0  0  0  0  0  0  0  0  0  0
   -0.7500    1.2990    0.0000 C   0  0  0  0  0  0  0  0  0  0  0  0
    0.7500    1.2990    0.0000 C   0  0  0  0  0  0  0  0  0  0  0  0
    1.2135    2.7256    0.0000 C   0  0  0  0  0  0  0  0  0  0  0  0
    2.6401    3.1891    0.0000 O   0  0  0  0  0  0  0  0  0  0  0  0
    0.0000    3.6073    0.0000 C   0  0  0  0  0  0  0  0  0  0  0  0
   -0.4635    5.0339    0.0000 C   0  0  0  0  0  0  0  0  0  0  0  0
    0.4182    6.2474    0.0000 C   0  0  0  0  0  0  0  0  0  0  0  0
    1.9099    6.0906    0.0000 C   0  0  0  0  0  0  0  0  0  0  0  0
    2.7916    7.3041    0.0000 C   0  0  0  0  0  0  0  0  0  0  0  0
    2.1815    8.6745    0.0000 C   0  0  0  0  0  0  0  0  0  0  0  0
    0.6897    8.8313    0.0000 N   0  0  0  0  0  0  0  0  0  0  0  0
   -0.1920    7.6177    0.0000 C   0  0  0  0  0  0  0  0  0  0  0  0
   -1.9635    5.0339    0.0000 N   0  0  0  0  0  0  0  0  0  0  0  0
   -2.4271    3.6073    0.0000 N   0  0  0  0  0  0  0  0  0  0  0  0
   -1.2135    2.7256    0.0000 C   0  0  0  0  0  0  0  0  0  0  0  0
  1  2  1  0
  2  3  2  0
  2  4  1  0
  4  5  1  0
  5  6  2  0
  6  7  1  0
  7  8  2  0
  8  9  1  0
  9 10  2  0
 10 11  1  0
 11 12  2  0
 11 13  1  0
 13 14  1  0
 14 15  1  0
 15 16  2  0
 16 17  1  0
 17 18  2  0
 18 19  1  0
 19 20  2  0
 14 21  2  0
 21 22  1  0
 22 23  1  0
 10  5  1  0
 23 13  2  0
 23  9  1  0
 20 15  1  0
M  END
>  <Compound_ID>  (375) 
CHEMBL436466

>  <Active>  (375) 
1.0

>  <Smiles>  (375) 
CC(=O)Nc1cccc2c1C(=O)c1c(-c3cccnc3)n[nH]c1-2

>  <canonical_smi>  (375) 
CC(=O)Nc1cccc2c1C(=O)c1c(-c3cccnc3)n[nH]c1-2

>  <Set>  (375) 
G2 active

>  <Set_type>  (375) 
Train

>  <MW>  (375) 
304.31

>  <HBD>  (375) 
2

>  <HBA>  (375) 
4

>  <NRB>  (375) 
2

>  <NR>  (375) 
4

>  <NAR>  (375) 
4

>  <PSA>  (375) 
87.74

>  <Standard Type>  (375) 
nan

>  <Standard Relation>  (375) 
nan

>  <Standard Units>  (375) 
nan

>  <Standard Value>  (375) 
nan

>  <Assay ChEMBL ID>  (375) 
nan

>  <Assay Description>  (375) 
nan

>  <BAO Label>  (375) 
nan

$$$$

     RDKit          2D

 23 24  0  0  0  0  0  0  0  0999 V2000
   -5.0490   -3.1471    0.0000 C   0  0  0  0  0  0  0  0  0  0  0  0
   -3.7500   -3.8971    0.0000 C   0  0  0  0  0  0  0  0  0  0  0  0
   -2.4510   -4.6471    0.0000 C   0  0  0  0  0  0  0  0  0  0  0  0
   -4.5000   -5.1962    0.0000 C   0  0  0  0  0  0  0  0  0  0  0  0
   -3.0000   -2.5981    0.0000 N   0  0  0  0  0  0  0  0  0  0  0  0
   -1.5000   -2.5981    0.0000 C   0  0  0  0  0  0  0  0  0  0  0  0
   -0.7500   -3.8971    0.0000 N   0  0  0  0  0  0  0  0  0  0  0  0
    0.7500   -3.8971    0.0000 C   0  0  0  0  0  0  0  0  0  0  0  0
    1.5000   -5.1962    0.0000 C   0  0  0  0  0  0  0  0  0  0  0  0
    2.2500   -6.4952    0.0000 F   0  0  0  0  0  0  0  0  0  0  0  0
    0.2010   -5.9462    0.0000 F   0  0  0  0  0  0  0  0  0  0  0  0
    2.7990   -4.4462    0.0000 F   0  0  0  0  0  0  0  0  0  0  0  0
    1.5000   -2.5981    0.0000 N   0  0  0  0  0  0  0  0  0  0  0  0
    0.7500   -1.2990    0.0000 C   0  0  0  0  0  0  0  0  0  0  0  0
    1.5000    0.0000    0.0000 C   0  0  0  0  0  0  0  0  0  0  0  0
    0.7500    1.2990    0.0000 C   0  0  0  0  0  0  0  0  0  0  0  0
   -0.7500    1.2990    0.0000 C   0  0  0  0  0  0  0  0  0  0  0  0
   -1.5000    2.5981    0.0000 C   0  0  0  0  0  0  0  0  0  0  0  0
   -2.2500    3.8971    0.0000 F   0  0  0  0  0  0  0  0  0  0  0  0
   -0.2010    3.3481    0.0000 F   0  0  0  0  0  0  0  0  0  0  0  0
   -2.7990    1.8481    0.0000 F   0  0  0  0  0  0  0  0  0  0  0  0
   -1.5000    0.0000    0.0000 C   0  0  0  0  0  0  0  0  0  0  0  0
   -0.7500   -1.2990    0.0000 C   0  0  0  0  0  0  0  0  0  0  0  0
  1  2  1  0
  2  3  1  0
  2  4  1  0
  2  5  1  0
  5  6  1  0
  6  7  2  0
  7  8  1  0
  8  9  1  0
  9 10  1  0
  9 11  1  0
  9 12  1  0
  8 13  2  0
 13 14  1  0
 14 15  2  0
 15 16  1  0
 16 17  2  0
 17 18  1  0
 18 19  1  0
 18 20  1  0
 18 21  1  0
 17 22  1  0
 22 23  2  0
 23  6  1  0
 23 14  1  0
M  END
>  <Compound_ID>  (376) 
CHEMBL16364

>  <Active>  (376) 
1.0

>  <Smiles>  (376) 
CC(C)(C)Nc1nc(C(F)(F)F)nc2ccc(C(F)(F)F)cc12

>  <canonical_smi>  (376) 
CC(C)(C)Nc1nc(C(F)(F)F)nc2ccc(C(F)(F)F)cc12

>  <Set>  (376) 
G2 active

>  <Set_type>  (376) 
Train

>  <MW>  (376) 
337.27

>  <HBD>  (376) 
1

>  <HBA>  (376) 
3

>  <NRB>  (376) 
1

>  <NR>  (376) 
2

>  <NAR>  (376) 
2

>  <PSA>  (376) 
37.81

>  <Standard Type>  (376) 
nan

>  <Standard Relation>  (376) 
nan

>  <Standard Units>  (376) 
nan

>  <Standard Value>  (376) 
nan

>  <Assay ChEMBL ID>  (376) 
nan

>  <Assay Description>  (376) 
nan

>  <BAO Label>  (376) 
nan

$$$$

     RDKit          2D

 37 43  0  0  0  0  0  0  0  0999 V2000
   -8.7604   -0.0649    0.0000 C   0  0  0  0  0  0  0  0  0  0  0  0
   -8.4485   -1.5321    0.0000 N   0  0  0  0  0  0  0  0  0  0  0  0
   -9.4522   -2.6468    0.0000 C   0  0  0  0  0  0  0  0  0  0  0  0
   -8.7022   -3.9458    0.0000 C   0  0  0  0  0  0  0  0  0  0  0  0
   -7.2350   -3.6340    0.0000 C   0  0  0  0  0  0  0  0  0  0  0  0
   -6.0214   -4.5156    0.0000 C   0  0  0  0  0  0  0  0  0  0  0  0
   -4.6511   -3.9055    0.0000 C   0  0  0  0  0  0  0  0  0  0  0  0
   -4.4943   -2.4138    0.0000 C   0  0  0  0  0  0  0  0  0  0  0  0
   -3.1240   -1.8037    0.0000 C   0  0  0  0  0  0  0  0  0  0  0  0
   -1.7537   -2.4138    0.0000 N   0  0  0  0  0  0  0  0  0  0  0  0
   -0.7500   -1.2990    0.0000 C   0  0  0  0  0  0  0  0  0  0  0  0
    0.7500   -1.2990    0.0000 C   0  0  0  0  0  0  0  0  0  0  0  0
    1.5000   -2.5981    0.0000 C   0  0  0  0  0  0  0  0  0  0  0  0
    3.0000   -2.5981    0.0000 C   0  0  0  0  0  0  0  0  0  0  0  0
    3.7500   -3.8971    0.0000 N   0  0  0  0  0  0  0  0  0  0  0  0
    3.0000   -5.1962    0.0000 C   0  0  0  0  0  0  0  0  0  0  0  0
    3.7500   -6.4952    0.0000 C   0  0  0  0  0  0  0  0  0  0  0  0
    5.2500   -6.4952    0.0000 C   0  0  0  0  0  0  0  0  0  0  0  0
    6.0000   -7.7942    0.0000 C   0  0  0  0  0  0  0  0  0  0  0  0
    5.2500   -9.0933    0.0000 N   0  0  0  0  0  0  0  0  0  0  0  0
    7.5000   -7.7942    0.0000 O   0  0  0  0  0  0  0  0  0  0  0  0
    6.0000   -5.1962    0.0000 C   0  0  0  0  0  0  0  0  0  0  0  0
    5.2500   -3.8971    0.0000 C   0  0  0  0  0  0  0  0  0  0  0  0
    1.5000    0.0000    0.0000 C   0  0  0  0  0  0  0  0  0  0  0  0
    0.7500    1.2990    0.0000 C   0  0  0  0  0  0  0  0  0  0  0  0
   -0.7500    1.2990    0.0000 C   0  0  0  0  0  0  0  0  0  0  0  0
   -1.5000    0.0000    0.0000 C   0  0  0  0  0  0  0  0  0  0  0  0
   -2.9672   -0.3119    0.0000 C   0  0  0  0  0  0  0  0  0  0  0  0
   -4.1807    0.5698    0.0000 C   0  0  0  0  0  0  0  0  0  0  0  0
   -5.5511   -0.0403    0.0000 C   0  0  0  0  0  0  0  0  0  0  0  0
   -5.7079   -1.5321    0.0000 C   0  0  0  0  0  0  0  0  0  0  0  0
   -7.0782   -2.1422    0.0000 C   0  0  0  0  0  0  0  0  0  0  0  0
   -6.5548    1.0744    0.0000 C   0  0  0  0  0  0  0  0  0  0  0  0
   -8.0465    0.9176    0.0000 O   0  0  0  0  0  0  0  0  0  0  0  0
   -5.8048    2.3735    0.0000 N   0  0  0  0  0  0  0  0  0  0  0  0
   -4.3375    2.0616    0.0000 C   0  0  0  0  0  0  0  0  0  0  0  0
   -3.2228    3.0653    0.0000 O   0  0  0  0  0  0  0  0  0  0  0  0
  1  2  1  0
  2  3  1  0
  3  4  2  0
  4  5  1  0
  5  6  2  0
  6  7  1  0
  7  8  2  0
  8  9  1  0
  9 10  1  0
 10 11  1  0
 11 12  2  0
 12 13  1  0
 13 14  1  0
 14 15  1  0
 15 16  1  0
 16 17  1  0
 17 18  1  0
 18 19  1  0
 19 20  1  0
 19 21  2  0
 18 22  1  0
 22 23  1  0
 12 24  1  0
 24 25  2  0
 25 26  1  0
 26 27  2  0
 27 28  1  0
 28 29  1  0
 29 30  2  0
 30 31  1  0
 31 32  2  0
 30 33  1  0
 33 34  2  0
 33 35  1  0
 35 36  1  0
 36 37  2  0
 32  2  1  0
 32  5  1  0
 31  8  1  0
 28  9  2  0
 36 29  1  0
 27 11  1  0
 23 15  1  0
M  END
>  <Compound_ID>  (377) 
CHEMBL312292

>  <Active>  (377) 
1.0

>  <Smiles>  (377) 
Cn1ccc2ccc3c4[nH]c5c(CCN6CCC(C(N)=O)CC6)cccc5c4c4c(c3c21)C(=O)NC4=O

>  <canonical_smi>  (377) 
Cn1ccc2ccc3c4[nH]c5c(CCN6CCC(C(N)=O)CC6)cccc5c4c4c(c3c21)C(=O)NC4=O

>  <Set>  (377) 
G2 active

>  <Set_type>  (377) 
Train

>  <MW>  (377) 
493.57

>  <HBD>  (377) 
3

>  <HBA>  (377) 
4

>  <NRB>  (377) 
4

>  <NR>  (377) 
7

>  <NAR>  (377) 
5

>  <PSA>  (377) 
113.22

>  <Standard Type>  (377) 
nan

>  <Standard Relation>  (377) 
nan

>  <Standard Units>  (377) 
nan

>  <Standard Value>  (377) 
nan

>  <Assay ChEMBL ID>  (377) 
nan

>  <Assay Description>  (377) 
nan

>  <BAO Label>  (377) 
nan

$$$$

     RDKit          2D

 30 33  0  0  0  0  0  0  0  0999 V2000
    3.5260    1.2990    0.0000 C   0  0  0  0  0  0  0  0  0  0  0  0
    2.7760    0.0000    0.0000 C   0  0  0  0  0  0  0  0  0  0  0  0
    3.5260   -1.2990    0.0000 C   0  0  0  0  0  0  0  0  0  0  0  0
    1.2760    0.0000    0.0000 N   0  0  0  0  0  0  0  0  0  0  0  0
    0.3943    1.2135    0.0000 C   0  0  0  0  0  0  0  0  0  0  0  0
   -1.0323    0.7500    0.0000 N   0  0  0  0  0  0  0  0  0  0  0  0
   -1.0323   -0.7500    0.0000 C   0  0  0  0  0  0  0  0  0  0  0  0
   -2.1470   -1.7537    0.0000 C   0  0  0  0  0  0  0  0  0  0  0  0
   -3.5736   -1.2902    0.0000 N   0  0  0  0  0  0  0  0  0  0  0  0
   -4.6883   -2.2939    0.0000 C   0  0  0  0  0  0  0  0  0  0  0  0
   -6.1149   -1.8303    0.0000 C   0  0  0  0  0  0  0  0  0  0  0  0
   -6.4268   -0.3631    0.0000 C   0  0  0  0  0  0  0  0  0  0  0  0
   -7.8533    0.1004    0.0000 C   0  0  0  0  0  0  0  0  0  0  0  0
   -8.9681   -0.9033    0.0000 C   0  0  0  0  0  0  0  0  0  0  0  0
   -8.6562   -2.3705    0.0000 C   0  0  0  0  0  0  0  0  0  0  0  0
   -7.2296   -2.8340    0.0000 C   0  0  0  0  0  0  0  0  0  0  0  0
   -9.9552   -3.1205    0.0000 O   0  0  0  0  0  0  0  0  0  0  0  0
  -11.0699   -2.1168    0.0000 C   0  0  0  0  0  0  0  0  0  0  0  0
  -10.4598   -0.7465    0.0000 O   0  0  0  0  0  0  0  0  0  0  0  0
   -1.8351   -3.2209    0.0000 N   0  0  0  0  0  0  0  0  0  0  0  0
   -0.4086   -3.6844    0.0000 C   0  0  0  0  0  0  0  0  0  0  0  0
   -0.0967   -5.1517    0.0000 N   0  0  0  0  0  0  0  0  0  0  0  0
   -1.2114   -6.1554    0.0000 C   0  0  0  0  0  0  0  0  0  0  0  0
   -0.8995   -7.6226    0.0000 C   0  0  0  0  0  0  0  0  0  0  0  0
   -2.0143   -8.6263    0.0000 O   0  0  0  0  0  0  0  0  0  0  0  0
    1.3299   -5.6152    0.0000 C   0  0  0  0  0  0  0  0  0  0  0  0
    1.6418   -7.0824    0.0000 C   0  0  0  0  0  0  0  0  0  0  0  0
    3.0684   -7.5459    0.0000 O   0  0  0  0  0  0  0  0  0  0  0  0
    0.7062   -2.6807    0.0000 N   0  0  0  0  0  0  0  0  0  0  0  0
    0.3943   -1.2135    0.0000 C   0  0  0  0  0  0  0  0  0  0  0  0
  1  2  1  0
  2  3  1  0
  2  4  1  0
  4  5  1  0
  5  6  2  0
  6  7  1  0
  7  8  2  0
  8  9  1  0
  9 10  1  0
 10 11  1  0
 11 12  2  0
 12 13  1  0
 13 14  2  0
 14 15  1  0
 15 16  2  0
 15 17  1  0
 17 18  1  0
 18 19  1  0
  8 20  1  0
 20 21  2  0
 21 22  1  0
 22 23  1  0
 23 24  1  0
 24 25  1  0
 22 26  1  0
 26 27  1  0
 27 28  1  0
 21 29  1  0
 29 30  2  0
 30  4  1  0
 30  7  1  0
 16 11  1  0
 19 14  1  0
M  END
>  <Compound_ID>  (378) 
CHEMBL327629

>  <Active>  (378) 
1.0

>  <Smiles>  (378) 
CC(C)n1cnc2c(NCc3ccc4c(c3)OCO4)nc(N(CCO)CCO)nc21

>  <canonical_smi>  (378) 
CC(C)n1cnc2c(NCc3ccc4c(c3)OCO4)nc(N(CCO)CCO)nc21

>  <Set>  (378) 
G2 active

>  <Set_type>  (378) 
Train

>  <MW>  (378) 
414.47

>  <HBD>  (378) 
3

>  <HBA>  (378) 
9

>  <NRB>  (378) 
9

>  <NR>  (378) 
4

>  <NAR>  (378) 
3

>  <PSA>  (378) 
117.79

>  <Standard Type>  (378) 
nan

>  <Standard Relation>  (378) 
nan

>  <Standard Units>  (378) 
nan

>  <Standard Value>  (378) 
nan

>  <Assay ChEMBL ID>  (378) 
nan

>  <Assay Description>  (378) 
nan

>  <BAO Label>  (378) 
nan

$$$$

     RDKit          2D

 40 44  0  0  0  0  0  0  0  0999 V2000
  -11.3324  -12.8429    0.0000 C   0  0  0  0  0  0  0  0  0  0  0  0
   -9.9058  -12.3794    0.0000 N   0  0  0  0  0  0  0  0  0  0  0  0
   -9.5939  -10.9121    0.0000 C   0  0  0  0  0  0  0  0  0  0  0  0
   -8.1673  -10.4486    0.0000 C   0  0  0  0  0  0  0  0  0  0  0  0
   -7.0526  -11.4523    0.0000 N   0  0  0  0  0  0  0  0  0  0  0  0
   -5.6260  -10.9888    0.0000 C   0  0  0  0  0  0  0  0  0  0  0  0
   -5.3142   -9.5216    0.0000 C   0  0  0  0  0  0  0  0  0  0  0  0
   -3.8876   -9.0580    0.0000 O   0  0  0  0  0  0  0  0  0  0  0  0
   -3.5757   -7.5908    0.0000 C   0  0  0  0  0  0  0  0  0  0  0  0
   -2.1491   -7.1273    0.0000 C   0  0  0  0  0  0  0  0  0  0  0  0
   -1.8373   -5.6601    0.0000 C   0  0  0  0  0  0  0  0  0  0  0  0
   -0.4905   -5.5660    0.0000 F   0  0  0  0  0  0  0  0  0  0  0  0
   -2.9520   -4.6564    0.0000 C   0  0  0  0  0  0  0  0  0  0  0  0
   -2.6401   -3.1891    0.0000 C   0  0  0  0  0  0  0  0  0  0  0  0
   -3.7548   -2.1855    0.0000 O   0  0  0  0  0  0  0  0  0  0  0  0
   -1.2135   -2.7256    0.0000 C   0  0  0  0  0  0  0  0  0  0  0  0
   -0.7500   -1.2990    0.0000 C   0  0  0  0  0  0  0  0  0  0  0  0
   -1.6317   -0.0855    0.0000 N   0  0  0  0  0  0  0  0  0  0  0  0
    0.7500   -1.2990    0.0000 N   0  0  0  0  0  0  0  0  0  0  0  0
    1.2135   -2.7256    0.0000 C   0  0  0  0  0  0  0  0  0  0  0  0
    2.5838   -3.3357    0.0000 C   0  0  0  0  0  0  0  0  0  0  0  0
    2.7406   -4.8275    0.0000 C   0  0  0  0  0  0  0  0  0  0  0  0
    1.5271   -5.7092    0.0000 C   0  0  0  0  0  0  0  0  0  0  0  0
    1.6839   -7.2010    0.0000 C   0  0  0  0  0  0  0  0  0  0  0  0
    0.4704   -8.0826    0.0000 O   0  0  0  0  0  0  0  0  0  0  0  0
    3.0542   -7.8111    0.0000 C   0  0  0  0  0  0  0  0  0  0  0  0
    4.2677   -6.9294    0.0000 C   0  0  0  0  0  0  0  0  0  0  0  0
    4.1110   -5.4376    0.0000 Cl  0  0  0  0  0  0  0  0  0  0  0  0
    5.6381   -7.5395    0.0000 C   0  0  0  0  0  0  0  0  0  0  0  0
    5.7949   -9.0313    0.0000 C   0  0  0  0  0  0  0  0  0  0  0  0
    4.5813   -9.9130    0.0000 C   0  0  0  0  0  0  0  0  0  0  0  0
    3.2110   -9.3029    0.0000 C   0  0  0  0  0  0  0  0  0  0  0  0
    1.9975  -10.1845    0.0000 Cl  0  0  0  0  0  0  0  0  0  0  0  0
    0.1568   -5.0991    0.0000 C   0  0  0  0  0  0  0  0  0  0  0  0
    0.0000   -3.6073    0.0000 N   0  0  0  0  0  0  0  0  0  0  0  0
   -4.3786   -5.1199    0.0000 C   0  0  0  0  0  0  0  0  0  0  0  0
   -5.4933   -4.1162    0.0000 F   0  0  0  0  0  0  0  0  0  0  0  0
   -4.6904   -6.5871    0.0000 C   0  0  0  0  0  0  0  0  0  0  0  0
   -7.3645  -12.9195    0.0000 C   0  0  0  0  0  0  0  0  0  0  0  0
   -8.7911  -13.3831    0.0000 C   0  0  0  0  0  0  0  0  0  0  0  0
  1  2  1  0
  2  3  1  0
  3  4  1  0
  4  5  1  0
  5  6  1  0
  6  7  1  0
  7  8  1  0
  8  9  1  0
  9 10  2  0
 10 11  1  0
 11 12  1  0
 11 13  2  0
 13 14  1  0
 14 15  2  0
 14 16  1  0
 16 17  2  0
 17 18  1  0
 17 19  1  0
 19 20  2  0
 20 21  1  0
 21 22  2  0
 22 23  1  0
 23 24  1  0
 24 25  2  0
 24 26  1  0
 26 27  2  0
 27 28  1  0
 27 29  1  0
 29 30  2  0
 30 31  1  0
 31 32  2  0
 32 33  1  0
 23 34  2  0
 34 35  1  0
 13 36  1  0
 36 37  1  0
 36 38  2  0
  5 39  1  0
 39 40  1  0
 40  2  1  0
 38  9  1  0
 35 16  1  0
 35 20  1  0
 32 26  1  0
M  END
>  <Compound_ID>  (379) 
CHEMBL186396

>  <Active>  (379) 
1.0

>  <Smiles>  (379) 
CN1CCN(CCOc2cc(F)c(C(=O)c3c(N)nc4ccc(C(=O)c5c(Cl)cccc5Cl)cn34)c(F)c2)CC1

>  <canonical_smi>  (379) 
CN1CCN(CCOc2cc(F)c(C(=O)c3c(N)nc4ccc(C(=O)c5c(Cl)cccc5Cl)cn34)c(F)c2)CC1

>  <Set>  (379) 
G2 active

>  <Set_type>  (379) 
Train

>  <MW>  (379) 
588.44

>  <HBD>  (379) 
1

>  <HBA>  (379) 
7

>  <NRB>  (379) 
8

>  <NR>  (379) 
5

>  <NAR>  (379) 
4

>  <PSA>  (379) 
93.17

>  <Standard Type>  (379) 
nan

>  <Standard Relation>  (379) 
nan

>  <Standard Units>  (379) 
nan

>  <Standard Value>  (379) 
nan

>  <Assay ChEMBL ID>  (379) 
nan

>  <Assay Description>  (379) 
nan

>  <BAO Label>  (379) 
nan

$$$$

     RDKit          2D

 26 27  0  0  0  0  0  0  0  0999 V2000
    5.2500   -1.2990    0.0000 C   0  0  0  0  0  0  0  0  0  0  0  0
    3.7500   -1.2990    0.0000 C   0  0  0  0  0  0  0  0  0  0  0  0
    3.0000    0.0000    0.0000 O   0  0  0  0  0  0  0  0  0  0  0  0
    1.5000    0.0000    0.0000 C   0  0  0  0  0  0  0  0  0  0  0  0
    0.7500   -1.2990    0.0000 N   0  0  0  0  0  0  0  0  0  0  0  0
   -0.7500   -1.2990    0.0000 C   0  0  0  0  0  0  0  0  0  0  0  0
   -1.5000   -2.5981    0.0000 N   0  0  0  0  0  0  0  0  0  0  0  0
   -3.0000   -2.5981    0.0000 C   0  0  0  0  0  0  0  0  0  0  0  0
   -3.7500   -1.2990    0.0000 O   0  0  0  0  0  0  0  0  0  0  0  0
   -3.7500   -3.8971    0.0000 C   0  0  0  0  0  0  0  0  0  0  0  0
   -5.2500   -3.8971    0.0000 C   0  0  0  0  0  0  0  0  0  0  0  0
   -6.0000   -2.5981    0.0000 C   0  0  0  0  0  0  0  0  0  0  0  0
   -7.5000   -2.5981    0.0000 C   0  0  0  0  0  0  0  0  0  0  0  0
   -8.2500   -1.2990    0.0000 O   0  0  0  0  0  0  0  0  0  0  0  0
   -7.5000    0.0000    0.0000 C   0  0  0  0  0  0  0  0  0  0  0  0
   -8.2500   -3.8971    0.0000 C   0  0  0  0  0  0  0  0  0  0  0  0
   -7.5000   -5.1962    0.0000 C   0  0  0  0  0  0  0  0  0  0  0  0
   -6.0000   -5.1962    0.0000 C   0  0  0  0  0  0  0  0  0  0  0  0
   -5.2500   -6.4952    0.0000 O   0  0  0  0  0  0  0  0  0  0  0  0
   -6.0000   -7.7942    0.0000 C   0  0  0  0  0  0  0  0  0  0  0  0
   -1.5000    0.0000    0.0000 C   0  0  0  0  0  0  0  0  0  0  0  0
   -0.7500    1.2990    0.0000 C   0  0  0  0  0  0  0  0  0  0  0  0
   -1.5000    2.5981    0.0000 N   0  0  0  0  0  0  0  0  0  0  0  0
    0.7500    1.2990    0.0000 C   0  0  0  0  0  0  0  0  0  0  0  0
    1.5000    2.5981    0.0000 C   0  0  0  0  0  0  0  0  0  0  0  0
    2.2500    3.8971    0.0000 N   0  0  0  0  0  0  0  0  0  0  0  0
  1  2  1  0
  2  3  1  0
  3  4  1  0
  4  5  2  0
  5  6  1  0
  6  7  1  0
  7  8  1  0
  8  9  2  0
  8 10  1  0
 10 11  1  0
 11 12  2  0
 12 13  1  0
 13 14  1  0
 14 15  1  0
 13 16  2  0
 16 17  1  0
 17 18  2  0
 18 19  1  0
 19 20  1  0
  6 21  2  0
 21 22  1  0
 22 23  1  0
 22 24  2  0
 24 25  1  0
 25 26  3  0
 24  4  1  0
 18 11  1  0
M  END
>  <Compound_ID>  (380) 
CHEMBL210618

>  <Active>  (380) 
1.0

>  <Smiles>  (380) 
CCOc1nc(NC(=O)Cc2cc(OC)ccc2OC)cc(N)c1C#N

>  <canonical_smi>  (380) 
CCOc1nc(NC(=O)Cc2cc(OC)ccc2OC)cc(N)c1C#N

>  <Set>  (380) 
G2 active

>  <Set_type>  (380) 
Train

>  <MW>  (380) 
356.38

>  <HBD>  (380) 
2

>  <HBA>  (380) 
7

>  <NRB>  (380) 
7

>  <NR>  (380) 
2

>  <NAR>  (380) 
2

>  <PSA>  (380) 
119.49

>  <Standard Type>  (380) 
nan

>  <Standard Relation>  (380) 
nan

>  <Standard Units>  (380) 
nan

>  <Standard Value>  (380) 
nan

>  <Assay ChEMBL ID>  (380) 
nan

>  <Assay Description>  (380) 
nan

>  <BAO Label>  (380) 
nan

$$$$

     RDKit          2D

 36 41  0  0  0  0  0  0  0  0999 V2000
    4.1791    8.6583    0.0000 Cl  0  0  0  0  0  0  0  0  0  0  0  0
    3.7156    7.2317    0.0000 C   0  0  0  0  0  0  0  0  0  0  0  0
    4.7193    6.1170    0.0000 C   0  0  0  0  0  0  0  0  0  0  0  0
    4.2558    4.6904    0.0000 C   0  0  0  0  0  0  0  0  0  0  0  0
    2.7886    4.3786    0.0000 C   0  0  0  0  0  0  0  0  0  0  0  0
    2.3250    2.9520    0.0000 O   0  0  0  0  0  0  0  0  0  0  0  0
    0.8578    2.6401    0.0000 C   0  0  0  0  0  0  0  0  0  0  0  0
    0.3943    1.2135    0.0000 C   0  0  0  0  0  0  0  0  0  0  0  0
    1.2760    0.0000    0.0000 N   0  0  0  0  0  0  0  0  0  0  0  0
    0.3943   -1.2135    0.0000 N   0  0  0  0  0  0  0  0  0  0  0  0
   -1.0323   -0.7500    0.0000 C   0  0  0  0  0  0  0  0  0  0  0  0
   -2.4589   -1.2135    0.0000 S   0  0  0  0  0  0  0  0  0  0  0  0
   -3.3405    0.0000    0.0000 C   0  0  0  0  0  0  0  0  0  0  0  0
   -4.8405    0.0000    0.0000 S   0  0  0  0  0  0  0  0  0  0  0  0
   -5.5905    1.2990    0.0000 S   0  0  0  0  0  0  0  0  0  0  0  0
   -7.0905    1.2990    0.0000 C   0  0  0  0  0  0  0  0  0  0  0  0
   -7.9722    0.0855    0.0000 N   0  0  0  0  0  0  0  0  0  0  0  0
   -9.3988    0.5490    0.0000 N   0  0  0  0  0  0  0  0  0  0  0  0
  -10.8254    0.0855    0.0000 C   0  0  0  0  0  0  0  0  0  0  0  0
  -11.2889   -1.3411    0.0000 C   0  0  0  0  0  0  0  0  0  0  0  0
  -12.7561   -1.6529    0.0000 O   0  0  0  0  0  0  0  0  0  0  0  0
  -13.2197   -3.0795    0.0000 C   0  0  0  0  0  0  0  0  0  0  0  0
  -14.6869   -3.3914    0.0000 C   0  0  0  0  0  0  0  0  0  0  0  0
  -15.1504   -4.8180    0.0000 C   0  0  0  0  0  0  0  0  0  0  0  0
  -14.1467   -5.9327    0.0000 C   0  0  0  0  0  0  0  0  0  0  0  0
  -14.6102   -7.3593    0.0000 Cl  0  0  0  0  0  0  0  0  0  0  0  0
  -12.6795   -5.6208    0.0000 C   0  0  0  0  0  0  0  0  0  0  0  0
  -12.2160   -4.1942    0.0000 C   0  0  0  0  0  0  0  0  0  0  0  0
  -11.7071    1.2990    0.0000 N   0  0  0  0  0  0  0  0  0  0  0  0
  -10.8254    2.5126    0.0000 N   0  0  0  0  0  0  0  0  0  0  0  0
   -9.3988    2.0490    0.0000 C   0  0  0  0  0  0  0  0  0  0  0  0
   -7.9722    2.5126    0.0000 S   0  0  0  0  0  0  0  0  0  0  0  0
   -2.4589    1.2135    0.0000 N   0  0  0  0  0  0  0  0  0  0  0  0
   -1.0323    0.7500    0.0000 N   0  0  0  0  0  0  0  0  0  0  0  0
    1.7849    5.4933    0.0000 C   0  0  0  0  0  0  0  0  0  0  0  0
    2.2484    6.9199    0.0000 C   0  0  0  0  0  0  0  0  0  0  0  0
  1  2  1  0
  2  3  2  0
  3  4  1  0
  4  5  2  0
  5  6  1  0
  6  7  1  0
  7  8  1  0
  8  9  2  0
  9 10  1  0
 10 11  2  0
 11 12  1  0
 12 13  1  0
 13 14  1  0
 14 15  1  0
 15 16  1  0
 16 17  2  0
 17 18  1  0
 18 19  1  0
 19 20  1  0
 20 21  1  0
 21 22  1  0
 22 23  2  0
 23 24  1  0
 24 25  2  0
 25 26  1  0
 25 27  1  0
 27 28  2  0
 19 29  2  0
 29 30  1  0
 30 31  2  0
 31 32  1  0
 13 33  2  0
 33 34  1  0
  5 35  1  0
 35 36  2  0
 36  2  1  0
 34  8  1  0
 34 11  1  0
 32 16  1  0
 31 18  1  0
 28 22  1  0
M  END
>  <Compound_ID>  (381) 
CHEMBL551258

>  <Active>  (381) 
1.0

>  <Smiles>  (381) 
Clc1ccc(OCc2nnc3sc(SSc4nn5c(COc6ccc(Cl)cc6)nnc5s4)nn23)cc1

>  <canonical_smi>  (381) 
Clc1ccc(OCc2nnc3sc(SSc4nn5c(COc6ccc(Cl)cc6)nnc5s4)nn23)cc1

>  <Set>  (381) 
G2 active

>  <Set_type>  (381) 
Train

>  <MW>  (381) 
595.54

>  <HBD>  (381) 
0

>  <HBA>  (381) 
10

>  <NRB>  (381) 
9

>  <NR>  (381) 
6

>  <NAR>  (381) 
6

>  <PSA>  (381) 
104.62

>  <Standard Type>  (381) 
nan

>  <Standard Relation>  (381) 
nan

>  <Standard Units>  (381) 
nan

>  <Standard Value>  (381) 
nan

>  <Assay ChEMBL ID>  (381) 
nan

>  <Assay Description>  (381) 
nan

>  <BAO Label>  (381) 
nan

$$$$

     RDKit          2D

 30 34  0  0  0  0  0  0  0  0999 V2000
   -1.5000   -5.1962    0.0000 O   0  0  0  0  0  0  0  0  0  0  0  0
   -0.7500   -3.8971    0.0000 C   0  0  0  0  0  0  0  0  0  0  0  0
    0.7500   -3.8971    0.0000 C   0  0  0  0  0  0  0  0  0  0  0  0
    1.5000   -2.5981    0.0000 C   0  0  0  0  0  0  0  0  0  0  0  0
    0.7500   -1.2990    0.0000 C   0  0  0  0  0  0  0  0  0  0  0  0
    1.5000    0.0000    0.0000 C   0  0  0  0  0  0  0  0  0  0  0  0
    0.7500    1.2990    0.0000 N   0  0  0  0  0  0  0  0  0  0  0  0
   -0.7500    1.2990    0.0000 C   0  0  0  0  0  0  0  0  0  0  0  0
   -1.5000    2.5981    0.0000 N   0  0  0  0  0  0  0  0  0  0  0  0
   -0.7500    3.8971    0.0000 C   0  0  0  0  0  0  0  0  0  0  0  0
    0.7500    3.8971    0.0000 C   0  0  0  0  0  0  0  0  0  0  0  0
    1.5000    5.1962    0.0000 C   0  0  0  0  0  0  0  0  0  0  0  0
    0.7500    6.4952    0.0000 C   0  0  0  0  0  0  0  0  0  0  0  0
    1.5000    7.7942    0.0000 N   0  0  0  0  0  0  0  0  0  0  0  0
    3.0000    7.7942    0.0000 C   0  0  0  0  0  0  0  0  0  0  0  0
    3.7500    9.0933    0.0000 C   0  0  0  0  0  0  0  0  0  0  0  0
    3.0000   10.3923    0.0000 N   0  0  0  0  0  0  0  0  0  0  0  0
    1.5000   10.3923    0.0000 C   0  0  0  0  0  0  0  0  0  0  0  0
    0.7500    9.0933    0.0000 C   0  0  0  0  0  0  0  0  0  0  0  0
   -0.7500    6.4952    0.0000 C   0  0  0  0  0  0  0  0  0  0  0  0
   -1.5000    5.1962    0.0000 N   0  0  0  0  0  0  0  0  0  0  0  0
   -1.5000    0.0000    0.0000 N   0  0  0  0  0  0  0  0  0  0  0  0
   -0.7500   -1.2990    0.0000 C   0  0  0  0  0  0  0  0  0  0  0  0
   -1.5000   -2.5981    0.0000 N   0  0  0  0  0  0  0  0  0  0  0  0
   -3.0000   -2.5981    0.0000 C   0  0  0  0  0  0  0  0  0  0  0  0
   -3.7500   -1.2990    0.0000 C   0  0  0  0  0  0  0  0  0  0  0  0
   -5.2500   -1.2990    0.0000 C   0  0  0  0  0  0  0  0  0  0  0  0
   -6.0000   -2.5981    0.0000 C   0  0  0  0  0  0  0  0  0  0  0  0
   -5.2500   -3.8971    0.0000 C   0  0  0  0  0  0  0  0  0  0  0  0
   -3.7500   -3.8971    0.0000 C   0  0  0  0  0  0  0  0  0  0  0  0
  1  2  2  0
  2  3  1  0
  3  4  2  0
  4  5  1  0
  5  6  2  0
  6  7  1  0
  7  8  2  0
  8  9  1  0
  9 10  1  0
 10 11  2  0
 11 12  1  0
 12 13  2  0
 13 14  1  0
 14 15  1  0
 15 16  1  0
 16 17  1  0
 17 18  1  0
 18 19  1  0
 13 20  1  0
 20 21  2  0
  8 22  1  0
 22 23  2  0
 23 24  1  0
 24 25  1  0
 25 26  1  0
 26 27  1  0
 27 28  1  0
 28 29  1  0
 29 30  1  0
 24  2  1  0
 30 25  1  0
 23  5  1  0
 21 10  1  0
 19 14  1  0
M  END
>  <Compound_ID>  (382) 
CHEMBL373300

>  <Active>  (382) 
1.0

>  <Smiles>  (382) 
O=c1ccc2cnc(Nc3ccc(N4CCNCC4)cn3)nc2n1C1CCCCC1

>  <canonical_smi>  (382) 
O=c1ccc2cnc(Nc3ccc(N4CCNCC4)cn3)nc2n1C1CCCCC1

>  <Set>  (382) 
G2 active

>  <Set_type>  (382) 
Train

>  <MW>  (382) 
405.51

>  <HBD>  (382) 
2

>  <HBA>  (382) 
7

>  <NRB>  (382) 
4

>  <NR>  (382) 
5

>  <NAR>  (382) 
3

>  <PSA>  (382) 
87.97

>  <Standard Type>  (382) 
nan

>  <Standard Relation>  (382) 
nan

>  <Standard Units>  (382) 
nan

>  <Standard Value>  (382) 
nan

>  <Assay ChEMBL ID>  (382) 
nan

>  <Assay Description>  (382) 
nan

>  <BAO Label>  (382) 
nan

$$$$

     RDKit          2D

 25 27  0  0  0  0  0  0  0  0999 V2000
   -9.7500   -9.0933    0.0000 C   0  0  0  0  0  0  0  0  0  0  0  0
   -8.2500   -9.0933    0.0000 O   0  0  0  0  0  0  0  0  0  0  0  0
   -7.5000   -7.7942    0.0000 C   0  0  0  0  0  0  0  0  0  0  0  0
   -8.2500   -6.4952    0.0000 C   0  0  0  0  0  0  0  0  0  0  0  0
   -7.5000   -5.1962    0.0000 C   0  0  0  0  0  0  0  0  0  0  0  0
   -6.0000   -5.1962    0.0000 C   0  0  0  0  0  0  0  0  0  0  0  0
   -5.2500   -3.8971    0.0000 C   0  0  0  0  0  0  0  0  0  0  0  0
   -3.7500   -3.8971    0.0000 N   0  0  0  0  0  0  0  0  0  0  0  0
   -3.0000   -2.5981    0.0000 C   0  0  0  0  0  0  0  0  0  0  0  0
   -1.5000   -2.5981    0.0000 C   0  0  0  0  0  0  0  0  0  0  0  0
   -0.7500   -3.8971    0.0000 C   0  0  0  0  0  0  0  0  0  0  0  0
   -1.5000   -5.1962    0.0000 O   0  0  0  0  0  0  0  0  0  0  0  0
    0.7500   -3.8971    0.0000 N   0  0  0  0  0  0  0  0  0  0  0  0
    1.5000   -2.5981    0.0000 C   0  0  0  0  0  0  0  0  0  0  0  0
    3.0000   -2.5981    0.0000 O   0  0  0  0  0  0  0  0  0  0  0  0
    0.7500   -1.2990    0.0000 C   0  0  0  0  0  0  0  0  0  0  0  0
    1.5000    0.0000    0.0000 C   0  0  0  0  0  0  0  0  0  0  0  0
    0.7500    1.2990    0.0000 C   0  0  0  0  0  0  0  0  0  0  0  0
   -0.7500    1.2990    0.0000 C   0  0  0  0  0  0  0  0  0  0  0  0
   -1.5000    2.5981    0.0000 I   0  0  0  0  0  0  0  0  0  0  0  0
   -1.5000    0.0000    0.0000 C   0  0  0  0  0  0  0  0  0  0  0  0
   -0.7500   -1.2990    0.0000 C   0  0  0  0  0  0  0  0  0  0  0  0
   -5.2500   -6.4952    0.0000 C   0  0  0  0  0  0  0  0  0  0  0  0
   -6.0000   -7.7942    0.0000 C   0  0  0  0  0  0  0  0  0  0  0  0
   -5.2500   -9.0933    0.0000 O   0  0  0  0  0  0  0  0  0  0  0  0
  1  2  1  0
  2  3  1  0
  3  4  2  0
  4  5  1  0
  5  6  2  0
  6  7  1  0
  7  8  1  0
  8  9  1  0
  9 10  2  0
 10 11  1  0
 11 12  2  0
 11 13  1  0
 13 14  1  0
 14 15  2  0
 14 16  1  0
 16 17  2  0
 17 18  1  0
 18 19  2  0
 19 20  1  0
 19 21  1  0
 21 22  2  0
  6 23  1  0
 23 24  2  0
 24 25  1  0
 24  3  1  0
 22 10  1  0
 22 16  1  0
M  END
>  <Compound_ID>  (383) 
CHEMBL489245

>  <Active>  (383) 
1.0

>  <Smiles>  (383) 
COc1ccc(CN/C=C2\C(=O)NC(=O)c3ccc(I)cc32)cc1O

>  <canonical_smi>  (383) 
COc1ccc(CN/C=C2\C(=O)NC(=O)c3ccc(I)cc32)cc1O

>  <Set>  (383) 
G2 active

>  <Set_type>  (383) 
Train

>  <MW>  (383) 
450.23

>  <HBD>  (383) 
3

>  <HBA>  (383) 
5

>  <NRB>  (383) 
4

>  <NR>  (383) 
3

>  <NAR>  (383) 
2

>  <PSA>  (383) 
87.66

>  <Standard Type>  (383) 
nan

>  <Standard Relation>  (383) 
nan

>  <Standard Units>  (383) 
nan

>  <Standard Value>  (383) 
nan

>  <Assay ChEMBL ID>  (383) 
nan

>  <Assay Description>  (383) 
nan

>  <BAO Label>  (383) 
nan

$$$$

     RDKit          2D

 23 25  0  0  0  0  0  0  0  0999 V2000
    3.5260    1.2990    0.0000 C   0  0  0  0  0  0  0  0  0  0  0  0
    2.7760    0.0000    0.0000 C   0  0  0  0  0  0  0  0  0  0  0  0
    3.5260   -1.2990    0.0000 C   0  0  0  0  0  0  0  0  0  0  0  0
    1.2760    0.0000    0.0000 N   0  0  0  0  0  0  0  0  0  0  0  0
    0.3943    1.2135    0.0000 C   0  0  0  0  0  0  0  0  0  0  0  0
   -1.0323    0.7500    0.0000 N   0  0  0  0  0  0  0  0  0  0  0  0
   -1.0323   -0.7500    0.0000 C   0  0  0  0  0  0  0  0  0  0  0  0
   -2.1470   -1.7537    0.0000 C   0  0  0  0  0  0  0  0  0  0  0  0
   -3.5736   -1.2902    0.0000 N   0  0  0  0  0  0  0  0  0  0  0  0
   -4.6883   -2.2939    0.0000 C   0  0  0  0  0  0  0  0  0  0  0  0
   -4.5315   -3.7856    0.0000 C   0  0  0  0  0  0  0  0  0  0  0  0
   -5.9018   -4.3958    0.0000 C   0  0  0  0  0  0  0  0  0  0  0  0
   -6.9055   -3.2810    0.0000 C   0  0  0  0  0  0  0  0  0  0  0  0
   -6.1555   -1.9820    0.0000 C   0  0  0  0  0  0  0  0  0  0  0  0
   -1.8351   -3.2209    0.0000 N   0  0  0  0  0  0  0  0  0  0  0  0
   -0.4086   -3.6844    0.0000 C   0  0  0  0  0  0  0  0  0  0  0  0
   -0.0967   -5.1517    0.0000 N   0  0  0  0  0  0  0  0  0  0  0  0
   -1.2114   -6.1554    0.0000 C   0  0  0  0  0  0  0  0  0  0  0  0
   -0.8995   -7.6226    0.0000 C   0  0  0  0  0  0  0  0  0  0  0  0
   -2.0143   -8.6263    0.0000 C   0  0  0  0  0  0  0  0  0  0  0  0
   -1.7024  -10.0935    0.0000 O   0  0  0  0  0  0  0  0  0  0  0  0
    0.7062   -2.6807    0.0000 N   0  0  0  0  0  0  0  0  0  0  0  0
    0.3943   -1.2135    0.0000 C   0  0  0  0  0  0  0  0  0  0  0  0
  1  2  1  0
  2  3  1  0
  2  4  1  0
  4  5  1  0
  5  6  2  0
  6  7  1  0
  7  8  2  0
  8  9  1  0
  9 10  1  0
 10 11  1  0
 11 12  1  0
 12 13  1  0
 13 14  1  0
  8 15  1  0
 15 16  2  0
 16 17  1  0
 17 18  1  0
 18 19  1  0
 19 20  1  0
 20 21  1  0
 16 22  1  0
 22 23  2  0
 23  4  1  0
 23  7  1  0
 14 10  1  0
M  END
>  <Compound_ID>  (384) 
CHEMBL315837

>  <Active>  (384) 
1.0

>  <Smiles>  (384) 
CC(C)n1cnc2c(NC3CCCC3)nc(NCCCO)nc21

>  <canonical_smi>  (384) 
CC(C)n1cnc2c(NC3CCCC3)nc(NCCCO)nc21

>  <Set>  (384) 
G2 active

>  <Set_type>  (384) 
Train

>  <MW>  (384) 
318.43

>  <HBD>  (384) 
3

>  <HBA>  (384) 
6

>  <NRB>  (384) 
7

>  <NR>  (384) 
3

>  <NAR>  (384) 
2

>  <PSA>  (384) 
87.89

>  <Standard Type>  (384) 
nan

>  <Standard Relation>  (384) 
nan

>  <Standard Units>  (384) 
nan

>  <Standard Value>  (384) 
nan

>  <Assay ChEMBL ID>  (384) 
nan

>  <Assay Description>  (384) 
nan

>  <BAO Label>  (384) 
nan

$$$$

     RDKit          2D

 38 44  0  0  0  0  0  0  0  0999 V2000
    3.7500   -1.2990    0.0000 C   0  0  0  0  0  0  0  0  0  0  0  0
    3.0000    0.0000    0.0000 O   0  0  0  0  0  0  0  0  0  0  0  0
    1.5000    0.0000    0.0000 C   0  0  0  0  0  0  0  0  0  0  0  0
    0.7500   -1.2990    0.0000 C   0  0  0  0  0  0  0  0  0  0  0  0
   -0.7500   -1.2990    0.0000 C   0  0  0  0  0  0  0  0  0  0  0  0
   -1.5000    0.0000    0.0000 C   0  0  0  0  0  0  0  0  0  0  0  0
   -2.9672    0.3119    0.0000 C   0  0  0  0  0  0  0  0  0  0  0  0
   -4.1807   -0.5698    0.0000 C   0  0  0  0  0  0  0  0  0  0  0  0
   -5.5511    0.0403    0.0000 C   0  0  0  0  0  0  0  0  0  0  0  0
   -5.7079    1.5321    0.0000 C   0  0  0  0  0  0  0  0  0  0  0  0
   -4.4943    2.4138    0.0000 C   0  0  0  0  0  0  0  0  0  0  0  0
   -4.6511    3.9055    0.0000 C   0  0  0  0  0  0  0  0  0  0  0  0
   -6.0214    4.5156    0.0000 C   0  0  0  0  0  0  0  0  0  0  0  0
   -7.2350    3.6340    0.0000 C   0  0  0  0  0  0  0  0  0  0  0  0
   -8.7022    3.9458    0.0000 C   0  0  0  0  0  0  0  0  0  0  0  0
   -9.4522    2.6468    0.0000 C   0  0  0  0  0  0  0  0  0  0  0  0
   -8.4485    1.5321    0.0000 N   0  0  0  0  0  0  0  0  0  0  0  0
   -8.7604    0.0649    0.0000 C   0  0  0  0  0  0  0  0  0  0  0  0
   -7.0782    2.1422    0.0000 C   0  0  0  0  0  0  0  0  0  0  0  0
   -3.1240    1.8037    0.0000 C   0  0  0  0  0  0  0  0  0  0  0  0
   -1.7537    2.4138    0.0000 N   0  0  0  0  0  0  0  0  0  0  0  0
   -1.4418    3.8810    0.0000 C   0  0  0  0  0  0  0  0  0  0  0  0
   -0.0152    4.3445    0.0000 C   0  0  0  0  0  0  0  0  0  0  0  0
    0.2966    5.8117    0.0000 N   0  0  0  0  0  0  0  0  0  0  0  0
    1.7232    6.2752    0.0000 C   0  0  0  0  0  0  0  0  0  0  0  0
    2.8379    5.2716    0.0000 C   0  0  0  0  0  0  0  0  0  0  0  0
    4.2645    5.7351    0.0000 C   0  0  0  0  0  0  0  0  0  0  0  0
    4.5764    7.2023    0.0000 C   0  0  0  0  0  0  0  0  0  0  0  0
    6.0030    7.6658    0.0000 O   0  0  0  0  0  0  0  0  0  0  0  0
    3.4617    8.2060    0.0000 C   0  0  0  0  0  0  0  0  0  0  0  0
    2.0351    7.7425    0.0000 C   0  0  0  0  0  0  0  0  0  0  0  0
   -0.7500    1.2990    0.0000 C   0  0  0  0  0  0  0  0  0  0  0  0
    0.7500    1.2990    0.0000 C   0  0  0  0  0  0  0  0  0  0  0  0
   -6.5548   -1.0744    0.0000 C   0  0  0  0  0  0  0  0  0  0  0  0
   -8.0465   -0.9176    0.0000 O   0  0  0  0  0  0  0  0  0  0  0  0
   -5.8048   -2.3735    0.0000 N   0  0  0  0  0  0  0  0  0  0  0  0
   -4.3375   -2.0616    0.0000 C   0  0  0  0  0  0  0  0  0  0  0  0
   -3.2228   -3.0653    0.0000 O   0  0  0  0  0  0  0  0  0  0  0  0
  1  2  1  0
  2  3  1  0
  3  4  2  0
  4  5  1  0
  5  6  2  0
  6  7  1  0
  7  8  2  0
  8  9  1  0
  9 10  2  0
 10 11  1  0
 11 12  1  0
 12 13  2  0
 13 14  1  0
 14 15  1  0
 15 16  2  0
 16 17  1  0
 17 18  1  0
 17 19  1  0
 11 20  2  0
 20 21  1  0
 21 22  1  0
 22 23  1  0
 23 24  1  0
 24 25  1  0
 25 26  1  0
 26 27  1  0
 27 28  1  0
 28 29  1  0
 28 30  1  0
 30 31  1  0
 21 32  1  0
 32 33  2  0
  9 34  1  0
 34 35  2  0
 34 36  1  0
 36 37  1  0
 37 38  2  0
 33  3  1  0
 32  6  1  0
 20  7  1  0
 31 25  1  0
 37  8  1  0
 19 10  1  0
 19 14  2  0
M  END
>  <Compound_ID>  (385) 
CHEMBL311851

>  <Active>  (385) 
1.0

>  <Smiles>  (385) 
COc1ccc2c3c4c(c5c(ccc6ccn(C)c65)c3n(CCNC3CCC(O)CC3)c2c1)C(=O)NC4=O

>  <canonical_smi>  (385) 
COc1ccc2c3c4c(c5c(ccc6ccn(C)c65)c3n(CCNC3CCC(O)CC3)c2c1)C(=O)NC4=O

>  <Set>  (385) 
G2 active

>  <Set_type>  (385) 
Train

>  <MW>  (385) 
510.59

>  <HBD>  (385) 
3

>  <HBA>  (385) 
5

>  <NRB>  (385) 
5

>  <NR>  (385) 
7

>  <NAR>  (385) 
5

>  <PSA>  (385) 
97.52

>  <Standard Type>  (385) 
nan

>  <Standard Relation>  (385) 
nan

>  <Standard Units>  (385) 
nan

>  <Standard Value>  (385) 
nan

>  <Assay ChEMBL ID>  (385) 
nan

>  <Assay Description>  (385) 
nan

>  <BAO Label>  (385) 
nan

$$$$

     RDKit          2D

 36 42  0  0  0  0  0  0  0  0999 V2000
    3.7500   -1.2990    0.0000 C   0  0  0  0  0  0  0  0  0  0  0  0
    3.0000    0.0000    0.0000 O   0  0  0  0  0  0  0  0  0  0  0  0
    1.5000    0.0000    0.0000 C   0  0  0  0  0  0  0  0  0  0  0  0
    0.7500   -1.2990    0.0000 C   0  0  0  0  0  0  0  0  0  0  0  0
   -0.7500   -1.2990    0.0000 C   0  0  0  0  0  0  0  0  0  0  0  0
   -1.5000    0.0000    0.0000 C   0  0  0  0  0  0  0  0  0  0  0  0
   -2.9672    0.3119    0.0000 C   0  0  0  0  0  0  0  0  0  0  0  0
   -4.1807   -0.5698    0.0000 C   0  0  0  0  0  0  0  0  0  0  0  0
   -5.5511    0.0403    0.0000 C   0  0  0  0  0  0  0  0  0  0  0  0
   -5.7079    1.5321    0.0000 C   0  0  0  0  0  0  0  0  0  0  0  0
   -4.4943    2.4138    0.0000 C   0  0  0  0  0  0  0  0  0  0  0  0
   -4.6511    3.9055    0.0000 C   0  0  0  0  0  0  0  0  0  0  0  0
   -6.0214    4.5156    0.0000 C   0  0  0  0  0  0  0  0  0  0  0  0
   -7.2350    3.6340    0.0000 C   0  0  0  0  0  0  0  0  0  0  0  0
   -8.7022    3.9458    0.0000 C   0  0  0  0  0  0  0  0  0  0  0  0
   -9.4522    2.6468    0.0000 C   0  0  0  0  0  0  0  0  0  0  0  0
   -8.4485    1.5321    0.0000 N   0  0  0  0  0  0  0  0  0  0  0  0
   -8.7604    0.0649    0.0000 C   0  0  0  0  0  0  0  0  0  0  0  0
   -7.0782    2.1422    0.0000 C   0  0  0  0  0  0  0  0  0  0  0  0
   -3.1240    1.8037    0.0000 C   0  0  0  0  0  0  0  0  0  0  0  0
   -1.7537    2.4138    0.0000 N   0  0  0  0  0  0  0  0  0  0  0  0
   -1.4418    3.8810    0.0000 C   0  0  0  0  0  0  0  0  0  0  0  0
   -0.0152    4.3445    0.0000 C   0  0  0  0  0  0  0  0  0  0  0  0
    0.2966    5.8117    0.0000 N   0  0  0  0  0  0  0  0  0  0  0  0
    1.7232    6.2752    0.0000 C   0  0  0  0  0  0  0  0  0  0  0  0
    2.0351    7.7425    0.0000 C   0  0  0  0  0  0  0  0  0  0  0  0
    0.9204    8.7462    0.0000 C   0  0  0  0  0  0  0  0  0  0  0  0
   -0.5062    8.2826    0.0000 C   0  0  0  0  0  0  0  0  0  0  0  0
   -0.8181    6.8154    0.0000 C   0  0  0  0  0  0  0  0  0  0  0  0
   -0.7500    1.2990    0.0000 C   0  0  0  0  0  0  0  0  0  0  0  0
    0.7500    1.2990    0.0000 C   0  0  0  0  0  0  0  0  0  0  0  0
   -6.5548   -1.0744    0.0000 C   0  0  0  0  0  0  0  0  0  0  0  0
   -8.0465   -0.9176    0.0000 O   0  0  0  0  0  0  0  0  0  0  0  0
   -5.8048   -2.3735    0.0000 N   0  0  0  0  0  0  0  0  0  0  0  0
   -4.3375   -2.0616    0.0000 C   0  0  0  0  0  0  0  0  0  0  0  0
   -3.2228   -3.0653    0.0000 O   0  0  0  0  0  0  0  0  0  0  0  0
  1  2  1  0
  2  3  1  0
  3  4  2  0
  4  5  1  0
  5  6  2  0
  6  7  1  0
  7  8  2  0
  8  9  1  0
  9 10  2  0
 10 11  1  0
 11 12  1  0
 12 13  2  0
 13 14  1  0
 14 15  1  0
 15 16  2  0
 16 17  1  0
 17 18  1  0
 17 19  1  0
 11 20  2  0
 20 21  1  0
 21 22  1  0
 22 23  1  0
 23 24  1  0
 24 25  1  0
 25 26  1  0
 26 27  1  0
 27 28  1  0
 28 29  1  0
 21 30  1  0
 30 31  2  0
  9 32  1  0
 32 33  2  0
 32 34  1  0
 34 35  1  0
 35 36  2  0
 31  3  1  0
 30  6  1  0
 20  7  1  0
 29 24  1  0
 35  8  1  0
 19 10  1  0
 19 14  2  0
M  END
>  <Compound_ID>  (386) 
CHEMBL75610

>  <Active>  (386) 
1.0

>  <Smiles>  (386) 
COc1ccc2c3c4c(c5c(ccc6ccn(C)c65)c3n(CCN3CCCCC3)c2c1)C(=O)NC4=O

>  <canonical_smi>  (386) 
COc1ccc2c3c4c(c5c(ccc6ccn(C)c65)c3n(CCN3CCCCC3)c2c1)C(=O)NC4=O

>  <Set>  (386) 
G2 active

>  <Set_type>  (386) 
Train

>  <MW>  (386) 
480.57

>  <HBD>  (386) 
1

>  <HBA>  (386) 
4

>  <NRB>  (386) 
4

>  <NR>  (386) 
7

>  <NAR>  (386) 
5

>  <PSA>  (386) 
68.5

>  <Standard Type>  (386) 
nan

>  <Standard Relation>  (386) 
nan

>  <Standard Units>  (386) 
nan

>  <Standard Value>  (386) 
nan

>  <Assay ChEMBL ID>  (386) 
nan

>  <Assay Description>  (386) 
nan

>  <BAO Label>  (386) 
nan

$$$$

     RDKit          2D

 18 19  0  0  0  0  0  0  0  0999 V2000
   -3.6375   -7.8476    0.0000 C   0  0  0  0  0  0  0  0  0  0  0  0
   -2.4240   -8.7293    0.0000 C   0  0  0  0  0  0  0  0  0  0  0  0
   -2.5808  -10.2211    0.0000 C   0  0  0  0  0  0  0  0  0  0  0  0
   -1.0537   -8.1192    0.0000 C   0  0  0  0  0  0  0  0  0  0  0  0
    0.2454   -8.8692    0.0000 C   0  0  0  0  0  0  0  0  0  0  0  0
    1.3601   -7.8655    0.0000 N   0  0  0  0  0  0  0  0  0  0  0  0
    0.7500   -6.4952    0.0000 C   0  0  0  0  0  0  0  0  0  0  0  0
    1.5000   -5.1962    0.0000 N   0  0  0  0  0  0  0  0  0  0  0  0
    0.7500   -3.8971    0.0000 C   0  0  0  0  0  0  0  0  0  0  0  0
   -0.7500   -3.8971    0.0000 O   0  0  0  0  0  0  0  0  0  0  0  0
    1.5000   -2.5981    0.0000 O   0  0  0  0  0  0  0  0  0  0  0  0
    0.7500   -1.2990    0.0000 C   0  0  0  0  0  0  0  0  0  0  0  0
    1.5000    0.0000    0.0000 C   0  0  0  0  0  0  0  0  0  0  0  0
    0.7500    1.2990    0.0000 C   0  0  0  0  0  0  0  0  0  0  0  0
   -0.7500    1.2990    0.0000 C   0  0  0  0  0  0  0  0  0  0  0  0
   -1.5000    0.0000    0.0000 C   0  0  0  0  0  0  0  0  0  0  0  0
   -0.7500   -1.2990    0.0000 C   0  0  0  0  0  0  0  0  0  0  0  0
   -0.7418   -6.6520    0.0000 S   0  0  0  0  0  0  0  0  0  0  0  0
  1  2  1  0
  2  3  1  0
  2  4  1  0
  4  5  2  0
  5  6  1  0
  6  7  2  0
  7  8  1  0
  8  9  1  0
  9 10  2  0
  9 11  1  0
 11 12  1  0
 12 13  2  0
 13 14  1  0
 14 15  2  0
 15 16  1  0
 16 17  2  0
  7 18  1  0
 18  4  1  0
 17 12  1  0
M  END
>  <Compound_ID>  (387) 
CHEMBL186120

>  <Active>  (387) 
1.0

>  <Smiles>  (387) 
CC(C)c1cnc(NC(=O)Oc2ccccc2)s1

>  <canonical_smi>  (387) 
CC(C)c1cnc(NC(=O)Oc2ccccc2)s1

>  <Set>  (387) 
G2 active

>  <Set_type>  (387) 
Train

>  <MW>  (387) 
262.33

>  <HBD>  (387) 
1

>  <HBA>  (387) 
3

>  <NRB>  (387) 
3

>  <NR>  (387) 
2

>  <NAR>  (387) 
2

>  <PSA>  (387) 
51.22

>  <Standard Type>  (387) 
nan

>  <Standard Relation>  (387) 
nan

>  <Standard Units>  (387) 
nan

>  <Standard Value>  (387) 
nan

>  <Assay ChEMBL ID>  (387) 
nan

>  <Assay Description>  (387) 
nan

>  <BAO Label>  (387) 
nan

$$$$

     RDKit          2D

 36 41  0  0  0  0  0  0  0  0999 V2000
   -3.1752   -0.7688    0.0000 O   0  0  0  0  0  0  0  0  0  0  0  0
   -3.8004   -2.1323    0.0000 C   0  0  0  0  0  0  0  0  0  0  0  0
   -5.2710   -2.4280    0.0000 N   0  0  0  0  0  0  0  0  0  0  0  0
   -5.4442   -3.9180    0.0000 C   0  0  0  0  0  0  0  0  0  0  0  0
   -6.7514   -4.6536    0.0000 O   0  0  0  0  0  0  0  0  0  0  0  0
   -4.0807   -4.5431    0.0000 C   0  0  0  0  0  0  0  0  0  0  0  0
   -3.0648   -3.4395    0.0000 C   0  0  0  0  0  0  0  0  0  0  0  0
   -1.2135   -2.7256    0.0000 C   0  0  0  0  0  0  0  0  0  0  0  0
   -0.0000   -3.6073    0.0000 C   0  0  0  0  0  0  0  0  0  0  0  0
    1.2135   -2.7256    0.0000 N   0  0  0  0  0  0  0  0  0  0  0  0
    0.7500   -1.2990    0.0000 C   0  0  0  0  0  0  0  0  0  0  0  0
    1.5000    0.0000    0.0000 C   0  0  0  0  0  0  0  0  0  0  0  0
    0.7500    1.2990    0.0000 C   0  0  0  0  0  0  0  0  0  0  0  0
   -0.7500    1.2990    0.0000 C   0  0  0  0  0  0  0  0  0  0  0  0
   -1.5000    0.0000    0.0000 C   0  0  0  0  0  0  0  0  0  0  0  0
   -0.7500   -1.2990    0.0000 C   0  0  0  0  0  0  0  0  0  0  0  0
    2.5327   -3.4395    0.0000 C   0  0  0  0  0  0  0  0  0  0  0  0
    3.5487   -4.5431    0.0000 C   0  0  0  0  0  0  0  0  0  0  0  0
    4.1512   -5.9168    0.0000 O   0  0  0  0  0  0  0  0  0  0  0  0
    4.2751   -7.4117    0.0000 C   0  0  0  0  0  0  0  0  0  0  0  0
    3.9068   -8.8658    0.0000 C   0  0  0  0  0  0  0  0  0  0  0  0
    3.0864  -10.1215    0.0000 O   0  0  0  0  0  0  0  0  0  0  0  0
    1.9027  -11.0428    0.0000 C   0  0  0  0  0  0  0  0  0  0  0  0
    0.4840  -11.5299    0.0000 C   0  0  0  0  0  0  0  0  0  0  0  0
   -1.0160  -11.5299    0.0000 O   0  0  0  0  0  0  0  0  0  0  0  0
   -2.4347  -11.0428    0.0000 C   0  0  0  0  0  0  0  0  0  0  0  0
   -3.6185  -10.1215    0.0000 C   0  0  0  0  0  0  0  0  0  0  0  0
   -4.4389   -8.8658    0.0000 N   0  0  0  0  0  0  0  0  0  0  0  0
   -4.8071   -7.4117    0.0000 C   0  0  0  0  0  0  0  0  0  0  0  0
   -4.6832   -5.9168    0.0000 C   0  0  0  0  0  0  0  0  0  0  0  0
   -6.0667   -6.4965    0.0000 C   0  0  0  0  0  0  0  0  0  0  0  0
   -7.4232   -5.8564    0.0000 C   0  0  0  0  0  0  0  0  0  0  0  0
   -8.6559   -6.7111    0.0000 C   0  0  0  0  0  0  0  0  0  0  0  0
   -8.5320   -8.2060    0.0000 C   0  0  0  0  0  0  0  0  0  0  0  0
   -7.1755   -8.8461    0.0000 C   0  0  0  0  0  0  0  0  0  0  0  0
   -5.9428   -7.9914    0.0000 C   0  0  0  0  0  0  0  0  0  0  0  0
  1  2  2  0
  2  3  1  0
  3  4  1  0
  4  5  2  0
  4  6  1  0
  6  7  2  0
  7  8  1  0
  8  9  2  0
  9 10  1  0
 10 11  1  0
 11 12  2  0
 12 13  1  0
 13 14  2  0
 14 15  1  0
 15 16  2  0
 10 17  1  0
 17 18  1  0
 18 19  1  0
 19 20  1  0
 20 21  1  0
 21 22  1  0
 22 23  1  0
 23 24  1  0
 24 25  1  0
 25 26  1  0
 26 27  1  0
 27 28  1  0
 28 29  1  0
 29 30  2  0
 30 31  1  0
 31 32  2  0
 32 33  1  0
 33 34  2  0
 34 35  1  0
 35 36  2  0
  7  2  1  0
 16  8  1  0
 36 28  1  0
 30  6  1  0
 36 31  1  0
 16 11  1  0
M  END
>  <Compound_ID>  (388) 
CHEMBL340259

>  <Active>  (388) 
1.0

>  <Smiles>  (388) 
O=C1NC(=O)C2=C1c1cn(c3ccccc13)CCOCCOCCOCCn1cc2c2ccccc21

>  <canonical_smi>  (388) 
O=C1NC(=O)C2=C1c1cn(c3ccccc13)CCOCCOCCOCCn1cc2c2ccccc21

>  <Set>  (388) 
G2 active

>  <Set_type>  (388) 
Train

>  <MW>  (388) 
485.54

>  <HBD>  (388) 
1

>  <HBA>  (388) 
5

>  <NRB>  (388) 
0

>  <NR>  (388) 
6

>  <NAR>  (388) 
4

>  <PSA>  (388) 
83.72

>  <Standard Type>  (388) 
nan

>  <Standard Relation>  (388) 
nan

>  <Standard Units>  (388) 
nan

>  <Standard Value>  (388) 
nan

>  <Assay ChEMBL ID>  (388) 
nan

>  <Assay Description>  (388) 
nan

>  <BAO Label>  (388) 
nan

$$$$

     RDKit          2D

 21 23  0  0  0  0  0  0  0  0999 V2000
   -0.7500   -3.8971    0.0000 O   0  0  0  0  0  0  0  0  0  0  0  0
    0.7500   -3.8971    0.0000 C   0  0  0  0  0  0  0  0  0  0  0  0
    1.5000   -2.5981    0.0000 C   0  0  0  0  0  0  0  0  0  0  0  0
    0.7500   -1.2990    0.0000 C   0  0  0  0  0  0  0  0  0  0  0  0
    1.5000    0.0000    0.0000 C   0  0  0  0  0  0  0  0  0  0  0  0
    0.7500    1.2990    0.0000 C   0  0  0  0  0  0  0  0  0  0  0  0
   -0.7500    1.2990    0.0000 C   0  0  0  0  0  0  0  0  0  0  0  0
   -1.5000    0.0000    0.0000 C   0  0  0  0  0  0  0  0  0  0  0  0
   -0.7500   -1.2990    0.0000 C   0  0  0  0  0  0  0  0  0  0  0  0
    1.5000   -5.1962    0.0000 N   0  0  0  0  0  0  0  0  0  0  0  0
    0.7500   -6.4952    0.0000 C   0  0  0  0  0  0  0  0  0  0  0  0
    1.3601   -7.8655    0.0000 N   0  0  0  0  0  0  0  0  0  0  0  0
    0.2454   -8.8692    0.0000 C   0  0  0  0  0  0  0  0  0  0  0  0
   -1.0537   -8.1192    0.0000 C   0  0  0  0  0  0  0  0  0  0  0  0
   -2.4240   -8.7293    0.0000 C   0  0  0  0  0  0  0  0  0  0  0  0
   -3.6375   -7.8476    0.0000 C   0  0  0  0  0  0  0  0  0  0  0  0
   -5.0078   -8.4577    0.0000 C   0  0  0  0  0  0  0  0  0  0  0  0
   -5.1646   -9.9495    0.0000 C   0  0  0  0  0  0  0  0  0  0  0  0
   -3.9511  -10.8312    0.0000 C   0  0  0  0  0  0  0  0  0  0  0  0
   -2.5808  -10.2211    0.0000 C   0  0  0  0  0  0  0  0  0  0  0  0
   -0.7418   -6.6520    0.0000 S   0  0  0  0  0  0  0  0  0  0  0  0
  1  2  2  0
  2  3  1  0
  3  4  1  0
  4  5  2  0
  5  6  1  0
  6  7  2  0
  7  8  1  0
  8  9  2  0
  2 10  1  0
 10 11  1  0
 11 12  2  0
 12 13  1  0
 13 14  2  0
 14 15  1  0
 15 16  1  0
 16 17  1  0
 17 18  1  0
 18 19  1  0
 19 20  1  0
 14 21  1  0
  9  4  1  0
 21 11  1  0
 20 15  1  0
M  END
>  <Compound_ID>  (389) 
CHEMBL186846

>  <Active>  (389) 
1.0

>  <Smiles>  (389) 
O=C(Cc1ccccc1)Nc1ncc(C2CCCCC2)s1

>  <canonical_smi>  (389) 
O=C(Cc1ccccc1)Nc1ncc(C2CCCCC2)s1

>  <Set>  (389) 
G2 active

>  <Set_type>  (389) 
Train

>  <MW>  (389) 
300.43

>  <HBD>  (389) 
1

>  <HBA>  (389) 
2

>  <NRB>  (389) 
4

>  <NR>  (389) 
3

>  <NAR>  (389) 
2

>  <PSA>  (389) 
41.99

>  <Standard Type>  (389) 
nan

>  <Standard Relation>  (389) 
nan

>  <Standard Units>  (389) 
nan

>  <Standard Value>  (389) 
nan

>  <Assay ChEMBL ID>  (389) 
nan

>  <Assay Description>  (389) 
nan

>  <BAO Label>  (389) 
nan

$$$$

     RDKit          2D

 16 17  0  0  0  0  0  0  0  0999 V2000
    3.0000    0.0000    0.0000 O   0  0  0  0  0  0  0  0  0  0  0  0
    1.5000    0.0000    0.0000 C   0  0  0  0  0  0  0  0  0  0  0  0
    0.7500   -1.2990    0.0000 C   0  0  0  0  0  0  0  0  0  0  0  0
   -0.7500   -1.2990    0.0000 C   0  0  0  0  0  0  0  0  0  0  0  0
   -1.5000    0.0000    0.0000 C   0  0  0  0  0  0  0  0  0  0  0  0
   -3.0000    0.0000    0.0000 C   0  0  0  0  0  0  0  0  0  0  0  0
   -3.7500    1.2990    0.0000 N   0  0  0  0  0  4  0  0  0  0  0  0
   -5.2500    1.2990    0.0000 C   0  0  0  0  0  0  0  0  0  0  0  0
   -6.0000    2.5981    0.0000 C   0  0  0  0  0  0  0  0  0  0  0  0
   -7.4918    2.7549    0.0000 N   0  0  0  0  0  0  0  0  0  0  0  0
   -7.8037    4.2221    0.0000 N   0  0  0  0  0  0  0  0  0  0  0  0
   -6.5046    4.9721    0.0000 N   0  0  0  0  0  0  0  0  0  0  0  0
   -5.3899    3.9684    0.0000 N   0  0  0  0  0  2  0  0  0  0  0  0
   -0.7500    1.2990    0.0000 C   0  0  0  0  0  0  0  0  0  0  0  0
    0.7500    1.2990    0.0000 C   0  0  0  0  0  0  0  0  0  0  0  0
    1.5000    2.5981    0.0000 Br  0  0  0  0  0  0  0  0  0  0  0  0
  1  2  1  0
  2  3  2  0
  3  4  1  0
  4  5  2  0
  5  6  1  0
  6  7  1  0
  7  8  1  0
  8  9  1  0
  9 10  2  0
 10 11  1  0
 11 12  2  0
 12 13  1  0
  5 14  1  0
 14 15  2  0
 15 16  1  0
 15  2  1  0
 13  9  1  0
M  CHG  2   7   1  13  -1
M  END
>  <Compound_ID>  (390) 
C62702802

>  <Active>  (390) 
0.0

>  <Smiles>  (390) 
Oc1ccc(C[NH2+]Cc2nnn[n-]2)cc1Br

>  <canonical_smi>  (390) 
Oc1ccc(C[NH2+]Cc2nnn[n-]2)cc1Br

>  <Set>  (390) 
G2 inactive

>  <Set_type>  (390) 
Train

>  <MW>  (390) 
284.12

>  <HBD>  (390) 
2

>  <HBA>  (390) 
5

>  <NRB>  (390) 
4

>  <NR>  (390) 
2

>  <NAR>  (390) 
2

>  <PSA>  (390) 
89.61

>  <Standard Type>  (390) 
nan

>  <Standard Relation>  (390) 
nan

>  <Standard Units>  (390) 
nan

>  <Standard Value>  (390) 
nan

>  <Assay ChEMBL ID>  (390) 
nan

>  <Assay Description>  (390) 
nan

>  <BAO Label>  (390) 
nan

$$$$

     RDKit          2D

 29 32  0  0  0  0  0  0  0  0999 V2000
   -3.7500   -6.4952    0.0000 C   0  0  0  0  0  0  0  0  0  0  0  0
   -5.2500   -6.4952    0.0000 C   0  0  0  0  0  0  0  0  0  0  0  0
   -6.0000   -7.7942    0.0000 N   0  0  0  0  0  0  0  0  0  0  0  0
   -7.5000   -7.7942    0.0000 C   0  0  0  0  0  0  0  0  0  0  0  0
   -8.5037   -8.9089    0.0000 C   0  0  0  0  0  0  0  0  0  0  0  0
   -8.1918  -10.3762    0.0000 C   0  0  0  0  0  0  0  0  0  0  0  0
   -9.3065  -11.3799    0.0000 N   0  0  0  0  0  0  0  0  0  0  0  0
   -6.7652  -10.8397    0.0000 O   0  0  0  0  0  0  0  0  0  0  0  0
   -9.8740   -8.2988    0.0000 N   0  0  0  0  0  0  0  0  0  0  0  0
   -9.7172   -6.8071    0.0000 C   0  0  0  0  0  0  0  0  0  0  0  0
   -8.2500   -6.4952    0.0000 N   0  0  0  0  0  0  0  0  0  0  0  0
   -7.5000   -5.1962    0.0000 C   0  0  0  0  0  0  0  0  0  0  0  0
   -8.2500   -3.8971    0.0000 C   0  0  0  0  0  0  0  0  0  0  0  0
   -6.0000   -5.1962    0.0000 C   0  0  0  0  0  0  0  0  0  0  0  0
   -5.2500   -3.8971    0.0000 C   0  0  0  0  0  0  0  0  0  0  0  0
   -3.7500   -3.8971    0.0000 C   0  0  0  0  0  0  0  0  0  0  0  0
   -3.0000   -2.5981    0.0000 C   0  0  0  0  0  0  0  0  0  0  0  0
   -3.7500   -1.2990    0.0000 O   0  0  0  0  0  0  0  0  0  0  0  0
   -1.5000   -2.5981    0.0000 N   0  0  0  0  0  0  0  0  0  0  0  0
   -0.7500   -3.8971    0.0000 C   0  0  0  0  0  0  0  0  0  0  0  0
    0.7500   -3.8971    0.0000 C   0  0  0  0  0  0  0  0  0  0  0  0
    1.5000   -2.5981    0.0000 C   0  0  0  0  0  0  0  0  0  0  0  0
    3.0000   -2.5981    0.0000 C   0  0  0  0  0  0  0  0  0  0  0  0
    0.7500   -1.2990    0.0000 C   0  0  0  0  0  0  0  0  0  0  0  0
    1.5000    0.0000    0.0000 C   0  0  0  0  0  0  0  0  0  0  0  0
    0.7500    1.2990    0.0000 C   0  0  0  0  0  0  0  0  0  0  0  0
   -0.7500    1.2990    0.0000 C   0  0  0  0  0  0  0  0  0  0  0  0
   -1.5000    0.0000    0.0000 C   0  0  0  0  0  0  0  0  0  0  0  0
   -0.7500   -1.2990    0.0000 C   0  0  0  0  0  0  0  0  0  0  0  0
  1  2  1  0
  2  3  2  0
  3  4  1  0
  4  5  2  0
  5  6  1  0
  6  7  1  0
  6  8  2  0
  5  9  1  0
  9 10  2  0
 10 11  1  0
 11 12  1  0
 12 13  1  0
 12 14  2  0
 14 15  1  0
 15 16  1  0
 16 17  1  0
 17 18  2  0
 17 19  1  0
 19 20  1  0
 20 21  1  0
 21 22  1  0
 22 23  1  6
 22 24  1  0
 24 25  1  1
 25 26  1  0
 26 27  1  0
 27 28  1  0
 29 28  1  1
 14  2  1  0
 29 19  1  0
 11  4  1  0
 29 24  1  0
M  END
>  <Compound_ID>  (391) 
C41907749

>  <Active>  (391) 
0.0

>  <Smiles>  (391) 
Cc1nc2c(C(N)=O)ncn2c(C)c1CCC(=O)N1CC[C@@H](C)[C@@H]2CCCC[C@@H]21

>  <canonical_smi>  (391) 
Cc1nc2c(C(N)=O)ncn2c(C)c1CCC(=O)N1CC[C@@H](C)[C@@H]2CCCC[C@@H]21

>  <Set>  (391) 
G2 inactive

>  <Set_type>  (391) 
Train

>  <MW>  (391) 
397.52

>  <HBD>  (391) 
1

>  <HBA>  (391) 
4

>  <NRB>  (391) 
4

>  <NR>  (391) 
4

>  <NAR>  (391) 
2

>  <PSA>  (391) 
93.59

>  <Standard Type>  (391) 
nan

>  <Standard Relation>  (391) 
nan

>  <Standard Units>  (391) 
nan

>  <Standard Value>  (391) 
nan

>  <Assay ChEMBL ID>  (391) 
nan

>  <Assay Description>  (391) 
nan

>  <BAO Label>  (391) 
nan

$$$$

     RDKit          2D

 34 37  0  0  0  0  0  0  0  0999 V2000
    5.6260  -10.9888    0.0000 C   0  0  0  0  0  0  0  0  0  0  0  0
    5.3142   -9.5216    0.0000 N   0  0  0  0  0  4  0  0  0  0  0  0
    3.8876   -9.0580    0.0000 C   0  0  0  0  0  0  0  0  0  0  0  0
    6.4289   -8.5179    0.0000 C   0  0  0  0  0  0  0  0  0  0  0  0
    6.1170   -7.0506    0.0000 C   0  0  0  0  0  0  0  0  0  0  0  0
    4.6904   -6.5871    0.0000 N   0  0  0  0  0  0  0  0  0  0  0  0
    4.3786   -5.1199    0.0000 C   0  0  0  0  0  0  0  0  0  0  0  0
    5.4933   -4.1162    0.0000 O   0  0  0  0  0  0  0  0  0  0  0  0
    2.9520   -4.6564    0.0000 C   0  0  0  0  0  0  0  0  0  0  0  0
    2.6401   -3.1891    0.0000 C   0  0  0  0  0  0  0  0  0  0  0  0
    1.2135   -2.7256    0.0000 C   0  0  0  0  0  0  0  0  0  0  0  0
    0.7500   -1.2990    0.0000 C   0  0  0  0  0  0  0  0  0  0  0  0
    1.5000    0.0000    0.0000 C   0  0  0  0  0  0  0  0  0  0  0  0
    0.7500    1.2990    0.0000 C   0  0  0  0  0  0  0  0  0  0  0  0
   -0.7500    1.2990    0.0000 C   0  0  0  0  0  0  0  0  0  0  0  0
   -1.5000    0.0000    0.0000 C   0  0  0  0  0  0  0  0  0  0  0  0
   -0.7500   -1.2990    0.0000 C   0  0  0  0  0  0  0  0  0  0  0  0
   -1.2135   -2.7256    0.0000 N   0  0  0  0  0  4  0  0  0  0  0  0
    0.0000   -3.6073    0.0000 C   0  0  0  0  0  0  0  0  0  0  0  0
    1.8373   -5.6601    0.0000 N   0  0  0  0  0  0  0  0  0  0  0  0
    2.1491   -7.1273    0.0000 C   0  0  0  0  0  0  0  0  0  0  0  0
    3.5757   -7.5908    0.0000 O   0  0  0  0  0  0  0  0  0  0  0  0
    1.0344   -8.1310    0.0000 C   0  0  0  0  0  0  0  0  0  0  0  0
   -0.3922   -7.6675    0.0000 C   0  0  0  0  0  0  0  0  0  0  0  0
   -1.5069   -8.6712    0.0000 C   0  0  0  0  0  0  0  0  0  0  0  0
   -1.1950  -10.1384    0.0000 C   0  0  0  0  0  0  0  0  0  0  0  0
   -2.3097  -11.1421    0.0000 F   0  0  0  0  0  0  0  0  0  0  0  0
    0.2316  -10.6019    0.0000 C   0  0  0  0  0  0  0  0  0  0  0  0
    1.3463   -9.5982    0.0000 C   0  0  0  0  0  0  0  0  0  0  0  0
    7.8555   -8.9814    0.0000 C   0  0  0  0  0  0  0  0  0  0  0  0
    9.0690   -8.0997    0.0000 C   0  0  0  0  0  0  0  0  0  0  0  0
   10.2825   -8.9814    0.0000 C   0  0  0  0  0  0  0  0  0  0  0  0
    9.8190  -10.4080    0.0000 C   0  0  0  0  0  0  0  0  0  0  0  0
    8.3190  -10.4080    0.0000 S   0  0  0  0  0  0  0  0  0  0  0  0
  1  2  1  0
  2  3  1  0
  2  4  1  0
  4  5  1  6
  5  6  1  0
  6  7  1  0
  7  8  2  0
  7  9  1  0
  9 10  1  1
 10 11  1  0
 11 12  2  0
 12 13  1  0
 13 14  2  0
 14 15  1  0
 15 16  2  0
 16 17  1  0
 17 18  2  0
 18 19  1  0
  9 20  1  0
 20 21  1  0
 21 22  2  0
 21 23  1  0
 23 24  2  0
 24 25  1  0
 25 26  2  0
 26 27  1  0
 26 28  1  0
 28 29  2  0
  4 30  1  0
 30 31  2  0
 31 32  1  0
 32 33  2  0
 33 34  1  0
 19 11  1  0
 29 23  1  0
 34 30  1  0
 17 12  1  0
M  CHG  2   2   1  18   1
M  END
>  <Compound_ID>  (392) 
C63807620

>  <Active>  (392) 
0.0

>  <Smiles>  (392) 
C[NH+](C)[C@H](CNC(=O)[C@H](CC1=c2ccccc2=[NH+]C1)NC(=O)c1ccc(F)cc1)c1cccs1

>  <canonical_smi>  (392) 
C[NH+](C)[C@H](CNC(=O)[C@H](CC1=c2ccccc2=[NH+]C1)NC(=O)c1ccc(F)cc1)c1cccs1

>  <Set>  (392) 
G2 inactive

>  <Set_type>  (392) 
Train

>  <MW>  (392) 
480.61

>  <HBD>  (392) 
4

>  <HBA>  (392) 
2

>  <NRB>  (392) 
9

>  <NR>  (392) 
4

>  <NAR>  (392) 
3

>  <PSA>  (392) 
76.61

>  <Standard Type>  (392) 
nan

>  <Standard Relation>  (392) 
nan

>  <Standard Units>  (392) 
nan

>  <Standard Value>  (392) 
nan

>  <Assay ChEMBL ID>  (392) 
nan

>  <Assay Description>  (392) 
nan

>  <BAO Label>  (392) 
nan

$$$$

     RDKit          2D

 21 23  0  0  0  0  0  0  0  0999 V2000
   -2.5808   -7.6230    0.0000 N   0  0  0  0  0  4  0  0  0  0  0  0
   -2.4240   -6.1312    0.0000 C   0  0  0  0  0  0  0  0  0  0  0  0
   -3.6375   -5.2496    0.0000 C   0  0  0  0  0  0  0  0  0  0  0  0
   -5.0078   -5.8597    0.0000 C   0  0  0  0  0  0  0  0  0  0  0  0
   -5.3197   -7.3269    0.0000 C   0  0  0  0  0  0  0  0  0  0  0  0
   -6.8115   -7.4837    0.0000 N   0  0  0  0  0  0  0  0  0  0  0  0
   -7.4216   -6.1134    0.0000 C   0  0  0  0  0  0  0  0  0  0  0  0
   -6.3069   -5.1097    0.0000 N   0  0  0  0  0  0  0  0  0  0  0  0
   -1.0537   -5.5211    0.0000 C   0  0  0  0  0  0  0  0  0  0  0  0
   -0.7418   -4.0539    0.0000 N   0  0  0  0  0  0  0  0  0  0  0  0
    0.7500   -3.8971    0.0000 C   0  0  0  0  0  0  0  0  0  0  0  0
    1.5000   -2.5981    0.0000 C   0  0  0  0  0  0  0  0  0  0  0  0
    0.7500   -1.2990    0.0000 C   0  0  0  0  0  0  0  0  0  0  0  0
    1.5000    0.0000    0.0000 C   0  0  0  0  0  0  0  0  0  0  0  0
    0.7500    1.2990    0.0000 C   0  0  0  0  0  0  0  0  0  0  0  0
   -0.7500    1.2990    0.0000 C   0  0  0  0  0  0  0  0  0  0  0  0
   -1.5000    2.5981    0.0000 Br  0  0  0  0  0  0  0  0  0  0  0  0
   -1.5000    0.0000    0.0000 C   0  0  0  0  0  0  0  0  0  0  0  0
   -0.7500   -1.2990    0.0000 C   0  0  0  0  0  0  0  0  0  0  0  0
    1.3601   -5.2674    0.0000 N   0  0  0  0  0  0  0  0  0  0  0  0
    0.2454   -6.2711    0.0000 O   0  0  0  0  0  0  0  0  0  0  0  0
  2  1  1  1
  2  3  1  0
  3  4  1  0
  4  5  2  0
  5  6  1  0
  6  7  1  0
  7  8  2  0
  2  9  1  0
  9 10  2  0
 10 11  1  0
 11 12  1  0
 12 13  1  0
 13 14  2  0
 14 15  1  0
 15 16  2  0
 16 17  1  0
 16 18  1  0
 18 19  2  0
 11 20  2  0
 20 21  1  0
  8  4  1  0
 21  9  1  0
 19 13  1  0
M  CHG  1   1   1
M  END
>  <Compound_ID>  (393) 
C37330775

>  <Active>  (393) 
0.0

>  <Smiles>  (393) 
[NH3+][C@@H](Cc1c[nH]cn1)c1nc(Cc2ccc(Br)cc2)no1

>  <canonical_smi>  (393) 
[NH3+][C@@H](Cc1c[nH]cn1)c1nc(Cc2ccc(Br)cc2)no1

>  <Set>  (393) 
G2 inactive

>  <Set_type>  (393) 
Train

>  <MW>  (393) 
349.21

>  <HBD>  (393) 
2

>  <HBA>  (393) 
4

>  <NRB>  (393) 
5

>  <NR>  (393) 
3

>  <NAR>  (393) 
3

>  <PSA>  (393) 
95.24

>  <Standard Type>  (393) 
nan

>  <Standard Relation>  (393) 
nan

>  <Standard Units>  (393) 
nan

>  <Standard Value>  (393) 
nan

>  <Assay ChEMBL ID>  (393) 
nan

>  <Assay Description>  (393) 
nan

>  <BAO Label>  (393) 
nan

$$$$

     RDKit          2D

 29 33  0  0  0  0  0  0  0  0999 V2000
   -1.6839   -7.2010    0.0000 N   0  0  0  0  0  4  0  0  0  0  0  0
   -1.5271   -5.7092    0.0000 C   0  0  0  0  0  0  0  0  0  0  0  0
   -0.1568   -5.0991    0.0000 N   0  0  0  0  0  0  0  0  0  0  0  0
   -0.0000   -3.6073    0.0000 C   0  0  0  0  0  0  0  0  0  0  0  0
    1.2135   -2.7256    0.0000 N   0  0  0  0  0  0  0  0  0  0  0  0
    0.7500   -1.2990    0.0000 C   0  0  0  0  0  0  0  0  0  0  0  0
    1.5000    0.0000    0.0000 C   0  0  0  0  0  0  0  0  0  0  0  0
    0.7500    1.2990    0.0000 C   0  0  0  0  0  0  0  0  0  0  0  0
   -0.7500    1.2990    0.0000 C   0  0  0  0  0  0  0  0  0  0  0  0
   -1.5000    0.0000    0.0000 C   0  0  0  0  0  0  0  0  0  0  0  0
   -0.7500   -1.2990    0.0000 C   0  0  0  0  0  0  0  0  0  0  0  0
   -1.2135   -2.7256    0.0000 N   0  0  0  0  0  0  0  0  0  0  0  0
   -2.5838   -3.3357    0.0000 C   0  0  0  0  0  0  0  0  0  0  0  0
   -3.7974   -2.4540    0.0000 C   0  0  0  0  0  0  0  0  0  0  0  0
   -3.6406   -0.9623    0.0000 C   0  0  0  0  0  0  0  0  0  0  0  0
   -4.8541   -0.0806    0.0000 C   0  0  0  0  0  0  0  0  0  0  0  0
   -6.2244   -0.6907    0.0000 C   0  0  0  0  0  0  0  0  0  0  0  0
   -7.4379    0.1910    0.0000 N   0  0  0  0  0  0  0  0  0  0  0  0
   -8.8645   -0.2725    0.0000 C   0  0  0  0  0  0  0  0  0  0  0  0
   -9.7462    0.9410    0.0000 C   0  0  0  0  0  0  0  0  0  0  0  0
   -8.8645    2.1545    0.0000 C   0  0  0  0  0  0  0  0  0  0  0  0
   -9.3281    3.5811    0.0000 C   0  0  0  0  0  0  0  0  0  0  0  0
   -9.7916    5.0077    0.0000 F   0  0  0  0  0  0  0  0  0  0  0  0
   -7.9015    4.0446    0.0000 F   0  0  0  0  0  0  0  0  0  0  0  0
  -10.7546    3.1176    0.0000 F   0  0  0  0  0  0  0  0  0  0  0  0
   -7.4379    1.6910    0.0000 N   0  0  0  0  0  0  0  0  0  0  0  0
   -6.3812   -2.1825    0.0000 C   0  0  0  0  0  0  0  0  0  0  0  0
   -5.1677   -3.0642    0.0000 C   0  0  0  0  0  0  0  0  0  0  0  0
   -2.7406   -4.8275    0.0000 N   0  0  0  0  0  0  0  0  0  0  0  0
  1  2  2  0
  2  3  1  0
  3  4  1  0
  4  5  2  0
  5  6  1  0
  6  7  2  0
  7  8  1  0
  8  9  2  0
  9 10  1  0
 10 11  2  0
 11 12  1  0
 12 13  1  0
 13 14  1  6
 14 15  2  0
 15 16  1  0
 16 17  2  0
 17 18  1  0
 18 19  1  0
 19 20  2  0
 20 21  1  0
 21 22  1  0
 22 23  1  0
 22 24  1  0
 22 25  1  0
 21 26  2  0
 17 27  1  0
 27 28  2  0
 13 29  1  0
 29  2  1  0
 12  4  1  0
 28 14  1  0
 11  6  1  0
 26 18  1  0
M  CHG  1   1   1
M  END
>  <Compound_ID>  (394) 
C54681193

>  <Active>  (394) 
0.0

>  <Smiles>  (394) 
[NH2+]=C1Nc2nc3ccccc3n2[C@@H](c2ccc(-n3ccc(C(F)(F)F)n3)cc2)N1

>  <canonical_smi>  (394) 
[NH2+]=C1Nc2nc3ccccc3n2[C@@H](c2ccc(-n3ccc(C(F)(F)F)n3)cc2)N1

>  <Set>  (394) 
G2 inactive

>  <Set_type>  (394) 
Train

>  <MW>  (394) 
398.37

>  <HBD>  (394) 
3

>  <HBA>  (394) 
4

>  <NRB>  (394) 
2

>  <NR>  (394) 
5

>  <NAR>  (394) 
4

>  <PSA>  (394) 
85.29

>  <Standard Type>  (394) 
nan

>  <Standard Relation>  (394) 
nan

>  <Standard Units>  (394) 
nan

>  <Standard Value>  (394) 
nan

>  <Assay ChEMBL ID>  (394) 
nan

>  <Assay Description>  (394) 
nan

>  <BAO Label>  (394) 
nan

$$$$

     RDKit          2D

 36 41  0  0  0  0  0  0  0  0999 V2000
   -4.4918   -5.3529    0.0000 C   0  0  0  0  0  0  0  0  0  0  0  0
   -3.0000   -5.1962    0.0000 C   0  0  0  0  0  0  0  0  0  0  0  0
   -3.7500   -3.8971    0.0000 C   0  0  0  0  0  0  0  0  0  0  0  0
   -3.0000   -2.5981    0.0000 C   0  0  0  0  0  0  0  0  0  0  0  0
   -1.5000   -2.5981    0.0000 C   0  0  0  0  0  0  0  0  0  0  0  0
   -0.7500   -3.8971    0.0000 C   0  0  0  0  0  0  0  0  0  0  0  0
    0.7500   -3.8971    0.0000 C   0  0  0  0  0  0  0  0  0  0  0  0
    1.5000   -2.5981    0.0000 C   0  0  0  0  0  0  0  0  0  0  0  0
    0.7500   -1.2990    0.0000 C   0  0  0  0  0  0  0  0  0  0  0  0
    2.2500   -1.2990    0.0000 O   0  0  0  0  0  0  0  0  0  0  0  0
    1.5000    0.0000    0.0000 C   0  0  0  0  0  0  0  0  0  0  0  0
    0.7500    1.2990    0.0000 C   0  0  0  0  0  0  0  0  0  0  0  0
    1.5000    2.5981    0.0000 O   0  0  0  0  0  0  0  0  0  0  0  0
   -0.7500    1.2990    0.0000 C   0  0  0  0  0  0  0  0  0  0  0  0
   -1.5000    0.0000    0.0000 C   0  0  0  0  0  0  0  0  0  0  0  0
   -0.7500   -1.2990    0.0000 C   0  0  0  0  0  0  0  0  0  0  0  0
   -2.2500   -1.2990    0.0000 C   0  0  0  0  0  0  0  0  0  0  0  0
   -3.0000    0.0000    0.0000 N   0  0  0  0  0  0  0  0  0  0  0  0
   -4.5000    0.0000    0.0000 N   0  0  0  0  0  0  0  0  0  0  0  0
   -5.2500    1.2990    0.0000 C   0  0  0  0  0  0  0  0  0  0  0  0
   -4.5000    2.5981    0.0000 C   0  0  0  0  0  0  0  0  0  0  0  0
   -5.2500    3.8971    0.0000 C   0  0  0  0  0  0  0  0  0  0  0  0
   -6.7500    3.8971    0.0000 C   0  0  0  0  0  0  0  0  0  0  0  0
   -7.5000    2.5981    0.0000 C   0  0  0  0  0  0  0  0  0  0  0  0
   -6.7500    1.2990    0.0000 C   0  0  0  0  0  0  0  0  0  0  0  0
   -1.5000   -5.1962    0.0000 C   0  0  0  0  0  0  0  0  0  0  0  0
   -0.0082   -5.3529    0.0000 O   0  0  0  0  0  0  0  0  0  0  0  0
   -1.0365   -6.6227    0.0000 C   0  0  0  0  0  0  0  0  0  0  0  0
   -2.2500   -7.5044    0.0000 C   0  0  0  0  0  0  0  0  0  0  0  0
   -3.4635   -6.6227    0.0000 C   0  0  0  0  0  0  0  0  0  0  0  0
   -4.8901   -7.0863    0.0000 C   0  0  0  0  0  0  0  0  0  0  0  0
   -5.3536   -8.5128    0.0000 C   0  0  0  0  0  0  0  0  0  0  0  0
   -6.8536   -8.5128    0.0000 C   0  0  0  0  0  0  0  0  0  0  0  0
   -7.7353   -9.7264    0.0000 O   0  0  0  0  0  0  0  0  0  0  0  0
   -7.3172   -7.0863    0.0000 O   0  0  0  0  0  0  0  0  0  0  0  0
   -6.1036   -6.2046    0.0000 C   0  0  0  0  0  0  0  0  0  0  0  0
  2  1  1  6
  2  3  1  0
  3  4  1  0
  5  4  1  1
  5  6  1  0
  6  7  1  6
  7  8  1  0
  8  9  1  0
  9 10  1  1
  9 11  1  0
 11 12  1  0
 12 13  1  1
 12 14  1  0
 14 15  1  0
 15 16  1  0
 16 17  1  6
 17 18  2  0
 18 19  1  0
 19 20  1  0
 20 21  2  0
 21 22  1  0
 22 23  2  0
 23 24  1  0
 24 25  2  0
  6 26  1  0
 26 27  1  6
 26 28  1  0
 28 29  1  0
 29 30  1  0
 30 31  1  6
 31 32  2  0
 32 33  1  0
 33 34  2  0
 33 35  1  0
 35 36  1  0
 26  2  1  0
 36 31  1  0
 30  2  1  0
 16  5  1  0
 25 20  1  0
 16  9  1  0
M  END
>  <Compound_ID>  (395) 
C43867027

>  <Active>  (395) 
0.0

>  <Smiles>  (395) 
C[C@]12CC[C@@H]3[C@H](CC[C@@]4(O)C[C@H](O)CC[C@]34/C=N/Nc3ccccc3)[C@@]1(O)CC[C@@H]2C1=CC(=O)OC1

>  <canonical_smi>  (395) 
C[C@]12CC[C@@H]3[C@H](CC[C@@]4(O)C[C@H](O)CC[C@]34/C=N/Nc3ccccc3)[C@@]1(O)CC[C@@H]2C1=CC(=O)OC1

>  <Set>  (395) 
G2 inactive

>  <Set_type>  (395) 
Train

>  <MW>  (395) 
494.63

>  <HBD>  (395) 
4

>  <HBA>  (395) 
6

>  <NRB>  (395) 
4

>  <NR>  (395) 
6

>  <NAR>  (395) 
1

>  <PSA>  (395) 
111.38

>  <Standard Type>  (395) 
nan

>  <Standard Relation>  (395) 
nan

>  <Standard Units>  (395) 
nan

>  <Standard Value>  (395) 
nan

>  <Assay ChEMBL ID>  (395) 
nan

>  <Assay Description>  (395) 
nan

>  <BAO Label>  (395) 
nan

$$$$

     RDKit          2D

 20 21  0  0  0  0  0  0  0  0999 V2000
   -0.8113  -11.2427    0.0000 N   0  0  0  0  0  4  0  0  0  0  0  0
    0.4022  -10.3610    0.0000 C   0  0  0  0  0  0  0  0  0  0  0  0
    0.2454   -8.8692    0.0000 C   0  0  0  0  0  0  0  0  0  0  0  0
    1.3601   -7.8655    0.0000 C   0  0  0  0  0  0  0  0  0  0  0  0
    0.7500   -6.4952    0.0000 N   0  0  0  0  0  0  0  0  0  0  0  0
    1.5000   -5.1962    0.0000 C   0  0  0  0  0  0  0  0  0  0  0  0
    0.7500   -3.8971    0.0000 C   0  0  0  0  0  0  0  0  0  0  0  0
   -0.7500   -3.8971    0.0000 O   0  0  0  0  0  0  0  0  0  0  0  0
    1.5000   -2.5981    0.0000 N   0  0  0  0  0  0  0  0  0  0  0  0
    0.7500   -1.2990    0.0000 C   0  0  0  0  0  0  0  0  0  0  0  0
    1.5000    0.0000    0.0000 C   0  0  0  0  0  0  0  0  0  0  0  0
    3.0000    0.0000    0.0000 Br  0  0  0  0  0  0  0  0  0  0  0  0
    0.7500    1.2990    0.0000 C   0  0  0  0  0  0  0  0  0  0  0  0
   -0.7500    1.2990    0.0000 C   0  0  0  0  0  0  0  0  0  0  0  0
   -1.5000    2.5981    0.0000 Br  0  0  0  0  0  0  0  0  0  0  0  0
   -1.5000    0.0000    0.0000 C   0  0  0  0  0  0  0  0  0  0  0  0
   -0.7500   -1.2990    0.0000 C   0  0  0  0  0  0  0  0  0  0  0  0
   -1.5000   -2.5981    0.0000 Br  0  0  0  0  0  0  0  0  0  0  0  0
   -0.7418   -6.6520    0.0000 N   0  0  0  0  0  0  0  0  0  0  0  0
   -1.0537   -8.1192    0.0000 N   0  0  0  0  0  0  0  0  0  0  0  0
  1  2  1  0
  2  3  1  0
  3  4  2  0
  4  5  1  0
  5  6  1  0
  6  7  1  0
  7  8  2  0
  7  9  1  0
  9 10  1  0
 10 11  2  0
 11 12  1  0
 11 13  1  0
 13 14  2  0
 14 15  1  0
 14 16  1  0
 16 17  2  0
 17 18  1  0
  5 19  1  0
 19 20  2  0
 20  3  1  0
 17 10  1  0
M  CHG  1   1   1
M  END
>  <Compound_ID>  (396) 
C50224228

>  <Active>  (396) 
0.0

>  <Smiles>  (396) 
[NH3+]Cc1cn(CC(=O)Nc2c(Br)cc(Br)cc2Br)nn1

>  <canonical_smi>  (396) 
[NH3+]Cc1cn(CC(=O)Nc2c(Br)cc(Br)cc2Br)nn1

>  <Set>  (396) 
G2 inactive

>  <Set_type>  (396) 
Train

>  <MW>  (396) 
468.96

>  <HBD>  (396) 
2

>  <HBA>  (396) 
3

>  <NRB>  (396) 
4

>  <NR>  (396) 
2

>  <NAR>  (396) 
2

>  <PSA>  (396) 
87.45

>  <Standard Type>  (396) 
nan

>  <Standard Relation>  (396) 
nan

>  <Standard Units>  (396) 
nan

>  <Standard Value>  (396) 
nan

>  <Assay ChEMBL ID>  (396) 
nan

>  <Assay Description>  (396) 
nan

>  <BAO Label>  (396) 
nan

$$$$

     RDKit          2D

 18 20  0  0  0  0  0  0  0  0999 V2000
    3.0000    0.0000    0.0000 N   0  0  0  0  0  0  0  0  0  0  0  0
    1.5000    0.0000    0.0000 C   0  0  0  0  0  0  0  0  0  0  0  0
    0.7500   -1.2990    0.0000 C   0  0  0  0  0  0  0  0  0  0  0  0
   -0.7500   -1.2990    0.0000 C   0  0  0  0  0  0  0  0  0  0  0  0
   -1.5000    0.0000    0.0000 C   0  0  0  0  0  0  0  0  0  0  0  0
   -3.0000    0.0000    0.0000 N   0  0  0  0  0  0  0  0  0  0  0  0
   -3.7500    1.2990    0.0000 C   0  0  0  0  0  0  0  0  0  0  0  0
   -5.2500    1.2990    0.0000 N   0  0  0  0  0  0  0  0  0  0  0  0
   -6.0000    2.5981    0.0000 C   0  0  0  0  0  0  0  0  0  0  0  0
   -7.5000    2.5981    0.0000 C   0  0  0  0  0  0  0  0  0  0  0  0
   -8.3817    1.3846    0.0000 C   0  0  0  0  0  0  0  0  0  0  0  0
   -9.8083    1.8481    0.0000 N   0  0  0  0  0  0  0  0  0  0  0  0
   -9.8083    3.3481    0.0000 N   0  0  0  0  0  0  0  0  0  0  0  0
   -8.3817    3.8116    0.0000 C   0  0  0  0  0  0  0  0  0  0  0  0
   -3.0000    2.5981    0.0000 C   0  0  0  0  0  0  0  0  0  0  0  0
   -1.5000    2.5981    0.0000 C   0  0  0  0  0  0  0  0  0  0  0  0
   -0.7500    1.2990    0.0000 C   0  0  0  0  0  0  0  0  0  0  0  0
    0.7500    1.2990    0.0000 C   0  0  0  0  0  0  0  0  0  0  0  0
  1  2  1  0
  2  3  2  0
  3  4  1  0
  4  5  2  0
  5  6  1  0
  6  7  2  0
  7  8  1  0
  8  9  1  0
  9 10  1  0
 10 11  1  0
 11 12  2  0
 12 13  1  0
 13 14  1  0
  7 15  1  0
 15 16  2  0
 16 17  1  0
 17 18  2  0
 18  2  1  0
 17  5  1  0
 14 10  2  0
M  END
>  <Compound_ID>  (397) 
C42358618

>  <Active>  (397) 
0.0

>  <Smiles>  (397) 
Nc1ccc2nc(NCc3cn[nH]c3)ccc2c1

>  <canonical_smi>  (397) 
Nc1ccc2nc(NCc3cn[nH]c3)ccc2c1

>  <Set>  (397) 
G2 inactive

>  <Set_type>  (397) 
Train

>  <MW>  (397) 
239.28

>  <HBD>  (397) 
3

>  <HBA>  (397) 
4

>  <NRB>  (397) 
3

>  <NR>  (397) 
3

>  <NAR>  (397) 
3

>  <PSA>  (397) 
79.62

>  <Standard Type>  (397) 
nan

>  <Standard Relation>  (397) 
nan

>  <Standard Units>  (397) 
nan

>  <Standard Value>  (397) 
nan

>  <Assay ChEMBL ID>  (397) 
nan

>  <Assay Description>  (397) 
nan

>  <BAO Label>  (397) 
nan

$$$$

     RDKit          2D

 20 22  0  0  0  0  0  0  0  0999 V2000
   -4.9140    5.6597    0.0000 N   0  0  0  0  0  0  0  0  0  0  0  0
   -4.1640    4.3606    0.0000 C   0  0  0  0  0  0  0  0  0  0  0  0
   -3.4140    3.0616    0.0000 N   0  0  0  0  0  0  0  0  0  0  0  0
   -4.1640    1.7626    0.0000 C   0  0  0  0  0  0  0  0  0  0  0  0
   -3.4140    0.4635    0.0000 N   0  0  0  0  0  0  0  0  0  0  0  0
   -1.9140    0.4635    0.0000 C   0  0  0  0  0  0  0  0  0  0  0  0
   -1.0323    1.6771    0.0000 C   0  0  0  0  0  0  0  0  0  0  0  0
    0.3943    1.2135    0.0000 C   0  0  0  0  0  0  0  0  0  0  0  0
    1.2760    0.0000    0.0000 C   0  0  0  0  0  0  0  0  0  0  0  0
    0.3943   -1.2135    0.0000 C   0  0  0  0  0  0  0  0  0  0  0  0
   -1.0323   -0.7500    0.0000 C   0  0  0  0  0  0  0  0  0  0  0  0
   -1.0323    0.7500    0.0000 C   0  0  0  0  0  0  0  0  0  0  0  0
   -5.6640    1.7626    0.0000 N   0  0  0  0  0  0  0  0  0  0  0  0
   -6.4140    3.0616    0.0000 C   0  0  0  0  0  0  0  0  0  0  0  0
   -5.6640    4.3606    0.0000 C   0  0  0  0  0  0  0  0  0  0  0  0
   -6.4140    5.6597    0.0000 C   0  0  0  0  0  0  0  0  0  0  0  0
   -7.9140    5.6597    0.0000 C   0  0  0  0  0  0  0  0  0  0  0  0
   -8.6640    6.9587    0.0000 N   0  0  0  0  0  0  0  0  0  0  0  0
   -8.6640    4.3606    0.0000 N   0  0  0  0  0  0  0  0  0  0  0  0
   -7.9140    3.0616    0.0000 C   0  0  0  0  0  0  0  0  0  0  0  0
  1  2  3  0
  2  3  1  0
  3  4  1  0
  4  5  2  0
  6  5  1  6
  6  7  1  0
  8  7  1  6
  8  9  1  0
  9 10  1  0
 11 10  1  6
 11 12  1  0
  4 13  1  0
 13 14  1  0
 14 15  2  0
 15 16  1  0
 16 17  2  0
 17 18  1  0
 17 19  1  0
 19 20  2  0
 11  6  1  0
 20 14  1  0
 12  8  1  0
M  END
>  <Compound_ID>  (398) 
C13737416

>  <Active>  (398) 
0.0

>  <Smiles>  (398) 
N#CN/C(=N\[C@@H]1C[C@@H]2CC[C@H]1C2)Nc1ccc(N)nc1

>  <canonical_smi>  (398) 
N#CN/C(=N\[C@@H]1C[C@@H]2CC[C@H]1C2)Nc1ccc(N)nc1

>  <Set>  (398) 
G2 inactive

>  <Set_type>  (398) 
Train

>  <MW>  (398) 
270.34

>  <HBD>  (398) 
3

>  <HBA>  (398) 
5

>  <NRB>  (398) 
2

>  <NR>  (398) 
3

>  <NAR>  (398) 
1

>  <PSA>  (398) 
99.12

>  <Standard Type>  (398) 
nan

>  <Standard Relation>  (398) 
nan

>  <Standard Units>  (398) 
nan

>  <Standard Value>  (398) 
nan

>  <Assay ChEMBL ID>  (398) 
nan

>  <Assay Description>  (398) 
nan

>  <BAO Label>  (398) 
nan

$$$$

     RDKit          2D

 24 27  0  0  0  0  0  0  0  0999 V2000
    3.5757   -7.5908    0.0000 O   0  0  0  0  0  0  0  0  0  0  0  0
    4.6904   -6.5871    0.0000 C   0  0  0  0  0  0  0  0  0  0  0  0
    4.3786   -5.1199    0.0000 N   0  0  0  0  0  0  0  0  0  0  0  0
    2.9520   -4.6564    0.0000 C   0  0  0  0  0  0  0  0  0  0  0  0
    2.6401   -3.1891    0.0000 C   0  0  0  0  0  0  0  0  0  0  0  0
    1.2135   -2.7256    0.0000 C   0  0  0  0  0  0  0  0  0  0  0  0
   -0.0000   -3.6073    0.0000 N   0  0  0  0  0  0  0  0  0  0  0  0
   -1.2135   -2.7256    0.0000 N   0  0  0  0  0  0  0  0  0  0  0  0
   -0.7500   -1.2990    0.0000 C   0  0  0  0  0  0  0  0  0  0  0  0
    0.7500   -1.2990    0.0000 C   0  0  0  0  0  0  0  0  0  0  0  0
    1.5000    0.0000    0.0000 C   0  0  0  0  0  0  0  0  0  0  0  0
    0.7500    1.2990    0.0000 C   0  0  0  0  0  0  0  0  0  0  0  0
   -0.7500    1.2990    0.0000 C   0  0  0  0  0  0  0  0  0  0  0  0
   -1.5000    0.0000    0.0000 C   0  0  0  0  0  0  0  0  0  0  0  0
    6.1170   -7.0506    0.0000 N   0  0  0  0  0  0  0  0  0  0  0  0
    6.4289   -8.5179    0.0000 C   0  0  0  0  0  0  0  0  0  0  0  0
    7.7992   -9.1280    0.0000 N   0  0  0  0  0  0  0  0  0  0  0  0
    7.6424  -10.6198    0.0000 N   0  0  0  0  0  0  0  0  0  0  0  0
    6.1752  -10.9316    0.0000 C   0  0  0  0  0  0  0  0  0  0  0  0
    5.5651  -12.3019    0.0000 C   0  0  0  0  0  0  0  0  0  0  0  0
    4.1647  -12.8395    0.0000 C   0  0  0  0  0  0  0  0  0  0  0  0
    4.7023  -14.2399    0.0000 C   0  0  0  0  0  0  0  0  0  0  0  0
    6.1026  -13.7023    0.0000 C   0  0  0  0  0  0  0  0  0  0  0  0
    5.4252   -9.6326    0.0000 S   0  0  0  0  0  0  0  0  0  0  0  0
  1  2  2  0
  2  3  1  0
  3  4  1  0
  4  5  1  0
  5  6  1  0
  6  7  1  0
  7  8  1  0
  8  9  2  0
  9 10  1  0
 10 11  1  0
 11 12  1  0
 12 13  1  0
 13 14  1  0
  2 15  1  0
 15 16  1  0
 16 17  2  0
 17 18  1  0
 18 19  1  0
 19 20  1  6
 20 21  1  0
 21 22  1  0
 22 23  1  0
 19 24  1  0
 10  6  2  0
 24 16  1  0
 14  9  1  0
 23 20  1  0
M  END
>  <Compound_ID>  (399) 
C39490024

>  <Active>  (399) 
0.0

>  <Smiles>  (399) 
O=C(NCCc1[nH]nc2c1CCCC2)NC1=NN[C@H](C2CCC2)S1

>  <canonical_smi>  (399) 
O=C(NCCc1[nH]nc2c1CCCC2)NC1=NN[C@H](C2CCC2)S1

>  <Set>  (399) 
G2 inactive

>  <Set_type>  (399) 
Train

>  <MW>  (399) 
348.48

>  <HBD>  (399) 
4

>  <HBA>  (399) 
4

>  <NRB>  (399) 
4

>  <NR>  (399) 
4

>  <NAR>  (399) 
1

>  <PSA>  (399) 
94.2

>  <Standard Type>  (399) 
nan

>  <Standard Relation>  (399) 
nan

>  <Standard Units>  (399) 
nan

>  <Standard Value>  (399) 
nan

>  <Assay ChEMBL ID>  (399) 
nan

>  <Assay Description>  (399) 
nan

>  <BAO Label>  (399) 
nan

$$$$

     RDKit          2D

 18 19  0  0  0  0  0  0  0  0999 V2000
    2.2500   -6.4952    0.0000 C   0  0  0  0  0  0  0  0  0  0  0  0
    1.5000   -5.1962    0.0000 C   0  0  0  0  0  0  0  0  0  0  0  0
    2.2500   -3.8971    0.0000 N   0  0  0  0  0  0  0  0  0  0  0  0
    1.5000   -2.5981    0.0000 S   0  0  0  0  0  0  0  0  0  0  0  0
    2.7990   -1.8481    0.0000 O   0  0  0  0  0  0  0  0  0  0  0  0
    0.2010   -3.3481    0.0000 O   0  0  0  0  0  0  0  0  0  0  0  0
    0.7500   -1.2990    0.0000 C   0  0  0  0  0  0  0  0  0  0  0  0
    1.5000    0.0000    0.0000 C   0  0  0  0  0  0  0  0  0  0  0  0
    0.7500    1.2990    0.0000 C   0  0  0  0  0  0  0  0  0  0  0  0
    1.5000    2.5981    0.0000 Br  0  0  0  0  0  0  0  0  0  0  0  0
   -0.7500    1.2990    0.0000 C   0  0  0  0  0  0  0  0  0  0  0  0
   -1.5000    0.0000    0.0000 N   0  0  0  0  0  0  0  0  0  0  0  0
   -0.7500   -1.2990    0.0000 C   0  0  0  0  0  0  0  0  0  0  0  0
   -1.5000   -2.5981    0.0000 N   0  0  0  0  0  0  0  0  0  0  0  0
   -3.0000   -2.5981    0.0000 N   0  0  0  0  0  0  0  0  0  0  0  0
   -0.0000   -5.1962    0.0000 C   0  0  0  0  0  0  0  0  0  0  0  0
   -1.2990   -5.9462    0.0000 C   0  0  0  0  0  0  0  0  0  0  0  0
   -1.2990   -4.4462    0.0000 C   0  0  0  0  0  0  0  0  0  0  0  0
  2  1  1  6
  2  3  1  0
  3  4  1  0
  4  5  2  0
  4  6  2  0
  4  7  1  0
  7  8  2  0
  8  9  1  0
  9 10  1  0
  9 11  2  0
 11 12  1  0
 12 13  2  0
 13 14  1  0
 14 15  1  0
  2 16  1  0
 16 17  1  0
 17 18  1  0
 13  7  1  0
 18 16  1  0
M  END
>  <Compound_ID>  (400) 
C41070077

>  <Active>  (400) 
0.0

>  <Smiles>  (400) 
C[C@@H](NS(=O)(=O)c1cc(Br)cnc1NN)C1CC1

>  <canonical_smi>  (400) 
C[C@@H](NS(=O)(=O)c1cc(Br)cnc1NN)C1CC1

>  <Set>  (400) 
G2 inactive

>  <Set_type>  (400) 
Train

>  <MW>  (400) 
335.23

>  <HBD>  (400) 
3

>  <HBA>  (400) 
5

>  <NRB>  (400) 
5

>  <NR>  (400) 
2

>  <NAR>  (400) 
1

>  <PSA>  (400) 
97.11

>  <Standard Type>  (400) 
nan

>  <Standard Relation>  (400) 
nan

>  <Standard Units>  (400) 
nan

>  <Standard Value>  (400) 
nan

>  <Assay ChEMBL ID>  (400) 
nan

>  <Assay Description>  (400) 
nan

>  <BAO Label>  (400) 
nan

$$$$

     RDKit          2D

 24 25  0  0  0  0  0  0  0  0999 V2000
    3.0000    0.0000    0.0000 C   0  0  0  0  0  0  0  0  0  0  0  0
    1.5000    0.0000    0.0000 N   0  0  0  0  0  0  0  0  0  0  0  0
    0.7500   -1.2990    0.0000 C   0  0  0  0  0  0  0  0  0  0  0  0
   -0.7500   -1.2990    0.0000 C   0  0  0  0  0  0  0  0  0  0  0  0
   -1.5000   -2.5981    0.0000 C   0  0  0  0  0  0  0  0  0  0  0  0
   -2.2500   -3.8971    0.0000 F   0  0  0  0  0  0  0  0  0  0  0  0
   -2.7990   -1.8481    0.0000 F   0  0  0  0  0  0  0  0  0  0  0  0
   -0.2010   -3.3481    0.0000 F   0  0  0  0  0  0  0  0  0  0  0  0
   -1.5000    0.0000    0.0000 C   0  0  0  0  0  0  0  0  0  0  0  0
   -0.7500    1.2990    0.0000 C   0  0  0  0  0  0  0  0  0  0  0  0
    0.7500    1.2990    0.0000 C   0  0  0  0  0  0  0  0  0  0  0  0
    1.5000    2.5981    0.0000 C   0  0  0  0  0  0  0  0  0  0  0  0
    0.7500    3.8971    0.0000 C   0  0  0  0  0  0  0  0  0  0  0  0
   -0.0000    5.1962    0.0000 N   0  0  0  0  0  0  0  0  0  0  0  0
    3.0000    2.5981    0.0000 C   0  0  0  0  0  0  0  0  0  0  0  0
    3.7500    1.2990    0.0000 O   0  0  0  0  0  0  0  0  0  0  0  0
    3.7500    3.8971    0.0000 N   0  0  0  0  0  0  0  0  0  0  0  0
    5.2500    3.8971    0.0000 C   0  0  0  0  0  0  0  0  0  0  0  0
    6.0000    2.5981    0.0000 C   0  0  0  0  0  0  0  0  0  0  0  0
    7.5000    2.5981    0.0000 C   0  0  0  0  0  0  0  0  0  0  0  0
    8.2500    3.8971    0.0000 C   0  0  0  0  0  0  0  0  0  0  0  0
    7.5000    5.1962    0.0000 C   0  0  0  0  0  0  0  0  0  0  0  0
    6.0000    5.1962    0.0000 C   0  0  0  0  0  0  0  0  0  0  0  0
    5.2500    6.4952    0.0000 F   0  0  0  0  0  0  0  0  0  0  0  0
  1  2  1  0
  2  3  1  0
  3  4  2  0
  4  5  1  0
  5  6  1  0
  5  7  1  0
  5  8  1  0
  4  9  1  0
  9 10  2  0
 10 11  1  0
 11 12  2  0
 12 13  1  0
 13 14  3  0
 12 15  1  0
 15 16  2  0
 15 17  1  0
 17 18  1  0
 18 19  2  0
 19 20  1  0
 20 21  2  0
 21 22  1  0
 22 23  2  0
 23 24  1  0
 11  2  1  0
 23 18  1  0
M  END
>  <Compound_ID>  (401) 
C12559281

>  <Active>  (401) 
0.0

>  <Smiles>  (401) 
CN1C=C(C(F)(F)F)C=C/C1=C(\C#N)C(=O)Nc1ccccc1F

>  <canonical_smi>  (401) 
CN1C=C(C(F)(F)F)C=C/C1=C(\C#N)C(=O)Nc1ccccc1F

>  <Set>  (401) 
G2 inactive

>  <Set_type>  (401) 
Train

>  <MW>  (401) 
337.28

>  <HBD>  (401) 
1

>  <HBA>  (401) 
3

>  <NRB>  (401) 
2

>  <NR>  (401) 
2

>  <NAR>  (401) 
1

>  <PSA>  (401) 
56.13

>  <Standard Type>  (401) 
nan

>  <Standard Relation>  (401) 
nan

>  <Standard Units>  (401) 
nan

>  <Standard Value>  (401) 
nan

>  <Assay ChEMBL ID>  (401) 
nan

>  <Assay Description>  (401) 
nan

>  <BAO Label>  (401) 
nan

$$$$

     RDKit          2D

 23 25  0  0  0  0  0  0  0  0999 V2000
    2.6401   -3.1891    0.0000 C   0  0  0  0  0  0  0  0  0  0  0  0
    1.2135   -2.7256    0.0000 C   0  0  0  0  0  0  0  0  0  0  0  0
    0.7500   -1.2990    0.0000 C   0  0  0  0  0  0  0  0  0  0  0  0
    1.5000    0.0000    0.0000 C   0  0  0  0  0  0  0  0  0  0  0  0
    3.0000    0.0000    0.0000 O   0  0  0  0  0  0  0  0  0  0  0  0
    0.7500    1.2990    0.0000 N   0  0  0  0  0  0  0  0  0  0  0  0
   -0.7500    1.2990    0.0000 C   0  0  0  0  0  0  0  0  0  0  0  0
   -1.5000    2.5981    0.0000 C   0  0  0  0  0  0  0  0  0  0  0  0
   -0.7500    3.8971    0.0000 C   0  0  0  0  0  0  0  0  0  0  0  0
   -3.0000    2.5981    0.0000 N   0  0  0  0  0  0  0  0  0  0  0  0
   -3.7500    3.8971    0.0000 C   0  0  0  0  0  0  0  0  0  0  0  0
   -3.0000    5.1962    0.0000 C   0  0  0  0  0  0  0  0  0  0  0  0
   -3.7500    6.4952    0.0000 C   0  0  0  0  0  0  0  0  0  0  0  0
   -5.2500    6.4952    0.0000 C   0  0  0  0  0  0  0  0  0  0  0  0
   -6.0000    7.7942    0.0000 F   0  0  0  0  0  0  0  0  0  0  0  0
   -6.0000    5.1962    0.0000 C   0  0  0  0  0  0  0  0  0  0  0  0
   -7.5000    5.1962    0.0000 Cl  0  0  0  0  0  0  0  0  0  0  0  0
   -5.2500    3.8971    0.0000 C   0  0  0  0  0  0  0  0  0  0  0  0
   -1.5000    0.0000    0.0000 N   0  0  0  0  0  0  0  0  0  0  0  0
   -0.7500   -1.2990    0.0000 C   0  0  0  0  0  0  0  0  0  0  0  0
   -1.2135   -2.7256    0.0000 S   0  0  0  0  0  0  0  0  0  0  0  0
   -0.0000   -3.6073    0.0000 C   0  0  0  0  0  0  0  0  0  0  0  0
   -0.0000   -5.1073    0.0000 C   0  0  0  0  0  0  0  0  0  0  0  0
  1  2  1  0
  2  3  2  0
  3  4  1  0
  4  5  2  0
  4  6  1  0
  6  7  2  0
  7  8  1  0
  8  9  1  1
  8 10  1  0
 10 11  1  0
 11 12  2  0
 12 13  1  0
 13 14  2  0
 14 15  1  0
 14 16  1  0
 16 17  1  0
 16 18  2  0
  7 19  1  0
 19 20  2  0
 20 21  1  0
 21 22  1  0
 22 23  1  1
 22  2  1  0
 20  3  1  0
 18 11  1  0
M  END
>  <Compound_ID>  (402) 
C64220706

>  <Active>  (402) 
0.0

>  <Smiles>  (402) 
CC1=C2C(=O)N=C([C@H](C)Nc3ccc(F)c(Cl)c3)N=C2S[C@@H]1C

>  <canonical_smi>  (402) 
CC1=C2C(=O)N=C([C@H](C)Nc3ccc(F)c(Cl)c3)N=C2S[C@@H]1C

>  <Set>  (402) 
G2 inactive

>  <Set_type>  (402) 
Train

>  <MW>  (402) 
351.83

>  <HBD>  (402) 
1

>  <HBA>  (402) 
3

>  <NRB>  (402) 
3

>  <NR>  (402) 
3

>  <NAR>  (402) 
1

>  <PSA>  (402) 
53.82

>  <Standard Type>  (402) 
nan

>  <Standard Relation>  (402) 
nan

>  <Standard Units>  (402) 
nan

>  <Standard Value>  (402) 
nan

>  <Assay ChEMBL ID>  (402) 
nan

>  <Assay Description>  (402) 
nan

>  <BAO Label>  (402) 
nan

$$$$

     RDKit          2D

 21 24  0  0  0  0  0  0  0  0999 V2000
   -4.3633   -6.9779    0.0000 N   0  0  0  0  0  4  0  0  0  0  0  0
   -2.9930   -7.5880    0.0000 C   0  0  0  0  0  0  0  0  0  0  0  0
   -1.7795   -6.7064    0.0000 C   0  0  0  0  0  0  0  0  0  0  0  0
   -0.4091   -7.3165    0.0000 C   0  0  0  0  0  0  0  0  0  0  0  0
   -0.0973   -8.7837    0.0000 N   0  0  0  0  0  0  0  0  0  0  0  0
    1.3945   -8.9405    0.0000 N   0  0  0  0  0  0  0  0  0  0  0  0
    2.0046   -7.5702    0.0000 C   0  0  0  0  0  0  0  0  0  0  0  0
    3.3037   -6.8202    0.0000 S   0  0  0  0  0  0  0  0  0  0  0  0
    2.9918   -5.3529    0.0000 C   0  0  0  0  0  0  0  0  0  0  0  0
    1.5000   -5.1962    0.0000 C   0  0  0  0  0  0  0  0  0  0  0  0
    0.7500   -3.8971    0.0000 C   0  0  0  0  0  0  0  0  0  0  0  0
   -0.7500   -3.8971    0.0000 C   0  0  0  0  0  0  0  0  0  0  0  0
   -1.5000   -2.5981    0.0000 C   0  0  0  0  0  0  0  0  0  0  0  0
   -0.7500   -1.2990    0.0000 C   0  0  0  0  0  0  0  0  0  0  0  0
    0.7500   -1.2990    0.0000 C   0  0  0  0  0  0  0  0  0  0  0  0
    1.5000   -2.5981    0.0000 C   0  0  0  0  0  0  0  0  0  0  0  0
    1.5000    0.0000    0.0000 C   0  0  0  0  0  0  0  0  0  0  0  0
    0.7500    1.2990    0.0000 C   0  0  0  0  0  0  0  0  0  0  0  0
   -0.7500    1.2990    0.0000 C   0  0  0  0  0  0  0  0  0  0  0  0
   -1.5000    0.0000    0.0000 C   0  0  0  0  0  0  0  0  0  0  0  0
    0.8899   -6.5665    0.0000 N   0  0  0  0  0  0  0  0  0  0  0  0
  1  2  1  0
  2  3  1  0
  3  4  1  0
  4  5  2  0
  5  6  1  0
  6  7  2  0
  7  8  1  0
  8  9  1  0
  9 10  2  0
 10 11  1  0
 11 12  2  0
 12 13  1  0
 13 14  2  0
 14 15  1  0
 15 16  2  0
 15 17  1  0
 17 18  1  0
 18 19  1  0
 19 20  1  0
 10 21  1  0
 21  4  1  0
 21  7  1  0
 16 11  1  0
 20 14  1  0
M  CHG  1   1   1
M  END
>  <Compound_ID>  (403) 
C58021250

>  <Active>  (403) 
0.0

>  <Smiles>  (403) 
[NH3+]CCc1nnc2scc(-c3ccc4c(c3)CCCC4)n12

>  <canonical_smi>  (403) 
[NH3+]CCc1nnc2scc(-c3ccc4c(c3)CCCC4)n12

>  <Set>  (403) 
G2 inactive

>  <Set_type>  (403) 
Train

>  <MW>  (403) 
299.42

>  <HBD>  (403) 
1

>  <HBA>  (403) 
2

>  <NRB>  (403) 
3

>  <NR>  (403) 
4

>  <NAR>  (403) 
3

>  <PSA>  (403) 
57.83

>  <Standard Type>  (403) 
nan

>  <Standard Relation>  (403) 
nan

>  <Standard Units>  (403) 
nan

>  <Standard Value>  (403) 
nan

>  <Assay ChEMBL ID>  (403) 
nan

>  <Assay Description>  (403) 
nan

>  <BAO Label>  (403) 
nan

$$$$

     RDKit          2D

 11 12  0  0  0  0  0  0  0  0999 V2000
   -2.9499    4.2246    0.0000 N   0  0  0  0  0  0  0  0  0  0  0  0
   -1.8351    3.2209    0.0000 C   0  0  0  0  0  0  0  0  0  0  0  0
   -0.4086    3.6844    0.0000 N   0  0  0  0  0  0  0  0  0  0  0  0
    0.7062    2.6807    0.0000 C   0  0  0  0  0  0  0  0  0  0  0  0
    2.1328    3.1443    0.0000 N   0  0  0  0  0  0  0  0  0  0  0  0
    0.3943    1.2135    0.0000 C   0  0  0  0  0  0  0  0  0  0  0  0
    1.2760    0.0000    0.0000 N   0  0  0  0  0  0  0  0  0  0  0  0
    0.3943   -1.2135    0.0000 S   0  0  0  0  0  0  0  0  0  0  0  0
   -1.0323   -0.7500    0.0000 N   0  0  0  0  0  0  0  0  0  0  0  0
   -1.0323    0.7500    0.0000 C   0  0  0  0  0  0  0  0  0  0  0  0
   -2.1470    1.7537    0.0000 N   0  0  0  0  0  0  0  0  0  0  0  0
  1  2  1  0
  2  3  1  0
  3  4  2  0
  4  5  1  0
  4  6  1  0
  6  7  2  0
  7  8  1  0
  8  9  1  0
  9 10  2  0
 10 11  1  0
 11  2  2  0
 10  6  1  0
M  END
>  <Compound_ID>  (404) 
C17160622

>  <Active>  (404) 
0.0

>  <Smiles>  (404) 
Nc1nc(N)c2nsnc2n1

>  <canonical_smi>  (404) 
Nc1nc(N)c2nsnc2n1

>  <Set>  (404) 
G2 inactive

>  <Set_type>  (404) 
Train

>  <MW>  (404) 
168.19

>  <HBD>  (404) 
2

>  <HBA>  (404) 
6

>  <NRB>  (404) 
0

>  <NR>  (404) 
2

>  <NAR>  (404) 
2

>  <PSA>  (404) 
103.6

>  <Standard Type>  (404) 
nan

>  <Standard Relation>  (404) 
nan

>  <Standard Units>  (404) 
nan

>  <Standard Value>  (404) 
nan

>  <Assay ChEMBL ID>  (404) 
nan

>  <Assay Description>  (404) 
nan

>  <BAO Label>  (404) 
nan

$$$$

     RDKit          2D

 16 16  0  0  0  0  0  0  0  0999 V2000
    5.2500   -1.2990    0.0000 C   0  0  0  0  0  0  0  0  0  0  0  0
    3.7500   -1.2990    0.0000 C   0  0  0  0  0  0  0  0  0  0  0  0
    3.0000    0.0000    0.0000 C   0  0  0  0  0  0  0  0  0  0  0  0
    3.7500    1.2990    0.0000 N   0  0  0  0  0  0  0  0  0  0  0  0
    5.2500    1.2990    0.0000 N   0  0  0  0  0  0  0  0  0  0  0  0
    6.0000    2.5981    0.0000 C   0  0  0  0  0  0  0  0  0  0  0  0
    7.5000    2.5981    0.0000 N   0  0  0  0  0  0  0  0  0  0  0  0
    5.2500    3.8971    0.0000 O   0  0  0  0  0  0  0  0  0  0  0  0
    1.5000    0.0000    0.0000 C   0  0  0  0  0  0  0  0  0  0  0  0
    0.7500   -1.2990    0.0000 C   0  0  0  0  0  0  0  0  0  0  0  0
   -0.7500   -1.2990    0.0000 C   0  0  0  0  0  0  0  0  0  0  0  0
   -1.5000   -2.5981    0.0000 F   0  0  0  0  0  0  0  0  0  0  0  0
   -1.5000    0.0000    0.0000 C   0  0  0  0  0  0  0  0  0  0  0  0
   -0.7500    1.2990    0.0000 C   0  0  0  0  0  0  0  0  0  0  0  0
    0.7500    1.2990    0.0000 C   0  0  0  0  0  0  0  0  0  0  0  0
    1.5000    2.5981    0.0000 O   0  0  0  0  0  0  0  0  0  0  0  0
  1  2  1  0
  2  3  1  0
  3  4  1  0
  4  5  1  0
  5  6  1  0
  6  7  1  0
  6  8  2  0
  3  9  2  0
  9 10  1  0
 10 11  2  0
 11 12  1  0
 11 13  1  0
 13 14  2  0
 14 15  1  0
 15 16  2  0
 15  9  1  0
M  END
>  <Compound_ID>  (405) 
C05788753

>  <Active>  (405) 
0.0

>  <Smiles>  (405) 
CC/C(NNC(N)=O)=C1\C=C(F)C=CC1=O

>  <canonical_smi>  (405) 
CC/C(NNC(N)=O)=C1\C=C(F)C=CC1=O

>  <Set>  (405) 
G2 inactive

>  <Set_type>  (405) 
Train

>  <MW>  (405) 
225.22

>  <HBD>  (405) 
3

>  <HBA>  (405) 
3

>  <NRB>  (405) 
3

>  <NR>  (405) 
1

>  <NAR>  (405) 
0

>  <PSA>  (405) 
84.22

>  <Standard Type>  (405) 
nan

>  <Standard Relation>  (405) 
nan

>  <Standard Units>  (405) 
nan

>  <Standard Value>  (405) 
nan

>  <Assay ChEMBL ID>  (405) 
nan

>  <Assay Description>  (405) 
nan

>  <BAO Label>  (405) 
nan

$$$$

     RDKit          2D

 15 17  0  0  0  0  0  0  0  0999 V2000
    0.3943    6.4937    0.0000 C   0  0  0  0  0  0  0  0  0  0  0  0
    0.8578    5.0672    0.0000 C   0  0  0  0  0  0  0  0  0  0  0  0
   -0.0239    3.8536    0.0000 C   0  0  0  0  0  0  0  0  0  0  0  0
    0.8578    2.6401    0.0000 C   0  0  0  0  0  0  0  0  0  0  0  0
    0.3943    1.2135    0.0000 C   0  0  0  0  0  0  0  0  0  0  0  0
    1.2760    0.0000    0.0000 N   0  0  0  0  0  0  0  0  0  0  0  0
    0.3943   -1.2135    0.0000 N   0  0  0  0  0  0  0  0  0  0  0  0
   -1.0323   -0.7500    0.0000 C   0  0  0  0  0  0  0  0  0  0  0  0
   -2.4589   -1.2135    0.0000 S   0  0  0  0  0  0  0  0  0  0  0  0
   -3.3405    0.0000    0.0000 C   0  0  0  0  0  0  0  0  0  0  0  0
   -4.8405    0.0000    0.0000 N   0  0  0  0  0  0  0  0  0  0  0  0
   -2.4589    1.2135    0.0000 N   0  0  0  0  0  0  0  0  0  0  0  0
   -1.0323    0.7500    0.0000 N   0  0  0  0  0  0  0  0  0  0  0  0
    2.2844    3.1036    0.0000 N   0  0  0  0  0  0  0  0  0  0  0  0
    2.2844    4.6036    0.0000 N   0  0  0  0  0  0  0  0  0  0  0  0
  1  2  1  0
  2  3  2  0
  4  3  1  6
  4  5  1  0
  5  6  1  6
  6  7  1  0
  8  7  1  1
  8  9  1  0
  9 10  1  0
 10 11  1  0
 10 12  2  0
 12 13  1  0
  4 14  1  0
 14 15  2  0
 15  2  1  0
 13  5  1  0
 13  8  1  0
M  END
>  <Compound_ID>  (406) 
C38743803

>  <Active>  (406) 
0.0

>  <Smiles>  (406) 
CC1=C[C@@H]([C@@H]2NN[C@H]3SC(N)=NN32)N=N1

>  <canonical_smi>  (406) 
CC1=C[C@@H]([C@@H]2NN[C@H]3SC(N)=NN32)N=N1

>  <Set>  (406) 
G2 inactive

>  <Set_type>  (406) 
Train

>  <MW>  (406) 
225.28

>  <HBD>  (406) 
3

>  <HBA>  (406) 
5

>  <NRB>  (406) 
1

>  <NR>  (406) 
3

>  <NAR>  (406) 
0

>  <PSA>  (406) 
90.4

>  <Standard Type>  (406) 
nan

>  <Standard Relation>  (406) 
nan

>  <Standard Units>  (406) 
nan

>  <Standard Value>  (406) 
nan

>  <Assay ChEMBL ID>  (406) 
nan

>  <Assay Description>  (406) 
nan

>  <BAO Label>  (406) 
nan

$$$$

     RDKit          2D

 14 15  0  0  0  0  0  0  0  0999 V2000
   -5.6640    0.6645    0.0000 C   0  0  0  0  0  0  0  0  0  0  0  0
   -4.1640    0.6645    0.0000 C   0  0  0  0  0  0  0  0  0  0  0  0
   -3.4140   -0.6346    0.0000 C   0  0  0  0  0  0  0  0  0  0  0  0
   -3.4140    1.9635    0.0000 O   0  0  0  0  0  0  0  0  0  0  0  0
   -1.9140    1.9635    0.0000 N   0  0  0  0  0  0  0  0  0  0  0  0
   -1.0323    3.1771    0.0000 C   0  0  0  0  0  0  0  0  0  0  0  0
   -1.4958    4.6036    0.0000 N   0  0  0  0  0  0  0  0  0  0  0  0
    0.3943    2.7135    0.0000 C   0  0  0  0  0  0  0  0  0  0  0  0
    1.6078    3.5952    0.0000 N   0  0  0  0  0  0  0  0  0  0  0  0
    0.3943    1.2135    0.0000 C   0  0  0  0  0  0  0  0  0  0  0  0
    1.2760    0.0000    0.0000 C   0  0  0  0  0  0  0  0  0  0  0  0
    0.3943   -1.2135    0.0000 C   0  0  0  0  0  0  0  0  0  0  0  0
   -1.0323   -0.7500    0.0000 O   0  0  0  0  0  0  0  0  0  0  0  0
   -1.0323    0.7500    0.0000 C   0  0  0  0  0  0  0  0  0  0  0  0
  1  2  1  0
  2  3  1  0
  2  4  1  0
  4  5  1  0
  5  6  1  0
  6  7  1  0
  6  8  2  0
  8  9  1  0
  8 10  1  0
 10 11  1  0
 11 12  2  0
 12 13  1  0
 13 14  1  0
 14  5  1  0
 14 10  2  0
M  END
>  <Compound_ID>  (407) 
C39126777

>  <Active>  (407) 
0.0

>  <Smiles>  (407) 
CC(C)On1c(N)c(N)c2ccoc21

>  <canonical_smi>  (407) 
CC(C)On1c(N)c(N)c2ccoc21

>  <Set>  (407) 
G2 inactive

>  <Set_type>  (407) 
Train

>  <MW>  (407) 
195.22

>  <HBD>  (407) 
2

>  <HBA>  (407) 
4

>  <NRB>  (407) 
2

>  <NR>  (407) 
2

>  <NAR>  (407) 
2

>  <PSA>  (407) 
79.34

>  <Standard Type>  (407) 
nan

>  <Standard Relation>  (407) 
nan

>  <Standard Units>  (407) 
nan

>  <Standard Value>  (407) 
nan

>  <Assay ChEMBL ID>  (407) 
nan

>  <Assay Description>  (407) 
nan

>  <BAO Label>  (407) 
nan

$$$$

     RDKit          2D

 16 17  0  0  0  0  0  0  0  0999 V2000
    3.7500    1.2990    0.0000 H   0  0  0  0  0  0  0  0  0  0  0  0
    3.0000    0.0000    0.0000 N   0  0  0  0  0  0  0  0  0  0  0  0
    1.5000    0.0000    0.0000 C   0  0  0  0  0  0  0  0  0  0  0  0
    0.7500   -1.2990    0.0000 N   0  0  0  0  0  0  0  0  0  0  0  0
   -0.7500   -1.2990    0.0000 C   0  0  0  0  0  0  0  0  0  0  0  0
   -1.5000   -2.5981    0.0000 S   0  0  0  0  0  0  0  0  0  0  0  0
   -1.5000    0.0000    0.0000 N   0  0  0  0  0  0  0  0  0  0  0  0
   -0.7500    1.2990    0.0000 C   0  0  0  0  0  0  0  0  0  0  0  0
   -1.5000    2.5981    0.0000 C   0  0  0  0  0  0  0  0  0  0  0  0
   -0.7500    3.8971    0.0000 C   0  0  0  0  0  0  0  0  0  0  0  0
   -1.5000    5.1962    0.0000 C   0  0  0  0  0  0  0  0  0  0  0  0
   -3.0000    5.1962    0.0000 C   0  0  0  0  0  0  0  0  0  0  0  0
   -3.7500    3.8971    0.0000 C   0  0  0  0  0  0  0  0  0  0  0  0
   -5.2500    3.8971    0.0000 C   0  0  0  0  0  0  0  0  0  0  0  0
   -3.0000    2.5981    0.0000 N   0  0  0  0  0  0  0  0  0  0  0  0
    0.7500    1.2990    0.0000 N   0  0  0  0  0  0  0  0  0  0  0  0
  1  2  1  0
  2  3  2  0
  3  4  1  0
  4  5  1  0
  5  6  2  0
  5  7  1  0
  7  8  1  0
  8  9  1  1
  9 10  2  0
 10 11  1  0
 11 12  2  0
 12 13  1  0
 13 14  1  0
 13 15  2  0
  8 16  1  0
 16  3  1  0
 15  9  1  0
M  END
>  <Compound_ID>  (408) 
C34927018

>  <Active>  (408) 
0.0

>  <Smiles>  (408) 
[H]/N=C1/NC(=S)N[C@@H](c2cccc(C)n2)N1

>  <canonical_smi>  (408) 
[H]/N=C1/NC(=S)N[C@@H](c2cccc(C)n2)N1

>  <Set>  (408) 
G2 inactive

>  <Set_type>  (408) 
Train

>  <MW>  (408) 
221.29

>  <HBD>  (408) 
4

>  <HBA>  (408) 
5

>  <NRB>  (408) 
1

>  <NR>  (408) 
2

>  <NAR>  (408) 
1

>  <PSA>  (408) 
72.83

>  <Standard Type>  (408) 
nan

>  <Standard Relation>  (408) 
nan

>  <Standard Units>  (408) 
nan

>  <Standard Value>  (408) 
nan

>  <Assay ChEMBL ID>  (408) 
nan

>  <Assay Description>  (408) 
nan

>  <BAO Label>  (408) 
nan

$$$$

     RDKit          2D

 11 12  0  0  0  0  0  0  0  0999 V2000
   -3.5736    1.2902    0.0000 N   0  0  0  0  0  0  0  0  0  0  0  0
   -2.1470    1.7537    0.0000 C   0  0  0  0  0  0  0  0  0  0  0  0
   -1.8351    3.2209    0.0000 N   0  0  0  0  0  0  0  0  0  0  0  0
   -0.4086    3.6844    0.0000 N   0  0  0  0  0  0  0  0  0  0  0  0
    0.7062    2.6807    0.0000 C   0  0  0  0  0  0  0  0  0  0  0  0
    2.1328    3.1443    0.0000 N   0  0  0  0  0  0  0  0  0  0  0  0
    0.3943    1.2135    0.0000 C   0  0  0  0  0  0  0  0  0  0  0  0
    1.2760    0.0000    0.0000 S   0  0  0  0  0  0  0  0  0  0  0  0
    0.3943   -1.2135    0.0000 N   0  0  0  0  0  0  0  0  0  0  0  0
   -1.0323   -0.7500    0.0000 N   0  0  0  0  0  0  0  0  0  0  0  0
   -1.0323    0.7500    0.0000 C   0  0  0  0  0  0  0  0  0  0  0  0
  1  2  1  0
  2  3  2  0
  3  4  1  0
  4  5  2  0
  5  6  1  0
  5  7  1  0
  7  8  1  0
  8  9  1  0
  9 10  2  0
 10 11  1  0
 11  2  1  0
 11  7  2  0
M  END
>  <Compound_ID>  (409) 
C62718318

>  <Active>  (409) 
0.0

>  <Smiles>  (409) 
Nc1nnc(N)c2snnc12

>  <canonical_smi>  (409) 
Nc1nnc(N)c2snnc12

>  <Set>  (409) 
G2 inactive

>  <Set_type>  (409) 
Train

>  <MW>  (409) 
168.19

>  <HBD>  (409) 
2

>  <HBA>  (409) 
6

>  <NRB>  (409) 
0

>  <NR>  (409) 
2

>  <NAR>  (409) 
2

>  <PSA>  (409) 
103.6

>  <Standard Type>  (409) 
nan

>  <Standard Relation>  (409) 
nan

>  <Standard Units>  (409) 
nan

>  <Standard Value>  (409) 
nan

>  <Assay ChEMBL ID>  (409) 
nan

>  <Assay Description>  (409) 
nan

>  <BAO Label>  (409) 
nan

$$$$

     RDKit          2D

 15 16  0  0  0  0  0  0  0  0999 V2000
    2.7760    0.0000    0.0000 C   0  0  0  0  0  0  0  0  0  0  0  0
    1.2760    0.0000    0.0000 C   0  0  0  0  0  0  0  0  0  0  0  0
    0.3943    1.2135    0.0000 N   0  0  0  0  0  0  0  0  0  0  0  0
   -1.0323    0.7500    0.0000 C   0  0  0  0  0  0  0  0  0  0  0  0
   -2.2458    1.6317    0.0000 N   0  0  0  0  0  0  0  0  0  0  0  0
   -3.6724    1.1682    0.0000 C   0  0  0  0  0  0  0  0  0  0  0  0
   -4.5541    2.3817    0.0000 C   0  0  0  0  0  0  0  0  0  0  0  0
   -3.6724    3.5952    0.0000 C   0  0  0  0  0  0  0  0  0  0  0  0
   -4.1359    5.0218    0.0000 N   0  0  0  0  0  4  0  0  0  0  0  0
   -3.1322    6.1365    0.0000 C   0  0  0  0  0  0  0  0  0  0  0  0
   -5.6031    5.3337    0.0000 C   0  0  0  0  0  0  0  0  0  0  0  0
   -2.2458    3.1317    0.0000 C   0  0  0  0  0  0  0  0  0  0  0  0
   -1.0323   -0.7500    0.0000 C   0  0  0  0  0  0  0  0  0  0  0  0
   -2.2458   -1.6317    0.0000 N   0  0  0  0  0  0  0  0  0  0  0  0
    0.3943   -1.2135    0.0000 N   0  0  0  0  0  4  0  0  0  0  0  0
  1  2  1  0
  2  3  2  0
  3  4  1  0
  4  5  1  6
  5  6  1  0
  6  7  1  0
  7  8  1  0
  8  9  1  1
  9 10  1  0
  9 11  1  0
  8 12  1  0
  4 13  1  0
 13 14  1  0
 13 15  2  0
 15  2  1  0
 12  5  1  0
M  CHG  2   9   1  15   1
M  END
>  <Compound_ID>  (410) 
C62965498

>  <Active>  (410) 
0.0

>  <Smiles>  (410) 
CC1=N[C@@H](N2CC[C@@H]([NH+](C)C)C2)C(N)=[NH+]1

>  <canonical_smi>  (410) 
CC1=N[C@@H](N2CC[C@@H]([NH+](C)C)C2)C(N)=[NH+]1

>  <Set>  (410) 
G2 inactive

>  <Set_type>  (410) 
Train

>  <MW>  (410) 
211.31

>  <HBD>  (410) 
3

>  <HBA>  (410) 
2

>  <NRB>  (410) 
2

>  <NR>  (410) 
2

>  <NAR>  (410) 
0

>  <PSA>  (410) 
60.03

>  <Standard Type>  (410) 
nan

>  <Standard Relation>  (410) 
nan

>  <Standard Units>  (410) 
nan

>  <Standard Value>  (410) 
nan

>  <Assay ChEMBL ID>  (410) 
nan

>  <Assay Description>  (410) 
nan

>  <BAO Label>  (410) 
nan

$$$$

     RDKit          2D

 14 15  0  0  0  0  0  0  0  0999 V2000
    2.7760    0.0000    0.0000 C   0  0  0  0  0  0  0  0  0  0  0  0
    1.2760    0.0000    0.0000 C   0  0  0  0  0  0  0  0  0  0  0  0
    0.3943    1.2135    0.0000 N   0  0  0  0  0  0  0  0  0  0  0  0
   -1.0323    0.7500    0.0000 C   0  0  0  0  0  0  0  0  0  0  0  0
   -2.2458    1.6317    0.0000 C   0  0  0  0  0  0  0  0  0  0  0  0
   -2.0890    3.1235    0.0000 S   0  0  0  0  0  0  0  0  0  0  0  0
   -3.3025    4.0051    0.0000 C   0  0  0  0  0  0  0  0  0  0  0  0
   -4.7291    3.5416    0.0000 N   0  0  0  0  0  0  0  0  0  0  0  0
   -5.6108    4.7551    0.0000 N   0  0  0  0  0  0  0  0  0  0  0  0
   -4.7291    5.9687    0.0000 C   0  0  0  0  0  0  0  0  0  0  0  0
   -5.1927    7.3952    0.0000 N   0  0  0  0  0  0  0  0  0  0  0  0
   -3.3025    5.5051    0.0000 N   0  0  0  0  0  0  0  0  0  0  0  0
   -1.0323   -0.7500    0.0000 N   0  0  0  0  0  0  0  0  0  0  0  0
    0.3943   -1.2135    0.0000 O   0  0  0  0  0  0  0  0  0  0  0  0
  2  1  1  6
  2  3  1  0
  3  4  1  0
  4  5  1  0
  5  6  1  0
  6  7  1  0
  7  8  2  0
  8  9  1  0
  9 10  1  0
 10 11  1  0
 10 12  2  0
  4 13  2  0
 13 14  1  0
 14  2  1  0
 12  7  1  0
M  END
>  <Compound_ID>  (411) 
C64233257

>  <Active>  (411) 
0.0

>  <Smiles>  (411) 
C[C@H]1NC(CSc2n[nH]c(N)n2)=NO1

>  <canonical_smi>  (411) 
C[C@H]1NC(CSc2n[nH]c(N)n2)=NO1

>  <Set>  (411) 
G2 inactive

>  <Set_type>  (411) 
Train

>  <MW>  (411) 
214.25

>  <HBD>  (411) 
3

>  <HBA>  (411) 
6

>  <NRB>  (411) 
3

>  <NR>  (411) 
2

>  <NAR>  (411) 
1

>  <PSA>  (411) 
101.21

>  <Standard Type>  (411) 
nan

>  <Standard Relation>  (411) 
nan

>  <Standard Units>  (411) 
nan

>  <Standard Value>  (411) 
nan

>  <Assay ChEMBL ID>  (411) 
nan

>  <Assay Description>  (411) 
nan

>  <BAO Label>  (411) 
nan

$$$$

     RDKit          2D

 21 23  0  0  0  0  0  0  0  0999 V2000
    3.7500   -1.2990    0.0000 C   0  0  0  0  0  0  0  0  0  0  0  0
    3.0000    0.0000    0.0000 N   0  0  0  0  0  0  0  0  0  0  0  0
    3.7500    1.2990    0.0000 C   0  0  0  0  0  0  0  0  0  0  0  0
    1.5000    0.0000    0.0000 C   0  0  0  0  0  0  0  0  0  0  0  0
    0.7500   -1.2990    0.0000 C   0  0  0  0  0  0  0  0  0  0  0  0
   -0.7500   -1.2990    0.0000 C   0  0  0  0  0  0  0  0  0  0  0  0
   -1.5000    0.0000    0.0000 C   0  0  0  0  0  0  0  0  0  0  0  0
   -3.0000    0.0000    0.0000 C   0  0  0  0  0  0  0  0  0  0  0  0
   -3.8817   -1.2135    0.0000 N   0  0  0  0  0  0  0  0  0  0  0  0
   -5.3083   -0.7500    0.0000 N   0  0  0  0  0  0  0  0  0  0  0  0
   -5.3083    0.7500    0.0000 C   0  0  0  0  0  0  0  0  0  0  0  0
   -6.5218    1.6317    0.0000 C   0  0  0  0  0  0  0  0  0  0  0  0
   -6.3650    3.1235    0.0000 C   0  0  0  0  0  0  0  0  0  0  0  0
   -7.5785    4.0051    0.0000 C   0  0  0  0  0  0  0  0  0  0  0  0
   -8.9488    3.3950    0.0000 C   0  0  0  0  0  0  0  0  0  0  0  0
  -10.1624    4.2767    0.0000 Cl  0  0  0  0  0  0  0  0  0  0  0  0
   -9.1056    1.9033    0.0000 C   0  0  0  0  0  0  0  0  0  0  0  0
   -7.8921    1.0216    0.0000 C   0  0  0  0  0  0  0  0  0  0  0  0
   -3.8817    1.2135    0.0000 N   0  0  0  0  0  4  0  0  0  0  0  0
   -0.7500    1.2990    0.0000 C   0  0  0  0  0  0  0  0  0  0  0  0
    0.7500    1.2990    0.0000 C   0  0  0  0  0  0  0  0  0  0  0  0
  1  2  1  0
  2  3  1  0
  2  4  1  0
  4  5  2  0
  5  6  1  0
  6  7  2  0
  8  7  1  6
  8  9  1  0
  9 10  1  0
 10 11  1  0
 11 12  1  0
 12 13  2  0
 13 14  1  0
 14 15  2  0
 15 16  1  0
 15 17  1  0
 17 18  2  0
 11 19  2  0
  7 20  1  0
 20 21  2  0
 21  4  1  0
 19  8  1  0
 18 12  1  0
M  CHG  1  19   1
M  END
>  <Compound_ID>  (412) 
C03179609

>  <Active>  (412) 
0.0

>  <Smiles>  (412) 
CN(C)c1ccc([C@@H]2NNC(c3ccc(Cl)cc3)=[NH+]2)cc1

>  <canonical_smi>  (412) 
CN(C)c1ccc([C@@H]2NNC(c3ccc(Cl)cc3)=[NH+]2)cc1

>  <Set>  (412) 
G2 inactive

>  <Set_type>  (412) 
Train

>  <MW>  (412) 
301.8

>  <HBD>  (412) 
3

>  <HBA>  (412) 
3

>  <NRB>  (412) 
3

>  <NR>  (412) 
3

>  <NAR>  (412) 
2

>  <PSA>  (412) 
41.27

>  <Standard Type>  (412) 
nan

>  <Standard Relation>  (412) 
nan

>  <Standard Units>  (412) 
nan

>  <Standard Value>  (412) 
nan

>  <Assay ChEMBL ID>  (412) 
nan

>  <Assay Description>  (412) 
nan

>  <BAO Label>  (412) 
nan

$$$$

     RDKit          2D

 24 28  0  0  0  0  0  0  0  0999 V2000
    0.7500   -3.8971    0.0000 C   0  0  0  0  0  0  0  0  0  0  0  0
    1.5000   -2.5981    0.0000 C   0  0  0  0  0  0  0  0  0  0  0  0
    0.7500   -1.2990    0.0000 C   0  0  0  0  0  0  0  0  0  0  0  0
    1.5000    0.0000    0.0000 C   0  0  0  0  0  0  0  0  0  0  0  0
    0.7500    1.2990    0.0000 N   0  0  0  0  0  0  0  0  0  0  0  0
   -0.7500    1.2990    0.0000 C   0  0  0  0  0  0  0  0  0  0  0  0
   -1.5000    0.0000    0.0000 C   0  0  0  0  0  0  0  0  0  0  0  0
   -3.0000    0.0000    0.0000 C   0  0  0  0  0  0  0  0  0  0  0  0
   -3.7500    1.2990    0.0000 C   0  0  0  0  0  0  0  0  0  0  0  0
    1.7010   -0.7500    0.0000 C   0  0  0  0  0  0  0  0  0  0  0  0
    3.0000   -0.0000    0.0000 N   0  0  0  0  0  4  0  0  0  0  0  0
    2.2500   -1.2990    0.0000 C   0  0  0  0  0  0  0  0  0  0  0  0
    2.2500    1.2990    0.0000 C   0  0  0  0  0  0  0  0  0  0  0  0
    3.0000    2.5981    0.0000 C   0  0  0  0  0  0  0  0  0  0  0  0
    4.4918    2.7549    0.0000 C   0  0  0  0  0  0  0  0  0  0  0  0
    4.8037    4.2221    0.0000 C   0  0  0  0  0  0  0  0  0  0  0  0
    6.1027    4.9721    0.0000 C   0  0  0  0  0  0  0  0  0  0  0  0
    6.1027    6.4721    0.0000 C   0  0  0  0  0  0  0  0  0  0  0  0
    4.8037    7.2221    0.0000 C   0  0  0  0  0  0  0  0  0  0  0  0
    3.5046    6.4721    0.0000 C   0  0  0  0  0  0  0  0  0  0  0  0
    3.5046    4.9721    0.0000 C   0  0  0  0  0  0  0  0  0  0  0  0
    2.3899    3.9684    0.0000 N   0  0  0  0  0  0  0  0  0  0  0  0
   -0.7500   -1.2990    0.0000 C   0  0  0  0  0  0  0  0  0  0  0  0
   -1.5000   -2.5981    0.0000 O   0  0  0  0  0  0  0  0  0  0  0  0
  1  2  1  0
  3  2  1  6
  3  4  1  0
  4  5  1  0
  5  6  1  0
  6  7  1  0
  7  8  1  1
  8  9  1  0
  7 10  1  0
 10 11  1  0
 11 12  1  0
 11 13  1  0
 13 14  1  6
 14 15  2  0
 15 16  1  0
 16 17  2  0
 17 18  1  0
 18 19  2  0
 19 20  1  0
 20 21  2  0
 21 22  1  0
  7 23  1  0
 23 24  1  0
 12  3  1  0
 22 14  1  0
 23  3  1  0
 13  5  1  0
 21 16  1  0
M  CHG  1  11   1
M  END
>  <Compound_ID>  (413) 
C27577777

>  <Active>  (413) 
0.0

>  <Smiles>  (413) 
CC[C@]12CN3C[C@](CC)(C[NH+](C1)[C@H]3c1cc3ccccc3[nH]1)C2O

>  <canonical_smi>  (413) 
CC[C@]12CN3C[C@](CC)(C[NH+](C1)[C@H]3c1cc3ccccc3[nH]1)C2O

>  <Set>  (413) 
G2 inactive

>  <Set_type>  (413) 
Train

>  <MW>  (413) 
326.46

>  <HBD>  (413) 
3

>  <HBA>  (413) 
2

>  <NRB>  (413) 
3

>  <NR>  (413) 
6

>  <NAR>  (413) 
2

>  <PSA>  (413) 
43.7

>  <Standard Type>  (413) 
nan

>  <Standard Relation>  (413) 
nan

>  <Standard Units>  (413) 
nan

>  <Standard Value>  (413) 
nan

>  <Assay ChEMBL ID>  (413) 
nan

>  <Assay Description>  (413) 
nan

>  <BAO Label>  (413) 
nan

$$$$

     RDKit          2D

 20 22  0  0  0  0  0  0  0  0999 V2000
   -5.4912    4.7648    0.0000 C   0  0  0  0  0  0  0  0  0  0  0  0
   -4.3764    3.7611    0.0000 C   0  0  0  0  0  0  0  0  0  0  0  0
   -2.9499    4.2246    0.0000 O   0  0  0  0  0  0  0  0  0  0  0  0
   -1.8351    3.2209    0.0000 C   0  0  0  0  0  0  0  0  0  0  0  0
   -2.1470    1.7537    0.0000 C   0  0  0  0  0  0  0  0  0  0  0  0
   -1.0323    0.7500    0.0000 C   0  0  0  0  0  0  0  0  0  0  0  0
    0.3943    1.2135    0.0000 C   0  0  0  0  0  0  0  0  0  0  0  0
    0.7062    2.6807    0.0000 C   0  0  0  0  0  0  0  0  0  0  0  0
   -0.4086    3.6844    0.0000 C   0  0  0  0  0  0  0  0  0  0  0  0
   -0.0967    5.1517    0.0000 C   0  0  0  0  0  0  0  0  0  0  0  0
   -1.1004    6.2664    0.0000 N   0  0  0  0  0  0  0  0  0  0  0  0
   -0.3504    7.5654    0.0000 C   0  0  0  0  0  0  0  0  0  0  0  0
   -0.9605    8.9357    0.0000 C   0  0  0  0  0  0  0  0  0  0  0  0
   -0.0788   10.1493    0.0000 N   0  0  0  0  0  4  0  0  0  0  0  0
    1.1168    7.2536    0.0000 C   0  0  0  0  0  0  0  0  0  0  0  0
    1.2736    5.7618    0.0000 S   0  0  0  0  0  0  0  0  0  0  0  0
    1.2760    0.0000    0.0000 O   0  0  0  0  0  0  0  0  0  0  0  0
    0.3943   -1.2135    0.0000 C   0  0  0  0  0  0  0  0  0  0  0  0
    0.8578   -2.6401    0.0000 C   0  0  0  0  0  0  0  0  0  0  0  0
   -1.0323   -0.7500    0.0000 C   0  0  0  0  0  0  0  0  0  0  0  0
  1  2  1  0
  2  3  1  0
  3  4  1  0
  4  5  2  0
  5  6  1  0
  6  7  2  0
  7  8  1  0
  8  9  2  0
  9 10  1  0
 10 11  2  0
 11 12  1  0
 12 13  1  0
 13 14  1  0
 12 15  2  0
 15 16  1  0
  7 17  1  0
 17 18  1  0
 18 19  1  1
 18 20  1  0
  9  4  1  0
 16 10  1  0
 20  6  1  0
M  CHG  1  14   1
M  END
>  <Compound_ID>  (414) 
C40999799

>  <Active>  (414) 
0.0

>  <Smiles>  (414) 
CCOc1cc2c(cc1-c1nc(C[NH3+])cs1)O[C@@H](C)C2

>  <canonical_smi>  (414) 
CCOc1cc2c(cc1-c1nc(C[NH3+])cs1)O[C@@H](C)C2

>  <Set>  (414) 
G2 inactive

>  <Set_type>  (414) 
Train

>  <MW>  (414) 
291.4

>  <HBD>  (414) 
1

>  <HBA>  (414) 
3

>  <NRB>  (414) 
4

>  <NR>  (414) 
3

>  <NAR>  (414) 
2

>  <PSA>  (414) 
58.99

>  <Standard Type>  (414) 
nan

>  <Standard Relation>  (414) 
nan

>  <Standard Units>  (414) 
nan

>  <Standard Value>  (414) 
nan

>  <Assay ChEMBL ID>  (414) 
nan

>  <Assay Description>  (414) 
nan

>  <BAO Label>  (414) 
nan

$$$$

     RDKit          2D

 23 27  0  0  0  0  0  0  0  0999 V2000
   -3.0012   -8.3221    0.0000 C   0  0  0  0  0  0  0  0  0  0  0  0
   -3.7641   -7.0305    0.0000 C   0  0  0  0  0  0  0  0  0  0  0  0
   -3.0270   -5.7241    0.0000 C   0  0  0  0  0  0  0  0  0  0  0  0
   -3.7899   -4.4326    0.0000 C   0  0  0  0  0  0  0  0  0  0  0  0
   -3.5875   -2.2210    0.0000 N   0  0  0  0  0  4  0  0  0  0  0  0
   -2.3166   -2.4911    0.0000 C   0  0  0  0  0  0  0  0  0  0  0  0
   -2.4844   -2.4555    0.0000 C   0  0  0  0  0  0  0  0  0  0  0  0
   -1.2135   -2.7256    0.0000 C   0  0  0  0  0  0  0  0  0  0  0  0
   -0.0000   -3.6073    0.0000 C   0  0  0  0  0  0  0  0  0  0  0  0
   -0.1568   -5.0991    0.0000 C   0  0  0  0  0  0  0  0  0  0  0  0
    1.0567   -5.9808    0.0000 C   0  0  0  0  0  0  0  0  0  0  0  0
    0.8999   -7.4725    0.0000 O   0  0  0  0  0  0  0  0  0  0  0  0
   -1.5271   -5.7092    0.0000 C   0  0  0  0  0  0  0  0  0  0  0  0
   -2.7406   -4.8275    0.0000 C   0  0  0  0  0  0  0  0  0  0  0  0
   -2.5838   -3.3357    0.0000 C   0  0  0  0  0  0  0  0  0  0  0  0
    1.2135   -2.7256    0.0000 N   0  0  0  0  0  0  0  0  0  0  0  0
    0.7500   -1.2990    0.0000 C   0  0  0  0  0  0  0  0  0  0  0  0
    1.5000    0.0000    0.0000 C   0  0  0  0  0  0  0  0  0  0  0  0
    3.0000    0.0000    0.0000 O   0  0  0  0  0  0  0  0  0  0  0  0
    0.7500    1.2990    0.0000 C   0  0  0  0  0  0  0  0  0  0  0  0
   -0.7500    1.2990    0.0000 C   0  0  0  0  0  0  0  0  0  0  0  0
   -1.5000    0.0000    0.0000 C   0  0  0  0  0  0  0  0  0  0  0  0
   -0.7500   -1.2990    0.0000 C   0  0  0  0  0  0  0  0  0  0  0  0
  1  2  1  0
  2  3  2  0
  3  4  1  0
  4  5  1  0
  5  6  1  0
  6  7  1  0
  8  7  1  1
  8  9  1  0
  9 10  2  0
 10 11  1  0
 11 12  2  0
 13 10  1  1
 13 14  1  0
 15 14  1  1
  9 16  1  0
 16 17  1  0
 17 18  2  0
 18 19  1  0
 18 20  1  0
 20 21  2  0
 21 22  1  0
 22 23  2  0
 13  3  1  0
 23 17  1  0
 15  5  1  0
 15  8  1  0
 23  8  1  0
M  CHG  1   5   1
M  END
>  <Compound_ID>  (415) 
C33938146

>  <Active>  (415) 
0.0

>  <Smiles>  (415) 
C/C=C1/C[NH+]2CC[C@@]34C(=C(C=O)[C@@H]1C[C@@H]23)Nc1c(O)cccc14

>  <canonical_smi>  (415) 
C/C=C1/C[NH+]2CC[C@@]34C(=C(C=O)[C@@H]1C[C@@H]23)Nc1c(O)cccc14

>  <Set>  (415) 
G2 inactive

>  <Set_type>  (415) 
Train

>  <MW>  (415) 
309.39

>  <HBD>  (415) 
3

>  <HBA>  (415) 
3

>  <NRB>  (415) 
1

>  <NR>  (415) 
5

>  <NAR>  (415) 
1

>  <PSA>  (415) 
53.77

>  <Standard Type>  (415) 
nan

>  <Standard Relation>  (415) 
nan

>  <Standard Units>  (415) 
nan

>  <Standard Value>  (415) 
nan

>  <Assay ChEMBL ID>  (415) 
nan

>  <Assay Description>  (415) 
nan

>  <BAO Label>  (415) 
nan

$$$$

     RDKit          2D

 20 22  0  0  0  0  0  0  0  0999 V2000
   -1.1708    5.3800    0.0000 O   0  0  0  0  0  0  0  0  0  0  0  0
   -2.6380    5.6918    0.0000 S   0  0  0  0  0  0  0  0  0  0  0  0
   -4.1052    6.0037    0.0000 O   0  0  0  0  0  0  0  0  0  0  0  0
   -2.3261    7.1591    0.0000 C   0  0  0  0  0  0  0  0  0  0  0  0
   -0.8995    7.6226    0.0000 C   0  0  0  0  0  0  0  0  0  0  0  0
    0.2152    6.6189    0.0000 C   0  0  0  0  0  0  0  0  0  0  0  0
    1.6418    7.0824    0.0000 C   0  0  0  0  0  0  0  0  0  0  0  0
    1.9536    8.5496    0.0000 C   0  0  0  0  0  0  0  0  0  0  0  0
    0.8389    9.5533    0.0000 C   0  0  0  0  0  0  0  0  0  0  0  0
   -0.5877    9.0898    0.0000 C   0  0  0  0  0  0  0  0  0  0  0  0
   -2.9499    4.2246    0.0000 N   0  0  0  0  0  0  0  0  0  0  0  0
   -1.8351    3.2209    0.0000 C   0  0  0  0  0  0  0  0  0  0  0  0
   -0.4086    3.6844    0.0000 C   0  0  0  0  0  0  0  0  0  0  0  0
    0.7062    2.6807    0.0000 C   0  0  0  0  0  0  0  0  0  0  0  0
    0.3943    1.2135    0.0000 C   0  0  0  0  0  0  0  0  0  0  0  0
    1.2760    0.0000    0.0000 C   0  0  0  0  0  0  0  0  0  0  0  0
    0.3943   -1.2135    0.0000 N   0  0  0  0  0  4  0  0  0  0  0  0
   -1.0323   -0.7500    0.0000 C   0  0  0  0  0  0  0  0  0  0  0  0
   -1.0323    0.7500    0.0000 C   0  0  0  0  0  0  0  0  0  0  0  0
   -2.1470    1.7537    0.0000 C   0  0  0  0  0  0  0  0  0  0  0  0
  1  2  2  0
  2  3  2  0
  2  4  1  0
  4  5  1  0
  5  6  1  0
  6  7  1  0
  7  8  1  0
  8  9  1  0
  9 10  1  0
  2 11  1  0
 12 11  1  1
 12 13  1  0
 13 14  1  0
 15 14  1  1
 15 16  1  0
 16 17  1  0
 17 18  1  0
 19 18  1  1
 19 20  1  0
 10  5  1  0
 20 12  1  0
 19 15  1  0
M  CHG  1  17   1
M  END
>  <Compound_ID>  (416) 
C49043242

>  <Active>  (416) 
0.0

>  <Smiles>  (416) 
O=S(=O)(CC1CCCCC1)N[C@H]1CC[C@H]2C[NH2+]C[C@H]2C1

>  <canonical_smi>  (416) 
O=S(=O)(CC1CCCCC1)N[C@H]1CC[C@H]2C[NH2+]C[C@H]2C1

>  <Set>  (416) 
G2 inactive

>  <Set_type>  (416) 
Train

>  <MW>  (416) 
301.48

>  <HBD>  (416) 
2

>  <HBA>  (416) 
2

>  <NRB>  (416) 
4

>  <NR>  (416) 
3

>  <NAR>  (416) 
0

>  <PSA>  (416) 
62.78

>  <Standard Type>  (416) 
nan

>  <Standard Relation>  (416) 
nan

>  <Standard Units>  (416) 
nan

>  <Standard Value>  (416) 
nan

>  <Assay ChEMBL ID>  (416) 
nan

>  <Assay Description>  (416) 
nan

>  <BAO Label>  (416) 
nan

$$$$

     RDKit          2D

 33 37  0  0  0  0  0  0  0  0999 V2000
   -3.0000   -5.1962    0.0000 O   0  0  0  0  0  0  0  0  0  0  0  0
   -3.7500   -3.8971    0.0000 C   0  0  0  0  0  0  0  0  0  0  0  0
   -3.0000   -2.5981    0.0000 N   0  0  0  0  0  0  0  0  0  0  0  0
   -1.5000   -2.5981    0.0000 C   0  0  0  0  0  0  0  0  0  0  0  0
   -0.7500   -3.8971    0.0000 C   0  0  0  0  0  0  0  0  0  0  0  0
    0.7500   -3.8971    0.0000 C   0  0  0  0  0  0  0  0  0  0  0  0
    1.5000   -2.5981    0.0000 C   0  0  0  0  0  0  0  0  0  0  0  0
    0.7500   -1.2990    0.0000 C   0  0  0  0  0  0  0  0  0  0  0  0
    1.5000    0.0000    0.0000 C   0  0  0  0  0  0  0  0  0  0  0  0
    0.7500    1.2990    0.0000 C   0  0  0  0  0  0  0  0  0  0  0  0
   -0.7500    1.2990    0.0000 C   0  0  0  0  0  0  0  0  0  0  0  0
   -1.5000    0.0000    0.0000 C   0  0  0  0  0  0  0  0  0  0  0  0
   -0.7500   -1.2990    0.0000 C   0  0  0  0  0  0  0  0  0  0  0  0
   -5.2500   -3.8971    0.0000 O   0  0  0  0  0  0  0  0  0  0  0  0
   -6.0000   -5.1962    0.0000 C   0  0  0  0  0  0  0  0  0  0  0  0
   -5.3899   -6.5665    0.0000 C   0  0  0  0  0  0  0  0  0  0  0  0
   -6.5046   -7.5702    0.0000 O   0  0  0  0  0  0  0  0  0  0  0  0
   -7.8037   -6.8202    0.0000 C   0  0  0  0  0  0  0  0  0  0  0  0
   -7.4918   -5.3529    0.0000 C   0  0  0  0  0  0  0  0  0  0  0  0
   -8.7908   -4.6029    0.0000 O   0  0  0  0  0  0  0  0  0  0  0  0
   -9.9055   -5.6066    0.0000 C   0  0  0  0  0  0  0  0  0  0  0  0
   -9.2954   -6.9770    0.0000 C   0  0  0  0  0  0  0  0  0  0  0  0
  -10.0454   -8.2760    0.0000 N   0  0  0  0  0  0  0  0  0  0  0  0
  -11.5454   -8.2760    0.0000 C   0  0  0  0  0  0  0  0  0  0  0  0
  -12.2954   -6.9770    0.0000 S   0  0  0  0  0  0  0  0  0  0  0  0
  -12.2954   -9.5750    0.0000 N   0  0  0  0  0  0  0  0  0  0  0  0
  -13.7954   -9.5750    0.0000 C   0  0  0  0  0  0  0  0  0  0  0  0
  -14.5454   -8.2760    0.0000 C   0  0  0  0  0  0  0  0  0  0  0  0
  -16.0454   -8.2760    0.0000 C   0  0  0  0  0  0  0  0  0  0  0  0
  -16.7954   -9.5750    0.0000 C   0  0  0  0  0  0  0  0  0  0  0  0
  -18.2954   -9.5750    0.0000 Cl  0  0  0  0  0  0  0  0  0  0  0  0
  -16.0454  -10.8741    0.0000 C   0  0  0  0  0  0  0  0  0  0  0  0
  -14.5454  -10.8741    0.0000 C   0  0  0  0  0  0  0  0  0  0  0  0
  1  2  2  0
  2  3  1  0
  3  4  1  0
  4  5  2  0
  5  6  1  0
  6  7  2  0
  7  8  1  0
  8  9  2  0
  9 10  1  0
 10 11  2  0
 11 12  1  0
 12 13  2  0
  2 14  1  0
 15 14  1  6
 15 16  1  0
 16 17  1  0
 18 17  1  6
 18 19  1  0
 19 20  1  6
 20 21  1  0
 21 22  1  0
 22 23  1  1
 23 24  1  0
 24 25  2  0
 24 26  1  0
 26 27  1  0
 27 28  2  0
 28 29  1  0
 29 30  2  0
 30 31  1  0
 30 32  1  0
 32 33  2  0
 13  4  1  0
 19 15  1  0
 33 27  1  0
 13  8  1  0
 22 18  1  0
M  END
>  <Compound_ID>  (417) 
C04235455

>  <Active>  (417) 
0.0

>  <Smiles>  (417) 
O=C(Nc1cccc2ccccc12)O[C@@H]1CO[C@H]2[C@@H]1OC[C@@H]2NC(=S)Nc1ccc(Cl)cc1

>  <canonical_smi>  (417) 
O=C(Nc1cccc2ccccc12)O[C@@H]1CO[C@@H]2[C@@H](NC(=S)Nc3ccc(Cl)cc3)CO[C@H]12

>  <Set>  (417) 
G2 inactive

>  <Set_type>  (417) 
Train

>  <MW>  (417) 
483.98

>  <HBD>  (417) 
3

>  <HBA>  (417) 
7

>  <NRB>  (417) 
4

>  <NR>  (417) 
5

>  <NAR>  (417) 
3

>  <PSA>  (417) 
80.85

>  <Standard Type>  (417) 
nan

>  <Standard Relation>  (417) 
nan

>  <Standard Units>  (417) 
nan

>  <Standard Value>  (417) 
nan

>  <Assay ChEMBL ID>  (417) 
nan

>  <Assay Description>  (417) 
nan

>  <BAO Label>  (417) 
nan

$$$$

     RDKit          2D

 23 25  0  0  0  0  0  0  0  0999 V2000
    3.7500   -1.2990    0.0000 C   0  0  0  0  0  0  0  0  0  0  0  0
    3.0000    0.0000    0.0000 O   0  0  0  0  0  0  0  0  0  0  0  0
    1.5000    0.0000    0.0000 C   0  0  0  0  0  0  0  0  0  0  0  0
    0.7500   -1.2990    0.0000 C   0  0  0  0  0  0  0  0  0  0  0  0
   -0.7500   -1.2990    0.0000 N   0  0  0  0  0  0  0  0  0  0  0  0
   -1.5000   -2.5981    0.0000 C   0  0  0  0  0  0  0  0  0  0  0  0
   -3.0000   -2.5981    0.0000 C   0  0  0  0  0  0  0  0  0  0  0  0
   -3.7500   -3.8971    0.0000 C   0  0  0  0  0  0  0  0  0  0  0  0
   -3.0000   -5.1962    0.0000 C   0  0  0  0  0  0  0  0  0  0  0  0
   -3.7500   -6.4952    0.0000 S   0  0  0  0  0  0  0  0  0  0  0  0
   -5.2500   -6.4952    0.0000 C   0  0  0  0  0  0  0  0  0  0  0  0
   -1.5000   -5.1962    0.0000 C   0  0  0  0  0  0  0  0  0  0  0  0
   -0.7500   -3.8971    0.0000 C   0  0  0  0  0  0  0  0  0  0  0  0
    0.7500   -3.8971    0.0000 C   0  0  0  0  0  0  0  0  0  0  0  0
    1.5000   -2.5981    0.0000 C   0  0  0  0  0  0  0  0  0  0  0  0
    3.0000   -2.5981    0.0000 C   0  0  0  0  0  0  0  0  0  0  0  0
    3.7500   -3.8971    0.0000 C   0  0  0  0  0  0  0  0  0  0  0  0
    3.0000   -5.1962    0.0000 C   0  0  0  0  0  0  0  0  0  0  0  0
    1.5000   -5.1962    0.0000 C   0  0  0  0  0  0  0  0  0  0  0  0
    0.7500   -6.4952    0.0000 O   0  0  0  0  0  0  0  0  0  0  0  0
   -1.5000    0.0000    0.0000 C   0  0  0  0  0  0  0  0  0  0  0  0
   -0.7500    1.2990    0.0000 C   0  0  0  0  0  0  0  0  0  0  0  0
    0.7500    1.2990    0.0000 N   0  0  0  0  0  0  0  0  0  0  0  0
  1  2  1  0
  3  2  1  1
  3  4  1  0
  4  5  1  0
  5  6  1  0
  6  7  2  0
  7  8  1  0
  8  9  2  0
  9 10  1  0
 10 11  1  0
  9 12  1  0
 12 13  2  0
 13 14  1  0
 14 15  2  0
 15 16  1  0
 16 17  2  0
 17 18  1  0
 18 19  2  0
 19 20  1  0
  5 21  1  0
 21 22  1  0
 22 23  1  0
 23  3  1  0
 13  6  1  0
 19 14  1  0
M  END
>  <Compound_ID>  (418) 
C39529946

>  <Active>  (418) 
0.0

>  <Smiles>  (418) 
CO[C@H]1CN(c2ccc(SC)cc2-c2ccccc2O)CCN1

>  <canonical_smi>  (418) 
CO[C@H]1CN(c2ccc(SC)cc2-c2ccccc2O)CCN1

>  <Set>  (418) 
G2 inactive

>  <Set_type>  (418) 
Train

>  <MW>  (418) 
330.45

>  <HBD>  (418) 
2

>  <HBA>  (418) 
5

>  <NRB>  (418) 
4

>  <NR>  (418) 
3

>  <NAR>  (418) 
2

>  <PSA>  (418) 
44.73

>  <Standard Type>  (418) 
nan

>  <Standard Relation>  (418) 
nan

>  <Standard Units>  (418) 
nan

>  <Standard Value>  (418) 
nan

>  <Assay ChEMBL ID>  (418) 
nan

>  <Assay Description>  (418) 
nan

>  <BAO Label>  (418) 
nan

$$$$

     RDKit          2D

 23 25  0  0  0  0  0  0  0  0999 V2000
    3.0000    0.0000    0.0000 C   0  0  0  0  0  0  0  0  0  0  0  0
    1.5000    0.0000    0.0000 C   0  0  0  0  0  0  0  0  0  0  0  0
    0.7500   -1.2990    0.0000 C   0  0  0  0  0  0  0  0  0  0  0  0
   -0.7500   -1.2990    0.0000 C   0  0  0  0  0  0  0  0  0  0  0  0
   -1.5000    0.0000    0.0000 C   0  0  0  0  0  0  0  0  0  0  0  0
   -3.0000    0.0000    0.0000 S   0  0  0  0  0  0  0  0  0  0  0  0
   -3.7500    1.2990    0.0000 C   0  0  0  0  0  0  0  0  0  0  0  0
   -3.0000    2.5981    0.0000 N   0  0  0  0  0  0  0  0  0  0  0  0
   -3.7500    3.8971    0.0000 C   0  0  0  0  0  0  0  0  0  0  0  0
   -5.2500    3.8971    0.0000 N   0  0  0  0  0  0  0  0  0  0  0  0
   -6.0000    2.5981    0.0000 C   0  0  0  0  0  0  0  0  0  0  0  0
   -7.5000    2.5981    0.0000 N   0  0  0  0  0  0  0  0  0  0  0  0
   -8.2500    3.8971    0.0000 C   0  0  0  0  0  0  0  0  0  0  0  0
   -8.2500    1.2990    0.0000 C   0  0  0  0  0  0  0  0  0  0  0  0
   -9.7500    1.2990    0.0000 C   0  0  0  0  0  0  0  0  0  0  0  0
  -10.5000    0.0000    0.0000 C   0  0  0  0  0  0  0  0  0  0  0  0
   -9.7500   -1.2990    0.0000 C   0  0  0  0  0  0  0  0  0  0  0  0
   -8.2500   -1.2990    0.0000 C   0  0  0  0  0  0  0  0  0  0  0  0
   -7.5000    0.0000    0.0000 C   0  0  0  0  0  0  0  0  0  0  0  0
   -5.2500    1.2990    0.0000 C   0  0  0  0  0  0  0  0  0  0  0  0
   -6.0000    0.0000    0.0000 N   0  0  0  0  0  0  0  0  0  0  0  0
   -0.7500    1.2990    0.0000 C   0  0  0  0  0  0  0  0  0  0  0  0
    0.7500    1.2990    0.0000 C   0  0  0  0  0  0  0  0  0  0  0  0
  1  2  1  0
  2  3  2  0
  3  4  1  0
  4  5  2  0
  5  6  1  0
  6  7  1  0
  7  8  2  0
  8  9  1  0
  9 10  2  0
 10 11  1  0
 11 12  1  0
 12 13  1  0
 12 14  1  0
 14 15  2  0
 15 16  1  0
 16 17  2  0
 17 18  1  0
 18 19  2  0
 11 20  2  0
 20 21  1  0
  5 22  1  0
 22 23  2  0
 23  2  1  0
 20  7  1  0
 19 14  1  0
M  END
>  <Compound_ID>  (419) 
C40757774

>  <Active>  (419) 
0.0

>  <Smiles>  (419) 
Cc1ccc(Sc2ncnc(N(C)c3ccccc3)c2N)cc1

>  <canonical_smi>  (419) 
Cc1ccc(Sc2ncnc(N(C)c3ccccc3)c2N)cc1

>  <Set>  (419) 
G2 inactive

>  <Set_type>  (419) 
Train

>  <MW>  (419) 
322.44

>  <HBD>  (419) 
1

>  <HBA>  (419) 
5

>  <NRB>  (419) 
4

>  <NR>  (419) 
3

>  <NAR>  (419) 
3

>  <PSA>  (419) 
55.04

>  <Standard Type>  (419) 
nan

>  <Standard Relation>  (419) 
nan

>  <Standard Units>  (419) 
nan

>  <Standard Value>  (419) 
nan

>  <Assay ChEMBL ID>  (419) 
nan

>  <Assay Description>  (419) 
nan

>  <BAO Label>  (419) 
nan

$$$$

     RDKit          2D

 20 22  0  0  0  0  0  0  0  0999 V2000
   -3.0000    5.1962    0.0000 N   0  0  0  0  0  0  0  0  0  0  0  0
   -3.7500    3.8971    0.0000 C   0  0  0  0  0  0  0  0  0  0  0  0
   -3.0000    2.5981    0.0000 C   0  0  0  0  0  0  0  0  0  0  0  0
   -3.7500    1.2990    0.0000 C   0  0  0  0  0  0  0  0  0  0  0  0
   -3.0000    0.0000    0.0000 N   0  0  0  0  0  0  0  0  0  0  0  0
   -0.3828    0.5621    0.0000 C   0  0  0  0  0  0  0  0  0  0  0  0
    0.2954   -0.6125    0.0000 C   0  0  0  0  0  0  0  0  0  0  0  0
    0.7500   -1.2990    0.0000 N   0  0  0  0  0  4  0  0  0  0  0  0
    1.5000    0.0000    0.0000 C   0  0  0  0  0  0  0  0  0  0  0  0
    0.7500    1.2990    0.0000 C   0  0  0  0  0  0  0  0  0  0  0  0
   -0.7500    1.2990    0.0000 C   0  0  0  0  0  0  0  0  0  0  0  0
   -1.5000    0.0000    0.0000 C   0  0  0  0  0  0  0  0  0  0  0  0
   -0.7500   -1.2990    0.0000 C   0  0  0  0  0  0  0  0  0  0  0  0
   -5.2500    1.2990    0.0000 C   0  0  0  0  0  0  0  0  0  0  0  0
   -6.0000    2.5981    0.0000 C   0  0  0  0  0  0  0  0  0  0  0  0
   -7.5000    2.5981    0.0000 S   0  0  0  0  0  0  0  0  0  0  0  0
   -9.0000    2.5981    0.0000 N   0  0  0  0  0  0  0  0  0  0  0  0
   -7.5000    4.0981    0.0000 O   0  0  0  0  0  0  0  0  0  0  0  0
   -7.5000    1.0981    0.0000 O   0  0  0  0  0  0  0  0  0  0  0  0
   -5.2500    3.8971    0.0000 C   0  0  0  0  0  0  0  0  0  0  0  0
  1  2  1  0
  2  3  2  0
  3  4  1  0
  4  5  1  0
  6  5  1  1
  6  7  1  0
  7  8  1  0
  8  9  1  0
  9 10  1  0
 10 11  1  0
 11 12  1  0
 12 13  1  0
  4 14  2  0
 14 15  1  0
 15 16  1  0
 16 17  1  0
 16 18  2  0
 16 19  2  0
 15 20  2  0
 20  2  1  0
 11  6  1  0
 13  8  1  0
M  CHG  1   8   1
M  END
>  <Compound_ID>  (420) 
C37934058

>  <Active>  (420) 
0.0

>  <Smiles>  (420) 
Nc1cc(N[C@@H]2C[NH+]3CCC2CC3)cc(S(N)(=O)=O)c1

>  <canonical_smi>  (420) 
Nc1cc(N[C@@H]2C[NH+]3CCC2CC3)cc(S(N)(=O)=O)c1

>  <Set>  (420) 
G2 inactive

>  <Set_type>  (420) 
Train

>  <MW>  (420) 
297.4

>  <HBD>  (420) 
4

>  <HBA>  (420) 
4

>  <NRB>  (420) 
3

>  <NR>  (420) 
4

>  <NAR>  (420) 
1

>  <PSA>  (420) 
102.65

>  <Standard Type>  (420) 
nan

>  <Standard Relation>  (420) 
nan

>  <Standard Units>  (420) 
nan

>  <Standard Value>  (420) 
nan

>  <Assay ChEMBL ID>  (420) 
nan

>  <Assay Description>  (420) 
nan

>  <BAO Label>  (420) 
nan

$$$$

     RDKit          2D

 19 19  0  0  0  0  0  0  0  0999 V2000
    5.2500   -1.2990    0.0000 C   0  0  0  0  0  0  0  0  0  0  0  0
    3.7500   -1.2990    0.0000 C   0  0  0  0  0  0  0  0  0  0  0  0
    3.0000    0.0000    0.0000 N   0  0  0  0  0  0  0  0  0  0  0  0
    3.7500    1.2990    0.0000 C   0  0  0  0  0  0  0  0  0  0  0  0
    5.2500    1.2990    0.0000 C   0  0  0  0  0  0  0  0  0  0  0  0
    6.0000    2.5981    0.0000 O   0  0  0  0  0  0  0  0  0  0  0  0
    1.5000    0.0000    0.0000 C   0  0  0  0  0  0  0  0  0  0  0  0
    0.7500   -1.2990    0.0000 N   0  0  0  0  0  0  0  0  0  0  0  0
   -0.7500   -1.2990    0.0000 C   0  0  0  0  0  0  0  0  0  0  0  0
   -1.5000    0.0000    0.0000 N   0  0  0  0  0  4  0  0  0  0  0  0
   -0.7500    1.2990    0.0000 C   0  0  0  0  0  0  0  0  0  0  0  0
   -1.5000    2.5981    0.0000 N   0  0  0  0  0  0  0  0  0  0  0  0
   -3.0000    2.5981    0.0000 N   0  0  0  0  0  0  0  0  0  0  0  0
   -3.7500    3.8971    0.0000 C   0  0  0  0  0  0  0  0  0  0  0  0
   -5.0490    3.1471    0.0000 C   0  0  0  0  0  0  0  0  0  0  0  0
   -2.4510    4.6471    0.0000 C   0  0  0  0  0  0  0  0  0  0  0  0
   -4.5000    5.1962    0.0000 C   0  0  0  0  0  0  0  0  0  0  0  0
    0.7500    1.2990    0.0000 C   0  0  0  0  0  0  0  0  0  0  0  0
    1.5000    2.5981    0.0000 N   0  0  0  0  0  0  0  0  0  0  0  0
  1  2  1  0
  2  3  1  0
  3  4  1  0
  4  5  1  0
  5  6  1  0
  3  7  1  0
  7  8  2  0
  8  9  1  0
  9 10  2  0
 10 11  1  0
 11 12  1  0
 12 13  1  0
 13 14  1  0
 14 15  1  0
 14 16  1  0
 14 17  1  0
 11 18  2  0
 18 19  1  0
 18  7  1  0
M  CHG  1  10   1
M  END
>  <Compound_ID>  (421) 
C40736308

>  <Active>  (421) 
0.0

>  <Smiles>  (421) 
CCN(CCO)c1nc[nH+]c(NNC(C)(C)C)c1N

>  <canonical_smi>  (421) 
CCN(CCO)c1nc[nH+]c(NNC(C)(C)C)c1N

>  <Set>  (421) 
G2 inactive

>  <Set_type>  (421) 
Train

>  <MW>  (421) 
269.37

>  <HBD>  (421) 
4

>  <HBA>  (421) 
6

>  <NRB>  (421) 
6

>  <NR>  (421) 
1

>  <NAR>  (421) 
1

>  <PSA>  (421) 
100.58

>  <Standard Type>  (421) 
nan

>  <Standard Relation>  (421) 
nan

>  <Standard Units>  (421) 
nan

>  <Standard Value>  (421) 
nan

>  <Assay ChEMBL ID>  (421) 
nan

>  <Assay Description>  (421) 
nan

>  <BAO Label>  (421) 
nan

$$$$

     RDKit          2D

 26 26  0  0  0  0  0  0  0  0999 V2000
    3.0000    0.0000    0.0000 C   0  0  0  0  0  0  0  0  0  0  0  0
    1.5000    0.0000    0.0000 C   0  0  0  0  0  0  0  0  0  0  0  0
    0.7500   -1.2990    0.0000 N   0  0  0  0  0  0  0  0  0  0  0  0
   -0.7500   -1.2990    0.0000 C   0  0  0  0  0  0  0  0  0  0  0  0
   -1.5000   -2.5981    0.0000 O   0  0  0  0  0  0  0  0  0  0  0  0
   -1.5000    0.0000    0.0000 N   0  0  0  0  0  0  0  0  0  0  0  0
   -0.7500    1.2990    0.0000 C   0  0  0  0  0  0  0  0  0  0  0  0
   -1.5000    2.5981    0.0000 O   0  0  0  0  0  0  0  0  0  0  0  0
    0.7500    1.2990    0.0000 C   0  0  0  0  0  0  0  0  0  0  0  0
    1.5000    2.5981    0.0000 C   0  0  0  0  0  0  0  0  0  0  0  0
    3.0000    2.5981    0.0000 N   0  0  0  0  0  0  0  0  0  0  0  0
    3.7500    3.8971    0.0000 N   0  0  0  0  0  0  0  0  0  0  0  0
    5.2500    3.8971    0.0000 C   0  0  0  0  0  0  0  0  0  0  0  0
    6.0000    2.5981    0.0000 O   0  0  0  0  0  0  0  0  0  0  0  0
    6.0000    5.1962    0.0000 C   0  0  0  0  0  0  0  0  0  0  0  0
    5.2500    6.4952    0.0000 N   0  0  0  0  0  0  0  0  0  0  0  0
    6.0000    7.7942    0.0000 C   0  0  0  0  0  0  0  0  0  0  0  0
    7.5000    7.7942    0.0000 O   0  0  0  0  0  0  0  0  0  0  0  0
    5.2500    9.0933    0.0000 O   0  0  0  0  0  0  0  0  0  0  0  0
    6.0000   10.3923    0.0000 C   0  0  0  0  0  0  0  0  0  0  0  0
    4.7010   11.1423    0.0000 C   0  0  0  0  0  0  0  0  0  0  0  0
    7.2990    9.6423    0.0000 C   0  0  0  0  0  0  0  0  0  0  0  0
    6.7500   11.6913    0.0000 C   0  0  0  0  0  0  0  0  0  0  0  0
    7.5000    5.1962    0.0000 C   0  0  0  0  0  0  0  0  0  0  0  0
    8.2500    6.4952    0.0000 C   0  0  0  0  0  0  0  0  0  0  0  0
    8.2500    3.8971    0.0000 C   0  0  0  0  0  0  0  0  0  0  0  0
  1  2  1  0
  2  3  1  0
  3  4  1  0
  4  5  2  0
  4  6  1  0
  6  7  1  0
  7  8  2  0
  7  9  1  0
  9 10  1  0
 10 11  2  0
 11 12  1  0
 12 13  1  0
 13 14  2  0
 13 15  1  0
 15 16  1  1
 16 17  1  0
 17 18  2  0
 17 19  1  0
 19 20  1  0
 20 21  1  0
 20 22  1  0
 20 23  1  0
 15 24  1  0
 24 25  1  0
 24 26  1  0
  9  2  2  0
M  END
>  <Compound_ID>  (422) 
C01889672

>  <Active>  (422) 
0.0

>  <Smiles>  (422) 
Cc1[nH]c(=O)[nH]c(=O)c1/C=N/NC(=O)[C@@H](NC(=O)OC(C)(C)C)C(C)C

>  <canonical_smi>  (422) 
Cc1[nH]c(=O)[nH]c(=O)c1/C=N/NC(=O)[C@@H](NC(=O)OC(C)(C)C)C(C)C

>  <Set>  (422) 
G2 inactive

>  <Set_type>  (422) 
Train

>  <MW>  (422) 
367.41

>  <HBD>  (422) 
4

>  <HBA>  (422) 
5

>  <NRB>  (422) 
5

>  <NR>  (422) 
1

>  <NAR>  (422) 
1

>  <PSA>  (422) 
145.51

>  <Standard Type>  (422) 
nan

>  <Standard Relation>  (422) 
nan

>  <Standard Units>  (422) 
nan

>  <Standard Value>  (422) 
nan

>  <Assay ChEMBL ID>  (422) 
nan

>  <Assay Description>  (422) 
nan

>  <BAO Label>  (422) 
nan

$$$$

     RDKit          2D

 23 25  0  0  0  0  0  0  0  0999 V2000
    3.0000    0.0000    0.0000 C   0  0  0  0  0  0  0  0  0  0  0  0
    1.5000    0.0000    0.0000 C   0  0  0  0  0  0  0  0  0  0  0  0
    0.7500   -1.2990    0.0000 C   0  0  0  0  0  0  0  0  0  0  0  0
   -0.7500   -1.2990    0.0000 C   0  0  0  0  0  0  0  0  0  0  0  0
   -1.5000    0.0000    0.0000 N   0  0  0  0  0  0  0  0  0  0  0  0
   -3.0000    0.0000    0.0000 C   0  0  0  0  0  0  0  0  0  0  0  0
   -3.7500    1.2990    0.0000 N   0  0  0  0  0  0  0  0  0  0  0  0
   -5.2500    1.2990    0.0000 C   0  0  0  0  0  0  0  0  0  0  0  0
   -6.0000    0.0000    0.0000 N   0  0  0  0  0  0  0  0  0  0  0  0
   -5.2500   -1.2990    0.0000 C   0  0  0  0  0  0  0  0  0  0  0  0
   -6.0000   -2.5981    0.0000 N   0  0  0  0  0  0  0  0  0  0  0  0
   -7.5000   -2.5981    0.0000 N   0  0  0  0  0  0  0  0  0  0  0  0
   -8.2500   -3.8971    0.0000 C   0  0  0  0  0  0  0  0  0  0  0  0
   -7.5000   -5.1962    0.0000 O   0  0  0  0  0  0  0  0  0  0  0  0
   -9.7500   -3.8971    0.0000 C   0  0  0  0  0  0  0  0  0  0  0  0
  -10.6317   -5.1106    0.0000 C   0  0  0  0  0  0  0  0  0  0  0  0
  -12.0583   -4.6471    0.0000 C   0  0  0  0  0  0  0  0  0  0  0  0
  -12.0583   -3.1471    0.0000 C   0  0  0  0  0  0  0  0  0  0  0  0
  -10.6317   -2.6836    0.0000 O   0  0  0  0  0  0  0  0  0  0  0  0
   -3.7500   -1.2990    0.0000 C   0  0  0  0  0  0  0  0  0  0  0  0
   -3.0000   -2.5981    0.0000 N   0  0  0  0  0  0  0  0  0  0  0  0
   -0.7500    1.2990    0.0000 C   0  0  0  0  0  0  0  0  0  0  0  0
    0.7500    1.2990    0.0000 C   0  0  0  0  0  0  0  0  0  0  0  0
  1  2  1  0
  2  3  1  0
  3  4  1  0
  4  5  1  0
  5  6  1  0
  6  7  2  0
  7  8  1  0
  8  9  2  0
  9 10  1  0
 10 11  1  0
 11 12  1  0
 12 13  1  0
 13 14  2  0
 13 15  1  0
 15 16  2  0
 16 17  1  0
 17 18  2  0
 18 19  1  0
 10 20  2  0
 20 21  1  0
  5 22  1  0
 22 23  1  0
 23  2  1  0
 20  6  1  0
 19 15  1  0
M  END
>  <Compound_ID>  (423) 
C40733008

>  <Active>  (423) 
0.0

>  <Smiles>  (423) 
CC1CCN(c2ncnc(NNC(=O)c3ccco3)c2N)CC1

>  <canonical_smi>  (423) 
CC1CCN(c2ncnc(NNC(=O)c3ccco3)c2N)CC1

>  <Set>  (423) 
G2 inactive

>  <Set_type>  (423) 
Train

>  <MW>  (423) 
316.37

>  <HBD>  (423) 
3

>  <HBA>  (423) 
7

>  <NRB>  (423) 
4

>  <NR>  (423) 
3

>  <NAR>  (423) 
2

>  <PSA>  (423) 
109.31

>  <Standard Type>  (423) 
nan

>  <Standard Relation>  (423) 
nan

>  <Standard Units>  (423) 
nan

>  <Standard Value>  (423) 
nan

>  <Assay ChEMBL ID>  (423) 
nan

>  <Assay Description>  (423) 
nan

>  <BAO Label>  (423) 
nan

$$$$

     RDKit          2D

 20 21  0  0  0  0  0  0  0  0999 V2000
   -1.5613   -9.9436    0.0000 C   0  0  0  0  0  0  0  0  0  0  0  0
   -0.3478   -9.0619    0.0000 C   0  0  0  0  0  0  0  0  0  0  0  0
   -0.5046   -7.5702    0.0000 N   0  0  0  0  0  0  0  0  0  0  0  0
    0.6101   -6.5665    0.0000 C   0  0  0  0  0  0  0  0  0  0  0  0
   -0.0000   -5.1962    0.0000 C   0  0  0  0  0  0  0  0  0  0  0  0
    0.7500   -3.8971    0.0000 S   0  0  0  0  0  0  0  0  0  0  0  0
   -0.5490   -3.1471    0.0000 O   0  0  0  0  0  0  0  0  0  0  0  0
    2.0490   -4.6471    0.0000 O   0  0  0  0  0  0  0  0  0  0  0  0
    1.5000   -2.5981    0.0000 N   0  0  0  0  0  0  0  0  0  0  0  0
    0.7500   -1.2990    0.0000 C   0  0  0  0  0  0  0  0  0  0  0  0
    1.5000    0.0000    0.0000 C   0  0  0  0  0  0  0  0  0  0  0  0
    0.7500    1.2990    0.0000 C   0  0  0  0  0  0  0  0  0  0  0  0
    1.5000    2.5981    0.0000 C   0  0  0  0  0  0  0  0  0  0  0  0
   -0.7500    1.2990    0.0000 C   0  0  0  0  0  0  0  0  0  0  0  0
   -1.5000    2.5981    0.0000 N   0  0  0  0  0  0  0  0  0  0  0  0
   -1.5000    0.0000    0.0000 C   0  0  0  0  0  0  0  0  0  0  0  0
   -0.7500   -1.2990    0.0000 N   0  0  0  0  0  0  0  0  0  0  0  0
   -1.4918   -5.3529    0.0000 N   0  0  0  0  0  4  0  0  0  0  0  0
   -1.8037   -6.8202    0.0000 C   0  0  0  0  0  0  0  0  0  0  0  0
   -3.1740   -7.4303    0.0000 C   0  0  0  0  0  0  0  0  0  0  0  0
  1  2  1  0
  2  3  1  0
  3  4  1  0
  4  5  2  0
  5  6  1  0
  6  7  2  0
  6  8  2  0
  6  9  1  0
  9 10  2  0
 10 11  1  0
 11 12  2  0
 12 13  1  0
 12 14  1  0
 14 15  1  0
 14 16  2  0
 16 17  1  0
  5 18  1  0
 18 19  2  0
 19 20  1  0
 19  3  1  0
 17 10  1  0
M  CHG  1  18   1
M  END
>  <Compound_ID>  (424) 
C50265337

>  <Active>  (424) 
0.0

>  <Smiles>  (424) 
CCn1cc(S(=O)(=O)/N=c2/cc(C)c(N)c[nH]2)[nH+]c1C

>  <canonical_smi>  (424) 
CCn1cc(S(=O)(=O)/N=c2/cc(C)c(N)c[nH]2)[nH+]c1C

>  <Set>  (424) 
G2 inactive

>  <Set_type>  (424) 
Train

>  <MW>  (424) 
296.38

>  <HBD>  (424) 
2

>  <HBA>  (424) 
3

>  <NRB>  (424) 
3

>  <NR>  (424) 
2

>  <NAR>  (424) 
2

>  <PSA>  (424) 
107.38

>  <Standard Type>  (424) 
nan

>  <Standard Relation>  (424) 
nan

>  <Standard Units>  (424) 
nan

>  <Standard Value>  (424) 
nan

>  <Assay ChEMBL ID>  (424) 
nan

>  <Assay Description>  (424) 
nan

>  <BAO Label>  (424) 
nan

$$$$

     RDKit          2D

 20 22  0  0  0  0  0  0  0  0999 V2000
    5.7760   -2.5981    0.0000 C   0  0  0  0  0  0  0  0  0  0  0  0
    5.0260   -1.2990    0.0000 N   0  0  0  0  0  4  0  0  0  0  0  0
    5.7760    0.0000    0.0000 C   0  0  0  0  0  0  0  0  0  0  0  0
    3.5260   -1.2990    0.0000 C   0  0  0  0  0  0  0  0  0  0  0  0
    2.7760    0.0000    0.0000 C   0  0  0  0  0  0  0  0  0  0  0  0
    1.2760    0.0000    0.0000 C   0  0  0  0  0  0  0  0  0  0  0  0
    0.3943    1.2135    0.0000 N   0  0  0  0  0  0  0  0  0  0  0  0
   -1.0323    0.7500    0.0000 O   0  0  0  0  0  0  0  0  0  0  0  0
   -1.0323   -0.7500    0.0000 C   0  0  0  0  0  0  0  0  0  0  0  0
   -2.2458   -1.6317    0.0000 C   0  0  0  0  0  0  0  0  0  0  0  0
   -2.2458   -3.1317    0.0000 C   0  0  0  0  0  0  0  0  0  0  0  0
   -3.6724   -3.5952    0.0000 C   0  0  0  0  0  0  0  0  0  0  0  0
   -4.5541   -2.3817    0.0000 C   0  0  0  0  0  0  0  0  0  0  0  0
   -6.0541   -2.3817    0.0000 C   0  0  0  0  0  0  0  0  0  0  0  0
   -6.9358   -3.5952    0.0000 N   0  0  0  0  0  0  0  0  0  0  0  0
   -8.3623   -3.1317    0.0000 C   0  0  0  0  0  0  0  0  0  0  0  0
   -8.3623   -1.6317    0.0000 C   0  0  0  0  0  0  0  0  0  0  0  0
   -6.9358   -1.1682    0.0000 N   0  0  0  0  0  0  0  0  0  0  0  0
   -3.6724   -1.1682    0.0000 S   0  0  0  0  0  0  0  0  0  0  0  0
    0.3943   -1.2135    0.0000 N   0  0  0  0  0  0  0  0  0  0  0  0
  1  2  1  0
  2  3  1  0
  2  4  1  0
  4  5  1  0
  6  5  1  6
  6  7  1  0
  7  8  1  0
  8  9  1  0
  9 10  1  1
 10 11  2  0
 11 12  1  0
 12 13  2  0
 13 14  1  0
 14 15  2  0
 15 16  1  0
 16 17  2  0
 17 18  1  0
 13 19  1  0
  9 20  1  0
 20  6  1  0
 19 10  1  0
 18 14  1  0
M  CHG  1   2   1
M  END
>  <Compound_ID>  (425) 
C64058406

>  <Active>  (425) 
0.0

>  <Smiles>  (425) 
C[NH+](C)CC[C@H]1NO[C@H](c2ccc(-c3ncc[nH]3)s2)N1

>  <canonical_smi>  (425) 
C[NH+](C)CC[C@H]1NO[C@H](c2ccc(-c3ncc[nH]3)s2)N1

>  <Set>  (425) 
G2 inactive

>  <Set_type>  (425) 
Train

>  <MW>  (425) 
294.4

>  <HBD>  (425) 
4

>  <HBA>  (425) 
4

>  <NRB>  (425) 
5

>  <NR>  (425) 
3

>  <NAR>  (425) 
2

>  <PSA>  (425) 
66.41

>  <Standard Type>  (425) 
nan

>  <Standard Relation>  (425) 
nan

>  <Standard Units>  (425) 
nan

>  <Standard Value>  (425) 
nan

>  <Assay ChEMBL ID>  (425) 
nan

>  <Assay Description>  (425) 
nan

>  <BAO Label>  (425) 
nan

$$$$

     RDKit          2D

 25 27  0  0  0  0  0  0  0  0999 V2000
   -2.9499    4.2246    0.0000 C   0  0  0  0  0  0  0  0  0  0  0  0
   -1.8351    3.2209    0.0000 C   0  0  0  0  0  0  0  0  0  0  0  0
   -0.4086    3.6844    0.0000 C   0  0  0  0  0  0  0  0  0  0  0  0
   -0.0967    5.1517    0.0000 C   0  0  0  0  0  0  0  0  0  0  0  0
    1.3299    5.6152    0.0000 N   0  0  0  0  0  0  0  0  0  0  0  0
   -1.2114    6.1554    0.0000 O   0  0  0  0  0  0  0  0  0  0  0  0
    0.7062    2.6807    0.0000 C   0  0  0  0  0  0  0  0  0  0  0  0
    2.1328    3.1443    0.0000 C   0  0  0  0  0  0  0  0  0  0  0  0
    3.2475    2.1406    0.0000 C   0  0  0  0  0  0  0  0  0  0  0  0
    4.6741    2.6041    0.0000 C   0  0  0  0  0  0  0  0  0  0  0  0
    4.9859    4.0713    0.0000 C   0  0  0  0  0  0  0  0  0  0  0  0
    6.4125    4.5348    0.0000 C   0  0  0  0  0  0  0  0  0  0  0  0
    7.8391    4.9984    0.0000 N   0  0  0  0  0  0  0  0  0  0  0  0
    3.8712    5.0750    0.0000 C   0  0  0  0  0  0  0  0  0  0  0  0
    2.4446    4.6115    0.0000 C   0  0  0  0  0  0  0  0  0  0  0  0
    0.3943    1.2135    0.0000 N   0  0  0  0  0  0  0  0  0  0  0  0
    1.2760    0.0000    0.0000 N   0  0  0  0  0  0  0  0  0  0  0  0
    0.3943   -1.2135    0.0000 C   0  0  0  0  0  0  0  0  0  0  0  0
    0.8578   -2.6401    0.0000 C   0  0  0  0  0  0  0  0  0  0  0  0
   -0.1459   -3.7548    0.0000 C   0  0  0  0  0  0  0  0  0  0  0  0
    0.3177   -5.1814    0.0000 C   0  0  0  0  0  0  0  0  0  0  0  0
   -0.6860   -6.2961    0.0000 O   0  0  0  0  0  0  0  0  0  0  0  0
   -1.0323   -0.7500    0.0000 N   0  0  0  0  0  0  0  0  0  0  0  0
   -1.0323    0.7500    0.0000 C   0  0  0  0  0  0  0  0  0  0  0  0
   -2.1470    1.7537    0.0000 N   0  0  0  0  0  0  0  0  0  0  0  0
  1  2  1  0
  2  3  2  0
  3  4  1  0
  4  5  1  0
  4  6  2  0
  3  7  1  0
  7  8  1  1
  8  9  2  0
  9 10  1  0
 10 11  2  0
 11 12  1  0
 12 13  3  0
 11 14  1  0
 14 15  2  0
  7 16  1  0
 16 17  1  0
 17 18  1  0
 18 19  1  0
 19 20  1  0
 20 21  1  0
 21 22  1  0
 18 23  2  0
 23 24  1  0
 24 25  2  0
 25  2  1  0
 15  8  1  0
 24 16  1  0
M  END
>  <Compound_ID>  (426) 
C04294262

>  <Active>  (426) 
0.0

>  <Smiles>  (426) 
CC1=C(C(N)=O)[C@@H](c2ccc(C#N)cc2)N2NC(CCCO)=NC2=N1

>  <canonical_smi>  (426) 
CC1=C(C(N)=O)[C@@H](c2ccc(C#N)cc2)N2NC(CCCO)=NC2=N1

>  <Set>  (426) 
G2 inactive

>  <Set_type>  (426) 
Train

>  <MW>  (426) 
338.37

>  <HBD>  (426) 
3

>  <HBA>  (426) 
5

>  <NRB>  (426) 
5

>  <NR>  (426) 
3

>  <NAR>  (426) 
1

>  <PSA>  (426) 
127.1

>  <Standard Type>  (426) 
nan

>  <Standard Relation>  (426) 
nan

>  <Standard Units>  (426) 
nan

>  <Standard Value>  (426) 
nan

>  <Assay ChEMBL ID>  (426) 
nan

>  <Assay Description>  (426) 
nan

>  <BAO Label>  (426) 
nan

$$$$

     RDKit          2D

 22 24  0  0  0  0  0  0  0  0999 V2000
    3.0000    0.0000    0.0000 N   0  0  0  0  0  0  0  0  0  0  0  0
    1.5000    0.0000    0.0000 C   0  0  0  0  0  0  0  0  0  0  0  0
    0.7500   -1.2990    0.0000 N   0  0  0  0  0  0  0  0  0  0  0  0
   -0.7500   -1.2990    0.0000 C   0  0  0  0  0  0  0  0  0  0  0  0
   -1.5000    0.0000    0.0000 C   0  0  0  0  0  0  0  0  0  0  0  0
   -3.0000    0.0000    0.0000 C   0  0  0  0  0  0  0  0  0  0  0  0
   -3.7500    1.2990    0.0000 N   0  0  0  0  0  0  0  0  0  0  0  0
   -3.0000    2.5981    0.0000 C   0  0  0  0  0  0  0  0  0  0  0  0
   -3.7500    3.8971    0.0000 C   0  0  0  0  0  0  0  0  0  0  0  0
   -5.2500    3.8971    0.0000 C   0  0  0  0  0  0  0  0  0  0  0  0
   -6.0000    2.5981    0.0000 C   0  0  0  0  0  0  0  0  0  0  0  0
   -7.5000    2.5981    0.0000 N   0  0  0  0  0  4  0  0  0  0  0  0
   -8.2500    3.8971    0.0000 C   0  0  0  0  0  0  0  0  0  0  0  0
   -9.7500    3.8971    0.0000 C   0  0  0  0  0  0  0  0  0  0  0  0
  -10.5000    2.5981    0.0000 C   0  0  0  0  0  0  0  0  0  0  0  0
  -12.0000    2.5981    0.0000 C   0  0  0  0  0  0  0  0  0  0  0  0
  -12.7500    3.8971    0.0000 O   0  0  0  0  0  0  0  0  0  0  0  0
   -9.7500    1.2990    0.0000 C   0  0  0  0  0  0  0  0  0  0  0  0
   -8.2500    1.2990    0.0000 C   0  0  0  0  0  0  0  0  0  0  0  0
   -5.2500    1.2990    0.0000 C   0  0  0  0  0  0  0  0  0  0  0  0
   -0.7500    1.2990    0.0000 C   0  0  0  0  0  0  0  0  0  0  0  0
    0.7500    1.2990    0.0000 N   0  0  0  0  0  0  0  0  0  0  0  0
  1  2  1  0
  2  3  2  0
  3  4  1  0
  4  5  2  0
  5  6  1  0
  6  7  1  0
  7  8  1  0
  8  9  1  0
  9 10  1  0
 10 11  1  0
 11 12  1  6
 12 13  1  0
 13 14  1  0
 14 15  1  0
 15 16  1  0
 16 17  1  0
 15 18  1  0
 18 19  1  0
 11 20  1  0
  5 21  1  0
 21 22  2  0
 22  2  1  0
 20  7  1  0
 19 12  1  0
M  CHG  1  12   1
M  END
>  <Compound_ID>  (427) 
C20149201

>  <Active>  (427) 
0.0

>  <Smiles>  (427) 
Nc1ncc(CN2CCC[C@@H]([NH+]3CCC(CO)CC3)C2)cn1

>  <canonical_smi>  (427) 
Nc1ncc(CN2CCC[C@@H]([NH+]3CCC(CO)CC3)C2)cn1

>  <Set>  (427) 
G2 inactive

>  <Set_type>  (427) 
Train

>  <MW>  (427) 
306.43

>  <HBD>  (427) 
3

>  <HBA>  (427) 
5

>  <NRB>  (427) 
4

>  <NR>  (427) 
3

>  <NAR>  (427) 
1

>  <PSA>  (427) 
79.71

>  <Standard Type>  (427) 
nan

>  <Standard Relation>  (427) 
nan

>  <Standard Units>  (427) 
nan

>  <Standard Value>  (427) 
nan

>  <Assay ChEMBL ID>  (427) 
nan

>  <Assay Description>  (427) 
nan

>  <BAO Label>  (427) 
nan

$$$$

     RDKit          2D

 19 20  0  0  0  0  0  0  0  0999 V2000
    2.7760    0.0000    0.0000 C   0  0  0  0  0  0  0  0  0  0  0  0
    1.2760    0.0000    0.0000 C   0  0  0  0  0  0  0  0  0  0  0  0
    0.3943    1.2135    0.0000 C   0  0  0  0  0  0  0  0  0  0  0  0
   -1.0323    0.7500    0.0000 N   0  0  0  0  0  4  0  0  0  0  0  0
   -1.0323   -0.7500    0.0000 C   0  0  0  0  0  0  0  0  0  0  0  0
   -2.2458   -1.6317    0.0000 C   0  0  0  0  0  0  0  0  0  0  0  0
   -3.6161   -1.0216    0.0000 N   0  0  0  0  0  0  0  0  0  0  0  0
   -4.8297   -1.9033    0.0000 C   0  0  0  0  0  0  0  0  0  0  0  0
   -3.7729    0.4702    0.0000 C   0  0  0  0  0  0  0  0  0  0  0  0
   -2.5594    1.3519    0.0000 O   0  0  0  0  0  0  0  0  0  0  0  0
   -5.1432    1.0803    0.0000 C   0  0  0  0  0  0  0  0  0  0  0  0
   -5.3000    2.5721    0.0000 S   0  0  0  0  0  0  0  0  0  0  0  0
   -6.6704    3.1822    0.0000 C   0  0  0  0  0  0  0  0  0  0  0  0
   -7.9694    2.4322    0.0000 N   0  0  0  0  0  0  0  0  0  0  0  0
   -9.0841    3.4359    0.0000 N   0  0  0  0  0  0  0  0  0  0  0  0
   -8.4740    4.8062    0.0000 C   0  0  0  0  0  0  0  0  0  0  0  0
   -9.2240    6.1053    0.0000 C   0  0  0  0  0  0  0  0  0  0  0  0
   -6.9822    4.6494    0.0000 S   0  0  0  0  0  0  0  0  0  0  0  0
    0.3943   -1.2135    0.0000 N   0  0  0  0  0  0  0  0  0  0  0  0
  1  2  1  0
  2  3  2  0
  3  4  1  0
  4  5  2  0
  5  6  1  0
  6  7  1  0
  7  8  1  0
  7  9  1  0
  9 10  2  0
  9 11  1  0
 11 12  1  0
 13 12  1  1
 13 14  1  0
 14 15  1  0
 15 16  1  0
 16 17  1  6
 16 18  1  0
  5 19  1  0
 19  2  1  0
 18 13  1  0
M  CHG  1   4   1
M  END
>  <Compound_ID>  (428) 
C63884193

>  <Active>  (428) 
0.0

>  <Smiles>  (428) 
Cc1c[nH+]c(CN(C)C(=O)CS[C@H]2NN[C@H](C)S2)[nH]1

>  <canonical_smi>  (428) 
Cc1c[nH+]c(CN(C)C(=O)CS[C@H]2NN[C@H](C)S2)[nH]1

>  <Set>  (428) 
G2 inactive

>  <Set_type>  (428) 
Train

>  <MW>  (428) 
302.45

>  <HBD>  (428) 
3

>  <HBA>  (428) 
5

>  <NRB>  (428) 
5

>  <NR>  (428) 
2

>  <NAR>  (428) 
1

>  <PSA>  (428) 
74.3

>  <Standard Type>  (428) 
nan

>  <Standard Relation>  (428) 
nan

>  <Standard Units>  (428) 
nan

>  <Standard Value>  (428) 
nan

>  <Assay ChEMBL ID>  (428) 
nan

>  <Assay Description>  (428) 
nan

>  <BAO Label>  (428) 
nan

$$$$

     RDKit          2D

 20 21  0  0  0  0  0  0  0  0999 V2000
    3.0000   -5.1962    0.0000 O   0  0  0  0  0  0  0  0  0  0  0  0
    1.5000   -5.1962    0.0000 C   0  0  0  0  0  0  0  0  0  0  0  0
    0.7500   -3.8971    0.0000 O   0  0  0  0  0  0  0  0  0  0  0  0
    1.5000   -2.5981    0.0000 C   0  0  0  0  0  0  0  0  0  0  0  0
    0.7500   -1.2990    0.0000 C   0  0  0  0  0  0  0  0  0  0  0  0
    1.5000    0.0000    0.0000 C   0  0  0  0  0  0  0  0  0  0  0  0
    0.7500    1.2990    0.0000 C   0  0  0  0  0  0  0  0  0  0  0  0
   -0.7500    1.2990    0.0000 C   0  0  0  0  0  0  0  0  0  0  0  0
   -1.5000    2.5981    0.0000 O   0  0  0  0  0  0  0  0  0  0  0  0
   -1.5000    0.0000    0.0000 C   0  0  0  0  0  0  0  0  0  0  0  0
   -3.0000    0.0000    0.0000 O   0  0  0  0  0  0  0  0  0  0  0  0
   -0.7500   -1.2990    0.0000 C   0  0  0  0  0  0  0  0  0  0  0  0
    0.7500   -6.4952    0.0000 C   0  0  0  0  0  0  0  0  0  0  0  0
   -0.7500   -6.4952    0.0000 C   0  0  0  0  0  0  0  0  0  0  0  0
   -1.5000   -7.7942    0.0000 C   0  0  0  0  0  0  0  0  0  0  0  0
   -0.7500   -9.0933    0.0000 C   0  0  0  0  0  0  0  0  0  0  0  0
   -1.5000  -10.3923    0.0000 O   0  0  0  0  0  0  0  0  0  0  0  0
    0.7500   -9.0933    0.0000 C   0  0  0  0  0  0  0  0  0  0  0  0
    1.5000  -10.3923    0.0000 O   0  0  0  0  0  0  0  0  0  0  0  0
    1.5000   -7.7942    0.0000 C   0  0  0  0  0  0  0  0  0  0  0  0
  1  2  2  0
  2  3  1  0
  3  4  1  0
  5  4  1  1
  5  6  1  0
  6  7  1  0
  7  8  1  0
  8  9  1  1
  8 10  1  0
 10 11  1  1
 10 12  1  0
 13  2  1  1
 13 14  1  0
 14 15  1  0
 15 16  1  0
 16 17  1  1
 16 18  1  0
 18 19  1  1
 18 20  1  0
 12  5  1  0
 20 13  1  0
M  END
>  <Compound_ID>  (429) 
C33637585

>  <Active>  (429) 
0.0

>  <Smiles>  (429) 
O=C(OC[C@@H]1CC[C@H](O)[C@H](O)C1)[C@@H]1CC[C@H](O)[C@H](O)C1

>  <canonical_smi>  (429) 
O=C(OC[C@@H]1CC[C@H](O)[C@H](O)C1)[C@@H]1CC[C@H](O)[C@H](O)C1

>  <Set>  (429) 
G2 inactive

>  <Set_type>  (429) 
Train

>  <MW>  (429) 
288.34

>  <HBD>  (429) 
4

>  <HBA>  (429) 
6

>  <NRB>  (429) 
3

>  <NR>  (429) 
2

>  <NAR>  (429) 
0

>  <PSA>  (429) 
107.22

>  <Standard Type>  (429) 
nan

>  <Standard Relation>  (429) 
nan

>  <Standard Units>  (429) 
nan

>  <Standard Value>  (429) 
nan

>  <Assay ChEMBL ID>  (429) 
nan

>  <Assay Description>  (429) 
nan

>  <BAO Label>  (429) 
nan

$$$$

     RDKit          2D

 24 25  0  0  0  0  0  0  0  0999 V2000
   10.5000   -2.5981    0.0000 C   0  0  0  0  0  0  0  0  0  0  0  0
    9.7500   -3.8971    0.0000 C   0  0  0  0  0  0  0  0  0  0  0  0
   10.5000   -5.1962    0.0000 C   0  0  0  0  0  0  0  0  0  0  0  0
   12.0000   -5.1962    0.0000 C   0  0  0  0  0  0  0  0  0  0  0  0
    9.7500   -6.4952    0.0000 N   0  0  0  0  0  4  0  0  0  0  0  0
   10.5000   -7.7942    0.0000 C   0  0  0  0  0  0  0  0  0  0  0  0
    8.2500   -6.4952    0.0000 C   0  0  0  0  0  0  0  0  0  0  0  0
    7.5000   -5.1962    0.0000 C   0  0  0  0  0  0  0  0  0  0  0  0
    6.0000   -5.1962    0.0000 N   0  0  0  0  0  0  0  0  0  0  0  0
    5.2500   -3.8971    0.0000 C   0  0  0  0  0  0  0  0  0  0  0  0
    6.0000   -2.5981    0.0000 O   0  0  0  0  0  0  0  0  0  0  0  0
    3.7500   -3.8971    0.0000 N   0  0  0  0  0  0  0  0  0  0  0  0
    3.0000   -2.5981    0.0000 C   0  0  0  0  0  0  0  0  0  0  0  0
    1.5000   -2.5981    0.0000 C   0  0  0  0  0  0  0  0  0  0  0  0
    0.7500   -3.8971    0.0000 C   0  0  0  0  0  0  0  0  0  0  0  0
   -0.7500   -3.8971    0.0000 C   0  0  0  0  0  0  0  0  0  0  0  0
   -1.5000   -5.1962    0.0000 F   0  0  0  0  0  0  0  0  0  0  0  0
   -1.5000   -2.5981    0.0000 C   0  0  0  0  0  0  0  0  0  0  0  0
   -0.7500   -1.2990    0.0000 C   0  0  0  0  0  0  0  0  0  0  0  0
    0.7500   -1.2990    0.0000 C   0  0  0  0  0  0  0  0  0  0  0  0
    1.5000    0.0000    0.0000 O   0  0  0  0  0  0  0  0  0  0  0  0
    0.7500    1.2990    0.0000 C   0  0  0  0  0  0  0  0  0  0  0  0
   -0.7500    1.2990    0.0000 O   0  0  0  0  0  0  0  0  0  0  0  0
   -1.5000    0.0000    0.0000 C   0  0  0  0  0  0  0  0  0  0  0  0
  1  2  1  0
  2  3  1  0
  3  4  1  1
  3  5  1  0
  5  6  1  0
  5  7  1  0
  7  8  1  0
  8  9  1  0
  9 10  1  0
 10 11  2  0
 10 12  1  0
 12 13  1  0
 13 14  1  0
 14 15  2  0
 15 16  1  0
 16 17  1  0
 16 18  2  0
 18 19  1  0
 19 20  2  0
 20 21  1  0
 21 22  1  0
 22 23  1  0
 23 24  1  0
 20 14  1  0
 24 19  1  0
M  CHG  1   5   1
M  END
>  <Compound_ID>  (430) 
C66195241

>  <Active>  (430) 
0.0

>  <Smiles>  (430) 
CC[C@@H](C)[NH+](C)CCNC(=O)NCc1cc(F)cc2c1OCOC2

>  <canonical_smi>  (430) 
CC[C@@H](C)[NH+](C)CCNC(=O)NCc1cc(F)cc2c1OCOC2

>  <Set>  (430) 
G2 inactive

>  <Set_type>  (430) 
Train

>  <MW>  (430) 
340.42

>  <HBD>  (430) 
3

>  <HBA>  (430) 
3

>  <NRB>  (430) 
7

>  <NR>  (430) 
2

>  <NAR>  (430) 
1

>  <PSA>  (430) 
64.03

>  <Standard Type>  (430) 
nan

>  <Standard Relation>  (430) 
nan

>  <Standard Units>  (430) 
nan

>  <Standard Value>  (430) 
nan

>  <Assay ChEMBL ID>  (430) 
nan

>  <Assay Description>  (430) 
nan

>  <BAO Label>  (430) 
nan

$$$$

     RDKit          2D

 33 35  0  0  0  0  0  0  0  0999 V2000
    7.2154    2.0639    0.0000 C   0  0  0  0  0  0  0  0  0  0  0  0
    5.7888    1.6004    0.0000 C   0  0  0  0  0  0  0  0  0  0  0  0
    5.4769    0.1332    0.0000 C   0  0  0  0  0  0  0  0  0  0  0  0
    4.6741    2.6041    0.0000 N   0  0  0  0  0  0  0  0  0  0  0  0
    3.2475    2.1406    0.0000 C   0  0  0  0  0  0  0  0  0  0  0  0
    2.9356    0.6734    0.0000 O   0  0  0  0  0  0  0  0  0  0  0  0
    2.1328    3.1443    0.0000 C   0  0  0  0  0  0  0  0  0  0  0  0
    0.7062    2.6807    0.0000 C   0  0  0  0  0  0  0  0  0  0  0  0
    0.3943    1.2135    0.0000 C   0  0  0  0  0  0  0  0  0  0  0  0
    1.2760    0.0000    0.0000 N   0  0  0  0  0  0  0  0  0  0  0  0
    0.3943   -1.2135    0.0000 C   0  0  0  0  0  0  0  0  0  0  0  0
    0.8578   -2.6401    0.0000 N   0  0  0  0  0  0  0  0  0  0  0  0
   -0.1459   -3.7548    0.0000 C   0  0  0  0  0  0  0  0  0  0  0  0
   -1.6131   -3.4430    0.0000 O   0  0  0  0  0  0  0  0  0  0  0  0
    0.3177   -5.1814    0.0000 C   0  0  0  0  0  0  0  0  0  0  0  0
   -0.6860   -6.2961    0.0000 C   0  0  0  0  0  0  0  0  0  0  0  0
    0.4287   -7.2998    0.0000 C   0  0  0  0  0  0  0  0  0  0  0  0
   -1.8008   -5.2924    0.0000 C   0  0  0  0  0  0  0  0  0  0  0  0
   -1.6897   -7.4108    0.0000 C   0  0  0  0  0  0  0  0  0  0  0  0
   -1.0323   -0.7500    0.0000 S   0  0  0  0  0  0  0  0  0  0  0  0
   -1.0323    0.7500    0.0000 C   0  0  0  0  0  0  0  0  0  0  0  0
   -2.1470    1.7537    0.0000 C   0  0  0  0  0  0  0  0  0  0  0  0
   -1.8351    3.2209    0.0000 C   0  0  0  0  0  0  0  0  0  0  0  0
   -2.9499    4.2246    0.0000 C   0  0  0  0  0  0  0  0  0  0  0  0
   -4.3406    4.7865    0.0000 C   0  0  0  0  0  0  0  0  0  0  0  0
   -3.7447    2.9525    0.0000 C   0  0  0  0  0  0  0  0  0  0  0  0
   -5.2438    3.0049    0.0000 O   0  0  0  0  0  0  0  0  0  0  0  0
   -2.6380    5.6918    0.0000 C   0  0  0  0  0  0  0  0  0  0  0  0
   -3.7527    6.6955    0.0000 O   0  0  0  0  0  0  0  0  0  0  0  0
   -1.2114    6.1554    0.0000 C   0  0  0  0  0  0  0  0  0  0  0  0
   -0.0967    5.1517    0.0000 C   0  0  0  0  0  0  0  0  0  0  0  0
   -0.4086    3.6844    0.0000 C   0  0  0  0  0  0  0  0  0  0  0  0
    1.0180    4.1480    0.0000 C   0  0  0  0  0  0  0  0  0  0  0  0
  1  2  1  0
  2  3  1  0
  2  4  1  0
  4  5  1  0
  5  6  2  0
  5  7  1  0
  8  7  1  6
  8  9  1  0
  9 10  1  0
 10 11  2  0
 11 12  1  0
 12 13  1  0
 13 14  2  0
 13 15  1  0
 15 16  1  0
 16 17  1  0
 16 18  1  0
 16 19  1  0
 11 20  1  0
 20 21  1  0
 21 22  1  0
 23 22  1  6
 23 24  1  0
 24 25  1  1
 24 26  1  0
 26 27  1  0
 24 28  1  0
 28 29  1  6
 28 30  1  0
 30 31  1  0
 31 32  1  0
 32 33  1  6
 32  8  1  0
 21  9  2  0
 32 23  1  0
M  END
>  <Compound_ID>  (431) 
C03841087

>  <Active>  (431) 
0.0

>  <Smiles>  (431) 
CC(C)NC(=O)C[C@@H]1c2nc(NC(=O)CC(C)(C)C)sc2C[C@@H]2[C@](C)(CO)[C@H](O)CC[C@]21C

>  <canonical_smi>  (431) 
CC(C)NC(=O)C[C@@H]1c2nc(NC(=O)CC(C)(C)C)sc2C[C@H]2[C@@]1(C)CC[C@@H](O)[C@@]2(C)CO

>  <Set>  (431) 
G2 inactive

>  <Set_type>  (431) 
Train

>  <MW>  (431) 
479.69

>  <HBD>  (431) 
4

>  <HBA>  (431) 
5

>  <NRB>  (431) 
6

>  <NR>  (431) 
3

>  <NAR>  (431) 
1

>  <PSA>  (431) 
111.55

>  <Standard Type>  (431) 
nan

>  <Standard Relation>  (431) 
nan

>  <Standard Units>  (431) 
nan

>  <Standard Value>  (431) 
nan

>  <Assay ChEMBL ID>  (431) 
nan

>  <Assay Description>  (431) 
nan

>  <BAO Label>  (431) 
nan

$$$$

     RDKit          2D

 20 21  0  0  0  0  0  0  0  0999 V2000
    4.7581   -7.3178    0.0000 C   0  0  0  0  0  0  0  0  0  0  0  0
    3.2909   -7.0059    0.0000 C   0  0  0  0  0  0  0  0  0  0  0  0
    2.8273   -5.5793    0.0000 C   0  0  0  0  0  0  0  0  0  0  0  0
    1.3601   -5.2674    0.0000 N   0  0  0  0  0  0  0  0  0  0  0  0
    0.7500   -3.8971    0.0000 C   0  0  0  0  0  0  0  0  0  0  0  0
    1.5000   -2.5981    0.0000 S   0  0  0  0  0  0  0  0  0  0  0  0
    0.7500   -1.2990    0.0000 C   0  0  0  0  0  0  0  0  0  0  0  0
    1.5000    0.0000    0.0000 C   0  0  0  0  0  0  0  0  0  0  0  0
    0.7500    1.2990    0.0000 C   0  0  0  0  0  0  0  0  0  0  0  0
   -0.7500    1.2990    0.0000 C   0  0  0  0  0  0  0  0  0  0  0  0
   -1.5000    2.5981    0.0000 C   0  0  0  0  0  0  0  0  0  0  0  0
   -0.7500    3.8971    0.0000 C   0  0  0  0  0  0  0  0  0  0  0  0
   -3.0000    2.5981    0.0000 N   0  0  0  0  0  4  0  0  0  0  0  0
   -1.5000    0.0000    0.0000 C   0  0  0  0  0  0  0  0  0  0  0  0
   -0.7500   -1.2990    0.0000 C   0  0  0  0  0  0  0  0  0  0  0  0
   -1.5000   -2.5981    0.0000 Br  0  0  0  0  0  0  0  0  0  0  0  0
   -0.7418   -4.0539    0.0000 N   0  0  0  0  0  0  0  0  0  0  0  0
   -1.0537   -5.5211    0.0000 N   0  0  0  0  0  0  0  0  0  0  0  0
    0.2454   -6.2711    0.0000 C   0  0  0  0  0  0  0  0  0  0  0  0
    0.4022   -7.7629    0.0000 O   0  0  0  0  0  0  0  0  0  0  0  0
  1  2  1  0
  2  3  1  0
  3  4  1  0
  4  5  1  0
  5  6  1  0
  6  7  1  0
  7  8  2  0
  8  9  1  0
  9 10  2  0
 10 11  1  0
 11 12  1  6
 11 13  1  0
 10 14  1  0
 14 15  2  0
 15 16  1  0
  5 17  2  0
 17 18  1  0
 18 19  1  0
 19 20  2  0
 19  4  1  0
 15  7  1  0
M  CHG  1  13   1
M  END
>  <Compound_ID>  (432) 
C61700519

>  <Active>  (432) 
0.0

>  <Smiles>  (432) 
CCCn1c(Sc2ccc([C@@H](C)[NH3+])cc2Br)n[nH]c1=O

>  <canonical_smi>  (432) 
CCCn1c(Sc2ccc([C@@H](C)[NH3+])cc2Br)n[nH]c1=O

>  <Set>  (432) 
G2 inactive

>  <Set_type>  (432) 
Train

>  <MW>  (432) 
358.29

>  <HBD>  (432) 
2

>  <HBA>  (432) 
3

>  <NRB>  (432) 
5

>  <NR>  (432) 
2

>  <NAR>  (432) 
2

>  <PSA>  (432) 
78.32

>  <Standard Type>  (432) 
nan

>  <Standard Relation>  (432) 
nan

>  <Standard Units>  (432) 
nan

>  <Standard Value>  (432) 
nan

>  <Assay ChEMBL ID>  (432) 
nan

>  <Assay Description>  (432) 
nan

>  <BAO Label>  (432) 
nan

$$$$

     RDKit          2D

 25 28  0  0  0  0  0  0  0  0999 V2000
    8.2500   -6.4952    0.0000 C   0  0  0  0  0  0  0  0  0  0  0  0
    7.5000   -5.1962    0.0000 C   0  0  0  0  0  0  0  0  0  0  0  0
    6.0000   -5.1962    0.0000 N   0  0  0  0  0  0  0  0  0  0  0  0
    5.2500   -6.4952    0.0000 C   0  0  0  0  0  0  0  0  0  0  0  0
    6.0000   -7.7942    0.0000 C   0  0  0  0  0  0  0  0  0  0  0  0
    5.2500   -3.8971    0.0000 C   0  0  0  0  0  0  0  0  0  0  0  0
    6.0000   -2.5981    0.0000 O   0  0  0  0  0  0  0  0  0  0  0  0
    3.7500   -3.8971    0.0000 C   0  0  0  0  0  0  0  0  0  0  0  0
    3.0000   -2.5981    0.0000 C   0  0  0  0  0  0  0  0  0  0  0  0
    1.5000   -2.5981    0.0000 C   0  0  0  0  0  0  0  0  0  0  0  0
    0.7500   -1.2990    0.0000 C   0  0  0  0  0  0  0  0  0  0  0  0
    1.5000    0.0000    0.0000 C   0  0  0  0  0  0  0  0  0  0  0  0
    0.7500    1.2990    0.0000 C   0  0  0  0  0  0  0  0  0  0  0  0
   -0.7500    1.2990    0.0000 C   0  0  0  0  0  0  0  0  0  0  0  0
   -1.5000    0.0000    0.0000 C   0  0  0  0  0  0  0  0  0  0  0  0
   -2.9266   -0.4635    0.0000 N   0  0  0  0  0  0  0  0  0  0  0  0
   -2.9266   -1.9635    0.0000 C   0  0  0  0  0  0  0  0  0  0  0  0
   -1.5000   -2.5981    0.0000 C   0  0  0  0  0  0  0  0  0  0  0  0
   -0.7500   -1.2990    0.0000 C   0  0  0  0  0  0  0  0  0  0  0  0
   -0.7500   -3.8971    0.0000 C   0  0  0  0  0  0  0  0  0  0  0  0
    0.7500   -3.8971    0.0000 C   0  0  0  0  0  0  0  0  0  0  0  0
    1.5000   -5.1962    0.0000 N   0  0  0  0  0  4  0  0  0  0  0  0
    0.7500   -6.4952    0.0000 C   0  0  0  0  0  0  0  0  0  0  0  0
   -0.0000   -7.7942    0.0000 N   0  0  0  0  0  0  0  0  0  0  0  0
    3.0000   -5.1962    0.0000 C   0  0  0  0  0  0  0  0  0  0  0  0
  1  2  1  0
  2  3  1  0
  3  4  1  0
  4  5  1  0
  3  6  1  0
  6  7  2  0
  8  6  1  1
  8  9  1  0
  9 10  2  0
 10 11  1  0
 11 12  2  0
 12 13  1  0
 13 14  2  0
 14 15  1  0
 15 16  1  0
 16 17  1  0
 17 18  2  0
 18 19  1  0
 18 20  1  0
 21 20  1  1
 21 22  1  0
 22 23  1  0
 23 24  3  0
 22 25  1  0
 25  8  1  0
 21 10  1  0
 19 11  1  0
 19 15  2  0
M  CHG  1  22   1
M  END
>  <Compound_ID>  (433) 
C44608112

>  <Active>  (433) 
0.0

>  <Smiles>  (433) 
CCN(CC)C(=O)[C@@H]1C=C2c3cccc4[nH]cc(c34)C[C@@H]2[NH+](C#N)C1

>  <canonical_smi>  (433) 
CCN(CC)C(=O)[C@@H]1C=C2c3cccc4[nH]cc(c34)C[C@@H]2[NH+](C#N)C1

>  <Set>  (433) 
G2 inactive

>  <Set_type>  (433) 
Train

>  <MW>  (433) 
335.43

>  <HBD>  (433) 
2

>  <HBA>  (433) 
2

>  <NRB>  (433) 
3

>  <NR>  (433) 
4

>  <NAR>  (433) 
2

>  <PSA>  (433) 
64.33

>  <Standard Type>  (433) 
nan

>  <Standard Relation>  (433) 
nan

>  <Standard Units>  (433) 
nan

>  <Standard Value>  (433) 
nan

>  <Assay ChEMBL ID>  (433) 
nan

>  <Assay Description>  (433) 
nan

>  <BAO Label>  (433) 
nan

$$$$

     RDKit          2D

 22 23  0  0  0  0  0  0  0  0999 V2000
    4.8139  -10.0996    0.0000 C   0  0  0  0  0  0  0  0  0  0  0  0
    5.4240   -8.7293    0.0000 C   0  0  0  0  0  0  0  0  0  0  0  0
    6.0341   -7.3590    0.0000 C   0  0  0  0  0  0  0  0  0  0  0  0
    6.7943   -9.3394    0.0000 C   0  0  0  0  0  0  0  0  0  0  0  0
    4.0537   -8.1192    0.0000 C   0  0  0  0  0  0  0  0  0  0  0  0
    3.7418   -6.6520    0.0000 N   0  0  0  0  0  0  0  0  0  0  0  0
    2.2500   -6.4952    0.0000 C   0  0  0  0  0  0  0  0  0  0  0  0
    1.5000   -5.1962    0.0000 C   0  0  0  0  0  0  0  0  0  0  0  0
    0.2010   -5.9462    0.0000 C   0  0  0  0  0  0  0  0  0  0  0  0
    2.7990   -4.4462    0.0000 C   0  0  0  0  0  0  0  0  0  0  0  0
    0.7500   -3.8971    0.0000 N   0  0  0  0  0  0  0  0  0  0  0  0
    1.5000   -2.5981    0.0000 C   0  0  0  0  0  0  0  0  0  0  0  0
    3.0000   -2.5981    0.0000 O   0  0  0  0  0  0  0  0  0  0  0  0
    0.7500   -1.2990    0.0000 C   0  0  0  0  0  0  0  0  0  0  0  0
    1.5000    0.0000    0.0000 C   0  0  0  0  0  0  0  0  0  0  0  0
    3.0000    0.0000    0.0000 Cl  0  0  0  0  0  0  0  0  0  0  0  0
    0.7500    1.2990    0.0000 C   0  0  0  0  0  0  0  0  0  0  0  0
   -0.7500    1.2990    0.0000 C   0  0  0  0  0  0  0  0  0  0  0  0
   -1.5000    0.0000    0.0000 C   0  0  0  0  0  0  0  0  0  0  0  0
   -0.7500   -1.2990    0.0000 C   0  0  0  0  0  0  0  0  0  0  0  0
    1.6399   -7.8655    0.0000 N   0  0  0  0  0  0  0  0  0  0  0  0
    2.7546   -8.8692    0.0000 O   0  0  0  0  0  0  0  0  0  0  0  0
  1  2  1  0
  2  3  1  0
  2  4  1  0
  2  5  1  0
  5  6  2  0
  6  7  1  0
  7  8  1  0
  8  9  1  0
  8 10  1  0
  8 11  1  0
 11 12  1  0
 12 13  2  0
 12 14  1  0
 14 15  2  0
 15 16  1  0
 15 17  1  0
 17 18  1  0
 18 19  1  0
 19 20  1  0
  7 21  2  0
 21 22  1  0
 22  5  1  0
 20 14  1  0
M  END
>  <Compound_ID>  (434) 
C63957460

>  <Active>  (434) 
0.0

>  <Smiles>  (434) 
CC(C)(C)c1nc(C(C)(C)NC(=O)C2=C(Cl)CCCC2)no1

>  <canonical_smi>  (434) 
CC(C)(C)c1nc(C(C)(C)NC(=O)C2=C(Cl)CCCC2)no1

>  <Set>  (434) 
G2 inactive

>  <Set_type>  (434) 
Train

>  <MW>  (434) 
325.84

>  <HBD>  (434) 
1

>  <HBA>  (434) 
4

>  <NRB>  (434) 
3

>  <NR>  (434) 
2

>  <NAR>  (434) 
1

>  <PSA>  (434) 
68.02

>  <Standard Type>  (434) 
nan

>  <Standard Relation>  (434) 
nan

>  <Standard Units>  (434) 
nan

>  <Standard Value>  (434) 
nan

>  <Assay ChEMBL ID>  (434) 
nan

>  <Assay Description>  (434) 
nan

>  <BAO Label>  (434) 
nan

$$$$

     RDKit          2D

 23 25  0  0  0  0  0  0  0  0999 V2000
   -3.7500   -3.8971    0.0000 O   0  0  0  0  0  0  0  0  0  0  0  0
   -3.0000   -2.5981    0.0000 C   0  0  0  0  0  0  0  0  0  0  0  0
   -3.7500   -1.2990    0.0000 N   0  0  0  0  0  0  0  0  0  0  0  0
   -3.0000    0.0000    0.0000 C   0  0  0  0  0  0  0  0  0  0  0  0
   -3.7500    1.2990    0.0000 C   0  0  0  0  0  0  0  0  0  0  0  0
   -4.5000    2.5981    0.0000 F   0  0  0  0  0  0  0  0  0  0  0  0
   -5.0490    0.5490    0.0000 F   0  0  0  0  0  0  0  0  0  0  0  0
   -2.4510    2.0490    0.0000 F   0  0  0  0  0  0  0  0  0  0  0  0
   -1.5000    0.0000    0.0000 C   0  0  0  0  0  0  0  0  0  0  0  0
   -0.7500   -1.2990    0.0000 C   0  0  0  0  0  0  0  0  0  0  0  0
   -1.5000   -2.5981    0.0000 N   0  0  0  0  0  0  0  0  0  0  0  0
    0.7500   -1.2990    0.0000 C   0  0  0  0  0  0  0  0  0  0  0  0
    1.5000   -2.5981    0.0000 C   0  0  0  0  0  0  0  0  0  0  0  0
    3.0000   -2.5981    0.0000 C   0  0  0  0  0  0  0  0  0  0  0  0
    3.7500   -3.8971    0.0000 C   0  0  0  0  0  0  0  0  0  0  0  0
    5.2500   -3.8971    0.0000 C   0  0  0  0  0  0  0  0  0  0  0  0
    6.0000   -2.5981    0.0000 C   0  0  0  0  0  0  0  0  0  0  0  0
    7.5000   -2.5981    0.0000 F   0  0  0  0  0  0  0  0  0  0  0  0
    5.2500   -1.2990    0.0000 C   0  0  0  0  0  0  0  0  0  0  0  0
    3.7500   -1.2990    0.0000 C   0  0  0  0  0  0  0  0  0  0  0  0
    1.5000    0.0000    0.0000 C   0  0  0  0  0  0  0  0  0  0  0  0
    0.7500    1.2990    0.0000 N   0  0  0  0  0  0  0  0  0  0  0  0
   -0.7500    1.2990    0.0000 C   0  0  0  0  0  0  0  0  0  0  0  0
  1  2  2  0
  2  3  1  0
  3  4  2  0
  4  5  1  0
  5  6  1  0
  5  7  1  0
  5  8  1  0
  4  9  1  0
  9 10  2  0
 10 11  1  0
 10 12  1  0
 12 13  2  0
 13 14  1  0
 14 15  2  0
 15 16  1  0
 16 17  2  0
 17 18  1  0
 17 19  1  0
 19 20  2  0
 12 21  1  0
 21 22  1  0
 22 23  1  0
 11  2  1  0
 20 14  1  0
 23  9  1  0
M  END
>  <Compound_ID>  (435) 
C43464101

>  <Active>  (435) 
0.0

>  <Smiles>  (435) 
O=c1nc(C(F)(F)F)c2c([nH]1)/C(=C/c1ccc(F)cc1)CNC2

>  <canonical_smi>  (435) 
O=c1nc(C(F)(F)F)c2c([nH]1)/C(=C/c1ccc(F)cc1)CNC2

>  <Set>  (435) 
G2 inactive

>  <Set_type>  (435) 
Train

>  <MW>  (435) 
325.26

>  <HBD>  (435) 
2

>  <HBA>  (435) 
3

>  <NRB>  (435) 
1

>  <NR>  (435) 
3

>  <NAR>  (435) 
2

>  <PSA>  (435) 
57.78

>  <Standard Type>  (435) 
nan

>  <Standard Relation>  (435) 
nan

>  <Standard Units>  (435) 
nan

>  <Standard Value>  (435) 
nan

>  <Assay ChEMBL ID>  (435) 
nan

>  <Assay Description>  (435) 
nan

>  <BAO Label>  (435) 
nan

$$$$

     RDKit          2D

 20 22  0  0  0  0  0  0  0  0999 V2000
    3.7500   -1.2990    0.0000 C   0  0  0  0  0  0  0  0  0  0  0  0
    3.0000    0.0000    0.0000 O   0  0  0  0  0  0  0  0  0  0  0  0
    1.5000    0.0000    0.0000 C   0  0  0  0  0  0  0  0  0  0  0  0
    0.7500   -1.2990    0.0000 C   0  0  0  0  0  0  0  0  0  0  0  0
   -0.7500   -1.2990    0.0000 C   0  0  0  0  0  0  0  0  0  0  0  0
   -1.5000    0.0000    0.0000 C   0  0  0  0  0  0  0  0  0  0  0  0
   -0.7500    1.2990    0.0000 C   0  0  0  0  0  0  0  0  0  0  0  0
    0.7500    1.2990    0.0000 C   0  0  0  0  0  0  0  0  0  0  0  0
   -1.5000    2.5981    0.0000 C   0  0  0  0  0  0  0  0  0  0  0  0
   -3.0000    2.5981    0.0000 C   0  0  0  0  0  0  0  0  0  0  0  0
   -3.7500    1.2990    0.0000 C   0  0  0  0  0  0  0  0  0  0  0  0
   -3.0000    0.0000    0.0000 C   0  0  0  0  0  0  0  0  0  0  0  0
   -3.7500   -1.2990    0.0000 N   0  0  0  0  0  0  0  0  0  0  0  0
   -3.1399   -2.6694    0.0000 N   0  0  0  0  0  0  0  0  0  0  0  0
   -4.2546   -3.6731    0.0000 C   0  0  0  0  0  0  0  0  0  0  0  0
   -4.0978   -5.1648    0.0000 C   0  0  0  0  0  0  0  0  0  0  0  0
   -5.5537   -2.9231    0.0000 C   0  0  0  0  0  0  0  0  0  0  0  0
   -6.9240   -3.5332    0.0000 Br  0  0  0  0  0  0  0  0  0  0  0  0
   -5.2418   -1.4558    0.0000 C   0  0  0  0  0  0  0  0  0  0  0  0
   -6.2455   -0.3411    0.0000 N   0  0  0  0  0  0  0  0  0  0  0  0
  1  2  1  0
  2  3  1  0
  3  4  2  0
  4  5  1  0
  5  6  2  0
  6  7  1  0
  7  8  2  0
  7  9  1  0
  9 10  1  0
 10 11  1  0
 11 12  1  0
 12 13  1  1
 13 14  1  0
 14 15  2  0
 15 16  1  0
 15 17  1  0
 17 18  1  0
 17 19  2  0
 19 20  1  0
  8  3  1  0
 19 13  1  0
 12  6  1  0
M  END
>  <Compound_ID>  (436) 
C43668521

>  <Active>  (436) 
0.0

>  <Smiles>  (436) 
COc1ccc2c(c1)CCC[C@@H]2n1nc(C)c(Br)c1N

>  <canonical_smi>  (436) 
COc1ccc2c(c1)CCC[C@@H]2n1nc(C)c(Br)c1N

>  <Set>  (436) 
G2 inactive

>  <Set_type>  (436) 
Train

>  <MW>  (436) 
336.23

>  <HBD>  (436) 
1

>  <HBA>  (436) 
3

>  <NRB>  (436) 
2

>  <NR>  (436) 
3

>  <NAR>  (436) 
2

>  <PSA>  (436) 
53.07

>  <Standard Type>  (436) 
nan

>  <Standard Relation>  (436) 
nan

>  <Standard Units>  (436) 
nan

>  <Standard Value>  (436) 
nan

>  <Assay ChEMBL ID>  (436) 
nan

>  <Assay Description>  (436) 
nan

>  <BAO Label>  (436) 
nan

$$$$

     RDKit          2D

 22 24  0  0  0  0  0  0  0  0999 V2000
   -3.0000   -2.5981    0.0000 C   0  0  0  0  0  0  0  0  0  0  0  0
   -1.5000   -2.5981    0.0000 C   0  0  0  0  0  0  0  0  0  0  0  0
   -0.7500   -3.8971    0.0000 N   0  0  0  0  0  0  0  0  0  0  0  0
    0.7500   -3.8971    0.0000 N   0  0  0  0  0  0  0  0  0  0  0  0
    1.5000   -2.5981    0.0000 C   0  0  0  0  0  0  0  0  0  0  0  0
    3.0000   -2.5981    0.0000 N   0  0  0  0  0  0  0  0  0  0  0  0
    3.7500   -3.8971    0.0000 S   0  0  0  0  0  4  0  0  0  0  0  0
    3.0000   -5.1962    0.0000 O   0  0  0  0  0  0  0  0  0  0  0  0
    5.2500   -3.8971    0.0000 O   0  0  0  0  0  0  0  0  0  0  0  0
    6.0000   -5.1962    0.0000 C   0  0  0  0  0  0  0  0  0  0  0  0
    5.2500   -6.4952    0.0000 C   0  0  0  0  0  0  0  0  0  0  0  0
    6.0000   -7.7942    0.0000 C   0  0  0  0  0  0  0  0  0  0  0  0
    7.5000   -7.7942    0.0000 C   0  0  0  0  0  0  0  0  0  0  0  0
    8.2500   -9.0933    0.0000 N   0  0  0  0  0  0  0  0  0  0  0  0
    8.2500   -6.4952    0.0000 C   0  0  0  0  0  0  0  0  0  0  0  0
    7.5000   -5.1962    0.0000 C   0  0  0  0  0  0  0  0  0  0  0  0
    0.7500   -1.2990    0.0000 C   0  0  0  0  0  0  0  0  0  0  0  0
    1.5000    0.0000    0.0000 C   0  0  0  0  0  0  0  0  0  0  0  0
    0.7500    1.2990    0.0000 C   0  0  0  0  0  0  0  0  0  0  0  0
   -0.7500    1.2990    0.0000 C   0  0  0  0  0  0  0  0  0  0  0  0
   -1.5000    0.0000    0.0000 C   0  0  0  0  0  0  0  0  0  0  0  0
   -0.7500   -1.2990    0.0000 C   0  0  0  0  0  0  0  0  0  0  0  0
  1  2  1  0
  2  3  2  0
  3  4  1  0
  4  5  2  0
  5  6  1  0
  7  6  1  1
  7  8  2  0
  7  9  1  0
  9 10  1  0
 10 11  2  0
 11 12  1  0
 12 13  2  0
 13 14  1  0
 13 15  1  0
 15 16  2  0
  5 17  1  0
 17 18  2  0
 18 19  1  0
 19 20  2  0
 20 21  1  0
 21 22  2  0
 22  2  1  0
 16 10  1  0
 22 17  1  0
M  END
>  <Compound_ID>  (437) 
C08306450

>  <Active>  (437) 
0.0

>  <Smiles>  (437) 
Cc1nnc(N[S@](=O)Oc2ccc(N)cc2)c2ccccc12

>  <canonical_smi>  (437) 
Cc1nnc(N[S@](=O)Oc2ccc(N)cc2)c2ccccc12

>  <Set>  (437) 
G2 inactive

>  <Set_type>  (437) 
Train

>  <MW>  (437) 
314.37

>  <HBD>  (437) 
2

>  <HBA>  (437) 
5

>  <NRB>  (437) 
4

>  <NR>  (437) 
3

>  <NAR>  (437) 
3

>  <PSA>  (437) 
90.13

>  <Standard Type>  (437) 
nan

>  <Standard Relation>  (437) 
nan

>  <Standard Units>  (437) 
nan

>  <Standard Value>  (437) 
nan

>  <Assay ChEMBL ID>  (437) 
nan

>  <Assay Description>  (437) 
nan

>  <BAO Label>  (437) 
nan

$$$$

     RDKit          2D

 22 23  0  0  0  0  0  0  0  0999 V2000
    5.2500   -1.2990    0.0000 C   0  0  0  0  0  0  0  0  0  0  0  0
    3.7500   -1.2990    0.0000 N   0  0  0  0  0  0  0  0  0  0  0  0
    3.0000    0.0000    0.0000 C   0  0  0  0  0  0  0  0  0  0  0  0
    3.7500    1.2990    0.0000 O   0  0  0  0  0  0  0  0  0  0  0  0
    1.5000    0.0000    0.0000 C   0  0  0  0  0  0  0  0  0  0  0  0
    0.7500   -1.2990    0.0000 C   0  0  0  0  0  0  0  0  0  0  0  0
    1.5000   -2.5981    0.0000 C   0  0  0  0  0  0  0  0  0  0  0  0
   -0.7500   -1.2990    0.0000 N   0  0  0  0  0  0  0  0  0  0  0  0
   -1.5000    0.0000    0.0000 C   0  0  0  0  0  0  0  0  0  0  0  0
   -3.0000    0.0000    0.0000 N   0  0  0  0  0  0  0  0  0  0  0  0
   -0.7500    1.2990    0.0000 N   0  0  0  0  0  0  0  0  0  0  0  0
    0.7500    1.2990    0.0000 C   0  0  0  0  0  0  0  0  0  0  0  0
    1.5000    2.5981    0.0000 C   0  0  0  0  0  0  0  0  0  0  0  0
    0.7500    3.8971    0.0000 C   0  0  0  0  0  0  0  0  0  0  0  0
    3.0000    2.5981    0.0000 O   0  0  0  0  0  0  0  0  0  0  0  0
    3.7500    3.8971    0.0000 C   0  0  0  0  0  0  0  0  0  0  0  0
    5.2500    3.8971    0.0000 C   0  0  0  0  0  0  0  0  0  0  0  0
    6.0000    5.1962    0.0000 C   0  0  0  0  0  0  0  0  0  0  0  0
    5.2500    6.4952    0.0000 C   0  0  0  0  0  0  0  0  0  0  0  0
    3.7500    6.4952    0.0000 C   0  0  0  0  0  0  0  0  0  0  0  0
    3.0000    5.1962    0.0000 C   0  0  0  0  0  0  0  0  0  0  0  0
    1.5000    5.1962    0.0000 Cl  0  0  0  0  0  0  0  0  0  0  0  0
  1  2  1  0
  2  3  1  0
  3  4  2  0
  3  5  1  0
  5  6  2  0
  6  7  1  0
  6  8  1  0
  8  9  2  0
  9 10  1  0
  9 11  1  0
 11 12  2  0
 12 13  1  0
 13 14  1  1
 13 15  1  0
 15 16  1  0
 16 17  2  0
 17 18  1  0
 18 19  2  0
 19 20  1  0
 20 21  2  0
 21 22  1  0
 12  5  1  0
 21 16  1  0
M  END
>  <Compound_ID>  (438) 
C66135953

>  <Active>  (438) 
0.0

>  <Smiles>  (438) 
CNC(=O)c1c(C)nc(N)nc1[C@@H](C)Oc1ccccc1Cl

>  <canonical_smi>  (438) 
CNC(=O)c1c(C)nc(N)nc1[C@@H](C)Oc1ccccc1Cl

>  <Set>  (438) 
G2 inactive

>  <Set_type>  (438) 
Train

>  <MW>  (438) 
320.78

>  <HBD>  (438) 
2

>  <HBA>  (438) 
5

>  <NRB>  (438) 
4

>  <NR>  (438) 
2

>  <NAR>  (438) 
2

>  <PSA>  (438) 
90.13

>  <Standard Type>  (438) 
nan

>  <Standard Relation>  (438) 
nan

>  <Standard Units>  (438) 
nan

>  <Standard Value>  (438) 
nan

>  <Assay ChEMBL ID>  (438) 
nan

>  <Assay Description>  (438) 
nan

>  <BAO Label>  (438) 
nan

$$$$

     RDKit          2D

 23 25  0  0  0  0  0  0  0  0999 V2000
   -1.0409   -5.7068    0.0000 C   0  0  0  0  0  0  0  0  0  0  0  0
   -0.5773   -4.2803    0.0000 C   0  0  0  0  0  0  0  0  0  0  0  0
    0.8899   -3.9684    0.0000 N   0  0  0  0  0  0  0  0  0  0  0  0
    2.0046   -4.9721    0.0000 C   0  0  0  0  0  0  0  0  0  0  0  0
    1.8478   -6.4639    0.0000 S   0  0  0  0  0  0  0  0  0  0  0  0
    3.0613   -7.3456    0.0000 C   0  0  0  0  0  0  0  0  0  0  0  0
    2.9046   -8.8373    0.0000 C   0  0  0  0  0  0  0  0  0  0  0  0
    4.1181   -9.7190    0.0000 N   0  0  0  0  0  0  0  0  0  0  0  0
    1.5342   -9.4474    0.0000 O   0  0  0  0  0  0  0  0  0  0  0  0
    3.3037   -4.2221    0.0000 N   0  0  0  0  0  0  0  0  0  0  0  0
    2.9918   -2.7549    0.0000 N   0  0  0  0  0  0  0  0  0  0  0  0
    1.5000   -2.5981    0.0000 C   0  0  0  0  0  0  0  0  0  0  0  0
    0.7500   -1.2990    0.0000 C   0  0  0  0  0  0  0  0  0  0  0  0
    1.5000    0.0000    0.0000 C   0  0  0  0  0  0  0  0  0  0  0  0
    0.7500    1.2990    0.0000 C   0  0  0  0  0  0  0  0  0  0  0  0
    1.2135    2.7256    0.0000 C   0  0  0  0  0  0  0  0  0  0  0  0
    2.6401    3.1891    0.0000 C   0  0  0  0  0  0  0  0  0  0  0  0
    0.0000    3.6073    0.0000 C   0  0  0  0  0  0  0  0  0  0  0  0
    0.0000    5.1073    0.0000 C   0  0  0  0  0  0  0  0  0  0  0  0
   -1.2135    2.7256    0.0000 N   0  0  0  0  0  0  0  0  0  0  0  0
   -0.7500    1.2990    0.0000 C   0  0  0  0  0  0  0  0  0  0  0  0
   -1.5000    0.0000    0.0000 C   0  0  0  0  0  0  0  0  0  0  0  0
   -0.7500   -1.2990    0.0000 C   0  0  0  0  0  0  0  0  0  0  0  0
  1  2  1  0
  2  3  1  0
  3  4  1  0
  4  5  1  0
  5  6  1  0
  6  7  1  0
  7  8  1  0
  7  9  2  0
  4 10  2  0
 10 11  1  0
 11 12  1  0
 12 13  1  6
 13 14  2  0
 14 15  1  0
 15 16  2  0
 16 17  1  0
 16 18  1  0
 18 19  1  0
 18 20  2  0
 20 21  1  0
 21 22  1  6
 22 23  2  0
 12  3  1  0
 23 13  1  0
 21 15  1  0
M  END
>  <Compound_ID>  (439) 
C39711977

>  <Active>  (439) 
0.0

>  <Smiles>  (439) 
CCN1C(SCC(N)=O)=NN[C@H]1C1=CC2=C(C)C(C)=N[C@H]2C=C1

>  <canonical_smi>  (439) 
CCN1C(SCC(N)=O)=NN[C@H]1C1=CC2=C(C)C(C)=N[C@H]2C=C1

>  <Set>  (439) 
G2 inactive

>  <Set_type>  (439) 
Train

>  <MW>  (439) 
331.44

>  <HBD>  (439) 
2

>  <HBA>  (439) 
4

>  <NRB>  (439) 
4

>  <NR>  (439) 
3

>  <NAR>  (439) 
0

>  <PSA>  (439) 
83.08

>  <Standard Type>  (439) 
nan

>  <Standard Relation>  (439) 
nan

>  <Standard Units>  (439) 
nan

>  <Standard Value>  (439) 
nan

>  <Assay ChEMBL ID>  (439) 
nan

>  <Assay Description>  (439) 
nan

>  <BAO Label>  (439) 
nan

$$$$

     RDKit          2D

 20 21  0  0  0  0  0  0  0  0999 V2000
    8.2314   -3.8613    0.0000 C   0  0  0  0  0  0  0  0  0  0  0  0
    6.7728   -4.2115    0.0000 N   0  0  0  0  0  0  0  0  0  0  0  0
    5.6322   -3.2373    0.0000 C   0  0  0  0  0  0  0  0  0  0  0  0
    4.3532   -4.0210    0.0000 C   0  0  0  0  0  0  0  0  0  0  0  0
    2.9674   -3.4470    0.0000 S   0  0  0  0  0  0  0  0  0  0  0  0
    3.5415   -2.0612    0.0000 O   0  0  0  0  0  0  0  0  0  0  0  0
    2.3934   -4.8328    0.0000 O   0  0  0  0  0  0  0  0  0  0  0  0
    1.5816   -2.8730    0.0000 N   0  0  0  0  0  0  0  0  0  0  0  0
    1.3858   -1.3858    0.0000 C   0  0  0  0  0  0  0  0  0  0  0  0
    2.8730   -1.5816    0.0000 C   0  0  0  0  0  0  0  0  0  0  0  0
    3.7861   -0.3916    0.0000 N   0  0  0  0  0  4  0  0  0  0  0  0
    1.9598    0.0000    0.0000 C   0  0  0  0  0  0  0  0  0  0  0  0
    1.3858    1.3858    0.0000 C   0  0  0  0  0  0  0  0  0  0  0  0
    0.0000    1.9598    0.0000 C   0  0  0  0  0  0  0  0  0  0  0  0
   -1.3858    1.3858    0.0000 C   0  0  0  0  0  0  0  0  0  0  0  0
   -1.9598    0.0000    0.0000 C   0  0  0  0  0  0  0  0  0  0  0  0
   -1.3858   -1.3858    0.0000 C   0  0  0  0  0  0  0  0  0  0  0  0
   -0.0000   -1.9598    0.0000 C   0  0  0  0  0  0  0  0  0  0  0  0
    4.7034   -5.4796    0.0000 C   0  0  0  0  0  0  0  0  0  0  0  0
    6.1988   -5.5973    0.0000 N   0  0  0  0  0  0  0  0  0  0  0  0
  1  2  1  0
  2  3  1  0
  3  4  2  0
  4  5  1  0
  5  6  2  0
  5  7  2  0
  5  8  1  0
  8  9  1  0
  9 10  1  0
 10 11  1  0
  9 12  1  0
 12 13  1  0
 13 14  1  0
 14 15  1  0
 15 16  1  0
 16 17  1  0
 17 18  1  0
  4 19  1  0
 19 20  2  0
 20  2  1  0
 18  9  1  0
M  CHG  1  11   1
M  END
>  <Compound_ID>  (440) 
C50252059

>  <Active>  (440) 
0.0

>  <Smiles>  (440) 
Cn1cc(S(=O)(=O)NC2(C[NH3+])CCCCCCC2)cn1

>  <canonical_smi>  (440) 
Cn1cc(S(=O)(=O)NC2(C[NH3+])CCCCCCC2)cn1

>  <Set>  (440) 
G2 inactive

>  <Set_type>  (440) 
Train

>  <MW>  (440) 
301.44

>  <HBD>  (440) 
2

>  <HBA>  (440) 
3

>  <NRB>  (440) 
4

>  <NR>  (440) 
2

>  <NAR>  (440) 
1

>  <PSA>  (440) 
91.63

>  <Standard Type>  (440) 
nan

>  <Standard Relation>  (440) 
nan

>  <Standard Units>  (440) 
nan

>  <Standard Value>  (440) 
nan

>  <Assay ChEMBL ID>  (440) 
nan

>  <Assay Description>  (440) 
nan

>  <BAO Label>  (440) 
nan

$$$$

     RDKit          2D

 19 20  0  0  0  0  0  0  0  0999 V2000
    3.0000    0.0000    0.0000 N   0  0  0  0  0  4  0  0  0  0  0  0
    1.5000    0.0000    0.0000 C   0  0  0  0  0  0  0  0  0  0  0  0
    0.7500   -1.2990    0.0000 C   0  0  0  0  0  0  0  0  0  0  0  0
   -0.7500   -1.2990    0.0000 C   0  0  0  0  0  0  0  0  0  0  0  0
   -1.5000    0.0000    0.0000 C   0  0  0  0  0  0  0  0  0  0  0  0
   -0.7500    1.2990    0.0000 C   0  0  0  0  0  0  0  0  0  0  0  0
    0.7500    1.2990    0.0000 C   0  0  0  0  0  0  0  0  0  0  0  0
    1.5000    2.5981    0.0000 N   0  0  0  0  0  0  0  0  0  0  0  0
    0.7500    3.8971    0.0000 S   0  0  0  0  0  0  0  0  0  0  0  0
   -0.5490    3.1471    0.0000 O   0  0  0  0  0  0  0  0  0  0  0  0
    2.0490    4.6471    0.0000 O   0  0  0  0  0  0  0  0  0  0  0  0
    0.0000    5.1962    0.0000 C   0  0  0  0  0  0  0  0  0  0  0  0
    0.7500    6.4952    0.0000 C   0  0  0  0  0  0  0  0  0  0  0  0
   -0.0000    7.7942    0.0000 C   0  0  0  0  0  0  0  0  0  0  0  0
   -1.5000    7.7942    0.0000 S   0  0  0  0  0  0  0  0  0  0  0  0
   -2.9095    8.3073    0.0000 O   0  0  0  0  0  0  0  0  0  0  0  0
   -1.2395    9.2714    0.0000 O   0  0  0  0  0  0  0  0  0  0  0  0
   -2.2500    6.4952    0.0000 C   0  0  0  0  0  0  0  0  0  0  0  0
   -1.5000    5.1962    0.0000 C   0  0  0  0  0  0  0  0  0  0  0  0
  2  1  1  6
  2  3  1  0
  3  4  1  0
  4  5  1  0
  5  6  1  0
  6  7  1  0
  7  8  1  1
  8  9  1  0
  9 10  2  0
  9 11  2  0
  9 12  1  0
 12 13  1  0
 13 14  1  0
 14 15  1  0
 15 16  2  0
 15 17  2  0
 15 18  1  0
 18 19  1  0
  7  2  1  0
 19 12  1  0
M  CHG  1   1   1
M  END
>  <Compound_ID>  (441) 
C50351642

>  <Active>  (441) 
0.0

>  <Smiles>  (441) 
[NH3+][C@@H]1CCCC[C@H]1NS(=O)(=O)C1CCS(=O)(=O)CC1

>  <canonical_smi>  (441) 
[NH3+][C@@H]1CCCC[C@H]1NS(=O)(=O)C1CCS(=O)(=O)CC1

>  <Set>  (441) 
G2 inactive

>  <Set_type>  (441) 
Train

>  <MW>  (441) 
311.45

>  <HBD>  (441) 
2

>  <HBA>  (441) 
4

>  <NRB>  (441) 
3

>  <NR>  (441) 
2

>  <NAR>  (441) 
0

>  <PSA>  (441) 
107.95

>  <Standard Type>  (441) 
nan

>  <Standard Relation>  (441) 
nan

>  <Standard Units>  (441) 
nan

>  <Standard Value>  (441) 
nan

>  <Assay ChEMBL ID>  (441) 
nan

>  <Assay Description>  (441) 
nan

>  <BAO Label>  (441) 
nan

$$$$

     RDKit          2D

 31 34  0  0  0  0  0  0  0  0999 V2000
    2.8273   -8.1774    0.0000 N   0  0  0  0  0  0  0  0  0  0  0  0
    1.3601   -7.8655    0.0000 N   0  0  0  0  0  0  0  0  0  0  0  0
    0.7500   -6.4952    0.0000 C   0  0  0  0  0  0  0  0  0  0  0  0
    1.5000   -5.1962    0.0000 S   0  0  0  0  0  0  0  0  0  0  0  0
    0.7500   -3.8971    0.0000 C   0  0  0  0  0  0  0  0  0  0  0  0
    1.5000   -2.5981    0.0000 C   0  0  0  0  0  0  0  0  0  0  0  0
    3.0000   -2.5981    0.0000 O   0  0  0  0  0  0  0  0  0  0  0  0
    0.7500   -1.2990    0.0000 C   0  0  0  0  0  0  0  0  0  0  0  0
    1.5000    0.0000    0.0000 C   0  0  0  0  0  0  0  0  0  0  0  0
    0.7500    1.2990    0.0000 C   0  0  0  0  0  0  0  0  0  0  0  0
   -0.7500    1.2990    0.0000 C   0  0  0  0  0  0  0  0  0  0  0  0
   -1.5000    2.5981    0.0000 N   0  0  0  0  0  4  0  0  0  0  0  0
   -3.0000    2.5981    0.0000 O   0  0  0  0  0  0  0  0  0  0  0  0
   -0.7500    3.8971    0.0000 O   0  0  0  0  0  1  0  0  0  0  0  0
   -1.5000    0.0000    0.0000 C   0  0  0  0  0  0  0  0  0  0  0  0
   -0.7500   -1.2990    0.0000 C   0  0  0  0  0  0  0  0  0  0  0  0
   -0.7418   -6.6520    0.0000 N   0  0  0  0  0  0  0  0  0  0  0  0
   -1.0537   -8.1192    0.0000 N   0  0  0  0  0  0  0  0  0  0  0  0
    0.2454   -8.8692    0.0000 C   0  0  0  0  0  0  0  0  0  0  0  0
    0.4022  -10.3610    0.0000 C   0  0  0  0  0  0  0  0  0  0  0  0
    1.7012  -11.1110    0.0000 C   0  0  0  0  0  0  0  0  0  0  0  0
    1.3894  -12.5782    0.0000 C   0  0  0  0  0  0  0  0  0  0  0  0
    2.3930  -13.6929    0.0000 C   0  0  0  0  0  0  0  0  0  0  0  0
    1.9295  -15.1195    0.0000 C   0  0  0  0  0  0  0  0  0  0  0  0
    2.9332  -16.2342    0.0000 C   0  0  0  0  0  0  0  0  0  0  0  0
    4.4004  -15.9224    0.0000 C   0  0  0  0  0  0  0  0  0  0  0  0
    5.4041  -17.0371    0.0000 F   0  0  0  0  0  0  0  0  0  0  0  0
    4.8640  -14.4958    0.0000 C   0  0  0  0  0  0  0  0  0  0  0  0
    3.8603  -13.3811    0.0000 C   0  0  0  0  0  0  0  0  0  0  0  0
   -0.1024  -12.7350    0.0000 N   0  0  0  0  0  0  0  0  0  0  0  0
   -0.7125  -11.3647    0.0000 N   0  0  0  0  0  0  0  0  0  0  0  0
  1  2  1  0
  2  3  1  0
  3  4  1  6
  4  5  1  0
  5  6  1  0
  6  7  2  0
  6  8  1  0
  8  9  2  0
  9 10  1  0
 10 11  2  0
 11 12  1  0
 12 13  2  0
 12 14  1  0
 11 15  1  0
 15 16  2  0
  3 17  1  0
 17 18  1  0
 19 18  1  1
 19 20  1  0
 20 21  1  6
 21 22  2  0
 22 23  1  0
 23 24  2  0
 24 25  1  0
 25 26  2  0
 26 27  1  0
 26 28  1  0
 28 29  2  0
 22 30  1  0
 30 31  2  0
 19  2  1  0
 31 20  1  0
 16  8  1  0
 29 23  1  0
M  CHG  2  12   1  14  -1
M  END
>  <Compound_ID>  (442) 
C38751917

>  <Active>  (442) 
0.0

>  <Smiles>  (442) 
NN1[C@@H](SCC(=O)c2ccc([N+](=O)[O-])cc2)NN[C@@H]1[C@@H]1C=C(c2ccc(F)cc2)N=N1

>  <canonical_smi>  (442) 
NN1[C@@H](SCC(=O)c2ccc([N+](=O)[O-])cc2)NN[C@@H]1[C@@H]1C=C(c2ccc(F)cc2)N=N1

>  <Set>  (442) 
G2 inactive

>  <Set_type>  (442) 
Train

>  <MW>  (442) 
443.46

>  <HBD>  (442) 
3

>  <HBA>  (442) 
8

>  <NRB>  (442) 
7

>  <NR>  (442) 
4

>  <NAR>  (442) 
2

>  <PSA>  (442) 
138.25

>  <Standard Type>  (442) 
nan

>  <Standard Relation>  (442) 
nan

>  <Standard Units>  (442) 
nan

>  <Standard Value>  (442) 
nan

>  <Assay ChEMBL ID>  (442) 
nan

>  <Assay Description>  (442) 
nan

>  <BAO Label>  (442) 
nan

$$$$

     RDKit          2D

 19 20  0  0  0  0  0  0  0  0999 V2000
    3.0000    0.0000    0.0000 O   0  0  0  0  0  0  0  0  0  0  0  0
    1.5000    0.0000    0.0000 C   0  0  0  0  0  0  0  0  0  0  0  0
    0.7500   -1.2990    0.0000 N   0  0  0  0  0  0  0  0  0  0  0  0
   -0.7500   -1.2990    0.0000 C   0  0  0  0  0  0  0  0  0  0  0  0
   -1.5000   -2.5981    0.0000 N   0  0  0  0  0  0  0  0  0  0  0  0
   -3.0000   -2.5981    0.0000 N   0  0  0  0  0  0  0  0  0  0  0  0
   -3.7500   -3.8971    0.0000 C   0  0  0  0  0  0  0  0  0  0  0  0
   -5.2500   -3.8971    0.0000 C   0  0  0  0  0  0  0  0  0  0  0  0
   -6.0000   -2.5981    0.0000 C   0  0  0  0  0  0  0  0  0  0  0  0
   -7.5000   -2.5981    0.0000 C   0  0  0  0  0  0  0  0  0  0  0  0
   -8.2500   -1.2990    0.0000 Br  0  0  0  0  0  0  0  0  0  0  0  0
   -8.2500   -3.8971    0.0000 C   0  0  0  0  0  0  0  0  0  0  0  0
   -9.7500   -3.8971    0.0000 O   0  0  0  0  0  0  0  0  0  0  0  0
   -7.5000   -5.1962    0.0000 C   0  0  0  0  0  0  0  0  0  0  0  0
   -8.2500   -6.4952    0.0000 Br  0  0  0  0  0  0  0  0  0  0  0  0
   -6.0000   -5.1962    0.0000 C   0  0  0  0  0  0  0  0  0  0  0  0
   -1.5000    0.0000    0.0000 C   0  0  0  0  0  0  0  0  0  0  0  0
   -0.7500    1.2990    0.0000 N   0  0  0  0  0  0  0  0  0  0  0  0
    0.7500    1.2990    0.0000 N   0  0  0  0  0  0  0  0  0  0  0  0
  1  2  2  0
  2  3  1  0
  3  4  2  0
  4  5  1  0
  5  6  1  0
  6  7  2  0
  7  8  1  0
  8  9  2  0
  9 10  1  0
 10 11  1  0
 10 12  2  0
 12 13  1  0
 12 14  1  0
 14 15  1  0
 14 16  2  0
  4 17  1  0
 17 18  2  0
 18 19  1  0
 19  2  1  0
 16  8  1  0
M  END
>  <Compound_ID>  (443) 
C03946756

>  <Active>  (443) 
0.0

>  <Smiles>  (443) 
O=c1nc(N/N=C/c2cc(Br)c(O)c(Br)c2)cn[nH]1

>  <canonical_smi>  (443) 
O=c1nc(N/N=C/c2cc(Br)c(O)c(Br)c2)cn[nH]1

>  <Set>  (443) 
G2 inactive

>  <Set_type>  (443) 
Train

>  <MW>  (443) 
389.01

>  <HBD>  (443) 
3

>  <HBA>  (443) 
5

>  <NRB>  (443) 
3

>  <NR>  (443) 
2

>  <NAR>  (443) 
2

>  <PSA>  (443) 
103.26

>  <Standard Type>  (443) 
nan

>  <Standard Relation>  (443) 
nan

>  <Standard Units>  (443) 
nan

>  <Standard Value>  (443) 
nan

>  <Assay ChEMBL ID>  (443) 
nan

>  <Assay Description>  (443) 
nan

>  <BAO Label>  (443) 
nan

$$$$

     RDKit          2D

 26 29  0  0  0  0  0  0  0  0999 V2000
   -5.6724    1.2892    0.0000 C   0  0  0  0  0  0  0  0  0  0  0  0
   -4.0375   -0.1829    0.0000 C   0  0  0  0  0  0  0  0  0  0  0  0
   -3.2766    0.0643    0.0000 C   0  0  0  0  0  0  0  0  0  0  0  0
   -2.6821   -0.4710    0.0000 C   0  0  0  0  0  0  0  0  0  0  0  0
   -0.5898    0.2088    0.0000 O   0  0  0  0  0  0  0  0  0  0  0  0
   -2.3282   -1.7219    0.0000 C   0  0  0  0  0  0  0  0  0  0  0  0
   -3.7548   -2.1855    0.0000 C   0  0  0  0  0  0  0  0  0  0  0  0
   -4.2038   -0.9654    0.0000 C   0  0  0  0  0  0  0  0  0  0  0  0
   -4.0667   -3.6527    0.0000 O   0  0  0  0  0  0  0  0  0  0  0  0
   -2.9520   -4.6564    0.0000 C   0  0  0  0  0  0  0  0  0  0  0  0
   -3.2638   -6.1236    0.0000 N   0  0  0  0  0  0  0  0  0  0  0  0
   -1.5254   -4.1928    0.0000 C   0  0  0  0  0  0  0  0  0  0  0  0
   -0.4107   -5.1965    0.0000 C   0  0  0  0  0  0  0  0  0  0  0  0
    0.7040   -6.2002    0.0000 N   0  0  0  0  0  0  0  0  0  0  0  0
   -1.2135   -2.7256    0.0000 C   0  0  0  0  0  0  0  0  0  0  0  0
   -0.0000   -3.6073    0.0000 C   0  0  0  0  0  0  0  0  0  0  0  0
    0.2940   -4.7862    0.0000 O   0  0  0  0  0  0  0  0  0  0  0  0
    1.2135   -2.7256    0.0000 N   0  0  0  0  0  0  0  0  0  0  0  0
    2.6401   -3.1891    0.0000 C   0  0  0  0  0  0  0  0  0  0  0  0
    2.9520   -4.6564    0.0000 O   0  0  0  0  0  0  0  0  0  0  0  0
    0.7500   -1.2990    0.0000 C   0  0  0  0  0  0  0  0  0  0  0  0
    1.5000    0.0000    0.0000 C   0  0  0  0  0  0  0  0  0  0  0  0
    0.7500    1.2990    0.0000 C   0  0  0  0  0  0  0  0  0  0  0  0
   -0.7500    1.2990    0.0000 C   0  0  0  0  0  0  0  0  0  0  0  0
   -1.5000    0.0000    0.0000 C   0  0  0  0  0  0  0  0  0  0  0  0
   -0.7500   -1.2990    0.0000 C   0  0  0  0  0  0  0  0  0  0  0  0
  2  1  1  1
  2  3  1  0
  3  4  1  0
  4  5  2  0
  4  6  1  0
  6  7  2  0
  7  8  1  0
  7  9  1  0
  9 10  1  0
 10 11  1  0
 10 12  2  0
 12 13  1  0
 13 14  3  0
 15 12  1  1
 15 16  1  0
 16 17  2  0
 16 18  1  0
 18 19  1  0
 19 20  1  0
 18 21  1  0
 21 22  2  0
 22 23  1  0
 23 24  2  0
 24 25  1  0
 25 26  2  0
  8  2  1  0
 26 15  1  0
 15  6  1  0
 26 21  1  0
M  END
>  <Compound_ID>  (444) 
C05437349

>  <Active>  (444) 
0.0

>  <Smiles>  (444) 
C[C@H]1CC(=O)C2=C(C1)OC(N)=C(C#N)[C@@]21C(=O)N(CO)c2ccccc21

>  <canonical_smi>  (444) 
C[C@H]1CC(=O)C2=C(C1)OC(N)=C(C#N)[C@@]21C(=O)N(CO)c2ccccc21

>  <Set>  (444) 
G2 inactive

>  <Set_type>  (444) 
Train

>  <MW>  (444) 
351.36

>  <HBD>  (444) 
2

>  <HBA>  (444) 
6

>  <NRB>  (444) 
1

>  <NR>  (444) 
4

>  <NAR>  (444) 
1

>  <PSA>  (444) 
116.65

>  <Standard Type>  (444) 
nan

>  <Standard Relation>  (444) 
nan

>  <Standard Units>  (444) 
nan

>  <Standard Value>  (444) 
nan

>  <Assay ChEMBL ID>  (444) 
nan

>  <Assay Description>  (444) 
nan

>  <BAO Label>  (444) 
nan

$$$$

     RDKit          2D

 23 24  0  0  0  0  0  0  0  0999 V2000
    3.0000    0.0000    0.0000 C   0  0  0  0  0  0  0  0  0  0  0  0
    1.5000    0.0000    0.0000 C   0  0  0  0  0  0  0  0  0  0  0  0
    0.7500   -1.2990    0.0000 C   0  0  0  0  0  0  0  0  0  0  0  0
   -0.7500   -1.2990    0.0000 C   0  0  0  0  0  0  0  0  0  0  0  0
   -1.5000   -2.5981    0.0000 C   0  0  0  0  0  0  0  0  0  0  0  0
   -3.0000   -2.5981    0.0000 C   0  0  0  0  0  0  0  0  0  0  0  0
   -3.7500   -1.2990    0.0000 O   0  0  0  0  0  0  0  0  0  0  0  0
   -3.7500   -3.8971    0.0000 N   0  0  0  0  0  0  0  0  0  0  0  0
   -3.0000   -5.1962    0.0000 C   0  0  0  0  0  0  0  0  0  0  0  0
   -3.7500   -6.4952    0.0000 O   0  0  0  0  0  0  0  0  0  0  0  0
   -1.5000   -5.1962    0.0000 N   0  0  0  0  0  0  0  0  0  0  0  0
   -0.7500   -3.8971    0.0000 C   0  0  0  0  0  0  0  0  0  0  0  0
    0.7500   -3.8971    0.0000 O   0  0  0  0  0  0  0  0  0  0  0  0
   -1.5000    0.0000    0.0000 C   0  0  0  0  0  0  0  0  0  0  0  0
   -0.7500    1.2990    0.0000 C   0  0  0  0  0  0  0  0  0  0  0  0
   -1.5000    2.5981    0.0000 C   0  0  0  0  0  0  0  0  0  0  0  0
   -2.2500    3.8971    0.0000 F   0  0  0  0  0  0  0  0  0  0  0  0
   -0.2010    3.3481    0.0000 F   0  0  0  0  0  0  0  0  0  0  0  0
   -2.7990    1.8481    0.0000 F   0  0  0  0  0  0  0  0  0  0  0  0
    0.7500    1.2990    0.0000 N   0  0  0  0  0  0  0  0  0  0  0  0
    1.5000    2.5981    0.0000 C   0  0  0  0  0  0  0  0  0  0  0  0
    3.0000    2.5981    0.0000 C   0  0  0  0  0  0  0  0  0  0  0  0
    3.7500    3.8971    0.0000 O   0  0  0  0  0  0  0  0  0  0  0  0
  1  2  1  0
  2  3  2  0
  3  4  1  0
  4  5  2  0
  5  6  1  0
  6  7  2  0
  6  8  1  0
  8  9  1  0
  9 10  2  0
  9 11  1  0
 11 12  1  0
 12 13  2  0
  4 14  1  0
 14 15  2  0
 15 16  1  0
 16 17  1  0
 16 18  1  0
 16 19  1  0
 15 20  1  0
 20 21  1  0
 21 22  1  0
 22 23  1  0
 20  2  1  0
 12  5  1  0
M  END
>  <Compound_ID>  (445) 
C02891855

>  <Active>  (445) 
0.0

>  <Smiles>  (445) 
CC1=CC(=C2C(=O)NC(=O)NC2=O)C=C(C(F)(F)F)N1CCO

>  <canonical_smi>  (445) 
CC1=CC(=C2C(=O)NC(=O)NC2=O)C=C(C(F)(F)F)N1CCO

>  <Set>  (445) 
G2 inactive

>  <Set_type>  (445) 
Train

>  <MW>  (445) 
331.25

>  <HBD>  (445) 
3

>  <HBA>  (445) 
5

>  <NRB>  (445) 
2

>  <NR>  (445) 
2

>  <NAR>  (445) 
0

>  <PSA>  (445) 
98.74

>  <Standard Type>  (445) 
nan

>  <Standard Relation>  (445) 
nan

>  <Standard Units>  (445) 
nan

>  <Standard Value>  (445) 
nan

>  <Assay ChEMBL ID>  (445) 
nan

>  <Assay Description>  (445) 
nan

>  <BAO Label>  (445) 
nan

$$$$

     RDKit          2D

 25 26  0  0  0  0  0  0  0  0999 V2000
    9.1471   -0.9510    0.0000 C   0  0  0  0  0  0  0  0  0  0  0  0
    7.8481   -0.2010    0.0000 C   0  0  0  0  0  0  0  0  0  0  0  0
    6.5490   -0.9510    0.0000 C   0  0  0  0  0  0  0  0  0  0  0  0
    6.5490   -2.4510    0.0000 C   0  0  0  0  0  0  0  0  0  0  0  0
    5.2500   -0.2010    0.0000 C   0  0  0  0  0  0  0  0  0  0  0  0
    3.9510   -0.9510    0.0000 O   0  0  0  0  0  0  0  0  0  0  0  0
    5.2500    1.2990    0.0000 C   0  0  0  0  0  0  0  0  0  0  0  0
    6.7500    1.2990    0.0000 C   0  0  0  0  0  0  0  0  0  0  0  0
    5.2500    2.7990    0.0000 O   0  0  0  0  0  0  0  0  0  0  0  0
    3.7500    1.2990    0.0000 C   0  0  0  0  0  0  0  0  0  0  0  0
    3.0000    0.0000    0.0000 C   0  0  0  0  0  0  0  0  0  0  0  0
    1.5000    0.0000    0.0000 C   0  0  0  0  0  0  0  0  0  0  0  0
    0.7500   -1.2990    0.0000 C   0  0  0  0  0  0  0  0  0  0  0  0
   -0.7500   -1.2990    0.0000 C   0  0  0  0  0  0  0  0  0  0  0  0
   -1.5000   -2.5981    0.0000 C   0  0  0  0  0  0  0  0  0  0  0  0
   -3.0000   -2.5981    0.0000 C   0  0  0  0  0  0  0  0  0  0  0  0
   -3.7500   -3.8971    0.0000 O   0  0  0  0  0  0  0  0  0  0  0  0
   -3.7500   -1.2990    0.0000 C   0  0  0  0  0  0  0  0  0  0  0  0
   -4.8991   -0.3349    0.0000 C   0  0  0  0  0  0  0  0  0  0  0  0
   -4.8991   -2.2632    0.0000 O   0  0  0  0  0  0  0  0  0  0  0  0
   -3.0000    0.0000    0.0000 C   0  0  0  0  0  0  0  0  0  0  0  0
   -3.7500    1.2990    0.0000 O   0  0  0  0  0  0  0  0  0  0  0  0
   -1.5000    0.0000    0.0000 C   0  0  0  0  0  0  0  0  0  0  0  0
   -0.7500    1.2990    0.0000 C   0  0  0  0  0  0  0  0  0  0  0  0
    0.7500    1.2990    0.0000 O   0  0  0  0  0  0  0  0  0  0  0  0
  1  2  1  0
  2  3  1  0
  3  4  1  1
  3  5  1  0
  5  6  1  6
  5  7  1  0
  7  8  1  1
  7  9  1  0
  7 10  1  0
 10 11  2  0
 11 12  1  0
 12 13  2  0
 13 14  1  0
 14 15  2  0
 15 16  1  0
 16 17  2  0
 16 18  1  0
 18 19  1  6
 18 20  1  0
 18 21  1  0
 21 22  1  1
 21 23  1  0
 23 24  1  6
 24 25  1  0
 25 12  1  0
 23 14  1  0
M  END
>  <Compound_ID>  (446) 
C31158154

>  <Active>  (446) 
0.0

>  <Smiles>  (446) 
CC[C@@H](C)[C@H](O)[C@@](C)(O)/C=C/C1=CC2=CC(=O)[C@@](C)(O)[C@@H](O)[C@@H]2CO1

>  <canonical_smi>  (446) 
CC[C@@H](C)[C@H](O)[C@@](C)(O)/C=C/C1=CC2=CC(=O)[C@@](C)(O)[C@@H](O)[C@@H]2CO1

>  <Set>  (446) 
G2 inactive

>  <Set_type>  (446) 
Train

>  <MW>  (446) 
352.43

>  <HBD>  (446) 
4

>  <HBA>  (446) 
6

>  <NRB>  (446) 
5

>  <NR>  (446) 
2

>  <NAR>  (446) 
0

>  <PSA>  (446) 
107.22

>  <Standard Type>  (446) 
nan

>  <Standard Relation>  (446) 
nan

>  <Standard Units>  (446) 
nan

>  <Standard Value>  (446) 
nan

>  <Assay ChEMBL ID>  (446) 
nan

>  <Assay Description>  (446) 
nan

>  <BAO Label>  (446) 
nan

$$$$

     RDKit          2D

 28 30  0  0  0  0  0  0  0  0999 V2000
    5.2500   -1.2990    0.0000 C   0  0  0  0  0  0  0  0  0  0  0  0
    3.7500   -1.2990    0.0000 C   0  0  0  0  0  0  0  0  0  0  0  0
    3.0000    0.0000    0.0000 O   0  0  0  0  0  0  0  0  0  0  0  0
    1.5000    0.0000    0.0000 C   0  0  0  0  0  0  0  0  0  0  0  0
    0.7500   -1.2990    0.0000 C   0  0  0  0  0  0  0  0  0  0  0  0
   -0.7500   -1.2990    0.0000 C   0  0  0  0  0  0  0  0  0  0  0  0
   -1.5000   -2.5981    0.0000 C   0  0  0  0  0  0  0  0  0  0  0  0
   -3.0000   -2.5981    0.0000 C   0  0  0  0  0  0  0  0  0  0  0  0
   -3.8817   -1.3846    0.0000 C   0  0  0  0  0  0  0  0  0  0  0  0
   -3.4182    0.0420    0.0000 C   0  0  0  0  0  0  0  0  0  0  0  0
   -5.3083   -1.8481    0.0000 N   0  0  0  0  0  0  0  0  0  0  0  0
   -5.3083   -3.3481    0.0000 N   0  0  0  0  0  0  0  0  0  0  0  0
   -3.8817   -3.8116    0.0000 C   0  0  0  0  0  0  0  0  0  0  0  0
   -3.5955   -5.2841    0.0000 O   0  0  0  0  0  0  0  0  0  0  0  0
   -0.7500   -3.8971    0.0000 C   0  0  0  0  0  0  0  0  0  0  0  0
    0.7418   -4.0539    0.0000 C   0  0  0  0  0  0  0  0  0  0  0  0
    1.7455   -2.9392    0.0000 C   0  0  0  0  0  0  0  0  0  0  0  0
    1.0537   -5.5211    0.0000 N   0  0  0  0  0  0  0  0  0  0  0  0
   -0.2454   -6.2711    0.0000 N   0  0  0  0  0  0  0  0  0  0  0  0
   -1.3601   -5.2674    0.0000 C   0  0  0  0  0  0  0  0  0  0  0  0
   -2.7784   -5.7558    0.0000 O   0  0  0  0  0  1  0  0  0  0  0  0
   -1.5000    0.0000    0.0000 C   0  0  0  0  0  0  0  0  0  0  0  0
   -0.7500    1.2990    0.0000 C   0  0  0  0  0  0  0  0  0  0  0  0
   -1.5000    2.5981    0.0000 I   0  0  0  0  0  0  0  0  0  0  0  0
    0.7500    1.2990    0.0000 C   0  0  0  0  0  0  0  0  0  0  0  0
    1.5000    2.5981    0.0000 O   0  0  0  0  0  0  0  0  0  0  0  0
    0.7500    3.8971    0.0000 C   0  0  0  0  0  0  0  0  0  0  0  0
    1.5000    5.1962    0.0000 C   0  0  0  0  0  0  0  0  0  0  0  0
  1  2  1  0
  2  3  1  0
  3  4  1  0
  4  5  2  0
  5  6  1  0
  7  6  1  6
  7  8  1  0
  8  9  2  0
  9 10  1  0
  9 11  1  0
 11 12  2  0
 12 13  1  0
 13 14  1  1
  7 15  1  0
 15 16  1  0
 16 17  1  0
 16 18  2  0
 18 19  1  0
 19 20  1  0
 20 21  1  0
  6 22  2  0
 22 23  1  0
 23 24  1  0
 23 25  2  0
 25 26  1  0
 26 27  1  0
 27 28  1  0
 25  4  1  0
 13  8  1  0
 20 15  2  0
M  CHG  1  21  -1
M  END
>  <Compound_ID>  (447) 
C39350893

>  <Active>  (447) 
0.0

>  <Smiles>  (447) 
CCOc1cc([C@@H](C2=C(C)N=N[C@@H]2O)c2c(C)n[nH]c2[O-])cc(I)c1OCC

>  <canonical_smi>  (447) 
CCOc1cc([C@@H](C2=C(C)N=N[C@@H]2O)c2c(C)n[nH]c2[O-])cc(I)c1OCC

>  <Set>  (447) 
G2 inactive

>  <Set_type>  (447) 
Train

>  <MW>  (447) 
497.31

>  <HBD>  (447) 
2

>  <HBA>  (447) 
5

>  <NRB>  (447) 
7

>  <NR>  (447) 
3

>  <NAR>  (447) 
2

>  <PSA>  (447) 
115.15

>  <Standard Type>  (447) 
nan

>  <Standard Relation>  (447) 
nan

>  <Standard Units>  (447) 
nan

>  <Standard Value>  (447) 
nan

>  <Assay ChEMBL ID>  (447) 
nan

>  <Assay Description>  (447) 
nan

>  <BAO Label>  (447) 
nan

$$$$

     RDKit          2D

 35 38  0  0  0  0  0  0  0  0999 V2000
   12.0000    2.5981    0.0000 C   0  0  0  0  0  0  0  0  0  0  0  0
   10.5000    2.5981    0.0000 C   0  0  0  0  0  0  0  0  0  0  0  0
    9.7500    3.8971    0.0000 C   0  0  0  0  0  0  0  0  0  0  0  0
   10.5000    5.1962    0.0000 C   0  0  0  0  0  0  0  0  0  0  0  0
    8.2500    3.8971    0.0000 C   0  0  0  0  0  0  0  0  0  0  0  0
    7.5000    2.5981    0.0000 N   0  0  0  0  0  0  0  0  0  0  0  0
    6.0000    2.5981    0.0000 C   0  0  0  0  0  0  0  0  0  0  0  0
    5.2500    3.8971    0.0000 O   0  0  0  0  0  0  0  0  0  0  0  0
    5.2500    1.2990    0.0000 C   0  0  0  0  0  0  0  0  0  0  0  0
    3.7500    1.2990    0.0000 O   0  0  0  0  0  0  0  0  0  0  0  0
    3.0000    0.0000    0.0000 N   0  0  0  0  0  0  0  0  0  0  0  0
    1.5000    0.0000    0.0000 C   0  0  0  0  0  0  0  0  0  0  0  0
    0.7500   -1.2990    0.0000 C   0  0  0  0  0  0  0  0  0  0  0  0
   -0.7500   -1.2990    0.0000 C   0  0  0  0  0  0  0  0  0  0  0  0
   -1.5000   -2.5981    0.0000 C   0  0  0  0  0  0  0  0  0  0  0  0
   -3.0000   -2.5981    0.0000 C   0  0  0  0  0  0  0  0  0  0  0  0
   -3.7500   -1.2990    0.0000 C   0  0  0  0  0  0  0  0  0  0  0  0
   -3.0000    0.0000    0.0000 C   0  0  0  0  0  0  0  0  0  0  0  0
   -3.7500    1.2990    0.0000 C   0  0  0  0  0  0  0  0  0  0  0  0
   -5.2500    1.2990    0.0000 C   0  0  0  0  0  0  0  0  0  0  0  0
   -6.0000    0.0000    0.0000 C   0  0  0  0  0  0  0  0  0  0  0  0
   -6.7272    1.3119    0.0000 C   0  0  0  0  0  0  0  0  0  0  0  0
   -5.2500   -1.2990    0.0000 C   0  0  0  0  0  0  0  0  0  0  0  0
   -6.2537   -2.4138    0.0000 C   0  0  0  0  0  0  0  0  0  0  0  0
   -7.6240   -1.8037    0.0000 C   0  0  0  0  0  0  0  0  0  0  0  0
   -7.4672   -0.3119    0.0000 C   0  0  0  0  0  0  0  0  0  0  0  0
   -8.9672   -0.3119    0.0000 C   0  0  0  0  0  0  0  0  0  0  0  0
   -7.8047    1.1497    0.0000 O   0  0  0  0  0  0  0  0  0  0  0  0
   -1.5000    0.0000    0.0000 C   0  0  0  0  0  0  0  0  0  0  0  0
   -2.2500    1.2990    0.0000 C   0  0  0  0  0  0  0  0  0  0  0  0
   -0.7500    1.2990    0.0000 C   0  0  0  0  0  0  0  0  0  0  0  0
    0.7500    1.2990    0.0000 C   0  0  0  0  0  0  0  0  0  0  0  0
    7.5000    5.1962    0.0000 C   0  0  0  0  0  0  0  0  0  0  0  0
    6.0000    5.1962    0.0000 O   0  0  0  0  0  0  0  0  0  0  0  0
    8.2500    6.4952    0.0000 O   0  0  0  0  0  1  0  0  0  0  0  0
  1  2  1  0
  2  3  1  0
  3  4  1  1
  3  5  1  0
  5  6  1  1
  6  7  1  0
  7  8  2  0
  7  9  1  0
  9 10  1  0
 10 11  1  0
 11 12  2  0
 12 13  1  0
 13 14  2  0
 14 15  1  0
 15 16  1  0
 17 16  1  6
 17 18  1  0
 18 19  1  1
 19 20  1  0
 20 21  1  0
 21 22  1  1
 21 23  1  0
 23 24  1  1
 24 25  1  0
 25 26  1  0
 26 27  1  6
 26 28  1  0
 18 29  1  0
 29 30  1  1
 29 31  1  0
 31 32  1  0
  5 33  1  0
 33 34  2  0
 33 35  1  0
 32 12  1  0
 29 14  1  0
 23 17  1  0
 26 21  1  0
M  CHG  1  35  -1
M  END
>  <Compound_ID>  (448) 
C43743417

>  <Active>  (448) 
0.0

>  <Smiles>  (448) 
CC[C@H](C)[C@@H](NC(=O)CO/N=C1/C=C2CC[C@H]3[C@@H](CC[C@]4(C)[C@@H]3CC[C@@]4(C)O)[C@]2(C)CC1)C(=O)[O-]

>  <canonical_smi>  (448) 
CC[C@H](C)[C@@H](NC(=O)CO/N=C1/C=C2CC[C@H]3[C@@H](CC[C@]4(C)[C@@H]3CC[C@@]4(C)O)[C@]2(C)CC1)C(=O)[O-]

>  <Set>  (448) 
G2 inactive

>  <Set_type>  (448) 
Train

>  <MW>  (448) 
487.66

>  <HBD>  (448) 
2

>  <HBA>  (448) 
5

>  <NRB>  (448) 
7

>  <NR>  (448) 
4

>  <NAR>  (448) 
0

>  <PSA>  (448) 
111.05

>  <Standard Type>  (448) 
nan

>  <Standard Relation>  (448) 
nan

>  <Standard Units>  (448) 
nan

>  <Standard Value>  (448) 
nan

>  <Assay ChEMBL ID>  (448) 
nan

>  <Assay Description>  (448) 
nan

>  <BAO Label>  (448) 
nan

$$$$

     RDKit          2D

 37 40  0  0  0  0  0  0  0  0999 V2000
   -2.6840   -8.8195    0.0000 C   0  0  0  0  0  0  0  0  0  0  0  0
   -1.5693   -9.8232    0.0000 C   0  0  0  0  0  0  0  0  0  0  0  0
   -0.4545  -10.8269    0.0000 C   0  0  0  0  0  0  0  0  0  0  0  0
   -2.5730  -10.9379    0.0000 O   0  0  0  0  0  0  0  0  0  0  0  0
   -0.5656   -8.7085    0.0000 C   0  0  0  0  0  0  0  0  0  0  0  0
   -1.0291   -7.2819    0.0000 C   0  0  0  0  0  0  0  0  0  0  0  0
   -0.0254   -6.1672    0.0000 C   0  0  0  0  0  0  0  0  0  0  0  0
   -0.4889   -4.7406    0.0000 O   0  0  0  0  0  0  0  0  0  0  0  0
    1.4418   -6.4791    0.0000 C   0  0  0  0  0  0  0  0  0  0  0  0
    1.1300   -7.9463    0.0000 C   0  0  0  0  0  0  0  0  0  0  0  0
    2.9090   -6.7909    0.0000 O   0  0  0  0  0  0  0  0  0  0  0  0
    1.7537   -5.0118    0.0000 C   0  0  0  0  0  0  0  0  0  0  0  0
    3.1240   -4.4017    0.0000 C   0  0  0  0  0  0  0  0  0  0  0  0
    4.4231   -5.1517    0.0000 O   0  0  0  0  0  0  0  0  0  0  0  0
    2.9672   -2.9099    0.0000 C   0  0  0  0  0  0  0  0  0  0  0  0
    1.5000   -2.5981    0.0000 C   0  0  0  0  0  0  0  0  0  0  0  0
    2.3817   -1.3846    0.0000 C   0  0  0  0  0  0  0  0  0  0  0  0
    0.7500   -1.2990    0.0000 C   0  0  0  0  0  0  0  0  0  0  0  0
    1.5000    0.0000    0.0000 C   0  0  0  0  0  0  0  0  0  0  0  0
    0.7500    1.2990    0.0000 C   0  0  0  0  0  0  0  0  0  0  0  0
   -0.7500    1.2990    0.0000 C   0  0  0  0  0  0  0  0  0  0  0  0
   -1.5000    0.0000    0.0000 C   0  0  0  0  0  0  0  0  0  0  0  0
   -3.0000    0.0000    0.0000 C   0  0  0  0  0  0  0  0  0  0  0  0
   -3.7500    1.2990    0.0000 C   0  0  0  0  0  0  0  0  0  0  0  0
   -5.2500    1.2990    0.0000 O   0  0  0  0  0  0  0  0  0  0  0  0
   -3.0000    2.5981    0.0000 C   0  0  0  0  0  0  0  0  0  0  0  0
   -3.7500    3.8971    0.0000 O   0  0  0  0  0  0  0  0  0  0  0  0
   -1.5000    2.5981    0.0000 C   0  0  0  0  0  0  0  0  0  0  0  0
   -0.0905    3.1111    0.0000 C   0  0  0  0  0  0  0  0  0  0  0  0
   -1.7605    4.0753    0.0000 C   0  0  0  0  0  0  0  0  0  0  0  0
   -0.7500   -1.2990    0.0000 C   0  0  0  0  0  0  0  0  0  0  0  0
   -2.2500   -1.2990    0.0000 C   0  0  0  0  0  0  0  0  0  0  0  0
   -1.5000   -2.5981    0.0000 C   0  0  0  0  0  0  0  0  0  0  0  0
   -3.0000   -2.5981    0.0000 O   0  0  0  0  0  0  0  0  0  0  0  0
   -0.7500   -3.8971    0.0000 C   0  0  0  0  0  0  0  0  0  0  0  0
    0.7500   -3.8971    0.0000 C   0  0  0  0  0  0  0  0  0  0  0  0
    0.1399   -5.2674    0.0000 C   0  0  0  0  0  0  0  0  0  0  0  0
  1  2  1  0
  2  3  1  0
  2  4  1  0
  2  5  1  0
  5  6  2  0
  6  7  1  0
  7  8  2  0
  7  9  1  0
  9 10  1  6
  9 11  1  0
 12  9  1  1
 12 13  1  0
 13 14  1  1
 13 15  1  0
 15 16  1  0
 16 17  1  1
 16 18  1  0
 18 19  1  1
 19 20  1  0
 20 21  2  0
 21 22  1  0
 22 23  1  6
 23 24  2  0
 24 25  1  0
 24 26  1  0
 26 27  2  0
 26 28  1  0
 28 29  1  0
 28 30  1  0
 22 31  1  0
 31 32  1  6
 31 33  1  0
 33 34  2  0
 33 35  1  0
 35 36  1  0
 36 37  1  6
 36 12  1  0
 36 16  1  0
 31 18  1  0
 28 21  1  0
M  END
>  <Compound_ID>  (449) 
C14806458

>  <Active>  (449) 
0.0

>  <Smiles>  (449) 
CC(C)(O)/C=C/C(=O)[C@](C)(O)[C@@H]1[C@H](O)C[C@@]2(C)[C@@H]3CC=C4[C@@H](C=C(O)C(=O)C4(C)C)[C@]3(C)C(=O)C[C@]12C

>  <canonical_smi>  (449) 
CC(C)(O)/C=C/C(=O)[C@](C)(O)[C@@H]1[C@H](O)C[C@@]2(C)[C@@H]3CC=C4[C@@H](C=C(O)C(=O)C4(C)C)[C@]3(C)C(=O)C[C@]12C

>  <Set>  (449) 
G2 inactive

>  <Set_type>  (449) 
Train

>  <MW>  (449) 
514.66

>  <HBD>  (449) 
4

>  <HBA>  (449) 
7

>  <NRB>  (449) 
4

>  <NR>  (449) 
4

>  <NAR>  (449) 
0

>  <PSA>  (449) 
132.13

>  <Standard Type>  (449) 
nan

>  <Standard Relation>  (449) 
nan

>  <Standard Units>  (449) 
nan

>  <Standard Value>  (449) 
nan

>  <Assay ChEMBL ID>  (449) 
nan

>  <Assay Description>  (449) 
nan

>  <BAO Label>  (449) 
nan

$$$$

     RDKit          2D

 38 42  0  0  0  0  0  0  0  0999 V2000
    2.7760    0.0000    0.0000 C   0  0  0  0  0  0  0  0  0  0  0  0
    1.2760    0.0000    0.0000 C   0  0  0  0  0  0  0  0  0  0  0  0
    0.3943    1.2135    0.0000 C   0  0  0  0  0  0  0  0  0  0  0  0
   -1.0323    0.7500    0.0000 C   0  0  0  0  0  0  0  0  0  0  0  0
   -2.7425    1.6861    0.0000 C   0  0  0  0  0  0  0  0  0  0  0  0
   -4.2413    1.6272    0.0000 C   0  0  0  0  0  0  0  0  0  0  0  0
   -5.6035    0.9992    0.0000 N   0  0  0  0  0  0  0  0  0  0  0  0
   -6.6217   -0.1023    0.0000 C   0  0  0  0  0  0  0  0  0  0  0  0
   -7.1409   -1.5096    0.0000 C   0  0  0  0  0  0  0  0  0  0  0  0
   -7.0820   -3.0084    0.0000 C   0  0  0  0  0  0  0  0  0  0  0  0
   -6.4540   -4.3706    0.0000 N   0  0  0  0  0  4  0  0  0  0  0  0
   -5.3525   -5.3888    0.0000 C   0  0  0  0  0  0  0  0  0  0  0  0
   -3.9452   -5.9080    0.0000 C   0  0  0  0  0  0  0  0  0  0  0  0
   -2.4464   -5.8491    0.0000 C   0  0  0  0  0  0  0  0  0  0  0  0
   -1.0842   -5.2211    0.0000 N   0  0  0  0  0  0  0  0  0  0  0  0
   -0.0660   -4.1197    0.0000 C   0  0  0  0  0  0  0  0  0  0  0  0
    0.4532   -2.7124    0.0000 C   0  0  0  0  0  0  0  0  0  0  0  0
    0.3943   -1.2135    0.0000 C   0  0  0  0  0  0  0  0  0  0  0  0
   -1.0323   -0.7500    0.0000 N   0  0  0  0  0  4  0  0  0  0  0  0
    0.3975   -5.5462    0.0000 C   0  0  0  0  0  0  0  0  0  0  0  0
    1.8241   -6.0098    0.0000 C   0  0  0  0  0  0  0  0  0  0  0  0
   -0.8160   -6.4279    0.0000 C   0  0  0  0  0  0  0  0  0  0  0  0
   -0.8160   -7.9279    0.0000 C   0  0  0  0  0  0  0  0  0  0  0  0
   -2.1150   -8.6779    0.0000 C   0  0  0  0  0  0  0  0  0  0  0  0
   -2.1150  -10.1779    0.0000 C   0  0  0  0  0  0  0  0  0  0  0  0
   -0.8160  -10.9279    0.0000 O   0  0  0  0  0  0  0  0  0  0  0  0
   -3.4141  -10.9279    0.0000 O   0  0  0  0  0  1  0  0  0  0  0  0
   -6.7791   -5.8524    0.0000 C   0  0  0  0  0  0  0  0  0  0  0  0
   -7.2426   -7.2790    0.0000 C   0  0  0  0  0  0  0  0  0  0  0  0
   -6.2389   -8.3937    0.0000 C   0  0  0  0  0  0  0  0  0  0  0  0
   -6.7025   -9.8203    0.0000 C   0  0  0  0  0  0  0  0  0  0  0  0
   -8.1697  -10.1321    0.0000 O   0  0  0  0  0  0  0  0  0  0  0  0
   -5.6988  -10.9350    0.0000 O   0  0  0  0  0  1  0  0  0  0  0  0
   -7.6608   -4.6388    0.0000 C   0  0  0  0  0  0  0  0  0  0  0  0
   -9.1608   -4.6388    0.0000 C   0  0  0  0  0  0  0  0  0  0  0  0
   -7.0852    1.3243    0.0000 C   0  0  0  0  0  0  0  0  0  0  0  0
   -5.8717    2.2060    0.0000 C   0  0  0  0  0  0  0  0  0  0  0  0
   -5.8717    3.7060    0.0000 C   0  0  0  0  0  0  0  0  0  0  0  0
  1  2  1  0
  2  3  2  0
  3  4  1  0
  4  5  2  0
  5  6  1  0
  6  7  1  0
  7  8  1  0
  8  9  1  0
  9 10  2  0
 10 11  1  0
 11 12  2  0
 12 13  1  0
 13 14  2  0
 14 15  1  0
 15 16  1  0
 16 17  2  0
 17 18  1  0
 18 19  2  0
 16 20  1  0
 20 21  1  0
 20 22  2  0
 22 23  1  0
 23 24  1  0
 24 25  1  0
 25 26  2  0
 25 27  1  0
 12 28  1  0
 28 29  1  0
 29 30  1  0
 30 31  1  0
 31 32  2  0
 31 33  1  0
 28 34  2  0
 34 35  1  0
  8 36  2  0
 36 37  1  0
 37 38  1  0
 18  2  1  0
 19  4  1  0
 37  6  2  0
 34 10  1  0
 22 14  1  0
M  CHG  4  11   1  19   1  27  -1  33  -1
M  END
>  <Compound_ID>  (450) 
C19721276

>  <Active>  (450) 
0.0

>  <Smiles>  (450) 
CC1=Cc2cc3[nH]c(cc4[nH+]c(cc5[nH]c(cc1[nH+]2)c(C)c5CCC(=O)[O-])C(CCC(=O)[O-])=C4C)cc3C

>  <canonical_smi>  (450) 
CC1=Cc2cc3[nH]c(cc4[nH+]c(cc5[nH]c(cc1[nH+]2)c(C)c5CCC(=O)[O-])C(CCC(=O)[O-])=C4C)cc3C

>  <Set>  (450) 
G2 inactive

>  <Set_type>  (450) 
Train

>  <MW>  (450) 
510.59

>  <HBD>  (450) 
2

>  <HBA>  (450) 
4

>  <NRB>  (450) 
6

>  <NR>  (450) 
5

>  <NAR>  (450) 
3

>  <PSA>  (450) 
140.12

>  <Standard Type>  (450) 
nan

>  <Standard Relation>  (450) 
nan

>  <Standard Units>  (450) 
nan

>  <Standard Value>  (450) 
nan

>  <Assay ChEMBL ID>  (450) 
nan

>  <Assay Description>  (450) 
nan

>  <BAO Label>  (450) 
nan

$$$$

     RDKit          2D

 25 28  0  0  0  0  0  0  0  0999 V2000
   -0.0000   -7.7054    0.0000 N   0  0  0  0  0  0  0  0  0  0  0  0
   -0.0000   -6.2054    0.0000 C   0  0  0  0  0  0  0  0  0  0  0  0
    1.2135   -5.3237    0.0000 C   0  0  0  0  0  0  0  0  0  0  0  0
    2.6401   -5.7872    0.0000 S   0  0  0  0  0  0  0  0  0  0  0  0
    3.1036   -4.3606    0.0000 O   0  0  0  0  0  0  0  0  0  0  0  0
    2.1766   -7.2138    0.0000 O   0  0  0  0  0  0  0  0  0  0  0  0
    4.0667   -6.2508    0.0000 C   0  0  0  0  0  0  0  0  0  0  0  0
    4.3786   -7.7180    0.0000 C   0  0  0  0  0  0  0  0  0  0  0  0
    5.8051   -8.1815    0.0000 C   0  0  0  0  0  0  0  0  0  0  0  0
    6.9199   -7.1778    0.0000 C   0  0  0  0  0  0  0  0  0  0  0  0
    8.3464   -7.6413    0.0000 F   0  0  0  0  0  0  0  0  0  0  0  0
    6.6080   -5.7106    0.0000 C   0  0  0  0  0  0  0  0  0  0  0  0
    5.1814   -5.2471    0.0000 C   0  0  0  0  0  0  0  0  0  0  0  0
    0.7500   -3.8971    0.0000 C   0  0  0  0  0  0  0  0  0  0  0  0
    1.5000   -2.5981    0.0000 N   0  0  0  0  0  0  0  0  0  0  0  0
    0.7500   -1.2990    0.0000 C   0  0  0  0  0  0  0  0  0  0  0  0
    1.5000    0.0000    0.0000 C   0  0  0  0  0  0  0  0  0  0  0  0
    0.7500    1.2990    0.0000 C   0  0  0  0  0  0  0  0  0  0  0  0
   -0.7500    1.2990    0.0000 C   0  0  0  0  0  0  0  0  0  0  0  0
   -1.5000    0.0000    0.0000 C   0  0  0  0  0  0  0  0  0  0  0  0
   -0.7500   -1.2990    0.0000 C   0  0  0  0  0  0  0  0  0  0  0  0
   -1.5000   -2.5981    0.0000 N   0  0  0  0  0  0  0  0  0  0  0  0
   -0.7500   -3.8971    0.0000 C   0  0  0  0  0  0  0  0  0  0  0  0
   -1.2135   -5.3237    0.0000 N   0  0  0  0  0  0  0  0  0  0  0  0
   -2.6401   -5.7872    0.0000 N   0  0  0  0  0  0  0  0  0  0  0  0
  1  2  1  0
  2  3  2  0
  3  4  1  0
  4  5  2  0
  4  6  2  0
  4  7  1  0
  7  8  2  0
  8  9  1  0
  9 10  2  0
 10 11  1  0
 10 12  1  0
 12 13  2  0
  3 14  1  0
 14 15  2  0
 15 16  1  0
 16 17  2  0
 17 18  1  0
 18 19  2  0
 19 20  1  0
 20 21  2  0
 21 22  1  0
 22 23  2  0
 23 24  1  0
 24 25  1  0
 24  2  1  0
 13  7  1  0
 23 14  1  0
 21 16  1  0
M  END
>  <Compound_ID>  (451) 
C02369238

>  <Active>  (451) 
0.0

>  <Smiles>  (451) 
Nc1c(S(=O)(=O)c2ccc(F)cc2)c2nc3ccccc3nc2n1N

>  <canonical_smi>  (451) 
Nc1c(S(=O)(=O)c2ccc(F)cc2)c2nc3ccccc3nc2n1N

>  <Set>  (451) 
G2 inactive

>  <Set_type>  (451) 
Train

>  <MW>  (451) 
357.37

>  <HBD>  (451) 
2

>  <HBA>  (451) 
6

>  <NRB>  (451) 
2

>  <NR>  (451) 
4

>  <NAR>  (451) 
4

>  <PSA>  (451) 
116.89

>  <Standard Type>  (451) 
nan

>  <Standard Relation>  (451) 
nan

>  <Standard Units>  (451) 
nan

>  <Standard Value>  (451) 
nan

>  <Assay ChEMBL ID>  (451) 
nan

>  <Assay Description>  (451) 
nan

>  <BAO Label>  (451) 
nan

$$$$

     RDKit          2D

 24 25  0  0  0  0  0  0  0  0999 V2000
    7.5000    0.0000    0.0000 C   0  0  0  0  0  0  0  0  0  0  0  0
    6.0000    0.0000    0.0000 O   0  0  0  0  0  0  0  0  0  0  0  0
    5.2500   -1.2990    0.0000 C   0  0  0  0  0  0  0  0  0  0  0  0
    5.8423   -2.0850    0.0000 O   0  0  0  0  0  1  0  0  0  0  0  0
    3.7500   -1.2990    0.0000 C   0  0  0  0  0  0  0  0  0  0  0  0
    3.0000   -0.0000    0.0000 F   0  0  0  0  0  0  0  0  0  0  0  0
    3.0000   -2.5981    0.0000 C   0  0  0  0  0  0  0  0  0  0  0  0
    1.5000   -2.5981    0.0000 N   0  0  0  0  0  0  0  0  0  0  0  0
    0.7500   -1.2990    0.0000 C   0  0  0  0  0  0  0  0  0  0  0  0
    1.5000    0.0000    0.0000 N   0  0  0  0  0  4  0  0  0  0  0  0
    0.7500    1.2990    0.0000 C   0  0  0  0  0  0  0  0  0  0  0  0
   -0.7500    1.2990    0.0000 C   0  0  0  0  0  0  0  0  0  0  0  0
   -1.5000    0.0000    0.0000 C   0  0  0  0  0  0  0  0  0  0  0  0
   -0.7500   -1.2990    0.0000 C   0  0  0  0  0  0  0  0  0  0  0  0
   -1.5000   -2.5981    0.0000 C   0  0  0  0  0  0  0  0  0  0  0  0
    3.7500   -3.8971    0.0000 C   0  0  0  0  0  0  0  0  0  0  0  0
    3.0000   -5.1962    0.0000 C   0  0  0  0  0  0  0  0  0  0  0  0
    1.5000   -5.1962    0.0000 O   0  0  0  0  0  1  0  0  0  0  0  0
    3.7500   -6.4952    0.0000 N   0  0  0  0  0  0  0  0  0  0  0  0
    5.2500   -6.4952    0.0000 C   0  0  0  0  0  0  0  0  0  0  0  0
    6.0000   -7.7942    0.0000 S   0  0  0  0  0  0  0  0  0  0  0  0
    6.0000   -5.1962    0.0000 N   0  0  0  0  0  0  0  0  0  0  0  0
    5.2500   -3.8971    0.0000 C   0  0  0  0  0  0  0  0  0  0  0  0
    5.8423   -3.1112    0.0000 O   0  0  0  0  0  0  0  0  0  0  0  0
  1  2  1  0
  2  3  1  0
  3  4  1  0
  3  5  2  0
  5  6  1  0
  5  7  1  0
  7  8  2  0
  8  9  1  0
  9 10  2  0
 10 11  1  0
 11 12  2  0
 12 13  1  0
 13 14  2  0
 14 15  1  0
  7 16  1  0
 16 17  2  0
 17 18  1  0
 17 19  1  0
 19 20  1  0
 20 21  2  0
 20 22  1  0
 22 23  1  0
 23 24  2  0
 14  9  1  0
 23 16  1  0
M  CHG  3   4  -1  10   1  18  -1
M  END
>  <Compound_ID>  (452) 
C54502110

>  <Active>  (452) 
0.0

>  <Smiles>  (452) 
CO/C([O-])=C(F)/C(=N\c1[nH+]cccc1C)c1c([O-])[nH]c(=S)[nH]c1=O

>  <canonical_smi>  (452) 
CO/C([O-])=C(F)/C(=N\c1[nH+]cccc1C)c1c([O-])[nH]c(=S)[nH]c1=O

>  <Set>  (452) 
G2 inactive

>  <Set_type>  (452) 
Train

>  <MW>  (452) 
351.34

>  <HBD>  (452) 
2

>  <HBA>  (452) 
5

>  <NRB>  (452) 
4

>  <NR>  (452) 
2

>  <NAR>  (452) 
2

>  <PSA>  (452) 
130.5

>  <Standard Type>  (452) 
nan

>  <Standard Relation>  (452) 
nan

>  <Standard Units>  (452) 
nan

>  <Standard Value>  (452) 
nan

>  <Assay ChEMBL ID>  (452) 
nan

>  <Assay Description>  (452) 
nan

>  <BAO Label>  (452) 
nan

$$$$

     RDKit          2D

 21 22  0  0  0  0  0  0  0  0999 V2000
    3.7500    1.2990    0.0000 O   0  0  0  0  0  0  0  0  0  0  0  0
    3.0000    0.0000    0.0000 C   0  0  0  0  0  0  0  0  0  0  0  0
    3.7500   -1.2990    0.0000 O   0  0  0  0  0  1  0  0  0  0  0  0
    1.5000    0.0000    0.0000 C   0  0  0  0  0  0  0  0  0  0  0  0
    0.7500   -1.2990    0.0000 C   0  0  0  0  0  0  0  0  0  0  0  0
   -0.7500   -1.2990    0.0000 C   0  0  0  0  0  0  0  0  0  0  0  0
   -1.5000    0.0000    0.0000 C   0  0  0  0  0  0  0  0  0  0  0  0
   -0.7500    1.2990    0.0000 C   0  0  0  0  0  0  0  0  0  0  0  0
   -1.5000    2.5981    0.0000 Br  0  0  0  0  0  0  0  0  0  0  0  0
    0.7500    1.2990    0.0000 C   0  0  0  0  0  0  0  0  0  0  0  0
    1.5000    2.5981    0.0000 N   0  0  0  0  0  0  0  0  0  0  0  0
    0.7500    3.8971    0.0000 C   0  0  0  0  0  0  0  0  0  0  0  0
   -0.7500    3.8971    0.0000 O   0  0  0  0  0  0  0  0  0  0  0  0
    1.5000    5.1962    0.0000 C   0  0  0  0  0  0  0  0  0  0  0  0
    3.0000    5.1962    0.0000 C   0  0  0  0  0  0  0  0  0  0  0  0
    3.7500    6.4952    0.0000 N   0  0  0  0  0  0  0  0  0  0  0  0
    3.0000    7.7942    0.0000 C   0  0  0  0  0  0  0  0  0  0  0  0
    3.7500    9.0933    0.0000 O   0  0  0  0  0  0  0  0  0  0  0  0
    1.5000    7.7942    0.0000 N   0  0  0  0  0  0  0  0  0  0  0  0
    0.7500    6.4952    0.0000 C   0  0  0  0  0  0  0  0  0  0  0  0
   -0.7500    6.4952    0.0000 O   0  0  0  0  0  0  0  0  0  0  0  0
  1  2  2  0
  2  3  1  0
  2  4  1  0
  4  5  2  0
  5  6  1  0
  6  7  2  0
  7  8  1  0
  8  9  1  0
  8 10  2  0
 10 11  1  0
 11 12  1  0
 12 13  2  0
 12 14  1  0
 14 15  2  0
 15 16  1  0
 16 17  1  0
 17 18  2  0
 17 19  1  0
 19 20  1  0
 20 21  2  0
 10  4  1  0
 20 14  1  0
M  CHG  1   3  -1
M  END
>  <Compound_ID>  (453) 
C62826379

>  <Active>  (453) 
0.0

>  <Smiles>  (453) 
O=C([O-])c1cccc(Br)c1NC(=O)c1c[nH]c(=O)[nH]c1=O

>  <canonical_smi>  (453) 
O=C([O-])c1cccc(Br)c1NC(=O)c1c[nH]c(=O)[nH]c1=O

>  <Set>  (453) 
G2 inactive

>  <Set_type>  (453) 
Train

>  <MW>  (453) 
353.11

>  <HBD>  (453) 
3

>  <HBA>  (453) 
5

>  <NRB>  (453) 
3

>  <NR>  (453) 
2

>  <NAR>  (453) 
2

>  <PSA>  (453) 
134.95

>  <Standard Type>  (453) 
nan

>  <Standard Relation>  (453) 
nan

>  <Standard Units>  (453) 
nan

>  <Standard Value>  (453) 
nan

>  <Assay ChEMBL ID>  (453) 
nan

>  <Assay Description>  (453) 
nan

>  <BAO Label>  (453) 
nan

$$$$

     RDKit          2D

 23 24  0  0  0  0  0  0  0  0999 V2000
    8.7718   -5.5288    0.0000 C   0  0  0  0  0  0  0  0  0  0  0  0
    7.5583   -4.6471    0.0000 C   0  0  0  0  0  0  0  0  0  0  0  0
    7.5583   -3.1471    0.0000 N   0  0  0  0  0  0  0  0  0  0  0  0
    6.1317   -2.6836    0.0000 N   0  0  0  0  0  0  0  0  0  0  0  0
    5.2500   -3.8971    0.0000 C   0  0  0  0  0  0  0  0  0  0  0  0
    3.7500   -3.8971    0.0000 S   0  0  0  0  0  0  0  0  0  0  0  0
    3.0000   -2.5981    0.0000 C   0  0  0  0  0  0  0  0  0  0  0  0
    1.5000   -2.5981    0.0000 C   0  0  0  0  0  0  0  0  0  0  0  0
    0.7500   -3.8971    0.0000 O   0  0  0  0  0  1  0  0  0  0  0  0
    0.7500   -1.2990    0.0000 C   0  0  0  0  0  0  0  0  0  0  0  0
    1.5000    0.0000    0.0000 C   0  0  0  0  0  0  0  0  0  0  0  0
    3.0000    0.0000    0.0000 O   0  0  0  0  0  0  0  0  0  0  0  0
    0.7500    1.2990    0.0000 N   0  0  0  0  0  0  0  0  0  0  0  0
   -0.7500    1.2990    0.0000 C   0  0  0  0  0  0  0  0  0  0  0  0
   -1.5000    2.5981    0.0000 O   0  0  0  0  0  0  0  0  0  0  0  0
   -1.5000    0.0000    0.0000 N   0  0  0  0  0  0  0  0  0  0  0  0
   -3.0000    0.0000    0.0000 C   0  0  0  0  0  0  0  0  0  0  0  0
   -3.7500    1.2990    0.0000 C   0  0  0  0  0  0  0  0  0  0  0  0
   -5.2500    1.2990    0.0000 C   0  0  0  0  0  0  0  0  0  0  0  0
   -3.0000    2.5981    0.0000 C   0  0  0  0  0  0  0  0  0  0  0  0
   -0.7500   -1.2990    0.0000 C   0  0  0  0  0  0  0  0  0  0  0  0
   -1.5000   -2.5981    0.0000 N   0  0  0  0  0  0  0  0  0  0  0  0
    6.1317   -5.1106    0.0000 N   0  0  0  0  0  0  0  0  0  0  0  0
  1  2  1  0
  2  3  2  0
  3  4  1  0
  4  5  1  0
  5  6  1  0
  6  7  1  0
  7  8  1  0
  8  9  1  0
  8 10  2  0
 10 11  1  0
 11 12  2  0
 11 13  1  0
 13 14  1  0
 14 15  2  0
 14 16  1  0
 16 17  1  0
 17 18  1  0
 18 19  1  0
 18 20  1  0
 16 21  1  0
 21 22  1  1
  5 23  2  0
 23  2  1  0
 21 10  1  0
M  CHG  1   9  -1
M  END
>  <Compound_ID>  (454) 
C63908595

>  <Active>  (454) 
0.0

>  <Smiles>  (454) 
Cc1n[nH]c(SC/C([O-])=C2\C(=O)NC(=O)N(CC(C)C)[C@@H]2N)n1

>  <canonical_smi>  (454) 
Cc1n[nH]c(SC/C([O-])=C2\C(=O)NC(=O)N(CC(C)C)[C@@H]2N)n1

>  <Set>  (454) 
G2 inactive

>  <Set_type>  (454) 
Train

>  <MW>  (454) 
339.4

>  <HBD>  (454) 
3

>  <HBA>  (454) 
7

>  <NRB>  (454) 
5

>  <NR>  (454) 
2

>  <NAR>  (454) 
1

>  <PSA>  (454) 
140.06

>  <Standard Type>  (454) 
nan

>  <Standard Relation>  (454) 
nan

>  <Standard Units>  (454) 
nan

>  <Standard Value>  (454) 
nan

>  <Assay ChEMBL ID>  (454) 
nan

>  <Assay Description>  (454) 
nan

>  <BAO Label>  (454) 
nan

$$$$

     RDKit          2D

 25 28  0  0  0  0  0  0  0  0999 V2000
    3.0000    0.0000    0.0000 O   0  0  0  0  0  0  0  0  0  0  0  0
    1.5000    0.0000    0.0000 C   0  0  0  0  0  0  0  0  0  0  0  0
    0.7500   -1.2990    0.0000 C   0  0  0  0  0  0  0  0  0  0  0  0
   -0.7500   -1.2990    0.0000 C   0  0  0  0  0  0  0  0  0  0  0  0
   -1.5000   -2.5981    0.0000 C   0  0  0  0  0  0  0  0  0  0  0  0
   -2.9918   -2.7549    0.0000 C   0  0  0  0  0  0  0  0  0  0  0  0
   -3.3037   -4.2221    0.0000 N   0  0  0  0  0  0  0  0  0  0  0  0
   -2.0046   -4.9721    0.0000 N   0  0  0  0  0  0  0  0  0  0  0  0
   -0.8899   -3.9684    0.0000 C   0  0  0  0  0  0  0  0  0  0  0  0
    0.5773   -4.2803    0.0000 C   0  0  0  0  0  0  0  0  0  0  0  0
    1.5810   -3.1655    0.0000 O   0  0  0  0  0  0  0  0  0  0  0  0
    1.0409   -5.7068    0.0000 O   0  0  0  0  0  1  0  0  0  0  0  0
   -1.5000    0.0000    0.0000 C   0  0  0  0  0  0  0  0  0  0  0  0
   -2.9672    0.3119    0.0000 C   0  0  0  0  0  0  0  0  0  0  0  0
   -4.0819   -0.6918    0.0000 O   0  0  0  0  0  1  0  0  0  0  0  0
   -3.1240    1.8037    0.0000 N   0  0  0  0  0  0  0  0  0  0  0  0
   -1.7537    2.4138    0.0000 N   0  0  0  0  0  4  0  0  0  0  0  0
   -1.4418    3.8810    0.0000 C   0  0  0  0  0  0  0  0  0  0  0  0
   -0.0152    4.3445    0.0000 C   0  0  0  0  0  0  0  0  0  0  0  0
    0.2966    5.8117    0.0000 C   0  0  0  0  0  0  0  0  0  0  0  0
   -0.8181    6.8154    0.0000 C   0  0  0  0  0  0  0  0  0  0  0  0
   -2.2447    6.3519    0.0000 C   0  0  0  0  0  0  0  0  0  0  0  0
   -2.5565    4.8847    0.0000 C   0  0  0  0  0  0  0  0  0  0  0  0
   -0.7500    1.2990    0.0000 C   0  0  0  0  0  0  0  0  0  0  0  0
    0.7500    1.2990    0.0000 N   0  0  0  0  0  0  0  0  0  0  0  0
  1  2  2  0
  2  3  1  0
  4  3  1  1
  4  5  1  0
  5  6  1  1
  6  7  2  0
  7  8  1  0
  8  9  2  0
  9 10  1  0
 10 11  2  0
 10 12  1  0
  4 13  1  0
 13 14  2  0
 14 15  1  0
 14 16  1  0
 16 17  1  0
 17 18  1  0
 18 19  1  0
 19 20  1  0
 20 21  1  0
 21 22  1  0
 22 23  1  0
 17 24  1  0
 24 25  1  6
 25  2  1  0
  9  5  1  0
 24 13  1  0
 23 18  1  0
M  CHG  3  12  -1  15  -1  17   1
M  END
>  <Compound_ID>  (455) 
C65381877

>  <Active>  (455) 
0.0

>  <Smiles>  (455) 
O=C1C[C@@H]([C@@H]2C=NN=C2C(=O)[O-])C2=C([O-])N[NH+](C3CCCCC3)[C@@H]2N1

>  <canonical_smi>  (455) 
O=C1C[C@@H]([C@@H]2C=NN=C2C(=O)[O-])C2=C([O-])N[NH+](C3CCCCC3)[C@@H]2N1

>  <Set>  (455) 
G2 inactive

>  <Set_type>  (455) 
Train

>  <MW>  (455) 
346.37

>  <HBD>  (455) 
3

>  <HBA>  (455) 
5

>  <NRB>  (455) 
3

>  <NR>  (455) 
4

>  <NAR>  (455) 
0

>  <PSA>  (455) 
133.48

>  <Standard Type>  (455) 
nan

>  <Standard Relation>  (455) 
nan

>  <Standard Units>  (455) 
nan

>  <Standard Value>  (455) 
nan

>  <Assay ChEMBL ID>  (455) 
nan

>  <Assay Description>  (455) 
nan

>  <BAO Label>  (455) 
nan

$$$$

     RDKit          2D

 26 28  0  0  0  0  0  0  0  0999 V2000
    3.0000    0.0000    0.0000 C   0  0  0  0  0  0  0  0  0  0  0  0
    1.5000    0.0000    0.0000 C   0  0  0  0  0  0  0  0  0  0  0  0
    0.7500   -1.2990    0.0000 C   0  0  0  0  0  0  0  0  0  0  0  0
   -0.7500   -1.2990    0.0000 C   0  0  0  0  0  0  0  0  0  0  0  0
   -1.5000   -2.5981    0.0000 S   0  0  0  0  0  0  0  0  0  0  0  0
   -2.2500   -3.8971    0.0000 C   0  0  0  0  0  0  0  0  0  0  0  0
   -0.2010   -3.3481    0.0000 O   0  0  0  0  0  0  0  0  0  0  0  0
   -2.7990   -1.8481    0.0000 O   0  0  0  0  0  0  0  0  0  0  0  0
   -1.5000    0.0000    0.0000 C   0  0  0  0  0  0  0  0  0  0  0  0
   -0.7500    1.2990    0.0000 C   0  0  0  0  0  0  0  0  0  0  0  0
    0.7500    1.2990    0.0000 C   0  0  0  0  0  0  0  0  0  0  0  0
    1.5000    2.5981    0.0000 N   0  0  0  0  0  0  0  0  0  0  0  0
    0.7500    3.8971    0.0000 N   0  0  0  0  0  0  0  0  0  0  0  0
   -0.7500    3.8971    0.0000 C   0  0  0  0  0  0  0  0  0  0  0  0
   -1.5000    5.1962    0.0000 C   0  0  0  0  0  0  0  0  0  0  0  0
   -0.7500    6.4952    0.0000 N   0  0  0  0  0  0  0  0  0  0  0  0
   -3.0000    5.1962    0.0000 O   0  0  0  0  0  0  0  0  0  0  0  0
   -1.5000    2.5981    0.0000 C   0  0  0  0  0  0  0  0  0  0  0  0
   -3.0000    2.5981    0.0000 N   0  0  0  0  0  0  0  0  0  0  0  0
   -3.7500    1.2990    0.0000 C   0  0  0  0  0  0  0  0  0  0  0  0
   -3.0000   -0.0000    0.0000 C   0  0  0  0  0  0  0  0  0  0  0  0
   -3.7500   -1.2990    0.0000 N   0  0  0  0  0  0  0  0  0  0  0  0
   -5.2500   -1.2990    0.0000 C   0  0  0  0  0  0  0  0  0  0  0  0
   -6.0000   -0.0000    0.0000 C   0  0  0  0  0  0  0  0  0  0  0  0
   -7.5000   -0.0000    0.0000 F   0  0  0  0  0  0  0  0  0  0  0  0
   -5.2500    1.2990    0.0000 C   0  0  0  0  0  0  0  0  0  0  0  0
  1  2  1  0
  2  3  2  0
  3  4  1  0
  4  5  1  0
  5  6  1  0
  5  7  2  0
  5  8  2  0
  4  9  2  0
  9 10  1  0
 10 11  2  0
 11 12  1  0
 12 13  1  0
 13 14  1  0
 14 15  1  0
 15 16  1  0
 15 17  2  0
 14 18  2  0
 18 19  1  0
 19 20  1  0
 20 21  2  0
 21 22  1  0
 22 23  2  0
 23 24  1  0
 24 25  1  0
 24 26  2  0
 11  2  1  0
 26 20  1  0
 18 10  1  0
M  END
>  <Compound_ID>  (456) 
C45349245

>  <Active>  (456) 
0.0

>  <Smiles>  (456) 
Cc1cc(S(C)(=O)=O)cc2c1NNC(C(N)=O)=C2Nc1cncc(F)c1

>  <canonical_smi>  (456) 
Cc1cc(S(C)(=O)=O)cc2c1NNC(C(N)=O)=C2Nc1cncc(F)c1

>  <Set>  (456) 
G2 inactive

>  <Set_type>  (456) 
Train

>  <MW>  (456) 
377.4

>  <HBD>  (456) 
4

>  <HBA>  (456) 
7

>  <NRB>  (456) 
4

>  <NR>  (456) 
3

>  <NAR>  (456) 
2

>  <PSA>  (456) 
126.21

>  <Standard Type>  (456) 
nan

>  <Standard Relation>  (456) 
nan

>  <Standard Units>  (456) 
nan

>  <Standard Value>  (456) 
nan

>  <Assay ChEMBL ID>  (456) 
nan

>  <Assay Description>  (456) 
nan

>  <BAO Label>  (456) 
nan

$$$$

     RDKit          2D

 31 33  0  0  0  0  0  0  0  0999 V2000
    3.0000  -18.1865    0.0000 O   0  0  0  0  0  0  0  0  0  0  0  0
    1.5000  -18.1865    0.0000 C   0  0  0  0  0  0  0  0  0  0  0  0
    0.7500  -19.4856    0.0000 O   0  0  0  0  0  1  0  0  0  0  0  0
    0.7500  -16.8875    0.0000 C   0  0  0  0  0  0  0  0  0  0  0  0
    1.5000  -15.5885    0.0000 C   0  0  0  0  0  0  0  0  0  0  0  0
    0.7500  -14.2894    0.0000 N   0  0  0  0  0  0  0  0  0  0  0  0
    1.5000  -12.9904    0.0000 C   0  0  0  0  0  0  0  0  0  0  0  0
    3.0000  -12.9904    0.0000 O   0  0  0  0  0  0  0  0  0  0  0  0
    0.7500  -11.6913    0.0000 C   0  0  0  0  0  0  0  0  0  0  0  0
    1.5000  -10.3923    0.0000 N   0  0  0  0  0  0  0  0  0  0  0  0
    0.7500   -9.0933    0.0000 C   0  0  0  0  0  0  0  0  0  0  0  0
   -0.7500   -9.0933    0.0000 O   0  0  0  0  0  0  0  0  0  0  0  0
    1.5000   -7.7942    0.0000 C   0  0  0  0  0  0  0  0  0  0  0  0
    0.7500   -6.4952    0.0000 C   0  0  0  0  0  0  0  0  0  0  0  0
    1.5000   -5.1962    0.0000 C   0  0  0  0  0  0  0  0  0  0  0  0
    0.7500   -3.8971    0.0000 C   0  0  0  0  0  0  0  0  0  0  0  0
   -0.7500   -3.8971    0.0000 C   0  0  0  0  0  0  0  0  0  0  0  0
   -1.5000   -2.5981    0.0000 C   0  0  0  0  0  0  0  0  0  0  0  0
   -0.7500   -1.2990    0.0000 C   0  0  0  0  0  0  0  0  0  0  0  0
    0.7500   -1.2990    0.0000 C   0  0  0  0  0  0  0  0  0  0  0  0
    1.5000   -2.5981    0.0000 N   0  0  0  0  0  4  0  0  0  0  0  0
    1.5000    0.0000    0.0000 N   0  0  0  0  0  0  0  0  0  0  0  0
    0.7500    1.2990    0.0000 C   0  0  0  0  0  0  0  0  0  0  0  0
   -0.7500    1.2990    0.0000 C   0  0  0  0  0  0  0  0  0  0  0  0
   -1.5000    0.0000    0.0000 C   0  0  0  0  0  0  0  0  0  0  0  0
    3.0000  -15.5885    0.0000 C   0  0  0  0  0  0  0  0  0  0  0  0
    3.7500  -16.8875    0.0000 C   0  0  0  0  0  0  0  0  0  0  0  0
    5.2500  -16.8875    0.0000 C   0  0  0  0  0  0  0  0  0  0  0  0
    6.0000  -15.5885    0.0000 C   0  0  0  0  0  0  0  0  0  0  0  0
    5.2500  -14.2894    0.0000 N   0  0  0  0  0  0  0  0  0  0  0  0
    3.7500  -14.2894    0.0000 C   0  0  0  0  0  0  0  0  0  0  0  0
  1  2  2  0
  2  3  1  0
  2  4  1  0
  5  4  1  6
  5  6  1  0
  6  7  1  0
  7  8  2  0
  7  9  1  0
  9 10  1  0
 10 11  1  0
 11 12  2  0
 11 13  1  0
 13 14  1  0
 14 15  1  0
 15 16  1  0
 16 17  2  0
 17 18  1  0
 18 19  2  0
 19 20  1  0
 20 21  2  0
 20 22  1  0
 22 23  1  0
 23 24  1  0
 24 25  1  0
  5 26  1  0
 26 27  2  0
 27 28  1  0
 28 29  2  0
 29 30  1  0
 30 31  2  0
 21 16  1  0
 31 26  1  0
 25 19  1  0
M  CHG  2   3  -1  21   1
M  END
>  <Compound_ID>  (457) 
C13436045

>  <Active>  (457) 
0.0

>  <Smiles>  (457) 
O=C([O-])C[C@H](NC(=O)CNC(=O)CCCc1ccc2c([nH+]1)NCCC2)c1cccnc1

>  <canonical_smi>  (457) 
O=C([O-])C[C@H](NC(=O)CNC(=O)CCCc1ccc2c([nH+]1)NCCC2)c1cccnc1

>  <Set>  (457) 
G2 inactive

>  <Set_type>  (457) 
Train

>  <MW>  (457) 
425.49

>  <HBD>  (457) 
3

>  <HBA>  (457) 
6

>  <NRB>  (457) 
10

>  <NR>  (457) 
3

>  <NAR>  (457) 
2

>  <PSA>  (457) 
137.39

>  <Standard Type>  (457) 
nan

>  <Standard Relation>  (457) 
nan

>  <Standard Units>  (457) 
nan

>  <Standard Value>  (457) 
nan

>  <Assay ChEMBL ID>  (457) 
nan

>  <Assay Description>  (457) 
nan

>  <BAO Label>  (457) 
nan

$$$$

     RDKit          2D

 25 26  0  0  0  0  0  0  0  0999 V2000
    1.9509   -5.5501    0.0000 H   0  0  0  0  0  0  0  0  0  0  0  0
    3.4182   -5.2382    0.0000 N   0  0  0  0  0  0  0  0  0  0  0  0
    3.8817   -3.8116    0.0000 C   0  0  0  0  0  0  0  0  0  0  0  0
    5.3083   -3.3481    0.0000 C   0  0  0  0  0  0  0  0  0  0  0  0
    6.5218   -4.2298    0.0000 C   0  0  0  0  0  0  0  0  0  0  0  0
    7.8921   -3.6196    0.0000 Cl  0  0  0  0  0  0  0  0  0  0  0  0
    5.3083   -1.8481    0.0000 S   0  0  0  0  0  0  0  0  0  0  0  0
    3.8817   -1.3846    0.0000 C   0  0  0  0  0  0  0  0  0  0  0  0
    3.4182    0.0420    0.0000 S   0  0  0  0  0  0  0  0  0  0  0  0
    3.0000   -2.5981    0.0000 N   0  0  0  0  0  0  0  0  0  0  0  0
    1.5000   -2.5981    0.0000 N   0  0  0  0  0  0  0  0  0  0  0  0
    0.7500   -1.2990    0.0000 C   0  0  0  0  0  0  0  0  0  0  0  0
    1.5000    0.0000    0.0000 N   0  0  0  0  0  0  0  0  0  0  0  0
    0.7500    1.2990    0.0000 C   0  0  0  0  0  0  0  0  0  0  0  0
    1.5000    2.5981    0.0000 C   0  0  0  0  0  0  0  0  0  0  0  0
   -0.7500    1.2990    0.0000 N   0  0  0  0  0  0  0  0  0  0  0  0
   -1.5000    0.0000    0.0000 C   0  0  0  0  0  0  0  0  0  0  0  0
   -3.0000    0.0000    0.0000 N   0  0  0  0  0  0  0  0  0  0  0  0
   -3.7500    1.2990    0.0000 C   0  0  0  0  0  0  0  0  0  0  0  0
   -3.0000    2.5981    0.0000 O   0  0  0  0  0  0  0  0  0  0  0  0
   -5.2500    1.2990    0.0000 C   0  0  0  0  0  0  0  0  0  0  0  0
   -6.7500    1.2990    0.0000 Cl  0  0  0  0  0  0  0  0  0  0  0  0
   -5.2500    2.7990    0.0000 Cl  0  0  0  0  0  0  0  0  0  0  0  0
   -5.2500   -0.2010    0.0000 Cl  0  0  0  0  0  0  0  0  0  0  0  0
   -0.7500   -1.2990    0.0000 N   0  0  0  0  0  0  0  0  0  0  0  0
  1  2  1  0
  2  3  2  0
  3  4  1  0
  4  5  1  6
  5  6  1  0
  4  7  1  0
  7  8  1  0
  8  9  2  0
  8 10  1  0
 10 11  1  0
 11 12  1  0
 12 13  2  0
 13 14  1  0
 14 15  1  0
 14 16  2  0
 16 17  1  0
 17 18  1  0
 18 19  1  0
 19 20  1  1
 19 21  1  0
 21 22  1  0
 21 23  1  0
 21 24  1  0
 17 25  2  0
 10  3  1  0
 25 12  1  0
M  END
>  <Compound_ID>  (458) 
C26949972

>  <Active>  (458) 
0.0

>  <Smiles>  (458) 
[H]/N=C1/[C@@H](CCl)SC(=S)N1Nc1nc(C)nc(N[C@H](O)C(Cl)(Cl)Cl)n1

>  <canonical_smi>  (458) 
[H]/N=C1/[C@@H](CCl)SC(=S)N1Nc1nc(C)nc(N[C@H](O)C(Cl)(Cl)Cl)n1

>  <Set>  (458) 
G2 inactive

>  <Set_type>  (458) 
Train

>  <MW>  (458) 
451.19

>  <HBD>  (458) 
4

>  <HBA>  (458) 
9

>  <NRB>  (458) 
5

>  <NR>  (458) 
2

>  <NAR>  (458) 
1

>  <PSA>  (458) 
110.05

>  <Standard Type>  (458) 
nan

>  <Standard Relation>  (458) 
nan

>  <Standard Units>  (458) 
nan

>  <Standard Value>  (458) 
nan

>  <Assay ChEMBL ID>  (458) 
nan

>  <Assay Description>  (458) 
nan

>  <BAO Label>  (458) 
nan

$$$$

     RDKit          2D

 14 15  0  0  0  0  0  0  0  0999 V2000
    2.7760    0.0000    0.0000 N   0  0  0  0  0  0  0  0  0  0  0  0
    1.2760    0.0000    0.0000 C   0  0  0  0  0  0  0  0  0  0  0  0
    0.3943    1.2135    0.0000 N   0  0  0  0  0  0  0  0  0  0  0  0
   -1.0323    0.7500    0.0000 N   0  0  0  0  0  0  0  0  0  0  0  0
   -1.0323   -0.7500    0.0000 C   0  0  0  0  0  0  0  0  0  0  0  0
   -2.2458   -1.6317    0.0000 N   0  0  0  0  0  0  0  0  0  0  0  0
   -3.6161   -1.0216    0.0000 N   0  0  0  0  0  0  0  0  0  0  0  0
   -4.9152   -1.7716    0.0000 C   0  0  0  0  0  0  0  0  0  0  0  0
   -5.0720   -3.2634    0.0000 O   0  0  0  0  0  0  0  0  0  0  0  0
   -6.0299   -0.7679    0.0000 C   0  0  0  0  0  0  0  0  0  0  0  0
   -5.4198    0.6024    0.0000 S   0  0  0  0  0  0  0  0  0  0  0  0
   -3.9280    0.4456    0.0000 C   0  0  0  0  0  0  0  0  0  0  0  0
   -2.9243    1.5604    0.0000 S   0  0  0  0  0  0  0  0  0  0  0  0
    0.3943   -1.2135    0.0000 S   0  0  0  0  0  0  0  0  0  0  0  0
  1  2  1  0
  2  3  2  0
  3  4  1  0
  4  5  2  0
  5  6  1  0
  6  7  1  0
  7  8  1  0
  8  9  2  0
  8 10  1  0
 10 11  1  0
 11 12  1  0
 12 13  2  0
  5 14  1  0
 14  2  1  0
 12  7  1  0
M  END
>  <Compound_ID>  (459) 
C28629018

>  <Active>  (459) 
0.0

>  <Smiles>  (459) 
Nc1nnc(NN2C(=O)CSC2=S)s1

>  <canonical_smi>  (459) 
Nc1nnc(NN2C(=O)CSC2=S)s1

>  <Set>  (459) 
G2 inactive

>  <Set_type>  (459) 
Train

>  <MW>  (459) 
247.33

>  <HBD>  (459) 
2

>  <HBA>  (459) 
7

>  <NRB>  (459) 
2

>  <NR>  (459) 
2

>  <NAR>  (459) 
1

>  <PSA>  (459) 
84.14

>  <Standard Type>  (459) 
nan

>  <Standard Relation>  (459) 
nan

>  <Standard Units>  (459) 
nan

>  <Standard Value>  (459) 
nan

>  <Assay ChEMBL ID>  (459) 
nan

>  <Assay Description>  (459) 
nan

>  <BAO Label>  (459) 
nan

$$$$

     RDKit          2D

 29 32  0  0  0  0  0  0  0  0999 V2000
   -5.2725  -12.6808    0.0000 C   0  0  0  0  0  0  0  0  0  0  0  0
   -4.6624  -11.3105    0.0000 C   0  0  0  0  0  0  0  0  0  0  0  0
   -5.5441  -10.0970    0.0000 C   0  0  0  0  0  0  0  0  0  0  0  0
   -4.9340   -8.7267    0.0000 C   0  0  0  0  0  0  0  0  0  0  0  0
   -3.4422   -8.5699    0.0000 C   0  0  0  0  0  0  0  0  0  0  0  0
   -2.8321   -7.1996    0.0000 S   0  0  0  0  0  0  0  0  0  0  0  0
   -4.2024   -6.5895    0.0000 O   0  0  0  0  0  0  0  0  0  0  0  0
   -1.4617   -7.8097    0.0000 O   0  0  0  0  0  0  0  0  0  0  0  0
   -2.2220   -5.8293    0.0000 O   0  0  0  0  0  0  0  0  0  0  0  0
   -3.1036   -4.6157    0.0000 C   0  0  0  0  0  0  0  0  0  0  0  0
   -4.6036   -4.6157    0.0000 C   0  0  0  0  0  0  0  0  0  0  0  0
   -5.4853   -5.8293    0.0000 O   0  0  0  0  0  0  0  0  0  0  0  0
   -5.0672   -3.1891    0.0000 C   0  0  0  0  0  0  0  0  0  0  0  0
   -6.4937   -2.7256    0.0000 C   0  0  0  0  0  0  0  0  0  0  0  0
   -6.8056   -1.2584    0.0000 O   0  0  0  0  0  0  0  0  0  0  0  0
   -3.8536   -2.3075    0.0000 O   0  0  0  0  0  0  0  0  0  0  0  0
   -2.6401   -3.1891    0.0000 C   0  0  0  0  0  0  0  0  0  0  0  0
   -1.2135   -2.7256    0.0000 N   0  0  0  0  0  0  0  0  0  0  0  0
   -0.0000   -3.6073    0.0000 C   0  0  0  0  0  0  0  0  0  0  0  0
    1.2135   -2.7256    0.0000 N   0  0  0  0  0  0  0  0  0  0  0  0
    0.7500   -1.2990    0.0000 C   0  0  0  0  0  0  0  0  0  0  0  0
    1.5000    0.0000    0.0000 C   0  0  0  0  0  0  0  0  0  0  0  0
    3.0000    0.0000    0.0000 N   0  0  0  0  0  0  0  0  0  0  0  0
    0.7500    1.2990    0.0000 N   0  0  0  0  0  0  0  0  0  0  0  0
   -0.7500    1.2990    0.0000 C   0  0  0  0  0  0  0  0  0  0  0  0
   -1.5000    0.0000    0.0000 N   0  0  0  0  0  0  0  0  0  0  0  0
   -0.7500   -1.2990    0.0000 C   0  0  0  0  0  0  0  0  0  0  0  0
   -2.5605   -9.7834    0.0000 C   0  0  0  0  0  0  0  0  0  0  0  0
   -3.1706  -11.1537    0.0000 C   0  0  0  0  0  0  0  0  0  0  0  0
  1  2  1  0
  2  3  2  0
  3  4  1  0
  4  5  2  0
  5  6  1  0
  6  7  2  0
  6  8  2  0
  6  9  1  0
 10  9  1  1
 10 11  1  0
 11 12  1  1
 11 13  1  0
 13 14  1  6
 14 15  1  0
 13 16  1  0
 16 17  1  0
 17 18  1  6
 18 19  1  0
 19 20  2  0
 20 21  1  0
 21 22  2  0
 22 23  1  0
 22 24  1  0
 24 25  2  0
 25 26  1  0
 26 27  2  0
  5 28  1  0
 28 29  2  0
 29  2  1  0
 17 10  1  0
 27 18  1  0
 27 21  1  0
M  END
>  <Compound_ID>  (460) 
C35395411

>  <Active>  (460) 
0.0

>  <Smiles>  (460) 
Cc1ccc(S(=O)(=O)O[C@H]2[C@@H](O)[C@H](CO)O[C@@H]2n2cnc3c(N)ncnc32)cc1

>  <canonical_smi>  (460) 
Cc1ccc(S(=O)(=O)O[C@H]2[C@@H](O)[C@H](CO)O[C@@H]2n2cnc3c(N)ncnc32)cc1

>  <Set>  (460) 
G2 inactive

>  <Set_type>  (460) 
Train

>  <MW>  (460) 
421.44

>  <HBD>  (460) 
3

>  <HBA>  (460) 
10

>  <NRB>  (460) 
5

>  <NR>  (460) 
4

>  <NAR>  (460) 
3

>  <PSA>  (460) 
162.68

>  <Standard Type>  (460) 
nan

>  <Standard Relation>  (460) 
nan

>  <Standard Units>  (460) 
nan

>  <Standard Value>  (460) 
nan

>  <Assay ChEMBL ID>  (460) 
nan

>  <Assay Description>  (460) 
nan

>  <BAO Label>  (460) 
nan

$$$$

     RDKit          2D

 26 28  0  0  0  0  0  0  0  0999 V2000
    7.5000   -5.1962    0.0000 C   0  0  0  0  0  0  0  0  0  0  0  0
    6.0000   -5.1962    0.0000 C   0  0  0  0  0  0  0  0  0  0  0  0
    5.2500   -3.8971    0.0000 C   0  0  0  0  0  0  0  0  0  0  0  0
    3.7500   -3.8971    0.0000 N   0  0  0  0  0  0  0  0  0  0  0  0
    3.0000   -5.1962    0.0000 C   0  0  0  0  0  0  0  0  0  0  0  0
    3.7500   -6.4952    0.0000 O   0  0  0  0  0  0  0  0  0  0  0  0
    1.5000   -5.1962    0.0000 N   0  0  0  0  0  0  0  0  0  0  0  0
    0.7500   -3.8971    0.0000 C   0  0  0  0  0  0  0  0  0  0  0  0
   -0.7500   -3.8971    0.0000 O   0  0  0  0  0  0  0  0  0  0  0  0
    1.5000   -2.5981    0.0000 C   0  0  0  0  0  0  0  0  0  0  0  0
    0.7500   -1.2990    0.0000 C   0  0  0  0  0  0  0  0  0  0  0  0
    1.5000    0.0000    0.0000 N   0  0  0  0  0  4  0  0  0  0  0  0
    0.7500    1.2990    0.0000 C   0  0  0  0  0  0  0  0  0  0  0  0
   -0.7500    1.2990    0.0000 C   0  0  0  0  0  0  0  0  0  0  0  0
   -1.5000    0.0000    0.0000 C   0  0  0  0  0  0  0  0  0  0  0  0
   -3.0000    0.0000    0.0000 C   0  0  0  0  0  0  0  0  0  0  0  0
   -3.7500   -1.2990    0.0000 C   0  0  0  0  0  0  0  0  0  0  0  0
   -5.2500   -1.2990    0.0000 O   0  0  0  0  0  0  0  0  0  0  0  0
   -6.0000    0.0000    0.0000 C   0  0  0  0  0  0  0  0  0  0  0  0
   -3.0000   -2.5981    0.0000 C   0  0  0  0  0  0  0  0  0  0  0  0
   -3.7500   -3.8971    0.0000 O   0  0  0  0  0  0  0  0  0  0  0  0
   -3.0000   -5.1962    0.0000 C   0  0  0  0  0  0  0  0  0  0  0  0
   -1.5000   -2.5981    0.0000 C   0  0  0  0  0  0  0  0  0  0  0  0
   -0.7500   -1.2990    0.0000 C   0  0  0  0  0  0  0  0  0  0  0  0
    3.0000   -2.5981    0.0000 C   0  0  0  0  0  0  0  0  0  0  0  0
    3.7500   -1.2990    0.0000 O   0  0  0  0  0  0  0  0  0  0  0  0
  1  2  2  0
  2  3  1  0
  3  4  1  0
  4  5  1  0
  5  6  1  0
  5  7  2  0
  7  8  1  0
  8  9  1  0
  8 10  2  0
 11 10  1  6
 11 12  1  0
 12 13  1  0
 13 14  1  0
 14 15  1  0
 15 16  2  0
 16 17  1  0
 17 18  1  0
 18 19  1  0
 17 20  2  0
 20 21  1  0
 21 22  1  0
 20 23  1  0
 23 24  2  0
 10 25  1  0
 25 26  2  0
 25  4  1  0
 24 11  1  0
 24 15  1  0
M  CHG  1  12   1
M  END
>  <Compound_ID>  (461) 
C08770428

>  <Active>  (461) 
0.0

>  <Smiles>  (461) 
C=CCn1c(O)nc(O)c([C@H]2[NH2+]CCc3cc(OC)c(OC)cc32)c1=O

>  <canonical_smi>  (461) 
C=CCn1c(O)nc(O)c([C@H]2[NH2+]CCc3cc(OC)c(OC)cc32)c1=O

>  <Set>  (461) 
G2 inactive

>  <Set_type>  (461) 
Train

>  <MW>  (461) 
360.39

>  <HBD>  (461) 
3

>  <HBA>  (461) 
6

>  <NRB>  (461) 
5

>  <NR>  (461) 
3

>  <NAR>  (461) 
2

>  <PSA>  (461) 
110.42

>  <Standard Type>  (461) 
nan

>  <Standard Relation>  (461) 
nan

>  <Standard Units>  (461) 
nan

>  <Standard Value>  (461) 
nan

>  <Assay ChEMBL ID>  (461) 
nan

>  <Assay Description>  (461) 
nan

>  <BAO Label>  (461) 
nan

$$$$

     RDKit          2D

 18 20  0  0  0  0  0  0  0  0999 V2000
   -2.9499    4.2246    0.0000 N   0  0  0  0  0  0  0  0  0  0  0  0
   -1.8351    3.2209    0.0000 C   0  0  0  0  0  0  0  0  0  0  0  0
   -0.4086    3.6844    0.0000 N   0  0  0  0  0  0  0  0  0  0  0  0
    0.7062    2.6807    0.0000 C   0  0  0  0  0  0  0  0  0  0  0  0
    2.1328    3.1443    0.0000 N   0  0  0  0  0  0  0  0  0  0  0  0
    2.4446    4.6115    0.0000 C   0  0  0  0  0  0  0  0  0  0  0  0
    3.8712    5.0750    0.0000 C   0  0  0  0  0  0  0  0  0  0  0  0
    4.1831    6.5422    0.0000 C   0  0  0  0  0  0  0  0  0  0  0  0
    3.1794    7.6570    0.0000 C   0  0  0  0  0  0  0  0  0  0  0  0
    3.9294    8.9560    0.0000 C   0  0  0  0  0  0  0  0  0  0  0  0
    5.3966    8.6441    0.0000 C   0  0  0  0  0  0  0  0  0  0  0  0
    5.5534    7.1523    0.0000 S   0  0  0  0  0  0  0  0  0  0  0  0
    0.3943    1.2135    0.0000 C   0  0  0  0  0  0  0  0  0  0  0  0
    1.2760    0.0000    0.0000 N   0  0  0  0  0  0  0  0  0  0  0  0
    0.3943   -1.2135    0.0000 C   0  0  0  0  0  0  0  0  0  0  0  0
   -1.0323   -0.7500    0.0000 N   0  0  0  0  0  0  0  0  0  0  0  0
   -1.0323    0.7500    0.0000 C   0  0  0  0  0  0  0  0  0  0  0  0
   -2.1470    1.7537    0.0000 N   0  0  0  0  0  0  0  0  0  0  0  0
  1  2  1  0
  2  3  2  0
  3  4  1  0
  4  5  2  0
  5  6  1  0
  6  7  1  0
  7  8  1  0
  8  9  2  0
  9 10  1  0
 10 11  2  0
 11 12  1  0
  4 13  1  0
 13 14  2  0
 14 15  1  0
 15 16  2  0
 16 17  1  0
 17 18  1  1
 18  2  1  0
 12  8  1  0
 17 13  1  0
M  END
>  <Compound_ID>  (462) 
C38577356

>  <Active>  (462) 
0.0

>  <Smiles>  (462) 
NC1=N/C(=N\CCc2cccs2)C2=NC=N[C@H]2N1

>  <canonical_smi>  (462) 
NC1=N/C(=N\CCc2cccs2)C2=NC=N[C@H]2N1

>  <Set>  (462) 
G2 inactive

>  <Set_type>  (462) 
Train

>  <MW>  (462) 
260.33

>  <HBD>  (462) 
2

>  <HBA>  (462) 
2

>  <NRB>  (462) 
3

>  <NR>  (462) 
3

>  <NAR>  (462) 
1

>  <PSA>  (462) 
87.49

>  <Standard Type>  (462) 
nan

>  <Standard Relation>  (462) 
nan

>  <Standard Units>  (462) 
nan

>  <Standard Value>  (462) 
nan

>  <Assay ChEMBL ID>  (462) 
nan

>  <Assay Description>  (462) 
nan

>  <BAO Label>  (462) 
nan

$$$$

     RDKit          2D

 20 21  0  0  0  0  0  0  0  0999 V2000
    3.0000    0.0000    0.0000 C   0  0  0  0  0  0  0  0  0  0  0  0
    1.5000    0.0000    0.0000 C   0  0  0  0  0  0  0  0  0  0  0  0
    0.7500   -1.2990    0.0000 N   0  0  0  0  0  0  0  0  0  0  0  0
   -0.7500   -1.2990    0.0000 C   0  0  0  0  0  0  0  0  0  0  0  0
   -1.5000    0.0000    0.0000 C   0  0  0  0  0  0  0  0  0  0  0  0
   -3.0000    0.0000    0.0000 C   0  0  0  0  0  0  0  0  0  0  0  0
   -4.5000    0.0000    0.0000 N   0  0  0  0  0  0  0  0  0  0  0  0
   -0.7500    1.2990    0.0000 C   0  0  0  0  0  0  0  0  0  0  0  0
   -1.5000    2.5981    0.0000 C   0  0  0  0  0  0  0  0  0  0  0  0
    0.7500    1.2990    0.0000 C   0  0  0  0  0  0  0  0  0  0  0  0
    1.5000    2.5981    0.0000 N   0  0  0  0  0  0  0  0  0  0  0  0
    3.0000    2.5981    0.0000 C   0  0  0  0  0  0  0  0  0  0  0  0
    3.7500    1.2990    0.0000 O   0  0  0  0  0  1  0  0  0  0  0  0
    3.7500    3.8971    0.0000 C   0  0  0  0  0  0  0  0  0  0  0  0
    5.2500    3.8971    0.0000 C   0  0  0  0  0  0  0  0  0  0  0  0
    6.0000    5.1962    0.0000 C   0  0  0  0  0  0  0  0  0  0  0  0
    7.5000    5.1962    0.0000 N   0  0  0  0  0  0  0  0  0  0  0  0
    5.2500    6.4952    0.0000 C   0  0  0  0  0  0  0  0  0  0  0  0
    3.7500    6.4952    0.0000 C   0  0  0  0  0  0  0  0  0  0  0  0
    3.0000    5.1962    0.0000 N   0  0  0  0  0  4  0  0  0  0  0  0
  1  2  1  0
  2  3  2  0
  3  4  1  0
  4  5  2  0
  5  6  1  0
  6  7  3  0
  5  8  1  0
  8  9  1  0
  8 10  2  0
 10 11  1  0
 11 12  2  0
 12 13  1  0
 12 14  1  0
 14 15  2  0
 15 16  1  0
 16 17  1  0
 16 18  2  0
 18 19  1  0
 19 20  2  0
 10  2  1  0
 20 14  1  0
M  CHG  2  13  -1  20   1
M  END
>  <Compound_ID>  (463) 
C40816491

>  <Active>  (463) 
0.0

>  <Smiles>  (463) 
Cc1ncc(C#N)c(C)c1/N=C(\[O-])c1cc(N)cc[nH+]1

>  <canonical_smi>  (463) 
Cc1ncc(C#N)c(C)c1/N=C(\[O-])c1cc(N)cc[nH+]1

>  <Set>  (463) 
G2 inactive

>  <Set_type>  (463) 
Train

>  <MW>  (463) 
267.29

>  <HBD>  (463) 
1

>  <HBA>  (463) 
4

>  <NRB>  (463) 
2

>  <NR>  (463) 
2

>  <NAR>  (463) 
2

>  <PSA>  (463) 
112.26

>  <Standard Type>  (463) 
nan

>  <Standard Relation>  (463) 
nan

>  <Standard Units>  (463) 
nan

>  <Standard Value>  (463) 
nan

>  <Assay ChEMBL ID>  (463) 
nan

>  <Assay Description>  (463) 
nan

>  <BAO Label>  (463) 
nan

$$$$

     RDKit          2D

 18 20  0  0  0  0  0  0  0  0999 V2000
   -3.1880    4.3580    0.0000 C   0  0  0  0  0  0  0  0  0  0  0  0
   -2.4186    3.0703    0.0000 C   0  0  0  0  0  0  0  0  0  0  0  0
   -3.8452    2.6068    0.0000 C   0  0  0  0  0  0  0  0  0  0  0  0
   -1.3344    4.1069    0.0000 C   0  0  0  0  0  0  0  0  0  0  0  0
    0.1520    3.9056    0.0000 N   0  0  0  0  0  0  0  0  0  0  0  0
    0.9214    2.6179    0.0000 C   0  0  0  0  0  0  0  0  0  0  0  0
    2.4153    2.7523    0.0000 O   0  0  0  0  0  0  0  0  0  0  0  0
    0.3943    1.2135    0.0000 C   0  0  0  0  0  0  0  0  0  0  0  0
    1.2760    0.0000    0.0000 N   0  0  0  0  0  0  0  0  0  0  0  0
    0.3943   -1.2135    0.0000 C   0  0  0  0  0  0  0  0  0  0  0  0
    0.8578   -2.6401    0.0000 C   0  0  0  0  0  0  0  0  0  0  0  0
    2.2844   -3.1036    0.0000 N   0  0  0  0  0  0  0  0  0  0  0  0
    2.2844   -4.6036    0.0000 C   0  0  0  0  0  0  0  0  0  0  0  0
    0.8578   -5.0672    0.0000 C   0  0  0  0  0  0  0  0  0  0  0  0
   -0.0239   -3.8536    0.0000 N   0  0  0  0  0  0  0  0  0  0  0  0
   -1.0323   -0.7500    0.0000 N   0  0  0  0  0  0  0  0  0  0  0  0
   -1.0323    0.7500    0.0000 C   0  0  0  0  0  0  0  0  0  0  0  0
   -2.2841    1.5763    0.0000 C   0  0  0  0  0  0  0  0  0  0  0  0
  1  2  1  0
  2  3  1  0
  2  4  1  0
  4  5  1  0
  5  6  1  0
  6  7  2  0
  6  8  1  0
  8  9  1  1
  9 10  1  0
 10 11  1  6
 11 12  2  0
 12 13  1  0
 13 14  2  0
 14 15  1  0
 10 16  1  0
 16 17  2  0
 17 18  1  0
 18  2  1  0
 17  8  1  0
 15 11  1  0
M  END
>  <Compound_ID>  (464) 
C65421493

>  <Active>  (464) 
0.0

>  <Smiles>  (464) 
CC1(C)CNC(=O)[C@H]2N[C@H](c3ncc[nH]3)N=C2C1

>  <canonical_smi>  (464) 
CC1(C)CNC(=O)[C@H]2N[C@H](c3ncc[nH]3)N=C2C1

>  <Set>  (464) 
G2 inactive

>  <Set_type>  (464) 
Train

>  <MW>  (464) 
247.3

>  <HBD>  (464) 
3

>  <HBA>  (464) 
3

>  <NRB>  (464) 
1

>  <NR>  (464) 
3

>  <NAR>  (464) 
1

>  <PSA>  (464) 
82.17

>  <Standard Type>  (464) 
nan

>  <Standard Relation>  (464) 
nan

>  <Standard Units>  (464) 
nan

>  <Standard Value>  (464) 
nan

>  <Assay ChEMBL ID>  (464) 
nan

>  <Assay Description>  (464) 
nan

>  <BAO Label>  (464) 
nan

$$$$

     RDKit          2D

 21 22  0  0  0  0  0  0  0  0999 V2000
    3.0000    0.0000    0.0000 N   0  0  0  0  0  0  0  0  0  0  0  0
    1.5000    0.0000    0.0000 C   0  0  0  0  0  0  0  0  0  0  0  0
    0.7500   -1.2990    0.0000 C   0  0  0  0  0  0  0  0  0  0  0  0
   -0.7500   -1.2990    0.0000 C   0  0  0  0  0  0  0  0  0  0  0  0
   -1.5000    0.0000    0.0000 C   0  0  0  0  0  0  0  0  0  0  0  0
   -3.0000    0.0000    0.0000 O   0  0  0  0  0  0  0  0  0  0  0  0
   -0.7500    1.2990    0.0000 N   0  0  0  0  0  0  0  0  0  0  0  0
   -1.5000    2.5981    0.0000 C   0  0  0  0  0  0  0  0  0  0  0  0
   -0.7500    3.8971    0.0000 C   0  0  0  0  0  0  0  0  0  0  0  0
   -1.5000    5.1962    0.0000 C   0  0  0  0  0  0  0  0  0  0  0  0
   -0.7500    6.4952    0.0000 O   0  0  0  0  0  0  0  0  0  0  0  0
   -1.5000    7.7942    0.0000 C   0  0  0  0  0  0  0  0  0  0  0  0
   -0.7500    9.0933    0.0000 C   0  0  0  0  0  0  0  0  0  0  0  0
   -1.5000   10.3923    0.0000 C   0  0  0  0  0  0  0  0  0  0  0  0
   -0.7500   11.6913    0.0000 Cl  0  0  0  0  0  0  0  0  0  0  0  0
   -3.0000   10.3923    0.0000 C   0  0  0  0  0  0  0  0  0  0  0  0
   -3.7500   11.6913    0.0000 Cl  0  0  0  0  0  0  0  0  0  0  0  0
   -3.7500    9.0933    0.0000 C   0  0  0  0  0  0  0  0  0  0  0  0
   -3.0000    7.7942    0.0000 C   0  0  0  0  0  0  0  0  0  0  0  0
   -3.7500    6.4952    0.0000 Cl  0  0  0  0  0  0  0  0  0  0  0  0
    0.7500    1.2990    0.0000 C   0  0  0  0  0  0  0  0  0  0  0  0
  1  2  1  0
  2  3  1  0
  3  4  2  0
  4  5  1  0
  5  6  2  0
  5  7  1  0
  7  8  1  0
  8  9  1  0
  9 10  1  0
 10 11  1  0
 11 12  1  0
 12 13  2  0
 13 14  1  0
 14 15  1  0
 14 16  2  0
 16 17  1  0
 16 18  1  0
 18 19  2  0
 19 20  1  0
  7 21  1  0
 21  2  2  0
 19 12  1  0
M  END
>  <Compound_ID>  (465) 
C37065630

>  <Active>  (465) 
0.0

>  <Smiles>  (465) 
Nc1ccc(=O)n(CCCOc2cc(Cl)c(Cl)cc2Cl)c1

>  <canonical_smi>  (465) 
Nc1ccc(=O)n(CCCOc2cc(Cl)c(Cl)cc2Cl)c1

>  <Set>  (465) 
G2 inactive

>  <Set_type>  (465) 
Train

>  <MW>  (465) 
347.63

>  <HBD>  (465) 
1

>  <HBA>  (465) 
3

>  <NRB>  (465) 
5

>  <NR>  (465) 
2

>  <NAR>  (465) 
2

>  <PSA>  (465) 
57.25

>  <Standard Type>  (465) 
nan

>  <Standard Relation>  (465) 
nan

>  <Standard Units>  (465) 
nan

>  <Standard Value>  (465) 
nan

>  <Assay ChEMBL ID>  (465) 
nan

>  <Assay Description>  (465) 
nan

>  <BAO Label>  (465) 
nan

$$$$

     RDKit          2D

 22 23  0  0  0  0  0  0  0  0999 V2000
    2.2500   -3.8971    0.0000 N   0  0  0  0  0  0  0  0  0  0  0  0
    3.0000   -2.5981    0.0000 C   0  0  0  0  0  0  0  0  0  0  0  0
    3.7500   -1.2990    0.0000 C   0  0  0  0  0  0  0  0  0  0  0  0
    3.0000    0.0000    0.0000 C   0  0  0  0  0  0  0  0  0  0  0  0
    1.5000    0.0000    0.0000 C   0  0  0  0  0  0  0  0  0  0  0  0
    0.7500   -1.2990    0.0000 C   0  0  0  0  0  0  0  0  0  0  0  0
   -0.7500   -1.2990    0.0000 C   0  0  0  0  0  0  0  0  0  0  0  0
   -1.5000    0.0000    0.0000 C   0  0  0  0  0  0  0  0  0  0  0  0
   -3.0000    0.0000    0.0000 O   0  0  0  0  0  0  0  0  0  0  0  0
   -3.7500    1.2990    0.0000 C   0  0  0  0  0  0  0  0  0  0  0  0
   -5.2500    1.2990    0.0000 C   0  0  0  0  0  0  0  0  0  0  0  0
   -6.0000    2.5981    0.0000 C   0  0  0  0  0  0  0  0  0  0  0  0
   -7.5000    2.5981    0.0000 C   0  0  0  0  0  0  0  0  0  0  0  0
   -8.2500    1.2990    0.0000 C   0  0  0  0  0  0  0  0  0  0  0  0
   -7.5000    0.0000    0.0000 C   0  0  0  0  0  0  0  0  0  0  0  0
   -6.0000    0.0000    0.0000 C   0  0  0  0  0  0  0  0  0  0  0  0
   -0.7500    1.2990    0.0000 C   0  0  0  0  0  0  0  0  0  0  0  0
   -1.5000    2.5981    0.0000 Br  0  0  0  0  0  0  0  0  0  0  0  0
    0.7500    1.2990    0.0000 C   0  0  0  0  0  0  0  0  0  0  0  0
    5.2500   -1.2990    0.0000 C   0  0  0  0  0  0  0  0  0  0  0  0
    6.0000   -2.5981    0.0000 N   0  0  0  0  0  0  0  0  0  0  0  0
    6.0000    0.0000    0.0000 O   0  0  0  0  0  0  0  0  0  0  0  0
  1  2  3  0
  2  3  1  0
  3  4  2  0
  4  5  1  0
  5  6  2  0
  6  7  1  0
  7  8  2  0
  8  9  1  0
  9 10  1  0
 10 11  1  0
 11 12  2  0
 12 13  1  0
 13 14  2  0
 14 15  1  0
 15 16  2  0
  8 17  1  0
 17 18  1  0
 17 19  2  0
  3 20  1  0
 20 21  1  0
 20 22  2  0
 19  5  1  0
 16 11  1  0
M  END
>  <Compound_ID>  (466) 
C42912907

>  <Active>  (466) 
0.0

>  <Smiles>  (466) 
N#C/C(=C\c1ccc(OCc2ccccc2)c(Br)c1)C(N)=O

>  <canonical_smi>  (466) 
N#C/C(=C\c1ccc(OCc2ccccc2)c(Br)c1)C(N)=O

>  <Set>  (466) 
G2 inactive

>  <Set_type>  (466) 
Train

>  <MW>  (466) 
357.21

>  <HBD>  (466) 
1

>  <HBA>  (466) 
3

>  <NRB>  (466) 
5

>  <NR>  (466) 
2

>  <NAR>  (466) 
2

>  <PSA>  (466) 
76.11

>  <Standard Type>  (466) 
nan

>  <Standard Relation>  (466) 
nan

>  <Standard Units>  (466) 
nan

>  <Standard Value>  (466) 
nan

>  <Assay ChEMBL ID>  (466) 
nan

>  <Assay Description>  (466) 
nan

>  <BAO Label>  (466) 
nan

$$$$

     RDKit          2D

 23 24  0  0  0  0  0  0  0  0999 V2000
   13.2718   -4.8635    0.0000 C   0  0  0  0  0  0  0  0  0  0  0  0
   12.0583   -5.7452    0.0000 C   0  0  0  0  0  0  0  0  0  0  0  0
   10.6317   -5.2817    0.0000 C   0  0  0  0  0  0  0  0  0  0  0  0
    9.7500   -6.4952    0.0000 C   0  0  0  0  0  0  0  0  0  0  0  0
    8.2500   -6.4952    0.0000 C   0  0  0  0  0  0  0  0  0  0  0  0
    7.5000   -7.7942    0.0000 O   0  0  0  0  0  0  0  0  0  0  0  0
    7.5000   -5.1962    0.0000 N   0  0  0  0  0  0  0  0  0  0  0  0
    6.0000   -5.1962    0.0000 N   0  0  0  0  0  0  0  0  0  0  0  0
    5.2500   -3.8971    0.0000 C   0  0  0  0  0  0  0  0  0  0  0  0
    6.0000   -2.5981    0.0000 O   0  0  0  0  0  0  0  0  0  0  0  0
    3.7500   -3.8971    0.0000 N   0  0  0  0  0  0  0  0  0  0  0  0
    3.0000   -2.5981    0.0000 C   0  0  0  0  0  0  0  0  0  0  0  0
    1.5000   -2.5981    0.0000 C   0  0  0  0  0  0  0  0  0  0  0  0
    0.7500   -1.2990    0.0000 C   0  0  0  0  0  0  0  0  0  0  0  0
    1.5000    0.0000    0.0000 C   0  0  0  0  0  0  0  0  0  0  0  0
    0.7500    1.2990    0.0000 C   0  0  0  0  0  0  0  0  0  0  0  0
   -0.7500    1.2990    0.0000 C   0  0  0  0  0  0  0  0  0  0  0  0
   -1.5000    0.0000    0.0000 C   0  0  0  0  0  0  0  0  0  0  0  0
   -0.7500   -1.2990    0.0000 C   0  0  0  0  0  0  0  0  0  0  0  0
   -1.5000   -2.5981    0.0000 C   0  0  0  0  0  0  0  0  0  0  0  0
   10.6317   -7.7087    0.0000 C   0  0  0  0  0  0  0  0  0  0  0  0
   10.1682   -9.1353    0.0000 C   0  0  0  0  0  0  0  0  0  0  0  0
   12.0583   -7.2452    0.0000 O   0  0  0  0  0  0  0  0  0  0  0  0
  1  2  1  0
  2  3  2  0
  3  4  1  0
  4  5  1  0
  5  6  2  0
  5  7  1  0
  7  8  1  0
  8  9  1  0
  9 10  2  0
  9 11  1  0
 11 12  1  0
 12 13  1  0
 13 14  1  0
 14 15  2  0
 15 16  1  0
 16 17  2  0
 17 18  1  0
 18 19  2  0
 19 20  1  0
  4 21  2  0
 21 22  1  0
 21 23  1  0
 23  2  1  0
 19 14  1  0
M  END
>  <Compound_ID>  (467) 
C09866911

>  <Active>  (467) 
0.0

>  <Smiles>  (467) 
Cc1cc(C(=O)NNC(=O)NCCc2ccccc2C)c(C)o1

>  <canonical_smi>  (467) 
Cc1cc(C(=O)NNC(=O)NCCc2ccccc2C)c(C)o1

>  <Set>  (467) 
G2 inactive

>  <Set_type>  (467) 
Train

>  <MW>  (467) 
315.37

>  <HBD>  (467) 
3

>  <HBA>  (467) 
3

>  <NRB>  (467) 
4

>  <NR>  (467) 
2

>  <NAR>  (467) 
2

>  <PSA>  (467) 
83.37

>  <Standard Type>  (467) 
nan

>  <Standard Relation>  (467) 
nan

>  <Standard Units>  (467) 
nan

>  <Standard Value>  (467) 
nan

>  <Assay ChEMBL ID>  (467) 
nan

>  <Assay Description>  (467) 
nan

>  <BAO Label>  (467) 
nan

$$$$

     RDKit          2D

 34 38  0  0  0  0  0  0  0  0999 V2000
    3.2537   -7.6099    0.0000 N   0  0  0  0  0  0  0  0  0  0  0  0
    2.5037   -6.3109    0.0000 C   0  0  0  0  0  0  0  0  0  0  0  0
    1.7537   -5.0118    0.0000 C   0  0  0  0  0  0  0  0  0  0  0  0
    0.5402   -5.8935    0.0000 C   0  0  0  0  0  0  0  0  0  0  0  0
    0.6970   -7.3853    0.0000 N   0  0  0  0  0  0  0  0  0  0  0  0
   -0.8301   -5.2834    0.0000 O   0  0  0  0  0  0  0  0  0  0  0  0
    3.1240   -4.4017    0.0000 C   0  0  0  0  0  0  0  0  0  0  0  0
    4.4231   -5.1517    0.0000 C   0  0  0  0  0  0  0  0  0  0  0  0
    4.4231   -6.6517    0.0000 C   0  0  0  0  0  0  0  0  0  0  0  0
    5.7221   -7.4017    0.0000 C   0  0  0  0  0  0  0  0  0  0  0  0
    7.0211   -6.6517    0.0000 N   0  0  0  0  0  0  0  0  0  0  0  0
    7.0211   -5.1517    0.0000 C   0  0  0  0  0  0  0  0  0  0  0  0
    5.7221   -4.4017    0.0000 C   0  0  0  0  0  0  0  0  0  0  0  0
    2.9672   -2.9099    0.0000 C   0  0  0  0  0  0  0  0  0  0  0  0
    4.0819   -1.9062    0.0000 C   0  0  0  0  0  0  0  0  0  0  0  0
    5.5085   -2.3698    0.0000 O   0  0  0  0  0  0  0  0  0  0  0  0
    3.7701   -0.4390    0.0000 C   0  0  0  0  0  0  0  0  0  0  0  0
    4.8848    0.5647    0.0000 C   0  0  0  0  0  0  0  0  0  0  0  0
    4.5729    2.0319    0.0000 C   0  0  0  0  0  0  0  0  0  0  0  0
    3.1463    2.4954    0.0000 C   0  0  0  0  0  0  0  0  0  0  0  0
    2.8345    3.9626    0.0000 Cl  0  0  0  0  0  0  0  0  0  0  0  0
    2.0316    1.4917    0.0000 C   0  0  0  0  0  0  0  0  0  0  0  0
    2.3435    0.0245    0.0000 C   0  0  0  0  0  0  0  0  0  0  0  0
    1.5000   -2.5981    0.0000 N   0  0  0  0  0  0  0  0  0  0  0  0
    0.7500   -1.2990    0.0000 C   0  0  0  0  0  0  0  0  0  0  0  0
    1.5000    0.0000    0.0000 C   0  0  0  0  0  0  0  0  0  0  0  0
    0.7500    1.2990    0.0000 C   0  0  0  0  0  0  0  0  0  0  0  0
   -0.7500    1.2990    0.0000 C   0  0  0  0  0  0  0  0  0  0  0  0
   -1.5000    2.5981    0.0000 F   0  0  0  0  0  0  0  0  0  0  0  0
   -1.5000    0.0000    0.0000 C   0  0  0  0  0  0  0  0  0  0  0  0
   -0.7500   -1.2990    0.0000 C   0  0  0  0  0  0  0  0  0  0  0  0
   -1.5000   -2.5981    0.0000 C   0  0  0  0  0  0  0  0  0  0  0  0
   -0.7500   -3.8971    0.0000 C   0  0  0  0  0  0  0  0  0  0  0  0
    0.7500   -3.8971    0.0000 C   0  0  0  0  0  0  0  0  0  0  0  0
  1  2  3  0
  3  2  1  6
  3  4  1  0
  4  5  1  0
  4  6  2  0
  3  7  1  0
  7  8  1  6
  8  9  2  0
  9 10  1  0
 10 11  2  0
 11 12  1  0
 12 13  2  0
  7 14  1  0
 14 15  1  1
 15 16  2  0
 15 17  1  0
 17 18  2  0
 18 19  1  0
 19 20  2  0
 20 21  1  0
 20 22  1  0
 22 23  2  0
 14 24  1  0
 24 25  1  0
 25 26  2  0
 26 27  1  0
 27 28  2  0
 28 29  1  0
 28 30  1  0
 30 31  2  0
 31 32  1  0
 32 33  2  0
 34 33  1  1
 34  3  1  0
 13  8  1  0
 23 17  1  0
 34 24  1  0
 31 25  1  0
M  END
>  <Compound_ID>  (468) 
C12428980

>  <Active>  (468) 
0.0

>  <Smiles>  (468) 
N#C[C@@]1(C(N)=O)[C@@H](c2ccncc2)[C@H](C(=O)c2ccc(Cl)cc2)N2c3ccc(F)cc3C=C[C@@H]21

>  <canonical_smi>  (468) 
N#C[C@@]1(C(N)=O)[C@@H](c2ccncc2)[C@H](C(=O)c2ccc(Cl)cc2)N2c3ccc(F)cc3C=C[C@@H]21

>  <Set>  (468) 
G2 inactive

>  <Set_type>  (468) 
Train

>  <MW>  (468) 
472.91

>  <HBD>  (468) 
1

>  <HBA>  (468) 
5

>  <NRB>  (468) 
4

>  <NR>  (468) 
5

>  <NAR>  (468) 
3

>  <PSA>  (468) 
100.08

>  <Standard Type>  (468) 
nan

>  <Standard Relation>  (468) 
nan

>  <Standard Units>  (468) 
nan

>  <Standard Value>  (468) 
nan

>  <Assay ChEMBL ID>  (468) 
nan

>  <Assay Description>  (468) 
nan

>  <BAO Label>  (468) 
nan

$$$$

     RDKit          2D

 19 21  0  0  0  0  0  0  0  0999 V2000
   -0.5773   -4.2803    0.0000 C   0  0  0  0  0  0  0  0  0  0  0  0
    0.8899   -3.9684    0.0000 C   0  0  0  0  0  0  0  0  0  0  0  0
    2.0046   -4.9721    0.0000 C   0  0  0  0  0  0  0  0  0  0  0  0
    1.8478   -6.4639    0.0000 C   0  0  0  0  0  0  0  0  0  0  0  0
    1.6910   -7.9557    0.0000 N   0  0  0  0  0  0  0  0  0  0  0  0
    3.3037   -4.2221    0.0000 N   0  0  0  0  0  0  0  0  0  0  0  0
    2.9918   -2.7549    0.0000 N   0  0  0  0  0  0  0  0  0  0  0  0
    1.5000   -2.5981    0.0000 N   0  0  0  0  0  0  0  0  0  0  0  0
    0.7500   -1.2990    0.0000 C   0  0  0  0  0  0  0  0  0  0  0  0
    1.5000    0.0000    0.0000 C   0  0  0  0  0  0  0  0  0  0  0  0
    0.7500    1.2990    0.0000 C   0  0  0  0  0  0  0  0  0  0  0  0
   -0.7500    1.2990    0.0000 C   0  0  0  0  0  0  0  0  0  0  0  0
   -1.5000    0.0000    0.0000 C   0  0  0  0  0  0  0  0  0  0  0  0
   -3.0000    0.0000    0.0000 C   0  0  0  0  0  0  0  0  0  0  0  0
   -3.7500    1.2990    0.0000 O   0  0  0  0  0  0  0  0  0  0  0  0
   -3.7500   -1.2990    0.0000 C   0  0  0  0  0  0  0  0  0  0  0  0
   -3.0000   -2.5981    0.0000 C   0  0  0  0  0  0  0  0  0  0  0  0
   -1.5000   -2.5981    0.0000 C   0  0  0  0  0  0  0  0  0  0  0  0
   -0.7500   -1.2990    0.0000 C   0  0  0  0  0  0  0  0  0  0  0  0
  1  2  1  0
  2  3  2  0
  3  4  1  0
  4  5  3  0
  3  6  1  0
  6  7  2  0
  7  8  1  0
  8  9  1  0
  9 10  2  0
 10 11  1  0
 11 12  2  0
 12 13  1  0
 13 14  2  0
 14 15  1  0
 14 16  1  0
 16 17  2  0
 17 18  1  0
 18 19  2  0
  8  2  1  0
 19  9  1  0
 19 13  1  0
M  END
>  <Compound_ID>  (469) 
C62242963

>  <Active>  (469) 
0.0

>  <Smiles>  (469) 
Cc1c(C#N)nnn1-c1cccc2c(O)cccc12

>  <canonical_smi>  (469) 
Cc1c(C#N)nnn1-c1cccc2c(O)cccc12

>  <Set>  (469) 
G2 inactive

>  <Set_type>  (469) 
Train

>  <MW>  (469) 
250.26

>  <HBD>  (469) 
1

>  <HBA>  (469) 
4

>  <NRB>  (469) 
1

>  <NR>  (469) 
3

>  <NAR>  (469) 
3

>  <PSA>  (469) 
74.73

>  <Standard Type>  (469) 
nan

>  <Standard Relation>  (469) 
nan

>  <Standard Units>  (469) 
nan

>  <Standard Value>  (469) 
nan

>  <Assay ChEMBL ID>  (469) 
nan

>  <Assay Description>  (469) 
nan

>  <BAO Label>  (469) 
nan

$$$$

     RDKit          2D

 33 37  0  0  0  0  0  0  0  0999 V2000
   -5.9157   -6.1668    0.0000 C   0  0  0  0  0  0  0  0  0  0  0  0
   -4.4738   -6.5802    0.0000 C   0  0  0  0  0  0  0  0  0  0  0  0
   -4.1110   -8.0357    0.0000 C   0  0  0  0  0  0  0  0  0  0  0  0
   -5.6073   -8.1403    0.0000 O   0  0  0  0  0  0  0  0  0  0  0  0
   -6.2649   -9.4885    0.0000 C   0  0  0  0  0  0  0  0  0  0  0  0
   -5.9030  -10.1988    0.0000 O   0  0  0  0  0  0  0  0  0  0  0  0
   -7.7612   -9.5932    0.0000 C   0  0  0  0  0  0  0  0  0  0  0  0
   -8.4188  -10.9413    0.0000 N   0  0  0  0  0  4  0  0  0  0  0  0
   -9.9151  -11.0460    0.0000 C   0  0  0  0  0  0  0  0  0  0  0  0
   -7.5800  -12.1849    0.0000 C   0  0  0  0  0  0  0  0  0  0  0  0
   -4.2677   -9.5275    0.0000 C   0  0  0  0  0  0  0  0  0  0  0  0
   -4.9510   -9.9381    0.0000 O   0  0  0  0  0  0  0  0  0  0  0  0
   -3.0542  -10.4092    0.0000 O   0  0  0  0  0  0  0  0  0  0  0  0
   -1.6839   -9.7990    0.0000 C   0  0  0  0  0  0  0  0  0  0  0  0
   -1.5271   -8.3073    0.0000 C   0  0  0  0  0  0  0  0  0  0  0  0
   -2.7406   -7.4256    0.0000 C   0  0  0  0  0  0  0  0  0  0  0  0
   -2.5838   -5.9338    0.0000 C   0  0  0  0  0  0  0  0  0  0  0  0
   -1.2135   -5.3237    0.0000 C   0  0  0  0  0  0  0  0  0  0  0  0
   -0.0000   -6.2054    0.0000 N   0  0  0  0  0  0  0  0  0  0  0  0
   -0.1568   -7.6972    0.0000 C   0  0  0  0  0  0  0  0  0  0  0  0
    1.0567   -8.5788    0.0000 O   0  0  0  0  0  0  0  0  0  0  0  0
    1.2135   -5.3237    0.0000 C   0  0  0  0  0  0  0  0  0  0  0  0
    0.7500   -3.8971    0.0000 C   0  0  0  0  0  0  0  0  0  0  0  0
    1.5000   -2.5981    0.0000 C   0  0  0  0  0  0  0  0  0  0  0  0
    0.7500   -1.2990    0.0000 C   0  0  0  0  0  0  0  0  0  0  0  0
    1.5000    0.0000    0.0000 C   0  0  0  0  0  0  0  0  0  0  0  0
    3.0000    0.0000    0.0000 N   0  0  0  0  0  0  0  0  0  0  0  0
    0.7500    1.2990    0.0000 C   0  0  0  0  0  0  0  0  0  0  0  0
   -0.7500    1.2990    0.0000 C   0  0  0  0  0  0  0  0  0  0  0  0
   -1.5000    0.0000    0.0000 C   0  0  0  0  0  0  0  0  0  0  0  0
   -0.7500   -1.2990    0.0000 C   0  0  0  0  0  0  0  0  0  0  0  0
   -1.5000   -2.5981    0.0000 N   0  0  0  0  0  0  0  0  0  0  0  0
   -0.7500   -3.8971    0.0000 C   0  0  0  0  0  0  0  0  0  0  0  0
  1  2  1  0
  3  2  1  1
  3  4  1  0
  4  5  1  0
  5  6  2  0
  5  7  1  0
  7  8  1  0
  8  9  1  0
  8 10  1  0
  3 11  1  0
 11 12  2  0
 11 13  1  0
 13 14  1  0
 14 15  1  0
 15 16  2  0
 16 17  1  0
 17 18  2  0
 18 19  1  0
 19 20  1  0
 20 21  2  0
 19 22  1  0
 22 23  1  0
 23 24  2  0
 24 25  1  0
 25 26  2  0
 26 27  1  0
 26 28  1  0
 28 29  2  0
 29 30  1  0
 30 31  2  0
 31 32  1  0
 32 33  2  0
 16  3  1  0
 33 18  1  0
 20 15  1  0
 33 23  1  0
 31 25  1  0
M  CHG  1   8   1
M  END
>  <Compound_ID>  (470) 
C13000561

>  <Active>  (470) 
0.0

>  <Smiles>  (470) 
CC[C@]1(OC(=O)C[NH+](C)C)C(=O)OCc2c1cc1n(c2=O)Cc2cc3c(N)cccc3nc2-1

>  <canonical_smi>  (470) 
CC[C@]1(OC(=O)C[NH+](C)C)C(=O)OCc2c1cc1n(c2=O)Cc2cc3c(N)cccc3nc2-1

>  <Set>  (470) 
G2 inactive

>  <Set_type>  (470) 
Train

>  <MW>  (470) 
449.49

>  <HBD>  (470) 
2

>  <HBA>  (470) 
7

>  <NRB>  (470) 
4

>  <NR>  (470) 
5

>  <NAR>  (470) 
4

>  <PSA>  (470) 
117.95

>  <Standard Type>  (470) 
nan

>  <Standard Relation>  (470) 
nan

>  <Standard Units>  (470) 
nan

>  <Standard Value>  (470) 
nan

>  <Assay ChEMBL ID>  (470) 
nan

>  <Assay Description>  (470) 
nan

>  <BAO Label>  (470) 
nan

$$$$

     RDKit          2D

 31 35  0  0  0  0  0  0  0  0999 V2000
   -6.4562  -11.5849    0.0000 C   0  0  0  0  0  0  0  0  0  0  0  0
   -5.1572  -10.8349    0.0000 C   0  0  0  0  0  0  0  0  0  0  0  0
   -3.7869  -11.4450    0.0000 C   0  0  0  0  0  0  0  0  0  0  0  0
   -2.7832  -10.3303    0.0000 S   0  0  0  0  0  0  0  0  0  0  0  0
   -3.5332   -9.0313    0.0000 C   0  0  0  0  0  0  0  0  0  0  0  0
   -2.9231   -7.6610    0.0000 N   0  0  0  0  0  0  0  0  0  0  0  0
   -3.6731   -6.3619    0.0000 C   0  0  0  0  0  0  0  0  0  0  0  0
   -5.1648   -6.2051    0.0000 O   0  0  0  0  0  0  0  0  0  0  0  0
   -2.6694   -5.2472    0.0000 C   0  0  0  0  0  0  0  0  0  0  0  0
   -2.9812   -3.7800    0.0000 O   0  0  0  0  0  1  0  0  0  0  0  0
   -1.2990   -5.8573    0.0000 C   0  0  0  0  0  0  0  0  0  0  0  0
   -0.0000   -5.1073    0.0000 C   0  0  0  0  0  0  0  0  0  0  0  0
    1.2990   -5.8573    0.0000 O   0  0  0  0  0  0  0  0  0  0  0  0
   -0.0000   -3.6073    0.0000 C   0  0  0  0  0  0  0  0  0  0  0  0
    1.2135   -2.7256    0.0000 C   0  0  0  0  0  0  0  0  0  0  0  0
    0.7500   -1.2990    0.0000 C   0  0  0  0  0  0  0  0  0  0  0  0
    1.5000    0.0000    0.0000 C   0  0  0  0  0  0  0  0  0  0  0  0
    0.7500    1.2990    0.0000 C   0  0  0  0  0  0  0  0  0  0  0  0
   -0.7500    1.2990    0.0000 C   0  0  0  0  0  0  0  0  0  0  0  0
   -1.5000    0.0000    0.0000 C   0  0  0  0  0  0  0  0  0  0  0  0
   -0.7500   -1.2990    0.0000 C   0  0  0  0  0  0  0  0  0  0  0  0
   -1.2135   -2.7256    0.0000 O   0  0  0  0  0  0  0  0  0  0  0  0
   -1.4558   -7.3491    0.0000 C   0  0  0  0  0  0  0  0  0  0  0  0
   -0.3411   -8.3528    0.0000 C   0  0  0  0  0  0  0  0  0  0  0  0
    1.0855   -7.8893    0.0000 C   0  0  0  0  0  0  0  0  0  0  0  0
    2.2002   -8.8929    0.0000 C   0  0  0  0  0  0  0  0  0  0  0  0
    1.8883  -10.3602    0.0000 C   0  0  0  0  0  0  0  0  0  0  0  0
    0.4617  -10.8237    0.0000 C   0  0  0  0  0  0  0  0  0  0  0  0
   -0.6530   -9.8200    0.0000 C   0  0  0  0  0  0  0  0  0  0  0  0
   -1.7978  -10.5355    0.0000 F   0  0  0  0  0  0  0  0  0  0  0  0
   -5.0004   -9.3431    0.0000 N   0  0  0  0  0  0  0  0  0  0  0  0
  1  2  1  0
  2  3  2  0
  3  4  1  0
  4  5  1  0
  5  6  1  0
  6  7  1  0
  7  8  2  0
  7  9  1  0
  9 10  1  0
  9 11  2  0
 11 12  1  0
 12 13  2  0
 12 14  1  0
 14 15  2  0
 15 16  1  0
 16 17  2  0
 17 18  1  0
 18 19  2  0
 19 20  1  0
 20 21  2  0
 21 22  1  0
 11 23  1  0
 23 24  1  1
 24 25  2  0
 25 26  1  0
 26 27  2  0
 27 28  1  0
 28 29  2  0
 29 30  1  0
  5 31  2  0
 31  2  1  0
 23  6  1  0
 29 24  1  0
 22 14  1  0
 21 16  1  0
M  CHG  1  10  -1
M  END
>  <Compound_ID>  (471) 
C39848505

>  <Active>  (471) 
0.0

>  <Smiles>  (471) 
Cc1csc(N2C(=O)C([O-])=C(C(=O)c3cc4ccccc4o3)[C@H]2c2ccccc2F)n1

>  <canonical_smi>  (471) 
Cc1csc(N2C(=O)C([O-])=C(C(=O)c3cc4ccccc4o3)[C@H]2c2ccccc2F)n1

>  <Set>  (471) 
G2 inactive

>  <Set_type>  (471) 
Train

>  <MW>  (471) 
433.44

>  <HBD>  (471) 
0

>  <HBA>  (471) 
5

>  <NRB>  (471) 
4

>  <NR>  (471) 
5

>  <NAR>  (471) 
4

>  <PSA>  (471) 
86.47

>  <Standard Type>  (471) 
nan

>  <Standard Relation>  (471) 
nan

>  <Standard Units>  (471) 
nan

>  <Standard Value>  (471) 
nan

>  <Assay ChEMBL ID>  (471) 
nan

>  <Assay Description>  (471) 
nan

>  <BAO Label>  (471) 
nan

$$$$

     RDKit          2D

 29 33  0  0  0  0  0  0  0  0999 V2000
    0.8050    6.0661    0.0000 O   0  0  0  0  0  0  0  0  0  0  0  0
   -0.4086    5.1844    0.0000 C   0  0  0  0  0  0  0  0  0  0  0  0
   -0.4086    3.6844    0.0000 C   0  0  0  0  0  0  0  0  0  0  0  0
    0.7062    2.6807    0.0000 C   0  0  0  0  0  0  0  0  0  0  0  0
    2.1328    3.1443    0.0000 C   0  0  0  0  0  0  0  0  0  0  0  0
    2.5963    4.5709    0.0000 C   0  0  0  0  0  0  0  0  0  0  0  0
    4.0963    4.5709    0.0000 C   0  0  0  0  0  0  0  0  0  0  0  0
    4.5598    3.1443    0.0000 C   0  0  0  0  0  0  0  0  0  0  0  0
    3.3463    2.2626    0.0000 S   0  0  0  0  0  0  0  0  0  0  0  0
    0.3943    1.2135    0.0000 C   0  0  0  0  0  0  0  0  0  0  0  0
    1.2760    0.0000    0.0000 S   0  0  0  0  0  0  0  0  0  0  0  0
    0.3943   -1.2135    0.0000 C   0  0  0  0  0  0  0  0  0  0  0  0
    0.8578   -2.6401    0.0000 S   0  0  0  0  0  1  0  0  0  0  0  0
   -1.0323   -0.7500    0.0000 N   0  0  0  0  0  0  0  0  0  0  0  0
   -1.0323    0.7500    0.0000 C   0  0  0  0  0  0  0  0  0  0  0  0
   -2.1470    1.7537    0.0000 S   0  0  0  0  0  0  0  0  0  0  0  0
   -1.8351    3.2209    0.0000 C   0  0  0  0  0  0  0  0  0  0  0  0
   -2.7168    4.4344    0.0000 C   0  0  0  0  0  0  0  0  0  0  0  0
   -4.2168    4.4344    0.0000 O   0  0  0  0  0  0  0  0  0  0  0  0
   -1.8351    5.6480    0.0000 N   0  0  0  0  0  0  0  0  0  0  0  0
   -2.2987    7.0746    0.0000 C   0  0  0  0  0  0  0  0  0  0  0  0
   -1.2950    8.1893    0.0000 C   0  0  0  0  0  0  0  0  0  0  0  0
   -1.7585    9.6159    0.0000 C   0  0  0  0  0  0  0  0  0  0  0  0
   -3.2257    9.9277    0.0000 C   0  0  0  0  0  0  0  0  0  0  0  0
   -3.6892   11.3543    0.0000 N   0  0  0  0  0  4  0  0  0  0  0  0
   -5.1565   11.6662    0.0000 O   0  0  0  0  0  0  0  0  0  0  0  0
   -2.6855   12.4690    0.0000 O   0  0  0  0  0  1  0  0  0  0  0  0
   -4.2294    8.8130    0.0000 C   0  0  0  0  0  0  0  0  0  0  0  0
   -3.7659    7.3864    0.0000 C   0  0  0  0  0  0  0  0  0  0  0  0
  1  2  2  0
  3  2  1  6
  3  4  1  0
  4  5  1  1
  5  6  2  0
  6  7  1  0
  7  8  2  0
  8  9  1  0
  4 10  1  0
 10 11  1  0
 11 12  1  0
 12 13  1  0
 12 14  2  0
 14 15  1  0
 15 16  1  0
 17 16  1  1
 17 18  1  0
 18 19  2  0
 18 20  1  0
 20 21  1  0
 21 22  2  0
 22 23  1  0
 23 24  2  0
 24 25  1  0
 25 26  2  0
 25 27  1  0
 24 28  1  0
 28 29  2  0
 20  2  1  0
 29 21  1  0
 17  3  1  0
  9  5  1  0
 15 10  2  0
M  CHG  3  13  -1  25   1  27  -1
M  END
>  <Compound_ID>  (472) 
C40475562

>  <Active>  (472) 
0.0

>  <Smiles>  (472) 
O=C1[C@@H]2[C@@H](c3cccs3)c3sc([S-])nc3S[C@H]2C(=O)N1c1ccc([N+](=O)[O-])cc1

>  <canonical_smi>  (472) 
O=C1[C@@H]2[C@@H](c3cccs3)c3sc([S-])nc3S[C@H]2C(=O)N1c1ccc([N+](=O)[O-])cc1

>  <Set>  (472) 
G2 inactive

>  <Set_type>  (472) 
Train

>  <MW>  (472) 
460.56

>  <HBD>  (472) 
0

>  <HBA>  (472) 
7

>  <NRB>  (472) 
3

>  <NR>  (472) 
5

>  <NAR>  (472) 
3

>  <PSA>  (472) 
93.41

>  <Standard Type>  (472) 
nan

>  <Standard Relation>  (472) 
nan

>  <Standard Units>  (472) 
nan

>  <Standard Value>  (472) 
nan

>  <Assay ChEMBL ID>  (472) 
nan

>  <Assay Description>  (472) 
nan

>  <BAO Label>  (472) 
nan

$$$$

     RDKit          2D

 25 28  0  0  0  0  0  0  0  0999 V2000
    3.0000    0.0000    0.0000 C   0  0  0  0  0  0  0  0  0  0  0  0
    1.5000    0.0000    0.0000 C   0  0  0  0  0  0  0  0  0  0  0  0
    0.7500   -1.2990    0.0000 C   0  0  0  0  0  0  0  0  0  0  0  0
   -0.7500   -1.2990    0.0000 C   0  0  0  0  0  0  0  0  0  0  0  0
   -1.5000    0.0000    0.0000 C   0  0  0  0  0  0  0  0  0  0  0  0
   -3.0000    0.0000    0.0000 C   0  0  0  0  0  0  0  0  0  0  0  0
   -3.7500    1.2990    0.0000 N   0  0  0  0  0  0  0  0  0  0  0  0
   -5.2418    1.4558    0.0000 C   0  0  0  0  0  0  0  0  0  0  0  0
   -5.5537    2.9231    0.0000 C   0  0  0  0  0  0  0  0  0  0  0  0
   -6.9240    3.5332    0.0000 N   0  0  0  0  0  0  0  0  0  0  0  0
   -8.2230    2.7832    0.0000 C   0  0  0  0  0  0  0  0  0  0  0  0
   -8.3798    1.2914    0.0000 S   0  0  0  0  0  1  0  0  0  0  0  0
   -9.3377    3.7869    0.0000 N   0  0  0  0  0  0  0  0  0  0  0  0
   -8.7276    5.1572    0.0000 N   0  0  0  0  0  0  0  0  0  0  0  0
   -7.2358    5.0004    0.0000 C   0  0  0  0  0  0  0  0  0  0  0  0
   -6.2321    6.1151    0.0000 C   0  0  0  0  0  0  0  0  0  0  0  0
   -6.5440    7.5823    0.0000 C   0  0  0  0  0  0  0  0  0  0  0  0
   -5.2450    8.3323    0.0000 C   0  0  0  0  0  0  0  0  0  0  0  0
   -5.0882    9.8241    0.0000 C   0  0  0  0  0  0  0  0  0  0  0  0
   -4.1303    7.3286    0.0000 N   0  0  0  0  0  0  0  0  0  0  0  0
   -4.7404    5.9583    0.0000 N   0  0  0  0  0  0  0  0  0  0  0  0
   -4.2546    3.6731    0.0000 C   0  0  0  0  0  0  0  0  0  0  0  0
   -3.1399    2.6694    0.0000 N   0  0  0  0  0  0  0  0  0  0  0  0
   -0.7500    1.2990    0.0000 C   0  0  0  0  0  0  0  0  0  0  0  0
    0.7500    1.2990    0.0000 C   0  0  0  0  0  0  0  0  0  0  0  0
  1  2  1  0
  2  3  2  0
  3  4  1  0
  4  5  2  0
  5  6  1  0
  6  7  1  0
  7  8  1  0
  8  9  2  0
  9 10  1  0
 10 11  1  0
 11 12  1  0
 11 13  2  0
 13 14  1  0
 14 15  2  0
 15 16  1  0
 16 17  1  0
 17 18  2  0
 18 19  1  0
 18 20  1  0
 20 21  1  0
  9 22  1  0
 22 23  2  0
  5 24  1  0
 24 25  2  0
 25  2  1  0
 23  7  1  0
 15 10  1  0
 21 16  2  0
M  CHG  1  12  -1
M  END
>  <Compound_ID>  (473) 
C06413446

>  <Active>  (473) 
0.0

>  <Smiles>  (473) 
Cc1ccc(Cn2cc(-n3c([S-])nnc3-c3cc(C)[nH]n3)cn2)cc1

>  <canonical_smi>  (473) 
Cc1ccc(Cn2cc(-n3c([S-])nnc3-c3cc(C)[nH]n3)cn2)cc1

>  <Set>  (473) 
G2 inactive

>  <Set_type>  (473) 
Train

>  <MW>  (473) 
350.43

>  <HBD>  (473) 
1

>  <HBA>  (473) 
5

>  <NRB>  (473) 
4

>  <NR>  (473) 
4

>  <NAR>  (473) 
4

>  <PSA>  (473) 
77.21

>  <Standard Type>  (473) 
nan

>  <Standard Relation>  (473) 
nan

>  <Standard Units>  (473) 
nan

>  <Standard Value>  (473) 
nan

>  <Assay ChEMBL ID>  (473) 
nan

>  <Assay Description>  (473) 
nan

>  <BAO Label>  (473) 
nan

$$$$

     RDKit          2D

 29 33  0  0  0  0  0  0  0  0999 V2000
   -1.2990   -5.8573    0.0000 C   0  0  0  0  0  0  0  0  0  0  0  0
   -0.0000   -5.1073    0.0000 C   0  0  0  0  0  0  0  0  0  0  0  0
   -0.0000   -3.6073    0.0000 C   0  0  0  0  0  0  0  0  0  0  0  0
    1.2135   -2.7256    0.0000 C   0  0  0  0  0  0  0  0  0  0  0  0
    2.6401   -3.1891    0.0000 C   0  0  0  0  0  0  0  0  0  0  0  0
    2.9520   -4.6564    0.0000 C   0  0  0  0  0  0  0  0  0  0  0  0
    4.3786   -5.1199    0.0000 C   0  0  0  0  0  0  0  0  0  0  0  0
    5.4933   -4.1162    0.0000 C   0  0  0  0  0  0  0  0  0  0  0  0
    5.1814   -2.6490    0.0000 C   0  0  0  0  0  0  0  0  0  0  0  0
    6.2961   -1.6453    0.0000 Cl  0  0  0  0  0  0  0  0  0  0  0  0
    3.7548   -2.1855    0.0000 C   0  0  0  0  0  0  0  0  0  0  0  0
    0.7500   -1.2990    0.0000 C   0  0  0  0  0  0  0  0  0  0  0  0
    1.5000    0.0000    0.0000 N   0  0  0  0  0  0  0  0  0  0  0  0
    0.7500    1.2990    0.0000 C   0  0  0  0  0  0  0  0  0  0  0  0
   -0.7500    1.2990    0.0000 C   0  0  0  0  0  0  0  0  0  0  0  0
   -1.5000    2.5981    0.0000 C   0  0  0  0  0  0  0  0  0  0  0  0
   -0.7500    3.8971    0.0000 O   0  0  0  0  0  0  0  0  0  0  0  0
   -3.0000    2.5981    0.0000 N   0  0  0  0  0  0  0  0  0  0  0  0
   -3.7500    3.8971    0.0000 C   0  0  0  0  0  0  0  0  0  0  0  0
   -5.2418    4.0539    0.0000 N   0  0  0  0  0  0  0  0  0  0  0  0
   -5.5537    5.5211    0.0000 N   0  0  0  0  0  0  0  0  0  0  0  0
   -4.2546    6.2711    0.0000 C   0  0  0  0  0  0  0  0  0  0  0  0
   -4.0978    7.7629    0.0000 C   0  0  0  0  0  0  0  0  0  0  0  0
   -3.1399    5.2674    0.0000 N   0  0  0  0  0  2  0  0  0  0  0  0
   -3.7500    1.2990    0.0000 C   0  0  0  0  0  0  0  0  0  0  0  0
   -3.0000    0.0000    0.0000 C   0  0  0  0  0  0  0  0  0  0  0  0
   -1.5000    0.0000    0.0000 C   0  0  0  0  0  0  0  0  0  0  0  0
   -0.7500   -1.2990    0.0000 N   0  0  0  0  0  0  0  0  0  0  0  0
   -1.2135   -2.7256    0.0000 N   0  0  0  0  0  0  0  0  0  0  0  0
  1  2  1  0
  2  3  1  0
  3  4  2  0
  4  5  1  0
  5  6  2  0
  6  7  1  0
  7  8  2  0
  8  9  1  0
  9 10  1  0
  9 11  2  0
  4 12  1  0
 12 13  2  0
 13 14  1  0
 14 15  2  0
 15 16  1  0
 16 17  2  0
 16 18  1  0
 18 19  1  0
 19 20  2  0
 20 21  1  0
 21 22  2  0
 22 23  1  0
 22 24  1  0
 18 25  1  0
 25 26  2  0
 26 27  1  0
 27 28  1  1
 28 29  1  0
 29  3  1  0
 11  5  1  0
 28 12  1  0
 27 15  1  0
 24 19  1  0
M  CHG  1  24  -1
M  END
>  <Compound_ID>  (474) 
C63349177

>  <Active>  (474) 
0.0

>  <Smiles>  (474) 
CCC1=C(c2cccc(Cl)c2)C2=NC=C3C(=O)N(c4nnc(C)[n-]4)C=C[C@@H]3N2N1

>  <canonical_smi>  (474) 
CCC1=C(c2cccc(Cl)c2)C2=NC=C3C(=O)N(c4nnc(C)[n-]4)C=C[C@@H]3N2N1

>  <Set>  (474) 
G2 inactive

>  <Set_type>  (474) 
Train

>  <MW>  (474) 
406.86

>  <HBD>  (474) 
1

>  <HBA>  (474) 
6

>  <NRB>  (474) 
3

>  <NR>  (474) 
5

>  <NAR>  (474) 
2

>  <PSA>  (474) 
87.82

>  <Standard Type>  (474) 
nan

>  <Standard Relation>  (474) 
nan

>  <Standard Units>  (474) 
nan

>  <Standard Value>  (474) 
nan

>  <Assay ChEMBL ID>  (474) 
nan

>  <Assay Description>  (474) 
nan

>  <BAO Label>  (474) 
nan

$$$$

     RDKit          2D

 25 28  0  0  0  0  0  0  0  0999 V2000
    2.2500   -1.2990    0.0000 C   0  0  0  0  0  0  0  0  0  0  0  0
    0.7500   -1.2990    0.0000 C   0  0  0  0  0  0  0  0  0  0  0  0
    1.5000    0.0000    0.0000 C   0  0  0  0  0  0  0  0  0  0  0  0
    0.7500    1.2990    0.0000 C   0  0  0  0  0  0  0  0  0  0  0  0
   -0.7500    1.2990    0.0000 C   0  0  0  0  0  0  0  0  0  0  0  0
   -1.5000    2.5981    0.0000 O   0  0  0  0  0  0  0  0  0  0  0  0
   -1.5000    0.0000    0.0000 C   0  0  0  0  0  0  0  0  0  0  0  0
   -0.7500   -1.2990    0.0000 C   0  0  0  0  0  0  0  0  0  0  0  0
   -1.5000   -2.5981    0.0000 C   0  0  0  0  0  0  0  0  0  0  0  0
   -0.7500   -3.8971    0.0000 C   0  0  0  0  0  0  0  0  0  0  0  0
    0.7500   -3.8971    0.0000 C   0  0  0  0  0  0  0  0  0  0  0  0
    1.5000   -5.1962    0.0000 C   0  0  0  0  0  0  0  0  0  0  0  0
    1.0365   -6.6227    0.0000 C   0  0  0  0  0  0  0  0  0  0  0  0
    2.2500   -7.5044    0.0000 C   0  0  0  0  0  0  0  0  0  0  0  0
    3.4635   -6.6227    0.0000 C   0  0  0  0  0  0  0  0  0  0  0  0
    4.8901   -7.0863    0.0000 N   0  0  0  0  0  0  0  0  0  0  0  0
    5.2020   -8.5535    0.0000 N   0  0  0  0  0  0  0  0  0  0  0  0
    6.6286   -9.0170    0.0000 C   0  0  0  0  0  0  0  0  0  0  0  0
    6.9404  -10.4842    0.0000 N   0  0  0  0  0  0  0  0  0  0  0  0
    7.7433   -8.0133    0.0000 O   0  0  0  0  0  0  0  0  0  0  0  0
    3.0000   -5.1962    0.0000 C   0  0  0  0  0  0  0  0  0  0  0  0
    4.4918   -5.3529    0.0000 C   0  0  0  0  0  0  0  0  0  0  0  0
    3.7500   -3.8971    0.0000 C   0  0  0  0  0  0  0  0  0  0  0  0
    3.0000   -2.5981    0.0000 C   0  0  0  0  0  0  0  0  0  0  0  0
    1.5000   -2.5981    0.0000 C   0  0  0  0  0  0  0  0  0  0  0  0
  2  1  1  1
  2  3  1  0
  3  4  1  0
  4  5  1  0
  5  6  1  1
  5  7  1  0
  8  7  1  1
  8  9  1  0
  9 10  1  0
 11 10  1  1
 11 12  1  0
 12 13  1  6
 13 14  1  0
 14 15  1  0
 15 16  2  0
 16 17  1  0
 17 18  1  0
 18 19  1  0
 18 20  2  0
 15 21  1  0
 21 22  1  1
 21 23  1  0
 23 24  1  0
 25 24  1  1
  8  2  1  0
 25 11  1  0
 25  2  1  0
 21 12  1  0
M  END
>  <Compound_ID>  (475) 
C04027972

>  <Active>  (475) 
0.0

>  <Smiles>  (475) 
C[C@]12CC[C@H](O)C[C@@H]1CC[C@@H]1[C@H]3CC/C(=N\NC(N)=O)[C@@]3(C)CC[C@@H]12

>  <canonical_smi>  (475) 
C[C@]12CC[C@H](O)C[C@@H]1CC[C@H]1[C@@H]2CC[C@]2(C)/C(=N/NC(N)=O)CC[C@H]12

>  <Set>  (475) 
G2 inactive

>  <Set_type>  (475) 
Train

>  <MW>  (475) 
347.5

>  <HBD>  (475) 
3

>  <HBA>  (475) 
2

>  <NRB>  (475) 
1

>  <NR>  (475) 
4

>  <NAR>  (475) 
0

>  <PSA>  (475) 
87.71

>  <Standard Type>  (475) 
nan

>  <Standard Relation>  (475) 
nan

>  <Standard Units>  (475) 
nan

>  <Standard Value>  (475) 
nan

>  <Assay ChEMBL ID>  (475) 
nan

>  <Assay Description>  (475) 
nan

>  <BAO Label>  (475) 
nan

$$$$

     RDKit          2D

 36 38  0  0  0  0  0  0  0  0999 V2000
    8.1510    6.4656    0.0000 C   0  0  0  0  0  0  0  0  0  0  0  0
    6.7244    6.0021    0.0000 O   0  0  0  0  0  0  0  0  0  0  0  0
    5.6097    7.0058    0.0000 C   0  0  0  0  0  0  0  0  0  0  0  0
    5.9215    8.4730    0.0000 O   0  0  0  0  0  0  0  0  0  0  0  0
    4.1831    6.5422    0.0000 C   0  0  0  0  0  0  0  0  0  0  0  0
    3.0684    7.5459    0.0000 C   0  0  0  0  0  0  0  0  0  0  0  0
    1.6418    7.0824    0.0000 C   0  0  0  0  0  0  0  0  0  0  0  0
    0.5271    8.0861    0.0000 C   0  0  0  0  0  0  0  0  0  0  0  0
    1.3299    5.6152    0.0000 C   0  0  0  0  0  0  0  0  0  0  0  0
   -0.0967    5.1517    0.0000 C   0  0  0  0  0  0  0  0  0  0  0  0
   -0.4086    3.6844    0.0000 C   0  0  0  0  0  0  0  0  0  0  0  0
   -1.8351    3.2209    0.0000 C   0  0  0  0  0  0  0  0  0  0  0  0
   -2.9499    4.2246    0.0000 O   0  0  0  0  0  0  0  0  0  0  0  0
   -2.6380    5.6918    0.0000 C   0  0  0  0  0  0  0  0  0  0  0  0
   -2.1470    1.7537    0.0000 C   0  0  0  0  0  0  0  0  0  0  0  0
   -3.5736    1.2902    0.0000 C   0  0  0  0  0  0  0  0  0  0  0  0
   -1.0323    0.7500    0.0000 C   0  0  0  0  0  0  0  0  0  0  0  0
    0.3943    1.2135    0.0000 C   0  0  0  0  0  0  0  0  0  0  0  0
    0.7062    2.6807    0.0000 C   0  0  0  0  0  0  0  0  0  0  0  0
    2.1328    3.1443    0.0000 O   0  0  0  0  0  0  0  0  0  0  0  0
    3.2475    2.1406    0.0000 C   0  0  0  0  0  0  0  0  0  0  0  0
    2.9356    0.6734    0.0000 O   0  0  0  0  0  0  0  0  0  0  0  0
    4.0503   -0.3303    0.0000 C   0  0  0  0  0  0  0  0  0  0  0  0
    3.7385   -1.7976    0.0000 C   0  0  0  0  0  0  0  0  0  0  0  0
    2.3119   -2.2611    0.0000 O   0  0  0  0  0  0  0  0  0  0  0  0
    4.8532   -2.8013    0.0000 O   0  0  0  0  0  1  0  0  0  0  0  0
    5.4769    0.1332    0.0000 C   0  0  0  0  0  0  0  0  0  0  0  0
    6.5916   -0.8705    0.0000 O   0  0  0  0  0  0  0  0  0  0  0  0
    5.7888    1.6004    0.0000 C   0  0  0  0  0  0  0  0  0  0  0  0
    7.2154    2.0639    0.0000 O   0  0  0  0  0  0  0  0  0  0  0  0
    4.6741    2.6041    0.0000 C   0  0  0  0  0  0  0  0  0  0  0  0
    4.9859    4.0713    0.0000 O   0  0  0  0  0  0  0  0  0  0  0  0
    1.2760    0.0000    0.0000 C   0  0  0  0  0  0  0  0  0  0  0  0
    2.7314   -0.3630    0.0000 O   0  0  0  0  0  0  0  0  0  0  0  0
    0.3943   -1.2135    0.0000 O   0  0  0  0  0  0  0  0  0  0  0  0
   -1.0323   -0.7500    0.0000 C   0  0  0  0  0  0  0  0  0  0  0  0
  1  2  1  0
  2  3  1  0
  3  4  2  0
  3  5  1  0
  5  6  1  0
  6  7  1  0
  7  8  1  0
  7  9  2  0
  9 10  1  0
 10 11  1  0
 11 12  2  0
 12 13  1  0
 13 14  1  0
 12 15  1  0
 15 16  1  0
 15 17  2  0
 17 18  1  0
 18 19  2  0
 19 20  1  0
 21 20  1  6
 21 22  1  0
 22 23  1  0
 23 24  1  1
 24 25  2  0
 24 26  1  0
 23 27  1  0
 27 28  1  6
 27 29  1  0
 29 30  1  1
 29 31  1  0
 31 32  1  1
 18 33  1  0
 33 34  2  0
 33 35  1  0
 35 36  1  0
 19 11  1  0
 31 21  1  0
 36 17  1  0
M  CHG  1  26  -1
M  END
>  <Compound_ID>  (476) 
C22063379

>  <Active>  (476) 
0.0

>  <Smiles>  (476) 
COC(=O)CC/C(C)=C/Cc1c(OC)c(C)c2c(c1O[C@H]1O[C@H](C(=O)[O-])[C@@H](O)[C@H](O)[C@@H]1O)C(=O)OC2

>  <canonical_smi>  (476) 
COC(=O)CC/C(C)=C/Cc1c(OC)c(C)c2c(c1O[C@H]1O[C@H](C(=O)[O-])[C@@H](O)[C@H](O)[C@@H]1O)C(=O)OC2

>  <Set>  (476) 
G2 inactive

>  <Set_type>  (476) 
Train

>  <MW>  (476) 
509.48

>  <HBD>  (476) 
3

>  <HBA>  (476) 
12

>  <NRB>  (476) 
9

>  <NR>  (476) 
3

>  <NAR>  (476) 
1

>  <PSA>  (476) 
181.11

>  <Standard Type>  (476) 
nan

>  <Standard Relation>  (476) 
nan

>  <Standard Units>  (476) 
nan

>  <Standard Value>  (476) 
nan

>  <Assay ChEMBL ID>  (476) 
nan

>  <Assay Description>  (476) 
nan

>  <BAO Label>  (476) 
nan

$$$$

     RDKit          2D

 29 32  0  0  0  0  0  0  0  0999 V2000
    3.0000    0.0000    0.0000 C   0  0  0  0  0  0  0  0  0  0  0  0
    1.5000    0.0000    0.0000 C   0  0  0  0  0  0  0  0  0  0  0  0
    0.7500   -1.2990    0.0000 C   0  0  0  0  0  0  0  0  0  0  0  0
   -0.7500   -1.2990    0.0000 C   0  0  0  0  0  0  0  0  0  0  0  0
   -1.5000    0.0000    0.0000 C   0  0  0  0  0  0  0  0  0  0  0  0
   -0.7500    1.2990    0.0000 C   0  0  0  0  0  0  0  0  0  0  0  0
    0.7500    1.2990    0.0000 C   0  0  0  0  0  0  0  0  0  0  0  0
    1.5000    2.5981    0.0000 N   0  0  0  0  0  0  0  0  0  0  0  0
    0.7500    3.8971    0.0000 C   0  0  0  0  0  0  0  0  0  0  0  0
   -0.7500    3.8971    0.0000 S   0  0  0  0  0  0  0  0  0  0  0  0
    1.5000    5.1962    0.0000 C   0  0  0  0  0  0  0  0  0  0  0  0
    0.7500    6.4952    0.0000 N   0  0  0  0  0  0  0  0  0  0  0  0
    1.5000    7.7942    0.0000 N   0  0  0  0  0  0  0  0  0  0  0  0
    0.7500    9.0933    0.0000 C   0  0  0  0  0  0  0  0  0  0  0  0
    1.5000   10.3923    0.0000 N   0  0  0  0  0  0  0  0  0  0  0  0
    0.7500   11.6913    0.0000 C   0  0  0  0  0  0  0  0  0  0  0  0
    1.5000   12.9904    0.0000 N   0  0  0  0  0  0  0  0  0  0  0  0
    0.8899   14.3607    0.0000 C   0  0  0  0  0  0  0  0  0  0  0  0
    2.0046   15.3644    0.0000 C   0  0  0  0  0  0  0  0  0  0  0  0
    3.3037   14.6144    0.0000 C   0  0  0  0  0  0  0  0  0  0  0  0
    2.9918   13.1472    0.0000 C   0  0  0  0  0  0  0  0  0  0  0  0
   -0.7500   11.6913    0.0000 N   0  0  0  0  0  0  0  0  0  0  0  0
   -1.5000   10.3923    0.0000 C   0  0  0  0  0  0  0  0  0  0  0  0
   -3.0000   10.3923    0.0000 N   0  0  0  0  0  0  0  0  0  0  0  0
   -3.8817    9.1788    0.0000 C   0  0  0  0  0  0  0  0  0  0  0  0
   -5.3083    9.6423    0.0000 C   0  0  0  0  0  0  0  0  0  0  0  0
   -5.3083   11.1423    0.0000 C   0  0  0  0  0  0  0  0  0  0  0  0
   -3.8817   11.6058    0.0000 C   0  0  0  0  0  0  0  0  0  0  0  0
   -0.7500    9.0933    0.0000 N   0  0  0  0  0  4  0  0  0  0  0  0
  1  2  1  0
  2  3  2  0
  3  4  1  0
  4  5  2  0
  5  6  1  0
  6  7  2  0
  7  8  1  0
  8  9  1  0
  9 10  2  0
  9 11  1  0
 11 12  1  0
 12 13  1  0
 13 14  1  0
 14 15  2  0
 15 16  1  0
 16 17  1  0
 17 18  1  0
 18 19  1  0
 19 20  1  0
 20 21  1  0
 16 22  2  0
 22 23  1  0
 23 24  1  0
 24 25  1  0
 25 26  1  0
 26 27  1  0
 27 28  1  0
 23 29  2  0
  7  2  1  0
 29 14  1  0
 21 17  1  0
 28 24  1  0
M  CHG  1  29   1
M  END
>  <Compound_ID>  (477) 
C27546185

>  <Active>  (477) 
0.0

>  <Smiles>  (477) 
Cc1ccccc1NC(=S)CNNc1nc(N2CCCC2)nc(N2CCCC2)[nH+]1

>  <canonical_smi>  (477) 
Cc1ccccc1NC(=S)CNNc1nc(N2CCCC2)nc(N2CCCC2)[nH+]1

>  <Set>  (477) 
G2 inactive

>  <Set_type>  (477) 
Train

>  <MW>  (477) 
413.58

>  <HBD>  (477) 
3

>  <HBA>  (477) 
8

>  <NRB>  (477) 
7

>  <NR>  (477) 
4

>  <NAR>  (477) 
2

>  <PSA>  (477) 
82.49

>  <Standard Type>  (477) 
nan

>  <Standard Relation>  (477) 
nan

>  <Standard Units>  (477) 
nan

>  <Standard Value>  (477) 
nan

>  <Assay ChEMBL ID>  (477) 
nan

>  <Assay Description>  (477) 
nan

>  <BAO Label>  (477) 
nan

$$$$

     RDKit          2D

 27 29  0  0  0  0  0  0  0  0999 V2000
    3.0000    0.0000    0.0000 O   0  0  0  0  0  0  0  0  0  0  0  0
    1.5000    0.0000    0.0000 C   0  0  0  0  0  0  0  0  0  0  0  0
    0.7500   -1.2990    0.0000 N   0  0  0  0  0  0  0  0  0  0  0  0
   -0.7500   -1.2990    0.0000 C   0  0  0  0  0  0  0  0  0  0  0  0
   -1.5000   -2.5981    0.0000 O   0  0  0  0  0  0  0  0  0  0  0  0
   -1.5000    0.0000    0.0000 C   0  0  0  0  0  0  0  0  0  0  0  0
   -3.0000    0.0000    0.0000 C   0  0  0  0  0  0  0  0  0  0  0  0
   -3.7500    1.2990    0.0000 N   0  0  0  0  0  0  0  0  0  0  0  0
   -5.2500    1.2990    0.0000 C   0  0  0  0  0  0  0  0  0  0  0  0
   -6.0000    2.5981    0.0000 C   0  0  0  0  0  0  0  0  0  0  0  0
   -7.5000    2.5981    0.0000 C   0  0  0  0  0  0  0  0  0  0  0  0
   -8.2500    3.8971    0.0000 N   0  0  0  0  0  4  0  0  0  0  0  0
   -7.5000    5.1962    0.0000 C   0  0  0  0  0  0  0  0  0  0  0  0
   -8.2500    6.4952    0.0000 C   0  0  0  0  0  0  0  0  0  0  0  0
   -9.7500    6.4952    0.0000 C   0  0  0  0  0  0  0  0  0  0  0  0
  -10.5000    5.1962    0.0000 C   0  0  0  0  0  0  0  0  0  0  0  0
   -9.7500    3.8971    0.0000 C   0  0  0  0  0  0  0  0  0  0  0  0
   -0.7500    1.2990    0.0000 C   0  0  0  0  0  0  0  0  0  0  0  0
   -1.5000    2.5981    0.0000 O   0  0  0  0  0  0  0  0  0  0  0  0
    0.7500    1.2990    0.0000 N   0  0  0  0  0  0  0  0  0  0  0  0
    1.5000    2.5981    0.0000 C   0  0  0  0  0  0  0  0  0  0  0  0
    3.0000    2.5981    0.0000 C   0  0  0  0  0  0  0  0  0  0  0  0
    3.7500    3.8971    0.0000 C   0  0  0  0  0  0  0  0  0  0  0  0
    3.0000    5.1962    0.0000 C   0  0  0  0  0  0  0  0  0  0  0  0
    3.7500    6.4952    0.0000 I   0  0  0  0  0  0  0  0  0  0  0  0
    1.5000    5.1962    0.0000 C   0  0  0  0  0  0  0  0  0  0  0  0
    0.7500    3.8971    0.0000 C   0  0  0  0  0  0  0  0  0  0  0  0
  1  2  2  0
  2  3  1  0
  3  4  2  0
  4  5  1  0
  4  6  1  0
  6  7  1  6
  7  8  2  0
  8  9  1  0
  9 10  1  0
 10 11  1  0
 11 12  1  0
 12 13  1  0
 13 14  1  0
 14 15  1  0
 15 16  1  0
 16 17  1  0
  6 18  1  0
 18 19  2  0
 18 20  1  0
 20 21  1  0
 21 22  2  0
 22 23  1  0
 23 24  2  0
 24 25  1  0
 24 26  1  0
 26 27  2  0
 20  2  1  0
 27 21  1  0
 17 12  1  0
M  CHG  1  12   1
M  END
>  <Compound_ID>  (478) 
C09244275

>  <Active>  (478) 
0.0

>  <Smiles>  (478) 
O=C1N=C(O)[C@H](/C=N/CCC[NH+]2CCCCC2)C(=O)N1c1ccc(I)cc1

>  <canonical_smi>  (478) 
O=C1N=C(O)[C@H](/C=N/CCC[NH+]2CCCCC2)C(=O)N1c1ccc(I)cc1

>  <Set>  (478) 
G2 inactive

>  <Set_type>  (478) 
Train

>  <MW>  (478) 
483.33

>  <HBD>  (478) 
2

>  <HBA>  (478) 
3

>  <NRB>  (478) 
6

>  <NR>  (478) 
3

>  <NAR>  (478) 
1

>  <PSA>  (478) 
86.77

>  <Standard Type>  (478) 
nan

>  <Standard Relation>  (478) 
nan

>  <Standard Units>  (478) 
nan

>  <Standard Value>  (478) 
nan

>  <Assay ChEMBL ID>  (478) 
nan

>  <Assay Description>  (478) 
nan

>  <BAO Label>  (478) 
nan

$$$$

     RDKit          2D

 25 27  0  0  0  0  0  0  0  0999 V2000
   -4.7368    5.6908    0.0000 C   0  0  0  0  0  0  0  0  0  0  0  0
   -5.0487    4.2236    0.0000 C   0  0  0  0  0  0  0  0  0  0  0  0
   -6.4752    3.7601    0.0000 C   0  0  0  0  0  0  0  0  0  0  0  0
   -6.7871    2.2929    0.0000 S   0  0  0  0  0  0  0  0  0  0  0  0
   -5.3199    1.9810    0.0000 O   0  0  0  0  0  0  0  0  0  0  0  0
   -8.2543    2.6047    0.0000 O   0  0  0  0  0  0  0  0  0  0  0  0
   -7.0990    0.8256    0.0000 N   0  0  0  0  0  0  0  0  0  0  0  0
   -5.9843   -0.1781    0.0000 C   0  0  0  0  0  0  0  0  0  0  0  0
   -4.5577    0.2855    0.0000 C   0  0  0  0  0  0  0  0  0  0  0  0
   -3.4430   -0.7182    0.0000 C   0  0  0  0  0  0  0  0  0  0  0  0
   -3.7548   -2.1855    0.0000 N   0  0  0  0  0  4  0  0  0  0  0  0
   -2.6401   -3.1891    0.0000 C   0  0  0  0  0  0  0  0  0  0  0  0
   -1.2135   -2.7256    0.0000 N   0  0  0  0  0  0  0  0  0  0  0  0
   -0.0000   -3.6073    0.0000 C   0  0  0  0  0  0  0  0  0  0  0  0
    0.0000   -5.1073    0.0000 O   0  0  0  0  0  0  0  0  0  0  0  0
    1.2135   -2.7256    0.0000 O   0  0  0  0  0  0  0  0  0  0  0  0
    0.7500   -1.2990    0.0000 C   0  0  0  0  0  0  0  0  0  0  0  0
    1.5000    0.0000    0.0000 C   0  0  0  0  0  0  0  0  0  0  0  0
    0.7500    1.2990    0.0000 C   0  0  0  0  0  0  0  0  0  0  0  0
    1.5000    2.5981    0.0000 Br  0  0  0  0  0  0  0  0  0  0  0  0
   -0.7500    1.2990    0.0000 C   0  0  0  0  0  0  0  0  0  0  0  0
   -1.5000    0.0000    0.0000 C   0  0  0  0  0  0  0  0  0  0  0  0
   -0.7500   -1.2990    0.0000 C   0  0  0  0  0  0  0  0  0  0  0  0
   -5.1814   -2.6490    0.0000 C   0  0  0  0  0  0  0  0  0  0  0  0
   -6.2961   -1.6453    0.0000 C   0  0  0  0  0  0  0  0  0  0  0  0
  1  2  1  0
  2  3  1  0
  3  4  1  0
  4  5  2  0
  4  6  2  0
  4  7  1  0
  7  8  1  0
  8  9  1  0
  9 10  1  0
 10 11  1  0
 11 12  1  0
 12 13  1  0
 13 14  1  0
 14 15  2  0
 14 16  1  0
 16 17  1  0
 17 18  2  0
 18 19  1  0
 19 20  1  0
 19 21  2  0
 21 22  1  0
 22 23  2  0
 11 24  1  0
 24 25  1  0
 25  8  1  0
 23 13  1  0
 23 17  1  0
M  CHG  1  11   1
M  END
>  <Compound_ID>  (479) 
C48289157

>  <Active>  (479) 
0.0

>  <Smiles>  (479) 
CCCS(=O)(=O)NC1CC[NH+](Cn2c(=O)oc3cc(Br)ccc32)CC1

>  <canonical_smi>  (479) 
CCCS(=O)(=O)NC1CC[NH+](Cn2c(=O)oc3cc(Br)ccc32)CC1

>  <Set>  (479) 
G2 inactive

>  <Set_type>  (479) 
Train

>  <MW>  (479) 
433.35

>  <HBD>  (479) 
2

>  <HBA>  (479) 
4

>  <NRB>  (479) 
6

>  <NR>  (479) 
3

>  <NAR>  (479) 
2

>  <PSA>  (479) 
85.75

>  <Standard Type>  (479) 
nan

>  <Standard Relation>  (479) 
nan

>  <Standard Units>  (479) 
nan

>  <Standard Value>  (479) 
nan

>  <Assay ChEMBL ID>  (479) 
nan

>  <Assay Description>  (479) 
nan

>  <BAO Label>  (479) 
nan

$$$$

     RDKit          2D

 27 30  0  0  0  0  0  0  0  0999 V2000
    4.2558    4.6904    0.0000 O   0  0  0  0  0  0  0  0  0  0  0  0
    3.2521    5.8051    0.0000 C   0  0  0  0  0  0  0  0  0  0  0  0
    3.7156    7.2317    0.0000 C   0  0  0  0  0  0  0  0  0  0  0  0
    5.1828    7.5436    0.0000 N   0  0  0  0  0  4  0  0  0  0  0  0
    6.2976    6.5399    0.0000 C   0  0  0  0  0  0  0  0  0  0  0  0
    7.5966    7.2899    0.0000 C   0  0  0  0  0  0  0  0  0  0  0  0
    7.2847    8.7571    0.0000 C   0  0  0  0  0  0  0  0  0  0  0  0
    5.7929    8.9139    0.0000 C   0  0  0  0  0  0  0  0  0  0  0  0
    5.0429   10.2130    0.0000 C   0  0  0  0  0  0  0  0  0  0  0  0
    3.5429   10.2130    0.0000 O   0  0  0  0  0  0  0  0  0  0  0  0
    5.7929   11.5120    0.0000 N   0  0  0  0  0  0  0  0  0  0  0  0
    5.0429   12.8110    0.0000 C   0  0  0  0  0  0  0  0  0  0  0  0
    5.7929   14.1101    0.0000 C   0  0  0  0  0  0  0  0  0  0  0  0
    7.2929   14.1101    0.0000 S   0  0  0  0  0  0  0  0  0  0  0  0
    8.0429   12.8110    0.0000 C   0  0  0  0  0  0  0  0  0  0  0  0
    7.2929   11.5120    0.0000 C   0  0  0  0  0  0  0  0  0  0  0  0
    1.7849    5.4933    0.0000 N   0  0  0  0  0  0  0  0  0  0  0  0
    1.3213    4.0667    0.0000 C   0  0  0  0  0  0  0  0  0  0  0  0
   -0.1459    3.7548    0.0000 C   0  0  0  0  0  0  0  0  0  0  0  0
   -0.6094    2.3282    0.0000 C   0  0  0  0  0  0  0  0  0  0  0  0
    0.3943    1.2135    0.0000 C   0  0  0  0  0  0  0  0  0  0  0  0
    1.8615    1.5254    0.0000 C   0  0  0  0  0  0  0  0  0  0  0  0
    2.3250    2.9520    0.0000 C   0  0  0  0  0  0  0  0  0  0  0  0
    1.2760    0.0000    0.0000 O   0  0  0  0  0  0  0  0  0  0  0  0
    0.3943   -1.2135    0.0000 C   0  0  0  0  0  0  0  0  0  0  0  0
   -1.0323   -0.7500    0.0000 C   0  0  0  0  0  0  0  0  0  0  0  0
   -1.0323    0.7500    0.0000 O   0  0  0  0  0  0  0  0  0  0  0  0
  1  2  2  0
  2  3  1  0
  3  4  1  0
  4  5  1  0
  5  6  1  0
  6  7  1  0
  7  8  1  0
  8  9  1  1
  9 10  2  0
  9 11  1  0
 11 12  1  0
 12 13  1  0
 13 14  1  0
 14 15  1  0
 15 16  1  0
  2 17  1  0
 17 18  1  0
 18 19  1  0
 19 20  1  0
 20 21  1  0
 21 22  1  0
 22 23  1  0
 21 24  1  0
 24 25  1  0
 25 26  1  0
 26 27  1  0
  8  4  1  0
 16 11  1  0
 23 18  1  0
 27 21  1  0
M  CHG  1   4   1
M  END
>  <Compound_ID>  (480) 
C67117619

>  <Active>  (480) 
0.0

>  <Smiles>  (480) 
O=C(C[NH+]1CCC[C@@H]1C(=O)N1CCSCC1)NC1CCC2(CC1)OCCO2

>  <canonical_smi>  (480) 
O=C(C[NH+]1CCC[C@@H]1C(=O)N1CCSCC1)NC1CCC2(CC1)OCCO2

>  <Set>  (480) 
G2 inactive

>  <Set_type>  (480) 
Train

>  <MW>  (480) 
398.55

>  <HBD>  (480) 
2

>  <HBA>  (480) 
5

>  <NRB>  (480) 
4

>  <NR>  (480) 
4

>  <NAR>  (480) 
0

>  <PSA>  (480) 
72.31

>  <Standard Type>  (480) 
nan

>  <Standard Relation>  (480) 
nan

>  <Standard Units>  (480) 
nan

>  <Standard Value>  (480) 
nan

>  <Assay ChEMBL ID>  (480) 
nan

>  <Assay Description>  (480) 
nan

>  <BAO Label>  (480) 
nan

$$$$

     RDKit          2D

 30 35  0  0  0  0  0  0  0  0999 V2000
    6.9240   -8.7293    0.0000 C   0  0  0  0  0  0  0  0  0  0  0  0
    5.5537   -8.1192    0.0000 C   0  0  0  0  0  0  0  0  0  0  0  0
    5.2418   -6.6520    0.0000 N   0  0  0  0  0  0  0  0  0  0  0  0
    3.7500   -6.4952    0.0000 N   0  0  0  0  0  0  0  0  0  0  0  0
    3.0000   -5.1962    0.0000 C   0  0  0  0  0  0  0  0  0  0  0  0
    3.7500   -3.8971    0.0000 C   0  0  0  0  0  0  0  0  0  0  0  0
    3.0000   -2.5981    0.0000 C   0  0  0  0  0  0  0  0  0  0  0  0
    1.5000   -2.5981    0.0000 C   0  0  0  0  0  0  0  0  0  0  0  0
    0.7500   -1.2990    0.0000 C   0  0  0  0  0  0  0  0  0  0  0  0
    1.5000    0.0000    0.0000 C   0  0  0  0  0  0  0  0  0  0  0  0
    0.7500    1.2990    0.0000 C   0  0  0  0  0  0  0  0  0  0  0  0
   -0.7500    1.2990    0.0000 C   0  0  0  0  0  0  0  0  0  0  0  0
   -1.5000    0.0000    0.0000 C   0  0  0  0  0  0  0  0  0  0  0  0
    1.7010   -0.7500    0.0000 C   0  0  0  0  0  0  0  0  0  0  0  0
    3.0000   -0.0000    0.0000 C   0  0  0  0  0  0  0  0  0  0  0  0
    2.2500    1.2990    0.0000 C   0  0  0  0  0  0  0  0  0  0  0  0
    2.2500   -1.2990    0.0000 C   0  0  0  0  0  0  0  0  0  0  0  0
   -0.7500   -1.2990    0.0000 C   0  0  0  0  0  0  0  0  0  0  0  0
    0.7500   -3.8971    0.0000 C   0  0  0  0  0  0  0  0  0  0  0  0
    1.5000   -5.1962    0.0000 C   0  0  0  0  0  0  0  0  0  0  0  0
    3.1399   -7.8655    0.0000 C   0  0  0  0  0  0  0  0  0  0  0  0
    1.6727   -8.1774    0.0000 O   0  0  0  0  0  0  0  0  0  0  0  0
    4.2546   -8.8692    0.0000 C   0  0  0  0  0  0  0  0  0  0  0  0
    4.0978  -10.3610    0.0000 C   0  0  0  0  0  0  0  0  0  0  0  0
    5.3113  -11.2427    0.0000 N   0  0  0  0  0  0  0  0  0  0  0  0
    5.1546  -12.7344    0.0000 N   0  0  0  0  0  0  0  0  0  0  0  0
    6.2693  -13.7381    0.0000 C   0  0  0  0  0  0  0  0  0  0  0  0
    5.6592  -15.1085    0.0000 N   0  0  0  0  0  0  0  0  0  0  0  0
    4.1674  -14.9517    0.0000 N   0  0  0  0  0  0  0  0  0  0  0  0
    3.8555  -13.4844    0.0000 C   0  0  0  0  0  0  0  0  0  0  0  0
  1  2  1  0
  2  3  2  0
  3  4  1  0
  4  5  1  0
  5  6  2  0
  6  7  1  0
  7  8  2  0
  8  9  1  0
  9 10  1  0
 10 11  1  0
 11 12  1  0
 12 13  1  0
 13 14  1  0
 14 15  1  0
 15 16  1  0
 15 17  1  0
 13 18  1  0
  8 19  1  0
 19 20  2  0
  4 21  1  0
 21 22  2  0
 21 23  1  0
 23 24  2  0
 24 25  1  0
 25 26  1  0
 26 27  1  0
 27 28  2  0
 28 29  1  0
 29 30  2  0
 23  2  1  0
 30 26  1  0
 20  5  1  0
 17  9  1  0
 18  9  1  0
 16 11  1  0
M  END
>  <Compound_ID>  (481) 
C17193974

>  <Active>  (481) 
0.0

>  <Smiles>  (481) 
CC1=NN(c2ccc(C34CC5CC(CC(C5)C3)C4)cc2)C(=O)/C1=C/Nn1cnnc1

>  <canonical_smi>  (481) 
CC1=NN(c2ccc(C34CC5CC(CC(C5)C3)C4)cc2)C(=O)/C1=C/Nn1cnnc1

>  <Set>  (481) 
G2 inactive

>  <Set_type>  (481) 
Train

>  <MW>  (481) 
402.5

>  <HBD>  (481) 
1

>  <HBA>  (481) 
4

>  <NRB>  (481) 
4

>  <NR>  (481) 
7

>  <NAR>  (481) 
2

>  <PSA>  (481) 
75.41

>  <Standard Type>  (481) 
nan

>  <Standard Relation>  (481) 
nan

>  <Standard Units>  (481) 
nan

>  <Standard Value>  (481) 
nan

>  <Assay ChEMBL ID>  (481) 
nan

>  <Assay Description>  (481) 
nan

>  <BAO Label>  (481) 
nan

$$$$

     RDKit          2D

 26 28  0  0  0  0  0  0  0  0999 V2000
    3.0000    0.0000    0.0000 C   0  0  0  0  0  0  0  0  0  0  0  0
    1.5000    0.0000    0.0000 C   0  0  0  0  0  0  0  0  0  0  0  0
    0.7500   -1.2990    0.0000 C   0  0  0  0  0  0  0  0  0  0  0  0
   -0.7500   -1.2990    0.0000 N   0  0  0  0  0  0  0  0  0  0  0  0
   -1.5000   -2.5981    0.0000 C   0  0  0  0  0  0  0  0  0  0  0  0
   -3.0000   -2.5981    0.0000 C   0  0  0  0  0  0  0  0  0  0  0  0
   -3.8817   -3.8116    0.0000 C   0  0  0  0  0  0  0  0  0  0  0  0
   -5.3083   -3.3481    0.0000 S   0  0  0  0  0  0  0  0  0  0  0  0
   -5.3083   -1.8481    0.0000 C   0  0  0  0  0  0  0  0  0  0  0  0
   -6.5218   -0.9664    0.0000 N   0  0  0  0  0  0  0  0  0  0  0  0
   -7.8921   -1.5765    0.0000 S   0  0  0  0  0  0  0  0  0  0  0  0
   -7.2820   -2.9468    0.0000 O   0  0  0  0  0  0  0  0  0  0  0  0
   -8.5022   -0.2062    0.0000 O   0  0  0  0  0  0  0  0  0  0  0  0
   -9.2624   -2.1866    0.0000 C   0  0  0  0  0  0  0  0  0  0  0  0
  -10.4760   -1.3049    0.0000 C   0  0  0  0  0  0  0  0  0  0  0  0
  -11.8463   -1.9150    0.0000 C   0  0  0  0  0  0  0  0  0  0  0  0
  -12.0031   -3.4068    0.0000 C   0  0  0  0  0  0  0  0  0  0  0  0
  -10.7895   -4.2885    0.0000 C   0  0  0  0  0  0  0  0  0  0  0  0
   -9.4192   -3.6784    0.0000 C   0  0  0  0  0  0  0  0  0  0  0  0
   -8.2057   -4.5601    0.0000 C   0  0  0  0  0  0  0  0  0  0  0  0
   -6.9922   -5.4417    0.0000 N   0  0  0  0  0  0  0  0  0  0  0  0
   -3.8817   -1.3846    0.0000 N   0  0  0  0  0  0  0  0  0  0  0  0
   -1.5000    0.0000    0.0000 C   0  0  0  0  0  0  0  0  0  0  0  0
   -0.7500    1.2990    0.0000 C   0  0  0  0  0  0  0  0  0  0  0  0
   -1.5000    2.5981    0.0000 C   0  0  0  0  0  0  0  0  0  0  0  0
    0.7500    1.2990    0.0000 O   0  0  0  0  0  0  0  0  0  0  0  0
  2  1  1  1
  2  3  1  0
  3  4  1  0
  4  5  1  0
  5  6  1  0
  6  7  2  0
  7  8  1  0
  8  9  1  0
  9 10  2  0
 10 11  1  0
 11 12  2  0
 11 13  2  0
 11 14  1  0
 14 15  2  0
 15 16  1  0
 16 17  2  0
 17 18  1  0
 18 19  2  0
 19 20  1  0
 20 21  3  0
  9 22  1  0
  4 23  1  0
 23 24  1  0
 24 25  1  6
 24 26  1  0
 26  2  1  0
 22  6  1  0
 19 14  1  0
M  END
>  <Compound_ID>  (482) 
C66250748

>  <Active>  (482) 
0.0

>  <Smiles>  (482) 
C[C@H]1CN(Cc2cs/c(=N\S(=O)(=O)c3ccccc3C#N)[nH]2)C[C@H](C)O1

>  <canonical_smi>  (482) 
C[C@H]1CN(Cc2cs/c(=N\S(=O)(=O)c3ccccc3C#N)[nH]2)C[C@H](C)O1

>  <Set>  (482) 
G2 inactive

>  <Set_type>  (482) 
Train

>  <MW>  (482) 
392.51

>  <HBD>  (482) 
1

>  <HBA>  (482) 
5

>  <NRB>  (482) 
4

>  <NR>  (482) 
3

>  <NAR>  (482) 
2

>  <PSA>  (482) 
98.55

>  <Standard Type>  (482) 
nan

>  <Standard Relation>  (482) 
nan

>  <Standard Units>  (482) 
nan

>  <Standard Value>  (482) 
nan

>  <Assay ChEMBL ID>  (482) 
nan

>  <Assay Description>  (482) 
nan

>  <BAO Label>  (482) 
nan

$$$$

     RDKit          2D

 29 32  0  0  0  0  0  0  0  0999 V2000
    6.0961    5.6301    0.0000 C   0  0  0  0  0  0  0  0  0  0  0  0
    5.4656    4.2691    0.0000 C   0  0  0  0  0  0  0  0  0  0  0  0
    3.9716    4.1346    0.0000 O   0  0  0  0  0  0  0  0  0  0  0  0
    3.3411    2.7736    0.0000 C   0  0  0  0  0  0  0  0  0  0  0  0
    4.2045    1.5470    0.0000 O   0  0  0  0  0  0  0  0  0  0  0  0
    1.8471    2.6391    0.0000 C   0  0  0  0  0  0  0  0  0  0  0  0
    1.0777    1.3515    0.0000 C   0  0  0  0  0  0  0  0  0  0  0  0
    1.7286    0.0000    0.0000 C   0  0  0  0  0  0  0  0  0  0  0  0
    1.0777   -1.3515    0.0000 C   0  0  0  0  0  0  0  0  0  0  0  0
   -0.3846   -1.6852    0.0000 C   0  0  0  0  0  0  0  0  0  0  0  0
   -1.5574   -0.7500    0.0000 C   0  0  0  0  0  0  0  0  0  0  0  0
   -1.5574    0.7500    0.0000 C   0  0  0  0  0  0  0  0  0  0  0  0
   -0.3846    1.6852    0.0000 C   0  0  0  0  0  0  0  0  0  0  0  0
   -0.5191    3.1792    0.0000 S   0  0  0  0  0  0  0  0  0  0  0  0
    0.8602    3.7687    0.0000 C   0  0  0  0  0  0  0  0  0  0  0  0
    1.1940    5.2311    0.0000 N   0  0  0  0  0  0  0  0  0  0  0  0
    0.0944    6.2514    0.0000 C   0  0  0  0  0  0  0  0  0  0  0  0
   -1.3390    5.8093    0.0000 O   0  0  0  0  0  0  0  0  0  0  0  0
    0.4282    7.7138    0.0000 C   0  0  0  0  0  0  0  0  0  0  0  0
   -0.6714    8.7340    0.0000 S   0  0  0  0  0  0  0  0  0  0  0  0
   -0.3376   10.1964    0.0000 C   0  0  0  0  0  0  0  0  0  0  0  0
    1.0957   10.6386    0.0000 N   0  0  0  0  0  0  0  0  0  0  0  0
    1.4295   12.1010    0.0000 C   0  0  0  0  0  0  0  0  0  0  0  0
    0.3299   13.1212    0.0000 N   0  0  0  0  0  0  0  0  0  0  0  0
   -1.1034   12.6791    0.0000 C   0  0  0  0  0  0  0  0  0  0  0  0
   -2.3911   13.4484    0.0000 N   0  0  0  0  0  0  0  0  0  0  0  0
   -3.5207   12.4615    0.0000 C   0  0  0  0  0  0  0  0  0  0  0  0
   -2.9312   11.0822    0.0000 N   0  0  0  0  0  0  0  0  0  0  0  0
   -1.4372   11.2167    0.0000 C   0  0  0  0  0  0  0  0  0  0  0  0
  1  2  1  0
  2  3  1  0
  3  4  1  0
  4  5  2  0
  4  6  1  0
  6  7  2  0
  7  8  1  0
  8  9  1  0
  9 10  1  0
 10 11  1  0
 11 12  1  0
 13 12  1  6
 13 14  1  0
 14 15  1  0
 15 16  1  6
 16 17  1  0
 17 18  2  0
 17 19  1  0
 19 20  1  0
 20 21  1  0
 21 22  2  0
 22 23  1  0
 23 24  2  0
 24 25  1  0
 25 26  2  0
 26 27  1  0
 27 28  2  0
 29 28  1  1
 15  6  1  0
 29 21  1  0
 13  7  1  0
 29 25  1  0
M  END
>  <Compound_ID>  (483) 
C64688263

>  <Active>  (483) 
0.0

>  <Smiles>  (483) 
CCOC(=O)C1=C2CCCCC[C@@H]2S[C@@H]1NC(=O)CSC1=NC=NC2=NC=N[C@@H]21

>  <canonical_smi>  (483) 
CCOC(=O)C1=C2CCCCC[C@@H]2S[C@@H]1NC(=O)CSC1=NC=NC2=NC=N[C@@H]21

>  <Set>  (483) 
G2 inactive

>  <Set_type>  (483) 
Train

>  <MW>  (483) 
433.56

>  <HBD>  (483) 
1

>  <HBA>  (483) 
5

>  <NRB>  (483) 
5

>  <NR>  (483) 
4

>  <NAR>  (483) 
0

>  <PSA>  (483) 
104.84

>  <Standard Type>  (483) 
nan

>  <Standard Relation>  (483) 
nan

>  <Standard Units>  (483) 
nan

>  <Standard Value>  (483) 
nan

>  <Assay ChEMBL ID>  (483) 
nan

>  <Assay Description>  (483) 
nan

>  <BAO Label>  (483) 
nan

$$$$

     RDKit          2D

 30 32  0  0  0  0  0  0  0  0999 V2000
    3.0000   -5.1962    0.0000 O   0  0  0  0  0  0  0  0  0  0  0  0
    1.5000   -5.1962    0.0000 C   0  0  0  0  0  0  0  0  0  0  0  0
    0.7500   -3.8971    0.0000 C   0  0  0  0  0  0  0  0  0  0  0  0
    1.5000   -2.5981    0.0000 O   0  0  0  0  0  0  0  0  0  0  0  0
    0.7500   -1.2990    0.0000 C   0  0  0  0  0  0  0  0  0  0  0  0
    1.5000    0.0000    0.0000 C   0  0  0  0  0  0  0  0  0  0  0  0
    0.7500    1.2990    0.0000 C   0  0  0  0  0  0  0  0  0  0  0  0
   -0.7500    1.2990    0.0000 C   0  0  0  0  0  0  0  0  0  0  0  0
   -1.5000    2.5981    0.0000 C   0  0  0  0  0  0  0  0  0  0  0  0
   -0.7500    3.8971    0.0000 N   0  0  0  0  0  0  0  0  0  0  0  0
   -1.5000    5.1962    0.0000 N   0  0  0  0  0  0  0  0  0  0  0  0
   -0.7500    6.4952    0.0000 C   0  0  0  0  0  0  0  0  0  0  0  0
    0.7500    6.4952    0.0000 O   0  0  0  0  0  0  0  0  0  0  0  0
   -1.5000    7.7942    0.0000 C   0  0  0  0  0  0  0  0  0  0  0  0
   -3.0000    7.7942    0.0000 O   0  0  0  0  0  0  0  0  0  0  0  0
   -0.7500    9.0933    0.0000 N   0  0  0  0  0  0  0  0  0  0  0  0
    0.7500    9.0933    0.0000 C   0  0  0  0  0  0  0  0  0  0  0  0
    1.5000   10.3923    0.0000 C   0  0  0  0  0  0  0  0  0  0  0  0
    0.7500   11.6913    0.0000 C   0  0  0  0  0  0  0  0  0  0  0  0
   -0.7500   11.6913    0.0000 C   0  0  0  0  0  0  0  0  0  0  0  0
   -1.5000   10.3923    0.0000 C   0  0  0  0  0  0  0  0  0  0  0  0
   -1.5000    0.0000    0.0000 C   0  0  0  0  0  0  0  0  0  0  0  0
   -0.7500   -1.2990    0.0000 C   0  0  0  0  0  0  0  0  0  0  0  0
    0.7500   -6.4952    0.0000 N   0  0  0  0  0  0  0  0  0  0  0  0
    1.5000   -7.7942    0.0000 C   0  0  0  0  0  0  0  0  0  0  0  0
    0.7500   -9.0933    0.0000 C   0  0  0  0  0  0  0  0  0  0  0  0
    1.3601  -10.4636    0.0000 C   0  0  0  0  0  0  0  0  0  0  0  0
    0.2454  -11.4673    0.0000 C   0  0  0  0  0  0  0  0  0  0  0  0
   -1.0537  -10.7173    0.0000 C   0  0  0  0  0  0  0  0  0  0  0  0
   -0.7418   -9.2501    0.0000 O   0  0  0  0  0  0  0  0  0  0  0  0
  1  2  2  0
  2  3  1  0
  3  4  1  0
  4  5  1  0
  5  6  2  0
  6  7  1  0
  7  8  2  0
  8  9  1  0
  9 10  2  0
 10 11  1  0
 11 12  1  0
 12 13  2  0
 12 14  1  0
 14 15  2  0
 14 16  1  0
 16 17  1  0
 17 18  1  0
 18 19  1  0
 19 20  1  0
 20 21  1  0
  8 22  1  0
 22 23  2  0
  2 24  1  0
 24 25  1  0
 25 26  1  0
 26 27  2  0
 27 28  1  0
 28 29  2  0
 29 30  1  0
 23  5  1  0
 30 26  1  0
 21 16  1  0
M  END
>  <Compound_ID>  (484) 
C58880658

>  <Active>  (484) 
0.0

>  <Smiles>  (484) 
O=C(COc1ccc(/C=N/NC(=O)C(=O)N2CCCCC2)cc1)NCc1ccco1

>  <canonical_smi>  (484) 
O=C(COc1ccc(/C=N/NC(=O)C(=O)N2CCCCC2)cc1)NCc1ccco1

>  <Set>  (484) 
G2 inactive

>  <Set_type>  (484) 
Train

>  <MW>  (484) 
412.45

>  <HBD>  (484) 
2

>  <HBA>  (484) 
5

>  <NRB>  (484) 
7

>  <NR>  (484) 
3

>  <NAR>  (484) 
2

>  <PSA>  (484) 
113.24

>  <Standard Type>  (484) 
nan

>  <Standard Relation>  (484) 
nan

>  <Standard Units>  (484) 
nan

>  <Standard Value>  (484) 
nan

>  <Assay ChEMBL ID>  (484) 
nan

>  <Assay Description>  (484) 
nan

>  <BAO Label>  (484) 
nan

$$$$

     RDKit          2D

 25 27  0  0  0  0  0  0  0  0999 V2000
    3.7500    1.2990    0.0000 O   0  0  0  0  0  0  0  0  0  0  0  0
    3.0000    0.0000    0.0000 N   0  0  0  0  0  4  0  0  0  0  0  0
    3.7500   -1.2990    0.0000 O   0  0  0  0  0  1  0  0  0  0  0  0
    1.5000    0.0000    0.0000 C   0  0  0  0  0  0  0  0  0  0  0  0
    0.7500   -1.2990    0.0000 C   0  0  0  0  0  0  0  0  0  0  0  0
   -0.7500   -1.2990    0.0000 C   0  0  0  0  0  0  0  0  0  0  0  0
   -1.5000   -2.5981    0.0000 Br  0  0  0  0  0  0  0  0  0  0  0  0
   -1.5000    0.0000    0.0000 C   0  0  0  0  0  0  0  0  0  0  0  0
   -0.7500    1.2990    0.0000 C   0  0  0  0  0  0  0  0  0  0  0  0
   -1.5000    2.5981    0.0000 C   0  0  0  0  0  0  0  0  0  0  0  0
   -0.7500    3.8971    0.0000 N   0  0  0  0  0  0  0  0  0  0  0  0
   -1.5000    5.1962    0.0000 C   0  0  0  0  0  0  0  0  0  0  0  0
   -0.7500    6.4952    0.0000 C   0  0  0  0  0  0  0  0  0  0  0  0
   -1.5000    7.7942    0.0000 C   0  0  0  0  0  0  0  0  0  0  0  0
   -3.0000    7.7942    0.0000 C   0  0  0  0  0  0  0  0  0  0  0  0
   -3.7500    6.4952    0.0000 C   0  0  0  0  0  0  0  0  0  0  0  0
   -3.0000    5.1962    0.0000 C   0  0  0  0  0  0  0  0  0  0  0  0
   -3.7500    3.8971    0.0000 N   0  0  0  0  0  0  0  0  0  0  0  0
   -5.2500    3.8971    0.0000 C   0  0  0  0  0  0  0  0  0  0  0  0
   -6.0000    2.5981    0.0000 C   0  0  0  0  0  0  0  0  0  0  0  0
   -5.2500    1.2990    0.0000 C   0  0  0  0  0  0  0  0  0  0  0  0
   -3.7500    1.2990    0.0000 C   0  0  0  0  0  0  0  0  0  0  0  0
   -3.0000    2.5981    0.0000 C   0  0  0  0  0  0  0  0  0  0  0  0
    0.7500    1.2990    0.0000 C   0  0  0  0  0  0  0  0  0  0  0  0
    1.5000    2.5981    0.0000 O   0  0  0  0  0  1  0  0  0  0  0  0
  1  2  2  0
  2  3  1  0
  2  4  1  0
  4  5  2  0
  5  6  1  0
  6  7  1  0
  6  8  2  0
  8  9  1  0
  9 10  1  0
 10 11  2  0
 11 12  1  0
 12 13  2  0
 13 14  1  0
 14 15  2  0
 15 16  1  0
 16 17  2  0
 17 18  1  0
 18 19  1  0
 19 20  1  0
 20 21  1  0
 21 22  1  0
 22 23  1  0
  9 24  2  0
 24 25  1  0
 24  4  1  0
 17 12  1  0
 23 18  1  0
M  CHG  3   2   1   3  -1  25  -1
M  END
>  <Compound_ID>  (485) 
C06615556

>  <Active>  (485) 
0.0

>  <Smiles>  (485) 
O=[N+]([O-])c1cc(Br)cc(/C=N/c2ccccc2N2CCCCC2)c1[O-]

>  <canonical_smi>  (485) 
O=[N+]([O-])c1cc(Br)cc(/C=N/c2ccccc2N2CCCCC2)c1[O-]

>  <Set>  (485) 
G2 inactive

>  <Set_type>  (485) 
Train

>  <MW>  (485) 
403.26

>  <HBD>  (485) 
0

>  <HBA>  (485) 
4

>  <NRB>  (485) 
4

>  <NR>  (485) 
3

>  <NAR>  (485) 
2

>  <PSA>  (485) 
81.8

>  <Standard Type>  (485) 
nan

>  <Standard Relation>  (485) 
nan

>  <Standard Units>  (485) 
nan

>  <Standard Value>  (485) 
nan

>  <Assay ChEMBL ID>  (485) 
nan

>  <Assay Description>  (485) 
nan

>  <BAO Label>  (485) 
nan

$$$$

     RDKit          2D

 26 29  0  0  0  0  0  0  0  0999 V2000
   -0.7680    8.9944    0.0000 O   0  0  0  0  0  0  0  0  0  0  0  0
   -1.8827    9.9981    0.0000 S   0  0  0  0  0  0  0  0  0  0  0  0
   -2.9974   11.0018    0.0000 O   0  0  0  0  0  0  0  0  0  0  0  0
   -2.8864    8.8834    0.0000 N   0  0  0  0  0  2  0  0  0  0  0  0
   -2.4229    7.4568    0.0000 C   0  0  0  0  0  0  0  0  0  0  0  0
   -3.4266    6.3421    0.0000 C   0  0  0  0  0  0  0  0  0  0  0  0
   -2.9630    4.9155    0.0000 C   0  0  0  0  0  0  0  0  0  0  0  0
   -1.4958    4.6036    0.0000 C   0  0  0  0  0  0  0  0  0  0  0  0
   -1.0323    3.1771    0.0000 C   0  0  0  0  0  0  0  0  0  0  0  0
   -1.9140    1.9635    0.0000 C   0  0  0  0  0  0  0  0  0  0  0  0
   -1.0323    0.7500    0.0000 N   0  0  0  0  0  0  0  0  0  0  0  0
    0.3943    1.2135    0.0000 C   0  0  0  0  0  0  0  0  0  0  0  0
    0.3943    2.7135    0.0000 N   0  0  0  0  0  0  0  0  0  0  0  0
    1.2760    0.0000    0.0000 S   0  0  0  0  0  0  0  0  0  0  0  0
    0.3943   -1.2135    0.0000 C   0  0  0  0  0  0  0  0  0  0  0  0
   -1.0323   -0.7500    0.0000 C   0  0  0  0  0  0  0  0  0  0  0  0
   -0.4921    5.7184    0.0000 C   0  0  0  0  0  0  0  0  0  0  0  0
   -0.9556    7.1449    0.0000 C   0  0  0  0  0  0  0  0  0  0  0  0
   -0.8790   11.1128    0.0000 C   0  0  0  0  0  0  0  0  0  0  0  0
    0.5882   10.8010    0.0000 C   0  0  0  0  0  0  0  0  0  0  0  0
    1.5919   11.9157    0.0000 C   0  0  0  0  0  0  0  0  0  0  0  0
    1.1284   13.3423    0.0000 C   0  0  0  0  0  0  0  0  0  0  0  0
   -0.3388   13.6541    0.0000 C   0  0  0  0  0  0  0  0  0  0  0  0
   -0.8024   15.0807    0.0000 Cl  0  0  0  0  0  0  0  0  0  0  0  0
   -1.3425   12.5394    0.0000 C   0  0  0  0  0  0  0  0  0  0  0  0
   -2.8097   12.8513    0.0000 Cl  0  0  0  0  0  0  0  0  0  0  0  0
  1  2  2  0
  2  3  2  0
  2  4  1  0
  4  5  1  0
  5  6  2  0
  6  7  1  0
  7  8  2  0
  8  9  1  0
  9 10  2  0
 10 11  1  0
 11 12  1  0
 12 13  2  0
 12 14  1  0
 14 15  1  0
 15 16  1  0
  8 17  1  0
 17 18  2  0
  2 19  1  0
 19 20  2  0
 20 21  1  0
 21 22  2  0
 22 23  1  0
 23 24  1  0
 23 25  2  0
 25 26  1  0
 18  5  1  0
 25 19  1  0
 13  9  1  0
 16 11  1  0
M  CHG  1   4  -1
M  END
>  <Compound_ID>  (486) 
C38718467

>  <Active>  (486) 
0.0

>  <Smiles>  (486) 
O=S(=O)([N-]c1ccc(-c2cn3c(n2)SCC3)cc1)c1cccc(Cl)c1Cl

>  <canonical_smi>  (486) 
O=S(=O)([N-]c1ccc(-c2cn3c(n2)SCC3)cc1)c1cccc(Cl)c1Cl

>  <Set>  (486) 
G2 inactive

>  <Set_type>  (486) 
Train

>  <MW>  (486) 
425.34

>  <HBD>  (486) 
0

>  <HBA>  (486) 
4

>  <NRB>  (486) 
4

>  <NR>  (486) 
4

>  <NAR>  (486) 
3

>  <PSA>  (486) 
66.06

>  <Standard Type>  (486) 
nan

>  <Standard Relation>  (486) 
nan

>  <Standard Units>  (486) 
nan

>  <Standard Value>  (486) 
nan

>  <Assay ChEMBL ID>  (486) 
nan

>  <Assay Description>  (486) 
nan

>  <BAO Label>  (486) 
nan

$$$$

     RDKit          2D

 29 32  0  0  0  0  0  0  0  0999 V2000
    3.0000    0.0000    0.0000 C   0  0  0  0  0  0  0  0  0  0  0  0
    1.5000    0.0000    0.0000 C   0  0  0  0  0  0  0  0  0  0  0  0
    0.7500   -1.2990    0.0000 C   0  0  0  0  0  0  0  0  0  0  0  0
   -0.7500   -1.2990    0.0000 C   0  0  0  0  0  0  0  0  0  0  0  0
   -1.5000    0.0000    0.0000 C   0  0  0  0  0  0  0  0  0  0  0  0
   -0.7500    1.2990    0.0000 C   0  0  0  0  0  0  0  0  0  0  0  0
    0.7500    1.2990    0.0000 C   0  0  0  0  0  0  0  0  0  0  0  0
    1.5000    2.5981    0.0000 C   0  0  0  0  0  0  0  0  0  0  0  0
    0.8899    3.9684    0.0000 N   0  0  0  0  0  0  0  0  0  0  0  0
    2.0046    4.9721    0.0000 N   0  0  0  0  0  0  0  0  0  0  0  0
    3.3037    4.2221    0.0000 C   0  0  0  0  0  0  0  0  0  0  0  0
    4.6740    4.8322    0.0000 S   0  0  0  0  0  1  0  0  0  0  0  0
    2.9918    2.7549    0.0000 N   0  0  0  0  0  0  0  0  0  0  0  0
    3.9955    1.6402    0.0000 N   0  0  0  0  0  0  0  0  0  0  0  0
    5.4627    1.9520    0.0000 C   0  0  0  0  0  0  0  0  0  0  0  0
    6.4664    0.8373    0.0000 C   0  0  0  0  0  0  0  0  0  0  0  0
    7.9582    0.9941    0.0000 C   0  0  0  0  0  0  0  0  0  0  0  0
    8.7082    2.2931    0.0000 C   0  0  0  0  0  0  0  0  0  0  0  0
    8.5683   -0.3762    0.0000 N   0  0  0  0  0  0  0  0  0  0  0  0
    7.4536   -1.3799    0.0000 N   0  0  0  0  0  0  0  0  0  0  0  0
    7.6104   -2.8717    0.0000 C   0  0  0  0  0  0  0  0  0  0  0  0
    6.3968   -3.7534    0.0000 C   0  0  0  0  0  0  0  0  0  0  0  0
    6.5536   -5.2452    0.0000 C   0  0  0  0  0  0  0  0  0  0  0  0
    7.9239   -5.8553    0.0000 C   0  0  0  0  0  0  0  0  0  0  0  0
    8.0807   -7.3471    0.0000 F   0  0  0  0  0  0  0  0  0  0  0  0
    9.1375   -4.9736    0.0000 C   0  0  0  0  0  0  0  0  0  0  0  0
    8.9807   -3.4818    0.0000 C   0  0  0  0  0  0  0  0  0  0  0  0
    6.1545   -0.6299    0.0000 C   0  0  0  0  0  0  0  0  0  0  0  0
    4.7842   -1.2400    0.0000 Cl  0  0  0  0  0  0  0  0  0  0  0  0
  1  2  1  0
  2  3  2  0
  3  4  1  0
  4  5  2  0
  5  6  1  0
  6  7  2  0
  7  8  1  0
  8  9  2  0
  9 10  1  0
 10 11  2  0
 11 12  1  0
 11 13  1  0
 13 14  1  0
 14 15  2  0
 15 16  1  0
 16 17  1  0
 17 18  1  0
 17 19  2  0
 19 20  1  0
 20 21  1  0
 21 22  2  0
 22 23  1  0
 23 24  2  0
 24 25  1  0
 24 26  1  0
 26 27  2  0
 20 28  1  0
 28 29  1  0
  7  2  1  0
 13  8  1  0
 28 16  2  0
 27 21  1  0
M  CHG  1  12  -1
M  END
>  <Compound_ID>  (487) 
C21188584

>  <Active>  (487) 
0.0

>  <Smiles>  (487) 
Cc1ccccc1-c1nnc([S-])n1/N=C/c1c(C)nn(-c2ccc(F)cc2)c1Cl

>  <canonical_smi>  (487) 
Cc1ccccc1-c1nnc([S-])n1/N=C/c1c(C)nn(-c2ccc(F)cc2)c1Cl

>  <Set>  (487) 
G2 inactive

>  <Set_type>  (487) 
Train

>  <MW>  (487) 
425.9

>  <HBD>  (487) 
0

>  <HBA>  (487) 
4

>  <NRB>  (487) 
4

>  <NR>  (487) 
4

>  <NAR>  (487) 
4

>  <PSA>  (487) 
60.89

>  <Standard Type>  (487) 
nan

>  <Standard Relation>  (487) 
nan

>  <Standard Units>  (487) 
nan

>  <Standard Value>  (487) 
nan

>  <Assay ChEMBL ID>  (487) 
nan

>  <Assay Description>  (487) 
nan

>  <BAO Label>  (487) 
nan

$$$$

     RDKit          2D

 27 30  0  0  0  0  0  0  0  0999 V2000
    3.0000    0.0000    0.0000 C   0  0  0  0  0  0  0  0  0  0  0  0
    1.5000    0.0000    0.0000 C   0  0  0  0  0  0  0  0  0  0  0  0
    0.7500   -1.2990    0.0000 C   0  0  0  0  0  0  0  0  0  0  0  0
   -0.7500   -1.2990    0.0000 C   0  0  0  0  0  0  0  0  0  0  0  0
   -1.5000    0.0000    0.0000 C   0  0  0  0  0  0  0  0  0  0  0  0
   -3.0000    0.0000    0.0000 N   0  0  0  0  0  2  0  0  0  0  0  0
   -3.7500    1.2990    0.0000 S   0  0  0  0  0  0  0  0  0  0  0  0
   -2.4510    2.0490    0.0000 O   0  0  0  0  0  0  0  0  0  0  0  0
   -5.0490    0.5490    0.0000 O   0  0  0  0  0  0  0  0  0  0  0  0
   -4.5000    2.5981    0.0000 C   0  0  0  0  0  0  0  0  0  0  0  0
   -5.9918    2.7549    0.0000 C   0  0  0  0  0  0  0  0  0  0  0  0
   -6.3037    4.2221    0.0000 C   0  0  0  0  0  0  0  0  0  0  0  0
   -7.6740    4.8322    0.0000 C   0  0  0  0  0  0  0  0  0  0  0  0
   -8.9730    4.0822    0.0000 N   0  0  0  0  0  0  0  0  0  0  0  0
  -10.0877    5.0859    0.0000 O   0  0  0  0  0  0  0  0  0  0  0  0
   -9.4776    6.4562    0.0000 C   0  0  0  0  0  0  0  0  0  0  0  0
  -10.2276    7.7552    0.0000 C   0  0  0  0  0  0  0  0  0  0  0  0
  -11.7194    7.9120    0.0000 C   0  0  0  0  0  0  0  0  0  0  0  0
  -12.0313    9.3793    0.0000 C   0  0  0  0  0  0  0  0  0  0  0  0
  -10.7322   10.1293    0.0000 C   0  0  0  0  0  0  0  0  0  0  0  0
   -9.6175    9.1256    0.0000 C   0  0  0  0  0  0  0  0  0  0  0  0
   -7.9858    6.2994    0.0000 N   0  0  0  0  0  0  0  0  0  0  0  0
   -5.0046    4.9721    0.0000 C   0  0  0  0  0  0  0  0  0  0  0  0
   -3.8899    3.9684    0.0000 S   0  0  0  0  0  0  0  0  0  0  0  0
   -0.7500    1.2990    0.0000 C   0  0  0  0  0  0  0  0  0  0  0  0
    0.7500    1.2990    0.0000 C   0  0  0  0  0  0  0  0  0  0  0  0
    1.5000    2.5981    0.0000 F   0  0  0  0  0  0  0  0  0  0  0  0
  1  2  1  0
  2  3  2  0
  3  4  1  0
  4  5  2  0
  5  6  1  0
  6  7  1  0
  7  8  2  0
  7  9  2  0
  7 10  1  0
 10 11  2  0
 11 12  1  0
 12 13  1  0
 13 14  2  0
 14 15  1  0
 15 16  1  0
 16 17  1  0
 17 18  1  0
 18 19  1  0
 19 20  1  0
 20 21  1  0
 16 22  2  0
 12 23  2  0
 23 24  1  0
  5 25  1  0
 25 26  2  0
 26 27  1  0
 26  2  1  0
 24 10  1  0
 22 13  1  0
 21 17  1  0
M  CHG  1   6  -1
M  END
>  <Compound_ID>  (488) 
C35557545

>  <Active>  (488) 
0.0

>  <Smiles>  (488) 
Cc1ccc([N-]S(=O)(=O)c2cc(-c3noc(C4CCCC4)n3)cs2)cc1F

>  <canonical_smi>  (488) 
Cc1ccc([N-]S(=O)(=O)c2cc(-c3noc(C4CCCC4)n3)cs2)cc1F

>  <Set>  (488) 
G2 inactive

>  <Set_type>  (488) 
Train

>  <MW>  (488) 
406.48

>  <HBD>  (488) 
0

>  <HBA>  (488) 
5

>  <NRB>  (488) 
5

>  <NR>  (488) 
4

>  <NAR>  (488) 
3

>  <PSA>  (488) 
87.16

>  <Standard Type>  (488) 
nan

>  <Standard Relation>  (488) 
nan

>  <Standard Units>  (488) 
nan

>  <Standard Value>  (488) 
nan

>  <Assay ChEMBL ID>  (488) 
nan

>  <Assay Description>  (488) 
nan

>  <BAO Label>  (488) 
nan

$$$$

     RDKit          2D

 24 25  0  0  0  0  0  0  0  0999 V2000
    1.6418    7.0824    0.0000 C   0  0  0  0  0  0  0  0  0  0  0  0
    1.3299    5.6152    0.0000 C   0  0  0  0  0  0  0  0  0  0  0  0
   -0.0967    5.1517    0.0000 S   0  0  0  0  0  0  0  0  0  0  0  0
   -0.4086    3.6844    0.0000 C   0  0  0  0  0  0  0  0  0  0  0  0
    0.7062    2.6807    0.0000 N   0  0  0  0  0  0  0  0  0  0  0  0
    0.3943    1.2135    0.0000 C   0  0  0  0  0  0  0  0  0  0  0  0
    1.2760    0.0000    0.0000 S   0  0  0  0  0  0  0  0  0  0  0  0
    0.3943   -1.2135    0.0000 C   0  0  0  0  0  0  0  0  0  0  0  0
   -1.0323   -0.7500    0.0000 C   0  0  0  0  0  0  0  0  0  0  0  0
   -1.0323    0.7500    0.0000 C   0  0  0  0  0  0  0  0  0  0  0  0
   -2.1470    1.7537    0.0000 C   0  0  0  0  0  0  0  0  0  0  0  0
   -3.5736    1.2902    0.0000 O   0  0  0  0  0  0  0  0  0  0  0  0
   -1.8351    3.2209    0.0000 N   0  0  0  0  0  0  0  0  0  0  0  0
   -2.9499    4.2246    0.0000 C   0  0  0  0  0  0  0  0  0  0  0  0
    2.4446    4.6115    0.0000 C   0  0  0  0  0  0  0  0  0  0  0  0
    2.1328    3.1443    0.0000 O   0  0  0  0  0  0  0  0  0  0  0  0
    3.8712    5.0750    0.0000 N   0  0  0  0  0  0  0  0  0  0  0  0
    4.9859    4.0713    0.0000 C   0  0  0  0  0  0  0  0  0  0  0  0
    4.6741    2.6041    0.0000 O   0  0  0  0  0  0  0  0  0  0  0  0
    6.4125    4.5348    0.0000 N   0  0  0  0  0  0  0  0  0  0  0  0
    7.5272    3.5312    0.0000 C   0  0  0  0  0  0  0  0  0  0  0  0
    8.5309    4.6459    0.0000 C   0  0  0  0  0  0  0  0  0  0  0  0
    6.5235    2.4164    0.0000 C   0  0  0  0  0  0  0  0  0  0  0  0
    8.6419    2.5275    0.0000 C   0  0  0  0  0  0  0  0  0  0  0  0
  2  1  1  1
  2  3  1  0
  3  4  1  0
  4  5  2  0
  5  6  1  0
  6  7  1  0
  7  8  1  0
  8  9  2  0
  9 10  1  0
 10 11  1  0
 11 12  2  0
 11 13  1  0
 13 14  1  0
  2 15  1  0
 15 16  2  0
 15 17  1  0
 17 18  1  0
 18 19  2  0
 18 20  1  0
 20 21  1  0
 21 22  1  0
 21 23  1  0
 21 24  1  0
 13  4  1  0
 10  6  2  0
M  END
>  <Compound_ID>  (489) 
C22641370

>  <Active>  (489) 
0.0

>  <Smiles>  (489) 
C[C@H](Sc1nc2sccc2c(=O)n1C)C(=O)NC(=O)NC(C)(C)C

>  <canonical_smi>  (489) 
C[C@H](Sc1nc2sccc2c(=O)n1C)C(=O)NC(=O)NC(C)(C)C

>  <Set>  (489) 
G2 inactive

>  <Set_type>  (489) 
Train

>  <MW>  (489) 
368.48

>  <HBD>  (489) 
2

>  <HBA>  (489) 
5

>  <NRB>  (489) 
3

>  <NR>  (489) 
2

>  <NAR>  (489) 
2

>  <PSA>  (489) 
93.09

>  <Standard Type>  (489) 
nan

>  <Standard Relation>  (489) 
nan

>  <Standard Units>  (489) 
nan

>  <Standard Value>  (489) 
nan

>  <Assay ChEMBL ID>  (489) 
nan

>  <Assay Description>  (489) 
nan

>  <BAO Label>  (489) 
nan

$$$$

     RDKit          2D

 28 31  0  0  0  0  0  0  0  0999 V2000
    6.2781    0.7592    0.0000 O   0  0  0  0  0  0  0  0  0  0  0  0
    6.6410    2.2147    0.0000 C   0  0  0  0  0  0  0  0  0  0  0  0
    8.0829    2.6281    0.0000 N   0  0  0  0  0  0  0  0  0  0  0  0
    9.1619    1.5862    0.0000 C   0  0  0  0  0  0  0  0  0  0  0  0
   10.6038    1.9996    0.0000 C   0  0  0  0  0  0  0  0  0  0  0  0
   11.6828    0.9576    0.0000 C   0  0  0  0  0  0  0  0  0  0  0  0
   13.1247    1.3711    0.0000 C   0  0  0  0  0  0  0  0  0  0  0  0
   13.4876    2.8265    0.0000 C   0  0  0  0  0  0  0  0  0  0  0  0
   12.4086    3.8685    0.0000 C   0  0  0  0  0  0  0  0  0  0  0  0
   12.7714    5.3240    0.0000 F   0  0  0  0  0  0  0  0  0  0  0  0
   10.9667    3.4551    0.0000 C   0  0  0  0  0  0  0  0  0  0  0  0
    9.8877    4.4970    0.0000 F   0  0  0  0  0  0  0  0  0  0  0  0
    8.4458    4.0836    0.0000 C   0  0  0  0  0  0  0  0  0  0  0  0
    7.3668    5.1256    0.0000 C   0  0  0  0  0  0  0  0  0  0  0  0
    5.9249    4.7121    0.0000 C   0  0  0  0  0  0  0  0  0  0  0  0
    5.5620    3.2567    0.0000 C   0  0  0  0  0  0  0  0  0  0  0  0
    4.7232    2.0131    0.0000 O   0  0  0  0  0  0  0  0  0  0  0  0
    4.1917    3.8668    0.0000 C   0  0  0  0  0  0  0  0  0  0  0  0
    2.9781    2.9851    0.0000 N   0  0  0  0  0  4  0  0  0  0  0  0
    1.6078    3.5952    0.0000 C   0  0  0  0  0  0  0  0  0  0  0  0
    0.3943    2.7135    0.0000 C   0  0  0  0  0  0  0  0  0  0  0  0
   -1.0323    3.1771    0.0000 N   0  0  0  0  0  0  0  0  0  0  0  0
   -1.9140    1.9635    0.0000 N   0  0  0  0  0  0  0  0  0  0  0  0
   -1.0323    0.7500    0.0000 C   0  0  0  0  0  0  0  0  0  0  0  0
    0.3943    1.2135    0.0000 C   0  0  0  0  0  0  0  0  0  0  0  0
    1.2760    0.0000    0.0000 C   0  0  0  0  0  0  0  0  0  0  0  0
    0.3943   -1.2135    0.0000 C   0  0  0  0  0  0  0  0  0  0  0  0
   -1.0323   -0.7500    0.0000 C   0  0  0  0  0  0  0  0  0  0  0  0
  1  2  2  0
  2  3  1  0
  3  4  1  0
  4  5  1  0
  5  6  2  0
  6  7  1  0
  7  8  2  0
  8  9  1  0
  9 10  1  0
  9 11  2  0
 11 12  1  0
  3 13  1  0
 13 14  1  0
 14 15  1  0
 15 16  1  0
 16 17  1  1
 16 18  1  0
 18 19  1  0
 19 20  1  0
 20 21  1  0
 21 22  2  0
 22 23  1  0
 23 24  1  0
 24 25  2  0
 25 26  1  0
 26 27  1  0
 27 28  1  0
 16  2  1  0
 25 21  1  0
 11  5  1  0
 28 24  1  0
M  CHG  1  19   1
M  END
>  <Compound_ID>  (490) 
C12446272

>  <Active>  (490) 
0.0

>  <Smiles>  (490) 
O=C1N(Cc2cccc(F)c2F)CCC[C@@]1(O)C[NH2+]Cc1n[nH]c2c1CCC2

>  <canonical_smi>  (490) 
O=C1N(Cc2cccc(F)c2F)CCC[C@@]1(O)C[NH2+]Cc1n[nH]c2c1CCC2

>  <Set>  (490) 
G2 inactive

>  <Set_type>  (490) 
Train

>  <MW>  (490) 
391.44

>  <HBD>  (490) 
3

>  <HBA>  (490) 
3

>  <NRB>  (490) 
6

>  <NR>  (490) 
4

>  <NAR>  (490) 
2

>  <PSA>  (490) 
85.83

>  <Standard Type>  (490) 
nan

>  <Standard Relation>  (490) 
nan

>  <Standard Units>  (490) 
nan

>  <Standard Value>  (490) 
nan

>  <Assay ChEMBL ID>  (490) 
nan

>  <Assay Description>  (490) 
nan

>  <BAO Label>  (490) 
nan

$$$$

     RDKit          2D

 19 20  0  0  0  0  0  0  0  0999 V2000
    3.0000    0.0000    0.0000 C   0  0  0  0  0  0  0  0  0  0  0  0
    1.5000    0.0000    0.0000 N   0  0  0  0  0  4  0  0  0  0  0  0
    0.7500   -1.2990    0.0000 C   0  0  0  0  0  0  0  0  0  0  0  0
   -0.7500   -1.2990    0.0000 C   0  0  0  0  0  0  0  0  0  0  0  0
   -1.5000    0.0000    0.0000 C   0  0  0  0  0  0  0  0  0  0  0  0
   -0.7500    1.2990    0.0000 C   0  0  0  0  0  0  0  0  0  0  0  0
    0.7500    1.2990    0.0000 C   0  0  0  0  0  0  0  0  0  0  0  0
    1.5000    2.5981    0.0000 C   0  0  0  0  0  0  0  0  0  0  0  0
    3.0000    2.5981    0.0000 N   0  0  0  0  0  0  0  0  0  0  0  0
    3.7500    3.8971    0.0000 C   0  0  0  0  0  0  0  0  0  0  0  0
    5.2500    3.8971    0.0000 C   0  0  0  0  0  0  0  0  0  0  0  0
    6.0000    5.1962    0.0000 C   0  0  0  0  0  0  0  0  0  0  0  0
    5.2500    6.4952    0.0000 C   0  0  0  0  0  0  0  0  0  0  0  0
    6.0000    7.7942    0.0000 N   0  0  0  0  0  0  0  0  0  0  0  0
    3.7500    6.4952    0.0000 C   0  0  0  0  0  0  0  0  0  0  0  0
    3.0000    5.1962    0.0000 C   0  0  0  0  0  0  0  0  0  0  0  0
    1.5000    5.1962    0.0000 C   0  0  0  0  0  0  0  0  0  0  0  0
    0.7500    3.8971    0.0000 O   0  0  0  0  0  0  0  0  0  0  0  0
    0.7500    6.4952    0.0000 O   0  0  0  0  0  1  0  0  0  0  0  0
  1  2  1  0
  2  3  1  0
  3  4  1  0
  4  5  1  0
  5  6  1  0
  6  7  1  0
  7  8  1  6
  8  9  1  0
  9 10  1  0
 10 11  2  0
 11 12  1  0
 12 13  2  0
 13 14  1  0
 13 15  1  0
 15 16  2  0
 16 17  1  0
 17 18  2  0
 17 19  1  0
  7  2  1  0
 16 10  1  0
M  CHG  2   2   1  19  -1
M  END
>  <Compound_ID>  (491) 
C44560412

>  <Active>  (491) 
0.0

>  <Smiles>  (491) 
C[NH+]1CCCC[C@@H]1CNc1ccc(N)cc1C(=O)[O-]

>  <canonical_smi>  (491) 
C[NH+]1CCCC[C@@H]1CNc1ccc(N)cc1C(=O)[O-]

>  <Set>  (491) 
G2 inactive

>  <Set_type>  (491) 
Train

>  <MW>  (491) 
263.34

>  <HBD>  (491) 
3

>  <HBA>  (491) 
4

>  <NRB>  (491) 
4

>  <NR>  (491) 
2

>  <NAR>  (491) 
1

>  <PSA>  (491) 
82.62

>  <Standard Type>  (491) 
nan

>  <Standard Relation>  (491) 
nan

>  <Standard Units>  (491) 
nan

>  <Standard Value>  (491) 
nan

>  <Assay ChEMBL ID>  (491) 
nan

>  <Assay Description>  (491) 
nan

>  <BAO Label>  (491) 
nan

$$$$

     RDKit          2D

 27 29  0  0  0  0  0  0  0  0999 V2000
    1.5000   -5.1962    0.0000 C   0  0  0  0  0  0  0  0  0  0  0  0
    0.7500   -3.8971    0.0000 C   0  0  0  0  0  0  0  0  0  0  0  0
   -0.7500   -3.8971    0.0000 C   0  0  0  0  0  0  0  0  0  0  0  0
   -1.5000   -2.5981    0.0000 C   0  0  0  0  0  0  0  0  0  0  0  0
   -0.7500   -1.2990    0.0000 C   0  0  0  0  0  0  0  0  0  0  0  0
    0.7500   -1.2990    0.0000 C   0  0  0  0  0  0  0  0  0  0  0  0
    2.2500   -1.2990    0.0000 C   0  0  0  0  0  0  0  0  0  0  0  0
    1.5000    0.0000    0.0000 C   0  0  0  0  0  0  0  0  0  0  0  0
    0.7500    1.2990    0.0000 C   0  0  0  0  0  0  0  0  0  0  0  0
   -0.7500    1.2990    0.0000 C   0  0  0  0  0  0  0  0  0  0  0  0
   -1.5000    0.0000    0.0000 C   0  0  0  0  0  0  0  0  0  0  0  0
   -2.6491   -0.9642    0.0000 C   0  0  0  0  0  0  0  0  0  0  0  0
   -2.6491    0.9642    0.0000 C   0  0  0  0  0  0  0  0  0  0  0  0
   -4.0586    0.4512    0.0000 O   0  0  0  0  0  0  0  0  0  0  0  0
   -2.3886    2.4414    0.0000 O   0  0  0  0  0  0  0  0  0  0  0  0
   -3.5377    3.4056    0.0000 C   0  0  0  0  0  0  0  0  0  0  0  0
    1.5000   -2.5981    0.0000 C   0  0  0  0  0  0  0  0  0  0  0  0
    3.0000   -2.5981    0.0000 C   0  0  0  0  0  0  0  0  0  0  0  0
    3.7500   -3.8971    0.0000 C   0  0  0  0  0  0  0  0  0  0  0  0
    5.2500   -3.8971    0.0000 C   0  0  0  0  0  0  0  0  0  0  0  0
    6.1317   -2.6836    0.0000 C   0  0  0  0  0  0  0  0  0  0  0  0
    7.5583   -3.1471    0.0000 C   0  0  0  0  0  0  0  0  0  0  0  0
    7.5583   -4.6471    0.0000 O   0  0  0  0  0  0  0  0  0  0  0  0
    6.1317   -5.1106    0.0000 C   0  0  0  0  0  0  0  0  0  0  0  0
    5.6682   -6.5372    0.0000 C   0  0  0  0  0  0  0  0  0  0  0  0
    6.6718   -7.6519    0.0000 N   0  0  0  0  0  4  0  0  0  0  0  0
    6.2083   -9.0785    0.0000 C   0  0  0  0  0  0  0  0  0  0  0  0
  1  2  2  0
  2  3  1  0
  3  4  1  0
  5  4  1  1
  5  6  1  0
  6  7  1  6
  6  8  1  0
  8  9  1  0
  9 10  1  0
 10 11  1  0
 11 12  1  1
 11 13  1  0
 13 14  2  0
 13 15  1  0
 15 16  1  0
  6 17  1  0
 17 18  1  1
 18 19  1  0
 19 20  1  0
 20 21  1  0
 21 22  2  0
 22 23  1  0
 23 24  1  0
 24 25  1  0
 25 26  1  0
 26 27  1  0
 17  2  1  0
 24 20  2  0
 11  5  1  0
M  CHG  1  26   1
M  END
>  <Compound_ID>  (492) 
C43465364

>  <Active>  (492) 
0.0

>  <Smiles>  (492) 
C=C1CC[C@@H]2[C@@](C)(CCC[C@@]2(C)C(=O)OC)[C@H]1CCc1ccoc1C[NH2+]C

>  <canonical_smi>  (492) 
C=C1CC[C@@H]2[C@@](C)(CCC[C@@]2(C)C(=O)OC)[C@H]1CCc1ccoc1C[NH2+]C

>  <Set>  (492) 
G2 inactive

>  <Set_type>  (492) 
Train

>  <MW>  (492) 
374.55

>  <HBD>  (492) 
1

>  <HBA>  (492) 
3

>  <NRB>  (492) 
6

>  <NR>  (492) 
3

>  <NAR>  (492) 
1

>  <PSA>  (492) 
56.05

>  <Standard Type>  (492) 
nan

>  <Standard Relation>  (492) 
nan

>  <Standard Units>  (492) 
nan

>  <Standard Value>  (492) 
nan

>  <Assay ChEMBL ID>  (492) 
nan

>  <Assay Description>  (492) 
nan

>  <BAO Label>  (492) 
nan

$$$$

     RDKit          2D

 26 29  0  0  0  0  0  0  0  0999 V2000
    0.1921   -7.3578    0.0000 C   0  0  0  0  0  0  0  0  0  0  0  0
    1.6839   -7.2010    0.0000 C   0  0  0  0  0  0  0  0  0  0  0  0
    3.1757   -7.0442    0.0000 C   0  0  0  0  0  0  0  0  0  0  0  0
    1.8407   -8.6928    0.0000 C   0  0  0  0  0  0  0  0  0  0  0  0
    1.5271   -5.7092    0.0000 C   0  0  0  0  0  0  0  0  0  0  0  0
    0.1568   -5.0991    0.0000 C   0  0  0  0  0  0  0  0  0  0  0  0
   -0.0000   -3.6073    0.0000 C   0  0  0  0  0  0  0  0  0  0  0  0
   -1.2135   -2.7256    0.0000 O   0  0  0  0  0  0  0  0  0  0  0  0
   -0.7500   -1.2990    0.0000 C   0  0  0  0  0  0  0  0  0  0  0  0
    0.7500   -1.2990    0.0000 C   0  0  0  0  0  0  0  0  0  0  0  0
    1.2135   -2.7256    0.0000 C   0  0  0  0  0  0  0  0  0  0  0  0
    2.5838   -3.3357    0.0000 C   0  0  0  0  0  0  0  0  0  0  0  0
    3.7974   -2.4540    0.0000 C   0  0  0  0  0  0  0  0  0  0  0  0
    5.1677   -3.0642    0.0000 N   0  0  0  0  0  0  0  0  0  0  0  0
    6.3812   -2.1825    0.0000 C   0  0  0  0  0  0  0  0  0  0  0  0
    7.7515   -2.7926    0.0000 C   0  0  0  0  0  0  0  0  0  0  0  0
    8.9651   -1.9109    0.0000 C   0  0  0  0  0  0  0  0  0  0  0  0
    8.8083   -0.4191    0.0000 C   0  0  0  0  0  0  0  0  0  0  0  0
    7.4379    0.1910    0.0000 C   0  0  0  0  0  0  0  0  0  0  0  0
    6.2244   -0.6907    0.0000 N   0  0  0  0  0  4  0  0  0  0  0  0
    2.7406   -4.8275    0.0000 C   0  0  0  0  0  0  0  0  0  0  0  0
    4.1110   -5.4376    0.0000 O   0  0  0  0  0  0  0  0  0  0  0  0
    1.5000    0.0000    0.0000 C   0  0  0  0  0  0  0  0  0  0  0  0
    0.7500    1.2990    0.0000 C   0  0  0  0  0  0  0  0  0  0  0  0
   -0.7500    1.2990    0.0000 C   0  0  0  0  0  0  0  0  0  0  0  0
   -1.5000    0.0000    0.0000 C   0  0  0  0  0  0  0  0  0  0  0  0
  1  2  1  0
  2  3  1  0
  2  4  1  0
  2  5  1  0
  5  6  2  0
  6  7  1  0
  7  8  1  0
  8  9  1  0
  9 10  2  0
 10 11  1  0
 11 12  1  0
 12 13  1  0
 13 14  2  0
 14 15  1  0
 15 16  2  0
 16 17  1  0
 17 18  2  0
 18 19  1  0
 19 20  2  0
 12 21  2  0
 21 22  1  0
 10 23  1  0
 23 24  1  0
 24 25  1  0
 25 26  1  0
 21  5  1  0
 11  7  2  0
 20 15  1  0
 26  9  1  0
M  CHG  1  20   1
M  END
>  <Compound_ID>  (493) 
C05726727

>  <Active>  (493) 
0.0

>  <Smiles>  (493) 
CC(C)(C)c1cc2oc3c(c2c(/C=N/c2cccc[nH+]2)c1O)CCCC3

>  <canonical_smi>  (493) 
CC(C)(C)c1cc2oc3c(c2c(/C=N/c2cccc[nH+]2)c1O)CCCC3

>  <Set>  (493) 
G2 inactive

>  <Set_type>  (493) 
Train

>  <MW>  (493) 
349.45

>  <HBD>  (493) 
1

>  <HBA>  (493) 
2

>  <NRB>  (493) 
2

>  <NR>  (493) 
4

>  <NAR>  (493) 
3

>  <PSA>  (493) 
59.87

>  <Standard Type>  (493) 
nan

>  <Standard Relation>  (493) 
nan

>  <Standard Units>  (493) 
nan

>  <Standard Value>  (493) 
nan

>  <Assay ChEMBL ID>  (493) 
nan

>  <Assay Description>  (493) 
nan

>  <BAO Label>  (493) 
nan

$$$$

     RDKit          2D

 21 23  0  0  0  0  0  0  0  0999 V2000
   -0.0000   -6.6073    0.0000 N   0  0  0  0  0  0  0  0  0  0  0  0
   -0.0000   -5.1073    0.0000 C   0  0  0  0  0  0  0  0  0  0  0  0
   -0.0000   -3.6073    0.0000 C   0  0  0  0  0  0  0  0  0  0  0  0
    1.2135   -2.7256    0.0000 S   0  0  0  0  0  0  0  0  0  0  0  0
    0.7500   -1.2990    0.0000 C   0  0  0  0  0  0  0  0  0  0  0  0
    1.5000    0.0000    0.0000 N   0  0  0  0  0  0  0  0  0  0  0  0
    0.7500    1.2990    0.0000 C   0  0  0  0  0  0  0  0  0  0  0  0
    1.5000    2.5981    0.0000 C   0  0  0  0  0  0  0  0  0  0  0  0
    2.2500    3.8971    0.0000 F   0  0  0  0  0  0  0  0  0  0  0  0
    2.7990    1.8481    0.0000 F   0  0  0  0  0  0  0  0  0  0  0  0
    0.2010    3.3481    0.0000 F   0  0  0  0  0  0  0  0  0  0  0  0
   -0.7500    1.2990    0.0000 C   0  0  0  0  0  0  0  0  0  0  0  0
   -1.5000    0.0000    0.0000 C   0  0  0  0  0  0  0  0  0  0  0  0
   -3.0000    0.0000    0.0000 C   0  0  0  0  0  0  0  0  0  0  0  0
   -3.8817   -1.2135    0.0000 C   0  0  0  0  0  0  0  0  0  0  0  0
   -5.3083   -0.7500    0.0000 C   0  0  0  0  0  0  0  0  0  0  0  0
   -5.3083    0.7500    0.0000 C   0  0  0  0  0  0  0  0  0  0  0  0
   -3.8817    1.2135    0.0000 O   0  0  0  0  0  0  0  0  0  0  0  0
   -0.7500   -1.2990    0.0000 C   0  0  0  0  0  0  0  0  0  0  0  0
   -1.2135   -2.7256    0.0000 C   0  0  0  0  0  0  0  0  0  0  0  0
   -2.6401   -3.1891    0.0000 N   0  0  0  0  0  0  0  0  0  0  0  0
  1  2  3  0
  2  3  1  0
  3  4  1  0
  4  5  1  0
  5  6  2  0
  6  7  1  0
  7  8  1  0
  8  9  1  0
  8 10  1  0
  8 11  1  0
  7 12  2  0
 12 13  1  0
 13 14  1  0
 14 15  2  0
 15 16  1  0
 16 17  2  0
 17 18  1  0
 13 19  2  0
 19 20  1  0
 20 21  1  0
 20  3  2  0
 19  5  1  0
 18 14  1  0
M  END
>  <Compound_ID>  (494) 
C20328929

>  <Active>  (494) 
0.0

>  <Smiles>  (494) 
N#Cc1sc2nc(C(F)(F)F)cc(-c3ccco3)c2c1N

>  <canonical_smi>  (494) 
N#Cc1sc2nc(C(F)(F)F)cc(-c3ccco3)c2c1N

>  <Set>  (494) 
G2 inactive

>  <Set_type>  (494) 
Train

>  <MW>  (494) 
309.27

>  <HBD>  (494) 
1

>  <HBA>  (494) 
4

>  <NRB>  (494) 
1

>  <NR>  (494) 
3

>  <NAR>  (494) 
3

>  <PSA>  (494) 
75.84

>  <Standard Type>  (494) 
nan

>  <Standard Relation>  (494) 
nan

>  <Standard Units>  (494) 
nan

>  <Standard Value>  (494) 
nan

>  <Assay ChEMBL ID>  (494) 
nan

>  <Assay Description>  (494) 
nan

>  <BAO Label>  (494) 
nan

$$$$

     RDKit          2D

 21 22  0  0  0  0  0  0  0  0999 V2000
    3.0000    0.0000    0.0000 C   0  0  0  0  0  0  0  0  0  0  0  0
    1.5000    0.0000    0.0000 C   0  0  0  0  0  0  0  0  0  0  0  0
    0.7500   -1.2990    0.0000 C   0  0  0  0  0  0  0  0  0  0  0  0
   -0.7500   -1.2990    0.0000 C   0  0  0  0  0  0  0  0  0  0  0  0
   -1.5000    0.0000    0.0000 C   0  0  0  0  0  0  0  0  0  0  0  0
   -3.0000    0.0000    0.0000 N   0  0  0  0  0  0  0  0  0  0  0  0
   -0.7500    1.2990    0.0000 C   0  0  0  0  0  0  0  0  0  0  0  0
   -1.5000    2.5981    0.0000 C   0  0  0  0  0  0  0  0  0  0  0  0
    0.7500    1.2990    0.0000 C   0  0  0  0  0  0  0  0  0  0  0  0
    1.5000    2.5981    0.0000 S   0  0  0  0  0  0  0  0  0  0  0  0
    2.7990    1.8481    0.0000 O   0  0  0  0  0  0  0  0  0  0  0  0
    0.2010    3.3481    0.0000 O   0  0  0  0  0  0  0  0  0  0  0  0
    2.2500    3.8971    0.0000 N   0  0  0  0  0  0  0  0  0  0  0  0
    1.5000    5.1962    0.0000 C   0  0  0  0  0  0  0  0  0  0  0  0
    3.7500    3.8971    0.0000 C   0  0  0  0  0  0  0  0  0  0  0  0
    4.5000    2.5981    0.0000 C   0  0  0  0  0  0  0  0  0  0  0  0
    6.0000    2.5981    0.0000 C   0  0  0  0  0  0  0  0  0  0  0  0
    6.7500    3.8971    0.0000 C   0  0  0  0  0  0  0  0  0  0  0  0
    6.0000    5.1962    0.0000 C   0  0  0  0  0  0  0  0  0  0  0  0
    6.7500    6.4952    0.0000 C   0  0  0  0  0  0  0  0  0  0  0  0
    4.5000    5.1962    0.0000 C   0  0  0  0  0  0  0  0  0  0  0  0
  1  2  1  0
  2  3  2  0
  3  4  1  0
  4  5  2  0
  5  6  1  0
  5  7  1  0
  7  8  1  0
  7  9  2  0
  9 10  1  0
 10 11  2  0
 10 12  2  0
 10 13  1  0
 13 14  1  0
 15 13  1  6
 15 16  1  0
 16 17  1  0
 17 18  1  0
 18 19  1  0
 19 20  1  1
 19 21  1  0
  9  2  1  0
 21 15  1  0
M  END
>  <Compound_ID>  (495) 
C49009635

>  <Active>  (495) 
0.0

>  <Smiles>  (495) 
Cc1ccc(N)c(C)c1S(=O)(=O)N(C)[C@H]1CCC[C@H](C)C1

>  <canonical_smi>  (495) 
Cc1ccc(N)c(C)c1S(=O)(=O)N(C)[C@H]1CCC[C@H](C)C1

>  <Set>  (495) 
G2 inactive

>  <Set_type>  (495) 
Train

>  <MW>  (495) 
310.46

>  <HBD>  (495) 
1

>  <HBA>  (495) 
3

>  <NRB>  (495) 
3

>  <NR>  (495) 
2

>  <NAR>  (495) 
1

>  <PSA>  (495) 
63.4

>  <Standard Type>  (495) 
nan

>  <Standard Relation>  (495) 
nan

>  <Standard Units>  (495) 
nan

>  <Standard Value>  (495) 
nan

>  <Assay ChEMBL ID>  (495) 
nan

>  <Assay Description>  (495) 
nan

>  <BAO Label>  (495) 
nan

$$$$

     RDKit          2D

 14 14  0  0  0  0  0  0  0  0999 V2000
    3.0000    0.0000    0.0000 N   0  0  0  0  0  0  0  0  0  0  0  0
    1.5000    0.0000    0.0000 C   0  0  0  0  0  0  0  0  0  0  0  0
    0.7500   -1.2990    0.0000 C   0  0  0  0  0  0  0  0  0  0  0  0
    1.5000   -2.5981    0.0000 F   0  0  0  0  0  0  0  0  0  0  0  0
   -0.7500   -1.2990    0.0000 C   0  0  0  0  0  0  0  0  0  0  0  0
   -1.5000   -2.5981    0.0000 F   0  0  0  0  0  0  0  0  0  0  0  0
   -1.5000    0.0000    0.0000 C   0  0  0  0  0  0  0  0  0  0  0  0
   -3.0000    0.0000    0.0000 F   0  0  0  0  0  0  0  0  0  0  0  0
   -0.7500    1.2990    0.0000 C   0  0  0  0  0  0  0  0  0  0  0  0
   -1.5000    2.5981    0.0000 F   0  0  0  0  0  0  0  0  0  0  0  0
    0.7500    1.2990    0.0000 C   0  0  0  0  0  0  0  0  0  0  0  0
    1.5000    2.5981    0.0000 N   0  0  0  0  0  4  0  0  0  0  0  0
    3.0000    2.5981    0.0000 O   0  0  0  0  0  0  0  0  0  0  0  0
    0.7500    3.8971    0.0000 O   0  0  0  0  0  1  0  0  0  0  0  0
  1  2  1  0
  2  3  2  0
  3  4  1  0
  3  5  1  0
  5  6  1  0
  5  7  2  0
  7  8  1  0
  7  9  1  0
  9 10  1  0
  9 11  2  0
 11 12  1  0
 12 13  2  0
 12 14  1  0
 11  2  1  0
M  CHG  2  12   1  14  -1
M  END
>  <Compound_ID>  (496) 
C05510640

>  <Active>  (496) 
0.0

>  <Smiles>  (496) 
Nc1c(F)c(F)c(F)c(F)c1[N+](=O)[O-]

>  <canonical_smi>  (496) 
Nc1c(F)c(F)c(F)c(F)c1[N+](=O)[O-]

>  <Set>  (496) 
G2 inactive

>  <Set_type>  (496) 
Train

>  <MW>  (496) 
210.09

>  <HBD>  (496) 
1

>  <HBA>  (496) 
3

>  <NRB>  (496) 
1

>  <NR>  (496) 
1

>  <NAR>  (496) 
1

>  <PSA>  (496) 
69.16

>  <Standard Type>  (496) 
nan

>  <Standard Relation>  (496) 
nan

>  <Standard Units>  (496) 
nan

>  <Standard Value>  (496) 
nan

>  <Assay ChEMBL ID>  (496) 
nan

>  <Assay Description>  (496) 
nan

>  <BAO Label>  (496) 
nan

$$$$

     RDKit          2D

 27 28  0  0  0  0  0  0  0  0999 V2000
    5.7760    2.5981    0.0000 C   0  0  0  0  0  0  0  0  0  0  0  0
    5.0260    1.2990    0.0000 C   0  0  0  0  0  0  0  0  0  0  0  0
    3.5260    1.2990    0.0000 O   0  0  0  0  0  0  0  0  0  0  0  0
    2.7760    0.0000    0.0000 C   0  0  0  0  0  0  0  0  0  0  0  0
    3.5260   -1.2990    0.0000 O   0  0  0  0  0  0  0  0  0  0  0  0
    1.2760    0.0000    0.0000 C   0  0  0  0  0  0  0  0  0  0  0  0
    0.3943    1.2135    0.0000 C   0  0  0  0  0  0  0  0  0  0  0  0
    0.8578    2.6401    0.0000 N   0  0  0  0  0  0  0  0  0  0  0  0
   -0.1459    3.7548    0.0000 C   0  0  0  0  0  0  0  0  0  0  0  0
   -1.6131    3.4430    0.0000 O   0  0  0  0  0  0  0  0  0  0  0  0
    0.3177    5.1814    0.0000 C   0  0  0  0  0  0  0  0  0  0  0  0
   -0.6860    6.2961    0.0000 C   0  0  0  0  0  0  0  0  0  0  0  0
    1.7849    5.4933    0.0000 N   0  0  0  0  0  0  0  0  0  0  0  0
    2.8996    4.4896    0.0000 C   0  0  0  0  0  0  0  0  0  0  0  0
    2.7428    2.9978    0.0000 N   0  0  0  0  0  0  0  0  0  0  0  0
    4.1986    5.2396    0.0000 N   0  0  0  0  0  0  0  0  0  0  0  0
    3.8868    6.7068    0.0000 N   0  0  0  0  0  0  0  0  0  0  0  0
    2.3950    6.8636    0.0000 C   0  0  0  0  0  0  0  0  0  0  0  0
    1.6450    8.1626    0.0000 S   0  0  0  0  0  0  0  0  0  0  0  0
    2.3950    9.4617    0.0000 C   0  0  0  0  0  0  0  0  0  0  0  0
    3.8950    9.4617    0.0000 C   0  0  0  0  0  0  0  0  0  0  0  0
    5.3950    9.4617    0.0000 N   0  0  0  0  0  0  0  0  0  0  0  0
   -1.0323    0.7500    0.0000 S   0  0  0  0  0  0  0  0  0  0  0  0
   -1.0323   -0.7500    0.0000 C   0  0  0  0  0  0  0  0  0  0  0  0
   -2.2458   -1.6317    0.0000 C   0  0  0  0  0  0  0  0  0  0  0  0
    0.3943   -1.2135    0.0000 C   0  0  0  0  0  0  0  0  0  0  0  0
    0.8578   -2.6401    0.0000 C   0  0  0  0  0  0  0  0  0  0  0  0
  1  2  1  0
  2  3  1  0
  3  4  1  0
  4  5  2  0
  4  6  1  0
  6  7  2  0
  7  8  1  0
  8  9  1  0
  9 10  2  0
  9 11  1  0
 11 12  1  1
 11 13  1  0
 13 14  1  0
 14 15  1  0
 14 16  2  0
 16 17  1  0
 17 18  2  0
 18 19  1  0
 19 20  1  0
 20 21  1  0
 21 22  3  0
  7 23  1  0
 23 24  1  0
 24 25  1  0
 24 26  2  0
 26 27  1  0
 26  6  1  0
 18 13  1  0
M  END
>  <Compound_ID>  (497) 
C40173473

>  <Active>  (497) 
0.0

>  <Smiles>  (497) 
CCOC(=O)c1c(NC(=O)[C@@H](C)n2c(N)nnc2SCC#N)sc(C)c1C

>  <canonical_smi>  (497) 
CCOC(=O)c1c(NC(=O)[C@@H](C)n2c(N)nnc2SCC#N)sc(C)c1C

>  <Set>  (497) 
G2 inactive

>  <Set_type>  (497) 
Train

>  <MW>  (497) 
408.51

>  <HBD>  (497) 
2

>  <HBA>  (497) 
8

>  <NRB>  (497) 
7

>  <NR>  (497) 
2

>  <NAR>  (497) 
2

>  <PSA>  (497) 
135.92

>  <Standard Type>  (497) 
nan

>  <Standard Relation>  (497) 
nan

>  <Standard Units>  (497) 
nan

>  <Standard Value>  (497) 
nan

>  <Assay ChEMBL ID>  (497) 
nan

>  <Assay Description>  (497) 
nan

>  <BAO Label>  (497) 
nan

$$$$

     RDKit          2D

 21 23  0  0  0  0  0  0  0  0999 V2000
    1.5000   -5.1962    0.0000 C   0  0  0  0  0  0  0  0  0  0  0  0
    0.7500   -3.8971    0.0000 C   0  0  0  0  0  0  0  0  0  0  0  0
   -0.7500   -3.8971    0.0000 C   0  0  0  0  0  0  0  0  0  0  0  0
   -1.5000   -5.1962    0.0000 C   0  0  0  0  0  0  0  0  0  0  0  0
   -0.8899   -6.5665    0.0000 C   0  0  0  0  0  0  0  0  0  0  0  0
   -2.0046   -7.5702    0.0000 C   0  0  0  0  0  0  0  0  0  0  0  0
   -3.3037   -6.8202    0.0000 C   0  0  0  0  0  0  0  0  0  0  0  0
   -2.9918   -5.3529    0.0000 O   0  0  0  0  0  0  0  0  0  0  0  0
    1.5000   -2.5981    0.0000 N   0  0  0  0  0  0  0  0  0  0  0  0
    0.7500   -1.2990    0.0000 C   0  0  0  0  0  0  0  0  0  0  0  0
    1.5000    0.0000    0.0000 C   0  0  0  0  0  0  0  0  0  0  0  0
    0.7500    1.2990    0.0000 C   0  0  0  0  0  0  0  0  0  0  0  0
   -0.7500    1.2990    0.0000 C   0  0  0  0  0  0  0  0  0  0  0  0
   -1.5000    0.0000    0.0000 C   0  0  0  0  0  0  0  0  0  0  0  0
   -3.0000    0.0000    0.0000 C   0  0  0  0  0  0  0  0  0  0  0  0
   -3.8817   -1.2135    0.0000 N   0  0  0  0  0  0  0  0  0  0  0  0
   -5.3083   -0.7500    0.0000 N   0  0  0  0  0  0  0  0  0  0  0  0
   -5.3083    0.7500    0.0000 C   0  0  0  0  0  0  0  0  0  0  0  0
   -3.8817    1.2135    0.0000 N   0  0  0  0  0  0  0  0  0  0  0  0
   -3.4182    2.6401    0.0000 C   0  0  0  0  0  0  0  0  0  0  0  0
   -0.7500   -1.2990    0.0000 C   0  0  0  0  0  0  0  0  0  0  0  0
  2  1  1  6
  2  3  1  0
  3  4  1  0
  4  5  2  0
  5  6  1  0
  6  7  2  0
  7  8  1  0
  2  9  1  0
  9 10  1  0
 10 11  2  0
 11 12  1  0
 12 13  2  0
 13 14  1  0
 14 15  1  0
 15 16  2  0
 16 17  1  0
 17 18  2  0
 18 19  1  0
 19 20  1  0
 14 21  2  0
  8  4  1  0
 21 10  1  0
 19 15  1  0
M  END
>  <Compound_ID>  (498) 
C62771522

>  <Active>  (498) 
0.0

>  <Smiles>  (498) 
C[C@H](Cc1ccco1)Nc1cccc(-c2nncn2C)c1

>  <canonical_smi>  (498) 
C[C@H](Cc1ccco1)Nc1cccc(-c2nncn2C)c1

>  <Set>  (498) 
G2 inactive

>  <Set_type>  (498) 
Train

>  <MW>  (498) 
282.35

>  <HBD>  (498) 
1

>  <HBA>  (498) 
4

>  <NRB>  (498) 
5

>  <NR>  (498) 
3

>  <NAR>  (498) 
3

>  <PSA>  (498) 
55.88

>  <Standard Type>  (498) 
nan

>  <Standard Relation>  (498) 
nan

>  <Standard Units>  (498) 
nan

>  <Standard Value>  (498) 
nan

>  <Assay ChEMBL ID>  (498) 
nan

>  <Assay Description>  (498) 
nan

>  <BAO Label>  (498) 
nan

$$$$

     RDKit          2D

 20 22  0  0  0  0  0  0  0  0999 V2000
    3.9285    6.3019    0.0000 C   0  0  0  0  0  0  0  0  0  0  0  0
    2.6294    5.5519    0.0000 C   0  0  0  0  0  0  0  0  0  0  0  0
    1.3304    6.3019    0.0000 C   0  0  0  0  0  0  0  0  0  0  0  0
    0.0314    5.5519    0.0000 N   0  0  0  0  0  0  0  0  0  0  0  0
   -1.2677    6.3019    0.0000 C   0  0  0  0  0  0  0  0  0  0  0  0
   -1.4245    7.7937    0.0000 S   0  0  0  0  0  0  0  0  0  0  0  0
   -2.8917    8.1056    0.0000 N   0  0  0  0  0  0  0  0  0  0  0  0
   -3.6417    6.8066    0.0000 N   0  0  0  0  0  0  0  0  0  0  0  0
   -2.6380    5.6918    0.0000 C   0  0  0  0  0  0  0  0  0  0  0  0
   -2.9499    4.2246    0.0000 C   0  0  0  0  0  0  0  0  0  0  0  0
   -1.8351    3.2209    0.0000 N   0  0  0  0  0  0  0  0  0  0  0  0
   -0.4086    3.6844    0.0000 C   0  0  0  0  0  0  0  0  0  0  0  0
    0.7062    2.6807    0.0000 N   0  0  0  0  0  0  0  0  0  0  0  0
    0.3943    1.2135    0.0000 C   0  0  0  0  0  0  0  0  0  0  0  0
    1.2760    0.0000    0.0000 C   0  0  0  0  0  0  0  0  0  0  0  0
    0.3943   -1.2135    0.0000 C   0  0  0  0  0  0  0  0  0  0  0  0
   -1.0323   -0.7500    0.0000 S   0  0  0  0  0  0  0  0  0  0  0  0
   -1.0323    0.7500    0.0000 C   0  0  0  0  0  0  0  0  0  0  0  0
   -2.1470    1.7537    0.0000 C   0  0  0  0  0  0  0  0  0  0  0  0
   -3.5736    1.2902    0.0000 O   0  0  0  0  0  0  0  0  0  0  0  0
  1  2  1  0
  2  3  1  0
  3  4  1  0
  4  5  1  0
  5  6  1  0
  6  7  1  0
  7  8  2  0
  8  9  1  0
  9 10  1  0
 10 11  1  0
 11 12  1  0
 12 13  2  0
 13 14  1  0
 14 15  1  0
 15 16  2  0
 16 17  1  0
 17 18  1  0
 18 19  1  0
 19 20  2  0
  9  5  2  0
 19 11  1  0
 18 14  2  0
M  END
>  <Compound_ID>  (499) 
C50829430

>  <Active>  (499) 
0.0

>  <Smiles>  (499) 
CCCNc1snnc1Cn1cnc2ccsc2c1=O

>  <canonical_smi>  (499) 
CCCNc1snnc1Cn1cnc2ccsc2c1=O

>  <Set>  (499) 
G2 inactive

>  <Set_type>  (499) 
Train

>  <MW>  (499) 
307.4

>  <HBD>  (499) 
1

>  <HBA>  (499) 
5

>  <NRB>  (499) 
5

>  <NR>  (499) 
3

>  <NAR>  (499) 
3

>  <PSA>  (499) 
72.7

>  <Standard Type>  (499) 
nan

>  <Standard Relation>  (499) 
nan

>  <Standard Units>  (499) 
nan

>  <Standard Value>  (499) 
nan

>  <Assay ChEMBL ID>  (499) 
nan

>  <Assay Description>  (499) 
nan

>  <BAO Label>  (499) 
nan

$$$$

     RDKit          2D

 21 23  0  0  0  0  0  0  0  0999 V2000
  -11.0184   -2.4947    0.0000 N   0  0  0  0  0  0  0  0  0  0  0  0
  -10.7065   -1.0275    0.0000 C   0  0  0  0  0  0  0  0  0  0  0  0
  -10.3946    0.4398    0.0000 C   0  0  0  0  0  0  0  0  0  0  0  0
  -11.5094    1.4435    0.0000 C   0  0  0  0  0  0  0  0  0  0  0  0
  -11.1975    2.9107    0.0000 C   0  0  0  0  0  0  0  0  0  0  0  0
   -9.7709    3.3742    0.0000 C   0  0  0  0  0  0  0  0  0  0  0  0
   -8.6562    2.3705    0.0000 C   0  0  0  0  0  0  0  0  0  0  0  0
   -7.2296    2.8340    0.0000 O   0  0  0  0  0  0  0  0  0  0  0  0
   -6.1149    1.8303    0.0000 C   0  0  0  0  0  0  0  0  0  0  0  0
   -4.6883    2.2939    0.0000 C   0  0  0  0  0  0  0  0  0  0  0  0
   -3.5736    1.2902    0.0000 S   0  0  0  0  0  0  0  0  0  0  0  0
   -2.1470    1.7537    0.0000 C   0  0  0  0  0  0  0  0  0  0  0  0
   -1.8351    3.2209    0.0000 N   0  0  0  0  0  0  0  0  0  0  0  0
   -0.4086    3.6844    0.0000 C   0  0  0  0  0  0  0  0  0  0  0  0
    0.7062    2.6807    0.0000 N   0  0  0  0  0  0  0  0  0  0  0  0
    0.3943    1.2135    0.0000 C   0  0  0  0  0  0  0  0  0  0  0  0
    1.2760    0.0000    0.0000 N   0  0  0  0  0  0  0  0  0  0  0  0
    0.3943   -1.2135    0.0000 C   0  0  0  0  0  0  0  0  0  0  0  0
   -1.0323   -0.7500    0.0000 N   0  0  0  0  0  0  0  0  0  0  0  0
   -1.0323    0.7500    0.0000 C   0  0  0  0  0  0  0  0  0  0  0  0
   -8.9681    0.9033    0.0000 C   0  0  0  0  0  0  0  0  0  0  0  0
  1  2  3  0
  2  3  1  0
  3  4  2  0
  4  5  1  0
  5  6  2  0
  6  7  1  0
  7  8  1  0
  8  9  1  0
  9 10  1  0
 10 11  1  0
 11 12  1  0
 12 13  2  0
 13 14  1  0
 14 15  2  0
 15 16  1  0
 16 17  1  0
 17 18  2  0
 18 19  1  0
 19 20  1  0
  7 21  2  0
 21  3  1  0
 20 12  1  0
 20 16  2  0
M  END
>  <Compound_ID>  (500) 
C51036439

>  <Active>  (500) 
0.0

>  <Smiles>  (500) 
N#Cc1cccc(OCCSc2ncnc3nc[nH]c23)c1

>  <canonical_smi>  (500) 
N#Cc1cccc(OCCSc2ncnc3nc[nH]c23)c1

>  <Set>  (500) 
G2 inactive

>  <Set_type>  (500) 
Train

>  <MW>  (500) 
297.34

>  <HBD>  (500) 
1

>  <HBA>  (500) 
6

>  <NRB>  (500) 
5

>  <NR>  (500) 
3

>  <NAR>  (500) 
3

>  <PSA>  (500) 
87.48

>  <Standard Type>  (500) 
nan

>  <Standard Relation>  (500) 
nan

>  <Standard Units>  (500) 
nan

>  <Standard Value>  (500) 
nan

>  <Assay ChEMBL ID>  (500) 
nan

>  <Assay Description>  (500) 
nan

>  <BAO Label>  (500) 
nan

$$$$

     RDKit          2D

 12 12  0  0  0  0  0  0  0  0999 V2000
    3.7500    1.2990    0.0000 O   0  0  0  0  0  0  0  0  0  0  0  0
    3.0000    0.0000    0.0000 C   0  0  0  0  0  0  0  0  0  0  0  0
    3.7500   -1.2990    0.0000 C   0  0  0  0  0  0  0  0  0  0  0  0
    5.2500   -1.2990    0.0000 Cl  0  0  0  0  0  0  0  0  0  0  0  0
    1.5000    0.0000    0.0000 C   0  0  0  0  0  0  0  0  0  0  0  0
    0.7500   -1.2990    0.0000 C   0  0  0  0  0  0  0  0  0  0  0  0
   -0.7500   -1.2990    0.0000 C   0  0  0  0  0  0  0  0  0  0  0  0
   -1.5000    0.0000    0.0000 C   0  0  0  0  0  0  0  0  0  0  0  0
   -0.7500    1.2990    0.0000 C   0  0  0  0  0  0  0  0  0  0  0  0
   -1.5000    2.5981    0.0000 O   0  0  0  0  0  0  0  0  0  0  0  0
    0.7500    1.2990    0.0000 C   0  0  0  0  0  0  0  0  0  0  0  0
    1.5000    2.5981    0.0000 O   0  0  0  0  0  0  0  0  0  0  0  0
  1  2  2  0
  2  3  1  0
  3  4  1  0
  2  5  1  0
  5  6  2  0
  6  7  1  0
  7  8  2  0
  8  9  1  0
  9 10  1  0
  9 11  2  0
 11 12  1  0
 11  5  1  0
M  END
>  <Compound_ID>  (501) 
C06091710

>  <Active>  (501) 
0.0

>  <Smiles>  (501) 
O=C(CCl)c1cccc(O)c1O

>  <canonical_smi>  (501) 
O=C(CCl)c1cccc(O)c1O

>  <Set>  (501) 
G2 inactive

>  <Set_type>  (501) 
Train

>  <MW>  (501) 
186.59

>  <HBD>  (501) 
2

>  <HBA>  (501) 
3

>  <NRB>  (501) 
2

>  <NR>  (501) 
1

>  <NAR>  (501) 
1

>  <PSA>  (501) 
57.53

>  <Standard Type>  (501) 
nan

>  <Standard Relation>  (501) 
nan

>  <Standard Units>  (501) 
nan

>  <Standard Value>  (501) 
nan

>  <Assay ChEMBL ID>  (501) 
nan

>  <Assay Description>  (501) 
nan

>  <BAO Label>  (501) 
nan

$$$$

     RDKit          2D

 12 12  0  0  0  0  0  0  0  0999 V2000
    2.8817   -4.9418    0.0000 C   0  0  0  0  0  0  0  0  0  0  0  0
    3.1935   -3.4746    0.0000 C   0  0  0  0  0  0  0  0  0  0  0  0
    2.0788   -2.4709    0.0000 C   0  0  0  0  0  0  0  0  0  0  0  0
    2.3907   -1.0037    0.0000 C   0  0  0  0  0  0  0  0  0  0  0  0
    1.2760    0.0000    0.0000 C   0  0  0  0  0  0  0  0  0  0  0  0
    2.3907    1.0037    0.0000 C   0  0  0  0  0  0  0  0  0  0  0  0
    0.3943    1.2135    0.0000 N   0  0  0  0  0  0  0  0  0  0  0  0
   -1.0323    0.7500    0.0000 C   0  0  0  0  0  0  0  0  0  0  0  0
   -2.2458    1.6317    0.0000 S   0  0  0  0  0  0  0  0  0  0  0  0
   -1.0323   -0.7500    0.0000 N   0  0  0  0  0  0  0  0  0  0  0  0
   -2.2458   -1.6317    0.0000 C   0  0  0  0  0  0  0  0  0  0  0  0
    0.3943   -1.2135    0.0000 N   0  0  0  0  0  0  0  0  0  0  0  0
  1  2  1  0
  2  3  1  0
  3  4  1  0
  4  5  1  0
  5  6  1  1
  5  7  1  0
  7  8  1  0
  8  9  2  0
  8 10  1  0
 10 11  1  0
 10 12  1  0
 12  5  1  0
M  END
>  <Compound_ID>  (502) 
C02190583

>  <Active>  (502) 
0.0

>  <Smiles>  (502) 
CCCC[C@@]1(C)NC(=S)N(C)N1

>  <canonical_smi>  (502) 
CCCC[C@@]1(C)NC(=S)N(C)N1

>  <Set>  (502) 
G2 inactive

>  <Set_type>  (502) 
Train

>  <MW>  (502) 
187.31

>  <HBD>  (502) 
2

>  <HBA>  (502) 
4

>  <NRB>  (502) 
3

>  <NR>  (502) 
1

>  <NAR>  (502) 
0

>  <PSA>  (502) 
27.3

>  <Standard Type>  (502) 
nan

>  <Standard Relation>  (502) 
nan

>  <Standard Units>  (502) 
nan

>  <Standard Value>  (502) 
nan

>  <Assay ChEMBL ID>  (502) 
nan

>  <Assay Description>  (502) 
nan

>  <BAO Label>  (502) 
nan

$$$$

     RDKit          2D

 13 14  0  0  0  0  0  0  0  0999 V2000
    3.7500    1.2990    0.0000 O   0  0  0  0  0  0  0  0  0  0  0  0
    3.0000    0.0000    0.0000 C   0  0  0  0  0  0  0  0  0  0  0  0
    3.7500   -1.2990    0.0000 O   0  0  0  0  0  1  0  0  0  0  0  0
    1.5000    0.0000    0.0000 C   0  0  0  0  0  0  0  0  0  0  0  0
    0.7500   -1.2990    0.0000 C   0  0  0  0  0  0  0  0  0  0  0  0
   -0.7500   -1.2990    0.0000 C   0  0  0  0  0  0  0  0  0  0  0  0
   -1.5000    0.0000    0.0000 C   0  0  0  0  0  0  0  0  0  0  0  0
   -0.7500    1.2990    0.0000 C   0  0  0  0  0  0  0  0  0  0  0  0
    0.7500    1.2990    0.0000 C   0  0  0  0  0  0  0  0  0  0  0  0
    1.5000    2.5981    0.0000 N   0  0  0  0  0  4  0  0  0  0  0  0
    0.7500    3.8971    0.0000 C   0  0  0  0  0  0  0  0  0  0  0  0
   -0.5490    4.6471    0.0000 C   0  0  0  0  0  0  0  0  0  0  0  0
    0.7500    5.3971    0.0000 C   0  0  0  0  0  0  0  0  0  0  0  0
  1  2  2  0
  2  3  1  0
  4  2  1  6
  4  5  1  0
  5  6  1  0
  6  7  1  0
  7  8  1  0
  8  9  1  0
  9 10  1  6
 10 11  1  0
 11 12  1  0
 12 13  1  0
  9  4  1  0
 13 11  1  0
M  CHG  2   3  -1  10   1
M  END
>  <Compound_ID>  (503) 
C08698793

>  <Active>  (503) 
0.0

>  <Smiles>  (503) 
O=C([O-])[C@@H]1CCCC[C@@H]1[NH2+]C1CC1

>  <canonical_smi>  (503) 
O=C([O-])[C@@H]1CCCC[C@@H]1[NH2+]C1CC1

>  <Set>  (503) 
G2 inactive

>  <Set_type>  (503) 
Train

>  <MW>  (503) 
183.25

>  <HBD>  (503) 
1

>  <HBA>  (503) 
2

>  <NRB>  (503) 
3

>  <NR>  (503) 
2

>  <NAR>  (503) 
0

>  <PSA>  (503) 
56.74

>  <Standard Type>  (503) 
nan

>  <Standard Relation>  (503) 
nan

>  <Standard Units>  (503) 
nan

>  <Standard Value>  (503) 
nan

>  <Assay ChEMBL ID>  (503) 
nan

>  <Assay Description>  (503) 
nan

>  <BAO Label>  (503) 
nan

$$$$

     RDKit          2D

 14 15  0  0  0  0  0  0  0  0999 V2000
    3.0000    0.0000    0.0000 N   0  0  0  0  0  0  0  0  0  0  0  0
    1.5000    0.0000    0.0000 C   0  0  0  0  0  0  0  0  0  0  0  0
    0.7500   -1.2990    0.0000 C   0  0  0  0  0  0  0  0  0  0  0  0
   -0.7500   -1.2990    0.0000 C   0  0  0  0  0  0  0  0  0  0  0  0
   -1.5000   -2.5981    0.0000 F   0  0  0  0  0  0  0  0  0  0  0  0
   -1.5000    0.0000    0.0000 C   0  0  0  0  0  0  0  0  0  0  0  0
   -0.7500    1.2990    0.0000 C   0  0  0  0  0  0  0  0  0  0  0  0
    0.7500    1.2990    0.0000 C   0  0  0  0  0  0  0  0  0  0  0  0
    1.5000    2.5981    0.0000 S   0  0  0  0  0  0  0  0  0  0  0  0
    0.7500    3.8971    0.0000 C   0  0  0  0  0  0  0  0  0  0  0  0
   -0.7418    4.0539    0.0000 N   0  0  0  0  0  0  0  0  0  0  0  0
   -1.0537    5.5211    0.0000 N   0  0  0  0  0  0  0  0  0  0  0  0
    0.2454    6.2711    0.0000 C   0  0  0  0  0  0  0  0  0  0  0  0
    1.3601    5.2674    0.0000 S   0  0  0  0  0  0  0  0  0  0  0  0
  1  2  1  0
  2  3  2  0
  3  4  1  0
  4  5  1  0
  4  6  2  0
  6  7  1  0
  7  8  2  0
  8  9  1  0
  9 10  1  0
 10 11  2  0
 11 12  1  0
 12 13  2  0
 13 14  1  0
  8  2  1  0
 14 10  1  0
M  END
>  <Compound_ID>  (504) 
C19869401

>  <Active>  (504) 
0.0

>  <Smiles>  (504) 
Nc1cc(F)ccc1Sc1nncs1

>  <canonical_smi>  (504) 
Nc1cc(F)ccc1Sc1nncs1

>  <Set>  (504) 
G2 inactive

>  <Set_type>  (504) 
Train

>  <MW>  (504) 
227.29

>  <HBD>  (504) 
1

>  <HBA>  (504) 
4

>  <NRB>  (504) 
2

>  <NR>  (504) 
2

>  <NAR>  (504) 
2

>  <PSA>  (504) 
51.8

>  <Standard Type>  (504) 
nan

>  <Standard Relation>  (504) 
nan

>  <Standard Units>  (504) 
nan

>  <Standard Value>  (504) 
nan

>  <Assay ChEMBL ID>  (504) 
nan

>  <Assay Description>  (504) 
nan

>  <BAO Label>  (504) 
nan

$$$$

     RDKit          2D

 14 15  0  0  0  0  0  0  0  0999 V2000
   -3.7500   -6.4952    0.0000 C   0  0  0  0  0  0  0  0  0  0  0  0
   -3.0000   -5.1962    0.0000 C   0  0  0  0  0  0  0  0  0  0  0  0
   -1.5000   -5.1962    0.0000 S   0  0  0  0  0  0  0  0  0  0  0  0
   -0.7500   -3.8971    0.0000 C   0  0  0  0  0  0  0  0  0  0  0  0
   -1.5000   -2.5981    0.0000 C   0  0  0  0  0  0  0  0  0  0  0  0
   -0.7500   -1.2990    0.0000 C   0  0  0  0  0  0  0  0  0  0  0  0
    0.7500   -1.2990    0.0000 C   0  0  0  0  0  0  0  0  0  0  0  0
    1.5000   -2.5981    0.0000 C   0  0  0  0  0  0  0  0  0  0  0  0
    0.7500   -3.8971    0.0000 C   0  0  0  0  0  0  0  0  0  0  0  0
    1.5000   -5.1962    0.0000 N   0  0  0  0  0  0  0  0  0  0  0  0
    1.5000    0.0000    0.0000 O   0  0  0  0  0  0  0  0  0  0  0  0
    0.7500    1.2990    0.0000 C   0  0  0  0  0  0  0  0  0  0  0  0
   -0.7500    1.2990    0.0000 C   0  0  0  0  0  0  0  0  0  0  0  0
   -1.5000    0.0000    0.0000 O   0  0  0  0  0  0  0  0  0  0  0  0
  1  2  1  0
  2  3  1  0
  3  4  1  0
  4  5  2  0
  5  6  1  0
  6  7  2  0
  7  8  1  0
  8  9  2  0
  9 10  1  0
  7 11  1  0
 11 12  1  0
 12 13  1  0
 13 14  1  0
  9  4  1  0
 14  6  1  0
M  END
>  <Compound_ID>  (505) 
C19869645

>  <Active>  (505) 
0.0

>  <Smiles>  (505) 
CCSc1cc2c(cc1N)OCCO2

>  <canonical_smi>  (505) 
CCSc1cc2c(cc1N)OCCO2

>  <Set>  (505) 
G2 inactive

>  <Set_type>  (505) 
Train

>  <MW>  (505) 
211.29

>  <HBD>  (505) 
1

>  <HBA>  (505) 
4

>  <NRB>  (505) 
2

>  <NR>  (505) 
2

>  <NAR>  (505) 
1

>  <PSA>  (505) 
44.48

>  <Standard Type>  (505) 
nan

>  <Standard Relation>  (505) 
nan

>  <Standard Units>  (505) 
nan

>  <Standard Value>  (505) 
nan

>  <Assay ChEMBL ID>  (505) 
nan

>  <Assay Description>  (505) 
nan

>  <BAO Label>  (505) 
nan

$$$$

     RDKit          2D

 25 26  0  0  0  0  0  0  0  0999 V2000
   -4.5205   -8.7470    0.0000 C   0  0  0  0  0  0  0  0  0  0  0  0
   -4.2600   -7.2698    0.0000 C   0  0  0  0  0  0  0  0  0  0  0  0
   -2.8505   -6.7567    0.0000 C   0  0  0  0  0  0  0  0  0  0  0  0
   -2.5900   -5.2795    0.0000 C   0  0  0  0  0  0  0  0  0  0  0  0
   -1.1805   -4.7665    0.0000 N   0  0  0  0  0  0  0  0  0  0  0  0
   -0.9200   -3.2893    0.0000 C   0  0  0  0  0  0  0  0  0  0  0  0
   -2.0691   -2.3251    0.0000 O   0  0  0  0  0  0  0  0  0  0  0  0
    0.4895   -2.7762    0.0000 N   0  0  0  0  0  0  0  0  0  0  0  0
    0.7500   -1.2990    0.0000 C   0  0  0  0  0  0  0  0  0  0  0  0
    2.1595   -1.8121    0.0000 C   0  0  0  0  0  0  0  0  0  0  0  0
    3.3086   -0.8479    0.0000 O   0  0  0  0  0  0  0  0  0  0  0  0
    2.4200   -3.2893    0.0000 N   0  0  0  0  0  0  0  0  0  0  0  0
    3.8296   -3.8023    0.0000 C   0  0  0  0  0  0  0  0  0  0  0  0
    4.0900   -5.2795    0.0000 C   0  0  0  0  0  0  0  0  0  0  0  0
    5.4996   -5.7926    0.0000 C   0  0  0  0  0  0  0  0  0  0  0  0
    6.9768   -5.5321    0.0000 C   0  0  0  0  0  0  0  0  0  0  0  0
    6.4637   -6.9416    0.0000 C   0  0  0  0  0  0  0  0  0  0  0  0
    2.9410   -6.2437    0.0000 N   0  0  0  0  0  4  0  0  0  0  0  0
    3.2014   -7.7209    0.0000 C   0  0  0  0  0  0  0  0  0  0  0  0
    1.5314   -5.7307    0.0000 C   0  0  0  0  0  0  0  0  0  0  0  0
    1.5000    0.0000    0.0000 C   0  0  0  0  0  0  0  0  0  0  0  0
    0.7500    1.2990    0.0000 C   0  0  0  0  0  0  0  0  0  0  0  0
   -0.7500    1.2990    0.0000 C   0  0  0  0  0  0  0  0  0  0  0  0
   -1.5000    0.0000    0.0000 C   0  0  0  0  0  0  0  0  0  0  0  0
   -0.7500   -1.2990    0.0000 C   0  0  0  0  0  0  0  0  0  0  0  0
  1  2  1  0
  2  3  1  0
  3  4  1  0
  4  5  1  0
  5  6  1  0
  6  7  2  0
  6  8  1  0
  8  9  1  0
  9 10  1  0
 10 11  2  0
 10 12  1  0
 12 13  1  0
 14 13  1  1
 14 15  1  0
 15 16  1  0
 16 17  1  0
 14 18  1  0
 18 19  1  0
 18 20  1  0
  9 21  1  0
 21 22  1  0
 22 23  1  0
 23 24  1  0
 24 25  1  0
 25  9  1  0
 17 15  1  0
M  CHG  1  18   1
M  END
>  <Compound_ID>  (506) 
C64299893

>  <Active>  (506) 
0.0

>  <Smiles>  (506) 
CCCCNC(=O)NC1(C(=O)NC[C@@H](C2CC2)[NH+](C)C)CCCCC1

>  <canonical_smi>  (506) 
CCCCNC(=O)NC1(C(=O)NC[C@@H](C2CC2)[NH+](C)C)CCCCC1

>  <Set>  (506) 
G2 inactive

>  <Set_type>  (506) 
Train

>  <MW>  (506) 
353.53

>  <HBD>  (506) 
4

>  <HBA>  (506) 
2

>  <NRB>  (506) 
9

>  <NR>  (506) 
2

>  <NAR>  (506) 
0

>  <PSA>  (506) 
74.67

>  <Standard Type>  (506) 
nan

>  <Standard Relation>  (506) 
nan

>  <Standard Units>  (506) 
nan

>  <Standard Value>  (506) 
nan

>  <Assay ChEMBL ID>  (506) 
nan

>  <Assay Description>  (506) 
nan

>  <BAO Label>  (506) 
nan

$$$$

     RDKit          2D

 24 26  0  0  0  0  0  0  0  0999 V2000
    3.0000    0.0000    0.0000 C   0  0  0  0  0  0  0  0  0  0  0  0
    1.5000    0.0000    0.0000 C   0  0  0  0  0  0  0  0  0  0  0  0
    0.7500   -1.2990    0.0000 C   0  0  0  0  0  0  0  0  0  0  0  0
   -0.7500   -1.2990    0.0000 C   0  0  0  0  0  0  0  0  0  0  0  0
   -1.5000    0.0000    0.0000 C   0  0  0  0  0  0  0  0  0  0  0  0
   -0.7500    1.2990    0.0000 C   0  0  0  0  0  0  0  0  0  0  0  0
   -1.5000    2.5981    0.0000 O   0  0  0  0  0  0  0  0  0  0  0  0
    0.7500    1.2990    0.0000 N   0  0  0  0  0  0  0  0  0  0  0  0
   -3.0000    0.0000    0.0000 C   0  0  0  0  0  0  0  0  0  0  0  0
   -3.7500    1.2990    0.0000 C   0  0  0  0  0  0  0  0  0  0  0  0
   -3.0000    2.5981    0.0000 C   0  0  0  0  0  0  0  0  0  0  0  0
   -3.7500    3.8971    0.0000 C   0  0  0  0  0  0  0  0  0  0  0  0
   -5.2500    3.8971    0.0000 C   0  0  0  0  0  0  0  0  0  0  0  0
   -6.0000    5.1962    0.0000 N   0  0  0  0  0  4  0  0  0  0  0  0
   -7.5000    5.1962    0.0000 O   0  0  0  0  0  0  0  0  0  0  0  0
   -5.2500    6.4952    0.0000 O   0  0  0  0  0  1  0  0  0  0  0  0
   -6.0000    2.5981    0.0000 C   0  0  0  0  0  0  0  0  0  0  0  0
   -5.2500    1.2990    0.0000 C   0  0  0  0  0  0  0  0  0  0  0  0
   -3.7500   -1.2990    0.0000 C   0  0  0  0  0  0  0  0  0  0  0  0
   -5.2500   -1.2990    0.0000 C   0  0  0  0  0  0  0  0  0  0  0  0
   -6.7500   -1.2990    0.0000 N   0  0  0  0  0  0  0  0  0  0  0  0
   -3.0000   -2.5981    0.0000 C   0  0  0  0  0  0  0  0  0  0  0  0
   -3.7500   -3.8971    0.0000 N   0  0  0  0  0  0  0  0  0  0  0  0
   -1.5000   -2.5981    0.0000 O   0  0  0  0  0  0  0  0  0  0  0  0
  1  2  1  0
  2  3  2  0
  3  4  1  0
  4  5  2  0
  5  6  1  0
  6  7  2  0
  6  8  1  0
  5  9  1  0
  9 10  1  6
 10 11  2  0
 11 12  1  0
 12 13  2  0
 13 14  1  0
 14 15  2  0
 14 16  1  0
 13 17  1  0
 17 18  2  0
  9 19  1  0
 19 20  1  0
 20 21  3  0
 19 22  2  0
 22 23  1  0
 22 24  1  0
  8  2  1  0
 18 10  1  0
 24  4  1  0
M  CHG  2  14   1  16  -1
M  END
>  <Compound_ID>  (507) 
C04262779

>  <Active>  (507) 
0.0

>  <Smiles>  (507) 
Cc1cc2c(c(=O)[nH]1)[C@@H](c1ccc([N+](=O)[O-])cc1)C(C#N)=C(N)O2

>  <canonical_smi>  (507) 
Cc1cc2c(c(=O)[nH]1)[C@@H](c1ccc([N+](=O)[O-])cc1)C(C#N)=C(N)O2

>  <Set>  (507) 
G2 inactive

>  <Set_type>  (507) 
Train

>  <MW>  (507) 
324.3

>  <HBD>  (507) 
2

>  <HBA>  (507) 
6

>  <NRB>  (507) 
2

>  <NR>  (507) 
3

>  <NAR>  (507) 
2

>  <PSA>  (507) 
135.04

>  <Standard Type>  (507) 
nan

>  <Standard Relation>  (507) 
nan

>  <Standard Units>  (507) 
nan

>  <Standard Value>  (507) 
nan

>  <Assay ChEMBL ID>  (507) 
nan

>  <Assay Description>  (507) 
nan

>  <BAO Label>  (507) 
nan

$$$$

     RDKit          2D

 26 29  0  0  0  0  0  0  0  0999 V2000
   -9.0323    4.3118    0.0000 C   0  0  0  0  0  0  0  0  0  0  0  0
   -7.5405    4.1551    0.0000 C   0  0  0  0  0  0  0  0  0  0  0  0
   -6.9304    2.7847    0.0000 O   0  0  0  0  0  3  0  0  0  0  0  0
   -6.6589    5.3686    0.0000 N   0  0  0  0  0  0  0  0  0  0  0  0
   -5.1671    5.2118    0.0000 C   0  0  0  0  0  0  0  0  0  0  0  0
   -4.4171    3.9127    0.0000 N   0  0  0  0  0  0  0  0  0  0  0  0
   -2.9499    4.2246    0.0000 C   0  0  0  0  0  0  0  0  0  0  0  0
   -1.8351    3.2209    0.0000 C   0  0  0  0  0  0  0  0  0  0  0  0
   -0.4086    3.6844    0.0000 C   0  0  0  0  0  0  0  0  0  0  0  0
    0.7062    2.6807    0.0000 C   0  0  0  0  0  0  0  0  0  0  0  0
    0.3943    1.2135    0.0000 C   0  0  0  0  0  0  0  0  0  0  0  0
    1.2760    0.0000    0.0000 N   0  0  0  0  0  0  0  0  0  0  0  0
    0.3943   -1.2135    0.0000 C   0  0  0  0  0  0  0  0  0  0  0  0
   -1.0323   -0.7500    0.0000 N   0  0  0  0  0  0  0  0  0  0  0  0
   -1.0323    0.7500    0.0000 N   0  0  0  0  0  0  0  0  0  0  0  0
   -2.1470    1.7537    0.0000 C   0  0  0  0  0  0  0  0  0  0  0  0
   -2.7931    5.7164    0.0000 C   0  0  0  0  0  0  0  0  0  0  0  0
   -1.4940    6.4664    0.0000 C   0  0  0  0  0  0  0  0  0  0  0  0
   -0.1950    5.7164    0.0000 C   0  0  0  0  0  0  0  0  0  0  0  0
    1.1041    6.4664    0.0000 C   0  0  0  0  0  0  0  0  0  0  0  0
    1.1041    7.9664    0.0000 C   0  0  0  0  0  0  0  0  0  0  0  0
    2.4031    8.7164    0.0000 F   0  0  0  0  0  0  0  0  0  0  0  0
   -0.1950    8.7164    0.0000 C   0  0  0  0  0  0  0  0  0  0  0  0
   -0.1950   10.2164    0.0000 C   0  0  0  0  0  0  0  0  0  0  0  0
   -1.4940    7.9664    0.0000 N   0  0  0  0  0  0  0  0  0  0  0  0
   -4.1634    6.3265    0.0000 N   0  0  0  0  0  0  0  0  0  0  0  0
  1  2  1  0
  2  3  2  0
  2  4  1  0
  4  5  2  0
  5  6  1  0
  6  7  1  0
  7  8  1  0
  8  9  1  0
  9 10  2  0
 10 11  1  0
 11 12  2  0
 12 13  1  0
 13 14  2  0
 14 15  1  0
 15 16  1  0
  7 17  2  0
 17 18  1  0
 18 19  2  0
 19 20  1  0
 20 21  2  0
 21 22  1  0
 21 23  1  0
 23 24  1  0
 23 25  2  0
 17 26  1  0
 26  5  1  0
 16  8  2  0
 25 18  1  0
 15 11  1  0
M  CHG  1   3   1
M  END
>  <Compound_ID>  (508) 
C40935333

>  <Active>  (508) 
0.0

>  <Smiles>  (508) 
CC(=[OH+])/N=c1\[nH]c(-c2ccc3ncnn3c2)c(-c2ccc(F)c(C)n2)[nH]1

>  <canonical_smi>  (508) 
CC(=[OH+])/N=c1\[nH]c(-c2ccc3ncnn3c2)c(-c2ccc(F)c(C)n2)[nH]1

>  <Set>  (508) 
G2 inactive

>  <Set_type>  (508) 
Train

>  <MW>  (508) 
352.35

>  <HBD>  (508) 
2

>  <HBA>  (508) 
3

>  <NRB>  (508) 
2

>  <NR>  (508) 
4

>  <NAR>  (508) 
4

>  <PSA>  (508) 
108.42

>  <Standard Type>  (508) 
nan

>  <Standard Relation>  (508) 
nan

>  <Standard Units>  (508) 
nan

>  <Standard Value>  (508) 
nan

>  <Assay ChEMBL ID>  (508) 
nan

>  <Assay Description>  (508) 
nan

>  <BAO Label>  (508) 
nan

$$$$

     RDKit          2D

 26 30  0  0  0  0  0  0  0  0999 V2000
    8.0346   -3.5760    0.0000 O   0  0  0  0  0  0  0  0  0  0  0  0
    6.9199   -4.5797    0.0000 C   0  0  0  0  0  0  0  0  0  0  0  0
    7.2317   -6.0469    0.0000 C   0  0  0  0  0  0  0  0  0  0  0  0
    8.6583   -6.5105    0.0000 C   0  0  0  0  0  0  0  0  0  0  0  0
    9.1218   -7.9371    0.0000 C   0  0  0  0  0  0  0  0  0  0  0  0
   10.6218   -7.9371    0.0000 N   0  0  0  0  0  0  0  0  0  0  0  0
   11.8354   -8.8187    0.0000 C   0  0  0  0  0  0  0  0  0  0  0  0
   13.0489   -7.9371    0.0000 C   0  0  0  0  0  0  0  0  0  0  0  0
   12.5854   -6.5105    0.0000 S   0  0  0  0  0  0  0  0  0  0  0  0
   11.0854   -6.5105    0.0000 C   0  0  0  0  0  0  0  0  0  0  0  0
    9.8718   -5.6288    0.0000 N   0  0  0  0  0  0  0  0  0  0  0  0
    5.4933   -4.1162    0.0000 N   0  0  0  0  0  0  0  0  0  0  0  0
    5.1814   -2.6490    0.0000 C   0  0  0  0  0  0  0  0  0  0  0  0
    3.7548   -2.1855    0.0000 C   0  0  0  0  0  0  0  0  0  0  0  0
    2.6401   -3.1891    0.0000 C   0  0  0  0  0  0  0  0  0  0  0  0
    1.2135   -2.7256    0.0000 C   0  0  0  0  0  0  0  0  0  0  0  0
    0.7500   -1.2990    0.0000 C   0  0  0  0  0  0  0  0  0  0  0  0
    1.5000    0.0000    0.0000 C   0  0  0  0  0  0  0  0  0  0  0  0
    0.7500    1.2990    0.0000 C   0  0  0  0  0  0  0  0  0  0  0  0
   -0.7500    1.2990    0.0000 C   0  0  0  0  0  0  0  0  0  0  0  0
   -1.5000    0.0000    0.0000 N   0  0  0  0  0  0  0  0  0  0  0  0
   -0.7500   -1.2990    0.0000 C   0  0  0  0  0  0  0  0  0  0  0  0
   -1.2135   -2.7256    0.0000 N   0  0  0  0  0  4  0  0  0  0  0  0
    0.0000   -3.6073    0.0000 C   0  0  0  0  0  0  0  0  0  0  0  0
    2.9520   -4.6564    0.0000 C   0  0  0  0  0  0  0  0  0  0  0  0
    4.3786   -5.1199    0.0000 C   0  0  0  0  0  0  0  0  0  0  0  0
  1  2  2  0
  2  3  1  0
  3  4  2  0
  4  5  1  0
  5  6  1  0
  6  7  1  0
  7  8  2  0
  8  9  1  0
  9 10  1  0
 10 11  1  1
  2 12  1  0
 12 13  1  0
 13 14  1  0
 14 15  2  0
 15 16  1  0
 16 17  2  0
 17 18  1  0
 18 19  2  0
 19 20  1  0
 20 21  2  0
 21 22  1  0
 22 23  2  0
 23 24  1  0
 15 25  1  0
 25 26  1  0
 11  4  1  0
 26 12  1  0
 10  6  1  0
 24 16  1  0
 22 17  1  0
M  CHG  1  23   1
M  END
>  <Compound_ID>  (509) 
C64028533

>  <Active>  (509) 
0.0

>  <Smiles>  (509) 
O=C(/C=C1/CN2C=CS[C@@H]2N1)N1CC=C(C2=c3cccnc3=[NH+]C2)CC1

>  <canonical_smi>  (509) 
O=C(/C=C1/CN2C=CS[C@@H]2N1)N1CC=C(C2=c3cccnc3=[NH+]C2)CC1

>  <Set>  (509) 
G2 inactive

>  <Set_type>  (509) 
Train

>  <MW>  (509) 
366.47

>  <HBD>  (509) 
2

>  <HBA>  (509) 
5

>  <NRB>  (509) 
2

>  <NR>  (509) 
5

>  <NAR>  (509) 
1

>  <PSA>  (509) 
62.44

>  <Standard Type>  (509) 
nan

>  <Standard Relation>  (509) 
nan

>  <Standard Units>  (509) 
nan

>  <Standard Value>  (509) 
nan

>  <Assay ChEMBL ID>  (509) 
nan

>  <Assay Description>  (509) 
nan

>  <BAO Label>  (509) 
nan

$$$$

     RDKit          2D

 24 28  0  0  0  0  0  0  0  0999 V2000
    3.7500   -1.2990    0.0000 C   0  0  0  0  0  0  0  0  0  0  0  0
    3.0000    0.0000    0.0000 C   0  0  0  0  0  0  0  0  0  0  0  0
    3.7500    1.2990    0.0000 C   0  0  0  0  0  0  0  0  0  0  0  0
    1.5000    0.0000    0.0000 C   0  0  0  0  0  0  0  0  0  0  0  0
    0.7500   -1.2990    0.0000 C   0  0  0  0  0  0  0  0  0  0  0  0
   -0.7500   -1.2990    0.0000 C   0  0  0  0  0  0  0  0  0  0  0  0
   -1.5000    0.0000    0.0000 C   0  0  0  0  0  0  0  0  0  0  0  0
   -2.9672   -0.3119    0.0000 S   0  0  0  0  0  0  0  0  0  0  0  0
   -3.1240   -1.8037    0.0000 C   0  0  0  0  0  0  0  0  0  0  0  0
   -1.7537   -2.4138    0.0000 C   0  0  0  0  0  0  0  0  0  0  0  0
   -1.5969   -3.9055    0.0000 C   0  0  0  0  0  0  0  0  0  0  0  0
   -0.3834   -4.7872    0.0000 N   0  0  0  0  0  0  0  0  0  0  0  0
   -0.8469   -6.2138    0.0000 N   0  0  0  0  0  4  0  0  0  0  0  0
   -2.3469   -6.2138    0.0000 C   0  0  0  0  0  0  0  0  0  0  0  0
   -3.2286   -7.4273    0.0000 S   0  0  0  0  0  0  0  0  0  0  0  0
   -2.8104   -4.7872    0.0000 N   0  0  0  0  0  0  0  0  0  0  0  0
   -4.1807   -4.1771    0.0000 C   0  0  0  0  0  0  0  0  0  0  0  0
   -5.5511   -4.7872    0.0000 N   0  0  0  0  0  0  0  0  0  0  0  0
   -6.5548   -3.6725    0.0000 N   0  0  0  0  0  0  0  0  0  0  0  0
   -5.8048   -2.3735    0.0000 C   0  0  0  0  0  0  0  0  0  0  0  0
   -6.4149   -1.0031    0.0000 S   0  0  0  0  0  0  0  0  0  0  0  0
   -4.3375   -2.6853    0.0000 N   0  0  0  0  0  0  0  0  0  0  0  0
   -0.7500    1.2990    0.0000 C   0  0  0  0  0  0  0  0  0  0  0  0
    0.7500    1.2990    0.0000 O   0  0  0  0  0  0  0  0  0  0  0  0
  1  2  1  0
  2  3  1  0
  4  2  1  1
  4  5  1  0
  5  6  1  0
  6  7  2  0
  7  8  1  0
  8  9  1  0
  9 10  2  0
 10 11  1  0
 11 12  1  6
 12 13  2  0
 13 14  1  0
 14 15  2  0
 14 16  1  0
 16 17  1  0
 17 18  2  0
 18 19  1  0
 19 20  1  0
 20 21  2  0
 20 22  1  0
  7 23  1  0
 23 24  1  0
 24  4  1  0
 10  6  1  0
 16 11  1  0
 22 17  1  0
 22  9  1  0
M  CHG  1  13   1
M  END
>  <Compound_ID>  (510) 
C64480193

>  <Active>  (510) 
0.0

>  <Smiles>  (510) 
CC(C)[C@H]1Cc2c(sc3c2[C@@H]2N=[NH+]C(=S)N2c2n[nH]c(=S)n2-3)CO1

>  <canonical_smi>  (510) 
CC(C)[C@H]1Cc2c(sc3c2[C@@H]2N=[NH+]C(=S)N2c2n[nH]c(=S)n2-3)CO1

>  <Set>  (510) 
G2 inactive

>  <Set_type>  (510) 
Train

>  <MW>  (510) 
379.52

>  <HBD>  (510) 
2

>  <HBA>  (510) 
5

>  <NRB>  (510) 
1

>  <NR>  (510) 
5

>  <NAR>  (510) 
2

>  <PSA>  (510) 
72.41

>  <Standard Type>  (510) 
nan

>  <Standard Relation>  (510) 
nan

>  <Standard Units>  (510) 
nan

>  <Standard Value>  (510) 
nan

>  <Assay ChEMBL ID>  (510) 
nan

>  <Assay Description>  (510) 
nan

>  <BAO Label>  (510) 
nan

$$$$

     RDKit          2D

 20 22  0  0  0  0  0  0  0  0999 V2000
    3.2286   -0.0000    0.0000 O   0  0  0  0  0  0  0  0  0  0  0  0
    1.7286    0.0000    0.0000 C   0  0  0  0  0  0  0  0  0  0  0  0
    1.0777    1.3515    0.0000 C   0  0  0  0  0  0  0  0  0  0  0  0
   -0.3846    1.6852    0.0000 C   0  0  0  0  0  0  0  0  0  0  0  0
   -1.5574    0.7500    0.0000 N   0  0  0  0  0  4  0  0  0  0  0  0
   -2.9088    1.4008    0.0000 C   0  0  0  0  0  0  0  0  0  0  0  0
   -3.0209    2.8966    0.0000 C   0  0  0  0  0  0  0  0  0  0  0  0
   -4.2970    3.6852    0.0000 N   0  0  0  0  0  0  0  0  0  0  0  0
   -3.9413    5.1424    0.0000 C   0  0  0  0  0  0  0  0  0  0  0  0
   -4.9112    6.2866    0.0000 C   0  0  0  0  0  0  0  0  0  0  0  0
   -6.4070    6.1745    0.0000 C   0  0  0  0  0  0  0  0  0  0  0  0
   -6.9759    7.5625    0.0000 C   0  0  0  0  0  0  0  0  0  0  0  0
   -8.4331    7.9181    0.0000 Br  0  0  0  0  0  0  0  0  0  0  0  0
   -5.8316    8.5324    0.0000 C   0  0  0  0  0  0  0  0  0  0  0  0
   -4.5556    7.7439    0.0000 S   0  0  0  0  0  0  0  0  0  0  0  0
   -2.4455    5.2545    0.0000 N   0  0  0  0  0  0  0  0  0  0  0  0
   -1.8767    3.8665    0.0000 O   0  0  0  0  0  0  0  0  0  0  0  0
   -1.5574   -0.7500    0.0000 C   0  0  0  0  0  0  0  0  0  0  0  0
   -0.3846   -1.6852    0.0000 C   0  0  0  0  0  0  0  0  0  0  0  0
    1.0777   -1.3515    0.0000 N   0  0  0  0  0  0  0  0  0  0  0  0
  1  2  2  0
  2  3  1  0
  3  4  1  0
  4  5  1  0
  5  6  1  0
  6  7  1  0
  7  8  2  0
  8  9  1  0
  9 10  1  0
 10 11  2  0
 11 12  1  0
 12 13  1  0
 12 14  2  0
 14 15  1  0
  9 16  2  0
 16 17  1  0
  5 18  1  0
 18 19  1  0
 19 20  1  0
 20  2  1  0
 17  7  1  0
 15 10  1  0
M  CHG  1   5   1
M  END
>  <Compound_ID>  (511) 
C65954533

>  <Active>  (511) 
0.0

>  <Smiles>  (511) 
O=C1CC[NH+](Cc2nc(-c3cc(Br)cs3)no2)CCN1

>  <canonical_smi>  (511) 
O=C1CC[NH+](Cc2nc(-c3cc(Br)cs3)no2)CCN1

>  <Set>  (511) 
G2 inactive

>  <Set_type>  (511) 
Train

>  <MW>  (511) 
358.24

>  <HBD>  (511) 
2

>  <HBA>  (511) 
4

>  <NRB>  (511) 
3

>  <NR>  (511) 
3

>  <NAR>  (511) 
2

>  <PSA>  (511) 
72.46

>  <Standard Type>  (511) 
nan

>  <Standard Relation>  (511) 
nan

>  <Standard Units>  (511) 
nan

>  <Standard Value>  (511) 
nan

>  <Assay ChEMBL ID>  (511) 
nan

>  <Assay Description>  (511) 
nan

>  <BAO Label>  (511) 
nan

$$$$

     RDKit          2D

 19 22  0  0  0  0  0  0  0  0999 V2000
   -1.2114    6.1554    0.0000 O   0  0  0  0  0  0  0  0  0  0  0  0
   -0.0967    5.1517    0.0000 C   0  0  0  0  0  0  0  0  0  0  0  0
    1.3299    5.6152    0.0000 N   0  0  0  0  0  0  0  0  0  0  0  0
    1.6418    7.0824    0.0000 C   0  0  0  0  0  0  0  0  0  0  0  0
    0.6381    8.1971    0.0000 C   0  0  0  0  0  0  0  0  0  0  0  0
    1.3881    9.4962    0.0000 C   0  0  0  0  0  0  0  0  0  0  0  0
    1.5449    8.0044    0.0000 C   0  0  0  0  0  0  0  0  0  0  0  0
    3.0121    7.6925    0.0000 C   0  0  0  0  0  0  0  0  0  0  0  0
    3.7621    8.9916    0.0000 C   0  0  0  0  0  0  0  0  0  0  0  0
    2.7584   10.1063    0.0000 N   0  0  0  0  0  4  0  0  0  0  0  0
   -0.4086    3.6844    0.0000 C   0  0  0  0  0  0  0  0  0  0  0  0
    0.7062    2.6807    0.0000 C   0  0  0  0  0  0  0  0  0  0  0  0
    0.3943    1.2135    0.0000 C   0  0  0  0  0  0  0  0  0  0  0  0
    1.2760    0.0000    0.0000 N   0  0  0  0  0  0  0  0  0  0  0  0
    0.3943   -1.2135    0.0000 C   0  0  0  0  0  0  0  0  0  0  0  0
   -1.0323   -0.7500    0.0000 C   0  0  0  0  0  0  0  0  0  0  0  0
   -1.0323    0.7500    0.0000 N   0  0  0  0  0  0  0  0  0  0  0  0
   -2.1470    1.7537    0.0000 C   0  0  0  0  0  0  0  0  0  0  0  0
   -1.8351    3.2209    0.0000 N   0  0  0  0  0  0  0  0  0  0  0  0
  1  2  2  0
  2  3  1  0
  4  3  1  6
  4  5  1  0
  6  5  1  6
  6  7  1  0
  7  8  1  0
  8  9  1  6
  9 10  1  0
  2 11  1  0
 11 12  2  0
 12 13  1  0
 13 14  2  0
 14 15  1  0
 15 16  2  0
 16 17  1  0
 17 18  1  0
 18 19  2  0
  8  4  1  0
 19 11  1  0
 10  6  1  0
 17 13  1  0
M  CHG  1  10   1
M  END
>  <Compound_ID>  (512) 
C39073355

>  <Active>  (512) 
0.0

>  <Smiles>  (512) 
O=C(N[C@@H]1C[C@H]2C[C@@H]1C[NH2+]2)c1cc2nccn2cn1

>  <canonical_smi>  (512) 
O=C(N[C@@H]1C[C@H]2C[C@@H]1C[NH2+]2)c1cc2nccn2cn1

>  <Set>  (512) 
G2 inactive

>  <Set_type>  (512) 
Train

>  <MW>  (512) 
258.31

>  <HBD>  (512) 
2

>  <HBA>  (512) 
3

>  <NRB>  (512) 
2

>  <NR>  (512) 
4

>  <NAR>  (512) 
2

>  <PSA>  (512) 
75.9

>  <Standard Type>  (512) 
nan

>  <Standard Relation>  (512) 
nan

>  <Standard Units>  (512) 
nan

>  <Standard Value>  (512) 
nan

>  <Assay ChEMBL ID>  (512) 
nan

>  <Assay Description>  (512) 
nan

>  <BAO Label>  (512) 
nan

$$$$

     RDKit          2D

 16 18  0  0  0  0  0  0  0  0999 V2000
   -2.3649    4.9155    0.0000 O   0  0  0  0  0  0  0  0  0  0  0  0
   -3.8321    4.6036    0.0000 N   0  0  0  0  0  4  0  0  0  0  0  0
   -4.8358    5.7184    0.0000 O   0  0  0  0  0  1  0  0  0  0  0  0
   -4.2956    3.1771    0.0000 C   0  0  0  0  0  0  0  0  0  0  0  0
   -5.7222    2.7135    0.0000 N   0  0  0  0  0  0  0  0  0  0  0  0
   -5.7222    1.2135    0.0000 N   0  0  0  0  0  0  0  0  0  0  0  0
   -4.2956    0.7500    0.0000 C   0  0  0  0  0  0  0  0  0  0  0  0
   -3.4140    1.9635    0.0000 C   0  0  0  0  0  0  0  0  0  0  0  0
   -1.9140    1.9635    0.0000 N   0  0  0  0  0  0  0  0  0  0  0  0
   -1.0323    3.1771    0.0000 C   0  0  0  0  0  0  0  0  0  0  0  0
    0.3943    2.7135    0.0000 C   0  0  0  0  0  0  0  0  0  0  0  0
    0.3943    1.2135    0.0000 C   0  0  0  0  0  0  0  0  0  0  0  0
    1.2760    0.0000    0.0000 C   0  0  0  0  0  0  0  0  0  0  0  0
    0.3943   -1.2135    0.0000 N   0  0  0  0  0  4  0  0  0  0  0  0
   -1.0323   -0.7500    0.0000 C   0  0  0  0  0  0  0  0  0  0  0  0
   -1.0323    0.7500    0.0000 C   0  0  0  0  0  0  0  0  0  0  0  0
  1  2  2  0
  2  3  1  0
  2  4  1  0
  4  5  2  0
  5  6  1  0
  6  7  1  0
  7  8  2  0
  8  9  1  0
  9 10  1  0
 10 11  1  0
 12 11  1  1
 12 13  1  0
 13 14  1  0
 14 15  1  0
 16 15  1  1
  8  4  1  0
 16  9  1  0
 16 12  1  0
M  CHG  3   2   1   3  -1  14   1
M  END
>  <Compound_ID>  (513) 
C40998918

>  <Active>  (513) 
0.0

>  <Smiles>  (513) 
O=[N+]([O-])c1n[nH]cc1N1CC[C@H]2C[NH2+]C[C@H]21

>  <canonical_smi>  (513) 
O=[N+]([O-])c1n[nH]cc1N1CC[C@H]2C[NH2+]C[C@H]21

>  <Set>  (513) 
G2 inactive

>  <Set_type>  (513) 
Train

>  <MW>  (513) 
224.24

>  <HBD>  (513) 
2

>  <HBA>  (513) 
4

>  <NRB>  (513) 
2

>  <NR>  (513) 
3

>  <NAR>  (513) 
1

>  <PSA>  (513) 
91.67

>  <Standard Type>  (513) 
nan

>  <Standard Relation>  (513) 
nan

>  <Standard Units>  (513) 
nan

>  <Standard Value>  (513) 
nan

>  <Assay ChEMBL ID>  (513) 
nan

>  <Assay Description>  (513) 
nan

>  <BAO Label>  (513) 
nan

$$$$

     RDKit          2D

 19 21  0  0  0  0  0  0  0  0999 V2000
   -3.7500   -3.8971    0.0000 C   0  0  0  0  0  0  0  0  0  0  0  0
   -3.0000   -2.5981    0.0000 N   0  0  0  0  0  4  0  0  0  0  0  0
   -1.5000   -2.5981    0.0000 C   0  0  0  0  0  0  0  0  0  0  0  0
   -0.7500   -3.8971    0.0000 C   0  0  0  0  0  0  0  0  0  0  0  0
    0.7500   -3.8971    0.0000 C   0  0  0  0  0  0  0  0  0  0  0  0
    0.4895   -5.3743    0.0000 C   0  0  0  0  0  0  0  0  0  0  0  0
    2.1595   -4.4101    0.0000 C   0  0  0  0  0  0  0  0  0  0  0  0
    1.5000   -2.5981    0.0000 C   0  0  0  0  0  0  0  0  0  0  0  0
    0.7500   -1.2990    0.0000 C   0  0  0  0  0  0  0  0  0  0  0  0
    1.5000    0.0000    0.0000 N   0  0  0  0  0  0  0  0  0  0  0  0
    0.7500    1.2990    0.0000 C   0  0  0  0  0  0  0  0  0  0  0  0
    1.5000    2.5981    0.0000 C   0  0  0  0  0  0  0  0  0  0  0  0
    0.8899    3.9684    0.0000 N   0  0  0  0  0  0  0  0  0  0  0  0
    2.0046    4.9721    0.0000 C   0  0  0  0  0  0  0  0  0  0  0  0
    3.3037    4.2221    0.0000 N   0  0  0  0  0  0  0  0  0  0  0  0
    2.9918    2.7549    0.0000 N   0  0  0  0  0  0  0  0  0  0  0  0
   -0.7500    1.2990    0.0000 N   0  0  0  0  0  0  0  0  0  0  0  0
   -1.5000    0.0000    0.0000 C   0  0  0  0  0  0  0  0  0  0  0  0
   -0.7500   -1.2990    0.0000 C   0  0  0  0  0  0  0  0  0  0  0  0
  1  2  1  0
  3  2  1  1
  3  4  1  0
  4  5  1  0
  5  6  1  0
  5  7  1  0
  5  8  1  0
  8  9  1  0
  9 10  2  0
 10 11  1  0
 11 12  1  0
 12 13  2  0
 13 14  1  0
 14 15  2  0
 15 16  1  0
 11 17  2  0
 17 18  1  0
 18 19  2  0
 19  3  1  0
 19  9  1  0
 16 12  1  0
M  CHG  1   2   1
M  END
>  <Compound_ID>  (514) 
C50101164

>  <Active>  (514) 
0.0

>  <Smiles>  (514) 
C[NH2+][C@@H]1CC(C)(C)Cc2nc(-c3ncn[nH]3)ncc21

>  <canonical_smi>  (514) 
C[NH2+][C@@H]1CC(C)(C)Cc2nc(-c3ncn[nH]3)ncc21

>  <Set>  (514) 
G2 inactive

>  <Set_type>  (514) 
Train

>  <MW>  (514) 
259.34

>  <HBD>  (514) 
2

>  <HBA>  (514) 
4

>  <NRB>  (514) 
2

>  <NR>  (514) 
3

>  <NAR>  (514) 
2

>  <PSA>  (514) 
83.96

>  <Standard Type>  (514) 
nan

>  <Standard Relation>  (514) 
nan

>  <Standard Units>  (514) 
nan

>  <Standard Value>  (514) 
nan

>  <Assay ChEMBL ID>  (514) 
nan

>  <Assay Description>  (514) 
nan

>  <BAO Label>  (514) 
nan

$$$$

     RDKit          2D

 17 18  0  0  0  0  0  0  0  0999 V2000
    5.0260   -1.2990    0.0000 C   0  0  0  0  0  0  0  0  0  0  0  0
    3.5260   -1.2990    0.0000 O   0  0  0  0  0  0  0  0  0  0  0  0
    2.7760    0.0000    0.0000 C   0  0  0  0  0  0  0  0  0  0  0  0
    1.2760    0.0000    0.0000 C   0  0  0  0  0  0  0  0  0  0  0  0
    0.3943    1.2135    0.0000 C   0  0  0  0  0  0  0  0  0  0  0  0
    0.8578    2.6401    0.0000 C   0  0  0  0  0  0  0  0  0  0  0  0
    2.3250    2.9520    0.0000 N   0  0  0  0  0  4  0  0  0  0  0  0
   -1.0323    0.7500    0.0000 N   0  0  0  0  0  0  0  0  0  0  0  0
   -1.0323   -0.7500    0.0000 N   0  0  0  0  0  0  0  0  0  0  0  0
    0.3943   -1.2135    0.0000 N   0  0  0  0  0  0  0  0  0  0  0  0
    0.8578   -2.6401    0.0000 C   0  0  0  0  0  0  0  0  0  0  0  0
    2.2844   -3.1036    0.0000 N   0  0  0  0  0  0  0  0  0  0  0  0
    2.2844   -4.6036    0.0000 C   0  0  0  0  0  0  0  0  0  0  0  0
    3.4979   -5.4853    0.0000 C   0  0  0  0  0  0  0  0  0  0  0  0
    0.8578   -5.0672    0.0000 C   0  0  0  0  0  0  0  0  0  0  0  0
    0.3943   -6.4937    0.0000 C   0  0  0  0  0  0  0  0  0  0  0  0
   -0.0239   -3.8536    0.0000 S   0  0  0  0  0  0  0  0  0  0  0  0
  1  2  1  0
  2  3  1  0
  3  4  1  0
  4  5  2  0
  5  6  1  0
  6  7  1  0
  5  8  1  0
  8  9  2  0
  9 10  1  0
 10 11  1  0
 11 12  2  0
 12 13  1  0
 13 14  1  0
 13 15  2  0
 15 16  1  0
 15 17  1  0
 10  4  1  0
 17 11  1  0
M  CHG  1   7   1
M  END
>  <Compound_ID>  (515) 
C62427964

>  <Active>  (515) 
0.0

>  <Smiles>  (515) 
COCc1c(C[NH3+])nnn1-c1nc(C)c(C)s1

>  <canonical_smi>  (515) 
COCc1c(C[NH3+])nnn1-c1nc(C)c(C)s1

>  <Set>  (515) 
G2 inactive

>  <Set_type>  (515) 
Train

>  <MW>  (515) 
254.34

>  <HBD>  (515) 
1

>  <HBA>  (515) 
4

>  <NRB>  (515) 
4

>  <NR>  (515) 
2

>  <NAR>  (515) 
2

>  <PSA>  (515) 
80.47

>  <Standard Type>  (515) 
nan

>  <Standard Relation>  (515) 
nan

>  <Standard Units>  (515) 
nan

>  <Standard Value>  (515) 
nan

>  <Assay ChEMBL ID>  (515) 
nan

>  <Assay Description>  (515) 
nan

>  <BAO Label>  (515) 
nan

$$$$

     RDKit          2D

 16 17  0  0  0  0  0  0  0  0999 V2000
    1.6418    7.0824    0.0000 C   0  0  0  0  0  0  0  0  0  0  0  0
    1.3299    5.6152    0.0000 C   0  0  0  0  0  0  0  0  0  0  0  0
   -0.0967    5.1517    0.0000 N   0  0  0  0  0  0  0  0  0  0  0  0
   -1.2114    6.1554    0.0000 C   0  0  0  0  0  0  0  0  0  0  0  0
   -0.8995    7.6226    0.0000 C   0  0  0  0  0  0  0  0  0  0  0  0
   -0.4086    3.6844    0.0000 C   0  0  0  0  0  0  0  0  0  0  0  0
   -1.8351    3.2209    0.0000 N   0  0  0  0  0  0  0  0  0  0  0  0
   -2.1470    1.7537    0.0000 C   0  0  0  0  0  0  0  0  0  0  0  0
   -3.5736    1.2902    0.0000 N   0  0  0  0  0  0  0  0  0  0  0  0
   -1.0323    0.7500    0.0000 N   0  0  0  0  0  0  0  0  0  0  0  0
    0.3943    1.2135    0.0000 C   0  0  0  0  0  0  0  0  0  0  0  0
    0.7062    2.6807    0.0000 N   0  0  0  0  0  4  0  0  0  0  0  0
    1.2760    0.0000    0.0000 O   0  0  0  0  0  0  0  0  0  0  0  0
    0.3943   -1.2135    0.0000 C   0  0  0  0  0  0  0  0  0  0  0  0
   -1.0323   -0.7500    0.0000 C   0  0  0  0  0  0  0  0  0  0  0  0
   -2.2458   -1.6317    0.0000 Cl  0  0  0  0  0  0  0  0  0  0  0  0
  1  2  1  0
  2  3  1  0
  3  4  1  0
  4  5  1  0
  3  6  1  0
  6  7  2  0
  7  8  1  0
  8  9  1  6
  8 10  1  0
 10 11  1  0
 11 12  2  0
 11 13  1  0
 13 14  1  0
 14 15  1  0
 15 16  1  6
 12  6  1  0
 15 10  1  0
M  CHG  1  12   1
M  END
>  <Compound_ID>  (516) 
C16848118

>  <Active>  (516) 
0.0

>  <Smiles>  (516) 
CCN(CC)C1=N[C@@H](N)N2C(=[NH+]1)OC[C@@H]2Cl

>  <canonical_smi>  (516) 
CCN(CC)C1=N[C@@H](N)N2C(=[NH+]1)OC[C@@H]2Cl

>  <Set>  (516) 
G2 inactive

>  <Set_type>  (516) 
Train

>  <MW>  (516) 
246.72

>  <HBD>  (516) 
2

>  <HBA>  (516) 
4

>  <NRB>  (516) 
2

>  <NR>  (516) 
2

>  <NAR>  (516) 
0

>  <PSA>  (516) 
68.06

>  <Standard Type>  (516) 
nan

>  <Standard Relation>  (516) 
nan

>  <Standard Units>  (516) 
nan

>  <Standard Value>  (516) 
nan

>  <Assay ChEMBL ID>  (516) 
nan

>  <Assay Description>  (516) 
nan

>  <BAO Label>  (516) 
nan

$$$$

     RDKit          2D

 30 33  0  0  0  0  0  0  0  0999 V2000
   -7.7107  -17.2380    0.0000 C   0  0  0  0  0  0  0  0  0  0  0  0
   -6.3404  -17.8481    0.0000 O   0  0  0  0  0  0  0  0  0  0  0  0
   -5.1269  -16.9664    0.0000 C   0  0  0  0  0  0  0  0  0  0  0  0
   -5.2837  -15.4746    0.0000 C   0  0  0  0  0  0  0  0  0  0  0  0
   -4.0701  -14.5929    0.0000 C   0  0  0  0  0  0  0  0  0  0  0  0
   -2.6998  -15.2030    0.0000 C   0  0  0  0  0  0  0  0  0  0  0  0
   -1.4863  -14.3214    0.0000 C   0  0  0  0  0  0  0  0  0  0  0  0
   -1.6431  -12.8296    0.0000 C   0  0  0  0  0  0  0  0  0  0  0  0
   -0.4296  -11.9479    0.0000 N   0  0  0  0  0  0  0  0  0  0  0  0
   -0.5864  -10.4561    0.0000 C   0  0  0  0  0  0  0  0  0  0  0  0
   -1.9567   -9.8460    0.0000 O   0  0  0  0  0  0  0  0  0  0  0  0
    0.6272   -9.5744    0.0000 C   0  0  0  0  0  0  0  0  0  0  0  0
    0.4704   -8.0826    0.0000 N   0  0  0  0  0  0  0  0  0  0  0  0
    1.6839   -7.2010    0.0000 C   0  0  0  0  0  0  0  0  0  0  0  0
    3.0542   -7.8111    0.0000 O   0  0  0  0  0  0  0  0  0  0  0  0
    1.5271   -5.7092    0.0000 N   0  0  0  0  0  0  0  0  0  0  0  0
    2.7406   -4.8275    0.0000 C   0  0  0  0  0  0  0  0  0  0  0  0
    2.5838   -3.3357    0.0000 C   0  0  0  0  0  0  0  0  0  0  0  0
    1.2135   -2.7256    0.0000 C   0  0  0  0  0  0  0  0  0  0  0  0
    0.7500   -1.2990    0.0000 C   0  0  0  0  0  0  0  0  0  0  0  0
    1.5000    0.0000    0.0000 C   0  0  0  0  0  0  0  0  0  0  0  0
    0.7500    1.2990    0.0000 C   0  0  0  0  0  0  0  0  0  0  0  0
   -0.7500    1.2990    0.0000 C   0  0  0  0  0  0  0  0  0  0  0  0
   -1.5000    0.0000    0.0000 C   0  0  0  0  0  0  0  0  0  0  0  0
   -0.7500   -1.2990    0.0000 C   0  0  0  0  0  0  0  0  0  0  0  0
   -1.2135   -2.7256    0.0000 N   0  0  0  0  0  4  0  0  0  0  0  0
    0.0000   -3.6073    0.0000 C   0  0  0  0  0  0  0  0  0  0  0  0
    0.1568   -5.0991    0.0000 C   0  0  0  0  0  0  0  0  0  0  0  0
   -2.5430  -16.6948    0.0000 C   0  0  0  0  0  0  0  0  0  0  0  0
   -3.7566  -17.5765    0.0000 C   0  0  0  0  0  0  0  0  0  0  0  0
  1  2  1  0
  2  3  1  0
  3  4  2  0
  4  5  1  0
  5  6  2  0
  6  7  1  0
  7  8  1  0
  8  9  1  0
  9 10  1  0
 10 11  2  0
 10 12  1  0
 12 13  1  0
 13 14  1  0
 14 15  2  0
 14 16  1  0
 16 17  1  0
 17 18  1  0
 18 19  1  0
 19 20  2  0
 20 21  1  0
 21 22  2  0
 22 23  1  0
 23 24  2  0
 24 25  1  0
 25 26  2  0
 26 27  1  0
 27 28  1  1
  6 29  1  0
 29 30  2  0
 30  3  1  0
 28 16  1  0
 27 19  1  0
 25 20  1  0
M  CHG  1  26   1
M  END
>  <Compound_ID>  (517) 
C63270890

>  <Active>  (517) 
0.0

>  <Smiles>  (517) 
COc1ccc(CCNC(=O)CNC(=O)N2CCC3=c4ccccc4=[NH+][C@@H]3C2)cc1

>  <canonical_smi>  (517) 
COc1ccc(CCNC(=O)CNC(=O)N2CCC3=c4ccccc4=[NH+][C@@H]3C2)cc1

>  <Set>  (517) 
G2 inactive

>  <Set_type>  (517) 
Train

>  <MW>  (517) 
407.49

>  <HBD>  (517) 
3

>  <HBA>  (517) 
3

>  <NRB>  (517) 
6

>  <NR>  (517) 
4

>  <NAR>  (517) 
2

>  <PSA>  (517) 
84.64

>  <Standard Type>  (517) 
nan

>  <Standard Relation>  (517) 
nan

>  <Standard Units>  (517) 
nan

>  <Standard Value>  (517) 
nan

>  <Assay ChEMBL ID>  (517) 
nan

>  <Assay Description>  (517) 
nan

>  <BAO Label>  (517) 
nan

$$$$

     RDKit          2D

 29 33  0  0  0  0  0  0  0  0999 V2000
   -7.9478   -4.8680    0.0000 C   0  0  0  0  0  0  0  0  0  0  0  0
   -8.2597   -6.3352    0.0000 O   0  0  0  0  0  0  0  0  0  0  0  0
   -7.1449   -7.3389    0.0000 C   0  0  0  0  0  0  0  0  0  0  0  0
   -5.7184   -6.8754    0.0000 C   0  0  0  0  0  0  0  0  0  0  0  0
   -4.6036   -7.8791    0.0000 C   0  0  0  0  0  0  0  0  0  0  0  0
   -3.1771   -7.4156    0.0000 C   0  0  0  0  0  0  0  0  0  0  0  0
   -2.7135   -5.9890    0.0000 N   0  0  0  0  0  0  0  0  0  0  0  0
   -1.2135   -5.9890    0.0000 N   0  0  0  0  0  0  0  0  0  0  0  0
   -0.7500   -7.4156    0.0000 C   0  0  0  0  0  0  0  0  0  0  0  0
    0.7500   -7.4156    0.0000 N   0  0  0  0  0  0  0  0  0  0  0  0
    1.2135   -5.9890    0.0000 N   0  0  0  0  0  0  0  0  0  0  0  0
   -0.0000   -5.1073    0.0000 C   0  0  0  0  0  0  0  0  0  0  0  0
   -0.0000   -3.6073    0.0000 C   0  0  0  0  0  0  0  0  0  0  0  0
    1.2135   -2.7256    0.0000 C   0  0  0  0  0  0  0  0  0  0  0  0
    0.7500   -1.2990    0.0000 C   0  0  0  0  0  0  0  0  0  0  0  0
    1.5000    0.0000    0.0000 C   0  0  0  0  0  0  0  0  0  0  0  0
    0.7500    1.2990    0.0000 C   0  0  0  0  0  0  0  0  0  0  0  0
   -0.7500    1.2990    0.0000 C   0  0  0  0  0  0  0  0  0  0  0  0
   -1.5000    0.0000    0.0000 C   0  0  0  0  0  0  0  0  0  0  0  0
   -0.7500   -1.2990    0.0000 C   0  0  0  0  0  0  0  0  0  0  0  0
   -1.2135   -2.7256    0.0000 N   0  0  0  0  0  4  0  0  0  0  0  0
   -1.9635   -8.2972    0.0000 S   0  0  0  0  0  0  0  0  0  0  0  0
   -4.9155   -9.3463    0.0000 C   0  0  0  0  0  0  0  0  0  0  0  0
   -6.3421   -9.8098    0.0000 C   0  0  0  0  0  0  0  0  0  0  0  0
   -6.6540  -11.2771    0.0000 O   0  0  0  0  0  0  0  0  0  0  0  0
   -8.0805  -11.7406    0.0000 C   0  0  0  0  0  0  0  0  0  0  0  0
   -7.4568   -8.8061    0.0000 C   0  0  0  0  0  0  0  0  0  0  0  0
   -8.8834   -9.2697    0.0000 O   0  0  0  0  0  0  0  0  0  0  0  0
   -9.9981   -8.2660    0.0000 C   0  0  0  0  0  0  0  0  0  0  0  0
  1  2  1  0
  2  3  1  0
  3  4  2  0
  4  5  1  0
  5  6  1  0
  6  7  2  0
  7  8  1  0
  8  9  1  0
  9 10  1  6
 10 11  1  0
 12 11  1  1
 12 13  1  0
 13 14  1  1
 14 15  2  0
 15 16  1  0
 16 17  2  0
 17 18  1  0
 18 19  2  0
 19 20  1  0
 20 21  2  0
  9 22  1  0
  5 23  2  0
 23 24  1  0
 24 25  1  0
 25 26  1  0
 24 27  2  0
 27 28  1  0
 28 29  1  0
 27  3  1  0
 22  6  1  0
 12  8  1  0
 21 13  1  0
 20 15  1  0
M  CHG  1  21   1
M  END
>  <Compound_ID>  (518) 
C63282082

>  <Active>  (518) 
0.0

>  <Smiles>  (518) 
COc1cc(C2=NN3[C@H](NN[C@@H]3[C@@H]3C=c4ccccc4=[NH+]3)S2)cc(OC)c1OC

>  <canonical_smi>  (518) 
COc1cc(C2=NN3[C@H](NN[C@@H]3[C@@H]3C=c4ccccc4=[NH+]3)S2)cc(OC)c1OC

>  <Set>  (518) 
G2 inactive

>  <Set_type>  (518) 
Train

>  <MW>  (518) 
412.5

>  <HBD>  (518) 
3

>  <HBA>  (518) 
7

>  <NRB>  (518) 
5

>  <NR>  (518) 
5

>  <NAR>  (518) 
2

>  <PSA>  (518) 
81.32

>  <Standard Type>  (518) 
nan

>  <Standard Relation>  (518) 
nan

>  <Standard Units>  (518) 
nan

>  <Standard Value>  (518) 
nan

>  <Assay ChEMBL ID>  (518) 
nan

>  <Assay Description>  (518) 
nan

>  <BAO Label>  (518) 
nan

$$$$

     RDKit          2D

 28 30  0  0  0  0  0  0  0  0999 V2000
   -7.1185    5.8871    0.0000 C   0  0  0  0  0  0  0  0  0  0  0  0
   -6.6763    4.4537    0.0000 O   0  0  0  0  0  0  0  0  0  0  0  0
   -5.2140    4.1199    0.0000 C   0  0  0  0  0  0  0  0  0  0  0  0
   -4.1937    5.2195    0.0000 C   0  0  0  0  0  0  0  0  0  0  0  0
   -2.7313    4.8857    0.0000 C   0  0  0  0  0  0  0  0  0  0  0  0
   -2.2892    3.4524    0.0000 C   0  0  0  0  0  0  0  0  0  0  0  0
   -0.8268    3.1186    0.0000 C   0  0  0  0  0  0  0  0  0  0  0  0
   -0.3846    1.6852    0.0000 C   0  0  0  0  0  0  0  0  0  0  0  0
    1.0777    1.3515    0.0000 C   0  0  0  0  0  0  0  0  0  0  0  0
    1.7286    0.0000    0.0000 C   0  0  0  0  0  0  0  0  0  0  0  0
    1.0777   -1.3515    0.0000 C   0  0  0  0  0  0  0  0  0  0  0  0
   -0.3846   -1.6852    0.0000 C   0  0  0  0  0  0  0  0  0  0  0  0
   -1.5574   -0.7500    0.0000 C   0  0  0  0  0  0  0  0  0  0  0  0
   -1.5574    0.7500    0.0000 C   0  0  0  0  0  0  0  0  0  0  0  0
    2.0980    2.4510    0.0000 C   0  0  0  0  0  0  0  0  0  0  0  0
    3.5604    2.1172    0.0000 C   0  0  0  0  0  0  0  0  0  0  0  0
    5.0228    1.7835    0.0000 N   0  0  0  0  0  0  0  0  0  0  0  0
    1.6559    3.8844    0.0000 C   0  0  0  0  0  0  0  0  0  0  0  0
    2.6761    4.9840    0.0000 N   0  0  0  0  0  0  0  0  0  0  0  0
    0.1935    4.2182    0.0000 C   0  0  0  0  0  0  0  0  0  0  0  0
   -1.0666    5.0320    0.0000 C   0  0  0  0  0  0  0  0  0  0  0  0
   -2.3266    5.8458    0.0000 N   0  0  0  0  0  0  0  0  0  0  0  0
    0.7761    5.6004    0.0000 C   0  0  0  0  0  0  0  0  0  0  0  0
    1.3588    6.9826    0.0000 N   0  0  0  0  0  0  0  0  0  0  0  0
   -3.3094    2.3528    0.0000 C   0  0  0  0  0  0  0  0  0  0  0  0
   -4.7718    2.6866    0.0000 C   0  0  0  0  0  0  0  0  0  0  0  0
   -5.7921    1.5870    0.0000 O   0  0  0  0  0  0  0  0  0  0  0  0
   -5.3499    0.1536    0.0000 C   0  0  0  0  0  0  0  0  0  0  0  0
  1  2  1  0
  2  3  1  0
  3  4  2  0
  4  5  1  0
  5  6  2  0
  7  6  1  6
  7  8  1  0
  8  9  2  0
  9 10  1  0
 10 11  1  0
 11 12  1  0
 12 13  1  0
 13 14  1  0
  9 15  1  0
 15 16  1  0
 16 17  3  0
 15 18  2  0
 18 19  1  0
 18 20  1  0
 20 21  1  0
 21 22  3  0
 20 23  1  0
 23 24  3  0
  6 25  1  0
 25 26  2  0
 26 27  1  0
 27 28  1  0
 26  3  1  0
 20  7  1  0
 14  8  1  0
M  END
>  <Compound_ID>  (519) 
C36611881

>  <Active>  (519) 
0.0

>  <Smiles>  (519) 
COc1ccc([C@H]2C3=C(CCCCC3)C(C#N)=C(N)C2(C#N)C#N)cc1OC

>  <canonical_smi>  (519) 
COc1ccc([C@H]2C3=C(CCCCC3)C(C#N)=C(N)C2(C#N)C#N)cc1OC

>  <Set>  (519) 
G2 inactive

>  <Set_type>  (519) 
Train

>  <MW>  (519) 
374.44

>  <HBD>  (519) 
1

>  <HBA>  (519) 
6

>  <NRB>  (519) 
3

>  <NR>  (519) 
3

>  <NAR>  (519) 
1

>  <PSA>  (519) 
115.85

>  <Standard Type>  (519) 
nan

>  <Standard Relation>  (519) 
nan

>  <Standard Units>  (519) 
nan

>  <Standard Value>  (519) 
nan

>  <Assay ChEMBL ID>  (519) 
nan

>  <Assay Description>  (519) 
nan

>  <BAO Label>  (519) 
nan

$$$$

     RDKit          2D

 21 23  0  0  0  0  0  0  0  0999 V2000
   -0.0967    5.1517    0.0000 C   0  0  0  0  0  0  0  0  0  0  0  0
   -0.4086    3.6844    0.0000 N   0  0  0  0  0  0  0  0  0  0  0  0
    0.7062    2.6807    0.0000 C   0  0  0  0  0  0  0  0  0  0  0  0
    2.1328    3.1443    0.0000 O   0  0  0  0  0  0  0  0  0  0  0  0
    0.3943    1.2135    0.0000 C   0  0  0  0  0  0  0  0  0  0  0  0
    1.2760    0.0000    0.0000 N   0  0  0  0  0  0  0  0  0  0  0  0
    0.3943   -1.2135    0.0000 C   0  0  0  0  0  0  0  0  0  0  0  0
    0.8578   -2.6401    0.0000 N   0  0  0  0  0  0  0  0  0  0  0  0
   -0.1459   -3.7548    0.0000 C   0  0  0  0  0  0  0  0  0  0  0  0
    0.3177   -5.1814    0.0000 C   0  0  0  0  0  0  0  0  0  0  0  0
    1.7442   -5.6449    0.0000 C   0  0  0  0  0  0  0  0  0  0  0  0
    1.7442   -7.1449    0.0000 C   0  0  0  0  0  0  0  0  0  0  0  0
    0.3177   -7.6085    0.0000 C   0  0  0  0  0  0  0  0  0  0  0  0
   -0.1459   -9.0350    0.0000 Br  0  0  0  0  0  0  0  0  0  0  0  0
   -0.5640   -6.3949    0.0000 S   0  0  0  0  0  0  0  0  0  0  0  0
   -1.0323   -0.7500    0.0000 N   0  0  0  0  0  0  0  0  0  0  0  0
   -1.0323    0.7500    0.0000 C   0  0  0  0  0  0  0  0  0  0  0  0
   -2.1470    1.7537    0.0000 N   0  0  0  0  0  0  0  0  0  0  0  0
   -3.5736    1.2902    0.0000 C   0  0  0  0  0  0  0  0  0  0  0  0
   -1.8351    3.2209    0.0000 C   0  0  0  0  0  0  0  0  0  0  0  0
   -2.9499    4.2246    0.0000 O   0  0  0  0  0  0  0  0  0  0  0  0
  1  2  1  0
  2  3  1  0
  3  4  2  0
  3  5  1  0
  5  6  1  0
  6  7  1  0
  7  8  1  0
  8  9  1  0
  9 10  1  0
 10 11  2  0
 11 12  1  0
 12 13  2  0
 13 14  1  0
 13 15  1  0
  7 16  2  0
 16 17  1  0
 17 18  1  0
 18 19  1  0
 18 20  1  0
 20 21  2  0
 20  2  1  0
 17  5  2  0
 15 10  1  0
M  END
>  <Compound_ID>  (520) 
C38018880

>  <Active>  (520) 
0.0

>  <Smiles>  (520) 
Cn1c(=O)c2[nH]c(NCc3ccc(Br)s3)nc2n(C)c1=O

>  <canonical_smi>  (520) 
Cn1c(=O)c2[nH]c(NCc3ccc(Br)s3)nc2n(C)c1=O

>  <Set>  (520) 
G2 inactive

>  <Set_type>  (520) 
Train

>  <MW>  (520) 
370.23

>  <HBD>  (520) 
2

>  <HBA>  (520) 
4

>  <NRB>  (520) 
3

>  <NR>  (520) 
3

>  <NAR>  (520) 
3

>  <PSA>  (520) 
84.71

>  <Standard Type>  (520) 
nan

>  <Standard Relation>  (520) 
nan

>  <Standard Units>  (520) 
nan

>  <Standard Value>  (520) 
nan

>  <Assay ChEMBL ID>  (520) 
nan

>  <Assay Description>  (520) 
nan

>  <BAO Label>  (520) 
nan

$$$$

     RDKit          2D

 21 23  0  0  0  0  0  0  0  0999 V2000
    3.0000    0.0000    0.0000 C   0  0  0  0  0  0  0  0  0  0  0  0
    1.5000    0.0000    0.0000 C   0  0  0  0  0  0  0  0  0  0  0  0
    0.7500   -1.2990    0.0000 N   0  0  0  0  0  0  0  0  0  0  0  0
   -0.7500   -1.2990    0.0000 C   0  0  0  0  0  0  0  0  0  0  0  0
   -1.5000   -2.5981    0.0000 N   0  0  0  0  0  0  0  0  0  0  0  0
   -1.5000    0.0000    0.0000 C   0  0  0  0  0  0  0  0  0  0  0  0
   -2.9672    0.3119    0.0000 C   0  0  0  0  0  0  0  0  0  0  0  0
   -4.0819   -0.6918    0.0000 C   0  0  0  0  0  0  0  0  0  0  0  0
   -3.1240    1.8037    0.0000 C   0  0  0  0  0  0  0  0  0  0  0  0
   -4.4231    2.5537    0.0000 C   0  0  0  0  0  0  0  0  0  0  0  0
   -1.7537    2.4138    0.0000 N   0  0  0  0  0  0  0  0  0  0  0  0
   -1.4418    3.8810    0.0000 C   0  0  0  0  0  0  0  0  0  0  0  0
   -0.0152    3.4175    0.0000 C   0  0  0  0  0  0  0  0  0  0  0  0
   -0.8317    5.2513    0.0000 C   0  0  0  0  0  0  0  0  0  0  0  0
   -1.9464    6.2550    0.0000 C   0  0  0  0  0  0  0  0  0  0  0  0
   -3.2455    5.5050    0.0000 S   0  0  0  0  0  0  0  0  0  0  0  0
   -3.8556    6.8753    0.0000 O   0  0  0  0  0  0  0  0  0  0  0  0
   -4.6721    5.0415    0.0000 O   0  0  0  0  0  0  0  0  0  0  0  0
   -2.9336    4.0378    0.0000 C   0  0  0  0  0  0  0  0  0  0  0  0
   -0.7500    1.2990    0.0000 C   0  0  0  0  0  0  0  0  0  0  0  0
    0.7500    1.2990    0.0000 N   0  0  0  0  0  0  0  0  0  0  0  0
  1  2  1  0
  2  3  2  0
  3  4  1  0
  4  5  1  0
  4  6  2  0
  6  7  1  0
  7  8  1  0
  7  9  2  0
  9 10  1  0
  9 11  1  0
 11 12  1  0
 12 13  1  1
 12 14  1  0
 14 15  1  0
 15 16  1  0
 16 17  2  0
 16 18  2  0
 16 19  1  0
 11 20  1  0
 20 21  2  0
 21  2  1  0
 20  6  1  0
 19 12  1  0
M  END
>  <Compound_ID>  (521) 
C44931975

>  <Active>  (521) 
0.0

>  <Smiles>  (521) 
Cc1nc(N)c2c(C)c(C)n([C@@]3(C)CCS(=O)(=O)C3)c2n1

>  <canonical_smi>  (521) 
Cc1nc(N)c2c(C)c(C)n([C@@]3(C)CCS(=O)(=O)C3)c2n1

>  <Set>  (521) 
G2 inactive

>  <Set_type>  (521) 
Train

>  <MW>  (521) 
308.41

>  <HBD>  (521) 
1

>  <HBA>  (521) 
5

>  <NRB>  (521) 
1

>  <NR>  (521) 
3

>  <NAR>  (521) 
2

>  <PSA>  (521) 
90.87

>  <Standard Type>  (521) 
nan

>  <Standard Relation>  (521) 
nan

>  <Standard Units>  (521) 
nan

>  <Standard Value>  (521) 
nan

>  <Assay ChEMBL ID>  (521) 
nan

>  <Assay Description>  (521) 
nan

>  <BAO Label>  (521) 
nan

$$$$

     RDKit          2D

 21 24  0  0  0  0  0  0  0  0999 V2000
    3.2286   -0.0000    0.0000 O   0  0  0  0  0  0  0  0  0  0  0  0
    1.7286    0.0000    0.0000 C   0  0  0  0  0  0  0  0  0  0  0  0
    1.0777    1.3515    0.0000 N   0  0  0  0  0  0  0  0  0  0  0  0
   -0.3846    1.6852    0.0000 C   0  0  0  0  0  0  0  0  0  0  0  0
   -1.5574    0.7500    0.0000 C   0  0  0  0  0  0  0  0  0  0  0  0
   -1.5574   -0.7500    0.0000 C   0  0  0  0  0  0  0  0  0  0  0  0
   -0.3846   -1.6852    0.0000 C   0  0  0  0  0  0  0  0  0  0  0  0
   -0.5191   -3.1792    0.0000 N   0  0  0  0  0  0  0  0  0  0  0  0
    0.8602   -3.7687    0.0000 C   0  0  0  0  0  0  0  0  0  0  0  0
    1.1940   -5.2311    0.0000 C   0  0  0  0  0  0  0  0  0  0  0  0
    0.2071   -6.3607    0.0000 N   0  0  0  0  0  0  0  0  0  0  0  0
    0.9764   -7.6484    0.0000 N   0  0  0  0  0  0  0  0  0  0  0  0
    2.4388   -7.3146    0.0000 C   0  0  0  0  0  0  0  0  0  0  0  0
    2.5733   -5.8207    0.0000 C   0  0  0  0  0  0  0  0  0  0  0  0
    3.8251   -4.9943    0.0000 C   0  0  0  0  0  0  0  0  0  0  0  0
    5.2517   -5.4578    0.0000 C   0  0  0  0  0  0  0  0  0  0  0  0
    5.7788   -6.8622    0.0000 C   0  0  0  0  0  0  0  0  0  0  0  0
    5.0094   -8.1499    0.0000 C   0  0  0  0  0  0  0  0  0  0  0  0
    3.5230   -8.3512    0.0000 C   0  0  0  0  0  0  0  0  0  0  0  0
    1.8471   -2.6391    0.0000 N   0  0  0  0  0  0  0  0  0  0  0  0
    1.0777   -1.3515    0.0000 C   0  0  0  0  0  0  0  0  0  0  0  0
  1  2  2  0
  2  3  1  0
  3  4  1  0
  4  5  1  0
  5  6  1  0
  6  7  1  0
  7  8  2  0
  8  9  1  0
  9 10  1  0
 10 11  1  1
 11 12  2  0
 12 13  1  0
 13 14  2  0
 14 15  1  0
 15 16  1  0
 16 17  1  0
 17 18  1  0
 18 19  1  0
  9 20  1  6
 21 20  1  6
 21  2  1  0
 21  7  1  0
 14 10  1  0
 19 13  1  0
M  END
>  <Compound_ID>  (522) 
C65490832

>  <Active>  (522) 
0.0

>  <Smiles>  (522) 
O=C1NCCCC2=N[C@@H]([C@@H]3N=NC4=C3CCCCC4)N[C@@H]12

>  <canonical_smi>  (522) 
O=C1NCCCC2=N[C@@H]([C@@H]3N=NC4=C3CCCCC4)N[C@@H]12

>  <Set>  (522) 
G2 inactive

>  <Set_type>  (522) 
Train

>  <MW>  (522) 
287.37

>  <HBD>  (522) 
2

>  <HBA>  (522) 
2

>  <NRB>  (522) 
1

>  <NR>  (522) 
4

>  <NAR>  (522) 
0

>  <PSA>  (522) 
78.21

>  <Standard Type>  (522) 
nan

>  <Standard Relation>  (522) 
nan

>  <Standard Units>  (522) 
nan

>  <Standard Value>  (522) 
nan

>  <Assay ChEMBL ID>  (522) 
nan

>  <Assay Description>  (522) 
nan

>  <BAO Label>  (522) 
nan

$$$$

     RDKit          2D

 23 26  0  0  0  0  0  0  0  0999 V2000
   -2.3113   -8.6446    0.0000 C   0  0  0  0  0  0  0  0  0  0  0  0
   -1.0978   -7.7629    0.0000 C   0  0  0  0  0  0  0  0  0  0  0  0
   -1.2546   -6.2711    0.0000 N   0  0  0  0  0  0  0  0  0  0  0  0
   -0.1399   -5.2674    0.0000 C   0  0  0  0  0  0  0  0  0  0  0  0
    1.3273   -5.5793    0.0000 O   0  0  0  0  0  0  0  0  0  0  0  0
   -0.7500   -3.8971    0.0000 C   0  0  0  0  0  0  0  0  0  0  0  0
    0.7500   -3.8971    0.0000 N   0  0  0  0  0  0  0  0  0  0  0  0
    1.5000   -2.5981    0.0000 C   0  0  0  0  0  0  0  0  0  0  0  0
    3.0000   -2.5981    0.0000 O   0  0  0  0  0  0  0  0  0  0  0  0
    0.7500   -1.2990    0.0000 C   0  0  0  0  0  0  0  0  0  0  0  0
    1.5000    0.0000    0.0000 C   0  0  0  0  0  0  0  0  0  0  0  0
    0.7500    1.2990    0.0000 C   0  0  0  0  0  0  0  0  0  0  0  0
   -0.7500    1.2990    0.0000 C   0  0  0  0  0  0  0  0  0  0  0  0
   -1.5000    0.0000    0.0000 N   0  0  0  0  0  0  0  0  0  0  0  0
   -0.7500   -1.2990    0.0000 C   0  0  0  0  0  0  0  0  0  0  0  0
   -1.5000   -2.5981    0.0000 N   0  0  0  0  0  0  0  0  0  0  0  0
   -2.2418   -4.0539    0.0000 C   0  0  0  0  0  0  0  0  0  0  0  0
   -3.3565   -3.0502    0.0000 C   0  0  0  0  0  0  0  0  0  0  0  0
   -4.7831   -3.5137    0.0000 C   0  0  0  0  0  0  0  0  0  0  0  0
   -5.8978   -2.5100    0.0000 C   0  0  0  0  0  0  0  0  0  0  0  0
   -5.0950   -4.9810    0.0000 C   0  0  0  0  0  0  0  0  0  0  0  0
   -3.9802   -5.9847    0.0000 C   0  0  0  0  0  0  0  0  0  0  0  0
   -2.5537   -5.5211    0.0000 C   0  0  0  0  0  0  0  0  0  0  0  0
  1  2  1  0
  2  3  1  0
  3  4  1  0
  4  5  2  0
  4  6  1  0
  6  7  1  1
  7  8  1  0
  8  9  2  0
  8 10  1  0
 10 11  2  0
 11 12  1  0
 12 13  2  0
 13 14  1  0
 14 15  2  0
 15 16  1  0
  6 17  1  0
 17 18  2  0
 18 19  1  0
 19 20  1  0
 19 21  2  0
 21 22  1  0
 22 23  2  0
 23  3  1  0
 16  6  1  0
 23 17  1  0
 15 10  1  0
M  END
>  <Compound_ID>  (523) 
C66739644

>  <Active>  (523) 
0.0

>  <Smiles>  (523) 
CCN1C(=O)[C@]2(NC(=O)c3cccnc3N2)c2cc(C)ccc21

>  <canonical_smi>  (523) 
CCN1C(=O)[C@]2(NC(=O)c3cccnc3N2)c2cc(C)ccc21

>  <Set>  (523) 
G2 inactive

>  <Set_type>  (523) 
Train

>  <MW>  (523) 
308.34

>  <HBD>  (523) 
2

>  <HBA>  (523) 
4

>  <NRB>  (523) 
1

>  <NR>  (523) 
4

>  <NAR>  (523) 
2

>  <PSA>  (523) 
74.33

>  <Standard Type>  (523) 
nan

>  <Standard Relation>  (523) 
nan

>  <Standard Units>  (523) 
nan

>  <Standard Value>  (523) 
nan

>  <Assay ChEMBL ID>  (523) 
nan

>  <Assay Description>  (523) 
nan

>  <BAO Label>  (523) 
nan

$$$$

     RDKit          2D

 17 17  0  0  0  0  0  0  0  0999 V2000
    2.3886   -2.4414    0.0000 C   0  0  0  0  0  0  0  0  0  0  0  0
    2.6491   -0.9642    0.0000 O   0  0  0  0  0  0  0  0  0  0  0  0
    1.5000    0.0000    0.0000 C   0  0  0  0  0  0  0  0  0  0  0  0
    2.6491    0.9642    0.0000 C   0  0  0  0  0  0  0  0  0  0  0  0
    0.7500   -1.2990    0.0000 O   0  0  0  0  0  0  0  0  0  0  0  0
   -0.7500   -1.2990    0.0000 C   0  0  0  0  0  0  0  0  0  0  0  0
   -0.4895   -2.7762    0.0000 C   0  0  0  0  0  0  0  0  0  0  0  0
   -2.1595   -1.8121    0.0000 C   0  0  0  0  0  0  0  0  0  0  0  0
   -1.5000    0.0000    0.0000 C   0  0  0  0  0  0  0  0  0  0  0  0
   -2.6491   -0.9642    0.0000 C   0  0  0  0  0  0  0  0  0  0  0  0
   -2.6491    0.9642    0.0000 O   0  0  0  0  0  0  0  0  0  0  0  0
   -0.7500    1.2990    0.0000 C   0  0  0  0  0  0  0  0  0  0  0  0
   -2.1595    1.8121    0.0000 C   0  0  0  0  0  0  0  0  0  0  0  0
   -0.4895    2.7762    0.0000 O   0  0  0  0  0  0  0  0  0  0  0  0
    0.7500    1.2990    0.0000 C   0  0  0  0  0  0  0  0  0  0  0  0
    0.4895    2.7762    0.0000 C   0  0  0  0  0  0  0  0  0  0  0  0
    2.1595    1.8121    0.0000 O   0  0  0  0  0  0  0  0  0  0  0  0
  1  2  1  0
  2  3  1  0
  3  4  1  1
  3  5  1  0
  5  6  1  0
  6  7  1  0
  6  8  1  0
  6  9  1  0
  9 10  1  6
  9 11  1  0
  9 12  1  0
 12 13  1  6
 12 14  1  0
 12 15  1  0
 15 16  1  6
 15 17  1  0
 15  3  1  0
M  END
>  <Compound_ID>  (524) 
C09970431

>  <Active>  (524) 
0.0

>  <Smiles>  (524) 
CO[C@]1(C)OC(C)(C)[C@@](C)(O)[C@@](C)(O)[C@@]1(C)O

>  <canonical_smi>  (524) 
CO[C@]1(C)OC(C)(C)[C@@](C)(O)[C@@](C)(O)[C@@]1(C)O

>  <Set>  (524) 
G2 inactive

>  <Set_type>  (524) 
Train

>  <MW>  (524) 
248.32

>  <HBD>  (524) 
3

>  <HBA>  (524) 
5

>  <NRB>  (524) 
1

>  <NR>  (524) 
1

>  <NAR>  (524) 
0

>  <PSA>  (524) 
79.15

>  <Standard Type>  (524) 
nan

>  <Standard Relation>  (524) 
nan

>  <Standard Units>  (524) 
nan

>  <Standard Value>  (524) 
nan

>  <Assay ChEMBL ID>  (524) 
nan

>  <Assay Description>  (524) 
nan

>  <BAO Label>  (524) 
nan

$$$$

     RDKit          2D

 17 18  0  0  0  0  0  0  0  0999 V2000
    3.0000    0.0000    0.0000 C   0  0  0  0  0  0  0  0  0  0  0  0
    1.5000    0.0000    0.0000 N   0  0  0  0  0  0  0  0  0  0  0  0
    0.7500   -1.2990    0.0000 C   0  0  0  0  0  0  0  0  0  0  0  0
   -0.7500   -1.2990    0.0000 C   0  0  0  0  0  0  0  0  0  0  0  0
   -1.5000    0.0000    0.0000 C   0  0  0  0  0  0  0  0  0  0  0  0
   -3.0000    0.0000    0.0000 N   0  0  0  0  0  0  0  0  0  0  0  0
   -3.7500    1.2990    0.0000 C   0  0  0  0  0  0  0  0  0  0  0  0
   -5.2500    1.2990    0.0000 N   0  0  0  0  0  0  0  0  0  0  0  0
   -6.0000    2.5981    0.0000 N   0  0  0  0  0  0  0  0  0  0  0  0
   -3.0000    2.5981    0.0000 N   0  0  0  0  0  0  0  0  0  0  0  0
   -1.5000    2.5981    0.0000 C   0  0  0  0  0  0  0  0  0  0  0  0
   -0.7500    3.8971    0.0000 C   0  0  0  0  0  0  0  0  0  0  0  0
    0.0000    5.1962    0.0000 F   0  0  0  0  0  0  0  0  0  0  0  0
   -2.0490    4.6471    0.0000 F   0  0  0  0  0  0  0  0  0  0  0  0
    0.5490    3.1471    0.0000 F   0  0  0  0  0  0  0  0  0  0  0  0
   -0.7500    1.2990    0.0000 C   0  0  0  0  0  0  0  0  0  0  0  0
    0.7500    1.2990    0.0000 C   0  0  0  0  0  0  0  0  0  0  0  0
  1  2  1  0
  2  3  1  0
  3  4  1  0
  4  5  1  0
  5  6  2  0
  6  7  1  0
  7  8  1  0
  8  9  1  0
  7 10  2  0
 10 11  1  0
 11 12  1  0
 12 13  1  0
 12 14  1  0
 12 15  1  0
 11 16  2  0
 16 17  1  0
 17  2  1  0
 16  5  1  0
M  END
>  <Compound_ID>  (525) 
C62203219

>  <Active>  (525) 
0.0

>  <Smiles>  (525) 
CN1CCc2nc(NN)nc(C(F)(F)F)c2C1

>  <canonical_smi>  (525) 
CN1CCc2nc(NN)nc(C(F)(F)F)c2C1

>  <Set>  (525) 
G2 inactive

>  <Set_type>  (525) 
Train

>  <MW>  (525) 
247.22

>  <HBD>  (525) 
2

>  <HBA>  (525) 
5

>  <NRB>  (525) 
1

>  <NR>  (525) 
2

>  <NAR>  (525) 
1

>  <PSA>  (525) 
67.07

>  <Standard Type>  (525) 
nan

>  <Standard Relation>  (525) 
nan

>  <Standard Units>  (525) 
nan

>  <Standard Value>  (525) 
nan

>  <Assay ChEMBL ID>  (525) 
nan

>  <Assay Description>  (525) 
nan

>  <BAO Label>  (525) 
nan

$$$$

     RDKit          2D

 17 18  0  0  0  0  0  0  0  0999 V2000
    2.3907    1.0037    0.0000 C   0  0  0  0  0  0  0  0  0  0  0  0
    1.2760    0.0000    0.0000 C   0  0  0  0  0  0  0  0  0  0  0  0
    2.3907   -1.0037    0.0000 C   0  0  0  0  0  0  0  0  0  0  0  0
    0.3943    1.2135    0.0000 C   0  0  0  0  0  0  0  0  0  0  0  0
    0.8578    2.6401    0.0000 C   0  0  0  0  0  0  0  0  0  0  0  0
   -0.0239    3.8536    0.0000 N   0  0  0  0  0  0  0  0  0  0  0  0
    0.8578    5.0672    0.0000 N   0  0  0  0  0  0  0  0  0  0  0  0
    2.2844    4.6036    0.0000 C   0  0  0  0  0  0  0  0  0  0  0  0
    3.4979    5.4853    0.0000 N   0  0  0  0  0  0  0  0  0  0  0  0
    2.2844    3.1036    0.0000 N   0  0  0  0  0  0  0  0  0  0  0  0
   -1.0323    0.7500    0.0000 C   0  0  0  0  0  0  0  0  0  0  0  0
   -1.0323   -0.7500    0.0000 C   0  0  0  0  0  0  0  0  0  0  0  0
    0.3943   -1.2135    0.0000 C   0  0  0  0  0  0  0  0  0  0  0  0
    1.6933   -1.9635    0.0000 C   0  0  0  0  0  0  0  0  0  0  0  0
   -0.2158   -2.5838    0.0000 C   0  0  0  0  0  0  0  0  0  0  0  0
    0.6659   -3.7974    0.0000 O   0  0  0  0  0  0  0  0  0  0  0  0
   -1.7076   -2.7406    0.0000 O   0  0  0  0  0  1  0  0  0  0  0  0
  1  2  1  0
  2  3  1  0
  2  4  1  0
  4  5  1  1
  5  6  2  0
  6  7  1  0
  7  8  2  0
  8  9  1  0
  8 10  1  0
  4 11  1  0
 11 12  1  0
 12 13  1  0
 13 14  1  1
 13 15  1  0
 15 16  2  0
 15 17  1  0
 13  2  1  0
 10  5  1  0
M  CHG  1  17  -1
M  END
>  <Compound_ID>  (526) 
C35982286

>  <Active>  (526) 
0.0

>  <Smiles>  (526) 
CC1(C)[C@H](c2nnc(N)[nH]2)CC[C@@]1(C)C(=O)[O-]

>  <canonical_smi>  (526) 
CC1(C)[C@H](c2nnc(N)[nH]2)CC[C@@]1(C)C(=O)[O-]

>  <Set>  (526) 
G2 inactive

>  <Set_type>  (526) 
Train

>  <MW>  (526) 
237.28

>  <HBD>  (526) 
2

>  <HBA>  (526) 
5

>  <NRB>  (526) 
2

>  <NR>  (526) 
2

>  <NAR>  (526) 
1

>  <PSA>  (526) 
107.72

>  <Standard Type>  (526) 
nan

>  <Standard Relation>  (526) 
nan

>  <Standard Units>  (526) 
nan

>  <Standard Value>  (526) 
nan

>  <Assay ChEMBL ID>  (526) 
nan

>  <Assay Description>  (526) 
nan

>  <BAO Label>  (526) 
nan

$$$$

     RDKit          2D

 16 17  0  0  0  0  0  0  0  0999 V2000
    3.7500   -3.8971    0.0000 C   0  0  0  0  0  0  0  0  0  0  0  0
    3.0000   -2.5981    0.0000 C   0  0  0  0  0  0  0  0  0  0  0  0
    1.5000   -2.5981    0.0000 N   0  0  0  0  0  0  0  0  0  0  0  0
    0.7500   -1.2990    0.0000 C   0  0  0  0  0  0  0  0  0  0  0  0
    1.5000    0.0000    0.0000 N   0  0  0  0  0  0  0  0  0  0  0  0
    0.7500    1.2990    0.0000 C   0  0  0  0  0  0  0  0  0  0  0  0
   -0.7500    1.2990    0.0000 N   0  0  0  0  0  0  0  0  0  0  0  0
   -1.5000    0.0000    0.0000 C   0  0  0  0  0  0  0  0  0  0  0  0
   -3.0000    0.0000    0.0000 Cl  0  0  0  0  0  0  0  0  0  0  0  0
   -0.7500   -1.2990    0.0000 C   0  0  0  0  0  0  0  0  0  0  0  0
   -1.5000   -2.5981    0.0000 N   0  0  0  0  0  0  0  0  0  0  0  0
    3.7500   -1.2990    0.0000 C   0  0  0  0  0  0  0  0  0  0  0  0
    3.1399    0.0713    0.0000 N   0  0  0  0  0  0  0  0  0  0  0  0
    4.2546    1.0750    0.0000 N   0  0  0  0  0  0  0  0  0  0  0  0
    5.5537    0.3250    0.0000 N   0  0  0  0  0  0  0  0  0  0  0  0
    5.2418   -1.1422    0.0000 N   0  0  0  0  0  2  0  0  0  0  0  0
  2  1  1  1
  2  3  1  0
  3  4  1  0
  4  5  2  0
  5  6  1  0
  6  7  2  0
  7  8  1  0
  8  9  1  0
  8 10  2  0
 10 11  1  0
  2 12  1  0
 12 13  2  0
 13 14  1  0
 14 15  2  0
 15 16  1  0
 10  4  1  0
 16 12  1  0
M  CHG  1  16  -1
M  END
>  <Compound_ID>  (527) 
C62364043

>  <Active>  (527) 
0.0

>  <Smiles>  (527) 
C[C@@H](Nc1ncnc(Cl)c1N)c1nnn[n-]1

>  <canonical_smi>  (527) 
C[C@@H](Nc1ncnc(Cl)c1N)c1nnn[n-]1

>  <Set>  (527) 
G2 inactive

>  <Set_type>  (527) 
Train

>  <MW>  (527) 
239.65

>  <HBD>  (527) 
2

>  <HBA>  (527) 
8

>  <NRB>  (527) 
3

>  <NR>  (527) 
2

>  <NAR>  (527) 
2

>  <PSA>  (527) 
116.6

>  <Standard Type>  (527) 
nan

>  <Standard Relation>  (527) 
nan

>  <Standard Units>  (527) 
nan

>  <Standard Value>  (527) 
nan

>  <Assay ChEMBL ID>  (527) 
nan

>  <Assay Description>  (527) 
nan

>  <BAO Label>  (527) 
nan

$$$$

     RDKit          2D

 28 31  0  0  0  0  0  0  0  0999 V2000
    1.5000   -5.1962    0.0000 C   0  0  0  0  0  0  0  0  0  0  0  0
    0.7500   -3.8971    0.0000 C   0  0  0  0  0  0  0  0  0  0  0  0
    1.5000   -2.5981    0.0000 O   0  0  0  0  0  0  0  0  0  0  0  0
    0.7500   -1.2990    0.0000 C   0  0  0  0  0  0  0  0  0  0  0  0
    1.5000    0.0000    0.0000 C   0  0  0  0  0  0  0  0  0  0  0  0
    0.7500    1.2990    0.0000 C   0  0  0  0  0  0  0  0  0  0  0  0
    1.5000    2.5981    0.0000 O   0  0  0  0  0  0  0  0  0  0  0  0
    3.0000    2.5981    0.0000 C   0  0  0  0  0  0  0  0  0  0  0  0
    3.7500    1.2990    0.0000 O   0  0  0  0  0  0  0  0  0  0  0  0
    5.2500    1.2990    0.0000 C   0  0  0  0  0  0  0  0  0  0  0  0
    6.0000    2.5981    0.0000 C   0  0  0  0  0  0  0  0  0  0  0  0
    7.5000    2.5981    0.0000 O   0  0  0  0  0  0  0  0  0  0  0  0
    5.2500    3.8971    0.0000 C   0  0  0  0  0  0  0  0  0  0  0  0
    6.0000    5.1962    0.0000 O   0  0  0  0  0  0  0  0  0  0  0  0
    3.7500    3.8971    0.0000 C   0  0  0  0  0  0  0  0  0  0  0  0
    3.0000    5.1962    0.0000 O   0  0  0  0  0  0  0  0  0  0  0  0
   -0.7500    1.2990    0.0000 C   0  0  0  0  0  0  0  0  0  0  0  0
   -1.5000    0.0000    0.0000 C   0  0  0  0  0  0  0  0  0  0  0  0
   -0.7500   -1.2990    0.0000 C   0  0  0  0  0  0  0  0  0  0  0  0
   -1.5000   -2.5981    0.0000 C   0  0  0  0  0  0  0  0  0  0  0  0
   -3.0000   -2.5981    0.0000 O   0  0  0  0  0  0  0  0  0  0  0  0
   -0.7500   -3.8971    0.0000 C   0  0  0  0  0  0  0  0  0  0  0  0
   -1.5000   -5.1962    0.0000 C   0  0  0  0  0  0  0  0  0  0  0  0
   -3.0000   -5.1962    0.0000 C   0  0  0  0  0  0  0  0  0  0  0  0
   -3.7500   -6.4952    0.0000 C   0  0  0  0  0  0  0  0  0  0  0  0
   -3.0000   -7.7942    0.0000 C   0  0  0  0  0  0  0  0  0  0  0  0
   -1.5000   -7.7942    0.0000 C   0  0  0  0  0  0  0  0  0  0  0  0
   -0.7500   -6.4952    0.0000 N   0  0  0  0  0  0  0  0  0  0  0  0
  1  2  1  0
  2  3  1  0
  3  4  1  0
  4  5  2  0
  5  6  1  0
  6  7  1  0
  8  7  1  1
  8  9  1  0
  9 10  1  0
 10 11  1  0
 11 12  1  6
 11 13  1  0
 13 14  1  6
 13 15  1  0
 15 16  1  6
  6 17  2  0
 17 18  1  0
 18 19  2  0
 19 20  1  0
 20 21  2  0
 20 22  1  0
 22 23  1  0
 23 24  2  0
 24 25  1  0
 25 26  2  0
 26 27  1  0
 27 28  2  0
 22  2  2  0
 28 23  1  0
 19  4  1  0
 15  8  1  0
M  END
>  <Compound_ID>  (528) 
C34898336

>  <Active>  (528) 
0.0

>  <Smiles>  (528) 
Cc1oc2cc(O[C@@H]3OC[C@@H](O)[C@@H](O)[C@H]3O)ccc2c(=O)c1-c1ccccn1

>  <canonical_smi>  (528) 
Cc1oc2cc(O[C@@H]3OC[C@@H](O)[C@@H](O)[C@H]3O)ccc2c(=O)c1-c1ccccn1

>  <Set>  (528) 
G2 inactive

>  <Set_type>  (528) 
Train

>  <MW>  (528) 
385.37

>  <HBD>  (528) 
3

>  <HBA>  (528) 
8

>  <NRB>  (528) 
3

>  <NR>  (528) 
4

>  <NAR>  (528) 
3

>  <PSA>  (528) 
122.25

>  <Standard Type>  (528) 
nan

>  <Standard Relation>  (528) 
nan

>  <Standard Units>  (528) 
nan

>  <Standard Value>  (528) 
nan

>  <Assay ChEMBL ID>  (528) 
nan

>  <Assay Description>  (528) 
nan

>  <BAO Label>  (528) 
nan

$$$$

     RDKit          2D

 32 36  0  0  0  0  0  0  0  0999 V2000
   -7.5000   -5.1962    0.0000 C   0  0  0  0  0  0  0  0  0  0  0  0
   -6.0000   -5.1962    0.0000 O   0  0  0  0  0  0  0  0  0  0  0  0
   -5.2500   -3.8971    0.0000 C   0  0  0  0  0  0  0  0  0  0  0  0
   -6.0000   -2.5981    0.0000 C   0  0  0  0  0  0  0  0  0  0  0  0
   -5.2500   -1.2990    0.0000 C   0  0  0  0  0  0  0  0  0  0  0  0
   -3.7500   -1.2990    0.0000 C   0  0  0  0  0  0  0  0  0  0  0  0
   -3.0000   -2.5981    0.0000 C   0  0  0  0  0  0  0  0  0  0  0  0
   -1.5000   -2.5981    0.0000 C   0  0  0  0  0  0  0  0  0  0  0  0
   -0.7500   -1.2990    0.0000 C   0  0  0  0  0  0  0  0  0  0  0  0
    0.7500   -1.2990    0.0000 C   0  0  0  0  0  0  0  0  0  0  0  0
    1.5000    0.0000    0.0000 C   0  0  0  0  0  0  0  0  0  0  0  0
    0.7500    1.2990    0.0000 C   0  0  0  0  0  0  0  0  0  0  0  0
    1.5000    2.5981    0.0000 C   0  0  0  0  0  0  0  0  0  0  0  0
    0.8899    3.9684    0.0000 C   0  0  0  0  0  0  0  0  0  0  0  0
    2.0046    4.9721    0.0000 C   0  0  0  0  0  0  0  0  0  0  0  0
    3.3037    4.2221    0.0000 C   0  0  0  0  0  0  0  0  0  0  0  0
    2.9918    2.7549    0.0000 S   0  0  0  0  0  0  0  0  0  0  0  0
   -0.7500    1.2990    0.0000 C   0  0  0  0  0  0  0  0  0  0  0  0
   -1.5000    0.0000    0.0000 C   0  0  0  0  0  0  0  0  0  0  0  0
   -3.0000    0.0000    0.0000 O   0  0  0  0  0  0  0  0  0  0  0  0
    1.5000   -2.5981    0.0000 N   0  0  0  0  0  0  0  0  0  0  0  0
    0.7500   -3.8971    0.0000 C   0  0  0  0  0  0  0  0  0  0  0  0
    1.5000   -5.1962    0.0000 N   0  0  0  0  0  0  0  0  0  0  0  0
    0.7500   -6.4952    0.0000 C   0  0  0  0  0  0  0  0  0  0  0  0
    1.5000   -7.7942    0.0000 O   0  0  0  0  0  0  0  0  0  0  0  0
   -0.7500   -6.4952    0.0000 N   0  0  0  0  0  0  0  0  0  0  0  0
   -1.5000   -5.1962    0.0000 C   0  0  0  0  0  0  0  0  0  0  0  0
   -2.2735   -5.3890    0.0000 O   0  0  0  0  0  0  0  0  0  0  0  0
   -0.7500   -3.8971    0.0000 C   0  0  0  0  0  0  0  0  0  0  0  0
   -3.7500   -3.8971    0.0000 C   0  0  0  0  0  0  0  0  0  0  0  0
   -3.0000   -5.1962    0.0000 O   0  0  0  0  0  0  0  0  0  0  0  0
   -3.7500   -6.4952    0.0000 C   0  0  0  0  0  0  0  0  0  0  0  0
  1  2  1  0
  2  3  1  0
  3  4  2  0
  4  5  1  0
  5  6  2  0
  6  7  1  0
  8  7  1  1
  8  9  1  0
  9 10  2  0
 10 11  1  0
 11 12  1  0
 12 13  1  6
 13 14  2  0
 14 15  1  0
 15 16  2  0
 16 17  1  0
 12 18  1  0
 18 19  1  0
 19 20  2  0
 10 21  1  0
 21 22  1  0
 22 23  1  0
 23 24  1  0
 24 25  2  0
 24 26  1  0
 26 27  1  0
 27 28  2  0
 27 29  1  0
  7 30  2  0
 30 31  1  0
 31 32  1  0
 30  3  1  0
 29  8  1  0
 19  9  1  0
 29 22  2  0
 17 13  1  0
M  END
>  <Compound_ID>  (529) 
C18200558

>  <Active>  (529) 
0.0

>  <Smiles>  (529) 
COc1cccc([C@H]2C3=C(C[C@@H](c4cccs4)CC3=O)Nc3[nH]c(=O)[nH]c(=O)c32)c1OC

>  <canonical_smi>  (529) 
COc1cccc([C@H]2C3=C(C[C@@H](c4cccs4)CC3=O)Nc3[nH]c(=O)[nH]c(=O)c32)c1OC

>  <Set>  (529) 
G2 inactive

>  <Set_type>  (529) 
Train

>  <MW>  (529) 
451.5

>  <HBD>  (529) 
3

>  <HBA>  (529) 
6

>  <NRB>  (529) 
4

>  <NR>  (529) 
5

>  <NAR>  (529) 
3

>  <PSA>  (529) 
113.28

>  <Standard Type>  (529) 
nan

>  <Standard Relation>  (529) 
nan

>  <Standard Units>  (529) 
nan

>  <Standard Value>  (529) 
nan

>  <Assay ChEMBL ID>  (529) 
nan

>  <Assay Description>  (529) 
nan

>  <BAO Label>  (529) 
nan

$$$$

     RDKit          2D

 33 37  0  0  0  0  0  0  0  0999 V2000
   11.8495   -1.2013    0.0000 C   0  0  0  0  0  0  0  0  0  0  0  0
   11.2394    0.1690    0.0000 O   0  0  0  0  0  0  0  0  0  0  0  0
    9.7476    0.3258    0.0000 C   0  0  0  0  0  0  0  0  0  0  0  0
    8.8659   -0.8877    0.0000 C   0  0  0  0  0  0  0  0  0  0  0  0
    7.3741   -0.7309    0.0000 C   0  0  0  0  0  0  0  0  0  0  0  0
    6.7640    0.6394    0.0000 C   0  0  0  0  0  0  0  0  0  0  0  0
    5.2723    0.7962    0.0000 C   0  0  0  0  0  0  0  0  0  0  0  0
    4.3906   -0.4174    0.0000 N   0  0  0  0  0  0  0  0  0  0  0  0
    4.8541   -1.8439    0.0000 C   0  0  0  0  0  0  0  0  0  0  0  0
    6.2807   -2.3075    0.0000 O   0  0  0  0  0  0  0  0  0  0  0  0
    3.6406   -2.7256    0.0000 C   0  0  0  0  0  0  0  0  0  0  0  0
    3.1771   -4.1522    0.0000 C   0  0  0  0  0  0  0  0  0  0  0  0
    4.0587   -5.3657    0.0000 C   0  0  0  0  0  0  0  0  0  0  0  0
    3.4486   -6.7361    0.0000 C   0  0  0  0  0  0  0  0  0  0  0  0
    5.5505   -5.2089    0.0000 O   0  0  0  0  0  0  0  0  0  0  0  0
    1.6771   -4.1522    0.0000 N   0  0  0  0  0  0  0  0  0  0  0  0
    1.2135   -2.7256    0.0000 C   0  0  0  0  0  0  0  0  0  0  0  0
   -0.0000   -3.6073    0.0000 C   0  0  0  0  0  0  0  0  0  0  0  0
   -0.0000   -5.1073    0.0000 O   0  0  0  0  0  0  0  0  0  0  0  0
   -1.2135   -2.7256    0.0000 N   0  0  0  0  0  0  0  0  0  0  0  0
   -0.7500   -1.2990    0.0000 C   0  0  0  0  0  0  0  0  0  0  0  0
    0.7500   -1.2990    0.0000 C   0  0  0  0  0  0  0  0  0  0  0  0
    1.5000    0.0000    0.0000 C   0  0  0  0  0  0  0  0  0  0  0  0
    0.7500    1.2990    0.0000 C   0  0  0  0  0  0  0  0  0  0  0  0
   -0.7500    1.2990    0.0000 C   0  0  0  0  0  0  0  0  0  0  0  0
   -1.5000    2.5981    0.0000 C   0  0  0  0  0  0  0  0  0  0  0  0
   -1.5000    0.0000    0.0000 C   0  0  0  0  0  0  0  0  0  0  0  0
   -3.0000    0.0000    0.0000 C   0  0  0  0  0  0  0  0  0  0  0  0
    2.4271   -1.8439    0.0000 C   0  0  0  0  0  0  0  0  0  0  0  0
    2.8906   -0.4174    0.0000 C   0  0  0  0  0  0  0  0  0  0  0  0
    2.0089    0.7962    0.0000 O   0  0  0  0  0  0  0  0  0  0  0  0
    7.6457    1.8529    0.0000 C   0  0  0  0  0  0  0  0  0  0  0  0
    9.1375    1.6961    0.0000 C   0  0  0  0  0  0  0  0  0  0  0  0
  1  2  1  0
  2  3  1  0
  3  4  2  0
  4  5  1  0
  5  6  2  0
  6  7  1  0
  7  8  1  0
  8  9  1  0
  9 10  2  0
 11  9  1  6
 11 12  1  0
 12 13  1  0
 13 14  1  6
 13 15  1  0
 12 16  1  1
 17 16  1  1
 17 18  1  0
 18 19  2  0
 18 20  1  0
 20 21  1  0
 21 22  2  0
 22 23  1  0
 23 24  2  0
 24 25  1  0
 25 26  1  0
 25 27  2  0
 27 28  1  0
 17 29  1  0
 29 30  1  6
 30 31  2  0
  6 32  1  0
 32 33  2  0
 33  3  1  0
 30  8  1  0
 29 11  1  0
 22 17  1  0
 27 21  1  0
M  END
>  <Compound_ID>  (530) 
C15957052

>  <Active>  (530) 
0.0

>  <Smiles>  (530) 
COc1ccc(CN2C(=O)[C@@H]3[C@@H]([C@@H](C)O)N[C@]4(C(=O)Nc5c4ccc(C)c5C)[C@@H]3C2=O)cc1

>  <canonical_smi>  (530) 
COc1ccc(CN2C(=O)[C@@H]3[C@@H]([C@@H](C)O)N[C@]4(C(=O)Nc5c4ccc(C)c5C)[C@@H]3C2=O)cc1

>  <Set>  (530) 
G2 inactive

>  <Set_type>  (530) 
Train

>  <MW>  (530) 
449.51

>  <HBD>  (530) 
3

>  <HBA>  (530) 
6

>  <NRB>  (530) 
4

>  <NR>  (530) 
5

>  <NAR>  (530) 
2

>  <PSA>  (530) 
107.97

>  <Standard Type>  (530) 
nan

>  <Standard Relation>  (530) 
nan

>  <Standard Units>  (530) 
nan

>  <Standard Value>  (530) 
nan

>  <Assay ChEMBL ID>  (530) 
nan

>  <Assay Description>  (530) 
nan

>  <BAO Label>  (530) 
nan

$$$$

     RDKit          2D

 18 20  0  0  0  0  0  0  0  0999 V2000
   -3.4140    1.9635    0.0000 C   0  0  0  0  0  0  0  0  0  0  0  0
   -1.9140    1.9635    0.0000 C   0  0  0  0  0  0  0  0  0  0  0  0
   -1.0323    3.1771    0.0000 C   0  0  0  0  0  0  0  0  0  0  0  0
   -1.4958    4.6036    0.0000 C   0  0  0  0  0  0  0  0  0  0  0  0
   -2.9224    5.0672    0.0000 C   0  0  0  0  0  0  0  0  0  0  0  0
   -2.9224    6.5672    0.0000 S   0  0  0  0  0  0  0  0  0  0  0  0
   -1.4958    7.0307    0.0000 C   0  0  0  0  0  0  0  0  0  0  0  0
   -1.0323    8.4573    0.0000 N   0  0  0  0  0  0  0  0  0  0  0  0
    0.4349    8.7691    0.0000 C   0  0  0  0  0  0  0  0  0  0  0  0
    0.8985   10.1957    0.0000 N   0  0  0  0  0  0  0  0  0  0  0  0
    1.4386    7.6544    0.0000 N   0  0  0  0  0  0  0  0  0  0  0  0
   -0.6141    5.8172    0.0000 N   0  0  0  0  0  0  0  0  0  0  0  0
    0.3943    2.7135    0.0000 S   0  0  0  0  0  0  0  0  0  0  0  0
    0.3943    1.2135    0.0000 C   0  0  0  0  0  0  0  0  0  0  0  0
    1.2760    0.0000    0.0000 N   0  0  0  0  0  0  0  0  0  0  0  0
    0.3943   -1.2135    0.0000 C   0  0  0  0  0  0  0  0  0  0  0  0
   -1.0323   -0.7500    0.0000 N   0  0  0  0  0  0  0  0  0  0  0  0
   -1.0323    0.7500    0.0000 N   0  0  0  0  0  0  0  0  0  0  0  0
  1  2  1  0
  2  3  2  0
  3  4  1  0
  4  5  2  0
  5  6  1  0
  6  7  1  0
  7  8  1  0
  8  9  2  0
  9 10  1  0
  9 11  1  0
  7 12  2  0
  3 13  1  0
 13 14  1  0
 14 15  2  0
 15 16  1  0
 16 17  2  0
 17 18  1  0
 18  2  1  0
 12  4  1  0
 18 14  1  0
M  END
>  <Compound_ID>  (531) 
C06418307

>  <Active>  (531) 
0.0

>  <Smiles>  (531) 
Cc1c(-c2csc(N=C(N)N)n2)sc2ncnn12

>  <canonical_smi>  (531) 
Cc1c(-c2csc(N=C(N)N)n2)sc2ncnn12

>  <Set>  (531) 
G2 inactive

>  <Set_type>  (531) 
Train

>  <MW>  (531) 
279.35

>  <HBD>  (531) 
2

>  <HBA>  (531) 
5

>  <NRB>  (531) 
2

>  <NR>  (531) 
3

>  <NAR>  (531) 
3

>  <PSA>  (531) 
107.48

>  <Standard Type>  (531) 
nan

>  <Standard Relation>  (531) 
nan

>  <Standard Units>  (531) 
nan

>  <Standard Value>  (531) 
nan

>  <Assay ChEMBL ID>  (531) 
nan

>  <Assay Description>  (531) 
nan

>  <BAO Label>  (531) 
nan

$$$$

     RDKit          2D

 33 36  0  0  0  0  0  0  0  0999 V2000
   -3.8886  -18.0299    0.0000 N   0  0  0  0  0  0  0  0  0  0  0  0
   -2.7395  -17.0657    0.0000 C   0  0  0  0  0  0  0  0  0  0  0  0
   -1.3300  -17.5787    0.0000 O   0  0  0  0  0  0  0  0  0  0  0  0
   -3.0000  -15.5885    0.0000 C   0  0  0  0  0  0  0  0  0  0  0  0
   -4.4095  -16.1015    0.0000 N   0  0  0  0  0  4  0  0  0  0  0  0
   -5.5586  -15.1373    0.0000 C   0  0  0  0  0  0  0  0  0  0  0  0
   -6.9681  -15.6503    0.0000 C   0  0  0  0  0  0  0  0  0  0  0  0
   -7.2286  -17.1275    0.0000 C   0  0  0  0  0  0  0  0  0  0  0  0
   -6.0796  -18.0917    0.0000 C   0  0  0  0  0  0  0  0  0  0  0  0
   -4.6700  -17.5787    0.0000 C   0  0  0  0  0  0  0  0  0  0  0  0
   -1.5000  -15.5885    0.0000 C   0  0  0  0  0  0  0  0  0  0  0  0
   -0.7500  -14.2894    0.0000 C   0  0  0  0  0  0  0  0  0  0  0  0
   -1.5000  -12.9904    0.0000 N   0  0  0  0  0  0  0  0  0  0  0  0
   -0.7500  -11.6913    0.0000 C   0  0  0  0  0  0  0  0  0  0  0  0
    0.7500  -11.6913    0.0000 O   0  0  0  0  0  0  0  0  0  0  0  0
   -1.5000  -10.3923    0.0000 C   0  0  0  0  0  0  0  0  0  0  0  0
   -0.7500   -9.0933    0.0000 C   0  0  0  0  0  0  0  0  0  0  0  0
   -1.5000   -7.7942    0.0000 C   0  0  0  0  0  0  0  0  0  0  0  0
   -0.7500   -6.4952    0.0000 C   0  0  0  0  0  0  0  0  0  0  0  0
   -1.5000   -5.1962    0.0000 C   0  0  0  0  0  0  0  0  0  0  0  0
   -0.7500   -3.8971    0.0000 N   0  0  0  0  0  0  0  0  0  0  0  0
    0.7500   -3.8971    0.0000 N   0  0  0  0  0  0  0  0  0  0  0  0
    1.5000   -2.5981    0.0000 N   0  0  0  0  0  0  0  0  0  0  0  0
    0.7500   -1.2990    0.0000 C   0  0  0  0  0  0  0  0  0  0  0  0
    1.5000    0.0000    0.0000 C   0  0  0  0  0  0  0  0  0  0  0  0
    0.7500    1.2990    0.0000 C   0  0  0  0  0  0  0  0  0  0  0  0
   -0.7500    1.2990    0.0000 C   0  0  0  0  0  0  0  0  0  0  0  0
   -1.5000    0.0000    0.0000 C   0  0  0  0  0  0  0  0  0  0  0  0
   -0.7500   -1.2990    0.0000 C   0  0  0  0  0  0  0  0  0  0  0  0
   -1.5000   -2.5981    0.0000 C   0  0  0  0  0  0  0  0  0  0  0  0
   -3.0000   -2.5981    0.0000 O   0  0  0  0  0  0  0  0  0  0  0  0
   -3.0000  -12.9904    0.0000 C   0  0  0  0  0  0  0  0  0  0  0  0
   -3.7500  -14.2894    0.0000 C   0  0  0  0  0  0  0  0  0  0  0  0
  1  2  1  0
  2  3  2  0
  2  4  1  0
  4  5  1  0
  5  6  1  0
  6  7  1  0
  7  8  1  0
  8  9  1  0
  9 10  1  0
  4 11  1  0
 11 12  1  0
 12 13  1  0
 13 14  1  0
 14 15  2  0
 14 16  1  0
 16 17  1  0
 17 18  1  0
 18 19  1  0
 19 20  1  0
 20 21  1  0
 21 22  1  0
 22 23  2  0
 23 24  1  0
 24 25  2  0
 25 26  1  0
 26 27  2  0
 27 28  1  0
 28 29  2  0
 29 30  1  0
 30 31  2  0
 13 32  1  0
 32 33  1  0
 33  4  1  0
 10  5  1  0
 30 21  1  0
 29 24  1  0
M  CHG  1   5   1
M  END
>  <Compound_ID>  (532) 
C19925600

>  <Active>  (532) 
0.0

>  <Smiles>  (532) 
NC(=O)C1([NH+]2CCCCC2)CCN(C(=O)CCCCCn2nnc3ccccc3c2=O)CC1

>  <canonical_smi>  (532) 
NC(=O)C1([NH+]2CCCCC2)CCN(C(=O)CCCCCn2nnc3ccccc3c2=O)CC1

>  <Set>  (532) 
G2 inactive

>  <Set_type>  (532) 
Train

>  <MW>  (532) 
455.58

>  <HBD>  (532) 
2

>  <HBA>  (532) 
5

>  <NRB>  (532) 
8

>  <NR>  (532) 
4

>  <NAR>  (532) 
2

>  <PSA>  (532) 
115.62

>  <Standard Type>  (532) 
nan

>  <Standard Relation>  (532) 
nan

>  <Standard Units>  (532) 
nan

>  <Standard Value>  (532) 
nan

>  <Assay ChEMBL ID>  (532) 
nan

>  <Assay Description>  (532) 
nan

>  <BAO Label>  (532) 
nan

$$$$

     RDKit          2D

 30 34  0  0  0  0  0  0  0  0999 V2000
   -0.0000   -8.1073    0.0000 O   0  0  0  0  0  0  0  0  0  0  0  0
   -1.2990   -7.3573    0.0000 C   0  0  0  0  0  0  0  0  0  0  0  0
   -1.2990   -5.8573    0.0000 C   0  0  0  0  0  0  0  0  0  0  0  0
   -0.0000   -5.1073    0.0000 S   0  0  0  0  0  0  0  0  0  0  0  0
   -0.0000   -3.6073    0.0000 C   0  0  0  0  0  0  0  0  0  0  0  0
   -1.2135   -2.7256    0.0000 N   0  0  0  0  0  0  0  0  0  0  0  0
   -0.7500   -1.2990    0.0000 C   0  0  0  0  0  0  0  0  0  0  0  0
    0.7500   -1.2990    0.0000 C   0  0  0  0  0  0  0  0  0  0  0  0
    1.2135   -2.7256    0.0000 N   0  0  0  0  0  0  0  0  0  0  0  0
    2.6401   -3.1891    0.0000 C   0  0  0  0  0  0  0  0  0  0  0  0
    2.9520   -4.6564    0.0000 C   0  0  0  0  0  0  0  0  0  0  0  0
    4.3786   -5.1199    0.0000 C   0  0  0  0  0  0  0  0  0  0  0  0
    5.4933   -4.1162    0.0000 C   0  0  0  0  0  0  0  0  0  0  0  0
    5.1814   -2.6490    0.0000 C   0  0  0  0  0  0  0  0  0  0  0  0
    3.7548   -2.1855    0.0000 C   0  0  0  0  0  0  0  0  0  0  0  0
    1.5000    0.0000    0.0000 C   0  0  0  0  0  0  0  0  0  0  0  0
    0.7500    1.2990    0.0000 C   0  0  0  0  0  0  0  0  0  0  0  0
   -0.7500    1.2990    0.0000 C   0  0  0  0  0  0  0  0  0  0  0  0
   -1.5000    0.0000    0.0000 C   0  0  0  0  0  0  0  0  0  0  0  0
   -2.5981   -8.1073    0.0000 N   0  0  0  0  0  4  0  0  0  0  0  0
   -2.5981   -9.6073    0.0000 C   0  0  0  0  0  0  0  0  0  0  0  0
   -1.2990  -10.3573    0.0000 C   0  0  0  0  0  0  0  0  0  0  0  0
   -1.2990  -11.8573    0.0000 C   0  0  0  0  0  0  0  0  0  0  0  0
   -2.5981  -12.6073    0.0000 C   0  0  0  0  0  0  0  0  0  0  0  0
   -2.9099  -14.0745    0.0000 N   0  0  0  0  0  0  0  0  0  0  0  0
   -4.4017  -14.2313    0.0000 C   0  0  0  0  0  0  0  0  0  0  0  0
   -5.1517  -15.5304    0.0000 O   0  0  0  0  0  1  0  0  0  0  0  0
   -5.0118  -12.8610    0.0000 N   0  0  0  0  0  0  0  0  0  0  0  0
   -3.8971  -11.8573    0.0000 C   0  0  0  0  0  0  0  0  0  0  0  0
   -3.8971  -10.3573    0.0000 C   0  0  0  0  0  0  0  0  0  0  0  0
  1  2  2  0
  2  3  1  0
  3  4  1  0
  4  5  1  0
  5  6  2  0
  6  7  1  0
  7  8  2  0
  8  9  1  0
  9 10  1  0
 10 11  2  0
 11 12  1  0
 12 13  2  0
 13 14  1  0
 14 15  2  0
  8 16  1  0
 16 17  1  0
 17 18  1  0
 18 19  1  0
  2 20  1  0
 20 21  2  0
 21 22  1  0
 22 23  2  0
 23 24  1  0
 24 25  2  0
 25 26  1  0
 26 27  1  0
 26 28  2  0
 28 29  1  0
 29 30  2  0
  9  5  1  0
 15 10  1  0
 30 21  1  0
 19  7  1  0
 29 24  1  0
M  CHG  2  20   1  27  -1
M  END
>  <Compound_ID>  (533) 
C39730706

>  <Active>  (533) 
0.0

>  <Smiles>  (533) 
O=C(CSc1nc2c(n1-c1ccccc1)CCCC2)/[NH+]=C1\C=CC2=NC([O-])=NC2=C1

>  <canonical_smi>  (533) 
O=C(CSc1nc2c(n1-c1ccccc1)CCCC2)/[NH+]=C1\C=CC2=NC([O-])=NC2=C1

>  <Set>  (533) 
G2 inactive

>  <Set_type>  (533) 
Train

>  <MW>  (533) 
417.49

>  <HBD>  (533) 
1

>  <HBA>  (533) 
4

>  <NRB>  (533) 
4

>  <NR>  (533) 
5

>  <NAR>  (533) 
2

>  <PSA>  (533) 
96.64

>  <Standard Type>  (533) 
nan

>  <Standard Relation>  (533) 
nan

>  <Standard Units>  (533) 
nan

>  <Standard Value>  (533) 
nan

>  <Assay ChEMBL ID>  (533) 
nan

>  <Assay Description>  (533) 
nan

>  <BAO Label>  (533) 
nan

$$$$

     RDKit          2D

 31 35  0  0  0  0  0  0  0  0999 V2000
   -1.4635   -6.7316    0.0000 O   0  0  0  0  0  0  0  0  0  0  0  0
   -0.1121   -6.0808    0.0000 C   0  0  0  0  0  0  0  0  0  0  0  0
    1.1273   -6.9258    0.0000 C   0  0  0  0  0  0  0  0  0  0  0  0
    2.4787   -6.2750    0.0000 C   0  0  0  0  0  0  0  0  0  0  0  0
    3.7181   -7.1199    0.0000 C   0  0  0  0  0  0  0  0  0  0  0  0
    3.6060   -8.6157    0.0000 C   0  0  0  0  0  0  0  0  0  0  0  0
    4.8453   -9.4607    0.0000 C   0  0  0  0  0  0  0  0  0  0  0  0
    6.1968   -8.8099    0.0000 C   0  0  0  0  0  0  0  0  0  0  0  0
    7.4361   -9.6549    0.0000 F   0  0  0  0  0  0  0  0  0  0  0  0
    6.3089   -7.3141    0.0000 C   0  0  0  0  0  0  0  0  0  0  0  0
    5.0695   -6.4691    0.0000 C   0  0  0  0  0  0  0  0  0  0  0  0
    2.5908   -4.7792    0.0000 C   0  0  0  0  0  0  0  0  0  0  0  0
    1.3515   -3.9342    0.0000 C   0  0  0  0  0  0  0  0  0  0  0  0
    1.6852   -2.4718    0.0000 N   0  0  0  0  0  0  0  0  0  0  0  0
    0.7500   -1.2990    0.0000 C   0  0  0  0  0  0  0  0  0  0  0  0
    1.5000    0.0000    0.0000 C   0  0  0  0  0  0  0  0  0  0  0  0
    0.7500    1.2990    0.0000 C   0  0  0  0  0  0  0  0  0  0  0  0
   -0.7500    1.2990    0.0000 C   0  0  0  0  0  0  0  0  0  0  0  0
   -1.5000    0.0000    0.0000 C   0  0  0  0  0  0  0  0  0  0  0  0
   -0.7500   -1.2990    0.0000 C   0  0  0  0  0  0  0  0  0  0  0  0
   -1.6852   -2.4718    0.0000 N   0  0  0  0  0  0  0  0  0  0  0  0
   -1.3515   -3.9342    0.0000 C   0  0  0  0  0  0  0  0  0  0  0  0
   -2.5242   -4.8694    0.0000 C   0  0  0  0  0  0  0  0  0  0  0  0
   -2.4569   -6.3679    0.0000 C   0  0  0  0  0  0  0  0  0  0  0  0
   -3.8613   -6.8950    0.0000 C   0  0  0  0  0  0  0  0  0  0  0  0
   -4.7965   -5.7222    0.0000 C   0  0  0  0  0  0  0  0  0  0  0  0
   -6.2950   -5.7895    0.0000 N   0  0  0  0  0  4  0  0  0  0  0  0
   -6.9859   -7.1209    0.0000 O   0  0  0  0  0  0  0  0  0  0  0  0
   -7.1025   -4.5254    0.0000 O   0  0  0  0  0  1  0  0  0  0  0  0
   -3.9701   -4.4704    0.0000 O   0  0  0  0  0  0  0  0  0  0  0  0
    0.0000   -4.5850    0.0000 C   0  0  0  0  0  0  0  0  0  0  0  0
  1  2  2  0
  2  3  1  0
  3  4  1  0
  4  5  1  1
  5  6  2  0
  6  7  1  0
  7  8  2  0
  8  9  1  0
  8 10  1  0
 10 11  2  0
  4 12  1  0
 12 13  1  0
 13 14  2  0
 14 15  1  0
 15 16  2  0
 16 17  1  0
 17 18  2  0
 18 19  1  0
 19 20  2  0
 20 21  1  0
 21 22  1  0
 22 23  1  6
 23 24  2  0
 24 25  1  0
 25 26  2  0
 26 27  1  0
 27 28  2  0
 27 29  1  0
 26 30  1  0
 22 31  1  0
 31  2  1  1
 11  5  1  0
 31 13  1  0
 20 15  1  0
 30 23  1  0
M  CHG  2  27   1  29  -1
M  END
>  <Compound_ID>  (534) 
C09333844

>  <Active>  (534) 
0.0

>  <Smiles>  (534) 
O=C1C[C@H](c2ccc(F)cc2)CC2=Nc3ccccc3N[C@@H](c3ccc([N+](=O)[O-])o3)[C@H]12

>  <canonical_smi>  (534) 
O=C1C[C@H](c2ccc(F)cc2)CC2=Nc3ccccc3N[C@@H](c3ccc([N+](=O)[O-])o3)[C@H]12

>  <Set>  (534) 
G2 inactive

>  <Set_type>  (534) 
Train

>  <MW>  (534) 
419.41

>  <HBD>  (534) 
1

>  <HBA>  (534) 
5

>  <NRB>  (534) 
3

>  <NR>  (534) 
5

>  <NAR>  (534) 
3

>  <PSA>  (534) 
97.74

>  <Standard Type>  (534) 
nan

>  <Standard Relation>  (534) 
nan

>  <Standard Units>  (534) 
nan

>  <Standard Value>  (534) 
nan

>  <Assay ChEMBL ID>  (534) 
nan

>  <Assay Description>  (534) 
nan

>  <BAO Label>  (534) 
nan

$$$$

     RDKit          2D

 42 46  0  0  0  0  0  0  0  0999 V2000
   -5.9648   -6.8980    0.0000 C   0  0  0  0  0  0  0  0  0  0  0  0
   -4.7747   -5.9848    0.0000 C   0  0  0  0  0  0  0  0  0  0  0  0
   -4.9705   -4.4977    0.0000 O   0  0  0  0  0  0  0  0  0  0  0  0
   -3.3889   -6.5588    0.0000 O   0  0  0  0  0  0  0  0  0  0  0  0
   -2.1989   -5.6457    0.0000 C   0  0  0  0  0  0  0  0  0  0  0  0
   -2.5871   -4.1968    0.0000 C   0  0  0  0  0  0  0  0  0  0  0  0
   -4.0743   -4.0010    0.0000 O   0  0  0  0  0  0  0  0  0  0  0  0
   -1.8371   -2.8978    0.0000 C   0  0  0  0  0  0  0  0  0  0  0  0
   -3.3243   -3.0936    0.0000 C   0  0  0  0  0  0  0  0  0  0  0  0
   -0.3882   -2.5095    0.0000 C   0  0  0  0  0  0  0  0  0  0  0  0
    0.9108   -3.2595    0.0000 C   0  0  0  0  0  0  0  0  0  0  0  0
    2.1008   -2.3464    0.0000 O   0  0  0  0  0  0  0  0  0  0  0  0
    3.4867   -2.9204    0.0000 C   0  0  0  0  0  0  0  0  0  0  0  0
    3.6824   -4.4076    0.0000 O   0  0  0  0  0  0  0  0  0  0  0  0
    4.6767   -2.0073    0.0000 C   0  0  0  0  0  0  0  0  0  0  0  0
    6.0625   -2.5813    0.0000 C   0  0  0  0  0  0  0  0  0  0  0  0
    7.2525   -1.6682    0.0000 C   0  0  0  0  0  0  0  0  0  0  0  0
    7.0567   -0.1810    0.0000 C   0  0  0  0  0  0  0  0  0  0  0  0
    5.6709    0.3930    0.0000 C   0  0  0  0  0  0  0  0  0  0  0  0
    4.4809   -0.5201    0.0000 C   0  0  0  0  0  0  0  0  0  0  0  0
    1.2990   -4.7084    0.0000 C   0  0  0  0  0  0  0  0  0  0  0  0
    2.7862   -4.9042    0.0000 O   0  0  0  0  0  0  0  0  0  0  0  0
    2.0745   -6.0041    0.0000 C   0  0  0  0  0  0  0  0  0  0  0  0
    1.5005   -7.3899    0.0000 C   0  0  0  0  0  0  0  0  0  0  0  0
    2.4136   -8.5800    0.0000 O   0  0  0  0  0  0  0  0  0  0  0  0
    0.0133   -7.5857    0.0000 C   0  0  0  0  0  0  0  0  0  0  0  0
   -0.5607   -8.9716    0.0000 C   0  0  0  0  0  0  0  0  0  0  0  0
   -0.8999   -6.3957    0.0000 C   0  0  0  0  0  0  0  0  0  0  0  0
    0.5490   -6.0075    0.0000 C   0  0  0  0  0  0  0  0  0  0  0  0
    1.8609   -6.7348    0.0000 C   0  0  0  0  0  0  0  0  0  0  0  0
    0.8136   -7.0685    0.0000 C   0  0  0  0  0  0  0  0  0  0  0  0
   -0.0000   -1.0607    0.0000 C   0  0  0  0  0  0  0  0  0  0  0  0
    1.2990   -1.8107    0.0000 O   0  0  0  0  0  0  0  0  0  0  0  0
    2.5981   -1.0607    0.0000 C   0  0  0  0  0  0  0  0  0  0  0  0
    3.8971   -1.8107    0.0000 C   0  0  0  0  0  0  0  0  0  0  0  0
    2.5981    0.4393    0.0000 O   0  0  0  0  0  0  0  0  0  0  0  0
    1.0607    0.0000    0.0000 C   0  0  0  0  0  0  0  0  0  0  0  0
    0.0000    1.0607    0.0000 O   0  0  0  0  0  0  0  0  0  0  0  0
   -1.0607    0.0000    0.0000 C   0  0  0  0  0  0  0  0  0  0  0  0
   -2.5095   -0.3882    0.0000 C   0  0  0  0  0  0  0  0  0  0  0  0
   -2.8978   -1.8371    0.0000 C   0  0  0  0  0  0  0  0  0  0  0  0
   -4.3467   -2.2253    0.0000 O   0  0  0  0  0  0  0  0  0  0  0  0
  1  2  1  0
  2  3  2  0
  2  4  1  0
  5  4  1  1
  5  6  1  0
  6  7  2  0
  6  8  1  0
  8  9  1  1
  8 10  1  0
 10 11  1  1
 11 12  1  6
 12 13  1  0
 13 14  2  0
 13 15  1  0
 15 16  2  0
 16 17  1  0
 17 18  2  0
 18 19  1  0
 19 20  2  0
 11 21  1  0
 21 22  1  1
 21 23  1  0
 23 24  1  0
 24 25  1  6
 24 26  1  0
 26 27  1  0
 26 28  2  0
 28 29  1  0
 29 30  1  0
 29 31  1  0
 10 32  1  0
 32 33  1  6
 33 34  1  0
 34 35  1  0
 34 36  2  0
 32 37  1  0
 37 38  1  0
 38 39  1  0
 39 40  1  1
 40 41  1  0
 41 42  1  1
 28  5  1  0
 39 32  1  0
 41  8  1  0
 20 15  1  0
 29 21  1  0
M  END
>  <Compound_ID>  (535) 
C04102268

>  <Active>  (535) 
0.0

>  <Smiles>  (535) 
CC(=O)O[C@H]1C(=O)[C@@]2(C)[C@H]([C@H](OC(=O)c3ccccc3)[C@]3(O)C[C@H](O)C(C)=C1C3(C)C)[C@]1(OC(C)=O)CO[C@@H]1C[C@@H]2O

>  <canonical_smi>  (535) 
CC(=O)O[C@H]1C(=O)[C@]2(C)[C@@H](O)C[C@H]3OC[C@@]3(OC(C)=O)[C@H]2[C@H](OC(=O)c2ccccc2)[C@]2(O)C[C@H](O)C(C)=C1C2(C)C

>  <Set>  (535) 
G2 inactive

>  <Set_type>  (535) 
Train

>  <MW>  (535) 
586.63

>  <HBD>  (535) 
3

>  <HBA>  (535) 
11

>  <NRB>  (535) 
4

>  <NR>  (535) 
5

>  <NAR>  (535) 
1

>  <PSA>  (535) 
165.89

>  <Standard Type>  (535) 
nan

>  <Standard Relation>  (535) 
nan

>  <Standard Units>  (535) 
nan

>  <Standard Value>  (535) 
nan

>  <Assay ChEMBL ID>  (535) 
nan

>  <Assay Description>  (535) 
nan

>  <BAO Label>  (535) 
nan

$$$$

     RDKit          2D

 40 44  0  0  0  0  0  0  0  0999 V2000
   10.5000   -7.7942    0.0000 C   0  0  0  0  0  0  0  0  0  0  0  0
    9.7500   -6.4952    0.0000 C   0  0  0  0  0  0  0  0  0  0  0  0
    8.2500   -6.4952    0.0000 O   0  0  0  0  0  0  0  0  0  0  0  0
   10.5000   -5.1962    0.0000 N   0  0  0  0  0  0  0  0  0  0  0  0
    9.7500   -3.8971    0.0000 C   0  0  0  0  0  0  0  0  0  0  0  0
    8.2500   -3.8971    0.0000 C   0  0  0  0  0  0  0  0  0  0  0  0
    7.5000   -2.5981    0.0000 C   0  0  0  0  0  0  0  0  0  0  0  0
    8.2500   -1.2990    0.0000 C   0  0  0  0  0  0  0  0  0  0  0  0
    7.5000   -0.0000    0.0000 S   0  0  0  0  0  0  0  0  0  0  0  0
    6.2010   -0.7500    0.0000 O   0  0  0  0  0  0  0  0  0  0  0  0
    8.7990    0.7500    0.0000 O   0  0  0  0  0  0  0  0  0  0  0  0
    6.7500    1.2990    0.0000 N   0  0  0  0  0  0  0  0  0  0  0  0
    5.2500    1.2990    0.0000 C   0  0  0  0  0  0  0  0  0  0  0  0
    4.5000    2.5981    0.0000 C   0  0  0  0  0  0  0  0  0  0  0  0
    3.0000    2.5981    0.0000 C   0  0  0  0  0  0  0  0  0  0  0  0
    2.2500    1.2990    0.0000 C   0  0  0  0  0  0  0  0  0  0  0  0
    3.0000   -0.0000    0.0000 N   0  0  0  0  0  0  0  0  0  0  0  0
    4.5000   -0.0000    0.0000 C   0  0  0  0  0  0  0  0  0  0  0  0
    5.2500   -1.2990    0.0000 O   0  0  0  0  0  0  0  0  0  0  0  0
    2.2500   -1.2990    0.0000 C   0  0  0  0  0  0  0  0  0  0  0  0
    0.7500   -1.2990    0.0000 C   0  0  0  0  0  0  0  0  0  0  0  0
    1.5000    0.0000    0.0000 C   0  0  0  0  0  0  0  0  0  0  0  0
    0.7500    1.2990    0.0000 C   0  0  0  0  0  0  0  0  0  0  0  0
   -0.7500    1.2990    0.0000 C   0  0  0  0  0  0  0  0  0  0  0  0
   -1.5000    0.0000    0.0000 N   0  0  0  0  0  0  0  0  0  0  0  0
   -3.0000    0.0000    0.0000 C   0  0  0  0  0  0  0  0  0  0  0  0
   -3.7500   -1.2990    0.0000 O   0  0  0  0  0  0  0  0  0  0  0  0
   -3.7500    1.2990    0.0000 N   0  0  0  0  0  0  0  0  0  0  0  0
   -5.2500    1.2990    0.0000 C   0  0  0  0  0  0  0  0  0  0  0  0
   -6.0000    2.5981    0.0000 C   0  0  0  0  0  0  0  0  0  0  0  0
   -7.5000    2.5981    0.0000 C   0  0  0  0  0  0  0  0  0  0  0  0
   -8.2500    1.2990    0.0000 C   0  0  0  0  0  0  0  0  0  0  0  0
   -9.7500    1.2990    0.0000 C   0  0  0  0  0  0  0  0  0  0  0  0
  -10.5000    2.5981    0.0000 C   0  0  0  0  0  0  0  0  0  0  0  0
  -10.5000    0.0000    0.0000 O   0  0  0  0  0  0  0  0  0  0  0  0
   -7.5000    0.0000    0.0000 C   0  0  0  0  0  0  0  0  0  0  0  0
   -6.0000    0.0000    0.0000 C   0  0  0  0  0  0  0  0  0  0  0  0
   -0.7500   -1.2990    0.0000 C   0  0  0  0  0  0  0  0  0  0  0  0
    9.7500   -1.2990    0.0000 C   0  0  0  0  0  0  0  0  0  0  0  0
   10.5000   -2.5981    0.0000 C   0  0  0  0  0  0  0  0  0  0  0  0
  1  2  1  0
  2  3  2  0
  2  4  1  0
  4  5  1  0
  5  6  2  0
  6  7  1  0
  7  8  2  0
  8  9  1  0
  9 10  2  0
  9 11  2  0
  9 12  1  0
 12 13  1  0
 13 14  2  0
 14 15  1  0
 15 16  2  0
 16 17  1  0
 17 18  1  0
 18 19  2  0
 17 20  1  0
 21 20  1  6
 21 22  1  0
 22 23  1  0
 23 24  1  6
 24 25  1  0
 25 26  1  0
 26 27  2  0
 26 28  1  0
 28 29  1  0
 29 30  2  0
 30 31  1  0
 31 32  2  0
 32 33  1  0
 33 34  1  0
 33 35  2  0
 32 36  1  0
 36 37  2  0
 25 38  1  0
  8 39  1  0
 39 40  2  0
 40  5  1  0
 18 13  1  0
 38 21  1  0
 23 16  1  0
 37 29  1  0
M  END
>  <Compound_ID>  (536) 
C04150088

>  <Active>  (536) 
0.0

>  <Smiles>  (536) 
CC(=O)Nc1ccc(S(=O)(=O)Nc2ccc3n(c2=O)C[C@H]2C[C@@H]3CN(C(=O)Nc3ccc(C(C)=O)cc3)C2)cc1

>  <canonical_smi>  (536) 
CC(=O)Nc1ccc(S(=O)(=O)Nc2ccc3n(c2=O)C[C@H]2C[C@@H]3CN(C(=O)Nc3ccc(C(C)=O)cc3)C2)cc1

>  <Set>  (536) 
G2 inactive

>  <Set_type>  (536) 
Train

>  <MW>  (536) 
563.64

>  <HBD>  (536) 
3

>  <HBA>  (536) 
6

>  <NRB>  (536) 
6

>  <NR>  (536) 
5

>  <NAR>  (536) 
3

>  <PSA>  (536) 
146.68

>  <Standard Type>  (536) 
nan

>  <Standard Relation>  (536) 
nan

>  <Standard Units>  (536) 
nan

>  <Standard Value>  (536) 
nan

>  <Assay ChEMBL ID>  (536) 
nan

>  <Assay Description>  (536) 
nan

>  <BAO Label>  (536) 
nan

$$$$

     RDKit          2D

 19 21  0  0  0  0  0  0  0  0999 V2000
    6.8056   -1.2584    0.0000 H   0  0  0  0  0  0  0  0  0  0  0  0
    6.4937   -2.7256    0.0000 N   0  0  0  0  0  0  0  0  0  0  0  0
    5.0672   -3.1891    0.0000 C   0  0  0  0  0  0  0  0  0  0  0  0
    3.8536   -2.3075    0.0000 S   0  0  0  0  0  0  0  0  0  0  0  0
    2.6401   -3.1891    0.0000 C   0  0  0  0  0  0  0  0  0  0  0  0
    1.2135   -2.7256    0.0000 C   0  0  0  0  0  0  0  0  0  0  0  0
    0.7500   -1.2990    0.0000 C   0  0  0  0  0  0  0  0  0  0  0  0
    1.5000    0.0000    0.0000 C   0  0  0  0  0  0  0  0  0  0  0  0
    0.7500    1.2990    0.0000 C   0  0  0  0  0  0  0  0  0  0  0  0
   -0.7500    1.2990    0.0000 C   0  0  0  0  0  0  0  0  0  0  0  0
   -1.5000    0.0000    0.0000 C   0  0  0  0  0  0  0  0  0  0  0  0
   -0.7500   -1.2990    0.0000 C   0  0  0  0  0  0  0  0  0  0  0  0
   -1.2135   -2.7256    0.0000 N   0  0  0  0  0  0  0  0  0  0  0  0
    0.0000   -3.6073    0.0000 C   0  0  0  0  0  0  0  0  0  0  0  0
    0.0000   -5.1073    0.0000 O   0  0  0  0  0  0  0  0  0  0  0  0
    3.1036   -4.6157    0.0000 C   0  0  0  0  0  0  0  0  0  0  0  0
    2.2220   -5.8293    0.0000 O   0  0  0  0  0  0  0  0  0  0  0  0
    4.6036   -4.6157    0.0000 N   0  0  0  0  0  0  0  0  0  0  0  0
    5.4853   -5.8293    0.0000 C   0  0  0  0  0  0  0  0  0  0  0  0
  1  2  1  0
  2  3  2  0
  3  4  1  0
  4  5  1  0
  5  6  1  0
  6  7  2  0
  7  8  1  0
  8  9  2  0
  9 10  1  0
 10 11  2  0
 11 12  1  0
 12 13  2  0
 13 14  1  0
 14 15  2  0
  5 16  2  0
 16 17  1  0
 16 18  1  0
 18 19  1  0
 18  3  1  0
 14  6  1  0
 12  7  1  0
M  END
>  <Compound_ID>  (537) 
C05648741

>  <Active>  (537) 
0.0

>  <Smiles>  (537) 
[H]/N=c1\sc(C2=c3ccccc3=NC2=O)c(O)n1C

>  <canonical_smi>  (537) 
[H]/N=c1\sc(C2=c3ccccc3=NC2=O)c(O)n1C

>  <Set>  (537) 
G2 inactive

>  <Set_type>  (537) 
Train

>  <MW>  (537) 
259.29

>  <HBD>  (537) 
2

>  <HBA>  (537) 
2

>  <NRB>  (537) 
1

>  <NR>  (537) 
3

>  <NAR>  (537) 
2

>  <PSA>  (537) 
78.44

>  <Standard Type>  (537) 
nan

>  <Standard Relation>  (537) 
nan

>  <Standard Units>  (537) 
nan

>  <Standard Value>  (537) 
nan

>  <Assay ChEMBL ID>  (537) 
nan

>  <Assay Description>  (537) 
nan

>  <BAO Label>  (537) 
nan

$$$$

     RDKit          2D

 16 17  0  0  0  0  0  0  0  0999 V2000
    3.0000    0.0000    0.0000 N   0  0  0  0  0  0  0  0  0  0  0  0
    1.5000    0.0000    0.0000 N   0  0  0  0  0  0  0  0  0  0  0  0
    0.7500   -1.2990    0.0000 C   0  0  0  0  0  0  0  0  0  0  0  0
    1.5000   -2.5981    0.0000 O   0  0  0  0  0  0  0  0  0  0  0  0
   -0.7500   -1.2990    0.0000 C   0  0  0  0  0  0  0  0  0  0  0  0
   -1.5000   -2.5981    0.0000 C   0  0  0  0  0  0  0  0  0  0  0  0
   -3.0000   -2.5981    0.0000 C   0  0  0  0  0  0  0  0  0  0  0  0
   -3.7500   -3.8971    0.0000 C   0  0  0  0  0  0  0  0  0  0  0  0
   -3.1399   -5.2674    0.0000 C   0  0  0  0  0  0  0  0  0  0  0  0
   -4.2546   -6.2711    0.0000 C   0  0  0  0  0  0  0  0  0  0  0  0
   -5.5537   -5.5211    0.0000 C   0  0  0  0  0  0  0  0  0  0  0  0
   -5.2418   -4.0539    0.0000 S   0  0  0  0  0  0  0  0  0  0  0  0
   -1.5000    0.0000    0.0000 N   0  0  0  0  0  0  0  0  0  0  0  0
   -0.7500    1.2990    0.0000 N   0  0  0  0  0  0  0  0  0  0  0  0
    0.7500    1.2990    0.0000 C   0  0  0  0  0  0  0  0  0  0  0  0
    1.5000    2.5981    0.0000 S   0  0  0  0  0  0  0  0  0  0  0  0
  1  2  1  0
  2  3  1  0
  3  4  2  0
  3  5  1  0
  5  6  1  6
  6  7  2  0
  7  8  1  0
  8  9  2  0
  9 10  1  0
 10 11  2  0
 11 12  1  0
  5 13  1  0
 13 14  2  0
 14 15  1  0
 15 16  2  0
 15  2  1  0
 12  8  1  0
M  END
>  <Compound_ID>  (538) 
C39565313

>  <Active>  (538) 
0.0

>  <Smiles>  (538) 
NN1C(=O)[C@H](/C=C/c2cccs2)N=NC1=S

>  <canonical_smi>  (538) 
NN1C(=O)[C@H](/C=C/c2cccs2)N=NC1=S

>  <Set>  (538) 
G2 inactive

>  <Set_type>  (538) 
Train

>  <MW>  (538) 
252.32

>  <HBD>  (538) 
1

>  <HBA>  (538) 
3

>  <NRB>  (538) 
2

>  <NR>  (538) 
2

>  <NAR>  (538) 
1

>  <PSA>  (538) 
71.05

>  <Standard Type>  (538) 
nan

>  <Standard Relation>  (538) 
nan

>  <Standard Units>  (538) 
nan

>  <Standard Value>  (538) 
nan

>  <Assay ChEMBL ID>  (538) 
nan

>  <Assay Description>  (538) 
nan

>  <BAO Label>  (538) 
nan

$$$$

     RDKit          2D

 17 18  0  0  0  0  0  0  0  0999 V2000
    3.5260   -1.2990    0.0000 C   0  0  0  0  0  0  0  0  0  0  0  0
    2.7760    0.0000    0.0000 C   0  0  0  0  0  0  0  0  0  0  0  0
    1.2760    0.0000    0.0000 N   0  0  0  0  0  0  0  0  0  0  0  0
    0.3943    1.2135    0.0000 C   0  0  0  0  0  0  0  0  0  0  0  0
   -1.0323    0.7500    0.0000 C   0  0  0  0  0  0  0  0  0  0  0  0
   -2.2458    1.6317    0.0000 C   0  0  0  0  0  0  0  0  0  0  0  0
   -2.0890    3.1235    0.0000 C   0  0  0  0  0  0  0  0  0  0  0  0
   -3.6161    1.0216    0.0000 N   0  0  0  0  0  0  0  0  0  0  0  0
   -3.9280   -0.4456    0.0000 N   0  0  0  0  0  0  0  0  0  0  0  0
   -5.4198   -0.6024    0.0000 C   0  0  0  0  0  0  0  0  0  0  0  0
   -6.1698   -1.9015    0.0000 C   0  0  0  0  0  0  0  0  0  0  0  0
   -6.0299    0.7679    0.0000 C   0  0  0  0  0  0  0  0  0  0  0  0
   -7.4971    1.0797    0.0000 Cl  0  0  0  0  0  0  0  0  0  0  0  0
   -4.9152    1.7716    0.0000 C   0  0  0  0  0  0  0  0  0  0  0  0
   -5.0720    3.2634    0.0000 N   0  0  0  0  0  0  0  0  0  0  0  0
   -1.0323   -0.7500    0.0000 C   0  0  0  0  0  0  0  0  0  0  0  0
    0.3943   -1.2135    0.0000 N   0  0  0  0  0  0  0  0  0  0  0  0
  1  2  1  0
  2  3  1  0
  3  4  1  0
  4  5  2  0
  5  6  1  0
  6  7  1  6
  6  8  1  0
  8  9  1  0
  9 10  2  0
 10 11  1  0
 10 12  1  0
 12 13  1  0
 12 14  2  0
 14 15  1  0
  5 16  1  0
 16 17  2  0
 17  3  1  0
 14  8  1  0
M  END
>  <Compound_ID>  (539) 
C44500825

>  <Active>  (539) 
0.0

>  <Smiles>  (539) 
CCn1cc([C@@H](C)n2nc(C)c(Cl)c2N)cn1

>  <canonical_smi>  (539) 
CCn1cc([C@@H](C)n2nc(C)c(Cl)c2N)cn1

>  <Set>  (539) 
G2 inactive

>  <Set_type>  (539) 
Train

>  <MW>  (539) 
253.74

>  <HBD>  (539) 
1

>  <HBA>  (539) 
3

>  <NRB>  (539) 
3

>  <NR>  (539) 
2

>  <NAR>  (539) 
2

>  <PSA>  (539) 
61.66

>  <Standard Type>  (539) 
nan

>  <Standard Relation>  (539) 
nan

>  <Standard Units>  (539) 
nan

>  <Standard Value>  (539) 
nan

>  <Assay ChEMBL ID>  (539) 
nan

>  <Assay Description>  (539) 
nan

>  <BAO Label>  (539) 
nan

$$$$

     RDKit          2D

 19 21  0  0  0  0  0  0  0  0999 V2000
   -6.0000   -7.7942    0.0000 N   0  0  0  0  0  0  0  0  0  0  0  0
   -5.2500   -6.4952    0.0000 C   0  0  0  0  0  0  0  0  0  0  0  0
   -6.0000   -5.1962    0.0000 C   0  0  0  0  0  0  0  0  0  0  0  0
   -5.2500   -3.8971    0.0000 C   0  0  0  0  0  0  0  0  0  0  0  0
   -3.7500   -3.8971    0.0000 C   0  0  0  0  0  0  0  0  0  0  0  0
   -3.0000   -2.5981    0.0000 C   0  0  0  0  0  0  0  0  0  0  0  0
   -3.7500   -1.2990    0.0000 O   0  0  0  0  0  0  0  0  0  0  0  0
   -1.5000   -2.5981    0.0000 N   0  0  0  0  0  0  0  0  0  0  0  0
   -0.7500   -3.8971    0.0000 C   0  0  0  0  0  0  0  0  0  0  0  0
    0.7500   -3.8971    0.0000 C   0  0  0  0  0  0  0  0  0  0  0  0
    1.5000   -2.5981    0.0000 C   0  0  0  0  0  0  0  0  0  0  0  0
    0.7500   -1.2990    0.0000 C   0  0  0  0  0  0  0  0  0  0  0  0
    1.5000    0.0000    0.0000 C   0  0  0  0  0  0  0  0  0  0  0  0
    0.7500    1.2990    0.0000 C   0  0  0  0  0  0  0  0  0  0  0  0
   -0.7500    1.2990    0.0000 C   0  0  0  0  0  0  0  0  0  0  0  0
   -1.5000    0.0000    0.0000 C   0  0  0  0  0  0  0  0  0  0  0  0
   -0.7500   -1.2990    0.0000 C   0  0  0  0  0  0  0  0  0  0  0  0
   -3.0000   -5.1962    0.0000 N   0  0  0  0  0  0  0  0  0  0  0  0
   -3.7500   -6.4952    0.0000 N   0  0  0  0  0  0  0  0  0  0  0  0
  1  2  1  0
  2  3  2  0
  3  4  1  0
  4  5  2  0
  5  6  1  0
  6  7  2  0
  6  8  1  0
  8  9  1  0
  9 10  1  0
 10 11  1  0
 12 11  1  6
 12 13  1  0
 13 14  1  0
 14 15  1  0
 15 16  1  0
 17 16  1  6
  5 18  1  0
 18 19  2  0
 19  2  1  0
 17  8  1  0
 17 12  1  0
M  END
>  <Compound_ID>  (540) 
C50704088

>  <Active>  (540) 
0.0

>  <Smiles>  (540) 
Nc1ccc(C(=O)N2CCC[C@H]3CCCC[C@H]32)nn1

>  <canonical_smi>  (540) 
Nc1ccc(C(=O)N2CCC[C@H]3CCCC[C@H]32)nn1

>  <Set>  (540) 
G2 inactive

>  <Set_type>  (540) 
Train

>  <MW>  (540) 
260.34

>  <HBD>  (540) 
1

>  <HBA>  (540) 
4

>  <NRB>  (540) 
1

>  <NR>  (540) 
3

>  <NAR>  (540) 
1

>  <PSA>  (540) 
72.11

>  <Standard Type>  (540) 
nan

>  <Standard Relation>  (540) 
nan

>  <Standard Units>  (540) 
nan

>  <Standard Value>  (540) 
nan

>  <Assay ChEMBL ID>  (540) 
nan

>  <Assay Description>  (540) 
nan

>  <BAO Label>  (540) 
nan

$$$$

     RDKit          2D

 28 30  0  0  0  0  0  0  0  0999 V2000
    2.6709    3.2039    0.0000 C   0  0  0  0  0  0  0  0  0  0  0  0
    3.7856    2.2002    0.0000 C   0  0  0  0  0  0  0  0  0  0  0  0
    4.9004    1.1965    0.0000 C   0  0  0  0  0  0  0  0  0  0  0  0
    4.7893    3.3149    0.0000 C   0  0  0  0  0  0  0  0  0  0  0  0
    2.7820    1.0855    0.0000 C   0  0  0  0  0  0  0  0  0  0  0  0
    1.3147    1.3973    0.0000 C   0  0  0  0  0  0  0  0  0  0  0  0
    0.8512    2.8239    0.0000 O   0  0  0  0  0  0  0  0  0  0  0  0
   -0.6160    3.1358    0.0000 C   0  0  0  0  0  0  0  0  0  0  0  0
   -1.0795    4.5624    0.0000 C   0  0  0  0  0  0  0  0  0  0  0  0
   -2.5468    4.8742    0.0000 C   0  0  0  0  0  0  0  0  0  0  0  0
   -3.5505    3.7595    0.0000 C   0  0  0  0  0  0  0  0  0  0  0  0
   -3.0869    2.3329    0.0000 C   0  0  0  0  0  0  0  0  0  0  0  0
   -1.6197    2.0211    0.0000 C   0  0  0  0  0  0  0  0  0  0  0  0
    3.2455   -0.3411    0.0000 N   0  0  0  0  0  4  0  0  0  0  0  0
    2.2418   -1.4558    0.0000 C   0  0  0  0  0  0  0  0  0  0  0  0
    2.5537   -2.9231    0.0000 N   0  0  0  0  0  0  0  0  0  0  0  0
    1.2546   -3.6731    0.0000 C   0  0  0  0  0  0  0  0  0  0  0  0
    1.0978   -5.1648    0.0000 S   0  0  0  0  0  0  0  0  0  0  0  0
    0.1399   -2.6694    0.0000 N   0  0  0  0  0  0  0  0  0  0  0  0
   -1.3273   -2.9812    0.0000 C   0  0  0  0  0  0  0  0  0  0  0  0
   -1.7909   -4.4078    0.0000 C   0  0  0  0  0  0  0  0  0  0  0  0
   -2.2544   -5.8344    0.0000 N   0  0  0  0  0  0  0  0  0  0  0  0
    0.7500   -1.2990    0.0000 C   0  0  0  0  0  0  0  0  0  0  0  0
    1.5000    0.0000    0.0000 C   0  0  0  0  0  0  0  0  0  0  0  0
    0.7500    1.2990    0.0000 C   0  0  0  0  0  0  0  0  0  0  0  0
   -0.7500    1.2990    0.0000 C   0  0  0  0  0  0  0  0  0  0  0  0
   -1.5000    0.0000    0.0000 C   0  0  0  0  0  0  0  0  0  0  0  0
   -0.7500   -1.2990    0.0000 C   0  0  0  0  0  0  0  0  0  0  0  0
  1  2  1  0
  2  3  1  0
  2  4  1  0
  2  5  1  0
  5  6  1  6
  6  7  1  0
  7  8  1  0
  8  9  2  0
  9 10  1  0
 10 11  2  0
 11 12  1  0
 12 13  2  0
  5 14  1  0
 14 15  2  0
 15 16  1  0
 16 17  1  0
 17 18  2  0
 17 19  1  0
 19 20  1  0
 20 21  1  0
 21 22  3  0
 19 23  1  0
 23 24  1  0
 24 25  1  0
 25 26  1  0
 26 27  1  0
 27 28  1  0
 13  8  1  0
 23 15  1  0
 28 23  1  0
M  CHG  1  14   1
M  END
>  <Compound_ID>  (541) 
C01435836

>  <Active>  (541) 
0.0

>  <Smiles>  (541) 
CC(C)(C)[C@@H](COc1ccccc1)/[NH+]=C1/NC(=S)N(CC#N)C12CCCCC2

>  <canonical_smi>  (541) 
CC(C)(C)[C@@H](COc1ccccc1)/[NH+]=C1/NC(=S)N(CC#N)C12CCCCC2

>  <Set>  (541) 
G2 inactive

>  <Set_type>  (541) 
Train

>  <MW>  (541) 
399.58

>  <HBD>  (541) 
2

>  <HBA>  (541) 
5

>  <NRB>  (541) 
5

>  <NR>  (541) 
3

>  <NAR>  (541) 
1

>  <PSA>  (541) 
62.26

>  <Standard Type>  (541) 
nan

>  <Standard Relation>  (541) 
nan

>  <Standard Units>  (541) 
nan

>  <Standard Value>  (541) 
nan

>  <Assay ChEMBL ID>  (541) 
nan

>  <Assay Description>  (541) 
nan

>  <BAO Label>  (541) 
nan

$$$$

     RDKit          2D

 31 34  0  0  0  0  0  0  0  0999 V2000
    9.0000  -15.5885    0.0000 C   0  0  0  0  0  0  0  0  0  0  0  0
    7.5000  -15.5885    0.0000 C   0  0  0  0  0  0  0  0  0  0  0  0
    6.7500  -16.8875    0.0000 C   0  0  0  0  0  0  0  0  0  0  0  0
    6.7500  -14.2894    0.0000 C   0  0  0  0  0  0  0  0  0  0  0  0
    5.2500  -14.2894    0.0000 C   0  0  0  0  0  0  0  0  0  0  0  0
    4.5000  -15.5885    0.0000 C   0  0  0  0  0  0  0  0  0  0  0  0
    4.5000  -12.9904    0.0000 N   0  0  0  0  0  0  0  0  0  0  0  0
    5.2500  -11.6913    0.0000 C   0  0  0  0  0  0  0  0  0  0  0  0
    6.7500  -11.6913    0.0000 O   0  0  0  0  0  0  0  0  0  0  0  0
    4.5000  -10.3923    0.0000 C   0  0  0  0  0  0  0  0  0  0  0  0
    3.0000  -10.3923    0.0000 C   0  0  0  0  0  0  0  0  0  0  0  0
    2.2500   -9.0933    0.0000 C   0  0  0  0  0  0  0  0  0  0  0  0
    3.0000   -7.7942    0.0000 C   0  0  0  0  0  0  0  0  0  0  0  0
    2.2500   -6.4952    0.0000 C   0  0  0  0  0  0  0  0  0  0  0  0
    0.7500   -6.4952    0.0000 C   0  0  0  0  0  0  0  0  0  0  0  0
   -0.0000   -5.1962    0.0000 C   0  0  0  0  0  0  0  0  0  0  0  0
    0.7500   -3.8971    0.0000 C   0  0  0  0  0  0  0  0  0  0  0  0
    2.2500   -3.8971    0.0000 C   0  0  0  0  0  0  0  0  0  0  0  0
    3.0000   -5.1962    0.0000 C   0  0  0  0  0  0  0  0  0  0  0  0
    3.0000   -2.5981    0.0000 C   0  0  0  0  0  0  0  0  0  0  0  0
    2.2500   -1.2990    0.0000 C   0  0  0  0  0  0  0  0  0  0  0  0
    0.7500   -1.2990    0.0000 C   0  0  0  0  0  0  0  0  0  0  0  0
    1.5000    0.0000    0.0000 C   0  0  0  0  0  0  0  0  0  0  0  0
    0.7500    1.2990    0.0000 C   0  0  0  0  0  0  0  0  0  0  0  0
   -0.7500    1.2990    0.0000 N   0  0  0  0  0  4  0  0  0  0  0  0
   -1.5000    2.5981    0.0000 C   0  0  0  0  0  0  0  0  0  0  0  0
   -1.5000    0.0000    0.0000 C   0  0  0  0  0  0  0  0  0  0  0  0
   -0.7500   -1.2990    0.0000 C   0  0  0  0  0  0  0  0  0  0  0  0
   -0.0000   -2.5981    0.0000 O   0  0  0  0  0  0  0  0  0  0  0  0
    4.5000   -7.7942    0.0000 C   0  0  0  0  0  0  0  0  0  0  0  0
    5.2500   -9.0933    0.0000 C   0  0  0  0  0  0  0  0  0  0  0  0
  1  2  1  0
  2  3  1  0
  2  4  1  0
  4  5  1  0
  5  6  1  6
  5  7  1  0
  7  8  1  0
  8  9  2  0
  8 10  1  0
 10 11  2  0
 11 12  1  0
 12 13  2  0
 13 14  1  0
 14 15  2  0
 15 16  1  0
 16 17  2  0
 17 18  1  0
 18 19  2  0
 18 20  1  0
 20 21  1  0
 21 22  1  0
 22 23  1  0
 23 24  1  0
 24 25  1  0
 25 26  1  0
 25 27  1  0
 27 28  1  0
 22 29  1  0
 13 30  1  0
 30 31  2  0
 31 10  1  0
 19 14  1  0
 28 22  1  0
 29 17  1  0
M  CHG  1  25   1
M  END
>  <Compound_ID>  (542) 
C39227682

>  <Active>  (542) 
0.0

>  <Smiles>  (542) 
CC(C)C[C@H](C)NC(=O)c1ccc(-c2ccc3c(c2)CCC2(CC[NH+](C)CC2)O3)cc1

>  <canonical_smi>  (542) 
CC(C)C[C@H](C)NC(=O)c1ccc(-c2ccc3c(c2)CCC2(CC[NH+](C)CC2)O3)cc1

>  <Set>  (542) 
G2 inactive

>  <Set_type>  (542) 
Train

>  <MW>  (542) 
421.61

>  <HBD>  (542) 
2

>  <HBA>  (542) 
2

>  <NRB>  (542) 
5

>  <NR>  (542) 
4

>  <NAR>  (542) 
2

>  <PSA>  (542) 
42.77

>  <Standard Type>  (542) 
nan

>  <Standard Relation>  (542) 
nan

>  <Standard Units>  (542) 
nan

>  <Standard Value>  (542) 
nan

>  <Assay ChEMBL ID>  (542) 
nan

>  <Assay Description>  (542) 
nan

>  <BAO Label>  (542) 
nan

$$$$

     RDKit          2D

 28 32  0  0  0  0  0  0  0  0999 V2000
  -15.5247    6.0289    0.0000 C   0  0  0  0  0  0  0  0  0  0  0  0
  -14.3112    6.9106    0.0000 O   0  0  0  0  0  0  0  0  0  0  0  0
  -12.9409    6.3005    0.0000 C   0  0  0  0  0  0  0  0  0  0  0  0
  -12.7841    4.8087    0.0000 O   0  0  0  0  0  0  0  0  0  0  0  0
  -11.7273    7.1822    0.0000 C   0  0  0  0  0  0  0  0  0  0  0  0
  -10.3007    6.7187    0.0000 C   0  0  0  0  0  0  0  0  0  0  0  0
   -9.4191    7.9322    0.0000 C   0  0  0  0  0  0  0  0  0  0  0  0
   -7.9191    7.9322    0.0000 C   0  0  0  0  0  0  0  0  0  0  0  0
   -7.0374    9.1457    0.0000 C   0  0  0  0  0  0  0  0  0  0  0  0
   -5.6108    8.6822    0.0000 S   0  0  0  0  0  0  0  0  0  0  0  0
   -5.6108    7.1822    0.0000 C   0  0  0  0  0  0  0  0  0  0  0  0
   -4.3973    6.3005    0.0000 N   0  0  0  0  0  0  0  0  0  0  0  0
   -4.5541    4.8087    0.0000 C   0  0  0  0  0  0  0  0  0  0  0  0
   -5.9244    4.1986    0.0000 O   0  0  0  0  0  0  0  0  0  0  0  0
   -3.3405    3.9271    0.0000 C   0  0  0  0  0  0  0  0  0  0  0  0
   -3.3405    2.4271    0.0000 C   0  0  0  0  0  0  0  0  0  0  0  0
   -1.9140    1.9635    0.0000 C   0  0  0  0  0  0  0  0  0  0  0  0
   -1.0323    3.1771    0.0000 C   0  0  0  0  0  0  0  0  0  0  0  0
    0.3943    2.7135    0.0000 N   0  0  0  0  0  0  0  0  0  0  0  0
    0.3943    1.2135    0.0000 C   0  0  0  0  0  0  0  0  0  0  0  0
    1.2760    0.0000    0.0000 S   0  0  0  0  0  0  0  0  0  0  0  0
    0.3943   -1.2135    0.0000 C   0  0  0  0  0  0  0  0  0  0  0  0
   -1.0323   -0.7500    0.0000 C   0  0  0  0  0  0  0  0  0  0  0  0
   -1.0323    0.7500    0.0000 N   0  0  0  0  0  0  0  0  0  0  0  0
   -1.9140    4.3906    0.0000 S   0  0  0  0  0  0  0  0  0  0  0  0
   -7.0374    6.7187    0.0000 N   0  0  0  0  0  0  0  0  0  0  0  0
  -10.3007    9.1457    0.0000 C   0  0  0  0  0  0  0  0  0  0  0  0
  -11.7273    8.6822    0.0000 N   0  0  0  0  0  0  0  0  0  0  0  0
  1  2  1  0
  2  3  1  0
  3  4  2  0
  3  5  1  0
  5  6  2  0
  6  7  1  0
  7  8  1  0
  8  9  2  0
  9 10  1  0
 10 11  1  0
 11 12  1  0
 12 13  1  0
 13 14  2  0
 13 15  1  0
 15 16  2  0
 16 17  1  0
 17 18  2  0
 18 19  1  0
 19 20  2  0
 20 21  1  0
 21 22  1  0
 22 23  2  0
 23 24  1  0
 18 25  1  0
 11 26  2  0
  7 27  2  0
 27 28  1  0
 28  5  1  0
 26  8  1  0
 25 15  1  0
 24 17  1  0
 24 20  1  0
M  END
>  <Compound_ID>  (543) 
C30987583

>  <Active>  (543) 
0.0

>  <Smiles>  (543) 
COC(=O)c1cc(-c2csc(NC(=O)c3cc4c(nc5sccn54)s3)n2)c[nH]1

>  <canonical_smi>  (543) 
COC(=O)c1cc(-c2csc(NC(=O)c3cc4c(nc5sccn54)s3)n2)c[nH]1

>  <Set>  (543) 
G2 inactive

>  <Set_type>  (543) 
Train

>  <MW>  (543) 
429.51

>  <HBD>  (543) 
2

>  <HBA>  (543) 
5

>  <NRB>  (543) 
4

>  <NR>  (543) 
5

>  <NAR>  (543) 
5

>  <PSA>  (543) 
101.38

>  <Standard Type>  (543) 
nan

>  <Standard Relation>  (543) 
nan

>  <Standard Units>  (543) 
nan

>  <Standard Value>  (543) 
nan

>  <Assay ChEMBL ID>  (543) 
nan

>  <Assay Description>  (543) 
nan

>  <BAO Label>  (543) 
nan

$$$$

     RDKit          2D

 21 23  0  0  0  0  0  0  0  0999 V2000
  -11.1975    2.9107    0.0000 C   0  0  0  0  0  0  0  0  0  0  0  0
   -9.7709    3.3742    0.0000 C   0  0  0  0  0  0  0  0  0  0  0  0
   -8.6562    2.3705    0.0000 S   0  0  0  0  0  0  0  0  0  0  0  0
   -7.2296    2.8340    0.0000 C   0  0  0  0  0  0  0  0  0  0  0  0
   -6.9177    4.3013    0.0000 N   0  0  0  0  0  0  0  0  0  0  0  0
   -5.4912    4.7648    0.0000 C   0  0  0  0  0  0  0  0  0  0  0  0
   -4.3764    3.7611    0.0000 C   0  0  0  0  0  0  0  0  0  0  0  0
   -2.9499    4.2246    0.0000 Br  0  0  0  0  0  0  0  0  0  0  0  0
   -4.6883    2.2939    0.0000 C   0  0  0  0  0  0  0  0  0  0  0  0
   -3.5736    1.2902    0.0000 S   0  0  0  0  0  0  0  0  0  0  0  0
   -2.1470    1.7537    0.0000 C   0  0  0  0  0  0  0  0  0  0  0  0
   -1.8351    3.2209    0.0000 N   0  0  0  0  0  0  0  0  0  0  0  0
   -0.4086    3.6844    0.0000 C   0  0  0  0  0  0  0  0  0  0  0  0
   -0.0967    5.1517    0.0000 N   0  0  0  0  0  0  0  0  0  0  0  0
    0.7062    2.6807    0.0000 N   0  0  0  0  0  0  0  0  0  0  0  0
    0.3943    1.2135    0.0000 C   0  0  0  0  0  0  0  0  0  0  0  0
    1.2760    0.0000    0.0000 N   0  0  0  0  0  0  0  0  0  0  0  0
    0.3943   -1.2135    0.0000 C   0  0  0  0  0  0  0  0  0  0  0  0
   -1.0323   -0.7500    0.0000 N   0  0  0  0  0  0  0  0  0  0  0  0
   -1.0323    0.7500    0.0000 C   0  0  0  0  0  0  0  0  0  0  0  0
   -6.1149    1.8303    0.0000 N   0  0  0  0  0  0  0  0  0  0  0  0
  1  2  1  0
  2  3  1  0
  3  4  1  0
  4  5  2  0
  5  6  1  0
  6  7  2  0
  7  8  1  0
  7  9  1  0
  9 10  1  0
 10 11  1  0
 11 12  2  0
 12 13  1  0
 13 14  1  0
 13 15  2  0
 15 16  1  0
 16 17  1  0
 17 18  1  0
 18 19  2  0
 19 20  1  0
  9 21  2  0
 21  4  1  0
 20 11  1  0
 20 16  2  0
M  END
>  <Compound_ID>  (544) 
C08615349

>  <Active>  (544) 
0.0

>  <Smiles>  (544) 
CCSc1ncc(Br)c(Sc2nc(N)nc3[nH]cnc23)n1

>  <canonical_smi>  (544) 
CCSc1ncc(Br)c(Sc2nc(N)nc3[nH]cnc23)n1

>  <Set>  (544) 
G2 inactive

>  <Set_type>  (544) 
Train

>  <MW>  (544) 
384.29

>  <HBD>  (544) 
2

>  <HBA>  (544) 
8

>  <NRB>  (544) 
4

>  <NR>  (544) 
3

>  <NAR>  (544) 
3

>  <PSA>  (544) 
106.26

>  <Standard Type>  (544) 
nan

>  <Standard Relation>  (544) 
nan

>  <Standard Units>  (544) 
nan

>  <Standard Value>  (544) 
nan

>  <Assay ChEMBL ID>  (544) 
nan

>  <Assay Description>  (544) 
nan

>  <BAO Label>  (544) 
nan

$$$$

     RDKit          2D

 32 35  0  0  0  0  0  0  0  0999 V2000
   -0.3991   -2.9329    0.0000 C   0  0  0  0  0  0  0  0  0  0  0  0
    0.7500   -3.8971    0.0000 C   0  0  0  0  0  0  0  0  0  0  0  0
    1.5000   -2.5981    0.0000 O   0  0  0  0  0  0  0  0  0  0  0  0
    0.7500   -1.2990    0.0000 C   0  0  0  0  0  0  0  0  0  0  0  0
    1.5000    0.0000    0.0000 C   0  0  0  0  0  0  0  0  0  0  0  0
    0.7500    1.2990    0.0000 C   0  0  0  0  0  0  0  0  0  0  0  0
   -0.7500    1.2990    0.0000 C   0  0  0  0  0  0  0  0  0  0  0  0
   -1.5000    2.5981    0.0000 N   0  0  0  0  0  0  0  0  0  0  0  0
   -3.0000    2.5981    0.0000 C   0  0  0  0  0  0  0  0  0  0  0  0
   -3.7500    3.8971    0.0000 C   0  0  0  0  0  0  0  0  0  0  0  0
   -5.2500    3.8971    0.0000 C   0  0  0  0  0  0  0  0  0  0  0  0
   -6.0000    2.5981    0.0000 C   0  0  0  0  0  0  0  0  0  0  0  0
   -7.5000    2.5981    0.0000 O   0  0  0  0  0  0  0  0  0  0  0  0
   -5.2500    1.2990    0.0000 C   0  0  0  0  0  0  0  0  0  0  0  0
   -3.7500    1.2990    0.0000 C   0  0  0  0  0  0  0  0  0  0  0  0
   -3.0000    0.0000    0.0000 O   0  0  0  0  0  0  0  0  0  0  0  0
   -1.5000    0.0000    0.0000 C   0  0  0  0  0  0  0  0  0  0  0  0
   -0.7500   -1.2990    0.0000 C   0  0  0  0  0  0  0  0  0  0  0  0
    2.1595   -4.4101    0.0000 O   0  0  0  0  0  0  0  0  0  0  0  0
    2.4200   -5.8874    0.0000 C   0  0  0  0  0  0  0  0  0  0  0  0
    3.1700   -7.1864    0.0000 C   0  0  0  0  0  0  0  0  0  0  0  0
    3.8296   -5.3743    0.0000 C   0  0  0  0  0  0  0  0  0  0  0  0
    4.9786   -6.3385    0.0000 O   0  0  0  0  0  0  0  0  0  0  0  0
    1.2709   -6.8515    0.0000 C   0  0  0  0  0  0  0  0  0  0  0  0
    0.5209   -8.1506    0.0000 C   0  0  0  0  0  0  0  0  0  0  0  0
    2.4200   -7.8157    0.0000 O   0  0  0  0  0  0  0  0  0  0  0  0
   -0.1386   -6.3385    0.0000 C   0  0  0  0  0  0  0  0  0  0  0  0
   -1.6386   -6.3385    0.0000 C   0  0  0  0  0  0  0  0  0  0  0  0
   -0.3991   -7.8157    0.0000 O   0  0  0  0  0  0  0  0  0  0  0  0
   -0.3991   -4.8613    0.0000 C   0  0  0  0  0  0  0  0  0  0  0  0
   -1.1491   -3.5623    0.0000 C   0  0  0  0  0  0  0  0  0  0  0  0
   -1.8086   -5.3743    0.0000 O   0  0  0  0  0  0  0  0  0  0  0  0
  2  1  1  1
  2  3  1  0
  3  4  1  0
  4  5  2  0
  5  6  1  0
  6  7  2  0
  7  8  1  0
  8  9  2  0
  9 10  1  0
 10 11  2  0
 11 12  1  0
 12 13  2  0
 12 14  1  0
 14 15  2  0
 15 16  1  0
 16 17  1  0
 17 18  2  0
  2 19  1  0
 19 20  1  0
 20 21  1  6
 20 22  1  0
 22 23  1  0
 20 24  1  0
 24 25  1  1
 24 26  1  0
 24 27  1  0
 27 28  1  6
 27 29  1  0
 27 30  1  0
 30 31  1  6
 30 32  1  0
 30  2  1  0
 18  4  1  0
 17  7  1  0
 15  9  1  0
M  END
>  <Compound_ID>  (545) 
C09970331

>  <Active>  (545) 
0.0

>  <Smiles>  (545) 
C[C@@]1(Oc2ccc3nc4ccc(=O)cc-4oc3c2)O[C@@](C)(CO)[C@](C)(O)[C@@](C)(O)[C@@]1(C)O

>  <canonical_smi>  (545) 
C[C@@]1(CO)O[C@@](C)(Oc2ccc3nc4ccc(=O)cc-4oc3c2)[C@](C)(O)[C@](C)(O)[C@@]1(C)O

>  <Set>  (545) 
G2 inactive

>  <Set_type>  (545) 
Train

>  <MW>  (545) 
445.47

>  <HBD>  (545) 
4

>  <HBA>  (545) 
9

>  <NRB>  (545) 
3

>  <NR>  (545) 
4

>  <NAR>  (545) 
3

>  <PSA>  (545) 
142.48

>  <Standard Type>  (545) 
nan

>  <Standard Relation>  (545) 
nan

>  <Standard Units>  (545) 
nan

>  <Standard Value>  (545) 
nan

>  <Assay ChEMBL ID>  (545) 
nan

>  <Assay Description>  (545) 
nan

>  <BAO Label>  (545) 
nan

$$$$

     RDKit          2D

 34 39  0  0  0  0  0  0  0  0999 V2000
   -0.7500   -3.8971    0.0000 O   0  0  0  0  0  0  0  0  0  0  0  0
    0.7500   -3.8971    0.0000 C   0  0  0  0  0  0  0  0  0  0  0  0
    1.5000   -5.1962    0.0000 N   0  0  0  0  0  0  0  0  0  0  0  0
    0.7500   -6.4952    0.0000 C   0  0  0  0  0  0  0  0  0  0  0  0
   -0.7500   -6.4952    0.0000 C   0  0  0  0  0  0  0  0  0  0  0  0
   -1.5000   -7.7942    0.0000 C   0  0  0  0  0  0  0  0  0  0  0  0
   -0.7500   -9.0933    0.0000 C   0  0  0  0  0  0  0  0  0  0  0  0
   -1.5000  -10.3923    0.0000 N   0  0  0  0  0  0  0  0  0  0  0  0
   -0.8899  -11.7626    0.0000 C   0  0  0  0  0  0  0  0  0  0  0  0
   -2.0046  -12.7663    0.0000 C   0  0  0  0  0  0  0  0  0  0  0  0
   -3.3037  -12.0163    0.0000 C   0  0  0  0  0  0  0  0  0  0  0  0
   -2.9918  -10.5491    0.0000 C   0  0  0  0  0  0  0  0  0  0  0  0
    0.7500   -9.0933    0.0000 C   0  0  0  0  0  0  0  0  0  0  0  0
    1.5000  -10.3923    0.0000 C   0  0  0  0  0  0  0  0  0  0  0  0
    0.7500  -11.6913    0.0000 O   0  0  0  0  0  0  0  0  0  0  0  0
    3.0000  -10.3923    0.0000 N   0  0  0  0  0  0  0  0  0  0  0  0
    3.7500  -11.6913    0.0000 C   0  0  0  0  0  0  0  0  0  0  0  0
    5.2500  -11.6913    0.0000 C   0  0  0  0  0  0  0  0  0  0  0  0
    6.1317  -10.4778    0.0000 C   0  0  0  0  0  0  0  0  0  0  0  0
    7.5583  -10.9413    0.0000 C   0  0  0  0  0  0  0  0  0  0  0  0
    7.5583  -12.4413    0.0000 C   0  0  0  0  0  0  0  0  0  0  0  0
    6.1317  -12.9049    0.0000 O   0  0  0  0  0  0  0  0  0  0  0  0
    1.5000   -7.7942    0.0000 C   0  0  0  0  0  0  0  0  0  0  0  0
    1.5000   -2.5981    0.0000 N   0  0  0  0  0  0  0  0  0  0  0  0
    0.7500   -1.2990    0.0000 C   0  0  0  0  0  0  0  0  0  0  0  0
    1.5000    0.0000    0.0000 C   0  0  0  0  0  0  0  0  0  0  0  0
    0.7500    1.2990    0.0000 C   0  0  0  0  0  0  0  0  0  0  0  0
   -0.7500    1.2990    0.0000 C   0  0  0  0  0  0  0  0  0  0  0  0
   -1.5000    0.0000    0.0000 C   0  0  0  0  0  0  0  0  0  0  0  0
    1.7010   -0.7500    0.0000 C   0  0  0  0  0  0  0  0  0  0  0  0
    3.0000   -0.0000    0.0000 C   0  0  0  0  0  0  0  0  0  0  0  0
    2.2500    1.2990    0.0000 C   0  0  0  0  0  0  0  0  0  0  0  0
    2.2500   -1.2990    0.0000 C   0  0  0  0  0  0  0  0  0  0  0  0
   -0.7500   -1.2990    0.0000 C   0  0  0  0  0  0  0  0  0  0  0  0
  1  2  2  0
  2  3  1  0
  3  4  1  0
  4  5  2  0
  5  6  1  0
  6  7  2  0
  7  8  1  0
  8  9  1  0
  9 10  1  0
 10 11  1  0
 11 12  1  0
  7 13  1  0
 13 14  1  0
 14 15  2  0
 14 16  1  0
 16 17  1  0
 18 17  1  6
 18 19  1  0
 19 20  1  0
 20 21  1  0
 21 22  1  0
 13 23  2  0
  2 24  1  0
 24 25  1  0
 25 26  1  0
 26 27  1  0
 27 28  1  0
 28 29  1  0
 29 30  1  0
 30 31  1  0
 31 32  1  0
 31 33  1  0
 29 34  1  0
 23  4  1  0
 33 25  1  0
 12  8  1  0
 22 18  1  0
 34 25  1  0
 32 27  1  0
M  END
>  <Compound_ID>  (546) 
C33557718

>  <Active>  (546) 
0.0

>  <Smiles>  (546) 
O=C(Nc1ccc(N2CCCC2)c(C(=O)NC[C@@H]2CCCO2)c1)NC12CC3CC(CC(C3)C1)C2

>  <canonical_smi>  (546) 
O=C(Nc1ccc(N2CCCC2)c(C(=O)NC[C@@H]2CCCO2)c1)NC12CC3CC(CC(C3)C1)C2

>  <Set>  (546) 
G2 inactive

>  <Set_type>  (546) 
Train

>  <MW>  (546) 
466.63

>  <HBD>  (546) 
3

>  <HBA>  (546) 
4

>  <NRB>  (546) 
6

>  <NR>  (546) 
7

>  <NAR>  (546) 
1

>  <PSA>  (546) 
82.7

>  <Standard Type>  (546) 
nan

>  <Standard Relation>  (546) 
nan

>  <Standard Units>  (546) 
nan

>  <Standard Value>  (546) 
nan

>  <Assay ChEMBL ID>  (546) 
nan

>  <Assay Description>  (546) 
nan

>  <BAO Label>  (546) 
nan

$$$$

     RDKit          2D

 17 16  0  0  0  0  0  0  0  0999 V2000
    0.0000    0.0000    0.0000 C   0  0  0  0  0  0  0  0  0  0  0  0
    1.2990    0.7500    0.0000 C   0  0  0  0  0  0  0  0  0  0  0  0
    0.5490    2.0490    0.0000 N   0  0  0  0  0  4  0  0  0  0  0  0
    2.5981    1.5000    0.0000 C   0  0  0  0  0  0  0  0  0  0  0  0
    2.5981    3.0000    0.0000 C   0  0  0  0  0  0  0  0  0  0  0  0
    1.0981    3.0000    0.0000 O   0  0  0  0  0  0  0  0  0  0  0  0
    2.5981    4.5000    0.0000 C   0  0  0  0  0  0  0  0  0  0  0  0
    2.5981    6.0000    0.0000 F   0  0  0  0  0  0  0  0  0  0  0  0
    1.0981    4.5000    0.0000 F   0  0  0  0  0  0  0  0  0  0  0  0
    3.4772    4.6080    0.0000 Cl  0  0  0  0  0  0  0  0  0  0  0  0
    4.0981    3.0000    0.0000 C   0  0  0  0  0  0  0  0  0  0  0  0
    5.5981    3.0000    0.0000 F   0  0  0  0  0  0  0  0  0  0  0  0
    4.2060    3.8791    0.0000 F   0  0  0  0  0  0  0  0  0  0  0  0
    4.0981    1.5000    0.0000 Cl  0  0  0  0  0  0  0  0  0  0  0  0
    2.0490   -0.5490    0.0000 C   0  0  0  0  0  0  0  0  0  0  0  0
    1.2990   -1.8481    0.0000 O   0  0  0  0  0  0  0  0  0  0  0  0
    3.5490   -0.5490    0.0000 O   0  0  0  0  0  1  0  0  0  0  0  0
  2  1  1  1
  2  3  1  0
  2  4  1  0
  4  5  1  0
  5  6  1  0
  5  7  1  0
  7  8  1  0
  7  9  1  0
  7 10  1  0
  5 11  1  0
 11 12  1  0
 11 13  1  0
 11 14  1  0
  2 15  1  0
 15 16  2  0
 15 17  1  0
M  CHG  2   3   1  17  -1
M  END
>  <Compound_ID>  (547) 
C06442030

>  <Active>  (547) 
0.0

>  <Smiles>  (547) 
C[C@@]([NH3+])(CC(O)(C(F)(F)Cl)C(F)(F)Cl)C(=O)[O-]

>  <canonical_smi>  (547) 
C[C@@]([NH3+])(CC(O)(C(F)(F)Cl)C(F)(F)Cl)C(=O)[O-]

>  <Set>  (547) 
G2 inactive

>  <Set_type>  (547) 
Train

>  <MW>  (547) 
302.05

>  <HBD>  (547) 
2

>  <HBA>  (547) 
3

>  <NRB>  (547) 
5

>  <NR>  (547) 
0

>  <NAR>  (547) 
0

>  <PSA>  (547) 
88.0

>  <Standard Type>  (547) 
nan

>  <Standard Relation>  (547) 
nan

>  <Standard Units>  (547) 
nan

>  <Standard Value>  (547) 
nan

>  <Assay ChEMBL ID>  (547) 
nan

>  <Assay Description>  (547) 
nan

>  <BAO Label>  (547) 
nan

$$$$

     RDKit          2D

 23 25  0  0  0  0  0  0  0  0999 V2000
   -4.5960   -3.5353    0.0000 C   0  0  0  0  0  0  0  0  0  0  0  0
   -3.2970   -4.2853    0.0000 C   0  0  0  0  0  0  0  0  0  0  0  0
   -1.9979   -3.5353    0.0000 N   0  0  0  0  0  0  0  0  0  0  0  0
   -0.6989   -4.2853    0.0000 C   0  0  0  0  0  0  0  0  0  0  0  0
   -0.3107   -5.7342    0.0000 C   0  0  0  0  0  0  0  0  0  0  0  0
   -1.0607   -7.0333    0.0000 O   0  0  0  0  0  0  0  0  0  0  0  0
    1.1382   -5.3460    0.0000 C   0  0  0  0  0  0  0  0  0  0  0  0
    2.4373   -6.0960    0.0000 O   0  0  0  0  0  0  0  0  0  0  0  0
    0.7500   -3.8971    0.0000 C   0  0  0  0  0  0  0  0  0  0  0  0
    1.5000   -2.5981    0.0000 N   0  0  0  0  0  0  0  0  0  0  0  0
    0.7500   -1.2990    0.0000 C   0  0  0  0  0  0  0  0  0  0  0  0
    1.5000    0.0000    0.0000 C   0  0  0  0  0  0  0  0  0  0  0  0
    0.7500    1.2990    0.0000 C   0  0  0  0  0  0  0  0  0  0  0  0
   -0.7500    1.2990    0.0000 N   0  0  0  0  0  4  0  0  0  0  0  0
   -1.5000    0.0000    0.0000 C   0  0  0  0  0  0  0  0  0  0  0  0
   -0.7500   -1.2990    0.0000 C   0  0  0  0  0  0  0  0  0  0  0  0
   -3.2970   -5.7853    0.0000 C   0  0  0  0  0  0  0  0  0  0  0  0
   -4.5960   -6.5353    0.0000 C   0  0  0  0  0  0  0  0  0  0  0  0
   -4.5960   -8.0353    0.0000 C   0  0  0  0  0  0  0  0  0  0  0  0
   -3.2970   -8.7853    0.0000 C   0  0  0  0  0  0  0  0  0  0  0  0
   -1.9979   -8.0353    0.0000 C   0  0  0  0  0  0  0  0  0  0  0  0
   -0.6989   -8.7853    0.0000 N   0  0  0  0  0  0  0  0  0  0  0  0
   -1.9979   -6.5353    0.0000 C   0  0  0  0  0  0  0  0  0  0  0  0
  2  1  1  1
  2  3  1  0
  3  4  2  0
  4  5  1  0
  5  6  2  0
  5  7  1  0
  7  8  2  0
  7  9  1  0
  9 10  1  6
 10 11  1  0
 11 12  2  0
 12 13  1  0
 13 14  2  0
 14 15  1  0
 15 16  2  0
  2 17  1  0
 17 18  2  0
 18 19  1  0
 19 20  2  0
 20 21  1  0
 21 22  1  0
 21 23  2  0
  9  4  1  0
 16 11  1  0
 23 17  1  0
M  CHG  1  14   1
M  END
>  <Compound_ID>  (548) 
C49538650

>  <Active>  (548) 
0.0

>  <Smiles>  (548) 
C[C@@H](/N=C1\C(=O)C(=O)[C@H]1Nc1cc[nH+]cc1)c1cccc(N)c1

>  <canonical_smi>  (548) 
C[C@@H](/N=C1\C(=O)C(=O)[C@H]1Nc1cc[nH+]cc1)c1cccc(N)c1

>  <Set>  (548) 
G2 inactive

>  <Set_type>  (548) 
Train

>  <MW>  (548) 
309.35

>  <HBD>  (548) 
2

>  <HBA>  (548) 
4

>  <NRB>  (548) 
4

>  <NR>  (548) 
3

>  <NAR>  (548) 
2

>  <PSA>  (548) 
98.69

>  <Standard Type>  (548) 
nan

>  <Standard Relation>  (548) 
nan

>  <Standard Units>  (548) 
nan

>  <Standard Value>  (548) 
nan

>  <Assay ChEMBL ID>  (548) 
nan

>  <Assay Description>  (548) 
nan

>  <BAO Label>  (548) 
nan

$$$$

     RDKit          2D

 29 32  0  0  0  0  0  0  0  0999 V2000
    3.7500   -1.2990    0.0000 O   0  0  0  0  0  0  0  0  0  0  0  0
    3.0000   -2.5981    0.0000 C   0  0  0  0  0  0  0  0  0  0  0  0
    3.7500   -3.8971    0.0000 C   0  0  0  0  0  0  0  0  0  0  0  0
    5.2500   -3.8971    0.0000 C   0  0  0  0  0  0  0  0  0  0  0  0
    6.0000   -5.1962    0.0000 C   0  0  0  0  0  0  0  0  0  0  0  0
    7.5000   -5.1962    0.0000 C   0  0  0  0  0  0  0  0  0  0  0  0
    8.2500   -6.4952    0.0000 C   0  0  0  0  0  0  0  0  0  0  0  0
    9.7418   -6.6520    0.0000 C   0  0  0  0  0  0  0  0  0  0  0  0
   11.0408   -5.9020    0.0000 N   0  0  0  0  0  0  0  0  0  0  0  0
   12.1555   -6.9057    0.0000 C   0  0  0  0  0  0  0  0  0  0  0  0
   13.6228   -6.5938    0.0000 O   0  0  0  0  0  0  0  0  0  0  0  0
   11.5454   -8.2760    0.0000 N   0  0  0  0  0  0  0  0  0  0  0  0
   10.0537   -8.1192    0.0000 C   0  0  0  0  0  0  0  0  0  0  0  0
    8.7546   -8.8692    0.0000 C   0  0  0  0  0  0  0  0  0  0  0  0
    7.6399   -7.8655    0.0000 S   0  0  0  0  0  0  0  0  0  0  0  0
    6.7582   -9.0790    0.0000 O   0  0  0  0  0  0  0  0  0  0  0  0
    6.3409   -7.1155    0.0000 O   0  0  0  0  0  0  0  0  0  0  0  0
    1.5000   -2.5981    0.0000 N   0  0  0  0  0  0  0  0  0  0  0  0
    0.7500   -1.2990    0.0000 C   0  0  0  0  0  0  0  0  0  0  0  0
    1.5000    0.0000    0.0000 C   0  0  0  0  0  0  0  0  0  0  0  0
    0.7500    1.2990    0.0000 C   0  0  0  0  0  0  0  0  0  0  0  0
   -0.7500    1.2990    0.0000 S   0  0  0  0  0  0  0  0  0  0  0  0
   -1.5000    0.0000    0.0000 C   0  0  0  0  0  0  0  0  0  0  0  0
   -3.0000    0.0000    0.0000 C   0  0  0  0  0  0  0  0  0  0  0  0
   -3.7500   -1.2990    0.0000 C   0  0  0  0  0  0  0  0  0  0  0  0
   -3.0000   -2.5981    0.0000 C   0  0  0  0  0  0  0  0  0  0  0  0
   -3.7500   -3.8971    0.0000 Cl  0  0  0  0  0  0  0  0  0  0  0  0
   -1.5000   -2.5981    0.0000 C   0  0  0  0  0  0  0  0  0  0  0  0
   -0.7500   -1.2990    0.0000 C   0  0  0  0  0  0  0  0  0  0  0  0
  1  2  2  0
  2  3  1  0
  3  4  1  0
  4  5  1  0
  5  6  1  0
  7  6  1  6
  7  8  1  0
  8  9  1  1
  9 10  1  0
 10 11  2  0
 10 12  1  0
 12 13  1  0
 13 14  1  6
 14 15  1  0
 15 16  2  0
 15 17  2  0
  2 18  1  0
 19 18  1  6
 19 20  1  0
 20 21  1  0
 21 22  1  0
 22 23  1  0
 23 24  2  0
 24 25  1  0
 25 26  2  0
 26 27  1  0
 26 28  1  0
 28 29  2  0
 15  7  1  0
 29 19  1  0
 13  8  1  0
 29 23  1  0
M  END
>  <Compound_ID>  (549) 
C35277501

>  <Active>  (549) 
0.0

>  <Smiles>  (549) 
O=C(CCCC[C@@H]1[C@H]2NC(=O)N[C@@H]2CS1(=O)=O)N[C@H]1CCSc2ccc(Cl)cc21

>  <canonical_smi>  (549) 
O=C(CCCC[C@@H]1[C@H]2NC(=O)N[C@@H]2CS1(=O)=O)N[C@H]1CCSc2ccc(Cl)cc21

>  <Set>  (549) 
G2 inactive

>  <Set_type>  (549) 
Train

>  <MW>  (549) 
458.01

>  <HBD>  (549) 
3

>  <HBA>  (549) 
5

>  <NRB>  (549) 
6

>  <NR>  (549) 
4

>  <NAR>  (549) 
1

>  <PSA>  (549) 
104.37

>  <Standard Type>  (549) 
nan

>  <Standard Relation>  (549) 
nan

>  <Standard Units>  (549) 
nan

>  <Standard Value>  (549) 
nan

>  <Assay ChEMBL ID>  (549) 
nan

>  <Assay Description>  (549) 
nan

>  <BAO Label>  (549) 
nan

$$$$

     RDKit          2D

 17 18  0  0  0  0  0  0  0  0999 V2000
    3.0000    0.0000    0.0000 O   0  0  0  0  0  0  0  0  0  0  0  0
    1.5000    0.0000    0.0000 C   0  0  0  0  0  0  0  0  0  0  0  0
    0.7500   -1.2990    0.0000 N   0  0  0  0  0  0  0  0  0  0  0  0
   -0.7500   -1.2990    0.0000 C   0  0  0  0  0  0  0  0  0  0  0  0
   -1.5000   -2.5981    0.0000 O   0  0  0  0  0  0  0  0  0  0  0  0
   -1.5000    0.0000    0.0000 N   0  0  0  0  0  0  0  0  0  0  0  0
   -3.0000    0.0000    0.0000 C   0  0  0  0  0  0  0  0  0  0  0  0
   -3.8817   -1.2135    0.0000 C   0  0  0  0  0  0  0  0  0  0  0  0
   -5.3083   -0.7500    0.0000 C   0  0  0  0  0  0  0  0  0  0  0  0
   -6.5218   -1.6317    0.0000 O   0  0  0  0  0  0  0  0  0  0  0  0
   -5.3083    0.7500    0.0000 C   0  0  0  0  0  0  0  0  0  0  0  0
   -6.5218    1.6317    0.0000 C   0  0  0  0  0  0  0  0  0  0  0  0
   -6.3650    3.1235    0.0000 O   0  0  0  0  0  0  0  0  0  0  0  0
   -3.8817    1.2135    0.0000 O   0  0  0  0  0  0  0  0  0  0  0  0
   -0.7500    1.2990    0.0000 C   0  0  0  0  0  0  0  0  0  0  0  0
    0.7500    1.2990    0.0000 C   0  0  0  0  0  0  0  0  0  0  0  0
    1.5000    2.5981    0.0000 I   0  0  0  0  0  0  0  0  0  0  0  0
  1  2  2  0
  2  3  1  0
  3  4  1  0
  4  5  2  0
  4  6  1  0
  7  6  1  6
  7  8  1  0
  8  9  1  0
  9 10  1  6
  9 11  1  0
 11 12  1  1
 12 13  1  0
 11 14  1  0
  6 15  1  0
 15 16  2  0
 16 17  1  0
 16  2  1  0
 14  7  1  0
M  END
>  <Compound_ID>  (550) 
C05223557

>  <Active>  (550) 
0.0

>  <Smiles>  (550) 
O=c1[nH]c(=O)n([C@@H]2C[C@H](O)[C@@H](CO)O2)cc1I

>  <canonical_smi>  (550) 
O=c1[nH]c(=O)n([C@@H]2C[C@H](O)[C@@H](CO)O2)cc1I

>  <Set>  (550) 
G2 inactive

>  <Set_type>  (550) 
Train

>  <MW>  (550) 
354.1

>  <HBD>  (550) 
3

>  <HBA>  (550) 
5

>  <NRB>  (550) 
2

>  <NR>  (550) 
2

>  <NAR>  (550) 
1

>  <PSA>  (550) 
104.55

>  <Standard Type>  (550) 
nan

>  <Standard Relation>  (550) 
nan

>  <Standard Units>  (550) 
nan

>  <Standard Value>  (550) 
nan

>  <Assay ChEMBL ID>  (550) 
nan

>  <Assay Description>  (550) 
nan

>  <BAO Label>  (550) 
nan

$$$$

     RDKit          2D

 15 16  0  0  0  0  0  0  0  0999 V2000
    3.7500   -1.2990    0.0000 C   0  0  0  0  0  0  0  0  0  0  0  0
    3.0000    0.0000    0.0000 O   0  0  0  0  0  0  0  0  0  0  0  0
    1.5000    0.0000    0.0000 C   0  0  0  0  0  0  0  0  0  0  0  0
    0.7500   -1.2990    0.0000 C   0  0  0  0  0  0  0  0  0  0  0  0
   -0.7500   -1.2990    0.0000 C   0  0  0  0  0  0  0  0  0  0  0  0
   -1.5000   -2.5981    0.0000 O   0  0  0  0  0  0  0  0  0  0  0  0
   -1.5000    0.0000    0.0000 C   0  0  0  0  0  0  0  0  0  0  0  0
   -3.0000    0.0000    0.0000 C   0  0  0  0  0  0  0  0  0  0  0  0
   -3.8817    1.2135    0.0000 N   0  0  0  0  0  0  0  0  0  0  0  0
   -5.3083    0.7500    0.0000 C   0  0  0  0  0  0  0  0  0  0  0  0
   -5.3083   -0.7500    0.0000 C   0  0  0  0  0  0  0  0  0  0  0  0
   -6.5218   -1.6317    0.0000 C   0  0  0  0  0  0  0  0  0  0  0  0
   -3.8817   -1.2135    0.0000 N   0  0  0  0  0  0  0  0  0  0  0  0
   -0.7500    1.2990    0.0000 C   0  0  0  0  0  0  0  0  0  0  0  0
    0.7500    1.2990    0.0000 C   0  0  0  0  0  0  0  0  0  0  0  0
  1  2  1  0
  2  3  1  0
  3  4  2  0
  4  5  1  0
  5  6  2  0
  5  7  1  0
  7  8  2  0
  8  9  1  0
  9 10  1  0
 10 11  1  0
 11 12  1  1
 11 13  1  0
  7 14  1  0
 14 15  2  0
 15  3  1  0
 13  8  1  0
M  END
>  <Compound_ID>  (551) 
C35188600

>  <Active>  (551) 
0.0

>  <Smiles>  (551) 
COC1=CC(=O)/C(=C2/NC[C@H](C)N2)C=C1

>  <canonical_smi>  (551) 
COC1=CC(=O)/C(=C2/NC[C@H](C)N2)C=C1

>  <Set>  (551) 
G2 inactive

>  <Set_type>  (551) 
Train

>  <MW>  (551) 
206.24

>  <HBD>  (551) 
2

>  <HBA>  (551) 
4

>  <NRB>  (551) 
1

>  <NR>  (551) 
2

>  <NAR>  (551) 
0

>  <PSA>  (551) 
50.36

>  <Standard Type>  (551) 
nan

>  <Standard Relation>  (551) 
nan

>  <Standard Units>  (551) 
nan

>  <Standard Value>  (551) 
nan

>  <Assay ChEMBL ID>  (551) 
nan

>  <Assay Description>  (551) 
nan

>  <BAO Label>  (551) 
nan

$$$$

     RDKit          2D

 30 32  0  0  0  0  0  0  0  0999 V2000
   -2.9499    4.2246    0.0000 C   0  0  0  0  0  0  0  0  0  0  0  0
   -1.8351    3.2209    0.0000 C   0  0  0  0  0  0  0  0  0  0  0  0
   -0.4086    3.6844    0.0000 C   0  0  0  0  0  0  0  0  0  0  0  0
    0.7062    2.6807    0.0000 C   0  0  0  0  0  0  0  0  0  0  0  0
    1.7099    3.7955    0.0000 C   0  0  0  0  0  0  0  0  0  0  0  0
    3.1364    4.2590    0.0000 C   0  0  0  0  0  0  0  0  0  0  0  0
    3.0579    5.7569    0.0000 C   0  0  0  0  0  0  0  0  0  0  0  0
    4.6037    3.9471    0.0000 C   0  0  0  0  0  0  0  0  0  0  0  0
    5.7184    2.9434    0.0000 C   0  0  0  0  0  0  0  0  0  0  0  0
    6.1819    1.5168    0.0000 C   0  0  0  0  0  0  0  0  0  0  0  0
    7.6799    1.5953    0.0000 O   0  0  0  0  0  0  0  0  0  0  0  0
    5.8700    0.0496    0.0000 C   0  0  0  0  0  0  0  0  0  0  0  0
    7.2066   -0.6314    0.0000 O   0  0  0  0  0  0  0  0  0  0  0  0
    4.8663   -1.0651    0.0000 C   0  0  0  0  0  0  0  0  0  0  0  0
    3.4398   -1.5286    0.0000 C   0  0  0  0  0  0  0  0  0  0  0  0
    1.9725   -1.2168    0.0000 C   0  0  0  0  0  0  0  0  0  0  0  0
    1.2916   -2.5533    0.0000 O   0  0  0  0  0  0  0  0  0  0  0  0
    0.8578   -0.2131    0.0000 O   0  0  0  0  0  0  0  0  0  0  0  0
    0.3943    1.2135    0.0000 C   0  0  0  0  0  0  0  0  0  0  0  0
   -0.0880    1.4842    0.0000 C   0  0  0  0  0  0  0  0  0  0  0  0
    2.7760    0.0000    0.0000 O   0  0  0  0  0  0  0  0  0  0  0  0
   -0.2546    0.7837    0.0000 N   0  0  0  0  0  0  0  0  0  0  0  0
   -0.8013    1.2525    0.0000 C   0  0  0  0  0  0  0  0  0  0  0  0
   -2.2458   -1.6317    0.0000 C   0  0  0  0  0  0  0  0  0  0  0  0
   -2.0890   -3.1235    0.0000 C   0  0  0  0  0  0  0  0  0  0  0  0
   -3.3025   -4.0051    0.0000 C   0  0  0  0  0  0  0  0  0  0  0  0
   -0.7187   -3.7336    0.0000 C   0  0  0  0  0  0  0  0  0  0  0  0
   -1.0323    0.7500    0.0000 C   0  0  0  0  0  0  0  0  0  0  0  0
   -2.1470    1.7537    0.0000 C   0  0  0  0  0  0  0  0  0  0  0  0
   -3.5736    1.2902    0.0000 C   0  0  0  0  0  0  0  0  0  0  0  0
  1  2  1  0
  2  3  2  0
  4  3  1  1
  4  5  1  0
  5  6  2  0
  6  7  1  0
  6  8  1  0
  8  9  1  0
  9 10  1  0
 10 11  1  6
 10 12  1  0
 12 13  1  6
 12 14  1  0
 14 15  2  0
 15 16  1  0
 16 17  2  0
 16 18  1  0
 19 18  1  6
 19 20  1  0
 20 21  2  0
 20 22  1  0
 22 23  1  0
 23 24  1  1
 24 25  1  0
 25 26  1  0
 25 27  1  0
 28 23  1  6
 28 29  1  0
 29 30  1  6
 29  2  1  0
 19  4  1  0
 28 19  1  0
M  END
>  <Compound_ID>  (552) 
C14857367

>  <Active>  (552) 
0.0

>  <Smiles>  (552) 
CC1=C[C@H]2/C=C(\C)CC[C@H](O)[C@H](O)/C=C/C(=O)O[C@]23C(=O)N[C@H](CC(C)C)[C@@H]3[C@@H]1C

>  <canonical_smi>  (552) 
CC1=C[C@H]2/C=C(\C)CC[C@H](O)[C@H](O)/C=C/C(=O)O[C@]23C(=O)N[C@H](CC(C)C)[C@@H]3[C@@H]1C

>  <Set>  (552) 
G2 inactive

>  <Set_type>  (552) 
Train

>  <MW>  (552) 
417.55

>  <HBD>  (552) 
3

>  <HBA>  (552) 
5

>  <NRB>  (552) 
2

>  <NR>  (552) 
3

>  <NAR>  (552) 
0

>  <PSA>  (552) 
95.86

>  <Standard Type>  (552) 
nan

>  <Standard Relation>  (552) 
nan

>  <Standard Units>  (552) 
nan

>  <Standard Value>  (552) 
nan

>  <Assay ChEMBL ID>  (552) 
nan

>  <Assay Description>  (552) 
nan

>  <BAO Label>  (552) 
nan

$$$$

     RDKit          2D

 32 36  0  0  0  0  0  0  0  0999 V2000
    5.8763   -2.9335    0.0000 C   0  0  0  0  0  0  0  0  0  0  0  0
    4.8726   -1.8188    0.0000 C   0  0  0  0  0  0  0  0  0  0  0  0
    3.4054   -2.1306    0.0000 O   0  0  0  0  0  0  0  0  0  0  0  0
    5.3361   -0.3922    0.0000 O   0  0  0  0  0  0  0  0  0  0  0  0
    4.3324    0.7225    0.0000 C   0  0  0  0  0  0  0  0  0  0  0  0
    2.8652    0.4107    0.0000 C   0  0  0  0  0  0  0  0  0  0  0  0
    1.8615    1.5254    0.0000 C   0  0  0  0  0  0  0  0  0  0  0  0
    3.3287    1.8373    0.0000 C   0  0  0  0  0  0  0  0  0  0  0  0
    2.3250    2.9520    0.0000 C   0  0  0  0  0  0  0  0  0  0  0  0
    1.3213    4.0667    0.0000 C   0  0  0  0  0  0  0  0  0  0  0  0
   -0.1459    3.7548    0.0000 C   0  0  0  0  0  0  0  0  0  0  0  0
   -0.6094    2.3282    0.0000 C   0  0  0  0  0  0  0  0  0  0  0  0
   -2.0766    2.0164    0.0000 C   0  0  0  0  0  0  0  0  0  0  0  0
    0.3943    1.2135    0.0000 C   0  0  0  0  0  0  0  0  0  0  0  0
    1.2760    0.0000    0.0000 C   0  0  0  0  0  0  0  0  0  0  0  0
    0.3943   -1.2135    0.0000 C   0  0  0  0  0  0  0  0  0  0  0  0
   -1.0323   -0.7500    0.0000 C   0  0  0  0  0  0  0  0  0  0  0  0
   -2.1470   -1.7537    0.0000 C   0  0  0  0  0  0  0  0  0  0  0  0
   -1.8351   -3.2209    0.0000 C   0  0  0  0  0  0  0  0  0  0  0  0
   -0.4086   -3.6844    0.0000 C   0  0  0  0  0  0  0  0  0  0  0  0
    0.7062   -2.6807    0.0000 C   0  0  0  0  0  0  0  0  0  0  0  0
    2.1328   -3.1443    0.0000 O   0  0  0  0  0  0  0  0  0  0  0  0
   -0.4086   -5.1844    0.0000 C   0  0  0  0  0  0  0  0  0  0  0  0
    0.8050   -6.0661    0.0000 O   0  0  0  0  0  0  0  0  0  0  0  0
   -1.8351   -5.6480    0.0000 O   0  0  0  0  0  0  0  0  0  0  0  0
   -2.7168   -4.4344    0.0000 C   0  0  0  0  0  0  0  0  0  0  0  0
   -1.0323    0.7500    0.0000 O   0  0  0  0  0  0  0  0  0  0  0  0
    3.7923    3.2638    0.0000 C   0  0  0  0  0  0  0  0  0  0  0  0
    3.2304    4.6546    0.0000 C   0  0  0  0  0  0  0  0  0  0  0  0
    5.0643    4.0587    0.0000 C   0  0  0  0  0  0  0  0  0  0  0  0
    4.7960    2.1491    0.0000 C   0  0  0  0  0  0  0  0  0  0  0  0
    6.2632    2.4610    0.0000 O   0  0  0  0  0  0  0  0  0  0  0  0
  1  2  1  0
  2  3  2  0
  2  4  1  0
  5  4  1  6
  5  6  1  0
  6  7  1  0
  7  8  1  1
  7  9  1  0
  9 10  1  6
 10 11  1  0
 11 12  1  0
 12 13  1  6
 12 14  1  0
 14 15  1  1
 15 16  1  0
 16 17  2  0
 17 18  1  0
 18 19  2  0
 19 20  1  0
 20 21  2  0
 21 22  1  0
 20 23  1  0
 23 24  1  6
 23 25  1  0
 25 26  1  0
 17 27  1  0
  9 28  1  0
 28 29  1  0
 28 30  1  0
 28 31  1  0
 31 32  1  6
 31  5  1  0
 14  7  1  0
 21 16  1  0
 27 14  1  0
 26 19  1  0
M  END
>  <Compound_ID>  (553) 
C39559914

>  <Active>  (553) 
0.0

>  <Smiles>  (553) 
CC(=O)O[C@@H]1C[C@@]2(C)[C@H](CC[C@@H](C)[C@]23Cc2c(cc4c(c2O)[C@H](O)OC4)O3)C(C)(C)[C@@H]1O

>  <canonical_smi>  (553) 
CC(=O)O[C@@H]1C[C@@]2(C)[C@H](CC[C@@H](C)[C@]23Cc2c(cc4c(c2O)[C@H](O)OC4)O3)C(C)(C)[C@@H]1O

>  <Set>  (553) 
G2 inactive

>  <Set_type>  (553) 
Train

>  <MW>  (553) 
446.54

>  <HBD>  (553) 
3

>  <HBA>  (553) 
7

>  <NRB>  (553) 
1

>  <NR>  (553) 
5

>  <NAR>  (553) 
1

>  <PSA>  (553) 
105.45

>  <Standard Type>  (553) 
nan

>  <Standard Relation>  (553) 
nan

>  <Standard Units>  (553) 
nan

>  <Standard Value>  (553) 
nan

>  <Assay ChEMBL ID>  (553) 
nan

>  <Assay Description>  (553) 
nan

>  <BAO Label>  (553) 
nan

$$$$

     RDKit          2D

 24 27  0  0  0  0  0  0  0  0999 V2000
    2.9940    0.2618    0.0000 C   0  0  0  0  0  0  0  0  0  0  0  0
    4.2930   -0.4882    0.0000 C   0  0  0  0  0  0  0  0  0  0  0  0
    5.5921    0.2618    0.0000 C   0  0  0  0  0  0  0  0  0  0  0  0
    6.8911   -0.4882    0.0000 C   0  0  0  0  0  0  0  0  0  0  0  0
    6.8911   -1.9882    0.0000 C   0  0  0  0  0  0  0  0  0  0  0  0
    5.5921   -2.7382    0.0000 C   0  0  0  0  0  0  0  0  0  0  0  0
    5.5921   -4.2382    0.0000 C   0  0  0  0  0  0  0  0  0  0  0  0
    6.8056   -5.1199    0.0000 N   0  0  0  0  0  0  0  0  0  0  0  0
    6.3421   -6.5465    0.0000 N   0  0  0  0  0  0  0  0  0  0  0  0
    4.8421   -6.5465    0.0000 C   0  0  0  0  0  0  0  0  0  0  0  0
    3.9604   -7.7600    0.0000 S   0  0  0  0  0  0  0  0  0  0  0  0
    4.3786   -5.1199    0.0000 N   0  0  0  0  0  0  0  0  0  0  0  0
    2.9520   -4.6564    0.0000 N   0  0  0  0  0  0  0  0  0  0  0  0
    2.6401   -3.1891    0.0000 C   0  0  0  0  0  0  0  0  0  0  0  0
    1.2135   -2.7256    0.0000 C   0  0  0  0  0  0  0  0  0  0  0  0
    0.7500   -1.2990    0.0000 C   0  0  0  0  0  0  0  0  0  0  0  0
    1.5000    0.0000    0.0000 C   0  0  0  0  0  0  0  0  0  0  0  0
    0.7500    1.2990    0.0000 C   0  0  0  0  0  0  0  0  0  0  0  0
   -0.7500    1.2990    0.0000 C   0  0  0  0  0  0  0  0  0  0  0  0
   -1.5000    0.0000    0.0000 C   0  0  0  0  0  0  0  0  0  0  0  0
   -0.7500   -1.2990    0.0000 C   0  0  0  0  0  0  0  0  0  0  0  0
   -1.2135   -2.7256    0.0000 N   0  0  0  0  0  4  0  0  0  0  0  0
    0.0000   -3.6073    0.0000 C   0  0  0  0  0  0  0  0  0  0  0  0
    4.2930   -1.9882    0.0000 C   0  0  0  0  0  0  0  0  0  0  0  0
  1  2  1  0
  2  3  2  0
  3  4  1  0
  4  5  2  0
  5  6  1  0
  7  6  1  6
  7  8  1  0
  8  9  1  0
  9 10  1  0
 10 11  1  1
 10 12  1  0
 12 13  1  0
 13 14  2  0
 14 15  1  0
 15 16  2  0
 16 17  1  0
 17 18  2  0
 18 19  1  0
 19 20  2  0
 20 21  1  0
 21 22  2  0
 22 23  1  0
  6 24  2  0
 24  2  1  0
 12  7  1  0
 23 15  1  0
 21 16  1  0
M  CHG  1  22   1
M  END
>  <Compound_ID>  (554) 
C39926579

>  <Active>  (554) 
0.0

>  <Smiles>  (554) 
Cc1cccc([C@@H]2NN[C@@H](S)N2/N=C/C2=c3ccccc3=[NH+]C2)c1

>  <canonical_smi>  (554) 
Cc1cccc([C@@H]2NN[C@@H](S)N2/N=C/C2=c3ccccc3=[NH+]C2)c1

>  <Set>  (554) 
G2 inactive

>  <Set_type>  (554) 
Train

>  <MW>  (554) 
338.46

>  <HBD>  (554) 
4

>  <HBA>  (554) 
3

>  <NRB>  (554) 
3

>  <NR>  (554) 
4

>  <NAR>  (554) 
2

>  <PSA>  (554) 
53.63

>  <Standard Type>  (554) 
nan

>  <Standard Relation>  (554) 
nan

>  <Standard Units>  (554) 
nan

>  <Standard Value>  (554) 
nan

>  <Assay ChEMBL ID>  (554) 
nan

>  <Assay Description>  (554) 
nan

>  <BAO Label>  (554) 
nan

$$$$

     RDKit          2D

 19 21  0  0  0  0  0  0  0  0999 V2000
   -1.5000   -5.1962    0.0000 N   0  0  0  0  0  0  0  0  0  0  0  0
   -0.7500   -3.8971    0.0000 C   0  0  0  0  0  0  0  0  0  0  0  0
    0.7500   -3.8971    0.0000 C   0  0  0  0  0  0  0  0  0  0  0  0
    1.5000   -2.5981    0.0000 N   0  0  0  0  0  4  0  0  0  0  0  0
    0.7500   -1.2990    0.0000 C   0  0  0  0  0  0  0  0  0  0  0  0
    1.5000    0.0000    0.0000 C   0  0  0  0  0  0  0  0  0  0  0  0
    0.7500    1.2990    0.0000 C   0  0  0  0  0  0  0  0  0  0  0  0
   -0.7500    1.2990    0.0000 C   0  0  0  0  0  0  0  0  0  0  0  0
   -1.5000    2.5981    0.0000 Br  0  0  0  0  0  0  0  0  0  0  0  0
   -1.5000    0.0000    0.0000 C   0  0  0  0  0  0  0  0  0  0  0  0
   -0.7500   -1.2990    0.0000 C   0  0  0  0  0  0  0  0  0  0  0  0
   -1.5000   -2.5981    0.0000 C   0  0  0  0  0  0  0  0  0  0  0  0
   -3.0000   -2.5981    0.0000 N   0  0  0  0  0  0  0  0  0  0  0  0
   -3.7500   -1.2990    0.0000 C   0  0  0  0  0  0  0  0  0  0  0  0
   -5.2500   -1.2990    0.0000 C   0  0  0  0  0  0  0  0  0  0  0  0
   -6.0000   -2.5981    0.0000 S   0  0  0  0  0  0  0  0  0  0  0  0
   -7.5000   -2.5981    0.0000 O   0  0  0  0  0  0  0  0  0  0  0  0
   -5.2500   -3.8971    0.0000 C   0  0  0  0  0  0  0  0  0  0  0  0
   -3.7500   -3.8971    0.0000 C   0  0  0  0  0  0  0  0  0  0  0  0
  1  2  1  0
  2  3  2  0
  3  4  1  0
  4  5  2  0
  5  6  1  0
  6  7  2  0
  7  8  1  0
  8  9  1  0
  8 10  2  0
 10 11  1  0
 11 12  2  0
 12 13  1  0
 13 14  1  0
 14 15  1  0
 15 16  1  0
 16 17  2  0
 16 18  1  0
 18 19  1  0
 12  2  1  0
 19 13  1  0
 11  5  1  0
M  CHG  1   4   1
M  END
>  <Compound_ID>  (555) 
C49692552

>  <Active>  (555) 
0.0

>  <Smiles>  (555) 
Nc1c[nH+]c2ccc(Br)cc2c1N1CCS(=O)CC1

>  <canonical_smi>  (555) 
Nc1c[nH+]c2ccc(Br)cc2c1N1CCS(=O)CC1

>  <Set>  (555) 
G2 inactive

>  <Set_type>  (555) 
Train

>  <MW>  (555) 
341.25

>  <HBD>  (555) 
1

>  <HBA>  (555) 
3

>  <NRB>  (555) 
1

>  <NR>  (555) 
3

>  <NAR>  (555) 
2

>  <PSA>  (555) 
60.47

>  <Standard Type>  (555) 
nan

>  <Standard Relation>  (555) 
nan

>  <Standard Units>  (555) 
nan

>  <Standard Value>  (555) 
nan

>  <Assay ChEMBL ID>  (555) 
nan

>  <Assay Description>  (555) 
nan

>  <BAO Label>  (555) 
nan

$$$$

     RDKit          2D

 25 29  0  0  0  0  0  0  0  0999 V2000
    2.5434    3.2335    0.0000 C   0  0  0  0  0  0  0  0  0  0  0  0
    2.5434    4.7335    0.0000 C   0  0  0  0  0  0  0  0  0  0  0  0
    3.7570    5.6152    0.0000 N   0  0  0  0  0  0  0  0  0  0  0  0
    3.2934    7.0418    0.0000 C   0  0  0  0  0  0  0  0  0  0  0  0
    4.0434    8.3408    0.0000 C   0  0  0  0  0  0  0  0  0  0  0  0
    3.2934    9.6399    0.0000 C   0  0  0  0  0  0  0  0  0  0  0  0
    1.7934    9.6399    0.0000 C   0  0  0  0  0  0  0  0  0  0  0  0
    1.0434   10.9389    0.0000 Cl  0  0  0  0  0  0  0  0  0  0  0  0
    1.0434    8.3408    0.0000 C   0  0  0  0  0  0  0  0  0  0  0  0
    1.7934    7.0418    0.0000 N   0  0  0  0  0  0  0  0  0  0  0  0
    1.3299    5.6152    0.0000 C   0  0  0  0  0  0  0  0  0  0  0  0
   -0.0967    5.1517    0.0000 C   0  0  0  0  0  0  0  0  0  0  0  0
   -1.2114    6.1554    0.0000 C   0  0  0  0  0  0  0  0  0  0  0  0
   -2.6380    5.6918    0.0000 C   0  0  0  0  0  0  0  0  0  0  0  0
   -3.7527    6.6955    0.0000 O   0  0  0  0  0  0  0  0  0  0  0  0
   -2.9499    4.2246    0.0000 N   0  0  0  0  0  0  0  0  0  0  0  0
   -1.8351    3.2209    0.0000 C   0  0  0  0  0  0  0  0  0  0  0  0
   -2.1470    1.7537    0.0000 C   0  0  0  0  0  0  0  0  0  0  0  0
   -1.0323    0.7500    0.0000 C   0  0  0  0  0  0  0  0  0  0  0  0
    0.3943    1.2135    0.0000 C   0  0  0  0  0  0  0  0  0  0  0  0
    0.7062    2.6807    0.0000 C   0  0  0  0  0  0  0  0  0  0  0  0
   -0.4086    3.6844    0.0000 C   0  0  0  0  0  0  0  0  0  0  0  0
    1.2760    0.0000    0.0000 C   0  0  0  0  0  0  0  0  0  0  0  0
    0.3943   -1.2135    0.0000 N   0  0  0  0  0  4  0  0  0  0  0  0
   -1.0323   -0.7500    0.0000 N   0  0  0  0  0  0  0  0  0  0  0  0
  2  1  1  1
  2  3  1  0
  4  3  1  6
  4  5  1  0
  5  6  2  0
  6  7  1  0
  7  8  1  0
  7  9  2  0
  9 10  1  0
 11 10  1  6
 11 12  1  0
 12 13  1  1
 13 14  1  0
 14 15  2  0
 14 16  1  0
 16 17  1  0
 17 18  2  0
 18 19  1  0
 19 20  2  0
 20 21  1  0
 21 22  2  0
 20 23  1  0
 23 24  1  0
 24 25  2  0
 11  2  1  0
 22 12  1  0
 10  4  1  0
 22 17  1  0
 25 19  1  0
M  CHG  1  24   1
M  END
>  <Compound_ID>  (556) 
C65394091

>  <Active>  (556) 
0.0

>  <Smiles>  (556) 
C[C@@H]1N[C@H]2C=CC(Cl)=CN2[C@H]1[C@@H]1CC(=O)Nc2cc3c(cc21)C[NH+]=N3

>  <canonical_smi>  (556) 
C[C@@H]1N[C@H]2C=CC(Cl)=CN2[C@H]1[C@@H]1CC(=O)Nc2cc3c(cc21)C[NH+]=N3

>  <Set>  (556) 
G2 inactive

>  <Set_type>  (556) 
Train

>  <MW>  (556) 
356.84

>  <HBD>  (556) 
3

>  <HBA>  (556) 
3

>  <NRB>  (556) 
1

>  <NR>  (556) 
5

>  <NAR>  (556) 
1

>  <PSA>  (556) 
70.7

>  <Standard Type>  (556) 
nan

>  <Standard Relation>  (556) 
nan

>  <Standard Units>  (556) 
nan

>  <Standard Value>  (556) 
nan

>  <Assay ChEMBL ID>  (556) 
nan

>  <Assay Description>  (556) 
nan

>  <BAO Label>  (556) 
nan

$$$$

     RDKit          2D

 24 24  0  0  0  0  0  0  0  0999 V2000
    2.7760    0.0000    0.0000 C   0  0  0  0  0  0  0  0  0  0  0  0
    1.2760    0.0000    0.0000 N   0  0  0  0  0  0  0  0  0  0  0  0
    0.3943    1.2135    0.0000 N   0  0  0  0  0  0  0  0  0  0  0  0
   -1.0323    0.7500    0.0000 C   0  0  0  0  0  0  0  0  0  0  0  0
   -2.2458    1.6317    0.0000 C   0  0  0  0  0  0  0  0  0  0  0  0
   -3.4593    2.5134    0.0000 C   0  0  0  0  0  0  0  0  0  0  0  0
   -4.6729    3.3950    0.0000 C   0  0  0  0  0  0  0  0  0  0  0  0
   -5.5545    2.1815    0.0000 C   0  0  0  0  0  0  0  0  0  0  0  0
   -3.7912    4.6086    0.0000 C   0  0  0  0  0  0  0  0  0  0  0  0
   -5.8864    4.2767    0.0000 O   0  0  0  0  0  0  0  0  0  0  0  0
   -1.0323   -0.7500    0.0000 C   0  0  0  0  0  0  0  0  0  0  0  0
   -2.2458   -1.6317    0.0000 C   0  0  0  0  0  0  0  0  0  0  0  0
   -3.4593   -2.5134    0.0000 C   0  0  0  0  0  0  0  0  0  0  0  0
   -4.6729   -3.3950    0.0000 C   0  0  0  0  0  0  0  0  0  0  0  0
   -3.7912   -4.6086    0.0000 C   0  0  0  0  0  0  0  0  0  0  0  0
   -5.5545   -2.1815    0.0000 C   0  0  0  0  0  0  0  0  0  0  0  0
   -5.8864   -4.2767    0.0000 O   0  0  0  0  0  0  0  0  0  0  0  0
    0.3943   -1.2135    0.0000 C   0  0  0  0  0  0  0  0  0  0  0  0
    0.8578   -2.6401    0.0000 C   0  0  0  0  0  0  0  0  0  0  0  0
    1.3213   -4.0667    0.0000 C   0  0  0  0  0  0  0  0  0  0  0  0
    1.7849   -5.4933    0.0000 C   0  0  0  0  0  0  0  0  0  0  0  0
    0.3583   -5.9568    0.0000 C   0  0  0  0  0  0  0  0  0  0  0  0
    3.2115   -5.0298    0.0000 C   0  0  0  0  0  0  0  0  0  0  0  0
    2.2484   -6.9199    0.0000 O   0  0  0  0  0  0  0  0  0  0  0  0
  1  2  1  0
  2  3  1  0
  3  4  2  0
  4  5  1  0
  5  6  3  0
  6  7  1  0
  7  8  1  0
  7  9  1  0
  7 10  1  0
  4 11  1  0
 11 12  1  0
 12 13  3  0
 13 14  1  0
 14 15  1  0
 14 16  1  0
 14 17  1  0
 11 18  2  0
 18 19  1  0
 19 20  3  0
 20 21  1  0
 21 22  1  0
 21 23  1  0
 21 24  1  0
 18  2  1  0
M  END
>  <Compound_ID>  (557) 
C04016857

>  <Active>  (557) 
0.0

>  <Smiles>  (557) 
Cn1nc(C#CC(C)(C)O)c(C#CC(C)(C)O)c1C#CC(C)(C)O

>  <canonical_smi>  (557) 
Cn1nc(C#CC(C)(C)O)c(C#CC(C)(C)O)c1C#CC(C)(C)O

>  <Set>  (557) 
G2 inactive

>  <Set_type>  (557) 
Train

>  <MW>  (557) 
328.41

>  <HBD>  (557) 
3

>  <HBA>  (557) 
4

>  <NRB>  (557) 
0

>  <NR>  (557) 
1

>  <NAR>  (557) 
1

>  <PSA>  (557) 
78.51

>  <Standard Type>  (557) 
nan

>  <Standard Relation>  (557) 
nan

>  <Standard Units>  (557) 
nan

>  <Standard Value>  (557) 
nan

>  <Assay ChEMBL ID>  (557) 
nan

>  <Assay Description>  (557) 
nan

>  <BAO Label>  (557) 
nan

$$$$

     RDKit          2D

 20 25  0  0  0  0  0  0  0  0999 V2000
   -8.2952    3.2291    0.0000 N   0  0  0  0  0  0  0  0  0  0  0  0
   -6.9249    2.6190    0.0000 C   0  0  0  0  0  0  0  0  0  0  0  0
   -6.7681    1.1272    0.0000 S   0  0  0  0  0  0  0  0  0  0  0  0
   -5.7113    3.5007    0.0000 N   0  0  0  0  0  0  0  0  0  0  0  0
   -4.3410    2.8906    0.0000 N   0  0  0  0  0  0  0  0  0  0  0  0
   -3.1275    3.7723    0.0000 C   0  0  0  0  0  0  0  0  0  0  0  0
   -3.1275    5.2723    0.0000 C   0  0  0  0  0  0  0  0  0  0  0  0
   -1.7009    5.7358    0.0000 C   0  0  0  0  0  0  0  0  0  0  0  0
   -0.2009    5.7358    0.0000 C   0  0  0  0  0  0  0  0  0  0  0  0
    1.8209    3.1771    0.0000 C   0  0  0  0  0  0  0  0  0  0  0  0
    0.3943    3.6406    0.0000 C   0  0  0  0  0  0  0  0  0  0  0  0
   -0.8192    4.5223    0.0000 C   0  0  0  0  0  0  0  0  0  0  0  0
   -1.7009    3.3087    0.0000 C   0  0  0  0  0  0  0  0  0  0  0  0
   -0.4874    2.4271    0.0000 C   0  0  0  0  0  0  0  0  0  0  0  0
    0.3943    1.2135    0.0000 C   0  0  0  0  0  0  0  0  0  0  0  0
    1.2760    0.0000    0.0000 O   0  0  0  0  0  0  0  0  0  0  0  0
    0.3943   -1.2135    0.0000 C   0  0  0  0  0  0  0  0  0  0  0  0
   -1.0323   -0.7500    0.0000 C   0  0  0  0  0  0  0  0  0  0  0  0
   -1.0323    0.7500    0.0000 O   0  0  0  0  0  0  0  0  0  0  0  0
    1.8209    1.6771    0.0000 C   0  0  0  0  0  0  0  0  0  0  0  0
  1  2  1  0
  2  3  2  0
  2  4  1  0
  4  5  1  0
  5  6  2  0
  7  6  1  6
  7  8  1  0
  8  9  1  1
 10  9  1  1
 10 11  1  0
 11 12  1  0
 12 13  1  1
 13 14  1  0
 14 15  1  1
 15 16  1  0
 16 17  1  0
 17 18  1  0
 18 19  1  0
 20 15  1  6
 13  6  1  1
 19 15  1  0
 20  7  1  0
 12  8  1  0
 20 10  1  0
 11 14  1  1
M  END
>  <Compound_ID>  (558) 
C36385541

>  <Active>  (558) 
0.0

>  <Smiles>  (558) 
NC(=S)N/N=C1\[C@@H]2[C@H]3C[C@@H]4[C@@H]5[C@H]3[C@H]1[C@@H]5C1(OCCO1)[C@@H]42

>  <canonical_smi>  (558) 
NC(=S)N/N=C1/[C@H]2[C@H]3[C@@H]4C[C@H]5[C@@H]([C@H]14)C1(OCCO1)[C@@H]2[C@@H]35

>  <Set>  (558) 
G2 inactive

>  <Set_type>  (558) 
Train

>  <MW>  (558) 
291.38

>  <HBD>  (558) 
2

>  <HBA>  (558) 
5

>  <NRB>  (558) 
1

>  <NR>  (558) 
6

>  <NAR>  (558) 
0

>  <PSA>  (558) 
68.87

>  <Standard Type>  (558) 
nan

>  <Standard Relation>  (558) 
nan

>  <Standard Units>  (558) 
nan

>  <Standard Value>  (558) 
nan

>  <Assay ChEMBL ID>  (558) 
nan

>  <Assay Description>  (558) 
nan

>  <BAO Label>  (558) 
nan

$$$$

     RDKit          2D

 20 22  0  0  0  0  0  0  0  0999 V2000
    3.0000   -1.5000    0.0000 C   0  0  0  0  0  0  0  0  0  0  0  0
    3.0000    0.0000    0.0000 C   0  0  0  0  0  0  0  0  0  0  0  0
    3.0000    1.5000    0.0000 C   0  0  0  0  0  0  0  0  0  0  0  0
    4.5000    0.0000    0.0000 C   0  0  0  0  0  0  0  0  0  0  0  0
    1.5000    0.0000    0.0000 C   0  0  0  0  0  0  0  0  0  0  0  0
    0.7500   -1.2990    0.0000 C   0  0  0  0  0  0  0  0  0  0  0  0
   -0.7500   -1.2990    0.0000 C   0  0  0  0  0  0  0  0  0  0  0  0
   -1.5000    0.0000    0.0000 C   0  0  0  0  0  0  0  0  0  0  0  0
   -2.9672    0.3119    0.0000 C   0  0  0  0  0  0  0  0  0  0  0  0
   -4.1807   -0.5698    0.0000 C   0  0  0  0  0  0  0  0  0  0  0  0
   -4.0240   -2.0616    0.0000 O   0  0  0  0  0  0  0  0  0  0  0  0
   -5.5511    0.0403    0.0000 N   0  0  0  0  0  0  0  0  0  0  0  0
   -5.7079    1.5321    0.0000 C   0  0  0  0  0  0  0  0  0  0  0  0
   -7.0782    2.1422    0.0000 N   0  0  0  0  0  2  0  0  0  0  0  0
   -7.2350    3.6340    0.0000 N   0  0  0  0  0  4  0  0  0  0  0  0
   -4.4943    2.4138    0.0000 N   0  0  0  0  0  0  0  0  0  0  0  0
   -3.1240    1.8037    0.0000 C   0  0  0  0  0  0  0  0  0  0  0  0
   -1.7537    2.4138    0.0000 S   0  0  0  0  0  0  0  0  0  0  0  0
   -0.7500    1.2990    0.0000 C   0  0  0  0  0  0  0  0  0  0  0  0
    0.7500    1.2990    0.0000 C   0  0  0  0  0  0  0  0  0  0  0  0
  1  2  1  0
  2  3  1  0
  2  4  1  0
  5  2  1  1
  5  6  1  0
  6  7  1  0
  7  8  1  0
  8  9  2  0
  9 10  1  0
 10 11  2  0
 10 12  1  0
 12 13  2  0
 13 14  1  0
 14 15  1  0
 13 16  1  0
 16 17  2  0
 17 18  1  0
 18 19  1  0
 19 20  1  1
 20  5  1  0
 19  8  1  0
 17  9  1  0
M  CHG  2  14  -1  15   1
M  END
>  <Compound_ID>  (559) 
C38592681

>  <Active>  (559) 
0.0

>  <Smiles>  (559) 
CC(C)(C)[C@H]1CCC2=C3C(=O)N=C([N-][NH3+])N=C3S[C@H]2C1

>  <canonical_smi>  (559) 
CC(C)(C)[C@H]1CCC2=C3C(=O)N=C([N-][NH3+])N=C3S[C@H]2C1

>  <Set>  (559) 
G2 inactive

>  <Set_type>  (559) 
Train

>  <MW>  (559) 
292.41

>  <HBD>  (559) 
1

>  <HBA>  (559) 
2

>  <NRB>  (559) 
0

>  <NR>  (559) 
3

>  <NAR>  (559) 
0

>  <PSA>  (559) 
83.53

>  <Standard Type>  (559) 
nan

>  <Standard Relation>  (559) 
nan

>  <Standard Units>  (559) 
nan

>  <Standard Value>  (559) 
nan

>  <Assay ChEMBL ID>  (559) 
nan

>  <Assay Description>  (559) 
nan

>  <BAO Label>  (559) 
nan

$$$$

     RDKit          2D

 20 22  0  0  0  0  0  0  0  0999 V2000
    0.8029   11.3628    0.0000 C   0  0  0  0  0  0  0  0  0  0  0  0
   -0.0788   10.1493    0.0000 C   0  0  0  0  0  0  0  0  0  0  0  0
   -0.9605    8.9357    0.0000 C   0  0  0  0  0  0  0  0  0  0  0  0
   -0.3504    7.5654    0.0000 N   0  0  0  0  0  0  0  0  0  0  0  0
   -1.1004    6.2664    0.0000 C   0  0  0  0  0  0  0  0  0  0  0  0
   -2.5922    6.1096    0.0000 N   0  0  0  0  0  4  0  0  0  0  0  0
   -0.0967    5.1517    0.0000 C   0  0  0  0  0  0  0  0  0  0  0  0
   -0.4086    3.6844    0.0000 C   0  0  0  0  0  0  0  0  0  0  0  0
   -1.8351    3.2209    0.0000 C   0  0  0  0  0  0  0  0  0  0  0  0
   -2.1470    1.7537    0.0000 C   0  0  0  0  0  0  0  0  0  0  0  0
   -3.5736    1.2902    0.0000 Cl  0  0  0  0  0  0  0  0  0  0  0  0
   -1.0323    0.7500    0.0000 C   0  0  0  0  0  0  0  0  0  0  0  0
    0.3943    1.2135    0.0000 C   0  0  0  0  0  0  0  0  0  0  0  0
    0.7062    2.6807    0.0000 C   0  0  0  0  0  0  0  0  0  0  0  0
    1.2760    0.0000    0.0000 O   0  0  0  0  0  0  0  0  0  0  0  0
    0.3943   -1.2135    0.0000 C   0  0  0  0  0  0  0  0  0  0  0  0
   -1.0323   -0.7500    0.0000 O   0  0  0  0  0  0  0  0  0  0  0  0
    1.2736    5.7618    0.0000 N   0  0  0  0  0  4  0  0  0  0  0  0
    1.1168    7.2536    0.0000 C   0  0  0  0  0  0  0  0  0  0  0  0
    2.2316    8.2572    0.0000 C   0  0  0  0  0  0  0  0  0  0  0  0
  1  2  3  0
  2  3  1  0
  3  4  1  0
  4  5  1  0
  5  6  2  0
  5  7  1  0
  7  8  1  6
  8  9  2  0
  9 10  1  0
 10 11  1  0
 10 12  2  0
 12 13  1  0
 13 14  2  0
 13 15  1  0
 15 16  1  0
 16 17  1  0
  7 18  1  0
 18 19  2  0
 19 20  1  0
 19  4  1  0
 14  8  1  0
 17 12  1  0
M  CHG  2   6   1  18   1
M  END
>  <Compound_ID>  (560) 
C50987906

>  <Active>  (560) 
0.0

>  <Smiles>  (560) 
C#CCN1C(=[NH2+])[C@@H](c2cc(Cl)c3c(c2)OCO3)[NH+]=C1C

>  <canonical_smi>  (560) 
C#CCN1C(=[NH2+])[C@@H](c2cc(Cl)c3c(c2)OCO3)[NH+]=C1C

>  <Set>  (560) 
G2 inactive

>  <Set_type>  (560) 
Train

>  <MW>  (560) 
291.74

>  <HBD>  (560) 
2

>  <HBA>  (560) 
3

>  <NRB>  (560) 
2

>  <NR>  (560) 
3

>  <NAR>  (560) 
1

>  <PSA>  (560) 
61.26

>  <Standard Type>  (560) 
nan

>  <Standard Relation>  (560) 
nan

>  <Standard Units>  (560) 
nan

>  <Standard Value>  (560) 
nan

>  <Assay ChEMBL ID>  (560) 
nan

>  <Assay Description>  (560) 
nan

>  <BAO Label>  (560) 
nan

$$$$

     RDKit          2D

 18 19  0  0  0  0  0  0  0  0999 V2000
   -0.5773   -4.2803    0.0000 C   0  0  0  0  0  0  0  0  0  0  0  0
    0.8899   -3.9684    0.0000 N   0  0  0  0  0  0  0  0  0  0  0  0
    2.0046   -4.9721    0.0000 N   0  0  0  0  0  0  0  0  0  0  0  0
    3.3037   -4.2221    0.0000 C   0  0  0  0  0  0  0  0  0  0  0  0
    4.6740   -4.8322    0.0000 C   0  0  0  0  0  0  0  0  0  0  0  0
    4.0639   -6.2025    0.0000 C   0  0  0  0  0  0  0  0  0  0  0  0
    5.2841   -3.4619    0.0000 C   0  0  0  0  0  0  0  0  0  0  0  0
    6.0443   -5.4423    0.0000 C   0  0  0  0  0  0  0  0  0  0  0  0
    2.9918   -2.7549    0.0000 N   0  0  0  0  0  0  0  0  0  0  0  0
    1.5000   -2.5981    0.0000 C   0  0  0  0  0  0  0  0  0  0  0  0
    0.7500   -1.2990    0.0000 C   0  0  0  0  0  0  0  0  0  0  0  0
    1.5000    0.0000    0.0000 C   0  0  0  0  0  0  0  0  0  0  0  0
    0.7500    1.2990    0.0000 C   0  0  0  0  0  0  0  0  0  0  0  0
    1.5000    2.5981    0.0000 Cl  0  0  0  0  0  0  0  0  0  0  0  0
   -0.7500    1.2990    0.0000 C   0  0  0  0  0  0  0  0  0  0  0  0
   -1.5000    0.0000    0.0000 C   0  0  0  0  0  0  0  0  0  0  0  0
   -0.7500   -1.2990    0.0000 C   0  0  0  0  0  0  0  0  0  0  0  0
   -1.5000   -2.5981    0.0000 N   0  0  0  0  0  0  0  0  0  0  0  0
  1  2  1  0
  2  3  1  0
  3  4  2  0
  4  5  1  0
  5  6  1  0
  5  7  1  0
  5  8  1  0
  4  9  1  0
  9 10  2  0
 10 11  1  0
 11 12  2  0
 12 13  1  0
 13 14  1  0
 13 15  2  0
 15 16  1  0
 16 17  2  0
 17 18  1  0
 10  2  1  0
 17 11  1  0
M  END
>  <Compound_ID>  (561) 
C54698653

>  <Active>  (561) 
0.0

>  <Smiles>  (561) 
Cn1nc(C(C)(C)C)nc1-c1cc(Cl)ccc1N

>  <canonical_smi>  (561) 
Cn1nc(C(C)(C)C)nc1-c1cc(Cl)ccc1N

>  <Set>  (561) 
G2 inactive

>  <Set_type>  (561) 
Train

>  <MW>  (561) 
264.76

>  <HBD>  (561) 
1

>  <HBA>  (561) 
3

>  <NRB>  (561) 
1

>  <NR>  (561) 
2

>  <NAR>  (561) 
2

>  <PSA>  (561) 
56.73

>  <Standard Type>  (561) 
nan

>  <Standard Relation>  (561) 
nan

>  <Standard Units>  (561) 
nan

>  <Standard Value>  (561) 
nan

>  <Assay ChEMBL ID>  (561) 
nan

>  <Assay Description>  (561) 
nan

>  <BAO Label>  (561) 
nan

$$$$

     RDKit          2D

 26 29  0  0  0  0  0  0  0  0999 V2000
   -2.6401   -3.1891    0.0000 O   0  0  0  0  0  0  0  0  0  0  0  0
   -1.2135   -2.7256    0.0000 C   0  0  0  0  0  0  0  0  0  0  0  0
   -0.0000   -3.6073    0.0000 O   0  0  0  0  0  0  0  0  0  0  0  0
    1.2135   -2.7256    0.0000 C   0  0  0  0  0  0  0  0  0  0  0  0
    2.6401   -3.1891    0.0000 C   0  0  0  0  0  0  0  0  0  0  0  0
    2.9520   -4.6564    0.0000 C   0  0  0  0  0  0  0  0  0  0  0  0
    1.8373   -5.6601    0.0000 O   0  0  0  0  0  1  0  0  0  0  0  0
    4.3786   -5.1199    0.0000 N   0  0  0  0  0  0  0  0  0  0  0  0
    4.6904   -6.5871    0.0000 C   0  0  0  0  0  0  0  0  0  0  0  0
    3.5757   -7.5908    0.0000 C   0  0  0  0  0  0  0  0  0  0  0  0
    3.8876   -9.0580    0.0000 C   0  0  0  0  0  0  0  0  0  0  0  0
    5.3142   -9.5216    0.0000 C   0  0  0  0  0  0  0  0  0  0  0  0
    5.6260  -10.9888    0.0000 Br  0  0  0  0  0  0  0  0  0  0  0  0
    6.4289   -8.5179    0.0000 C   0  0  0  0  0  0  0  0  0  0  0  0
    6.1170   -7.0506    0.0000 C   0  0  0  0  0  0  0  0  0  0  0  0
    5.4933   -4.1162    0.0000 C   0  0  0  0  0  0  0  0  0  0  0  0
    6.9199   -4.5797    0.0000 O   0  0  0  0  0  0  0  0  0  0  0  0
    5.1814   -2.6490    0.0000 N   0  0  0  0  0  0  0  0  0  0  0  0
    3.7548   -2.1855    0.0000 C   0  0  0  0  0  0  0  0  0  0  0  0
    3.4430   -0.7182    0.0000 O   0  0  0  0  0  0  0  0  0  0  0  0
    0.7500   -1.2990    0.0000 C   0  0  0  0  0  0  0  0  0  0  0  0
    1.5000    0.0000    0.0000 C   0  0  0  0  0  0  0  0  0  0  0  0
    0.7500    1.2990    0.0000 C   0  0  0  0  0  0  0  0  0  0  0  0
   -0.7500    1.2990    0.0000 C   0  0  0  0  0  0  0  0  0  0  0  0
   -1.5000    0.0000    0.0000 C   0  0  0  0  0  0  0  0  0  0  0  0
   -0.7500   -1.2990    0.0000 C   0  0  0  0  0  0  0  0  0  0  0  0
  1  2  2  0
  2  3  1  0
  3  4  1  0
  4  5  1  1
  5  6  2  0
  6  7  1  0
  6  8  1  0
  8  9  1  0
  9 10  2  0
 10 11  1  0
 11 12  2  0
 12 13  1  0
 12 14  1  0
 14 15  2  0
  8 16  1  0
 16 17  2  0
 16 18  1  0
 18 19  1  0
 19 20  2  0
  4 21  1  0
 21 22  2  0
 22 23  1  0
 23 24  2  0
 24 25  1  0
 25 26  2  0
 26  2  1  0
 19  5  1  0
 26 21  1  0
 15  9  1  0
M  CHG  1   7  -1
M  END
>  <Compound_ID>  (562) 
C17086539

>  <Active>  (562) 
0.0

>  <Smiles>  (562) 
O=C1O[C@H](c2c([O-])n(-c3ccc(Br)cc3)c(=O)[nH]c2=O)c2ccccc21

>  <canonical_smi>  (562) 
O=C1O[C@H](c2c([O-])n(-c3ccc(Br)cc3)c(=O)[nH]c2=O)c2ccccc21

>  <Set>  (562) 
G2 inactive

>  <Set_type>  (562) 
Train

>  <MW>  (562) 
414.19

>  <HBD>  (562) 
1

>  <HBA>  (562) 
5

>  <NRB>  (562) 
2

>  <NR>  (562) 
4

>  <NAR>  (562) 
3

>  <PSA>  (562) 
104.22

>  <Standard Type>  (562) 
nan

>  <Standard Relation>  (562) 
nan

>  <Standard Units>  (562) 
nan

>  <Standard Value>  (562) 
nan

>  <Assay ChEMBL ID>  (562) 
nan

>  <Assay Description>  (562) 
nan

>  <BAO Label>  (562) 
nan

$$$$

     RDKit          2D

 17 18  0  0  0  0  0  0  0  0999 V2000
   -5.2500   -6.4952    0.0000 C   0  0  0  0  0  0  0  0  0  0  0  0
   -3.7500   -6.4952    0.0000 C   0  0  0  0  0  0  0  0  0  0  0  0
   -3.0000   -5.1962    0.0000 C   0  0  0  0  0  0  0  0  0  0  0  0
   -1.5000   -5.1962    0.0000 N   0  0  0  0  0  0  0  0  0  0  0  0
   -0.7500   -3.8971    0.0000 C   0  0  0  0  0  0  0  0  0  0  0  0
    0.7500   -3.8971    0.0000 N   0  0  0  0  0  0  0  0  0  0  0  0
    1.5000   -2.5981    0.0000 S   0  0  0  0  0  0  0  0  0  0  0  0
    2.6491   -3.5623    0.0000 O   0  0  0  0  0  0  0  0  0  0  0  0
    2.6491   -1.6339    0.0000 O   0  0  0  0  0  0  0  0  0  0  0  0
    0.7500   -1.2990    0.0000 C   0  0  0  0  0  0  0  0  0  0  0  0
    1.5000    0.0000    0.0000 C   0  0  0  0  0  0  0  0  0  0  0  0
    0.7500    1.2990    0.0000 C   0  0  0  0  0  0  0  0  0  0  0  0
    1.5000    2.5981    0.0000 Br  0  0  0  0  0  0  0  0  0  0  0  0
   -0.7500    1.2990    0.0000 C   0  0  0  0  0  0  0  0  0  0  0  0
   -1.5000    0.0000    0.0000 C   0  0  0  0  0  0  0  0  0  0  0  0
   -0.7500   -1.2990    0.0000 C   0  0  0  0  0  0  0  0  0  0  0  0
   -1.5000   -2.5981    0.0000 N   0  0  0  0  0  0  0  0  0  0  0  0
  1  2  2  0
  2  3  1  0
  3  4  1  0
  4  5  1  0
  5  6  2  0
  6  7  1  0
  7  8  2  0
  7  9  2  0
  7 10  1  0
 10 11  2  0
 11 12  1  0
 12 13  1  0
 12 14  2  0
 14 15  1  0
 15 16  2  0
 16 17  1  0
 17  5  1  0
 16 10  1  0
M  END
>  <Compound_ID>  (563) 
C13524732

>  <Active>  (563) 
0.0

>  <Smiles>  (563) 
C=CCNC1=NS(=O)(=O)c2cc(Br)ccc2N1

>  <canonical_smi>  (563) 
C=CCNC1=NS(=O)(=O)c2cc(Br)ccc2N1

>  <Set>  (563) 
G2 inactive

>  <Set_type>  (563) 
Train

>  <MW>  (563) 
316.18

>  <HBD>  (563) 
2

>  <HBA>  (563) 
4

>  <NRB>  (563) 
2

>  <NR>  (563) 
2

>  <NAR>  (563) 
1

>  <PSA>  (563) 
70.56

>  <Standard Type>  (563) 
nan

>  <Standard Relation>  (563) 
nan

>  <Standard Units>  (563) 
nan

>  <Standard Value>  (563) 
nan

>  <Assay ChEMBL ID>  (563) 
nan

>  <Assay Description>  (563) 
nan

>  <BAO Label>  (563) 
nan

$$$$

     RDKit          2D

 22 24  0  0  0  0  0  0  0  0999 V2000
   -1.0344   -8.1310    0.0000 C   0  0  0  0  0  0  0  0  0  0  0  0
   -0.7225   -6.6638    0.0000 N   0  0  0  0  0  0  0  0  0  0  0  0
    0.7040   -6.2002    0.0000 C   0  0  0  0  0  0  0  0  0  0  0  0
   -1.8373   -5.6601    0.0000 S   0  0  0  0  0  0  0  0  0  0  0  0
   -2.8410   -6.7748    0.0000 O   0  0  0  0  0  0  0  0  0  0  0  0
   -0.8336   -4.5453    0.0000 O   0  0  0  0  0  0  0  0  0  0  0  0
   -2.9520   -4.6564    0.0000 C   0  0  0  0  0  0  0  0  0  0  0  0
   -4.3786   -5.1199    0.0000 C   0  0  0  0  0  0  0  0  0  0  0  0
   -5.4933   -4.1162    0.0000 C   0  0  0  0  0  0  0  0  0  0  0  0
   -6.9199   -4.5797    0.0000 N   0  0  0  0  0  0  0  0  0  0  0  0
   -5.1814   -2.6490    0.0000 C   0  0  0  0  0  0  0  0  0  0  0  0
   -3.7548   -2.1855    0.0000 C   0  0  0  0  0  0  0  0  0  0  0  0
   -2.6401   -3.1891    0.0000 C   0  0  0  0  0  0  0  0  0  0  0  0
   -1.2135   -2.7256    0.0000 N   0  0  0  0  0  0  0  0  0  0  0  0
   -0.0000   -3.6073    0.0000 C   0  0  0  0  0  0  0  0  0  0  0  0
    1.2135   -2.7256    0.0000 C   0  0  0  0  0  0  0  0  0  0  0  0
    0.7500   -1.2990    0.0000 C   0  0  0  0  0  0  0  0  0  0  0  0
    1.5000    0.0000    0.0000 C   0  0  0  0  0  0  0  0  0  0  0  0
    0.7500    1.2990    0.0000 C   0  0  0  0  0  0  0  0  0  0  0  0
   -0.7500    1.2990    0.0000 C   0  0  0  0  0  0  0  0  0  0  0  0
   -1.5000    0.0000    0.0000 C   0  0  0  0  0  0  0  0  0  0  0  0
   -0.7500   -1.2990    0.0000 C   0  0  0  0  0  0  0  0  0  0  0  0
  1  2  1  0
  2  3  1  0
  2  4  1  0
  4  5  2  0
  4  6  2  0
  4  7  1  0
  7  8  2  0
  8  9  1  0
  9 10  1  0
  9 11  2  0
 11 12  1  0
 12 13  2  0
 13 14  1  0
 14 15  1  0
 15 16  1  0
 16 17  1  0
 17 18  2  0
 18 19  1  0
 19 20  2  0
 20 21  1  0
 21 22  2  0
 13  7  1  0
 22 14  1  0
 22 17  1  0
M  END
>  <Compound_ID>  (564) 
C20262635

>  <Active>  (564) 
0.0

>  <Smiles>  (564) 
CN(C)S(=O)(=O)c1cc(N)ccc1N1CCc2ccccc21

>  <canonical_smi>  (564) 
CN(C)S(=O)(=O)c1cc(N)ccc1N1CCc2ccccc21

>  <Set>  (564) 
G2 inactive

>  <Set_type>  (564) 
Train

>  <MW>  (564) 
317.41

>  <HBD>  (564) 
1

>  <HBA>  (564) 
4

>  <NRB>  (564) 
3

>  <NR>  (564) 
3

>  <NAR>  (564) 
2

>  <PSA>  (564) 
66.64

>  <Standard Type>  (564) 
nan

>  <Standard Relation>  (564) 
nan

>  <Standard Units>  (564) 
nan

>  <Standard Value>  (564) 
nan

>  <Assay ChEMBL ID>  (564) 
nan

>  <Assay Description>  (564) 
nan

>  <BAO Label>  (564) 
nan

$$$$

     RDKit          2D

 27 30  0  0  0  0  0  0  0  0999 V2000
    1.1940  -11.2820    0.0000 C   0  0  0  0  0  0  0  0  0  0  0  0
    0.5839   -9.9117    0.0000 C   0  0  0  0  0  0  0  0  0  0  0  0
   -0.9079   -9.7549    0.0000 O   0  0  0  0  0  0  0  0  0  0  0  0
    1.4656   -8.6982    0.0000 O   0  0  0  0  0  0  0  0  0  0  0  0
    0.8555   -7.3279    0.0000 C   0  0  0  0  0  0  0  0  0  0  0  0
    1.7372   -6.1143    0.0000 C   0  0  0  0  0  0  0  0  0  0  0  0
    2.8519   -7.1180    0.0000 O   0  0  0  0  0  0  0  0  0  0  0  0
    0.4381   -5.3643    0.0000 C   0  0  0  0  0  0  0  0  0  0  0  0
    0.7500   -3.8971    0.0000 C   0  0  0  0  0  0  0  0  0  0  0  0
   -0.7500   -3.8971    0.0000 C   0  0  0  0  0  0  0  0  0  0  0  0
   -1.5000   -2.5981    0.0000 C   0  0  0  0  0  0  0  0  0  0  0  0
   -0.7500   -1.2990    0.0000 C   0  0  0  0  0  0  0  0  0  0  0  0
    0.7500   -1.2990    0.0000 C   0  0  0  0  0  0  0  0  0  0  0  0
    2.2500   -1.2990    0.0000 C   0  0  0  0  0  0  0  0  0  0  0  0
    1.5000    0.0000    0.0000 C   0  0  0  0  0  0  0  0  0  0  0  0
    0.7500    1.2990    0.0000 C   0  0  0  0  0  0  0  0  0  0  0  0
   -0.7500    1.2990    0.0000 C   0  0  0  0  0  0  0  0  0  0  0  0
   -1.5000    0.0000    0.0000 C   0  0  0  0  0  0  0  0  0  0  0  0
   -2.6491   -0.9642    0.0000 C   0  0  0  0  0  0  0  0  0  0  0  0
   -2.6491    0.9642    0.0000 C   0  0  0  0  0  0  0  0  0  0  0  0
   -4.0586    0.4512    0.0000 O   0  0  0  0  0  0  0  0  0  0  0  0
   -2.3886    2.4414    0.0000 O   0  0  0  0  0  1  0  0  0  0  0  0
    1.5000   -2.5981    0.0000 C   0  0  0  0  0  0  0  0  0  0  0  0
    3.0000   -2.5981    0.0000 C   0  0  0  0  0  0  0  0  0  0  0  0
    3.7500   -3.8971    0.0000 C   0  0  0  0  0  0  0  0  0  0  0  0
    3.0000   -5.1962    0.0000 C   0  0  0  0  0  0  0  0  0  0  0  0
    1.5000   -5.1962    0.0000 C   0  0  0  0  0  0  0  0  0  0  0  0
  1  2  1  0
  2  3  2  0
  2  4  1  0
  4  5  1  0
  5  6  1  0
  6  7  1  6
  6  8  1  0
  9  8  1  1
  9 10  1  0
 10 11  1  0
 12 11  1  1
 12 13  1  0
 13 14  1  1
 13 15  1  0
 15 16  1  0
 16 17  1  0
 17 18  1  0
 18 19  1  6
 18 20  1  0
 20 21  2  0
 20 22  1  0
 13 23  1  0
 23 24  1  6
 24 25  1  0
 26 25  1  1
 26 27  1  0
 26  6  1  0
 23  9  1  0
 27  9  1  0
 18 12  1  0
M  CHG  1  22  -1
M  END
>  <Compound_ID>  (565) 
C35458023

>  <Active>  (565) 
0.0

>  <Smiles>  (565) 
CC(=O)OC[C@@]1(O)C[C@@]23CC[C@@H]4[C@](C)(CCC[C@]4(C)C(=O)[O-])[C@@H]2CC[C@@H]1C3

>  <canonical_smi>  (565) 
CC(=O)OC[C@@]1(O)C[C@@]23CC[C@H]4[C@@](C)(C(=O)[O-])CCC[C@]4(C)[C@@H]2CC[C@@H]1C3

>  <Set>  (565) 
G2 inactive

>  <Set_type>  (565) 
Train

>  <MW>  (565) 
377.5

>  <HBD>  (565) 
1

>  <HBA>  (565) 
5

>  <NRB>  (565) 
3

>  <NR>  (565) 
4

>  <NAR>  (565) 
0

>  <PSA>  (565) 
86.66

>  <Standard Type>  (565) 
nan

>  <Standard Relation>  (565) 
nan

>  <Standard Units>  (565) 
nan

>  <Standard Value>  (565) 
nan

>  <Assay ChEMBL ID>  (565) 
nan

>  <Assay Description>  (565) 
nan

>  <BAO Label>  (565) 
nan

$$$$

     RDKit          2D

 18 19  0  0  0  0  0  0  0  0999 V2000
    3.0000    0.0000    0.0000 C   0  0  0  0  0  0  0  0  0  0  0  0
    1.5000    0.0000    0.0000 C   0  0  0  0  0  0  0  0  0  0  0  0
    0.7500   -1.2990    0.0000 C   0  0  0  0  0  0  0  0  0  0  0  0
   -0.7500   -1.2990    0.0000 C   0  0  0  0  0  0  0  0  0  0  0  0
   -0.4895   -2.7762    0.0000 C   0  0  0  0  0  0  0  0  0  0  0  0
   -2.1595   -1.8121    0.0000 C   0  0  0  0  0  0  0  0  0  0  0  0
   -1.5000    0.0000    0.0000 C   0  0  0  0  0  0  0  0  0  0  0  0
   -0.7500    1.2990    0.0000 C   0  0  0  0  0  0  0  0  0  0  0  0
    0.7500    1.2990    0.0000 C   0  0  0  0  0  0  0  0  0  0  0  0
   -2.2418    1.4558    0.0000 N   0  0  0  0  0  0  0  0  0  0  0  0
   -2.5537    2.9231    0.0000 C   0  0  0  0  0  0  0  0  0  0  0  0
   -3.9240    3.5332    0.0000 O   0  0  0  0  0  0  0  0  0  0  0  0
   -1.2546    3.6731    0.0000 N   0  0  0  0  0  0  0  0  0  0  0  0
   -1.0978    5.1648    0.0000 C   0  0  0  0  0  0  0  0  0  0  0  0
    0.3940    5.0080    0.0000 C   0  0  0  0  0  0  0  0  0  0  0  0
   -2.5896    5.3216    0.0000 C   0  0  0  0  0  0  0  0  0  0  0  0
   -0.9410    6.6566    0.0000 C   0  0  0  0  0  0  0  0  0  0  0  0
   -0.1399    2.6694    0.0000 N   0  0  0  0  0  0  0  0  0  0  0  0
  2  1  1  1
  2  3  1  0
  3  4  1  0
  4  5  1  0
  4  6  1  0
  4  7  1  0
  8  7  1  6
  8  9  1  0
  8 10  1  0
 10 11  1  0
 11 12  2  0
 11 13  1  0
 13 14  1  0
 14 15  1  0
 14 16  1  0
 14 17  1  0
 13 18  1  0
  9  2  1  0
 18  8  1  0
M  END
>  <Compound_ID>  (566) 
C09024269

>  <Active>  (566) 
0.0

>  <Smiles>  (566) 
C[C@H]1CC(C)(C)C[C@]2(C1)NC(=O)N(C(C)(C)C)N2

>  <canonical_smi>  (566) 
C[C@H]1CC(C)(C)C[C@]2(C1)NC(=O)N(C(C)(C)C)N2

>  <Set>  (566) 
G2 inactive

>  <Set_type>  (566) 
Train

>  <MW>  (566) 
253.39

>  <HBD>  (566) 
2

>  <HBA>  (566) 
2

>  <NRB>  (566) 
0

>  <NR>  (566) 
2

>  <NAR>  (566) 
0

>  <PSA>  (566) 
44.37

>  <Standard Type>  (566) 
nan

>  <Standard Relation>  (566) 
nan

>  <Standard Units>  (566) 
nan

>  <Standard Value>  (566) 
nan

>  <Assay ChEMBL ID>  (566) 
nan

>  <Assay Description>  (566) 
nan

>  <BAO Label>  (566) 
nan

$$$$

     RDKit          2D

 20 25  0  0  0  0  0  0  0  0999 V2000
   -6.6979    6.1290    0.0000 O   0  0  0  0  0  0  0  0  0  0  0  0
   -5.2307    5.8172    0.0000 N   0  0  0  0  0  0  0  0  0  0  0  0
   -4.7671    4.3906    0.0000 C   0  0  0  0  0  0  0  0  0  0  0  0
   -5.6488    3.1771    0.0000 C   0  0  0  0  0  0  0  0  0  0  0  0
   -4.7671    1.9635    0.0000 C   0  0  0  0  0  0  0  0  0  0  0  0
   -3.3405    2.4271    0.0000 C   0  0  0  0  0  0  0  0  0  0  0  0
   -3.3405    3.9271    0.0000 C   0  0  0  0  0  0  0  0  0  0  0  0
    0.3943    1.2135    0.0000 C   0  0  0  0  0  0  0  0  0  0  0  0
    1.2760    0.0000    0.0000 C   0  0  0  0  0  0  0  0  0  0  0  0
    0.3943   -1.2135    0.0000 C   0  0  0  0  0  0  0  0  0  0  0  0
   -1.0323   -0.7500    0.0000 C   0  0  0  0  0  0  0  0  0  0  0  0
   -1.0323    0.7500    0.0000 C   0  0  0  0  0  0  0  0  0  0  0  0
   -2.4589    1.2135    0.0000 C   0  0  0  0  0  0  0  0  0  0  0  0
   -3.3405   -0.0000    0.0000 C   0  0  0  0  0  0  0  0  0  0  0  0
   -4.7671    0.4635    0.0000 C   0  0  0  0  0  0  0  0  0  0  0  0
   -5.2307   -0.9631    0.0000 C   0  0  0  0  0  0  0  0  0  0  0  0
   -4.0171   -1.8447    0.0000 C   0  0  0  0  0  0  0  0  0  0  0  0
   -4.0171   -3.3447    0.0000 N   0  0  0  0  0  0  0  0  0  0  0  0
   -5.3162   -4.0947    0.0000 O   0  0  0  0  0  0  0  0  0  0  0  0
   -2.4589   -1.2135    0.0000 C   0  0  0  0  0  0  0  0  0  0  0  0
  1  2  1  0
  2  3  2  0
  3  4  1  0
  5  4  1  6
  5  6  1  0
  6  7  1  6
  8  7  1  1
  8  9  1  0
  9 10  2  0
 11 10  1  1
 11 12  1  0
 12 13  1  0
 14 13  1  1
 14 15  1  0
 15 16  1  1
 16 17  1  0
 17 18  2  0
 18 19  1  0
 20 17  1  1
  7  3  1  0
 12  8  1  0
 20 14  1  0
 15  5  1  0
 13  6  1  0
 20 11  1  0
M  END
>  <Compound_ID>  (567) 
C43762046

>  <Active>  (567) 
0.0

>  <Smiles>  (567) 
O/N=C1\C[C@@H]2[C@@H]3C1[C@H]1C=C[C@@H]4C1C3[C@@H]1[C@H]2C/C(=N\O)[C@@H]14

>  <canonical_smi>  (567) 
O/N=C1\C[C@@H]2[C@@H]3C1[C@H]1C=C[C@@H]4C1C3[C@@H]1[C@H]2C/C(=N\O)[C@@H]14

>  <Set>  (567) 
G2 inactive

>  <Set_type>  (567) 
Train

>  <MW>  (567) 
270.33

>  <HBD>  (567) 
2

>  <HBA>  (567) 
2

>  <NRB>  (567) 
0

>  <NR>  (567) 
6

>  <NAR>  (567) 
0

>  <PSA>  (567) 
65.18

>  <Standard Type>  (567) 
nan

>  <Standard Relation>  (567) 
nan

>  <Standard Units>  (567) 
nan

>  <Standard Value>  (567) 
nan

>  <Assay ChEMBL ID>  (567) 
nan

>  <Assay Description>  (567) 
nan

>  <BAO Label>  (567) 
nan

$$$$

     RDKit          2D

 21 25  0  0  0  0  0  0  0  0999 V2000
    3.0000    0.0000    0.0000 C   0  0  0  0  0  0  0  0  0  0  0  0
    1.5000    0.0000    0.0000 C   0  0  0  0  0  0  0  0  0  0  0  0
    0.7500   -1.2990    0.0000 C   0  0  0  0  0  0  0  0  0  0  0  0
   -0.7500   -1.2990    0.0000 C   0  0  0  0  0  0  0  0  0  0  0  0
   -2.2500   -1.2990    0.0000 C   0  0  0  0  0  0  0  0  0  0  0  0
   -3.0000    0.0000    0.0000 C   0  0  0  0  0  0  0  0  0  0  0  0
   -4.5000    0.0000    0.0000 N   0  0  0  0  0  0  0  0  0  0  0  0
   -5.2500    1.2990    0.0000 C   0  0  0  0  0  0  0  0  0  0  0  0
   -6.7172    1.6109    0.0000 O   0  0  0  0  0  0  0  0  0  0  0  0
   -6.8740    3.1027    0.0000 C   0  0  0  0  0  0  0  0  0  0  0  0
   -8.1731    3.8527    0.0000 C   0  0  0  0  0  0  0  0  0  0  0  0
   -9.6731    3.8527    0.0000 C   0  0  0  0  0  0  0  0  0  0  0  0
   -8.9231    5.1517    0.0000 C   0  0  0  0  0  0  0  0  0  0  0  0
   -5.5037    3.7128    0.0000 N   0  0  0  0  0  0  0  0  0  0  0  0
   -4.5000    2.5981    0.0000 C   0  0  0  0  0  0  0  0  0  0  0  0
   -3.0000    2.5981    0.0000 C   0  0  0  0  0  0  0  0  0  0  0  0
   -2.2500    3.8971    0.0000 N   0  0  0  0  0  0  0  0  0  0  0  0
   -2.2500    1.2990    0.0000 C   0  0  0  0  0  0  0  0  0  0  0  0
   -0.7500    1.2990    0.0000 C   0  0  0  0  0  0  0  0  0  0  0  0
    0.7500    1.2990    0.0000 C   0  0  0  0  0  0  0  0  0  0  0  0
   -1.5000    0.0000    0.0000 C   0  0  0  0  0  0  0  0  0  0  0  0
  1  2  1  0
  2  3  2  0
  3  4  1  0
  4  5  1  1
  5  6  1  0
  6  7  1  0
  7  8  2  0
  8  9  1  0
  9 10  1  0
 10 11  1  0
 11 12  1  0
 12 13  1  0
 10 14  2  0
 14 15  1  0
 15 16  2  0
 16 17  1  0
 16 18  1  0
 18 19  1  0
 19 20  1  1
 19 21  1  0
 20  2  1  0
 21  4  1  0
 18  6  2  0
 15  8  1  0
 13 11  1  0
M  END
>  <Compound_ID>  (568) 
C45285658

>  <Active>  (568) 
0.0

>  <Smiles>  (568) 
CC1=C[C@H]2Cc3nc4oc(C5CC5)nc4c(N)c3[C@@H](C1)C2

>  <canonical_smi>  (568) 
CC1=C[C@H]2Cc3nc4oc(C5CC5)nc4c(N)c3[C@@H](C1)C2

>  <Set>  (568) 
G2 inactive

>  <Set_type>  (568) 
Train

>  <MW>  (568) 
281.36

>  <HBD>  (568) 
1

>  <HBA>  (568) 
4

>  <NRB>  (568) 
1

>  <NR>  (568) 
5

>  <NAR>  (568) 
2

>  <PSA>  (568) 
64.94

>  <Standard Type>  (568) 
nan

>  <Standard Relation>  (568) 
nan

>  <Standard Units>  (568) 
nan

>  <Standard Value>  (568) 
nan

>  <Assay ChEMBL ID>  (568) 
nan

>  <Assay Description>  (568) 
nan

>  <BAO Label>  (568) 
nan

$$$$

     RDKit          2D

 20 22  0  0  0  0  0  0  0  0999 V2000
   -6.6232    1.2320    0.0000 H   0  0  0  0  0  0  0  0  0  0  0  0
   -5.5085    0.2283    0.0000 N   0  0  0  0  0  0  0  0  0  0  0  0
   -4.0819    0.6918    0.0000 N   0  0  0  0  0  0  0  0  0  0  0  0
   -2.9672   -0.3119    0.0000 C   0  0  0  0  0  0  0  0  0  0  0  0
   -3.1240   -1.8037    0.0000 C   0  0  0  0  0  0  0  0  0  0  0  0
   -4.4231   -2.5537    0.0000 O   0  0  0  0  0  0  0  0  0  0  0  0
   -1.7537   -2.4138    0.0000 N   0  0  0  0  0  0  0  0  0  0  0  0
   -0.7500   -1.2990    0.0000 C   0  0  0  0  0  0  0  0  0  0  0  0
    0.7500   -1.2990    0.0000 C   0  0  0  0  0  0  0  0  0  0  0  0
    1.5000    0.0000    0.0000 C   0  0  0  0  0  0  0  0  0  0  0  0
    0.7500    1.2990    0.0000 C   0  0  0  0  0  0  0  0  0  0  0  0
    1.5000    2.5981    0.0000 C   0  0  0  0  0  0  0  0  0  0  0  0
   -0.7500    1.2990    0.0000 C   0  0  0  0  0  0  0  0  0  0  0  0
   -1.5000    0.0000    0.0000 C   0  0  0  0  0  0  0  0  0  0  0  0
    1.2299   -2.7273    0.0000 C   0  0  0  0  0  0  0  0  0  0  0  0
    2.7217   -2.8841    0.0000 C   0  0  0  0  0  0  0  0  0  0  0  0
    0.3482   -3.9409    0.0000 C   0  0  0  0  0  0  0  0  0  0  0  0
   -1.1436   -3.7841    0.0000 C   0  0  0  0  0  0  0  0  0  0  0  0
   -2.5990   -4.1470    0.0000 C   0  0  0  0  0  0  0  0  0  0  0  0
   -1.0390   -5.2804    0.0000 C   0  0  0  0  0  0  0  0  0  0  0  0
  1  2  1  0
  2  3  2  0
  3  4  1  0
  4  5  2  0
  5  6  1  0
  5  7  1  0
  7  8  1  0
  8  9  2  0
  9 10  1  0
 10 11  2  0
 11 12  1  0
 11 13  1  0
 13 14  2  0
  9 15  1  0
 15 16  1  0
 15 17  2  0
 17 18  1  0
 18 19  1  0
 18 20  1  0
 14  4  1  0
 18  7  1  0
 14  8  1  0
M  END
>  <Compound_ID>  (569) 
C13687457

>  <Active>  (569) 
0.0

>  <Smiles>  (569) 
[H]/N=N/c1c(O)n2c3c(cc(C)cc13)C(C)=CC2(C)C

>  <canonical_smi>  (569) 
[H]/N=N/c1c(O)n2c3c(cc(C)cc13)C(C)=CC2(C)C

>  <Set>  (569) 
G2 inactive

>  <Set_type>  (569) 
Train

>  <MW>  (569) 
255.32

>  <HBD>  (569) 
2

>  <HBA>  (569) 
1

>  <NRB>  (569) 
1

>  <NR>  (569) 
3

>  <NAR>  (569) 
2

>  <PSA>  (569) 
61.37

>  <Standard Type>  (569) 
nan

>  <Standard Relation>  (569) 
nan

>  <Standard Units>  (569) 
nan

>  <Standard Value>  (569) 
nan

>  <Assay ChEMBL ID>  (569) 
nan

>  <Assay Description>  (569) 
nan

>  <BAO Label>  (569) 
nan

$$$$

     RDKit          2D

 25 27  0  0  0  0  0  0  0  0999 V2000
    8.2500   -1.2990    0.0000 O   0  0  0  0  0  0  0  0  0  0  0  0
    7.5000   -2.5981    0.0000 C   0  0  0  0  0  0  0  0  0  0  0  0
    8.2500   -3.8971    0.0000 O   0  0  0  0  0  1  0  0  0  0  0  0
    6.0000   -2.5981    0.0000 C   0  0  0  0  0  0  0  0  0  0  0  0
    5.2500   -1.2990    0.0000 C   0  0  0  0  0  0  0  0  0  0  0  0
    3.7500   -1.2990    0.0000 C   0  0  0  0  0  0  0  0  0  0  0  0
    3.0000   -2.5981    0.0000 O   0  0  0  0  0  0  0  0  0  0  0  0
    3.0000    0.0000    0.0000 N   0  0  0  0  0  0  0  0  0  0  0  0
    1.5000    0.0000    0.0000 C   0  0  0  0  0  0  0  0  0  0  0  0
    0.7500   -1.2990    0.0000 C   0  0  0  0  0  0  0  0  0  0  0  0
   -0.7500   -1.2990    0.0000 C   0  0  0  0  0  0  0  0  0  0  0  0
   -1.5000   -2.5981    0.0000 Cl  0  0  0  0  0  0  0  0  0  0  0  0
   -1.5000    0.0000    0.0000 C   0  0  0  0  0  0  0  0  0  0  0  0
   -0.7500    1.2990    0.0000 C   0  0  0  0  0  0  0  0  0  0  0  0
    0.7500    1.2990    0.0000 C   0  0  0  0  0  0  0  0  0  0  0  0
    1.2135    2.7256    0.0000 C   0  0  0  0  0  0  0  0  0  0  0  0
    2.5838    3.3357    0.0000 C   0  0  0  0  0  0  0  0  0  0  0  0
    3.7974    2.4540    0.0000 Cl  0  0  0  0  0  0  0  0  0  0  0  0
    2.7406    4.8275    0.0000 C   0  0  0  0  0  0  0  0  0  0  0  0
    1.5271    5.7092    0.0000 C   0  0  0  0  0  0  0  0  0  0  0  0
    1.6839    7.2010    0.0000 Cl  0  0  0  0  0  0  0  0  0  0  0  0
    0.1568    5.0991    0.0000 C   0  0  0  0  0  0  0  0  0  0  0  0
    0.0000    3.6073    0.0000 C   0  0  0  0  0  0  0  0  0  0  0  0
   -1.2135    2.7256    0.0000 C   0  0  0  0  0  0  0  0  0  0  0  0
   -2.6401    3.1891    0.0000 O   0  0  0  0  0  0  0  0  0  0  0  0
  1  2  2  0
  2  3  1  0
  2  4  1  0
  4  5  2  0
  5  6  1  0
  6  7  2  0
  6  8  1  0
  8  9  1  0
  9 10  2  0
 10 11  1  0
 11 12  1  0
 11 13  2  0
 13 14  1  0
 14 15  2  0
 15 16  1  0
 16 17  2  0
 17 18  1  0
 17 19  1  0
 19 20  2  0
 20 21  1  0
 20 22  1  0
 22 23  2  0
 23 24  1  0
 24 25  1  1
 15  9  1  0
 23 16  1  0
 24 14  1  0
M  CHG  1   3  -1
M  END
>  <Compound_ID>  (570) 
C01579038

>  <Active>  (570) 
0.0

>  <Smiles>  (570) 
O=C([O-])/C=C/C(=O)Nc1cc(Cl)cc2c1-c1c(Cl)cc(Cl)cc1[C@@H]2O

>  <canonical_smi>  (570) 
O=C([O-])/C=C/C(=O)Nc1cc(Cl)cc2c1-c1c(Cl)cc(Cl)cc1[C@@H]2O

>  <Set>  (570) 
G2 inactive

>  <Set_type>  (570) 
Train

>  <MW>  (570) 
397.62

>  <HBD>  (570) 
2

>  <HBA>  (570) 
4

>  <NRB>  (570) 
3

>  <NR>  (570) 
3

>  <NAR>  (570) 
2

>  <PSA>  (570) 
89.46

>  <Standard Type>  (570) 
nan

>  <Standard Relation>  (570) 
nan

>  <Standard Units>  (570) 
nan

>  <Standard Value>  (570) 
nan

>  <Assay ChEMBL ID>  (570) 
nan

>  <Assay Description>  (570) 
nan

>  <BAO Label>  (570) 
nan

$$$$

     RDKit          2D

 20 21  0  0  0  0  0  0  0  0999 V2000
    7.5162    3.1170    0.0000 C   0  0  0  0  0  0  0  0  0  0  0  0
    7.1534    1.6615    0.0000 C   0  0  0  0  0  0  0  0  0  0  0  0
    8.1175    0.5125    0.0000 C   0  0  0  0  0  0  0  0  0  0  0  0
    7.3227   -0.7596    0.0000 S   0  0  0  0  0  0  0  0  0  0  0  0
    5.8672   -0.3967    0.0000 C   0  0  0  0  0  0  0  0  0  0  0  0
    4.7181   -1.3609    0.0000 C   0  0  0  0  0  0  0  0  0  0  0  0
    3.3086   -0.8479    0.0000 C   0  0  0  0  0  0  0  0  0  0  0  0
    2.1595   -1.8121    0.0000 N   0  0  0  0  0  4  0  0  0  0  0  0
    0.7500   -1.2990    0.0000 C   0  0  0  0  0  0  0  0  0  0  0  0
    0.4895   -2.7762    0.0000 P   0  0  0  0  0  0  0  0  0  0  0  0
    0.2291   -4.2535    0.0000 O   0  0  0  0  0  0  0  0  0  0  0  0
    1.9667   -3.0367    0.0000 O   0  0  0  0  0  1  0  0  0  0  0  0
   -0.9877   -2.5158    0.0000 O   0  0  0  0  0  1  0  0  0  0  0  0
    1.5000    0.0000    0.0000 C   0  0  0  0  0  0  0  0  0  0  0  0
    0.7500    1.2990    0.0000 C   0  0  0  0  0  0  0  0  0  0  0  0
   -0.7500    1.2990    0.0000 C   0  0  0  0  0  0  0  0  0  0  0  0
   -1.5000    0.0000    0.0000 C   0  0  0  0  0  0  0  0  0  0  0  0
   -3.0000    0.0000    0.0000 C   0  0  0  0  0  0  0  0  0  0  0  0
   -0.7500   -1.2990    0.0000 C   0  0  0  0  0  0  0  0  0  0  0  0
    5.7626    1.0996    0.0000 N   0  0  0  0  0  0  0  0  0  0  0  0
  1  2  1  0
  2  3  2  0
  3  4  1  0
  4  5  1  0
  5  6  1  0
  6  7  1  0
  7  8  1  0
  9  8  1  6
  9 10  1  0
 10 11  2  0
 10 12  1  0
 10 13  1  0
  9 14  1  0
 14 15  1  0
 15 16  1  0
 16 17  1  0
 17 18  1  1
 17 19  1  0
  5 20  2  0
 20  2  1  0
 19  9  1  0
M  CHG  3   8   1  12  -1  13  -1
M  END
>  <Compound_ID>  (571) 
C12913986

>  <Active>  (571) 
0.0

>  <Smiles>  (571) 
Cc1csc(CC[NH2+][C@@]2(P(=O)([O-])[O-])CCC[C@H](C)C2)n1

>  <canonical_smi>  (571) 
Cc1csc(CC[NH2+][C@@]2(P(=O)([O-])[O-])CCC[C@H](C)C2)n1

>  <Set>  (571) 
G2 inactive

>  <Set_type>  (571) 
Train

>  <MW>  (571) 
317.37

>  <HBD>  (571) 
1

>  <HBA>  (571) 
4

>  <NRB>  (571) 
5

>  <NR>  (571) 
2

>  <NAR>  (571) 
1

>  <PSA>  (571) 
92.69

>  <Standard Type>  (571) 
nan

>  <Standard Relation>  (571) 
nan

>  <Standard Units>  (571) 
nan

>  <Standard Value>  (571) 
nan

>  <Assay ChEMBL ID>  (571) 
nan

>  <Assay Description>  (571) 
nan

>  <BAO Label>  (571) 
nan

$$$$

     RDKit          2D

 23 24  0  0  0  0  0  0  0  0999 V2000
    4.5000    0.0000    0.0000 N   0  0  0  0  0  0  0  0  0  0  0  0
    3.0000    0.0000    0.0000 C   0  0  0  0  0  0  0  0  0  0  0  0
    1.5000    0.0000    0.0000 C   0  0  0  0  0  0  0  0  0  0  0  0
    0.7500   -1.2990    0.0000 C   0  0  0  0  0  0  0  0  0  0  0  0
   -0.7500   -1.2990    0.0000 C   0  0  0  0  0  0  0  0  0  0  0  0
   -1.5000   -2.5981    0.0000 S   0  0  0  0  0  0  0  0  0  0  0  0
   -2.7990   -1.8481    0.0000 O   0  0  0  0  0  0  0  0  0  0  0  0
   -0.2010   -3.3481    0.0000 O   0  0  0  0  0  0  0  0  0  0  0  0
   -2.2500   -3.8971    0.0000 N   0  0  0  0  0  2  0  0  0  0  0  0
   -1.5000   -5.1962    0.0000 C   0  0  0  0  0  0  0  0  0  0  0  0
    0.0000   -5.1962    0.0000 C   0  0  0  0  0  0  0  0  0  0  0  0
    0.7500   -6.4952    0.0000 C   0  0  0  0  0  0  0  0  0  0  0  0
    0.0000   -7.7942    0.0000 C   0  0  0  0  0  0  0  0  0  0  0  0
    0.7500   -9.0933    0.0000 Cl  0  0  0  0  0  0  0  0  0  0  0  0
   -1.5000   -7.7942    0.0000 C   0  0  0  0  0  0  0  0  0  0  0  0
   -2.2500   -6.4952    0.0000 C   0  0  0  0  0  0  0  0  0  0  0  0
   -3.7500   -6.4952    0.0000 C   0  0  0  0  0  0  0  0  0  0  0  0
   -4.5000   -7.7942    0.0000 N   0  0  0  0  0  0  0  0  0  0  0  0
   -4.5000   -5.1962    0.0000 O   0  0  0  0  0  0  0  0  0  0  0  0
   -1.5000    0.0000    0.0000 C   0  0  0  0  0  0  0  0  0  0  0  0
   -0.7500    1.2990    0.0000 C   0  0  0  0  0  0  0  0  0  0  0  0
    0.7500    1.2990    0.0000 C   0  0  0  0  0  0  0  0  0  0  0  0
    1.5000    2.5981    0.0000 Cl  0  0  0  0  0  0  0  0  0  0  0  0
  1  2  3  0
  2  3  1  0
  3  4  2  0
  4  5  1  0
  5  6  1  0
  6  7  2  0
  6  8  2  0
  6  9  1  0
  9 10  1  0
 10 11  2  0
 11 12  1  0
 12 13  2  0
 13 14  1  0
 13 15  1  0
 15 16  2  0
 16 17  1  0
 17 18  1  0
 17 19  2  0
  5 20  2  0
 20 21  1  0
 21 22  2  0
 22 23  1  0
 22  3  1  0
 16 10  1  0
M  CHG  1   9  -1
M  END
>  <Compound_ID>  (572) 
C63182301

>  <Active>  (572) 
0.0

>  <Smiles>  (572) 
N#Cc1cc(S(=O)(=O)[N-]c2ccc(Cl)cc2C(N)=O)ccc1Cl

>  <canonical_smi>  (572) 
N#Cc1cc(S(=O)(=O)[N-]c2ccc(Cl)cc2C(N)=O)ccc1Cl

>  <Set>  (572) 
G2 inactive

>  <Set_type>  (572) 
Train

>  <MW>  (572) 
369.21

>  <HBD>  (572) 
1

>  <HBA>  (572) 
4

>  <NRB>  (572) 
4

>  <NR>  (572) 
2

>  <NAR>  (572) 
2

>  <PSA>  (572) 
115.12

>  <Standard Type>  (572) 
nan

>  <Standard Relation>  (572) 
nan

>  <Standard Units>  (572) 
nan

>  <Standard Value>  (572) 
nan

>  <Assay ChEMBL ID>  (572) 
nan

>  <Assay Description>  (572) 
nan

>  <BAO Label>  (572) 
nan

$$$$

     RDKit          2D

 24 28  0  0  0  0  0  0  0  0999 V2000
   -1.5000   -5.1962    0.0000 N   0  0  0  0  0  0  0  0  0  0  0  0
   -0.0000   -5.1962    0.0000 C   0  0  0  0  0  0  0  0  0  0  0  0
    0.7500   -3.8971    0.0000 N   0  0  0  0  0  0  0  0  0  0  0  0
    2.2500   -3.8971    0.0000 C   0  0  0  0  0  0  0  0  0  0  0  0
    3.0000   -2.5981    0.0000 N   0  0  0  0  0  0  0  0  0  0  0  0
    2.2500   -1.2990    0.0000 C   0  0  0  0  0  0  0  0  0  0  0  0
    0.7500   -1.2990    0.0000 C   0  0  0  0  0  0  0  0  0  0  0  0
    1.5000    0.0000    0.0000 C   0  0  0  0  0  0  0  0  0  0  0  0
    0.7500    1.2990    0.0000 C   0  0  0  0  0  0  0  0  0  0  0  0
   -0.7500    1.2990    0.0000 C   0  0  0  0  0  0  0  0  0  0  0  0
   -1.5000    0.0000    0.0000 C   0  0  0  0  0  0  0  0  0  0  0  0
   -0.7500   -1.2990    0.0000 C   0  0  0  0  0  0  0  0  0  0  0  0
    1.7010   -0.7500    0.0000 C   0  0  0  0  0  0  0  0  0  0  0  0
    3.0000   -0.0000    0.0000 C   0  0  0  0  0  0  0  0  0  0  0  0
    2.2500    1.2990    0.0000 C   0  0  0  0  0  0  0  0  0  0  0  0
    3.0000   -5.1962    0.0000 N   0  0  0  0  0  0  0  0  0  0  0  0
    2.2500   -6.4952    0.0000 C   0  0  0  0  0  0  0  0  0  0  0  0
    3.0000   -7.7942    0.0000 C   0  0  0  0  0  0  0  0  0  0  0  0
    4.4918   -7.9510    0.0000 N   0  0  0  0  0  0  0  0  0  0  0  0
    4.8037   -9.4182    0.0000 N   0  0  0  0  0  0  0  0  0  0  0  0
    3.5046  -10.1682    0.0000 C   0  0  0  0  0  0  0  0  0  0  0  0
    3.3478  -11.6600    0.0000 S   0  0  0  0  0  0  0  0  0  0  0  0
    2.3899   -9.1645    0.0000 O   0  0  0  0  0  0  0  0  0  0  0  0
    0.7500   -6.4952    0.0000 N   0  0  0  0  0  0  0  0  0  0  0  0
  1  2  1  0
  2  3  2  0
  3  4  1  0
  4  5  1  0
  5  6  1  0
  6  7  1  0
  7  8  1  0
  8  9  1  0
  9 10  1  0
 10 11  1  0
 11 12  1  0
 11 13  1  0
 13 14  1  0
 14 15  1  0
  4 16  2  0
 16 17  1  0
 17 18  1  0
 18 19  2  0
 19 20  1  0
 20 21  1  0
 21 22  2  0
 21 23  1  0
 17 24  2  0
 24  2  1  0
 14  6  1  0
 23 18  1  0
 12  7  1  0
 15  9  1  0
M  END
>  <Compound_ID>  (573) 
C17212728

>  <Active>  (573) 
0.0

>  <Smiles>  (573) 
Nc1nc(NC2C3CC4CC(C3)CC2C4)nc(-c2n[nH]c(=S)o2)n1

>  <canonical_smi>  (573) 
Nc1nc(NC2C3CC4CC(C3)CC2C4)nc(-c2n[nH]c(=S)o2)n1

>  <Set>  (573) 
G2 inactive

>  <Set_type>  (573) 
Train

>  <MW>  (573) 
345.43

>  <HBD>  (573) 
3

>  <HBA>  (573) 
8

>  <NRB>  (573) 
3

>  <NR>  (573) 
6

>  <NAR>  (573) 
2

>  <PSA>  (573) 
118.54

>  <Standard Type>  (573) 
nan

>  <Standard Relation>  (573) 
nan

>  <Standard Units>  (573) 
nan

>  <Standard Value>  (573) 
nan

>  <Assay ChEMBL ID>  (573) 
nan

>  <Assay Description>  (573) 
nan

>  <BAO Label>  (573) 
nan

$$$$

     RDKit          2D

 26 28  0  0  0  0  0  0  0  0999 V2000
    8.3782    2.4516    0.0000 C   0  0  0  0  0  0  0  0  0  0  0  0
    6.9739    2.9787    0.0000 C   0  0  0  0  0  0  0  0  0  0  0  0
    6.5748    4.4246    0.0000 C   0  0  0  0  0  0  0  0  0  0  0  0
    5.0763    4.4919    0.0000 C   0  0  0  0  0  0  0  0  0  0  0  0
    4.5492    3.0876    0.0000 C   0  0  0  0  0  0  0  0  0  0  0  0
    3.1033    2.6885    0.0000 C   0  0  0  0  0  0  0  0  0  0  0  0
    2.5762    1.2842    0.0000 N   0  0  0  0  0  4  0  0  0  0  0  0
    3.4026    0.0323    0.0000 O   0  0  0  0  0  1  0  0  0  0  0  0
    1.0777    1.3515    0.0000 C   0  0  0  0  0  0  0  0  0  0  0  0
    1.7286    0.0000    0.0000 C   0  0  0  0  0  0  0  0  0  0  0  0
    1.0777   -1.3515    0.0000 C   0  0  0  0  0  0  0  0  0  0  0  0
   -0.3846   -1.6852    0.0000 C   0  0  0  0  0  0  0  0  0  0  0  0
   -1.5574   -0.7500    0.0000 C   0  0  0  0  0  0  0  0  0  0  0  0
   -1.5574    0.7500    0.0000 C   0  0  0  0  0  0  0  0  0  0  0  0
   -0.3846    1.6852    0.0000 C   0  0  0  0  0  0  0  0  0  0  0  0
   -0.7184    3.1476    0.0000 N   0  0  0  0  0  0  0  0  0  0  0  0
   -2.1518    3.5898    0.0000 N   0  0  0  0  0  0  0  0  0  0  0  0
   -2.4856    5.0522    0.0000 C   0  0  0  0  0  0  0  0  0  0  0  0
   -3.9189    5.4943    0.0000 N   0  0  0  0  0  0  0  0  0  0  0  0
   -1.3860    6.0724    0.0000 S   0  0  0  0  0  0  0  0  0  0  0  0
    0.6787    2.7974    0.0000 N   0  0  0  0  0  0  0  0  0  0  0  0
    0.0223    3.2498    0.0000 O   0  0  0  0  0  0  0  0  0  0  0  0
    1.9306    3.6237    0.0000 C   0  0  0  0  0  0  0  0  0  0  0  0
    0.9779    4.7824    0.0000 C   0  0  0  0  0  0  0  0  0  0  0  0
    2.9832    4.6923    0.0000 C   0  0  0  0  0  0  0  0  0  0  0  0
    5.7220    2.1523    0.0000 O   0  0  0  0  0  0  0  0  0  0  0  0
  1  2  1  0
  2  3  2  0
  3  4  1  0
  4  5  2  0
  5  6  1  0
  6  7  2  0
  7  8  1  0
  7  9  1  0
  9 10  1  1
 10 11  1  0
 11 12  1  0
 12 13  1  0
 13 14  1  0
 14 15  1  0
 15 16  2  3
 16 17  1  0
 17 18  1  0
 18 19  1  0
 18 20  2  0
  9 21  1  0
 21 22  1  0
 21 23  1  0
 23 24  1  0
 23 25  1  0
  5 26  1  0
 26  2  1  0
 23  6  1  0
 15  9  1  0
M  CHG  2   7   1   8  -1
M  END
>  <Compound_ID>  (574) 
C13154503

>  <Active>  (574) 
0.0

>  <Smiles>  (574) 
Cc1ccc(C2=[N+]([O-])[C@@]3(CCCCCC3=NNC(N)=S)N(O)C2(C)C)o1

>  <canonical_smi>  (574) 
Cc1ccc(C2=[N+]([O-])[C@@]3(CCCCCC3=NNC(N)=S)N(O)C2(C)C)o1

>  <Set>  (574) 
G2 inactive

>  <Set_type>  (574) 
Train

>  <MW>  (574) 
379.49

>  <HBD>  (574) 
3

>  <HBA>  (574) 
7

>  <NRB>  (574) 
2

>  <NR>  (574) 
3

>  <NAR>  (574) 
1

>  <PSA>  (574) 
113.09

>  <Standard Type>  (574) 
nan

>  <Standard Relation>  (574) 
nan

>  <Standard Units>  (574) 
nan

>  <Standard Value>  (574) 
nan

>  <Assay ChEMBL ID>  (574) 
nan

>  <Assay Description>  (574) 
nan

>  <BAO Label>  (574) 
nan

$$$$

     RDKit          2D

 21 22  0  0  0  0  0  0  0  0999 V2000
    3.8310   -4.4646    0.0000 O   0  0  0  0  0  0  0  0  0  0  0  0
    2.8273   -5.5793    0.0000 C   0  0  0  0  0  0  0  0  0  0  0  0
    3.2909   -7.0059    0.0000 O   0  0  0  0  0  1  0  0  0  0  0  0
    1.3601   -5.2674    0.0000 C   0  0  0  0  0  0  0  0  0  0  0  0
    0.2454   -6.2711    0.0000 C   0  0  0  0  0  0  0  0  0  0  0  0
   -1.0537   -5.5211    0.0000 S   0  0  0  0  0  0  0  0  0  0  0  0
   -0.7418   -4.0539    0.0000 C   0  0  0  0  0  0  0  0  0  0  0  0
    0.7500   -3.8971    0.0000 N   0  0  0  0  0  0  0  0  0  0  0  0
    1.5000   -2.5981    0.0000 C   0  0  0  0  0  0  0  0  0  0  0  0
    3.0000   -2.5981    0.0000 O   0  0  0  0  0  0  0  0  0  0  0  0
    0.7500   -1.2990    0.0000 C   0  0  0  0  0  0  0  0  0  0  0  0
    1.5000    0.0000    0.0000 C   0  0  0  0  0  0  0  0  0  0  0  0
    0.7500    1.2990    0.0000 C   0  0  0  0  0  0  0  0  0  0  0  0
   -0.7500    1.2990    0.0000 C   0  0  0  0  0  0  0  0  0  0  0  0
   -1.5000    2.5981    0.0000 S   0  0  0  0  0  0  0  0  0  0  0  0
   -0.7500    3.8971    0.0000 C   0  0  0  0  0  0  0  0  0  0  0  0
   -2.0490    4.6471    0.0000 F   0  0  0  0  0  0  0  0  0  0  0  0
    0.5490    3.1471    0.0000 F   0  0  0  0  0  0  0  0  0  0  0  0
    0.0000    5.1962    0.0000 F   0  0  0  0  0  0  0  0  0  0  0  0
   -1.5000    0.0000    0.0000 C   0  0  0  0  0  0  0  0  0  0  0  0
   -0.7500   -1.2990    0.0000 C   0  0  0  0  0  0  0  0  0  0  0  0
  1  2  2  0
  2  3  1  0
  4  2  1  6
  4  5  1  0
  5  6  1  0
  6  7  1  0
  7  8  1  0
  8  9  1  0
  9 10  2  0
  9 11  1  0
 11 12  2  0
 12 13  1  0
 13 14  2  0
 14 15  1  0
 15 16  1  0
 16 17  1  0
 16 18  1  0
 16 19  1  0
 14 20  1  0
 20 21  2  0
  8  4  1  0
 21 11  1  0
M  CHG  1   3  -1
M  END
>  <Compound_ID>  (575) 
C37454282

>  <Active>  (575) 
0.0

>  <Smiles>  (575) 
O=C([O-])[C@@H]1CSCN1C(=O)c1ccc(SC(F)(F)F)cc1

>  <canonical_smi>  (575) 
O=C([O-])[C@@H]1CSCN1C(=O)c1ccc(SC(F)(F)F)cc1

>  <Set>  (575) 
G2 inactive

>  <Set_type>  (575) 
Train

>  <MW>  (575) 
336.34

>  <HBD>  (575) 
0

>  <HBA>  (575) 
5

>  <NRB>  (575) 
3

>  <NR>  (575) 
2

>  <NAR>  (575) 
1

>  <PSA>  (575) 
60.44

>  <Standard Type>  (575) 
nan

>  <Standard Relation>  (575) 
nan

>  <Standard Units>  (575) 
nan

>  <Standard Value>  (575) 
nan

>  <Assay ChEMBL ID>  (575) 
nan

>  <Assay Description>  (575) 
nan

>  <BAO Label>  (575) 
nan

$$$$

     RDKit          2D

 21 22  0  0  0  0  0  0  0  0999 V2000
    3.0000    0.0000    0.0000 C   0  0  0  0  0  0  0  0  0  0  0  0
    1.5000    0.0000    0.0000 C   0  0  0  0  0  0  0  0  0  0  0  0
    0.7500   -1.2990    0.0000 C   0  0  0  0  0  0  0  0  0  0  0  0
   -0.7500   -1.2990    0.0000 C   0  0  0  0  0  0  0  0  0  0  0  0
   -1.5000   -2.5981    0.0000 C   0  0  0  0  0  0  0  0  0  0  0  0
   -1.5000    0.0000    0.0000 N   0  0  0  0  0  0  0  0  0  0  0  0
   -3.0000    0.0000    0.0000 C   0  0  0  0  0  0  0  0  0  0  0  0
   -3.7500    1.2990    0.0000 C   0  0  0  0  0  0  0  0  0  0  0  0
   -3.0000    2.5981    0.0000 C   0  0  0  0  0  0  0  0  0  0  0  0
   -3.7500    3.8971    0.0000 C   0  0  0  0  0  0  0  0  0  0  0  0
   -5.2500    3.8971    0.0000 C   0  0  0  0  0  0  0  0  0  0  0  0
   -6.0000    5.1962    0.0000 F   0  0  0  0  0  0  0  0  0  0  0  0
   -6.0000    2.5981    0.0000 C   0  0  0  0  0  0  0  0  0  0  0  0
   -5.2500    1.2990    0.0000 C   0  0  0  0  0  0  0  0  0  0  0  0
   -6.0000    0.0000    0.0000 Br  0  0  0  0  0  0  0  0  0  0  0  0
   -0.7500    1.2990    0.0000 C   0  0  0  0  0  0  0  0  0  0  0  0
   -1.5000    2.5981    0.0000 O   0  0  0  0  0  0  0  0  0  0  0  0
    0.7500    1.2990    0.0000 C   0  0  0  0  0  0  0  0  0  0  0  0
    1.5000    2.5981    0.0000 C   0  0  0  0  0  0  0  0  0  0  0  0
    3.0000    2.5981    0.0000 O   0  0  0  0  0  0  0  0  0  0  0  0
    0.7500    3.8971    0.0000 O   0  0  0  0  0  1  0  0  0  0  0  0
  1  2  1  0
  2  3  1  0
  3  4  2  0
  4  5  1  0
  4  6  1  0
  6  7  1  0
  7  8  1  0
  8  9  2  0
  9 10  1  0
 10 11  2  0
 11 12  1  0
 11 13  1  0
 13 14  2  0
 14 15  1  0
  6 16  1  0
 16 17  2  0
 16 18  1  0
 18 19  1  0
 19 20  2  0
 19 21  1  0
 18  2  2  0
 14  8  1  0
M  CHG  1  21  -1
M  END
>  <Compound_ID>  (576) 
C61450178

>  <Active>  (576) 
0.0

>  <Smiles>  (576) 
Cc1cc(C)n(Cc2ccc(F)cc2Br)c(=O)c1C(=O)[O-]

>  <canonical_smi>  (576) 
Cc1cc(C)n(Cc2ccc(F)cc2Br)c(=O)c1C(=O)[O-]

>  <Set>  (576) 
G2 inactive

>  <Set_type>  (576) 
Train

>  <MW>  (576) 
353.17

>  <HBD>  (576) 
0

>  <HBA>  (576) 
3

>  <NRB>  (576) 
3

>  <NR>  (576) 
2

>  <NAR>  (576) 
2

>  <PSA>  (576) 
62.13

>  <Standard Type>  (576) 
nan

>  <Standard Relation>  (576) 
nan

>  <Standard Units>  (576) 
nan

>  <Standard Value>  (576) 
nan

>  <Assay ChEMBL ID>  (576) 
nan

>  <Assay Description>  (576) 
nan

>  <BAO Label>  (576) 
nan

$$$$

     RDKit          2D

 24 26  0  0  0  0  0  0  0  0999 V2000
    2.7760    0.0000    0.0000 C   0  0  0  0  0  0  0  0  0  0  0  0
    1.2760    0.0000    0.0000 C   0  0  0  0  0  0  0  0  0  0  0  0
    0.3943    1.2135    0.0000 C   0  0  0  0  0  0  0  0  0  0  0  0
   -1.0323    0.7500    0.0000 C   0  0  0  0  0  0  0  0  0  0  0  0
   -2.4589    1.2135    0.0000 N   0  0  0  0  0  0  0  0  0  0  0  0
   -3.3405    0.0000    0.0000 C   0  0  0  0  0  0  0  0  0  0  0  0
   -4.8405    0.0000    0.0000 C   0  0  0  0  0  0  0  0  0  0  0  0
   -5.5905   -1.2990    0.0000 O   0  0  0  0  0  1  0  0  0  0  0  0
   -5.5905    1.2990    0.0000 N   0  0  0  0  0  0  0  0  0  0  0  0
   -7.0905    1.2990    0.0000 C   0  0  0  0  0  0  0  0  0  0  0  0
   -7.8405    2.5981    0.0000 C   0  0  0  0  0  0  0  0  0  0  0  0
   -9.3405    2.5981    0.0000 C   0  0  0  0  0  0  0  0  0  0  0  0
  -10.0905    1.2990    0.0000 C   0  0  0  0  0  0  0  0  0  0  0  0
   -9.3405   -0.0000    0.0000 C   0  0  0  0  0  0  0  0  0  0  0  0
  -10.0905   -1.2990    0.0000 Cl  0  0  0  0  0  0  0  0  0  0  0  0
   -7.8405   -0.0000    0.0000 C   0  0  0  0  0  0  0  0  0  0  0  0
   -7.0905   -1.2990    0.0000 F   0  0  0  0  0  0  0  0  0  0  0  0
   -2.4589   -1.2135    0.0000 C   0  0  0  0  0  0  0  0  0  0  0  0
   -2.9224   -2.6401    0.0000 C   0  0  0  0  0  0  0  0  0  0  0  0
   -1.9187   -3.7548    0.0000 N   0  0  0  0  0  0  0  0  0  0  0  0
   -0.4515   -3.4430    0.0000 C   0  0  0  0  0  0  0  0  0  0  0  0
   -2.3822   -5.1814    0.0000 C   0  0  0  0  0  0  0  0  0  0  0  0
   -1.0323   -0.7500    0.0000 C   0  0  0  0  0  0  0  0  0  0  0  0
    0.3943   -1.2135    0.0000 S   0  0  0  0  0  0  0  0  0  0  0  0
  2  1  1  1
  2  3  1  0
  3  4  2  0
  4  5  1  0
  5  6  2  0
  6  7  1  0
  7  8  1  0
  7  9  2  0
  9 10  1  0
 10 11  2  0
 11 12  1  0
 12 13  2  0
 13 14  1  0
 14 15  1  0
 14 16  2  0
 16 17  1  0
  6 18  1  0
 18 19  1  0
 19 20  1  0
 20 21  1  0
 20 22  1  0
 18 23  2  0
 23 24  1  0
 24  2  1  0
 23  4  1  0
 16 10  1  0
M  CHG  1   8  -1
M  END
>  <Compound_ID>  (577) 
C65147743

>  <Active>  (577) 
0.0

>  <Smiles>  (577) 
C[C@@H]1C=C2N=C(/C([O-])=N/c3cccc(Cl)c3F)C(CN(C)C)=C2S1

>  <canonical_smi>  (577) 
C[C@@H]1C=C2N=C(/C([O-])=N/c3cccc(Cl)c3F)C(CN(C)C)=C2S1

>  <Set>  (577) 
G2 inactive

>  <Set_type>  (577) 
Train

>  <MW>  (577) 
364.85

>  <HBD>  (577) 
0

>  <HBA>  (577) 
3

>  <NRB>  (577) 
4

>  <NR>  (577) 
3

>  <NAR>  (577) 
1

>  <PSA>  (577) 
51.02

>  <Standard Type>  (577) 
nan

>  <Standard Relation>  (577) 
nan

>  <Standard Units>  (577) 
nan

>  <Standard Value>  (577) 
nan

>  <Assay ChEMBL ID>  (577) 
nan

>  <Assay Description>  (577) 
nan

>  <BAO Label>  (577) 
nan

$$$$

     RDKit          2D

 24 27  0  0  0  0  0  0  0  0999 V2000
   -7.9140    5.6597    0.0000 O   0  0  0  0  0  0  0  0  0  0  0  0
   -6.4140    5.6597    0.0000 C   0  0  0  0  0  0  0  0  0  0  0  0
   -5.6640    6.9587    0.0000 C   0  0  0  0  0  0  0  0  0  0  0  0
   -4.1640    6.9587    0.0000 C   0  0  0  0  0  0  0  0  0  0  0  0
   -3.4140    8.2578    0.0000 C   0  0  0  0  0  0  0  0  0  0  0  0
   -4.1640    9.5568    0.0000 C   0  0  0  0  0  0  0  0  0  0  0  0
   -3.4140   10.8558    0.0000 O   0  0  0  0  0  0  0  0  0  0  0  0
   -5.6640    9.5568    0.0000 C   0  0  0  0  0  0  0  0  0  0  0  0
   -6.4140    8.2578    0.0000 C   0  0  0  0  0  0  0  0  0  0  0  0
   -5.6640    4.3606    0.0000 C   0  0  0  0  0  0  0  0  0  0  0  0
   -6.4140    3.0616    0.0000 C   0  0  0  0  0  0  0  0  0  0  0  0
   -5.6640    1.7626    0.0000 C   0  0  0  0  0  0  0  0  0  0  0  0
   -4.1640    1.7626    0.0000 N   0  0  0  0  0  0  0  0  0  0  0  0
   -3.4140    0.4635    0.0000 C   0  0  0  0  0  0  0  0  0  0  0  0
   -4.1640   -0.8355    0.0000 O   0  0  0  0  0  0  0  0  0  0  0  0
   -1.9140    0.4635    0.0000 C   0  0  0  0  0  0  0  0  0  0  0  0
   -1.0323    1.6771    0.0000 C   0  0  0  0  0  0  0  0  0  0  0  0
    0.3943    1.2135    0.0000 C   0  0  0  0  0  0  0  0  0  0  0  0
    1.2760    0.0000    0.0000 C   0  0  0  0  0  0  0  0  0  0  0  0
    0.3943   -1.2135    0.0000 C   0  0  0  0  0  0  0  0  0  0  0  0
   -1.0323   -0.7500    0.0000 C   0  0  0  0  0  0  0  0  0  0  0  0
   -1.0323    0.7500    0.0000 C   0  0  0  0  0  0  0  0  0  0  0  0
   -3.4140    3.0616    0.0000 C   0  0  0  0  0  0  0  0  0  0  0  0
   -4.1640    4.3606    0.0000 C   0  0  0  0  0  0  0  0  0  0  0  0
  1  2  2  0
  2  3  1  0
  3  4  2  0
  4  5  1  0
  5  6  2  0
  6  7  1  0
  6  8  1  0
  8  9  2  0
  2 10  1  0
 10 11  1  0
 11 12  1  0
 12 13  1  0
 13 14  1  0
 14 15  2  0
 16 14  1  6
 16 17  1  0
 18 17  1  1
 18 19  1  0
 19 20  1  0
 21 20  1  1
 21 22  1  0
 13 23  1  0
 23 24  1  0
  9  3  1  0
 24 10  1  0
 21 16  1  0
 22 18  1  0
M  END
>  <Compound_ID>  (578) 
C32898950

>  <Active>  (578) 
0.0

>  <Smiles>  (578) 
O=C(c1ccc(O)cc1)C1CCN(C(=O)[C@@H]2C[C@H]3CC[C@@H]2C3)CC1

>  <canonical_smi>  (578) 
O=C(c1ccc(O)cc1)C1CCN(C(=O)[C@@H]2C[C@H]3CC[C@@H]2C3)CC1

>  <Set>  (578) 
G2 inactive

>  <Set_type>  (578) 
Train

>  <MW>  (578) 
327.42

>  <HBD>  (578) 
1

>  <HBA>  (578) 
3

>  <NRB>  (578) 
3

>  <NR>  (578) 
4

>  <NAR>  (578) 
1

>  <PSA>  (578) 
57.61

>  <Standard Type>  (578) 
nan

>  <Standard Relation>  (578) 
nan

>  <Standard Units>  (578) 
nan

>  <Standard Value>  (578) 
nan

>  <Assay ChEMBL ID>  (578) 
nan

>  <Assay Description>  (578) 
nan

>  <BAO Label>  (578) 
nan

$$$$

     RDKit          2D

 22 24  0  0  0  0  0  0  0  0999 V2000
    3.7500   -1.2990    0.0000 C   0  0  0  0  0  0  0  0  0  0  0  0
    3.0000    0.0000    0.0000 C   0  0  0  0  0  0  0  0  0  0  0  0
    1.5000    0.0000    0.0000 C   0  0  0  0  0  0  0  0  0  0  0  0
    0.7500   -1.2990    0.0000 C   0  0  0  0  0  0  0  0  0  0  0  0
   -0.7500   -1.2990    0.0000 C   0  0  0  0  0  0  0  0  0  0  0  0
   -1.5000    0.0000    0.0000 C   0  0  0  0  0  0  0  0  0  0  0  0
   -0.7500    1.2990    0.0000 C   0  0  0  0  0  0  0  0  0  0  0  0
   -1.2135    2.7256    0.0000 C   0  0  0  0  0  0  0  0  0  0  0  0
   -2.6401    3.1891    0.0000 C   0  0  0  0  0  0  0  0  0  0  0  0
   -2.9520    4.6564    0.0000 C   0  0  0  0  0  0  0  0  0  0  0  0
   -4.3223    5.2665    0.0000 C   0  0  0  0  0  0  0  0  0  0  0  0
   -5.6213    4.5165    0.0000 O   0  0  0  0  0  0  0  0  0  0  0  0
   -4.1655    6.7583    0.0000 N   0  0  0  0  0  0  0  0  0  0  0  0
   -5.2802    7.7620    0.0000 C   0  0  0  0  0  0  0  0  0  0  0  0
   -4.9684    9.2292    0.0000 C   0  0  0  0  0  0  0  0  0  0  0  0
   -2.6983    7.0701    0.0000 C   0  0  0  0  0  0  0  0  0  0  0  0
   -2.0882    8.4404    0.0000 S   0  0  0  0  0  0  0  0  0  0  0  0
   -1.9483    5.7711    0.0000 N   0  0  0  0  0  0  0  0  0  0  0  0
   -0.4565    5.6143    0.0000 C   0  0  0  0  0  0  0  0  0  0  0  0
    0.0000    3.6073    0.0000 C   0  0  0  0  0  0  0  0  0  0  0  0
    1.2135    2.7256    0.0000 N   0  0  0  0  0  0  0  0  0  0  0  0
    0.7500    1.2990    0.0000 C   0  0  0  0  0  0  0  0  0  0  0  0
  1  2  1  0
  2  3  1  0
  3  4  2  0
  4  5  1  0
  5  6  2  0
  6  7  1  0
  7  8  1  0
  8  9  1  0
  9 10  2  0
 10 11  1  0
 11 12  2  0
 11 13  1  0
 13 14  1  0
 14 15  1  0
 13 16  1  0
 16 17  2  0
 16 18  1  0
 18 19  1  0
  8 20  2  0
 20 21  1  0
 21 22  1  0
 22  3  1  0
 22  7  2  0
 18 10  1  0
M  END
>  <Compound_ID>  (579) 
C44598994

>  <Active>  (579) 
0.0

>  <Smiles>  (579) 
CCc1cccc2c(/C=C3/C(=O)N(CC)C(=S)N3C)c[nH]c12

>  <canonical_smi>  (579) 
CCc1cccc2c(/C=C3/C(=O)N(CC)C(=S)N3C)c[nH]c12

>  <Set>  (579) 
G2 inactive

>  <Set_type>  (579) 
Train

>  <MW>  (579) 
313.43

>  <HBD>  (579) 
1

>  <HBA>  (579) 
3

>  <NRB>  (579) 
3

>  <NR>  (579) 
3

>  <NAR>  (579) 
2

>  <PSA>  (579) 
39.34

>  <Standard Type>  (579) 
nan

>  <Standard Relation>  (579) 
nan

>  <Standard Units>  (579) 
nan

>  <Standard Value>  (579) 
nan

>  <Assay ChEMBL ID>  (579) 
nan

>  <Assay Description>  (579) 
nan

>  <BAO Label>  (579) 
nan

$$$$

     RDKit          2D

 18 20  0  0  0  0  0  0  0  0999 V2000
   -5.7221   -1.8037    0.0000 C   0  0  0  0  0  0  0  0  0  0  0  0
   -4.4231   -2.5537    0.0000 C   0  0  0  0  0  0  0  0  0  0  0  0
   -3.1240   -1.8037    0.0000 C   0  0  0  0  0  0  0  0  0  0  0  0
   -1.7537   -2.4138    0.0000 C   0  0  0  0  0  0  0  0  0  0  0  0
   -0.7500   -1.2990    0.0000 C   0  0  0  0  0  0  0  0  0  0  0  0
    0.7500   -1.2990    0.0000 C   0  0  0  0  0  0  0  0  0  0  0  0
    1.5000   -2.5981    0.0000 N   0  0  0  0  0  0  0  0  0  0  0  0
    2.9918   -2.7549    0.0000 C   0  0  0  0  0  0  0  0  0  0  0  0
    3.3037   -4.2221    0.0000 C   0  0  0  0  0  0  0  0  0  0  0  0
    4.6740   -4.8322    0.0000 Br  0  0  0  0  0  0  0  0  0  0  0  0
    2.0046   -4.9721    0.0000 C   0  0  0  0  0  0  0  0  0  0  0  0
    1.8478   -6.4639    0.0000 N   0  0  0  0  0  0  0  0  0  0  0  0
    0.8899   -3.9684    0.0000 N   0  0  0  0  0  0  0  0  0  0  0  0
    1.5000    0.0000    0.0000 N   0  0  0  0  0  0  0  0  0  0  0  0
    0.7500    1.2990    0.0000 C   0  0  0  0  0  0  0  0  0  0  0  0
   -0.7500    1.2990    0.0000 N   0  0  0  0  0  0  0  0  0  0  0  0
   -1.5000    0.0000    0.0000 C   0  0  0  0  0  0  0  0  0  0  0  0
   -2.9672   -0.3119    0.0000 S   0  0  0  0  0  0  0  0  0  0  0  0
  1  2  1  0
  2  3  1  0
  3  4  2  0
  4  5  1  0
  5  6  2  0
  6  7  1  0
  7  8  1  0
  8  9  2  0
  9 10  1  0
  9 11  1  0
 11 12  1  0
 11 13  2  0
  6 14  1  0
 14 15  2  0
 15 16  1  0
 16 17  2  0
 17 18  1  0
 18  3  1  0
 17  5  1  0
 13  7  1  0
M  END
>  <Compound_ID>  (580) 
C40517082

>  <Active>  (580) 
0.0

>  <Smiles>  (580) 
CCc1cc2c(-n3cc(Br)c(N)n3)ncnc2s1

>  <canonical_smi>  (580) 
CCc1cc2c(-n3cc(Br)c(N)n3)ncnc2s1

>  <Set>  (580) 
G2 inactive

>  <Set_type>  (580) 
Train

>  <MW>  (580) 
324.21

>  <HBD>  (580) 
1

>  <HBA>  (580) 
4

>  <NRB>  (580) 
2

>  <NR>  (580) 
3

>  <NAR>  (580) 
3

>  <PSA>  (580) 
69.62

>  <Standard Type>  (580) 
nan

>  <Standard Relation>  (580) 
nan

>  <Standard Units>  (580) 
nan

>  <Standard Value>  (580) 
nan

>  <Assay ChEMBL ID>  (580) 
nan

>  <Assay Description>  (580) 
nan

>  <BAO Label>  (580) 
nan

$$$$

     RDKit          2D

 24 26  0  0  0  0  0  0  0  0999 V2000
    1.5000   -5.1962    0.0000 C   0  0  0  0  0  0  0  0  0  0  0  0
    0.7500   -3.8971    0.0000 C   0  0  0  0  0  0  0  0  0  0  0  0
   -0.7500   -3.8971    0.0000 C   0  0  0  0  0  0  0  0  0  0  0  0
   -1.5000   -2.5981    0.0000 C   0  0  0  0  0  0  0  0  0  0  0  0
   -3.0000   -2.5981    0.0000 F   0  0  0  0  0  0  0  0  0  0  0  0
   -0.7500   -1.2990    0.0000 C   0  0  0  0  0  0  0  0  0  0  0  0
    0.7500   -1.2990    0.0000 C   0  0  0  0  0  0  0  0  0  0  0  0
    1.5000   -2.5981    0.0000 C   0  0  0  0  0  0  0  0  0  0  0  0
    1.5000    0.0000    0.0000 C   0  0  0  0  0  0  0  0  0  0  0  0
    0.7500    1.2990    0.0000 C   0  0  0  0  0  0  0  0  0  0  0  0
   -0.7500    1.2990    0.0000 C   0  0  0  0  0  0  0  0  0  0  0  0
   -1.5000    0.0000    0.0000 N   0  0  0  0  0  0  0  0  0  0  0  0
   -3.0000    0.0000    0.0000 C   0  0  0  0  0  0  0  0  0  0  0  0
   -3.7500    1.2990    0.0000 C   0  0  0  0  0  0  0  0  0  0  0  0
   -3.0000    2.5981    0.0000 O   0  0  0  0  0  0  0  0  0  0  0  0
   -5.2500    1.2990    0.0000 N   0  0  0  0  0  0  0  0  0  0  0  0
   -6.0000    2.5981    0.0000 C   0  0  0  0  0  0  0  0  0  0  0  0
   -7.4958    2.4860    0.0000 C   0  0  0  0  0  0  0  0  0  0  0  0
   -8.5161    3.5856    0.0000 C   0  0  0  0  0  0  0  0  0  0  0  0
   -8.2925    5.0688    0.0000 C   0  0  0  0  0  0  0  0  0  0  0  0
   -6.9935    5.8188    0.0000 C   0  0  0  0  0  0  0  0  0  0  0  0
   -5.5972    5.2708    0.0000 N   0  0  0  0  0  0  0  0  0  0  0  0
   -5.1550    3.8374    0.0000 C   0  0  0  0  0  0  0  0  0  0  0  0
   -3.6718    3.6139    0.0000 O   0  0  0  0  0  0  0  0  0  0  0  0
  1  2  1  0
  2  3  2  0
  3  4  1  0
  4  5  1  0
  4  6  2  0
  6  7  1  0
  7  8  2  0
  7  9  1  0
  9 10  1  0
 10 11  1  0
 11 12  1  0
 12 13  1  0
 13 14  1  0
 14 15  2  0
 14 16  1  0
 17 16  1  6
 17 18  1  0
 18 19  1  0
 19 20  1  0
 20 21  1  0
 21 22  1  0
 22 23  1  0
 23 24  2  0
  8  2  1  0
 23 17  1  0
 12  6  1  0
M  END
>  <Compound_ID>  (581) 
C52645353

>  <Active>  (581) 
0.0

>  <Smiles>  (581) 
Cc1cc(F)c2c(c1)CCCN2CC(=O)N[C@@H]1CCCCNC1=O

>  <canonical_smi>  (581) 
Cc1cc(F)c2c(c1)CCCN2CC(=O)N[C@@H]1CCCCNC1=O

>  <Set>  (581) 
G2 inactive

>  <Set_type>  (581) 
Train

>  <MW>  (581) 
333.41

>  <HBD>  (581) 
2

>  <HBA>  (581) 
3

>  <NRB>  (581) 
3

>  <NR>  (581) 
3

>  <NAR>  (581) 
1

>  <PSA>  (581) 
61.44

>  <Standard Type>  (581) 
nan

>  <Standard Relation>  (581) 
nan

>  <Standard Units>  (581) 
nan

>  <Standard Value>  (581) 
nan

>  <Assay ChEMBL ID>  (581) 
nan

>  <Assay Description>  (581) 
nan

>  <BAO Label>  (581) 
nan

$$$$

     RDKit          2D

 23 25  0  0  0  0  0  0  0  0999 V2000
    4.5000    0.0000    0.0000 N   0  0  0  0  0  0  0  0  0  0  0  0
    3.0000    0.0000    0.0000 C   0  0  0  0  0  0  0  0  0  0  0  0
    1.5000    0.0000    0.0000 C   0  0  0  0  0  0  0  0  0  0  0  0
    0.7500   -1.2990    0.0000 C   0  0  0  0  0  0  0  0  0  0  0  0
   -0.7500   -1.2990    0.0000 C   0  0  0  0  0  0  0  0  0  0  0  0
   -1.5000    0.0000    0.0000 C   0  0  0  0  0  0  0  0  0  0  0  0
   -3.0000    0.0000    0.0000 N   0  0  0  0  0  0  0  0  0  0  0  0
   -3.7500    1.2990    0.0000 C   0  0  0  0  0  0  0  0  0  0  0  0
   -5.2500    1.2990    0.0000 C   0  0  0  0  0  0  0  0  0  0  0  0
   -6.0000    0.0000    0.0000 C   0  0  0  0  0  0  0  0  0  0  0  0
   -7.5000    0.0000    0.0000 N   0  0  0  0  0  4  0  0  0  0  0  0
   -8.2500    1.2990    0.0000 C   0  0  0  0  0  0  0  0  0  0  0  0
   -9.7500    1.2990    0.0000 C   0  0  0  0  0  0  0  0  0  0  0  0
  -10.5000    2.5981    0.0000 C   0  0  0  0  0  0  0  0  0  0  0  0
  -12.0000    2.5981    0.0000 C   0  0  0  0  0  0  0  0  0  0  0  0
  -12.7500    1.2990    0.0000 C   0  0  0  0  0  0  0  0  0  0  0  0
  -12.0000    0.0000    0.0000 C   0  0  0  0  0  0  0  0  0  0  0  0
  -10.5000    0.0000    0.0000 C   0  0  0  0  0  0  0  0  0  0  0  0
   -9.7500   -1.2990    0.0000 O   0  0  0  0  0  0  0  0  0  0  0  0
   -5.2500   -1.2990    0.0000 C   0  0  0  0  0  0  0  0  0  0  0  0
   -3.7500   -1.2990    0.0000 C   0  0  0  0  0  0  0  0  0  0  0  0
   -0.7500    1.2990    0.0000 N   0  0  0  0  0  0  0  0  0  0  0  0
    0.7500    1.2990    0.0000 C   0  0  0  0  0  0  0  0  0  0  0  0
  1  2  3  0
  2  3  1  0
  3  4  2  0
  4  5  1  0
  5  6  2  0
  6  7  1  0
  7  8  1  0
  8  9  1  0
  9 10  1  0
 10 11  1  0
 11 12  2  0
 12 13  1  0
 13 14  2  0
 14 15  1  0
 15 16  2  0
 16 17  1  0
 17 18  2  0
 18 19  1  0
 10 20  1  0
 20 21  1  0
  6 22  1  0
 22 23  2  0
 23  3  1  0
 21  7  1  0
 18 13  1  0
M  CHG  1  11   1
M  END
>  <Compound_ID>  (582) 
C66255621

>  <Active>  (582) 
0.0

>  <Smiles>  (582) 
N#Cc1ccc(N2CCC(/[NH+]=C/c3ccccc3O)CC2)nc1

>  <canonical_smi>  (582) 
N#Cc1ccc(N2CCC(/[NH+]=C/c3ccccc3O)CC2)nc1

>  <Set>  (582) 
G2 inactive

>  <Set_type>  (582) 
Train

>  <MW>  (582) 
307.38

>  <HBD>  (582) 
2

>  <HBA>  (582) 
4

>  <NRB>  (582) 
3

>  <NR>  (582) 
3

>  <NAR>  (582) 
2

>  <PSA>  (582) 
74.12

>  <Standard Type>  (582) 
nan

>  <Standard Relation>  (582) 
nan

>  <Standard Units>  (582) 
nan

>  <Standard Value>  (582) 
nan

>  <Assay ChEMBL ID>  (582) 
nan

>  <Assay Description>  (582) 
nan

>  <BAO Label>  (582) 
nan

$$$$

     RDKit          2D

 25 29  0  0  0  0  0  0  0  0999 V2000
    6.1616    9.4823    0.0000 C   0  0  0  0  0  0  0  0  0  0  0  0
    4.7283    9.0402    0.0000 C   0  0  0  0  0  0  0  0  0  0  0  0
    3.6287   10.0604    0.0000 C   0  0  0  0  0  0  0  0  0  0  0  0
    2.1953    9.6183    0.0000 C   0  0  0  0  0  0  0  0  0  0  0  0
    1.8615    8.1559    0.0000 C   0  0  0  0  0  0  0  0  0  0  0  0
    2.9611    7.1357    0.0000 C   0  0  0  0  0  0  0  0  0  0  0  0
    2.6273    5.6733    0.0000 O   0  0  0  0  0  0  0  0  0  0  0  0
    1.1940    5.2311    0.0000 C   0  0  0  0  0  0  0  0  0  0  0  0
    0.8602    3.7687    0.0000 C   0  0  0  0  0  0  0  0  0  0  0  0
   -0.5191    3.1792    0.0000 N   0  0  0  0  0  0  0  0  0  0  0  0
   -0.3846    1.6852    0.0000 C   0  0  0  0  0  0  0  0  0  0  0  0
    1.0777    1.3515    0.0000 C   0  0  0  0  0  0  0  0  0  0  0  0
    1.8471    2.6391    0.0000 N   0  0  0  0  0  0  0  0  0  0  0  0
    1.7286    0.0000    0.0000 C   0  0  0  0  0  0  0  0  0  0  0  0
    1.0777   -1.3515    0.0000 C   0  0  0  0  0  0  0  0  0  0  0  0
   -0.3846   -1.6852    0.0000 C   0  0  0  0  0  0  0  0  0  0  0  0
   -1.5574   -0.7500    0.0000 N   0  0  0  0  0  0  0  0  0  0  0  0
   -1.5574    0.7500    0.0000 C   0  0  0  0  0  0  0  0  0  0  0  0
   -2.9088    1.4008    0.0000 O   0  0  0  0  0  0  0  0  0  0  0  0
    4.3945    7.5778    0.0000 C   0  0  0  0  0  0  0  0  0  0  0  0
    4.4046   10.0895    0.0000 C   0  0  0  0  0  0  0  0  0  0  0  0
    3.9625   11.5228    0.0000 C   0  0  0  0  0  0  0  0  0  0  0  0
    4.2962   12.9852    0.0000 C   0  0  0  0  0  0  0  0  0  0  0  0
    2.5291   11.0807    0.0000 C   0  0  0  0  0  0  0  0  0  0  0  0
    5.0620   10.5026    0.0000 C   0  0  0  0  0  0  0  0  0  0  0  0
  2  1  1  1
  2  3  1  0
  3  4  1  0
  4  5  1  0
  5  6  1  0
  6  7  1  0
  7  8  1  0
  8  9  1  0
  9 10  2  0
 10 11  1  0
 11 12  2  0
 12 13  1  0
 12 14  1  0
 14 15  1  0
 15 16  1  0
 16 17  1  0
 17 18  1  0
 18 19  2  0
  6 20  1  0
  6 21  1  0
 21 22  1  0
 22 23  1  6
 22 24  1  0
 22 25  1  0
 20  2  1  0
 25  2  1  0
 24  4  1  0
 13  9  1  0
 18 11  1  0
M  END
>  <Compound_ID>  (583) 
C65456112

>  <Active>  (583) 
0.0

>  <Smiles>  (583) 
C[C@]12CC3CC(OCc4nc5c([nH]4)CCCNC5=O)(C1)C[C@@](C)(C3)C2

>  <canonical_smi>  (583) 
C[C@@]12CC3CC(OCc4nc5c([nH]4)CCCNC5=O)(C1)C[C@](C)(C3)C2

>  <Set>  (583) 
G2 inactive

>  <Set_type>  (583) 
Train

>  <MW>  (583) 
343.47

>  <HBD>  (583) 
2

>  <HBA>  (583) 
3

>  <NRB>  (583) 
3

>  <NR>  (583) 
6

>  <NAR>  (583) 
1

>  <PSA>  (583) 
67.01

>  <Standard Type>  (583) 
nan

>  <Standard Relation>  (583) 
nan

>  <Standard Units>  (583) 
nan

>  <Standard Value>  (583) 
nan

>  <Assay ChEMBL ID>  (583) 
nan

>  <Assay Description>  (583) 
nan

>  <BAO Label>  (583) 
nan

$$$$

     RDKit          2D

 19 21  0  0  0  0  0  0  0  0999 V2000
    5.6669    8.0985    0.0000 C   0  0  0  0  0  0  0  0  0  0  0  0
    4.1751    8.2553    0.0000 C   0  0  0  0  0  0  0  0  0  0  0  0
    3.5650    9.6256    0.0000 C   0  0  0  0  0  0  0  0  0  0  0  0
    3.2934    7.0418    0.0000 C   0  0  0  0  0  0  0  0  0  0  0  0
    1.7934    7.0418    0.0000 C   0  0  0  0  0  0  0  0  0  0  0  0
    1.3299    5.6152    0.0000 C   0  0  0  0  0  0  0  0  0  0  0  0
   -0.0967    5.1517    0.0000 C   0  0  0  0  0  0  0  0  0  0  0  0
   -1.2114    6.1554    0.0000 O   0  0  0  0  0  0  0  0  0  0  0  0
   -0.4086    3.6844    0.0000 N   0  0  0  0  0  0  0  0  0  0  0  0
   -1.8351    3.2209    0.0000 C   0  0  0  0  0  0  0  0  0  0  0  0
   -2.1470    1.7537    0.0000 C   0  0  0  0  0  0  0  0  0  0  0  0
   -1.0323    0.7500    0.0000 C   0  0  0  0  0  0  0  0  0  0  0  0
    0.3943    1.2135    0.0000 C   0  0  0  0  0  0  0  0  0  0  0  0
    1.2760    0.0000    0.0000 C   0  0  0  0  0  0  0  0  0  0  0  0
    0.3943   -1.2135    0.0000 N   0  0  0  0  0  0  0  0  0  0  0  0
   -1.0323   -0.7500    0.0000 N   0  0  0  0  0  0  0  0  0  0  0  0
    0.7062    2.6807    0.0000 C   0  0  0  0  0  0  0  0  0  0  0  0
    2.5434    4.7335    0.0000 N   0  0  0  0  0  0  0  0  0  0  0  0
    3.7570    5.6152    0.0000 O   0  0  0  0  0  0  0  0  0  0  0  0
  1  2  1  0
  2  3  1  0
  2  4  1  0
  4  5  2  0
  5  6  1  0
  6  7  1  1
  7  8  2  0
  7  9  1  0
  9 10  1  0
 10 11  1  0
 11 12  1  0
 12 13  2  0
 13 14  1  0
 14 15  1  0
 15 16  2  0
 13 17  1  0
  6 18  1  0
 18 19  1  0
 19  4  1  0
 17  9  1  0
 16 12  1  0
M  END
>  <Compound_ID>  (584) 
C39413150

>  <Active>  (584) 
0.0

>  <Smiles>  (584) 
CC(C)C1=C[C@H](C(=O)N2CCC3=C(CN=N3)C2)NO1

>  <canonical_smi>  (584) 
CC(C)C1=C[C@H](C(=O)N2CCC3=C(CN=N3)C2)NO1

>  <Set>  (584) 
G2 inactive

>  <Set_type>  (584) 
Train

>  <MW>  (584) 
262.31

>  <HBD>  (584) 
1

>  <HBA>  (584) 
3

>  <NRB>  (584) 
2

>  <NR>  (584) 
3

>  <NAR>  (584) 
0

>  <PSA>  (584) 
66.29

>  <Standard Type>  (584) 
nan

>  <Standard Relation>  (584) 
nan

>  <Standard Units>  (584) 
nan

>  <Standard Value>  (584) 
nan

>  <Assay ChEMBL ID>  (584) 
nan

>  <Assay Description>  (584) 
nan

>  <BAO Label>  (584) 
nan

$$$$

     RDKit          2D

 17 19  0  0  0  0  0  0  0  0999 V2000
   -8.6562    2.3705    0.0000 C   0  0  0  0  0  0  0  0  0  0  0  0
   -7.2296    2.8340    0.0000 C   0  0  0  0  0  0  0  0  0  0  0  0
   -6.9177    4.3013    0.0000 C   0  0  0  0  0  0  0  0  0  0  0  0
   -5.4912    4.7648    0.0000 C   0  0  0  0  0  0  0  0  0  0  0  0
   -4.3764    3.7611    0.0000 C   0  0  0  0  0  0  0  0  0  0  0  0
   -4.6883    2.2939    0.0000 C   0  0  0  0  0  0  0  0  0  0  0  0
   -3.5736    1.2902    0.0000 N   0  0  0  0  0  0  0  0  0  0  0  0
   -2.1470    1.7537    0.0000 C   0  0  0  0  0  0  0  0  0  0  0  0
   -1.8351    3.2209    0.0000 C   0  0  0  0  0  0  0  0  0  0  0  0
   -0.4086    3.6844    0.0000 N   0  0  0  0  0  0  0  0  0  0  0  0
    0.7062    2.6807    0.0000 C   0  0  0  0  0  0  0  0  0  0  0  0
    0.3943    1.2135    0.0000 C   0  0  0  0  0  0  0  0  0  0  0  0
    1.2760    0.0000    0.0000 N   0  0  0  0  0  0  0  0  0  0  0  0
    0.3943   -1.2135    0.0000 N   0  0  0  0  0  0  0  0  0  0  0  0
   -1.0323   -0.7500    0.0000 N   0  0  0  0  0  0  0  0  0  0  0  0
   -1.0323    0.7500    0.0000 N   0  0  0  0  0  0  0  0  0  0  0  0
   -6.1149    1.8303    0.0000 C   0  0  0  0  0  0  0  0  0  0  0  0
  2  1  1  6
  2  3  1  0
  3  4  1  0
  4  5  1  0
  5  6  1  0
  6  7  1  1
  7  8  1  0
  8  9  2  0
  9 10  1  0
 10 11  2  0
 11 12  1  0
 12 13  2  0
 13 14  1  0
 14 15  2  0
 15 16  1  0
  6 17  1  0
 17  2  1  0
 16  8  1  0
 16 12  1  0
M  END
>  <Compound_ID>  (585) 
C44348631

>  <Active>  (585) 
0.0

>  <Smiles>  (585) 
C[C@@H]1CCC[C@@H](Nc2cncc3nnnn23)C1

>  <canonical_smi>  (585) 
C[C@@H]1CCC[C@@H](Nc2cncc3nnnn23)C1

>  <Set>  (585) 
G2 inactive

>  <Set_type>  (585) 
Train

>  <MW>  (585) 
232.29

>  <HBD>  (585) 
1

>  <HBA>  (585) 
5

>  <NRB>  (585) 
2

>  <NR>  (585) 
3

>  <NAR>  (585) 
2

>  <PSA>  (585) 
68.0

>  <Standard Type>  (585) 
nan

>  <Standard Relation>  (585) 
nan

>  <Standard Units>  (585) 
nan

>  <Standard Value>  (585) 
nan

>  <Assay ChEMBL ID>  (585) 
nan

>  <Assay Description>  (585) 
nan

>  <BAO Label>  (585) 
nan

$$$$

     RDKit          2D

 27 31  0  0  0  0  0  0  0  0999 V2000
    5.8385   16.2989    0.0000 F   0  0  0  0  0  0  0  0  0  0  0  0
    5.6817   14.8071    0.0000 C   0  0  0  0  0  0  0  0  0  0  0  0
    6.8952   13.9255    0.0000 C   0  0  0  0  0  0  0  0  0  0  0  0
    6.7384   12.4337    0.0000 C   0  0  0  0  0  0  0  0  0  0  0  0
    5.3681   11.8236    0.0000 C   0  0  0  0  0  0  0  0  0  0  0  0
    5.2113   10.3318    0.0000 O   0  0  0  0  0  0  0  0  0  0  0  0
    3.8410    9.7217    0.0000 C   0  0  0  0  0  0  0  0  0  0  0  0
    3.6842    8.2299    0.0000 C   0  0  0  0  0  0  0  0  0  0  0  0
    4.7989    7.2262    0.0000 C   0  0  0  0  0  0  0  0  0  0  0  0
    4.1888    5.8559    0.0000 C   0  0  0  0  0  0  0  0  0  0  0  0
    2.6970    6.0127    0.0000 C   0  0  0  0  0  0  0  0  0  0  0  0
    1.6933    4.8980    0.0000 C   0  0  0  0  0  0  0  0  0  0  0  0
    2.0052    3.4307    0.0000 N   0  0  0  0  0  0  0  0  0  0  0  0
    0.7062    2.6807    0.0000 C   0  0  0  0  0  0  0  0  0  0  0  0
    0.3943    1.2135    0.0000 C   0  0  0  0  0  0  0  0  0  0  0  0
    1.2760    0.0000    0.0000 C   0  0  0  0  0  0  0  0  0  0  0  0
    0.3943   -1.2135    0.0000 N   0  0  0  0  0  4  0  0  0  0  0  0
   -1.0323   -0.7500    0.0000 N   0  0  0  0  0  0  0  0  0  0  0  0
   -1.0323    0.7500    0.0000 C   0  0  0  0  0  0  0  0  0  0  0  0
   -2.1470    1.7537    0.0000 N   0  0  0  0  0  0  0  0  0  0  0  0
   -1.8351    3.2209    0.0000 C   0  0  0  0  0  0  0  0  0  0  0  0
   -0.4086    3.6844    0.0000 N   0  0  0  0  0  0  0  0  0  0  0  0
    0.2016    5.0548    0.0000 N   0  0  0  0  0  2  0  0  0  0  0  0
    2.3852    7.4799    0.0000 O   0  0  0  0  0  0  0  0  0  0  0  0
    4.1546   12.7053    0.0000 C   0  0  0  0  0  0  0  0  0  0  0  0
    2.7843   12.0952    0.0000 F   0  0  0  0  0  0  0  0  0  0  0  0
    4.3114   14.1970    0.0000 C   0  0  0  0  0  0  0  0  0  0  0  0
  1  2  1  0
  2  3  2  0
  3  4  1  0
  4  5  2  0
  5  6  1  0
  6  7  1  0
  7  8  1  0
  8  9  2  0
  9 10  1  0
 10 11  2  0
 11 12  1  0
 12 13  2  0
 13 14  1  0
 14 15  2  0
 15 16  1  0
 16 17  2  0
 17 18  1  0
 18 19  2  0
 19 20  1  0
 20 21  2  0
 21 22  1  0
 22 23  1  0
 11 24  1  0
  5 25  1  0
 25 26  1  0
 25 27  2  0
 27  2  1  0
 24  8  1  0
 23 12  1  0
 22 14  1  0
 19 15  1  0
M  CHG  2  17   1  23  -1
M  END
>  <Compound_ID>  (586) 
C17075547

>  <Active>  (586) 
0.0

>  <Smiles>  (586) 
Fc1ccc(OCc2ccc(-c3nc4c5c[nH+]nc-5ncn4[n-]3)o2)c(F)c1

>  <canonical_smi>  (586) 
Fc1ccc(OCc2ccc(-c3nc4c5c[nH+]nc-5ncn4[n-]3)o2)c(F)c1

>  <Set>  (586) 
G2 inactive

>  <Set_type>  (586) 
Train

>  <MW>  (586) 
368.3

>  <HBD>  (586) 
0

>  <HBA>  (586) 
6

>  <NRB>  (586) 
4

>  <NR>  (586) 
5

>  <NAR>  (586) 
5

>  <PSA>  (586) 
93.69

>  <Standard Type>  (586) 
nan

>  <Standard Relation>  (586) 
nan

>  <Standard Units>  (586) 
nan

>  <Standard Value>  (586) 
nan

>  <Assay ChEMBL ID>  (586) 
nan

>  <Assay Description>  (586) 
nan

>  <BAO Label>  (586) 
nan

$$$$

     RDKit          2D

 25 28  0  0  0  0  0  0  0  0999 V2000
   12.3296   -3.2202    0.0000 C   0  0  0  0  0  0  0  0  0  0  0  0
   10.9030   -2.7567    0.0000 C   0  0  0  0  0  0  0  0  0  0  0  0
    9.7883   -3.7603    0.0000 C   0  0  0  0  0  0  0  0  0  0  0  0
    8.3617   -3.2968    0.0000 C   0  0  0  0  0  0  0  0  0  0  0  0
    8.0498   -1.8296    0.0000 N   0  0  0  0  0  0  0  0  0  0  0  0
    6.6232   -1.3661    0.0000 C   0  0  0  0  0  0  0  0  0  0  0  0
    6.3114    0.1011    0.0000 O   0  0  0  0  0  0  0  0  0  0  0  0
    5.5085   -2.3698    0.0000 C   0  0  0  0  0  0  0  0  0  0  0  0
    4.0819   -1.9062    0.0000 S   0  0  0  0  0  0  0  0  0  0  0  0
    2.9672   -2.9099    0.0000 C   0  0  0  0  0  0  0  0  0  0  0  0
    3.1240   -4.4017    0.0000 N   0  0  0  0  0  0  0  0  0  0  0  0
    1.7537   -5.0118    0.0000 N   0  0  0  0  0  0  0  0  0  0  0  0
    0.7500   -3.8971    0.0000 C   0  0  0  0  0  0  0  0  0  0  0  0
   -0.7500   -3.8971    0.0000 N   0  0  0  0  0  0  0  0  0  0  0  0
   -1.5000   -2.5981    0.0000 C   0  0  0  0  0  0  0  0  0  0  0  0
   -3.0000   -2.5981    0.0000 O   0  0  0  0  0  0  0  0  0  0  0  0
   -0.7500   -1.2990    0.0000 C   0  0  0  0  0  0  0  0  0  0  0  0
    0.7500   -1.2990    0.0000 C   0  0  0  0  0  0  0  0  0  0  0  0
    1.5000   -2.5981    0.0000 N   0  0  0  0  0  0  0  0  0  0  0  0
    1.5000    0.0000    0.0000 C   0  0  0  0  0  0  0  0  0  0  0  0
    0.7500    1.2990    0.0000 C   0  0  0  0  0  0  0  0  0  0  0  0
   -0.7500    1.2990    0.0000 C   0  0  0  0  0  0  0  0  0  0  0  0
   -1.5000    0.0000    0.0000 C   0  0  0  0  0  0  0  0  0  0  0  0
    9.1645   -0.8259    0.0000 C   0  0  0  0  0  0  0  0  0  0  0  0
   10.5911   -1.2894    0.0000 C   0  0  0  0  0  0  0  0  0  0  0  0
  1  2  1  0
  2  3  1  0
  3  4  1  0
  4  5  1  0
  5  6  1  0
  6  7  2  0
  6  8  1  0
  8  9  1  0
  9 10  1  0
 10 11  2  0
 11 12  1  0
 12 13  2  0
 13 14  1  0
 14 15  1  0
 15 16  2  0
 15 17  1  0
 17 18  2  0
 18 19  1  0
 18 20  1  0
 20 21  1  0
 21 22  1  0
 22 23  1  0
  5 24  1  0
 24 25  1  0
 25  2  1  0
 19 10  1  0
 19 13  1  0
 23 17  1  0
M  END
>  <Compound_ID>  (587) 
C09520352

>  <Active>  (587) 
0.0

>  <Smiles>  (587) 
CC1CCN(C(=O)CSc2nnc3[nH]c(=O)c4c(n23)CCCC4)CC1

>  <canonical_smi>  (587) 
CC1CCN(C(=O)CSc2nnc3[nH]c(=O)c4c(n23)CCCC4)CC1

>  <Set>  (587) 
G2 inactive

>  <Set_type>  (587) 
Train

>  <MW>  (587) 
361.47

>  <HBD>  (587) 
1

>  <HBA>  (587) 
5

>  <NRB>  (587) 
3

>  <NR>  (587) 
4

>  <NAR>  (587) 
2

>  <PSA>  (587) 
83.36

>  <Standard Type>  (587) 
nan

>  <Standard Relation>  (587) 
nan

>  <Standard Units>  (587) 
nan

>  <Standard Value>  (587) 
nan

>  <Assay ChEMBL ID>  (587) 
nan

>  <Assay Description>  (587) 
nan

>  <BAO Label>  (587) 
nan

$$$$

     RDKit          2D

 22 24  0  0  0  0  0  0  0  0999 V2000
    2.7760    0.0000    0.0000 C   0  0  0  0  0  0  0  0  0  0  0  0
    1.2760    0.0000    0.0000 C   0  0  0  0  0  0  0  0  0  0  0  0
    0.3943    1.2135    0.0000 C   0  0  0  0  0  0  0  0  0  0  0  0
   -1.0323    0.7500    0.0000 C   0  0  0  0  0  0  0  0  0  0  0  0
   -1.0323   -0.7500    0.0000 C   0  0  0  0  0  0  0  0  0  0  0  0
    0.3943   -1.2135    0.0000 O   0  0  0  0  0  0  0  0  0  0  0  0
   -2.3313   -1.5000    0.0000 C   0  0  0  0  0  0  0  0  0  0  0  0
   -3.6304   -0.7500    0.0000 C   0  0  0  0  0  0  0  0  0  0  0  0
   -5.1076   -0.4895    0.0000 C   0  0  0  0  0  0  0  0  0  0  0  0
   -4.1434   -2.1595    0.0000 C   0  0  0  0  0  0  0  0  0  0  0  0
   -3.6304    0.7500    0.0000 C   0  0  0  0  0  0  0  0  0  0  0  0
   -2.3313    1.5000    0.0000 C   0  0  0  0  0  0  0  0  0  0  0  0
   -2.3313    3.0000    0.0000 N   0  0  0  0  0  4  0  0  0  0  0  0
   -3.6304    3.7500    0.0000 C   0  0  0  0  0  0  0  0  0  0  0  0
   -3.7872    5.2418    0.0000 C   0  0  0  0  0  0  0  0  0  0  0  0
   -2.6724    6.2455    0.0000 N   0  0  0  0  0  4  0  0  0  0  0  0
   -1.2459    5.7820    0.0000 O   0  0  0  0  0  0  0  0  0  0  0  0
   -2.9843    7.7127    0.0000 O   0  0  0  0  0  1  0  0  0  0  0  0
   -5.2544    5.5537    0.0000 N   0  0  0  0  0  0  0  0  0  0  0  0
   -6.0044    4.2546    0.0000 C   0  0  0  0  0  0  0  0  0  0  0  0
   -5.0007    3.1399    0.0000 N   0  0  0  0  0  0  0  0  0  0  0  0
   -5.3125    1.6727    0.0000 C   0  0  0  0  0  0  0  0  0  0  0  0
  1  2  1  0
  2  3  2  0
  3  4  1  0
  4  5  2  0
  5  6  1  0
  5  7  1  0
  7  8  1  0
  8  9  1  0
  8 10  1  0
  8 11  1  0
 11 12  1  0
 12 13  1  6
 13 14  2  0
 14 15  1  0
 15 16  1  6
 16 17  2  0
 16 18  1  0
 15 19  1  0
 19 20  2  0
 20 21  1  0
 21 22  1  0
  6  2  1  0
 21 14  1  0
 12  4  1  0
M  CHG  3  13   1  16   1  18  -1
M  END
>  <Compound_ID>  (588) 
C52324862

>  <Active>  (588) 
0.0

>  <Smiles>  (588) 
Cc1cc2c(o1)CC(C)(C)C[C@@H]2/[NH+]=C1/[C@@H]([N+](=O)[O-])N=CN1C

>  <canonical_smi>  (588) 
Cc1cc2c(o1)CC(C)(C)C[C@@H]2/[NH+]=C1/[C@@H]([N+](=O)[O-])N=CN1C

>  <Set>  (588) 
G2 inactive

>  <Set_type>  (588) 
Train

>  <MW>  (588) 
305.36

>  <HBD>  (588) 
1

>  <HBA>  (588) 
4

>  <NRB>  (588) 
2

>  <NR>  (588) 
3

>  <NAR>  (588) 
1

>  <PSA>  (588) 
85.85

>  <Standard Type>  (588) 
nan

>  <Standard Relation>  (588) 
nan

>  <Standard Units>  (588) 
nan

>  <Standard Value>  (588) 
nan

>  <Assay ChEMBL ID>  (588) 
nan

>  <Assay Description>  (588) 
nan

>  <BAO Label>  (588) 
nan

$$$$

     RDKit          2D

 23 25  0  0  0  0  0  0  0  0999 V2000
    4.6740   -4.8322    0.0000 O   0  0  0  0  0  0  0  0  0  0  0  0
    3.3037   -4.2221    0.0000 C   0  0  0  0  0  0  0  0  0  0  0  0
    2.9918   -2.7549    0.0000 N   0  0  0  0  0  0  0  0  0  0  0  0
    1.5000   -2.5981    0.0000 N   0  0  0  0  0  0  0  0  0  0  0  0
    0.7500   -1.2990    0.0000 C   0  0  0  0  0  0  0  0  0  0  0  0
    1.5000    0.0000    0.0000 C   0  0  0  0  0  0  0  0  0  0  0  0
    0.7500    1.2990    0.0000 C   0  0  0  0  0  0  0  0  0  0  0  0
   -0.7500    1.2990    0.0000 C   0  0  0  0  0  0  0  0  0  0  0  0
   -1.5000    0.0000    0.0000 C   0  0  0  0  0  0  0  0  0  0  0  0
   -0.7500   -1.2990    0.0000 C   0  0  0  0  0  0  0  0  0  0  0  0
    0.8899   -3.9684    0.0000 C   0  0  0  0  0  0  0  0  0  0  0  0
   -0.5773   -4.2803    0.0000 O   0  0  0  0  0  0  0  0  0  0  0  0
    2.0046   -4.9721    0.0000 C   0  0  0  0  0  0  0  0  0  0  0  0
    1.8478   -6.4639    0.0000 C   0  0  0  0  0  0  0  0  0  0  0  0
    3.0613   -7.3456    0.0000 C   0  0  0  0  0  0  0  0  0  0  0  0
    2.9046   -8.8373    0.0000 C   0  0  0  0  0  0  0  0  0  0  0  0
    4.1181   -9.7190    0.0000 C   0  0  0  0  0  0  0  0  0  0  0  0
    3.9613  -11.2108    0.0000 C   0  0  0  0  0  0  0  0  0  0  0  0
    5.1748  -12.0925    0.0000 C   0  0  0  0  0  0  0  0  0  0  0  0
    6.5451  -11.4824    0.0000 C   0  0  0  0  0  0  0  0  0  0  0  0
    6.7019   -9.9906    0.0000 C   0  0  0  0  0  0  0  0  0  0  0  0
    5.4884   -9.1089    0.0000 C   0  0  0  0  0  0  0  0  0  0  0  0
    5.6452   -7.6171    0.0000 Cl  0  0  0  0  0  0  0  0  0  0  0  0
  1  2  2  0
  2  3  1  0
  3  4  1  0
  4  5  1  0
  5  6  2  0
  6  7  1  0
  7  8  2  0
  8  9  1  0
  9 10  2  0
  4 11  1  0
 11 12  2  0
 11 13  1  0
 13 14  2  0
 14 15  1  0
 15 16  2  0
 16 17  1  0
 17 18  2  0
 18 19  1  0
 19 20  2  0
 20 21  1  0
 21 22  2  0
 22 23  1  0
 13  2  1  0
 22 17  1  0
 10  5  1  0
M  END
>  <Compound_ID>  (589) 
C00050606

>  <Active>  (589) 
0.0

>  <Smiles>  (589) 
O=C1NN(c2ccccc2)C(=O)/C1=C/C=C/c1ccccc1Cl

>  <canonical_smi>  (589) 
O=C1NN(c2ccccc2)C(=O)/C1=C/C=C/c1ccccc1Cl

>  <Set>  (589) 
G2 inactive

>  <Set_type>  (589) 
Train

>  <MW>  (589) 
324.77

>  <HBD>  (589) 
1

>  <HBA>  (589) 
2

>  <NRB>  (589) 
3

>  <NR>  (589) 
3

>  <NAR>  (589) 
2

>  <PSA>  (589) 
49.41

>  <Standard Type>  (589) 
nan

>  <Standard Relation>  (589) 
nan

>  <Standard Units>  (589) 
nan

>  <Standard Value>  (589) 
nan

>  <Assay ChEMBL ID>  (589) 
nan

>  <Assay Description>  (589) 
nan

>  <BAO Label>  (589) 
nan

$$$$

     RDKit          2D

 23 26  0  0  0  0  0  0  0  0999 V2000
    0.7500   -3.8971    0.0000 C   0  0  0  0  0  0  0  0  0  0  0  0
    1.5000   -2.5981    0.0000 C   0  0  0  0  0  0  0  0  0  0  0  0
    0.7500   -1.2990    0.0000 C   0  0  0  0  0  0  0  0  0  0  0  0
    1.5000    0.0000    0.0000 C   0  0  0  0  0  0  0  0  0  0  0  0
    0.7500    1.2990    0.0000 N   0  0  0  0  0  0  0  0  0  0  0  0
   -0.7500    1.2990    0.0000 C   0  0  0  0  0  0  0  0  0  0  0  0
   -1.5000    0.0000    0.0000 C   0  0  0  0  0  0  0  0  0  0  0  0
   -3.0000    0.0000    0.0000 C   0  0  0  0  0  0  0  0  0  0  0  0
   -3.7500    1.2990    0.0000 C   0  0  0  0  0  0  0  0  0  0  0  0
    1.7010   -0.7500    0.0000 C   0  0  0  0  0  0  0  0  0  0  0  0
    3.0000   -0.0000    0.0000 N   0  0  0  0  0  0  0  0  0  0  0  0
    2.2500   -1.2990    0.0000 C   0  0  0  0  0  0  0  0  0  0  0  0
    2.2500    1.2990    0.0000 C   0  0  0  0  0  0  0  0  0  0  0  0
    3.0000    2.5981    0.0000 C   0  0  0  0  0  0  0  0  0  0  0  0
    4.5000    2.5981    0.0000 C   0  0  0  0  0  0  0  0  0  0  0  0
    5.2500    3.8971    0.0000 C   0  0  0  0  0  0  0  0  0  0  0  0
    4.5000    5.1962    0.0000 O   0  0  0  0  0  0  0  0  0  0  0  0
    3.0000    5.1962    0.0000 C   0  0  0  0  0  0  0  0  0  0  0  0
    1.5905    5.7092    0.0000 C   0  0  0  0  0  0  0  0  0  0  0  0
    3.2605    6.6734    0.0000 C   0  0  0  0  0  0  0  0  0  0  0  0
    2.2500    3.8971    0.0000 C   0  0  0  0  0  0  0  0  0  0  0  0
   -0.7500   -1.2990    0.0000 C   0  0  0  0  0  0  0  0  0  0  0  0
   -1.5000   -2.5981    0.0000 O   0  0  0  0  0  0  0  0  0  0  0  0
  1  2  1  0
  2  3  1  0
  3  4  1  0
  4  5  1  0
  5  6  1  0
  6  7  1  0
  7  8  1  0
  8  9  1  0
  7 10  1  0
 10 11  1  0
 11 12  1  0
 11 13  1  0
 14 13  1  6
 14 15  1  0
 15 16  1  0
 16 17  1  0
 17 18  1  0
 18 19  1  0
 18 20  1  0
 18 21  1  0
  7 22  1  0
 22 23  1  0
 12  3  1  0
 21 14  1  0
 22  3  1  0
 13  5  1  0
M  END
>  <Compound_ID>  (590) 
C19331462

>  <Active>  (590) 
0.0

>  <Smiles>  (590) 
CCC12CN3CC(CC)(CN(C1)C3[C@H]1CCOC(C)(C)C1)C2O

>  <canonical_smi>  (590) 
CCC12CN3CC(CC)(CN(C1)C3[C@H]1CCOC(C)(C)C1)C2O

>  <Set>  (590) 
G2 inactive

>  <Set_type>  (590) 
Train

>  <MW>  (590) 
322.49

>  <HBD>  (590) 
1

>  <HBA>  (590) 
4

>  <NRB>  (590) 
3

>  <NR>  (590) 
5

>  <NAR>  (590) 
0

>  <PSA>  (590) 
35.94

>  <Standard Type>  (590) 
nan

>  <Standard Relation>  (590) 
nan

>  <Standard Units>  (590) 
nan

>  <Standard Value>  (590) 
nan

>  <Assay ChEMBL ID>  (590) 
nan

>  <Assay Description>  (590) 
nan

>  <BAO Label>  (590) 
nan

$$$$

     RDKit          2D

 23 26  0  0  0  0  0  0  0  0999 V2000
    3.0000   -2.5981    0.0000 O   0  0  0  0  0  1  0  0  0  0  0  0
    1.5000   -2.5981    0.0000 C   0  0  0  0  0  0  0  0  0  0  0  0
    0.7500   -1.2990    0.0000 C   0  0  0  0  0  0  0  0  0  0  0  0
    1.5000    0.0000    0.0000 C   0  0  0  0  0  0  0  0  0  0  0  0
    0.7500    1.2990    0.0000 C   0  0  0  0  0  0  0  0  0  0  0  0
   -0.7500    1.2990    0.0000 C   0  0  0  0  0  0  0  0  0  0  0  0
   -1.5000    0.0000    0.0000 C   0  0  0  0  0  0  0  0  0  0  0  0
   -0.7500   -1.2990    0.0000 C   0  0  0  0  0  0  0  0  0  0  0  0
   -1.5000   -2.5981    0.0000 C   0  0  0  0  0  0  0  0  0  0  0  0
   -3.0000   -2.5981    0.0000 C   0  0  0  0  0  0  0  0  0  0  0  0
   -3.7500   -3.8971    0.0000 S   0  0  0  0  0  0  0  0  0  0  0  0
   -3.7500   -1.2990    0.0000 N   0  0  0  0  0  0  0  0  0  0  0  0
   -5.2500   -1.2990    0.0000 C   0  0  0  0  0  0  0  0  0  0  0  0
   -6.0000   -2.5981    0.0000 C   0  0  0  0  0  0  0  0  0  0  0  0
   -7.5000   -2.5981    0.0000 C   0  0  0  0  0  0  0  0  0  0  0  0
   -8.2500   -1.2990    0.0000 C   0  0  0  0  0  0  0  0  0  0  0  0
   -7.5000   -0.0000    0.0000 C   0  0  0  0  0  0  0  0  0  0  0  0
   -6.0000   -0.0000    0.0000 N   0  0  0  0  0  0  0  0  0  0  0  0
   -0.7500   -3.8971    0.0000 C   0  0  0  0  0  0  0  0  0  0  0  0
   -1.2135   -5.3237    0.0000 N   0  0  0  0  0  4  0  0  0  0  0  0
   -0.0000   -6.2054    0.0000 C   0  0  0  0  0  0  0  0  0  0  0  0
    1.2135   -5.3237    0.0000 C   0  0  0  0  0  0  0  0  0  0  0  0
    0.7500   -3.8971    0.0000 N   0  0  0  0  0  0  0  0  0  0  0  0
  1  2  1  0
  2  3  2  0
  3  4  1  0
  4  5  2  0
  5  6  1  0
  6  7  2  0
  7  8  1  0
  8  9  2  0
  9 10  1  0
 10 11  2  0
 10 12  1  0
 12 13  2  0
 13 14  1  0
 14 15  2  0
 15 16  1  0
 16 17  2  0
 17 18  1  0
  9 19  1  0
 19 20  2  0
 20 21  1  0
 21 22  1  0
 22 23  1  0
 23  2  1  0
  8  3  1  0
 18 13  1  0
 23 19  1  0
M  CHG  2   1  -1  20   1
M  END
>  <Compound_ID>  (591) 
C40834858

>  <Active>  (591) 
0.0

>  <Smiles>  (591) 
[O-]C1=c2ccccc2=C(C(=S)/N=c2\cccc[nH]2)C2=[NH+]CCN21

>  <canonical_smi>  (591) 
[O-]C1=c2ccccc2=C(C(=S)/N=c2\cccc[nH]2)C2=[NH+]CCN21

>  <Set>  (591) 
G2 inactive

>  <Set_type>  (591) 
Train

>  <MW>  (591) 
322.39

>  <HBD>  (591) 
2

>  <HBA>  (591) 
3

>  <NRB>  (591) 
1

>  <NR>  (591) 
4

>  <NAR>  (591) 
2

>  <PSA>  (591) 
68.42

>  <Standard Type>  (591) 
nan

>  <Standard Relation>  (591) 
nan

>  <Standard Units>  (591) 
nan

>  <Standard Value>  (591) 
nan

>  <Assay ChEMBL ID>  (591) 
nan

>  <Assay Description>  (591) 
nan

>  <BAO Label>  (591) 
nan

$$$$

     RDKit          2D

 22 24  0  0  0  0  0  0  0  0999 V2000
    1.6386   -6.3385    0.0000 C   0  0  0  0  0  0  0  0  0  0  0  0
    0.4895   -5.3743    0.0000 C   0  0  0  0  0  0  0  0  0  0  0  0
    0.7500   -3.8971    0.0000 C   0  0  0  0  0  0  0  0  0  0  0  0
    2.1595   -4.4101    0.0000 C   0  0  0  0  0  0  0  0  0  0  0  0
    2.4200   -5.8874    0.0000 C   0  0  0  0  0  0  0  0  0  0  0  0
    1.5000   -2.5981    0.0000 O   0  0  0  0  0  0  0  0  0  0  0  0
    0.7500   -1.2990    0.0000 C   0  0  0  0  0  0  0  0  0  0  0  0
    1.5000    0.0000    0.0000 C   0  0  0  0  0  0  0  0  0  0  0  0
    0.7500    1.2990    0.0000 C   0  0  0  0  0  0  0  0  0  0  0  0
   -0.7500    1.2990    0.0000 C   0  0  0  0  0  0  0  0  0  0  0  0
   -1.5000    2.5981    0.0000 C   0  0  0  0  0  0  0  0  0  0  0  0
   -2.9918    2.7549    0.0000 C   0  0  0  0  0  0  0  0  0  0  0  0
   -3.3037    4.2221    0.0000 S   0  0  0  0  0  0  0  0  0  0  0  0
   -2.0046    4.9721    0.0000 C   0  0  0  0  0  0  0  0  0  0  0  0
   -1.8478    6.4639    0.0000 N   0  0  0  0  0  0  0  0  0  0  0  0
   -0.8899    3.9684    0.0000 N   0  0  0  0  0  0  0  0  0  0  0  0
   -1.5000    0.0000    0.0000 C   0  0  0  0  0  0  0  0  0  0  0  0
   -0.7500   -1.2990    0.0000 C   0  0  0  0  0  0  0  0  0  0  0  0
   -1.5000   -2.5981    0.0000 N   0  0  0  0  0  0  0  0  0  0  0  0
   -3.0000   -2.5981    0.0000 C   0  0  0  0  0  0  0  0  0  0  0  0
   -0.7500   -3.8971    0.0000 C   0  0  0  0  0  0  0  0  0  0  0  0
   -1.5000   -5.1962    0.0000 O   0  0  0  0  0  0  0  0  0  0  0  0
  1  2  1  0
  2  3  1  0
  3  4  1  0
  4  5  1  0
  3  6  1  0
  6  7  1  0
  7  8  2  0
  8  9  1  0
  9 10  2  0
 10 11  1  0
 11 12  2  0
 12 13  1  0
 13 14  1  0
 14 15  1  0
 14 16  2  0
 10 17  1  0
 17 18  2  0
 18 19  1  0
 19 20  1  0
 19 21  1  0
 21 22  2  0
 21  3  1  0
 18  7  1  0
 16 11  1  0
M  END
>  <Compound_ID>  (592) 
C58235534

>  <Active>  (592) 
0.0

>  <Smiles>  (592) 
CCC1(CC)Oc2ccc(-c3csc(N)n3)cc2N(C)C1=O

>  <canonical_smi>  (592) 
CCC1(CC)Oc2ccc(-c3csc(N)n3)cc2N(C)C1=O

>  <Set>  (592) 
G2 inactive

>  <Set_type>  (592) 
Train

>  <MW>  (592) 
317.41

>  <HBD>  (592) 
1

>  <HBA>  (592) 
4

>  <NRB>  (592) 
3

>  <NR>  (592) 
3

>  <NAR>  (592) 
2

>  <PSA>  (592) 
68.45

>  <Standard Type>  (592) 
nan

>  <Standard Relation>  (592) 
nan

>  <Standard Units>  (592) 
nan

>  <Standard Value>  (592) 
nan

>  <Assay ChEMBL ID>  (592) 
nan

>  <Assay Description>  (592) 
nan

>  <BAO Label>  (592) 
nan

$$$$

     RDKit          2D

 19 21  0  0  0  0  0  0  0  0999 V2000
   -3.7548   -2.1855    0.0000 C   0  0  0  0  0  0  0  0  0  0  0  0
   -2.6401   -3.1891    0.0000 C   0  0  0  0  0  0  0  0  0  0  0  0
   -2.9520   -4.6564    0.0000 C   0  0  0  0  0  0  0  0  0  0  0  0
   -1.2135   -2.7256    0.0000 N   0  0  0  0  0  0  0  0  0  0  0  0
   -0.0000   -3.6073    0.0000 C   0  0  0  0  0  0  0  0  0  0  0  0
   -0.0000   -5.1073    0.0000 C   0  0  0  0  0  0  0  0  0  0  0  0
    1.2135   -5.9890    0.0000 N   0  0  0  0  0  0  0  0  0  0  0  0
    0.7500   -7.4156    0.0000 N   0  0  0  0  0  0  0  0  0  0  0  0
   -0.7500   -7.4156    0.0000 C   0  0  0  0  0  0  0  0  0  0  0  0
   -1.6317   -8.6291    0.0000 N   0  0  0  0  0  0  0  0  0  0  0  0
   -1.2135   -5.9890    0.0000 N   0  0  0  0  0  0  0  0  0  0  0  0
    1.2135   -2.7256    0.0000 N   0  0  0  0  0  0  0  0  0  0  0  0
    0.7500   -1.2990    0.0000 C   0  0  0  0  0  0  0  0  0  0  0  0
    1.5000    0.0000    0.0000 C   0  0  0  0  0  0  0  0  0  0  0  0
    0.7500    1.2990    0.0000 C   0  0  0  0  0  0  0  0  0  0  0  0
    1.5000    2.5981    0.0000 Br  0  0  0  0  0  0  0  0  0  0  0  0
   -0.7500    1.2990    0.0000 C   0  0  0  0  0  0  0  0  0  0  0  0
   -1.5000    0.0000    0.0000 C   0  0  0  0  0  0  0  0  0  0  0  0
   -0.7500   -1.2990    0.0000 C   0  0  0  0  0  0  0  0  0  0  0  0
  1  2  1  0
  2  3  1  0
  2  4  1  0
  4  5  1  0
  5  6  1  0
  6  7  2  0
  7  8  1  0
  8  9  1  0
  9 10  1  0
  9 11  2  0
  5 12  2  0
 12 13  1  0
 13 14  2  0
 14 15  1  0
 15 16  1  0
 15 17  2  0
 17 18  1  0
 18 19  2  0
 19  4  1  0
 11  6  1  0
 19 13  1  0
M  END
>  <Compound_ID>  (593) 
C55163801

>  <Active>  (593) 
0.0

>  <Smiles>  (593) 
CC(C)n1c(-c2n[nH]c(N)n2)nc2cc(Br)ccc21

>  <canonical_smi>  (593) 
CC(C)n1c(-c2n[nH]c(N)n2)nc2cc(Br)ccc21

>  <Set>  (593) 
G2 inactive

>  <Set_type>  (593) 
Train

>  <MW>  (593) 
321.18

>  <HBD>  (593) 
2

>  <HBA>  (593) 
4

>  <NRB>  (593) 
2

>  <NR>  (593) 
3

>  <NAR>  (593) 
3

>  <PSA>  (593) 
85.41

>  <Standard Type>  (593) 
nan

>  <Standard Relation>  (593) 
nan

>  <Standard Units>  (593) 
nan

>  <Standard Value>  (593) 
nan

>  <Assay ChEMBL ID>  (593) 
nan

>  <Assay Description>  (593) 
nan

>  <BAO Label>  (593) 
nan

$$$$

     RDKit          2D

 32 36  0  0  0  0  0  0  0  0999 V2000
    3.7500   -1.2990    0.0000 C   0  0  0  0  0  0  0  0  0  0  0  0
    3.0000    0.0000    0.0000 O   0  0  0  0  0  0  0  0  0  0  0  0
    1.5000    0.0000    0.0000 C   0  0  0  0  0  0  0  0  0  0  0  0
    0.7500   -1.2990    0.0000 C   0  0  0  0  0  0  0  0  0  0  0  0
    1.5000   -2.5981    0.0000 O   0  0  0  0  0  0  0  0  0  0  0  0
   -0.7500   -1.2990    0.0000 C   0  0  0  0  0  0  0  0  0  0  0  0
   -1.5000    0.0000    0.0000 C   0  0  0  0  0  0  0  0  0  0  0  0
   -0.7500    1.2990    0.0000 C   0  0  0  0  0  0  0  0  0  0  0  0
    0.7500    1.2990    0.0000 C   0  0  0  0  0  0  0  0  0  0  0  0
    1.5000    2.5981    0.0000 C   0  0  0  0  0  0  0  0  0  0  0  0
    0.7500    3.8971    0.0000 C   0  0  0  0  0  0  0  0  0  0  0  0
   -0.7500    3.8971    0.0000 C   0  0  0  0  0  0  0  0  0  0  0  0
   -1.5000    5.1962    0.0000 C   0  0  0  0  0  0  0  0  0  0  0  0
   -3.0000    5.1962    0.0000 C   0  0  0  0  0  0  0  0  0  0  0  0
   -3.7500    6.4952    0.0000 C   0  0  0  0  0  0  0  0  0  0  0  0
   -5.2500    6.4952    0.0000 C   0  0  0  0  0  0  0  0  0  0  0  0
   -6.0000    5.1962    0.0000 C   0  0  0  0  0  0  0  0  0  0  0  0
   -5.2500    3.8971    0.0000 C   0  0  0  0  0  0  0  0  0  0  0  0
   -6.0000    2.5981    0.0000 C   0  0  0  0  0  0  0  0  0  0  0  0
   -3.7500    3.8971    0.0000 N   0  0  0  0  0  0  0  0  0  0  0  0
   -1.5000    2.5981    0.0000 O   0  0  0  0  0  0  0  0  0  0  0  0
    1.5000    5.1962    0.0000 C   0  0  0  0  0  0  0  0  0  0  0  0
    0.7500    6.4952    0.0000 C   0  0  0  0  0  0  0  0  0  0  0  0
   -0.7500    6.4952    0.0000 C   0  0  0  0  0  0  0  0  0  0  0  0
    1.5000    7.7942    0.0000 C   0  0  0  0  0  0  0  0  0  0  0  0
    3.0000    7.7942    0.0000 C   0  0  0  0  0  0  0  0  0  0  0  0
    4.4095    8.3073    0.0000 C   0  0  0  0  0  0  0  0  0  0  0  0
    2.7395    9.2714    0.0000 C   0  0  0  0  0  0  0  0  0  0  0  0
    3.7500    6.4952    0.0000 N   0  0  0  0  0  4  0  0  0  0  0  0
    3.0000    5.1962    0.0000 C   0  0  0  0  0  0  0  0  0  0  0  0
    3.7500    3.8971    0.0000 C   0  0  0  0  0  0  0  0  0  0  0  0
    3.0000    2.5981    0.0000 C   0  0  0  0  0  0  0  0  0  0  0  0
  1  2  1  0
  2  3  1  0
  3  4  2  0
  4  5  1  0
  4  6  1  0
  6  7  2  0
  7  8  1  0
  8  9  2  0
  9 10  1  0
 10 11  2  0
 11 12  1  0
 12 13  2  0
 13 14  1  0
 14 15  2  0
 15 16  1  0
 16 17  2  0
 17 18  1  0
 18 19  1  0
 18 20  2  0
 12 21  1  0
 11 22  1  0
 22 23  1  1
 23 24  1  0
 23 25  2  0
 25 26  1  0
 26 27  1  0
 26 28  1  0
 26 29  1  0
 30 29  1  1
 30 31  1  0
 31 32  2  0
  9  3  1  0
 32 10  1  0
 21  8  1  0
 30 22  1  0
 20 14  1  0
M  CHG  1  29   1
M  END
>  <Compound_ID>  (594) 
C28823565

>  <Active>  (594) 
0.0

>  <Smiles>  (594) 
COc1c(O)ccc2c1C1=C(/C(=C/c3cccc(C)n3)O2)[C@H]2C(C)=CC(C)(C)[NH2+][C@H]2C=C1

>  <canonical_smi>  (594) 
COc1c(O)ccc2c1C1=C(/C(=C/c3cccc(C)n3)O2)[C@H]2C(C)=CC(C)(C)[NH2+][C@H]2C=C1

>  <Set>  (594) 
G2 inactive

>  <Set_type>  (594) 
Train

>  <MW>  (594) 
429.54

>  <HBD>  (594) 
2

>  <HBA>  (594) 
4

>  <NRB>  (594) 
2

>  <NR>  (594) 
5

>  <NAR>  (594) 
2

>  <PSA>  (594) 
68.19

>  <Standard Type>  (594) 
nan

>  <Standard Relation>  (594) 
nan

>  <Standard Units>  (594) 
nan

>  <Standard Value>  (594) 
nan

>  <Assay ChEMBL ID>  (594) 
nan

>  <Assay Description>  (594) 
nan

>  <BAO Label>  (594) 
nan

$$$$

     RDKit          2D

 28 32  0  0  0  0  0  0  0  0999 V2000
   -8.3838   -0.0613    0.0000 C   0  0  0  0  0  0  0  0  0  0  0  0
   -7.3418   -1.1403    0.0000 C   0  0  0  0  0  0  0  0  0  0  0  0
   -8.5854   -1.9791    0.0000 C   0  0  0  0  0  0  0  0  0  0  0  0
   -6.7317   -2.5106    0.0000 C   0  0  0  0  0  0  0  0  0  0  0  0
   -5.2399   -2.6674    0.0000 C   0  0  0  0  0  0  0  0  0  0  0  0
   -4.3582   -1.4539    0.0000 C   0  0  0  0  0  0  0  0  0  0  0  0
   -4.9684   -0.0836    0.0000 C   0  0  0  0  0  0  0  0  0  0  0  0
   -4.0867    1.1300    0.0000 C   0  0  0  0  0  0  0  0  0  0  0  0
   -3.5980   -0.6937    0.0000 C   0  0  0  0  0  0  0  0  0  0  0  0
   -3.7548   -2.1855    0.0000 N   0  0  0  0  0  4  0  0  0  0  0  0
   -2.6401   -3.1891    0.0000 C   0  0  0  0  0  0  0  0  0  0  0  0
   -1.2135   -2.7256    0.0000 C   0  0  0  0  0  0  0  0  0  0  0  0
   -0.0000   -3.6073    0.0000 C   0  0  0  0  0  0  0  0  0  0  0  0
   -0.0000   -5.1073    0.0000 C   0  0  0  0  0  0  0  0  0  0  0  0
   -1.2990   -5.8573    0.0000 C   0  0  0  0  0  0  0  0  0  0  0  0
   -1.2990   -7.3573    0.0000 C   0  0  0  0  0  0  0  0  0  0  0  0
   -0.0000   -8.1073    0.0000 N   0  0  0  0  0  0  0  0  0  0  0  0
    1.2990   -7.3573    0.0000 C   0  0  0  0  0  0  0  0  0  0  0  0
    1.2990   -5.8573    0.0000 C   0  0  0  0  0  0  0  0  0  0  0  0
    1.2135   -2.7256    0.0000 N   0  0  0  0  0  0  0  0  0  0  0  0
    0.7500   -1.2990    0.0000 C   0  0  0  0  0  0  0  0  0  0  0  0
    1.5000    0.0000    0.0000 C   0  0  0  0  0  0  0  0  0  0  0  0
    0.7500    1.2990    0.0000 C   0  0  0  0  0  0  0  0  0  0  0  0
   -0.7500    1.2990    0.0000 C   0  0  0  0  0  0  0  0  0  0  0  0
   -1.5000    2.5981    0.0000 N   0  0  0  0  0  0  0  0  0  0  0  0
   -1.5000    0.0000    0.0000 C   0  0  0  0  0  0  0  0  0  0  0  0
   -0.7500   -1.2990    0.0000 N   0  0  0  0  0  0  0  0  0  0  0  0
   -6.4601    0.0732    0.0000 C   0  0  0  0  0  0  0  0  0  0  0  0
  1  2  1  0
  2  3  1  0
  2  4  1  0
  5  4  1  1
  5  6  1  0
  6  7  1  0
  7  8  1  6
  7  9  1  0
  9 10  1  0
 10 11  1  0
 11 12  1  0
 12 13  2  0
 13 14  1  0
 14 15  2  0
 15 16  1  0
 16 17  2  0
 17 18  1  0
 18 19  2  0
 13 20  1  0
 20 21  2  0
 21 22  1  0
 22 23  2  0
 23 24  1  0
 24 25  1  0
 24 26  2  0
 26 27  1  0
  7 28  1  0
 28  2  1  0
 10  5  1  0
 27 12  1  0
 19 14  1  0
 27 21  1  0
M  CHG  1  10   1
M  END
>  <Compound_ID>  (595) 
C36278220

>  <Active>  (595) 
0.0

>  <Smiles>  (595) 
CC1(C)C[C@H]2C[C@](C)(C[NH+]2Cc2c(-c3ccncc3)nc3ccc(N)cn23)C1

>  <canonical_smi>  (595) 
CC1(C)C[C@H]2C[C@](C)(C[NH+]2Cc2c(-c3ccncc3)nc3ccc(N)cn23)C1

>  <Set>  (595) 
G2 inactive

>  <Set_type>  (595) 
Train

>  <MW>  (595) 
376.53

>  <HBD>  (595) 
2

>  <HBA>  (595) 
3

>  <NRB>  (595) 
3

>  <NR>  (595) 
5

>  <NAR>  (595) 
3

>  <PSA>  (595) 
60.65

>  <Standard Type>  (595) 
nan

>  <Standard Relation>  (595) 
nan

>  <Standard Units>  (595) 
nan

>  <Standard Value>  (595) 
nan

>  <Assay ChEMBL ID>  (595) 
nan

>  <Assay Description>  (595) 
nan

>  <BAO Label>  (595) 
nan

$$$$

     RDKit          2D

 20 22  0  0  0  0  0  0  0  0999 V2000
    5.0369   -3.3768    0.0000 N   0  0  0  0  0  4  0  0  0  0  0  0
    4.6740   -4.8322    0.0000 C   0  0  0  0  0  0  0  0  0  0  0  0
    3.3037   -4.2221    0.0000 C   0  0  0  0  0  0  0  0  0  0  0  0
    2.0046   -4.9721    0.0000 N   0  0  0  0  0  0  0  0  0  0  0  0
    0.8899   -3.9684    0.0000 O   0  0  0  0  0  0  0  0  0  0  0  0
    1.5000   -2.5981    0.0000 C   0  0  0  0  0  0  0  0  0  0  0  0
    0.7500   -1.2990    0.0000 C   0  0  0  0  0  0  0  0  0  0  0  0
    1.5000    0.0000    0.0000 C   0  0  0  0  0  0  0  0  0  0  0  0
    0.7500    1.2990    0.0000 C   0  0  0  0  0  0  0  0  0  0  0  0
    1.5000    2.5981    0.0000 Br  0  0  0  0  0  0  0  0  0  0  0  0
   -0.7500    1.2990    0.0000 C   0  0  0  0  0  0  0  0  0  0  0  0
   -1.5000    0.0000    0.0000 C   0  0  0  0  0  0  0  0  0  0  0  0
   -0.7500   -1.2990    0.0000 C   0  0  0  0  0  0  0  0  0  0  0  0
   -1.5000   -2.5981    0.0000 Cl  0  0  0  0  0  0  0  0  0  0  0  0
    2.9918   -2.7549    0.0000 N   0  0  0  0  0  0  0  0  0  0  0  0
    3.8352   -6.0758    0.0000 C   0  0  0  0  0  0  0  0  0  0  0  0
    4.4927   -7.4239    0.0000 C   0  0  0  0  0  0  0  0  0  0  0  0
    5.9891   -7.5286    0.0000 C   0  0  0  0  0  0  0  0  0  0  0  0
    6.8279   -6.2850    0.0000 C   0  0  0  0  0  0  0  0  0  0  0  0
    6.1703   -4.9368    0.0000 C   0  0  0  0  0  0  0  0  0  0  0  0
  1  2  1  0
  2  3  1  0
  3  4  2  0
  4  5  1  0
  5  6  1  0
  6  7  1  0
  7  8  2  0
  8  9  1  0
  9 10  1  0
  9 11  2  0
 11 12  1  0
 12 13  2  0
 13 14  1  0
  6 15  2  0
  2 16  1  0
 16 17  1  0
 17 18  1  0
 18 19  1  0
 19 20  1  0
 20  2  1  0
 15  3  1  0
 13  7  1  0
M  CHG  1   1   1
M  END
>  <Compound_ID>  (596) 
C41153293

>  <Active>  (596) 
0.0

>  <Smiles>  (596) 
[NH3+]C1(c2noc(-c3cc(Br)ccc3Cl)n2)CCCCC1

>  <canonical_smi>  (596) 
[NH3+]C1(c2noc(-c3cc(Br)ccc3Cl)n2)CCCCC1

>  <Set>  (596) 
G2 inactive

>  <Set_type>  (596) 
Train

>  <MW>  (596) 
357.66

>  <HBD>  (596) 
1

>  <HBA>  (596) 
3

>  <NRB>  (596) 
2

>  <NR>  (596) 
3

>  <NAR>  (596) 
2

>  <PSA>  (596) 
66.56

>  <Standard Type>  (596) 
nan

>  <Standard Relation>  (596) 
nan

>  <Standard Units>  (596) 
nan

>  <Standard Value>  (596) 
nan

>  <Assay ChEMBL ID>  (596) 
nan

>  <Assay Description>  (596) 
nan

>  <BAO Label>  (596) 
nan

$$$$

     RDKit          2D

 26 29  0  0  0  0  0  0  0  0999 V2000
    5.2500    1.2990    0.0000 N   0  0  0  0  0  0  0  0  0  0  0  0
    6.0000   -0.0000    0.0000 C   0  0  0  0  0  0  0  0  0  0  0  0
    5.2500   -1.2990    0.0000 N   0  0  0  0  0  0  0  0  0  0  0  0
    3.7500   -1.2990    0.0000 O   0  0  0  0  0  0  0  0  0  0  0  0
    3.0000   -2.5981    0.0000 C   0  0  0  0  0  0  0  0  0  0  0  0
    3.7500   -3.8971    0.0000 O   0  0  0  0  0  0  0  0  0  0  0  0
    1.5000   -2.5981    0.0000 N   0  0  0  0  0  0  0  0  0  0  0  0
    0.7500   -1.2990    0.0000 C   0  0  0  0  0  0  0  0  0  0  0  0
    1.5000    0.0000    0.0000 C   0  0  0  0  0  0  0  0  0  0  0  0
    0.7500    1.2990    0.0000 C   0  0  0  0  0  0  0  0  0  0  0  0
   -0.7500    1.2990    0.0000 C   0  0  0  0  0  0  0  0  0  0  0  0
   -1.5000    0.0000    0.0000 C   0  0  0  0  0  0  0  0  0  0  0  0
   -0.7500   -1.2990    0.0000 C   0  0  0  0  0  0  0  0  0  0  0  0
   -1.5000   -2.5981    0.0000 S   0  0  0  0  0  0  0  0  0  0  0  0
   -0.7500   -3.8971    0.0000 C   0  0  0  0  0  0  0  0  0  0  0  0
   -1.5000   -5.1962    0.0000 C   0  0  0  0  0  0  0  0  0  0  0  0
   -0.7500   -6.4952    0.0000 C   0  0  0  0  0  0  0  0  0  0  0  0
    0.7500   -6.4952    0.0000 C   0  0  0  0  0  0  0  0  0  0  0  0
    1.5000   -5.1962    0.0000 C   0  0  0  0  0  0  0  0  0  0  0  0
    0.7500   -3.8971    0.0000 C   0  0  0  0  0  0  0  0  0  0  0  0
    7.5000   -0.0000    0.0000 C   0  0  0  0  0  0  0  0  0  0  0  0
    8.2500   -1.2990    0.0000 C   0  0  0  0  0  0  0  0  0  0  0  0
    9.7500   -1.2990    0.0000 C   0  0  0  0  0  0  0  0  0  0  0  0
   10.5000   -0.0000    0.0000 N   0  0  0  0  0  4  0  0  0  0  0  0
    9.7500    1.2990    0.0000 C   0  0  0  0  0  0  0  0  0  0  0  0
    8.2500    1.2990    0.0000 C   0  0  0  0  0  0  0  0  0  0  0  0
  1  2  1  0
  2  3  2  0
  3  4  1  0
  4  5  1  0
  5  6  2  0
  5  7  1  0
  7  8  1  0
  8  9  2  0
  9 10  1  0
 10 11  2  0
 11 12  1  0
 12 13  2  0
 13 14  1  0
 14 15  1  0
 15 16  2  0
 16 17  1  0
 17 18  2  0
 18 19  1  0
 19 20  2  0
  2 21  1  0
 21 22  2  0
 22 23  1  0
 23 24  2  0
 24 25  1  0
 25 26  2  0
 20  7  1  0
 26 21  1  0
 13  8  1  0
 20 15  1  0
M  CHG  1  24   1
M  END
>  <Compound_ID>  (597) 
C04306571

>  <Active>  (597) 
0.0

>  <Smiles>  (597) 
N/C(=N\OC(=O)N1c2ccccc2Sc2ccccc21)c1cc[nH+]cc1

>  <canonical_smi>  (597) 
N/C(=N\OC(=O)N1c2ccccc2Sc2ccccc21)c1cc[nH+]cc1

>  <Set>  (597) 
G2 inactive

>  <Set_type>  (597) 
Train

>  <MW>  (597) 
363.42

>  <HBD>  (597) 
1

>  <HBA>  (597) 
4

>  <NRB>  (597) 
2

>  <NR>  (597) 
4

>  <NAR>  (597) 
3

>  <PSA>  (597) 
82.06

>  <Standard Type>  (597) 
nan

>  <Standard Relation>  (597) 
nan

>  <Standard Units>  (597) 
nan

>  <Standard Value>  (597) 
nan

>  <Assay ChEMBL ID>  (597) 
nan

>  <Assay Description>  (597) 
nan

>  <BAO Label>  (597) 
nan

$$$$

     RDKit          2D

 21 24  0  0  0  0  0  0  0  0999 V2000
   -0.0000   -5.1073    0.0000 O   0  0  0  0  0  0  0  0  0  0  0  0
   -0.0000   -3.6073    0.0000 C   0  0  0  0  0  0  0  0  0  0  0  0
    1.2135   -2.7256    0.0000 N   0  0  0  0  0  0  0  0  0  0  0  0
    0.7500   -1.2990    0.0000 C   0  0  0  0  0  0  0  0  0  0  0  0
    1.5000    0.0000    0.0000 C   0  0  0  0  0  0  0  0  0  0  0  0
    0.7500    1.2990    0.0000 C   0  0  0  0  0  0  0  0  0  0  0  0
    1.5000    2.5981    0.0000 F   0  0  0  0  0  0  0  0  0  0  0  0
   -0.7500    1.2990    0.0000 C   0  0  0  0  0  0  0  0  0  0  0  0
   -1.5000    2.5981    0.0000 Br  0  0  0  0  0  0  0  0  0  0  0  0
   -1.5000    0.0000    0.0000 C   0  0  0  0  0  0  0  0  0  0  0  0
   -0.7500   -1.2990    0.0000 C   0  0  0  0  0  0  0  0  0  0  0  0
   -1.2135   -2.7256    0.0000 C   0  0  0  0  0  0  0  0  0  0  0  0
   -2.6401   -3.1891    0.0000 N   0  0  0  0  0  0  0  0  0  0  0  0
   -2.9520   -4.6564    0.0000 C   0  0  0  0  0  0  0  0  0  0  0  0
   -1.9483   -5.7711    0.0000 C   0  0  0  0  0  0  0  0  0  0  0  0
   -2.6983   -7.0701    0.0000 C   0  0  0  0  0  0  0  0  0  0  0  0
   -4.1655   -6.7583    0.0000 N   0  0  0  0  0  4  0  0  0  0  0  0
   -5.2802   -7.7620    0.0000 C   0  0  0  0  0  0  0  0  0  0  0  0
   -5.7437   -9.1885    0.0000 C   0  0  0  0  0  0  0  0  0  0  0  0
   -6.7474   -8.0738    0.0000 C   0  0  0  0  0  0  0  0  0  0  0  0
   -4.3223   -5.2665    0.0000 C   0  0  0  0  0  0  0  0  0  0  0  0
  1  2  2  0
  2  3  1  0
  3  4  1  0
  4  5  2  0
  5  6  1  0
  6  7  1  0
  6  8  2  0
  8  9  1  0
  8 10  1  0
 10 11  2  0
 11 12  1  0
 12 13  1  1
 14 13  1  6
 14 15  1  0
 15 16  1  0
 16 17  1  0
 17 18  1  0
 18 19  1  0
 19 20  1  0
 17 21  1  0
 12  2  1  0
 21 14  1  0
 11  4  1  0
 20 18  1  0
M  CHG  1  17   1
M  END
>  <Compound_ID>  (598) 
C44687814

>  <Active>  (598) 
0.0

>  <Smiles>  (598) 
O=C1Nc2cc(F)c(Br)cc2[C@@H]1N[C@@H]1CC[NH+](C2CC2)C1

>  <canonical_smi>  (598) 
O=C1Nc2cc(F)c(Br)cc2[C@@H]1N[C@@H]1CC[NH+](C2CC2)C1

>  <Set>  (598) 
G2 inactive

>  <Set_type>  (598) 
Train

>  <MW>  (598) 
355.23

>  <HBD>  (598) 
3

>  <HBA>  (598) 
2

>  <NRB>  (598) 
3

>  <NR>  (598) 
4

>  <NAR>  (598) 
1

>  <PSA>  (598) 
45.57

>  <Standard Type>  (598) 
nan

>  <Standard Relation>  (598) 
nan

>  <Standard Units>  (598) 
nan

>  <Standard Value>  (598) 
nan

>  <Assay ChEMBL ID>  (598) 
nan

>  <Assay Description>  (598) 
nan

>  <BAO Label>  (598) 
nan

$$$$

     RDKit          2D

 25 29  0  0  0  0  0  0  0  0999 V2000
    3.0000    0.0000    0.0000 C   0  0  0  0  0  0  0  0  0  0  0  0
    1.5000    0.0000    0.0000 C   0  0  0  0  0  0  0  0  0  0  0  0
    0.7500   -1.2990    0.0000 C   0  0  0  0  0  0  0  0  0  0  0  0
   -0.7500   -1.2990    0.0000 C   0  0  0  0  0  0  0  0  0  0  0  0
   -1.5000    0.0000    0.0000 C   0  0  0  0  0  0  0  0  0  0  0  0
   -0.7500    1.2990    0.0000 C   0  0  0  0  0  0  0  0  0  0  0  0
    0.7500    1.2990    0.0000 C   0  0  0  0  0  0  0  0  0  0  0  0
   -1.5000    2.5981    0.0000 C   0  0  0  0  0  0  0  0  0  0  0  0
   -3.0000    2.5981    0.0000 C   0  0  0  0  0  0  0  0  0  0  0  0
   -3.7500    3.8971    0.0000 C   0  0  0  0  0  0  0  0  0  0  0  0
   -3.0000    5.1962    0.0000 S   0  0  0  0  0  1  0  0  0  0  0  0
   -5.2500    3.8971    0.0000 N   0  0  0  0  0  0  0  0  0  0  0  0
   -6.0000    2.5981    0.0000 C   0  0  0  0  0  0  0  0  0  0  0  0
   -7.5000    2.5981    0.0000 C   0  0  0  0  0  0  0  0  0  0  0  0
   -8.3817    3.8116    0.0000 C   0  0  0  0  0  0  0  0  0  0  0  0
   -9.8083    3.3481    0.0000 N   0  0  0  0  0  4  0  0  0  0  0  0
   -9.8083    1.8481    0.0000 C   0  0  0  0  0  0  0  0  0  0  0  0
  -10.9230    0.8444    0.0000 C   0  0  0  0  0  0  0  0  0  0  0  0
  -10.6111   -0.6228    0.0000 C   0  0  0  0  0  0  0  0  0  0  0  0
   -9.1845   -1.0864    0.0000 C   0  0  0  0  0  0  0  0  0  0  0  0
   -8.0698   -0.0827    0.0000 C   0  0  0  0  0  0  0  0  0  0  0  0
   -8.3817    1.3846    0.0000 C   0  0  0  0  0  0  0  0  0  0  0  0
   -5.2500    1.2990    0.0000 N   0  0  0  0  0  4  0  0  0  0  0  0
   -3.7500    1.2990    0.0000 C   0  0  0  0  0  0  0  0  0  0  0  0
   -3.0000    0.0000    0.0000 O   0  0  0  0  0  0  0  0  0  0  0  0
  1  2  1  0
  2  3  2  0
  3  4  1  0
  4  5  2  0
  5  6  1  0
  6  7  2  0
  6  8  1  0
  8  9  1  0
  9 10  2  0
 10 11  1  0
 10 12  1  0
 12 13  1  0
 13 14  2  0
 14 15  1  0
 15 16  2  0
 16 17  1  0
 17 18  2  0
 18 19  1  0
 19 20  2  0
 20 21  1  0
 21 22  2  0
 13 23  1  0
 23 24  2  0
 24 25  1  0
  7  2  1  0
 24  9  1  0
 25  5  1  0
 22 14  1  0
 22 17  1  0
M  CHG  3  11  -1  16   1  23   1
M  END
>  <Compound_ID>  (599) 
C66396951

>  <Active>  (599) 
0.0

>  <Smiles>  (599) 
Cc1ccc2c(c1)CC1=C([S-])N/C(=C3\C=[NH+]c4ccccc43)[NH+]=C1O2

>  <canonical_smi>  (599) 
Cc1ccc2c(c1)CC1=C([S-])N/C(=C3\C=[NH+]c4ccccc43)[NH+]=C1O2

>  <Set>  (599) 
G2 inactive

>  <Set_type>  (599) 
Train

>  <MW>  (599) 
346.44

>  <HBD>  (599) 
3

>  <HBA>  (599) 
3

>  <NRB>  (599) 
0

>  <NR>  (599) 
5

>  <NAR>  (599) 
2

>  <PSA>  (599) 
49.2

>  <Standard Type>  (599) 
nan

>  <Standard Relation>  (599) 
nan

>  <Standard Units>  (599) 
nan

>  <Standard Value>  (599) 
nan

>  <Assay ChEMBL ID>  (599) 
nan

>  <Assay Description>  (599) 
nan

>  <BAO Label>  (599) 
nan

$$$$

     RDKit          2D

 35 41  0  0  0  0  0  0  0  0999 V2000
    0.7958   -7.5073    0.0000 O   0  0  0  0  0  0  0  0  0  0  0  0
    1.9105   -6.5036    0.0000 C   0  0  0  0  0  0  0  0  0  0  0  0
    1.7537   -5.0118    0.0000 C   0  0  0  0  0  0  0  0  0  0  0  0
    3.1240   -4.4017    0.0000 C   0  0  0  0  0  0  0  0  0  0  0  0
    4.1277   -5.5164    0.0000 C   0  0  0  0  0  0  0  0  0  0  0  0
    5.6195   -5.3597    0.0000 O   0  0  0  0  0  0  0  0  0  0  0  0
    3.3777   -6.8155    0.0000 N   0  0  0  0  0  0  0  0  0  0  0  0
    3.9878   -8.1858    0.0000 C   0  0  0  0  0  0  0  0  0  0  0  0
    3.1061   -9.3993    0.0000 C   0  0  0  0  0  0  0  0  0  0  0  0
    3.7162  -10.7696    0.0000 C   0  0  0  0  0  0  0  0  0  0  0  0
    5.2080  -10.9264    0.0000 C   0  0  0  0  0  0  0  0  0  0  0  0
    6.0897   -9.7129    0.0000 C   0  0  0  0  0  0  0  0  0  0  0  0
    5.4796   -8.3426    0.0000 C   0  0  0  0  0  0  0  0  0  0  0  0
    2.9672   -2.9099    0.0000 C   0  0  0  0  0  0  0  0  0  0  0  0
    4.0819   -1.9062    0.0000 C   0  0  0  0  0  0  0  0  0  0  0  0
    3.7701   -0.4390    0.0000 O   0  0  0  0  0  0  0  0  0  0  0  0
    5.5085   -2.3698    0.0000 N   0  0  0  0  0  0  0  0  0  0  0  0
    5.9720   -3.7964    0.0000 N   0  0  0  0  0  0  0  0  0  0  0  0
    7.4720   -3.7964    0.0000 N   0  0  0  0  0  0  0  0  0  0  0  0
    7.9356   -2.3698    0.0000 C   0  0  0  0  0  0  0  0  0  0  0  0
    9.3059   -1.7597    0.0000 C   0  0  0  0  0  0  0  0  0  0  0  0
    9.4627   -0.2679    0.0000 C   0  0  0  0  0  0  0  0  0  0  0  0
    8.2492    0.6138    0.0000 C   0  0  0  0  0  0  0  0  0  0  0  0
    6.8788    0.0037    0.0000 C   0  0  0  0  0  0  0  0  0  0  0  0
    6.7220   -1.4881    0.0000 C   0  0  0  0  0  0  0  0  0  0  0  0
    1.5000   -2.5981    0.0000 N   0  0  0  0  0  0  0  0  0  0  0  0
    0.7500   -1.2990    0.0000 C   0  0  0  0  0  0  0  0  0  0  0  0
    1.5000    0.0000    0.0000 C   0  0  0  0  0  0  0  0  0  0  0  0
    0.7500    1.2990    0.0000 C   0  0  0  0  0  0  0  0  0  0  0  0
   -0.7500    1.2990    0.0000 C   0  0  0  0  0  0  0  0  0  0  0  0
   -1.5000    0.0000    0.0000 C   0  0  0  0  0  0  0  0  0  0  0  0
   -0.7500   -1.2990    0.0000 C   0  0  0  0  0  0  0  0  0  0  0  0
   -1.5000   -2.5981    0.0000 C   0  0  0  0  0  0  0  0  0  0  0  0
   -0.7500   -3.8971    0.0000 C   0  0  0  0  0  0  0  0  0  0  0  0
    0.7500   -3.8971    0.0000 C   0  0  0  0  0  0  0  0  0  0  0  0
  1  2  2  0
  3  2  1  1
  3  4  1  0
  4  5  1  1
  5  6  2  0
  5  7  1  0
  7  8  1  0
  8  9  2  0
  9 10  1  0
 10 11  2  0
 11 12  1  0
 12 13  2  0
  4 14  1  0
 14 15  1  1
 15 16  2  0
 15 17  1  0
 17 18  1  0
 18 19  2  0
 19 20  1  0
 20 21  2  0
 21 22  1  0
 22 23  2  0
 23 24  1  0
 24 25  2  0
 14 26  1  0
 26 27  1  0
 27 28  2  0
 28 29  1  0
 29 30  2  0
 30 31  1  0
 31 32  2  0
 32 33  1  0
 33 34  2  0
 35 34  1  6
  7  2  1  0
 13  8  1  0
 25 17  1  0
 35 26  1  0
 35  3  1  0
 25 20  1  0
 32 27  1  0
M  END
>  <Compound_ID>  (600) 
C17861394

>  <Active>  (600) 
0.0

>  <Smiles>  (600) 
O=C1[C@@H]2[C@H](C(=O)N1c1ccccc1)[C@H](C(=O)n1nnc3ccccc31)N1c3ccccc3C=C[C@@H]21

>  <canonical_smi>  (600) 
O=C1[C@H]2[C@@H](C(=O)N1c1ccccc1)[C@@H]1C=Cc3ccccc3N1[C@H]2C(=O)n1nnc2ccccc21

>  <Set>  (600) 
G2 inactive

>  <Set_type>  (600) 
Train

>  <MW>  (600) 
461.48

>  <HBD>  (600) 
0

>  <HBA>  (600) 
6

>  <NRB>  (600) 
2

>  <NR>  (600) 
7

>  <NAR>  (600) 
4

>  <PSA>  (600) 
88.4

>  <Standard Type>  (600) 
nan

>  <Standard Relation>  (600) 
nan

>  <Standard Units>  (600) 
nan

>  <Standard Value>  (600) 
nan

>  <Assay ChEMBL ID>  (600) 
nan

>  <Assay Description>  (600) 
nan

>  <BAO Label>  (600) 
nan

$$$$

     RDKit          2D

 30 33  0  0  0  0  0  0  0  0999 V2000
   -0.7500   -9.0933    0.0000 C   0  0  0  0  0  0  0  0  0  0  0  0
    0.7500   -9.0933    0.0000 C   0  0  0  0  0  0  0  0  0  0  0  0
    1.5000  -10.3923    0.0000 C   0  0  0  0  0  0  0  0  0  0  0  0
    0.7500  -11.6913    0.0000 C   0  0  0  0  0  0  0  0  0  0  0  0
   -0.0000  -12.9904    0.0000 N   0  0  0  0  0  0  0  0  0  0  0  0
    3.0000  -10.3923    0.0000 C   0  0  0  0  0  0  0  0  0  0  0  0
    3.7500  -11.6913    0.0000 O   0  0  0  0  0  0  0  0  0  0  0  0
    3.7500   -9.0933    0.0000 N   0  0  0  0  0  0  0  0  0  0  0  0
    5.2500   -9.0933    0.0000 C   0  0  0  0  0  0  0  0  0  0  0  0
    3.0000   -7.7942    0.0000 C   0  0  0  0  0  0  0  0  0  0  0  0
    3.7500   -6.4952    0.0000 O   0  0  0  0  0  0  0  0  0  0  0  0
    1.5000   -7.7942    0.0000 C   0  0  0  0  0  0  0  0  0  0  0  0
    0.7500   -6.4952    0.0000 C   0  0  0  0  0  0  0  0  0  0  0  0
    1.5000   -5.1962    0.0000 N   0  0  0  0  0  0  0  0  0  0  0  0
    0.7500   -3.8971    0.0000 N   0  0  0  0  0  0  0  0  0  0  0  0
    1.5000   -2.5981    0.0000 C   0  0  0  0  0  0  0  0  0  0  0  0
    3.0000   -2.5981    0.0000 O   0  0  0  0  0  0  0  0  0  0  0  0
    0.7500   -1.2990    0.0000 C   0  0  0  0  0  0  0  0  0  0  0  0
    1.5000    0.0000    0.0000 C   0  0  0  0  0  0  0  0  0  0  0  0
    0.7500    1.2990    0.0000 C   0  0  0  0  0  0  0  0  0  0  0  0
   -0.7500    1.2990    0.0000 C   0  0  0  0  0  0  0  0  0  0  0  0
   -1.5000    0.0000    0.0000 C   0  0  0  0  0  0  0  0  0  0  0  0
   -3.0000   -0.0000    0.0000 C   0  0  0  0  0  0  0  0  0  0  0  0
   -3.7500    1.2990    0.0000 Br  0  0  0  0  0  0  0  0  0  0  0  0
   -3.7500   -1.2990    0.0000 C   0  0  0  0  0  0  0  0  0  0  0  0
   -3.0000   -2.5981    0.0000 C   0  0  0  0  0  0  0  0  0  0  0  0
   -1.5000   -2.5981    0.0000 C   0  0  0  0  0  0  0  0  0  0  0  0
   -0.7500   -1.2990    0.0000 C   0  0  0  0  0  0  0  0  0  0  0  0
   -0.7500   -3.8971    0.0000 C   0  0  0  0  0  0  0  0  0  0  0  0
   -1.5000   -5.1962    0.0000 O   0  0  0  0  0  0  0  0  0  0  0  0
  1  2  1  0
  2  3  2  0
  3  4  1  0
  4  5  3  0
  3  6  1  0
  6  7  2  0
  6  8  1  0
  8  9  1  0
  8 10  1  0
 10 11  2  0
 10 12  1  0
 12 13  2  0
 13 14  1  0
 14 15  1  0
 15 16  1  0
 16 17  2  0
 16 18  1  0
 18 19  2  0
 19 20  1  0
 20 21  2  0
 21 22  1  0
 22 23  2  0
 23 24  1  0
 23 25  1  0
 25 26  2  0
 26 27  1  0
 27 28  2  0
 27 29  1  0
 29 30  2  0
 12  2  1  0
 29 15  1  0
 28 18  1  0
 28 22  1  0
M  END
>  <Compound_ID>  (601) 
C16693824

>  <Active>  (601) 
0.0

>  <Smiles>  (601) 
CC1=C(C#N)C(=O)N(C)C(=O)/C1=C\NN1C(=O)c2cccc3c(Br)ccc(c23)C1=O

>  <canonical_smi>  (601) 
CC1=C(C#N)C(=O)N(C)C(=O)/C1=C\NN1C(=O)c2cccc3c(Br)ccc(c23)C1=O

>  <Set>  (601) 
G2 inactive

>  <Set_type>  (601) 
Train

>  <MW>  (601) 
465.26

>  <HBD>  (601) 
1

>  <HBA>  (601) 
6

>  <NRB>  (601) 
2

>  <NR>  (601) 
4

>  <NAR>  (601) 
2

>  <PSA>  (601) 
110.58

>  <Standard Type>  (601) 
nan

>  <Standard Relation>  (601) 
nan

>  <Standard Units>  (601) 
nan

>  <Standard Value>  (601) 
nan

>  <Assay ChEMBL ID>  (601) 
nan

>  <Assay Description>  (601) 
nan

>  <BAO Label>  (601) 
nan

$$$$

     RDKit          2D

 22 23  0  0  0  0  0  0  0  0999 V2000
    3.0000    0.0000    0.0000 C   0  0  0  0  0  0  0  0  0  0  0  0
    1.5000    0.0000    0.0000 C   0  0  0  0  0  0  0  0  0  0  0  0
    0.7500   -1.2990    0.0000 C   0  0  0  0  0  0  0  0  0  0  0  0
   -0.7500   -1.2990    0.0000 C   0  0  0  0  0  0  0  0  0  0  0  0
   -1.5000    0.0000    0.0000 C   0  0  0  0  0  0  0  0  0  0  0  0
   -3.0000    0.0000    0.0000 C   0  0  0  0  0  0  0  0  0  0  0  0
   -3.7500    1.2990    0.0000 C   0  0  0  0  0  0  0  0  0  0  0  0
   -3.0000    2.5981    0.0000 C   0  0  0  0  0  0  0  0  0  0  0  0
   -1.5000    2.5981    0.0000 O   0  0  0  0  0  0  0  0  0  0  0  0
   -3.7500    3.8971    0.0000 N   0  0  0  0  0  0  0  0  0  0  0  0
   -3.0000    5.1962    0.0000 C   0  0  0  0  0  0  0  0  0  0  0  0
   -3.7500    6.4952    0.0000 C   0  0  0  0  0  0  0  0  0  0  0  0
   -3.0000    7.7942    0.0000 C   0  0  0  0  0  0  0  0  0  0  0  0
   -1.5000    7.7942    0.0000 N   0  0  0  0  0  0  0  0  0  0  0  0
   -3.7500    9.0933    0.0000 O   0  0  0  0  0  0  0  0  0  0  0  0
   -5.2500    6.4952    0.0000 C   0  0  0  0  0  0  0  0  0  0  0  0
   -6.0000    5.1962    0.0000 C   0  0  0  0  0  0  0  0  0  0  0  0
   -5.2500    3.8971    0.0000 C   0  0  0  0  0  0  0  0  0  0  0  0
   -6.0000    2.5981    0.0000 C   0  0  0  0  0  0  0  0  0  0  0  0
   -0.7500    1.2990    0.0000 C   0  0  0  0  0  0  0  0  0  0  0  0
    0.7500    1.2990    0.0000 C   0  0  0  0  0  0  0  0  0  0  0  0
    1.5000    2.5981    0.0000 Cl  0  0  0  0  0  0  0  0  0  0  0  0
  1  2  1  0
  2  3  2  0
  3  4  1  0
  4  5  2  0
  5  6  1  0
  6  7  2  0
  7  8  1  0
  8  9  2  0
  8 10  1  0
 10 11  1  0
 11 12  1  0
 12 13  1  1
 13 14  1  0
 13 15  2  0
 12 16  1  0
 16 17  1  0
 17 18  1  0
 18 19  1  1
  5 20  1  0
 20 21  2  0
 21 22  1  0
 21  2  1  0
 18 10  1  0
M  END
>  <Compound_ID>  (602) 
C56017322

>  <Active>  (602) 
0.0

>  <Smiles>  (602) 
Cc1ccc(/C=C\C(=O)N2C[C@H](C(N)=O)CC[C@@H]2C)cc1Cl

>  <canonical_smi>  (602) 
Cc1ccc(/C=C\C(=O)N2C[C@H](C(N)=O)CC[C@@H]2C)cc1Cl

>  <Set>  (602) 
G2 inactive

>  <Set_type>  (602) 
Train

>  <MW>  (602) 
320.82

>  <HBD>  (602) 
1

>  <HBA>  (602) 
2

>  <NRB>  (602) 
3

>  <NR>  (602) 
2

>  <NAR>  (602) 
1

>  <PSA>  (602) 
63.4

>  <Standard Type>  (602) 
nan

>  <Standard Relation>  (602) 
nan

>  <Standard Units>  (602) 
nan

>  <Standard Value>  (602) 
nan

>  <Assay ChEMBL ID>  (602) 
nan

>  <Assay Description>  (602) 
nan

>  <BAO Label>  (602) 
nan

$$$$

     RDKit          2D

 37 42  0  0  0  0  0  0  0  0999 V2000
    3.7017   -9.4243    0.0000 N   0  0  0  0  0  0  0  0  0  0  0  0
    2.2751   -8.9607    0.0000 C   0  0  0  0  0  0  0  0  0  0  0  0
    0.8486   -8.4972    0.0000 C   0  0  0  0  0  0  0  0  0  0  0  0
   -0.2662   -9.5009    0.0000 C   0  0  0  0  0  0  0  0  0  0  0  0
    0.0457  -10.9681    0.0000 N   0  0  0  0  0  0  0  0  0  0  0  0
   -1.6927   -9.0374    0.0000 O   0  0  0  0  0  0  0  0  0  0  0  0
   -2.0046   -7.5702    0.0000 C   0  0  0  0  0  0  0  0  0  0  0  0
   -3.3037   -6.8202    0.0000 N   0  0  0  0  0  0  0  0  0  0  0  0
   -2.9918   -5.3529    0.0000 N   0  0  0  0  0  4  0  0  0  0  0  0
   -1.5000   -5.1962    0.0000 C   0  0  0  0  0  0  0  0  0  0  0  0
   -0.7500   -3.8971    0.0000 C   0  0  0  0  0  0  0  0  0  0  0  0
    0.7500   -3.8971    0.0000 C   0  0  0  0  0  0  0  0  0  0  0  0
    1.5000   -2.5981    0.0000 C   0  0  0  0  0  0  0  0  0  0  0  0
    0.7500   -1.2990    0.0000 C   0  0  0  0  0  0  0  0  0  0  0  0
    1.5000    0.0000    0.0000 C   0  0  0  0  0  0  0  0  0  0  0  0
    0.7500    1.2990    0.0000 C   0  0  0  0  0  0  0  0  0  0  0  0
   -0.7500    1.2990    0.0000 C   0  0  0  0  0  0  0  0  0  0  0  0
   -1.5000    0.0000    0.0000 C   0  0  0  0  0  0  0  0  0  0  0  0
   -0.7500   -1.2990    0.0000 C   0  0  0  0  0  0  0  0  0  0  0  0
   -1.5000   -2.5981    0.0000 C   0  0  0  0  0  0  0  0  0  0  0  0
   -0.8899   -6.5665    0.0000 C   0  0  0  0  0  0  0  0  0  0  0  0
    0.5367   -7.0300    0.0000 C   0  0  0  0  0  0  0  0  0  0  0  0
    1.6514   -6.0263    0.0000 C   0  0  0  0  0  0  0  0  0  0  0  0
    1.4946   -4.5345    0.0000 C   0  0  0  0  0  0  0  0  0  0  0  0
    2.8649   -3.9244    0.0000 N   0  0  0  0  0  0  0  0  0  0  0  0
    3.1768   -2.4572    0.0000 C   0  0  0  0  0  0  0  0  0  0  0  0
    4.6034   -1.9937    0.0000 C   0  0  0  0  0  0  0  0  0  0  0  0
    4.9153   -0.5264    0.0000 N   0  0  0  0  0  0  0  0  0  0  0  0
    5.7181   -2.9974    0.0000 O   0  0  0  0  0  0  0  0  0  0  0  0
    3.8686   -5.0391    0.0000 N   0  0  0  0  0  0  0  0  0  0  0  0
    3.1186   -6.3382    0.0000 C   0  0  0  0  0  0  0  0  0  0  0  0
    3.7287   -7.7085    0.0000 C   0  0  0  0  0  0  0  0  0  0  0  0
    5.2205   -7.8653    0.0000 C   0  0  0  0  0  0  0  0  0  0  0  0
    5.8306   -9.2356    0.0000 C   0  0  0  0  0  0  0  0  0  0  0  0
    4.9489  -10.4491    0.0000 C   0  0  0  0  0  0  0  0  0  0  0  0
    3.4572  -10.2923    0.0000 C   0  0  0  0  0  0  0  0  0  0  0  0
    2.8471   -8.9220    0.0000 C   0  0  0  0  0  0  0  0  0  0  0  0
  1  2  3  0
  2  3  1  0
  3  4  2  0
  4  5  1  0
  4  6  1  0
  7  6  1  1
  7  8  1  0
  8  9  2  0
  9 10  1  0
 10 11  1  1
 11 12  2  0
 12 13  1  0
 13 14  2  0
 14 15  1  0
 15 16  2  0
 16 17  1  0
 17 18  2  0
 18 19  1  0
 19 20  2  0
 21 10  1  6
 21 22  1  0
 22 23  1  1
 23 24  2  0
 24 25  1  0
 25 26  1  0
 26 27  1  0
 27 28  1  0
 27 29  2  0
 25 30  1  0
 30 31  2  0
 31 32  1  0
 32 33  2  0
 33 34  1  0
 34 35  2  0
 35 36  1  0
 36 37  2  0
 22  3  1  0
 31 23  1  0
 37 32  1  0
 21  7  1  0
 20 11  1  0
 19 14  1  0
M  CHG  1   9   1
M  END
>  <Compound_ID>  (603) 
C39964303

>  <Active>  (603) 
0.0

>  <Smiles>  (603) 
N#CC1=C(N)O[C@H]2N=[NH+][C@@H](c3ccc4ccccc4c3)[C@@H]2[C@H]1c1cn(CC(N)=O)nc1-c1ccccc1

>  <canonical_smi>  (603) 
N#CC1=C(N)O[C@H]2N=[NH+][C@@H](c3ccc4ccccc4c3)[C@@H]2[C@H]1c1cn(CC(N)=O)nc1-c1ccccc1

>  <Set>  (603) 
G2 inactive

>  <Set_type>  (603) 
Train

>  <MW>  (603) 
490.55

>  <HBD>  (603) 
3

>  <HBA>  (603) 
5

>  <NRB>  (603) 
5

>  <NR>  (603) 
6

>  <NAR>  (603) 
4

>  <PSA>  (603) 
146.28

>  <Standard Type>  (603) 
nan

>  <Standard Relation>  (603) 
nan

>  <Standard Units>  (603) 
nan

>  <Standard Value>  (603) 
nan

>  <Assay ChEMBL ID>  (603) 
nan

>  <Assay Description>  (603) 
nan

>  <BAO Label>  (603) 
nan

$$$$

     RDKit          2D

 31 36  0  0  0  0  0  0  0  0999 V2000
    0.8981   -0.4611    0.0000 C   0  0  0  0  0  0  0  0  0  0  0  0
    0.9205    1.0388    0.0000 C   0  0  0  0  0  0  0  0  0  0  0  0
    0.1576    1.2699    0.0000 C   0  0  0  0  0  0  0  0  0  0  0  0
    2.2306    1.7692    0.0000 C   0  0  0  0  0  0  0  0  0  0  0  0
    3.5183    0.9999    0.0000 C   0  0  0  0  0  0  0  0  0  0  0  0
    4.8284    1.7304    0.0000 C   0  0  0  0  0  0  0  0  0  0  0  0
    4.8508    3.2302    0.0000 C   0  0  0  0  0  0  0  0  0  0  0  0
    3.5632    3.9996    0.0000 C   0  0  0  0  0  0  0  0  0  0  0  0
    2.2531    3.2691    0.0000 C   0  0  0  0  0  0  0  0  0  0  0  0
    3.8969    5.4619    0.0000 C   0  0  0  0  0  0  0  0  0  0  0  0
    4.3818    6.8814    0.0000 N   0  0  0  0  0  0  0  0  0  0  0  0
    3.3949    8.0110    0.0000 C   0  0  0  0  0  0  0  0  0  0  0  0
    3.8797    9.4305    0.0000 N   0  0  0  0  0  0  0  0  0  0  0  0
    1.9231    7.7212    0.0000 N   0  0  0  0  0  0  0  0  0  0  0  0
    1.4383    6.3017    0.0000 C   0  0  0  0  0  0  0  0  0  0  0  0
    0.0590    5.7121    0.0000 N   0  0  0  0  0  4  0  0  0  0  0  0
    0.1935    4.2182    0.0000 C   0  0  0  0  0  0  0  0  0  0  0  0
   -0.8268    3.1186    0.0000 C   0  0  0  0  0  0  0  0  0  0  0  0
   -0.3846    1.6852    0.0000 C   0  0  0  0  0  0  0  0  0  0  0  0
    1.0777    1.3515    0.0000 C   0  0  0  0  0  0  0  0  0  0  0  0
    2.0980    2.4510    0.0000 C   0  0  0  0  0  0  0  0  0  0  0  0
    1.6559    3.8844    0.0000 C   0  0  0  0  0  0  0  0  0  0  0  0
    2.4252    5.1721    0.0000 N   0  0  0  0  0  0  0  0  0  0  0  0
    1.7286    0.0000    0.0000 O   0  0  0  0  0  0  0  0  0  0  0  0
    1.0777   -1.3515    0.0000 C   0  0  0  0  0  0  0  0  0  0  0  0
   -0.3846   -1.6852    0.0000 C   0  0  0  0  0  0  0  0  0  0  0  0
   -1.5574   -0.7500    0.0000 C   0  0  0  0  0  0  0  0  0  0  0  0
   -1.5574    0.7500    0.0000 O   0  0  0  0  0  0  0  0  0  0  0  0
    5.3909    5.5964    0.0000 C   0  0  0  0  0  0  0  0  0  0  0  0
    6.1603    6.8841    0.0000 O   0  0  0  0  0  0  0  0  0  0  0  0
    5.9804    4.2171    0.0000 N   0  0  0  0  0  0  0  0  0  0  0  0
  1  2  1  0
  2  3  1  0
  2  4  1  0
  4  5  2  0
  5  6  1  0
  6  7  2  0
  7  8  1  0
  8  9  2  0
  8 10  1  0
 10 11  1  1
 11 12  1  0
 12 13  1  0
 12 14  2  0
 14 15  1  0
 15 16  2  0
 16 17  1  0
 17 18  2  0
 18 19  1  0
 19 20  2  0
 20 21  1  0
 21 22  2  0
 22 23  1  0
 20 24  1  0
 24 25  1  0
 25 26  1  0
 26 27  1  0
 27 28  1  0
 10 29  1  0
 29 30  2  0
 29 31  1  0
  9  4  1  0
 23 10  1  0
 31  7  1  0
 23 15  1  0
 22 17  1  0
 28 19  1  0
M  CHG  1  16   1
M  END
>  <Compound_ID>  (604) 
C57944911

>  <Active>  (604) 
0.0

>  <Smiles>  (604) 
CC(C)c1ccc2c(c1)[C@@]1(NC(N)=Nc3[nH+]c4cc5c(cc4n31)OCCCO5)C(=O)N2

>  <canonical_smi>  (604) 
CC(C)c1ccc2c(c1)[C@@]1(NC(N)=Nc3[nH+]c4cc5c(cc4n31)OCCCO5)C(=O)N2

>  <Set>  (604) 
G2 inactive

>  <Set_type>  (604) 
Train

>  <MW>  (604) 
419.47

>  <HBD>  (604) 
3

>  <HBA>  (604) 
5

>  <NRB>  (604) 
1

>  <NR>  (604) 
6

>  <NAR>  (604) 
3

>  <PSA>  (604) 
117.04

>  <Standard Type>  (604) 
nan

>  <Standard Relation>  (604) 
nan

>  <Standard Units>  (604) 
nan

>  <Standard Value>  (604) 
nan

>  <Assay ChEMBL ID>  (604) 
nan

>  <Assay Description>  (604) 
nan

>  <BAO Label>  (604) 
nan

$$$$

     RDKit          2D

 25 28  0  0  0  0  0  0  0  0999 V2000
    3.0000    0.0000    0.0000 C   0  0  0  0  0  0  0  0  0  0  0  0
    1.5000    0.0000    0.0000 C   0  0  0  0  0  0  0  0  0  0  0  0
    0.7500   -1.2990    0.0000 C   0  0  0  0  0  0  0  0  0  0  0  0
   -0.7500   -1.2990    0.0000 C   0  0  0  0  0  0  0  0  0  0  0  0
   -1.5000    0.0000    0.0000 C   0  0  0  0  0  0  0  0  0  0  0  0
   -2.9672    0.3119    0.0000 C   0  0  0  0  0  0  0  0  0  0  0  0
   -4.0819   -0.6918    0.0000 C   0  0  0  0  0  0  0  0  0  0  0  0
   -3.1240    1.8037    0.0000 C   0  0  0  0  0  0  0  0  0  0  0  0
   -4.4231    2.5537    0.0000 C   0  0  0  0  0  0  0  0  0  0  0  0
   -5.7221    1.8037    0.0000 O   0  0  0  0  0  0  0  0  0  0  0  0
   -4.4231    4.0537    0.0000 N   0  0  0  0  0  0  0  0  0  0  0  0
   -5.7221    4.8037    0.0000 C   0  0  0  0  0  0  0  0  0  0  0  0
   -7.0924    4.1935    0.0000 O   0  0  0  0  0  0  0  0  0  0  0  0
   -8.0961    5.3083    0.0000 N   0  0  0  0  0  0  0  0  0  0  0  0
   -7.3461    6.6073    0.0000 C   0  0  0  0  0  0  0  0  0  0  0  0
   -5.8789    6.2954    0.0000 C   0  0  0  0  0  0  0  0  0  0  0  0
   -4.8752    7.4102    0.0000 C   0  0  0  0  0  0  0  0  0  0  0  0
   -5.3387    8.8367    0.0000 C   0  0  0  0  0  0  0  0  0  0  0  0
   -4.3350    9.9515    0.0000 C   0  0  0  0  0  0  0  0  0  0  0  0
   -6.8059    9.1486    0.0000 C   0  0  0  0  0  0  0  0  0  0  0  0
   -7.8096    8.0339    0.0000 C   0  0  0  0  0  0  0  0  0  0  0  0
   -1.7537    2.4138    0.0000 O   0  0  0  0  0  0  0  0  0  0  0  0
   -0.7500    1.2990    0.0000 C   0  0  0  0  0  0  0  0  0  0  0  0
    0.7500    1.2990    0.0000 C   0  0  0  0  0  0  0  0  0  0  0  0
    1.5000    2.5981    0.0000 C   0  0  0  0  0  0  0  0  0  0  0  0
  1  2  1  0
  2  3  2  0
  3  4  1  0
  4  5  2  0
  5  6  1  0
  6  7  1  0
  6  8  2  0
  8  9  1  0
  9 10  2  0
  9 11  1  0
 11 12  1  0
 12 13  1  0
 13 14  1  0
 14 15  2  0
 15 16  1  0
 16 17  1  0
 17 18  1  0
 18 19  1  1
 18 20  1  0
 20 21  1  0
  8 22  1  0
 22 23  1  0
 23 24  2  0
 24 25  1  0
 24  2  1  0
 23  5  1  0
 16 12  2  0
 21 15  1  0
M  END
>  <Compound_ID>  (605) 
C27794555

>  <Active>  (605) 
0.0

>  <Smiles>  (605) 
Cc1ccc2c(C)c(C(=O)Nc3onc4c3C[C@H](C)CC4)oc2c1C

>  <canonical_smi>  (605) 
Cc1ccc2c(C)c(C(=O)Nc3onc4c3C[C@H](C)CC4)oc2c1C

>  <Set>  (605) 
G2 inactive

>  <Set_type>  (605) 
Train

>  <MW>  (605) 
338.41

>  <HBD>  (605) 
1

>  <HBA>  (605) 
4

>  <NRB>  (605) 
2

>  <NR>  (605) 
4

>  <NAR>  (605) 
3

>  <PSA>  (605) 
68.27

>  <Standard Type>  (605) 
nan

>  <Standard Relation>  (605) 
nan

>  <Standard Units>  (605) 
nan

>  <Standard Value>  (605) 
nan

>  <Assay ChEMBL ID>  (605) 
nan

>  <Assay Description>  (605) 
nan

>  <BAO Label>  (605) 
nan

$$$$

     RDKit          2D

 23 26  0  0  0  0  0  0  0  0999 V2000
   -0.4019    8.1073    0.0000 C   0  0  0  0  0  0  0  0  0  0  0  0
   -1.7010    7.3573    0.0000 C   0  0  0  0  0  0  0  0  0  0  0  0
   -1.7010    5.8573    0.0000 C   0  0  0  0  0  0  0  0  0  0  0  0
   -3.0000    5.1073    0.0000 C   0  0  0  0  0  0  0  0  0  0  0  0
   -3.0000    3.6073    0.0000 C   0  0  0  0  0  0  0  0  0  0  0  0
   -1.7865    2.7256    0.0000 N   0  0  0  0  0  0  0  0  0  0  0  0
   -2.2500    1.2990    0.0000 C   0  0  0  0  0  0  0  0  0  0  0  0
   -3.7500    1.2990    0.0000 C   0  0  0  0  0  0  0  0  0  0  0  0
   -4.2135    2.7256    0.0000 O   0  0  0  0  0  0  0  0  0  0  0  0
   -4.5000    0.0000    0.0000 N   0  0  0  0  0  0  0  0  0  0  0  0
   -3.7500   -1.2990    0.0000 C   0  0  0  0  0  0  0  0  0  0  0  0
   -4.5000   -2.5981    0.0000 N   0  0  0  0  0  0  0  0  0  0  0  0
   -2.2500   -1.2990    0.0000 C   0  0  0  0  0  0  0  0  0  0  0  0
   -1.5000   -2.5981    0.0000 C   0  0  0  0  0  0  0  0  0  0  0  0
   -0.7500   -3.8971    0.0000 N   0  0  0  0  0  0  0  0  0  0  0  0
   -1.5000    0.0000    0.0000 C   0  0  0  0  0  0  0  0  0  0  0  0
   -0.7500   -1.2990    0.0000 C   0  0  0  0  0  0  0  0  0  0  0  0
    0.7500   -1.2990    0.0000 N   0  0  0  0  0  4  0  0  0  0  0  0
    1.5000    0.0000    0.0000 C   0  0  0  0  0  0  0  0  0  0  0  0
    0.7500    1.2990    0.0000 C   0  0  0  0  0  0  0  0  0  0  0  0
   -0.7500    1.2990    0.0000 C   0  0  0  0  0  0  0  0  0  0  0  0
   -0.8000    0.0000    0.0000 C   0  0  0  0  0  0  0  0  0  0  0  0
   -0.4000   -0.6928    0.0000 C   0  0  0  0  0  0  0  0  0  0  0  0
  1  2  1  0
  2  3  1  0
  3  4  1  0
  4  5  1  0
  5  6  2  0
  6  7  1  0
  7  8  2  0
  8  9  1  0
  8 10  1  0
 10 11  1  0
 11 12  1  0
 11 13  2  0
 13 14  1  0
 14 15  3  0
 16 13  1  1
 16 17  1  0
 17 18  1  0
 18 19  1  0
 19 20  1  0
 20 21  1  0
 21 22  1  0
 22 23  1  0
  9  5  1  0
 21 16  1  0
 16  7  1  0
 23 18  1  0
M  CHG  1  18   1
M  END
>  <Compound_ID>  (606) 
C12410971

>  <Active>  (606) 
0.0

>  <Smiles>  (606) 
CCCCc1nc2c(o1)NC(N)=C(C#N)[C@@]21C[NH+]2CCC1CC2

>  <canonical_smi>  (606) 
CCCCc1nc2c(o1)NC(N)=C(C#N)[C@@]21C[NH+]2CCC1CC2

>  <Set>  (606) 
G2 inactive

>  <Set_type>  (606) 
Train

>  <MW>  (606) 
314.41

>  <HBD>  (606) 
3

>  <HBA>  (606) 
5

>  <NRB>  (606) 
3

>  <NR>  (606) 
5

>  <NAR>  (606) 
1

>  <PSA>  (606) 
92.31

>  <Standard Type>  (606) 
nan

>  <Standard Relation>  (606) 
nan

>  <Standard Units>  (606) 
nan

>  <Standard Value>  (606) 
nan

>  <Assay ChEMBL ID>  (606) 
nan

>  <Assay Description>  (606) 
nan

>  <BAO Label>  (606) 
nan

$$$$

     RDKit          2D

 21 22  0  0  0  0  0  0  0  0999 V2000
    3.0000    0.0000    0.0000 C   0  0  0  0  0  0  0  0  0  0  0  0
    1.5000    0.0000    0.0000 C   0  0  0  0  0  0  0  0  0  0  0  0
    0.7500   -1.2990    0.0000 C   0  0  0  0  0  0  0  0  0  0  0  0
   -0.7500   -1.2990    0.0000 C   0  0  0  0  0  0  0  0  0  0  0  0
   -1.5000    0.0000    0.0000 C   0  0  0  0  0  0  0  0  0  0  0  0
   -0.7500    1.2990    0.0000 C   0  0  0  0  0  0  0  0  0  0  0  0
    0.7500    1.2990    0.0000 N   0  0  0  0  0  0  0  0  0  0  0  0
    1.5000    2.5981    0.0000 S   0  0  0  0  0  0  0  0  0  0  0  0
    2.7990    1.8481    0.0000 O   0  0  0  0  0  0  0  0  0  0  0  0
    0.2010    3.3481    0.0000 O   0  0  0  0  0  0  0  0  0  0  0  0
    2.2500    3.8971    0.0000 N   0  0  0  0  0  0  0  0  0  0  0  0
    3.7500    3.8971    0.0000 C   0  0  0  0  0  0  0  0  0  0  0  0
    3.4895    5.3743    0.0000 C   0  0  0  0  0  0  0  0  0  0  0  0
    4.6386    6.3385    0.0000 N   0  0  0  0  0  0  0  0  0  0  0  0
    2.0800    5.8874    0.0000 S   0  0  0  0  0  0  0  0  0  0  0  0
    3.4895    2.4199    0.0000 C   0  0  0  0  0  0  0  0  0  0  0  0
    4.6386    1.4557    0.0000 C   0  0  0  0  0  0  0  0  0  0  0  0
    6.0481    1.9688    0.0000 N   0  0  0  0  0  4  0  0  0  0  0  0
    7.1972    1.0046    0.0000 C   0  0  0  0  0  0  0  0  0  0  0  0
    6.3086    3.4460    0.0000 C   0  0  0  0  0  0  0  0  0  0  0  0
    5.1595    4.4101    0.0000 C   0  0  0  0  0  0  0  0  0  0  0  0
  2  1  1  1
  2  3  1  0
  3  4  1  0
  4  5  1  0
  5  6  1  0
  6  7  1  0
  7  8  1  0
  8  9  2  0
  8 10  2  0
  8 11  1  0
 11 12  1  0
 12 13  1  0
 13 14  1  0
 13 15  2  0
 12 16  1  0
 16 17  1  0
 17 18  1  0
 18 19  1  0
 18 20  1  0
 20 21  1  0
  7  2  1  0
 21 12  1  0
M  CHG  1  18   1
M  END
>  <Compound_ID>  (607) 
C40366444

>  <Active>  (607) 
0.0

>  <Smiles>  (607) 
C[C@H]1CCCCN1S(=O)(=O)NC1(C(N)=S)CC[NH+](C)CC1

>  <canonical_smi>  (607) 
C[C@H]1CCCCN1S(=O)(=O)NC1(C(N)=S)CC[NH+](C)CC1

>  <Set>  (607) 
G2 inactive

>  <Set_type>  (607) 
Train

>  <MW>  (607) 
335.52

>  <HBD>  (607) 
3

>  <HBA>  (607) 
4

>  <NRB>  (607) 
4

>  <NR>  (607) 
2

>  <NAR>  (607) 
0

>  <PSA>  (607) 
79.87

>  <Standard Type>  (607) 
nan

>  <Standard Relation>  (607) 
nan

>  <Standard Units>  (607) 
nan

>  <Standard Value>  (607) 
nan

>  <Assay ChEMBL ID>  (607) 
nan

>  <Assay Description>  (607) 
nan

>  <BAO Label>  (607) 
nan

$$$$

     RDKit          2D

 16 16  0  0  0  0  0  0  0  0999 V2000
    3.7500   -1.2990    0.0000 C   0  0  0  0  0  0  0  0  0  0  0  0
    3.0000    0.0000    0.0000 O   0  0  0  0  0  0  0  0  0  0  0  0
    1.5000    0.0000    0.0000 C   0  0  0  0  0  0  0  0  0  0  0  0
    0.7500   -1.2990    0.0000 C   0  0  0  0  0  0  0  0  0  0  0  0
    1.5000   -2.5981    0.0000 Br  0  0  0  0  0  0  0  0  0  0  0  0
   -0.7500   -1.2990    0.0000 C   0  0  0  0  0  0  0  0  0  0  0  0
   -1.5000    0.0000    0.0000 C   0  0  0  0  0  0  0  0  0  0  0  0
   -3.0000    0.0000    0.0000 C   0  0  0  0  0  0  0  0  0  0  0  0
   -3.7500   -1.2990    0.0000 N   0  0  0  0  0  4  0  0  0  0  0  0
   -3.7500    1.2990    0.0000 C   0  0  0  0  0  0  0  0  0  0  0  0
   -5.2500    1.2990    0.0000 C   0  0  0  0  0  0  0  0  0  0  0  0
   -6.0000    2.5981    0.0000 O   0  0  0  0  0  0  0  0  0  0  0  0
   -0.7500    1.2990    0.0000 C   0  0  0  0  0  0  0  0  0  0  0  0
   -1.5000    2.5981    0.0000 O   0  0  0  0  0  0  0  0  0  0  0  0
    0.7500    1.2990    0.0000 C   0  0  0  0  0  0  0  0  0  0  0  0
    1.5000    2.5981    0.0000 Br  0  0  0  0  0  0  0  0  0  0  0  0
  1  2  1  0
  2  3  1  0
  3  4  2  0
  4  5  1  0
  4  6  1  0
  6  7  2  0
  7  8  1  0
  8  9  1  6
  8 10  1  0
 10 11  1  0
 11 12  1  0
  7 13  1  0
 13 14  1  0
 13 15  2  0
 15 16  1  0
 15  3  1  0
M  CHG  1   9   1
M  END
>  <Compound_ID>  (608) 
C44234152

>  <Active>  (608) 
0.0

>  <Smiles>  (608) 
COc1c(Br)cc([C@H]([NH3+])CCO)c(O)c1Br

>  <canonical_smi>  (608) 
COc1c(Br)cc([C@H]([NH3+])CCO)c(O)c1Br

>  <Set>  (608) 
G2 inactive

>  <Set_type>  (608) 
Train

>  <MW>  (608) 
356.03

>  <HBD>  (608) 
3

>  <HBA>  (608) 
3

>  <NRB>  (608) 
4

>  <NR>  (608) 
1

>  <NAR>  (608) 
1

>  <PSA>  (608) 
77.33

>  <Standard Type>  (608) 
nan

>  <Standard Relation>  (608) 
nan

>  <Standard Units>  (608) 
nan

>  <Standard Value>  (608) 
nan

>  <Assay ChEMBL ID>  (608) 
nan

>  <Assay Description>  (608) 
nan

>  <BAO Label>  (608) 
nan

$$$$

     RDKit          2D

 18 20  0  0  0  0  0  0  0  0999 V2000
    2.6401   -3.1891    0.0000 C   0  0  0  0  0  0  0  0  0  0  0  0
    1.2135   -2.7256    0.0000 N   0  0  0  0  0  0  0  0  0  0  0  0
    0.7500   -1.2990    0.0000 C   0  0  0  0  0  0  0  0  0  0  0  0
    1.5000    0.0000    0.0000 C   0  0  0  0  0  0  0  0  0  0  0  0
    0.7500    1.2990    0.0000 C   0  0  0  0  0  0  0  0  0  0  0  0
   -0.7500    1.2990    0.0000 N   0  0  0  0  0  0  0  0  0  0  0  0
   -1.5000    0.0000    0.0000 C   0  0  0  0  0  0  0  0  0  0  0  0
   -3.0000    0.0000    0.0000 C   0  0  0  0  0  0  0  0  0  0  0  0
   -3.8817   -1.2135    0.0000 N   0  0  0  0  0  0  0  0  0  0  0  0
   -5.3083   -0.7500    0.0000 C   0  0  0  0  0  0  0  0  0  0  0  0
   -6.5218   -1.6317    0.0000 Br  0  0  0  0  0  0  0  0  0  0  0  0
   -5.3083    0.7500    0.0000 C   0  0  0  0  0  0  0  0  0  0  0  0
   -6.5218    1.6317    0.0000 Br  0  0  0  0  0  0  0  0  0  0  0  0
   -3.8817    1.2135    0.0000 C   0  0  0  0  0  0  0  0  0  0  0  0
   -0.7500   -1.2990    0.0000 C   0  0  0  0  0  0  0  0  0  0  0  0
   -1.2135   -2.7256    0.0000 N   0  0  0  0  0  0  0  0  0  0  0  0
   -0.0000   -3.6073    0.0000 C   0  0  0  0  0  0  0  0  0  0  0  0
   -0.0000   -5.1073    0.0000 N   0  0  0  0  0  4  0  0  0  0  0  0
  1  2  1  0
  2  3  1  0
  3  4  2  0
  4  5  1  0
  5  6  2  0
  6  7  1  0
  7  8  1  0
  8  9  2  0
  9 10  1  0
 10 11  1  0
 10 12  2  0
 12 13  1  0
 12 14  1  0
  7 15  2  0
 15 16  1  0
 16 17  1  0
 17 18  1  6
 17  2  1  0
 15  3  1  0
 14  8  1  0
M  CHG  1  18   1
M  END
>  <Compound_ID>  (609) 
C52634774

>  <Active>  (609) 
0.0

>  <Smiles>  (609) 
CN1c2ccnc(C3=NC(Br)=C(Br)C3)c2N[C@H]1[NH3+]

>  <canonical_smi>  (609) 
CN1c2ccnc(C3=NC(Br)=C(Br)C3)c2N[C@H]1[NH3+]

>  <Set>  (609) 
G2 inactive

>  <Set_type>  (609) 
Train

>  <MW>  (609) 
374.06

>  <HBD>  (609) 
2

>  <HBA>  (609) 
3

>  <NRB>  (609) 
1

>  <NR>  (609) 
3

>  <NAR>  (609) 
1

>  <PSA>  (609) 
68.16

>  <Standard Type>  (609) 
nan

>  <Standard Relation>  (609) 
nan

>  <Standard Units>  (609) 
nan

>  <Standard Value>  (609) 
nan

>  <Assay ChEMBL ID>  (609) 
nan

>  <Assay Description>  (609) 
nan

>  <BAO Label>  (609) 
nan

$$$$

     RDKit          2D

 25 25  0  0  0  0  0  0  0  0999 V2000
    2.1213    1.0607    0.0000 C   0  0  0  0  0  0  0  0  0  0  0  0
    1.0607    0.0000    0.0000 C   0  0  0  0  0  0  0  0  0  0  0  0
    2.1213   -1.0607    0.0000 C   0  0  0  0  0  0  0  0  0  0  0  0
   -0.0000   -1.0607    0.0000 C   0  0  0  0  0  0  0  0  0  0  0  0
   -0.0000   -2.5607    0.0000 C   0  0  0  0  0  0  0  0  0  0  0  0
   -1.2990   -3.3107    0.0000 C   0  0  0  0  0  0  0  0  0  0  0  0
   -2.5981   -2.5607    0.0000 O   0  0  0  0  0  0  0  0  0  0  0  0
   -1.2990   -4.8107    0.0000 N   0  0  0  0  0  0  0  0  0  0  0  0
   -2.5981   -5.5607    0.0000 C   0  0  0  0  0  0  0  0  0  0  0  0
   -3.8971   -4.8107    0.0000 O   0  0  0  0  0  0  0  0  0  0  0  0
   -2.5981   -7.0607    0.0000 C   0  0  0  0  0  0  0  0  0  0  0  0
   -2.5981   -8.5607    0.0000 Cl  0  0  0  0  0  0  0  0  0  0  0  0
   -4.0981   -7.0607    0.0000 Cl  0  0  0  0  0  0  0  0  0  0  0  0
   -1.0981   -7.0607    0.0000 Cl  0  0  0  0  0  0  0  0  0  0  0  0
   -1.0607    0.0000    0.0000 C   0  0  0  0  0  0  0  0  0  0  0  0
    0.0000    1.0607    0.0000 C   0  0  0  0  0  0  0  0  0  0  0  0
    0.0000    2.5607    0.0000 C   0  0  0  0  0  0  0  0  0  0  0  0
   -1.2990    3.3107    0.0000 O   0  0  0  0  0  0  0  0  0  0  0  0
    1.2990    3.3107    0.0000 N   0  0  0  0  0  0  0  0  0  0  0  0
    1.2990    4.8107    0.0000 C   0  0  0  0  0  0  0  0  0  0  0  0
   -0.0000    5.5607    0.0000 O   0  0  0  0  0  0  0  0  0  0  0  0
    2.5981    5.5607    0.0000 C   0  0  0  0  0  0  0  0  0  0  0  0
    3.8971    6.3107    0.0000 Cl  0  0  0  0  0  0  0  0  0  0  0  0
    1.8481    6.8597    0.0000 Cl  0  0  0  0  0  0  0  0  0  0  0  0
    3.3481    4.2616    0.0000 Cl  0  0  0  0  0  0  0  0  0  0  0  0
  1  2  1  0
  2  3  1  0
  2  4  1  0
  4  5  1  6
  5  6  1  0
  6  7  2  0
  6  8  1  0
  8  9  1  0
  9 10  1  1
  9 11  1  0
 11 12  1  0
 11 13  1  0
 11 14  1  0
  4 15  1  0
 15 16  1  0
 16 17  1  1
 17 18  2  0
 17 19  1  0
 19 20  1  0
 20 21  1  6
 20 22  1  0
 22 23  1  0
 22 24  1  0
 22 25  1  0
 16  2  1  0
M  END
>  <Compound_ID>  (610) 
C35181700

>  <Active>  (610) 
0.0

>  <Smiles>  (610) 
CC1(C)[C@H](CC(=O)N[C@H](O)C(Cl)(Cl)Cl)C[C@H]1C(=O)N[C@H](O)C(Cl)(Cl)Cl

>  <canonical_smi>  (610) 
CC1(C)[C@H](CC(=O)N[C@H](O)C(Cl)(Cl)Cl)C[C@H]1C(=O)N[C@H](O)C(Cl)(Cl)Cl

>  <Set>  (610) 
G2 inactive

>  <Set_type>  (610) 
Train

>  <MW>  (610) 
479.02

>  <HBD>  (610) 
4

>  <HBA>  (610) 
4

>  <NRB>  (610) 
5

>  <NR>  (610) 
1

>  <NAR>  (610) 
0

>  <PSA>  (610) 
98.66

>  <Standard Type>  (610) 
nan

>  <Standard Relation>  (610) 
nan

>  <Standard Units>  (610) 
nan

>  <Standard Value>  (610) 
nan

>  <Assay ChEMBL ID>  (610) 
nan

>  <Assay Description>  (610) 
nan

>  <BAO Label>  (610) 
nan

$$$$

     RDKit          2D

 31 35  0  0  0  0  0  0  0  0999 V2000
   -2.2990    0.0563    0.0000 C   0  0  0  0  0  0  0  0  0  0  0  0
   -3.5980   -0.6937    0.0000 C   0  0  0  0  0  0  0  0  0  0  0  0
   -4.9684   -0.0836    0.0000 N   0  0  0  0  0  0  0  0  0  0  0  0
   -5.9720   -1.1983    0.0000 N   0  0  0  0  0  0  0  0  0  0  0  0
   -5.2220   -2.4973    0.0000 C   0  0  0  0  0  0  0  0  0  0  0  0
   -5.9946   -3.7831    0.0000 O   0  0  0  0  0  0  0  0  0  0  0  0
   -3.7548   -2.1855    0.0000 C   0  0  0  0  0  0  0  0  0  0  0  0
   -2.6401   -3.1891    0.0000 C   0  0  0  0  0  0  0  0  0  0  0  0
   -2.9520   -4.6564    0.0000 C   0  0  0  0  0  0  0  0  0  0  0  0
   -4.3223   -5.2665    0.0000 C   0  0  0  0  0  0  0  0  0  0  0  0
   -5.7031   -4.6804    0.0000 O   0  0  0  0  0  0  0  0  0  0  0  0
   -4.1655   -6.7583    0.0000 N   0  0  0  0  0  0  0  0  0  0  0  0
   -2.6983   -7.0701    0.0000 N   0  0  0  0  0  0  0  0  0  0  0  0
   -1.9483   -5.7711    0.0000 C   0  0  0  0  0  0  0  0  0  0  0  0
   -0.4565   -5.6143    0.0000 C   0  0  0  0  0  0  0  0  0  0  0  0
   -1.2135   -2.7256    0.0000 C   0  0  0  0  0  0  0  0  0  0  0  0
   -0.0000   -3.6073    0.0000 C   0  0  0  0  0  0  0  0  0  0  0  0
    1.2135   -2.7256    0.0000 N   0  0  0  0  0  0  0  0  0  0  0  0
    2.6401   -3.1891    0.0000 C   0  0  0  0  0  0  0  0  0  0  0  0
    2.9520   -4.6564    0.0000 C   0  0  0  0  0  0  0  0  0  0  0  0
    1.8373   -5.6601    0.0000 C   0  0  0  0  0  0  0  0  0  0  0  0
    2.1491   -7.1273    0.0000 C   0  0  0  0  0  0  0  0  0  0  0  0
    3.5757   -7.5908    0.0000 C   0  0  0  0  0  0  0  0  0  0  0  0
    4.6904   -6.5871    0.0000 C   0  0  0  0  0  0  0  0  0  0  0  0
    4.3786   -5.1199    0.0000 C   0  0  0  0  0  0  0  0  0  0  0  0
    0.7500   -1.2990    0.0000 C   0  0  0  0  0  0  0  0  0  0  0  0
    1.5000    0.0000    0.0000 C   0  0  0  0  0  0  0  0  0  0  0  0
    0.7500    1.2990    0.0000 C   0  0  0  0  0  0  0  0  0  0  0  0
   -0.7500    1.2990    0.0000 C   0  0  0  0  0  0  0  0  0  0  0  0
   -1.5000    0.0000    0.0000 C   0  0  0  0  0  0  0  0  0  0  0  0
   -0.7500   -1.2990    0.0000 C   0  0  0  0  0  0  0  0  0  0  0  0
  1  2  1  0
  2  3  2  0
  3  4  1  0
  4  5  1  0
  5  6  1  0
  5  7  2  0
  8  7  1  6
  8  9  1  0
  9 10  1  0
 10 11  1  0
 10 12  2  0
 12 13  1  0
 13 14  1  0
 14 15  1  0
  8 16  1  0
 16 17  2  0
 17 18  1  0
 18 19  1  0
 19 20  1  0
 20 21  2  0
 21 22  1  0
 22 23  2  0
 23 24  1  0
 24 25  2  0
 18 26  1  0
 26 27  2  0
 27 28  1  0
 28 29  2  0
 29 30  1  0
 30 31  2  0
  7  2  1  0
 14  9  2  0
 31 16  1  0
 25 20  1  0
 31 26  1  0
M  END
>  <Compound_ID>  (611) 
C19812047

>  <Active>  (611) 
0.0

>  <Smiles>  (611) 
Cc1n[nH]c(O)c1[C@@H](c1c(O)n[nH]c1C)c1cn(Cc2ccccc2)c2ccccc12

>  <canonical_smi>  (611) 
Cc1n[nH]c(O)c1[C@@H](c1c(O)n[nH]c1C)c1cn(Cc2ccccc2)c2ccccc12

>  <Set>  (611) 
G2 inactive

>  <Set_type>  (611) 
Train

>  <MW>  (611) 
413.48

>  <HBD>  (611) 
4

>  <HBA>  (611) 
4

>  <NRB>  (611) 
5

>  <NR>  (611) 
5

>  <NAR>  (611) 
5

>  <PSA>  (611) 
102.75

>  <Standard Type>  (611) 
nan

>  <Standard Relation>  (611) 
nan

>  <Standard Units>  (611) 
nan

>  <Standard Value>  (611) 
nan

>  <Assay ChEMBL ID>  (611) 
nan

>  <Assay Description>  (611) 
nan

>  <BAO Label>  (611) 
nan

$$$$

     RDKit          2D

 28 30  0  0  0  0  0  0  0  0999 V2000
    5.2500   -1.2990    0.0000 C   0  0  0  0  0  0  0  0  0  0  0  0
    3.7500   -1.2990    0.0000 C   0  0  0  0  0  0  0  0  0  0  0  0
    3.0000   -2.5981    0.0000 C   0  0  0  0  0  0  0  0  0  0  0  0
    3.0000    0.0000    0.0000 N   0  0  0  0  0  0  0  0  0  0  0  0
    1.5000    0.0000    0.0000 C   0  0  0  0  0  0  0  0  0  0  0  0
    0.7500   -1.2990    0.0000 C   0  0  0  0  0  0  0  0  0  0  0  0
   -0.7500   -1.2990    0.0000 C   0  0  0  0  0  0  0  0  0  0  0  0
   -1.5000   -2.5981    0.0000 C   0  0  0  0  0  0  0  0  0  0  0  0
   -0.8899   -3.9684    0.0000 N   0  0  0  0  0  0  0  0  0  0  0  0
   -2.0046   -4.9721    0.0000 C   0  0  0  0  0  0  0  0  0  0  0  0
   -1.8478   -6.4639    0.0000 S   0  0  0  0  0  0  0  0  0  0  0  0
   -3.0613   -7.3456    0.0000 C   0  0  0  0  0  0  0  0  0  0  0  0
   -2.9046   -8.8373    0.0000 C   0  0  0  0  0  0  0  0  0  0  0  0
   -1.5342   -9.4474    0.0000 O   0  0  0  0  0  0  0  0  0  0  0  0
   -4.1181   -9.7190    0.0000 C   0  0  0  0  0  0  0  0  0  0  0  0
   -3.9613  -11.2108    0.0000 O   0  0  0  0  0  0  0  0  0  0  0  0
   -3.3037   -4.2221    0.0000 N   0  0  0  0  0  0  0  0  0  0  0  0
   -2.9918   -2.7549    0.0000 C   0  0  0  0  0  0  0  0  0  0  0  0
   -3.9955   -1.6402    0.0000 C   0  0  0  0  0  0  0  0  0  0  0  0
   -3.5320   -0.2136    0.0000 C   0  0  0  0  0  0  0  0  0  0  0  0
   -4.5356    0.9012    0.0000 C   0  0  0  0  0  0  0  0  0  0  0  0
   -6.0029    0.5893    0.0000 C   0  0  0  0  0  0  0  0  0  0  0  0
   -7.0066    1.7040    0.0000 F   0  0  0  0  0  0  0  0  0  0  0  0
   -6.4664   -0.8373    0.0000 C   0  0  0  0  0  0  0  0  0  0  0  0
   -5.4627   -1.9520    0.0000 C   0  0  0  0  0  0  0  0  0  0  0  0
   -1.5000    0.0000    0.0000 C   0  0  0  0  0  0  0  0  0  0  0  0
   -0.7500    1.2990    0.0000 C   0  0  0  0  0  0  0  0  0  0  0  0
    0.7500    1.2990    0.0000 N   0  0  0  0  0  0  0  0  0  0  0  0
  1  2  1  0
  2  3  1  0
  2  4  1  0
  4  5  1  0
  5  6  2  0
  6  7  1  0
  7  8  1  0
  8  9  1  0
  9 10  1  0
 10 11  1  0
 11 12  1  0
 12 13  1  0
 13 14  1  6
 13 15  1  0
 15 16  1  0
 10 17  2  0
 17 18  1  0
 18 19  1  0
 19 20  2  0
 20 21  1  0
 21 22  2  0
 22 23  1  0
 22 24  1  0
 24 25  2  0
  7 26  2  0
 26 27  1  0
 27 28  2  0
 28  5  1  0
 18  8  2  0
 25 19  1  0
M  END
>  <Compound_ID>  (612) 
C40863072

>  <Active>  (612) 
0.0

>  <Smiles>  (612) 
CC(C)Nc1cc(-c2[nH]c(SC[C@H](O)CO)nc2-c2ccc(F)cc2)ccn1

>  <canonical_smi>  (612) 
CC(C)Nc1cc(-c2[nH]c(SC[C@H](O)CO)nc2-c2ccc(F)cc2)ccn1

>  <Set>  (612) 
G2 inactive

>  <Set_type>  (612) 
Train

>  <MW>  (612) 
402.5

>  <HBD>  (612) 
4

>  <HBA>  (612) 
6

>  <NRB>  (612) 
8

>  <NR>  (612) 
3

>  <NAR>  (612) 
3

>  <PSA>  (612) 
94.06

>  <Standard Type>  (612) 
nan

>  <Standard Relation>  (612) 
nan

>  <Standard Units>  (612) 
nan

>  <Standard Value>  (612) 
nan

>  <Assay ChEMBL ID>  (612) 
nan

>  <Assay Description>  (612) 
nan

>  <BAO Label>  (612) 
nan

$$$$

     RDKit          2D

 28 30  0  0  0  0  0  0  0  0999 V2000
   -3.8971   -7.3573    0.0000 O   0  0  0  0  0  0  0  0  0  0  0  0
   -2.5981   -8.1073    0.0000 C   0  0  0  0  0  0  0  0  0  0  0  0
   -1.2990   -7.3573    0.0000 C   0  0  0  0  0  0  0  0  0  0  0  0
   -1.2990   -5.8573    0.0000 N   0  0  0  0  0  0  0  0  0  0  0  0
   -0.0000   -5.1073    0.0000 C   0  0  0  0  0  0  0  0  0  0  0  0
    1.2990   -5.8573    0.0000 O   0  0  0  0  0  0  0  0  0  0  0  0
   -0.0000   -3.6073    0.0000 C   0  0  0  0  0  0  0  0  0  0  0  0
    1.2135   -2.7256    0.0000 S   0  0  0  0  0  0  0  0  0  0  0  0
    0.7500   -1.2990    0.0000 C   0  0  0  0  0  0  0  0  0  0  0  0
    1.5000    0.0000    0.0000 C   0  0  0  0  0  0  0  0  0  0  0  0
    0.7500    1.2990    0.0000 C   0  0  0  0  0  0  0  0  0  0  0  0
   -0.7500    1.2990    0.0000 C   0  0  0  0  0  0  0  0  0  0  0  0
   -1.5000    0.0000    0.0000 C   0  0  0  0  0  0  0  0  0  0  0  0
   -0.7500   -1.2990    0.0000 C   0  0  0  0  0  0  0  0  0  0  0  0
   -1.2135   -2.7256    0.0000 C   0  0  0  0  0  0  0  0  0  0  0  0
   -2.6401   -3.1891    0.0000 Cl  0  0  0  0  0  0  0  0  0  0  0  0
   -2.5981   -9.6073    0.0000 N   0  0  0  0  0  0  0  0  0  0  0  0
   -3.8971  -10.3573    0.0000 N   0  0  0  0  0  0  0  0  0  0  0  0
   -3.8971  -11.8573    0.0000 C   0  0  0  0  0  0  0  0  0  0  0  0
   -2.5981  -12.6073    0.0000 S   0  0  0  0  0  0  0  0  0  0  0  0
   -5.1962  -12.6073    0.0000 N   0  0  0  0  0  0  0  0  0  0  0  0
   -5.1962  -14.1073    0.0000 C   0  0  0  0  0  0  0  0  0  0  0  0
   -6.4952  -14.8573    0.0000 C   0  0  0  0  0  0  0  0  0  0  0  0
   -7.7942  -14.1073    0.0000 C   0  0  0  0  0  0  0  0  0  0  0  0
   -9.0933  -14.8573    0.0000 C   0  0  0  0  0  0  0  0  0  0  0  0
   -9.0933  -16.3573    0.0000 C   0  0  0  0  0  0  0  0  0  0  0  0
   -7.7942  -17.1073    0.0000 C   0  0  0  0  0  0  0  0  0  0  0  0
   -6.4952  -16.3573    0.0000 C   0  0  0  0  0  0  0  0  0  0  0  0
  1  2  2  0
  2  3  1  0
  3  4  1  0
  4  5  1  0
  5  6  2  0
  5  7  1  0
  7  8  1  0
  8  9  1  0
  9 10  2  0
 10 11  1  0
 11 12  2  0
 12 13  1  0
 13 14  2  0
 14 15  1  0
 15 16  1  0
  2 17  1  0
 17 18  1  0
 18 19  1  0
 19 20  2  0
 19 21  1  0
 21 22  1  0
 22 23  1  0
 23 24  2  0
 24 25  1  0
 25 26  2  0
 26 27  1  0
 27 28  2  0
 15  7  2  0
 28 23  1  0
 14  9  1  0
M  END
>  <Compound_ID>  (613) 
C28621225

>  <Active>  (613) 
0.0

>  <Smiles>  (613) 
O=C(CNC(=O)c1sc2ccccc2c1Cl)NNC(=S)NCc1ccccc1

>  <canonical_smi>  (613) 
O=C(CNC(=O)c1sc2ccccc2c1Cl)NNC(=S)NCc1ccccc1

>  <Set>  (613) 
G2 inactive

>  <Set_type>  (613) 
Train

>  <MW>  (613) 
432.96

>  <HBD>  (613) 
4

>  <HBA>  (613) 
5

>  <NRB>  (613) 
5

>  <NR>  (613) 
3

>  <NAR>  (613) 
3

>  <PSA>  (613) 
82.26

>  <Standard Type>  (613) 
nan

>  <Standard Relation>  (613) 
nan

>  <Standard Units>  (613) 
nan

>  <Standard Value>  (613) 
nan

>  <Assay ChEMBL ID>  (613) 
nan

>  <Assay Description>  (613) 
nan

>  <BAO Label>  (613) 
nan

$$$$

     RDKit          2D

 30 32  0  0  0  0  0  0  0  0999 V2000
    5.2500    1.2990    0.0000 C   0  0  0  0  0  0  0  0  0  0  0  0
    4.5000    0.0000    0.0000 C   0  0  0  0  0  0  0  0  0  0  0  0
    3.0000    0.0000    0.0000 C   0  0  0  0  0  0  0  0  0  0  0  0
    3.0000   -1.5000    0.0000 C   0  0  0  0  0  0  0  0  0  0  0  0
    3.0000    1.5000    0.0000 C   0  0  0  0  0  0  0  0  0  0  0  0
    1.5000    0.0000    0.0000 C   0  0  0  0  0  0  0  0  0  0  0  0
    0.7500   -1.2990    0.0000 C   0  0  0  0  0  0  0  0  0  0  0  0
   -0.7500   -1.2990    0.0000 C   0  0  0  0  0  0  0  0  0  0  0  0
   -1.5000    0.0000    0.0000 C   0  0  0  0  0  0  0  0  0  0  0  0
   -0.7500    1.2990    0.0000 C   0  0  0  0  0  0  0  0  0  0  0  0
   -1.7537    2.4138    0.0000 S   0  0  0  0  0  0  0  0  0  0  0  0
   -3.1240    1.8037    0.0000 C   0  0  0  0  0  0  0  0  0  0  0  0
   -4.4231    2.5537    0.0000 N   0  0  0  0  0  0  0  0  0  0  0  0
   -4.4231    4.0537    0.0000 C   0  0  0  0  0  0  0  0  0  0  0  0
   -3.1240    4.8037    0.0000 O   0  0  0  0  0  0  0  0  0  0  0  0
   -5.7221    4.8037    0.0000 C   0  0  0  0  0  0  0  0  0  0  0  0
   -5.7221    6.3037    0.0000 C   0  0  0  0  0  0  0  0  0  0  0  0
   -7.0211    7.0537    0.0000 C   0  0  0  0  0  0  0  0  0  0  0  0
   -8.3202    6.3037    0.0000 C   0  0  0  0  0  0  0  0  0  0  0  0
   -9.6192    7.0537    0.0000 N   0  0  0  0  0  4  0  0  0  0  0  0
  -10.9182    6.3037    0.0000 O   0  0  0  0  0  0  0  0  0  0  0  0
   -9.6192    8.5537    0.0000 O   0  0  0  0  0  1  0  0  0  0  0  0
   -8.3202    4.8037    0.0000 C   0  0  0  0  0  0  0  0  0  0  0  0
   -9.6192    4.0537    0.0000 C   0  0  0  0  0  0  0  0  0  0  0  0
   -7.0211    4.0537    0.0000 C   0  0  0  0  0  0  0  0  0  0  0  0
   -2.9672    0.3119    0.0000 C   0  0  0  0  0  0  0  0  0  0  0  0
   -4.0819   -0.6918    0.0000 C   0  0  0  0  0  0  0  0  0  0  0  0
   -5.5085   -0.2283    0.0000 N   0  0  0  0  0  0  0  0  0  0  0  0
   -3.7701   -2.1590    0.0000 O   0  0  0  0  0  0  0  0  0  0  0  0
    0.7500    1.2990    0.0000 C   0  0  0  0  0  0  0  0  0  0  0  0
  1  2  1  0
  2  3  1  0
  3  4  1  0
  3  5  1  0
  6  3  1  6
  6  7  1  0
  7  8  1  0
  8  9  1  0
  9 10  2  0
 10 11  1  0
 11 12  1  0
 12 13  1  0
 13 14  1  0
 14 15  2  0
 14 16  1  0
 16 17  2  0
 17 18  1  0
 18 19  2  0
 19 20  1  0
 20 21  2  0
 20 22  1  0
 19 23  1  0
 23 24  1  0
 23 25  2  0
 12 26  2  0
 26 27  1  0
 27 28  1  0
 27 29  2  0
 10 30  1  0
 30  6  1  0
 26  9  1  0
 25 16  1  0
M  CHG  2  20   1  22  -1
M  END
>  <Compound_ID>  (614) 
C01217883

>  <Active>  (614) 
0.0

>  <Smiles>  (614) 
CCC(C)(C)[C@@H]1CCc2c(sc(NC(=O)c3ccc([N+](=O)[O-])c(C)c3)c2C(N)=O)C1

>  <canonical_smi>  (614) 
CCC(C)(C)[C@@H]1CCc2c(sc(NC(=O)c3ccc([N+](=O)[O-])c(C)c3)c2C(N)=O)C1

>  <Set>  (614) 
G2 inactive

>  <Set_type>  (614) 
Train

>  <MW>  (614) 
429.54

>  <HBD>  (614) 
2

>  <HBA>  (614) 
4

>  <NRB>  (614) 
6

>  <NR>  (614) 
3

>  <NAR>  (614) 
2

>  <PSA>  (614) 
115.33

>  <Standard Type>  (614) 
nan

>  <Standard Relation>  (614) 
nan

>  <Standard Units>  (614) 
nan

>  <Standard Value>  (614) 
nan

>  <Assay ChEMBL ID>  (614) 
nan

>  <Assay Description>  (614) 
nan

>  <BAO Label>  (614) 
nan

$$$$

     RDKit          2D

 32 35  0  0  0  0  0  0  0  0999 V2000
    2.7760    0.0000    0.0000 C   0  0  0  0  0  0  0  0  0  0  0  0
    1.2760    0.0000    0.0000 C   0  0  0  0  0  0  0  0  0  0  0  0
    0.3943    1.2135    0.0000 C   0  0  0  0  0  0  0  0  0  0  0  0
   -1.0323    0.7500    0.0000 C   0  0  0  0  0  0  0  0  0  0  0  0
   -2.2458    1.6317    0.0000 C   0  0  0  0  0  0  0  0  0  0  0  0
   -1.0323   -0.7500    0.0000 C   0  0  0  0  0  0  0  0  0  0  0  0
   -2.2458   -1.6317    0.0000 C   0  0  0  0  0  0  0  0  0  0  0  0
   -3.6161   -1.0216    0.0000 N   0  0  0  0  0  0  0  0  0  0  0  0
   -4.8297   -1.9033    0.0000 N   0  0  0  0  0  0  0  0  0  0  0  0
   -6.2000   -1.2931    0.0000 C   0  0  0  0  0  0  0  0  0  0  0  0
   -7.4135   -2.1748    0.0000 C   0  0  0  0  0  0  0  0  0  0  0  0
   -7.4135   -3.6748    0.0000 N   0  0  0  0  0  0  0  0  0  0  0  0
   -8.8401   -4.1383    0.0000 C   0  0  0  0  0  0  0  0  0  0  0  0
   -9.3036   -5.5649    0.0000 C   0  0  0  0  0  0  0  0  0  0  0  0
   -9.7218   -2.9248    0.0000 C   0  0  0  0  0  0  0  0  0  0  0  0
   -8.8401   -1.7113    0.0000 C   0  0  0  0  0  0  0  0  0  0  0  0
   -9.3036   -0.2847    0.0000 C   0  0  0  0  0  0  0  0  0  0  0  0
   -6.3568    0.1986    0.0000 C   0  0  0  0  0  0  0  0  0  0  0  0
   -7.6558    0.9486    0.0000 N   0  0  0  0  0  0  0  0  0  0  0  0
   -7.3439    2.4159    0.0000 C   0  0  0  0  0  0  0  0  0  0  0  0
   -8.3476    3.5306    0.0000 C   0  0  0  0  0  0  0  0  0  0  0  0
   -5.8522    2.5727    0.0000 C   0  0  0  0  0  0  0  0  0  0  0  0
   -5.2420    1.2023    0.0000 C   0  0  0  0  0  0  0  0  0  0  0  0
   -3.7748    0.8905    0.0000 C   0  0  0  0  0  0  0  0  0  0  0  0
   -2.0890   -3.1235    0.0000 C   0  0  0  0  0  0  0  0  0  0  0  0
   -0.7900   -3.8735    0.0000 N   0  0  0  0  0  0  0  0  0  0  0  0
   -1.1018   -5.3407    0.0000 C   0  0  0  0  0  0  0  0  0  0  0  0
   -0.0982   -6.4554    0.0000 C   0  0  0  0  0  0  0  0  0  0  0  0
   -2.5936   -5.4975    0.0000 C   0  0  0  0  0  0  0  0  0  0  0  0
   -3.2037   -4.1272    0.0000 C   0  0  0  0  0  0  0  0  0  0  0  0
   -4.6710   -3.8153    0.0000 C   0  0  0  0  0  0  0  0  0  0  0  0
    0.3943   -1.2135    0.0000 N   0  0  0  0  0  0  0  0  0  0  0  0
  1  2  1  0
  2  3  2  0
  3  4  1  0
  4  5  1  0
  4  6  2  0
  6  7  1  0
  7  8  2  0
  8  9  1  0
  9 10  2  0
 10 11  1  0
 11 12  1  0
 12 13  1  0
 13 14  1  0
 13 15  2  0
 15 16  1  0
 16 17  1  0
 10 18  1  0
 18 19  1  0
 19 20  1  0
 20 21  1  0
 20 22  2  0
 22 23  1  0
 23 24  1  0
  7 25  1  0
 25 26  1  0
 26 27  1  0
 27 28  1  0
 27 29  2  0
 29 30  1  0
 30 31  1  0
  6 32  1  0
 32  2  1  0
 16 11  2  0
 23 18  2  0
 30 25  2  0
M  END
>  <Compound_ID>  (615) 
C37624837

>  <Active>  (615) 
0.0

>  <Smiles>  (615) 
Cc1cc(C)c(C(=NN=C(c2[nH]c(C)cc2C)c2[nH]c(C)cc2C)c2[nH]c(C)cc2C)[nH]1

>  <canonical_smi>  (615) 
Cc1cc(C)c(C(=NN=C(c2[nH]c(C)cc2C)c2[nH]c(C)cc2C)c2[nH]c(C)cc2C)[nH]1

>  <Set>  (615) 
G2 inactive

>  <Set_type>  (615) 
Train

>  <MW>  (615) 
428.58

>  <HBD>  (615) 
4

>  <HBA>  (615) 
0

>  <NRB>  (615) 
5

>  <NR>  (615) 
4

>  <NAR>  (615) 
4

>  <PSA>  (615) 
87.88

>  <Standard Type>  (615) 
nan

>  <Standard Relation>  (615) 
nan

>  <Standard Units>  (615) 
nan

>  <Standard Value>  (615) 
nan

>  <Assay ChEMBL ID>  (615) 
nan

>  <Assay Description>  (615) 
nan

>  <BAO Label>  (615) 
nan

$$$$

     RDKit          2D

 34 37  0  0  0  0  0  0  0  0999 V2000
    2.6401   -3.1891    0.0000 C   0  0  0  0  0  0  0  0  0  0  0  0
    1.2135   -2.7256    0.0000 C   0  0  0  0  0  0  0  0  0  0  0  0
   -0.0000   -3.6073    0.0000 C   0  0  0  0  0  0  0  0  0  0  0  0
   -0.0000   -5.1073    0.0000 C   0  0  0  0  0  0  0  0  0  0  0  0
    1.2990   -5.8573    0.0000 O   0  0  0  0  0  0  0  0  0  0  0  0
   -1.2990   -5.8573    0.0000 N   0  0  0  0  0  0  0  0  0  0  0  0
   -1.2990   -7.3573    0.0000 C   0  0  0  0  0  0  0  0  0  0  0  0
   -2.5981   -8.1073    0.0000 C   0  0  0  0  0  0  0  0  0  0  0  0
   -2.5981   -9.6073    0.0000 C   0  0  0  0  0  0  0  0  0  0  0  0
   -3.8971  -10.3573    0.0000 Cl  0  0  0  0  0  0  0  0  0  0  0  0
   -1.2990  -10.3573    0.0000 C   0  0  0  0  0  0  0  0  0  0  0  0
    0.0000   -9.6073    0.0000 C   0  0  0  0  0  0  0  0  0  0  0  0
    0.0000   -8.1073    0.0000 C   0  0  0  0  0  0  0  0  0  0  0  0
    1.2990   -7.3573    0.0000 O   0  0  0  0  0  0  0  0  0  0  0  0
    2.5981   -8.1073    0.0000 C   0  0  0  0  0  0  0  0  0  0  0  0
    2.5981   -9.6073    0.0000 C   0  0  0  0  0  0  0  0  0  0  0  0
    3.8971  -10.3573    0.0000 C   0  0  0  0  0  0  0  0  0  0  0  0
    5.1962   -9.6073    0.0000 C   0  0  0  0  0  0  0  0  0  0  0  0
    5.1962   -8.1073    0.0000 C   0  0  0  0  0  0  0  0  0  0  0  0
    3.8971   -7.3573    0.0000 C   0  0  0  0  0  0  0  0  0  0  0  0
   -1.2135   -2.7256    0.0000 O   0  0  0  0  0  0  0  0  0  0  0  0
   -0.7500   -1.2990    0.0000 C   0  0  0  0  0  0  0  0  0  0  0  0
    0.7500   -1.2990    0.0000 C   0  0  0  0  0  0  0  0  0  0  0  0
    1.5000    0.0000    0.0000 C   0  0  0  0  0  0  0  0  0  0  0  0
    3.0000    0.0000    0.0000 N   0  0  0  0  0  0  0  0  0  0  0  0
    3.7500    1.2990    0.0000 N   0  0  0  0  0  0  0  0  0  0  0  0
    5.2500    1.2990    0.0000 C   0  0  0  0  0  0  0  0  0  0  0  0
    6.0000    2.5981    0.0000 N   0  0  0  0  0  0  0  0  0  0  0  0
    6.0000   -0.0000    0.0000 O   0  0  0  0  0  0  0  0  0  0  0  0
    0.7500    1.2990    0.0000 C   0  0  0  0  0  0  0  0  0  0  0  0
   -0.7500    1.2990    0.0000 C   0  0  0  0  0  0  0  0  0  0  0  0
   -2.1595    1.8121    0.0000 C   0  0  0  0  0  0  0  0  0  0  0  0
   -0.4895    2.7762    0.0000 C   0  0  0  0  0  0  0  0  0  0  0  0
   -1.5000    0.0000    0.0000 C   0  0  0  0  0  0  0  0  0  0  0  0
  1  2  1  0
  2  3  2  0
  3  4  1  0
  4  5  2  0
  4  6  1  0
  6  7  1  0
  7  8  2  0
  8  9  1  0
  9 10  1  0
  9 11  2  0
 11 12  1  0
 12 13  2  0
 13 14  1  0
 14 15  1  0
 15 16  2  0
 16 17  1  0
 17 18  2  0
 18 19  1  0
 19 20  2  0
  3 21  1  0
 21 22  1  0
 22 23  2  0
 23 24  1  0
 24 25  2  0
 25 26  1  0
 26 27  1  0
 27 28  1  0
 27 29  2  0
 24 30  1  0
 30 31  1  0
 31 32  1  0
 31 33  1  0
 31 34  1  0
 23  2  1  0
 13  7  1  0
 20 15  1  0
 34 22  1  0
M  END
>  <Compound_ID>  (616) 
C39856373

>  <Active>  (616) 
0.0

>  <Smiles>  (616) 
Cc1c(C(=O)Nc2cc(Cl)ccc2Oc2ccccc2)oc2c1/C(=N/NC(N)=O)CC(C)(C)C2

>  <canonical_smi>  (616) 
Cc1c(C(=O)Nc2cc(Cl)ccc2Oc2ccccc2)oc2c1/C(=N/NC(N)=O)CC(C)(C)C2

>  <Set>  (616) 
G2 inactive

>  <Set_type>  (616) 
Train

>  <MW>  (616) 
480.95

>  <HBD>  (616) 
3

>  <HBA>  (616) 
4

>  <NRB>  (616) 
5

>  <NR>  (616) 
4

>  <NAR>  (616) 
3

>  <PSA>  (616) 
118.95

>  <Standard Type>  (616) 
nan

>  <Standard Relation>  (616) 
nan

>  <Standard Units>  (616) 
nan

>  <Standard Value>  (616) 
nan

>  <Assay ChEMBL ID>  (616) 
nan

>  <Assay Description>  (616) 
nan

>  <BAO Label>  (616) 
nan

$$$$

     RDKit          2D

 33 37  0  0  0  0  0  0  0  0999 V2000
    3.0000   -5.1962    0.0000 N   0  0  0  0  0  0  0  0  0  0  0  0
    1.5000   -5.1962    0.0000 C   0  0  0  0  0  0  0  0  0  0  0  0
    0.7500   -6.4952    0.0000 C   0  0  0  0  0  0  0  0  0  0  0  0
    1.5000   -7.7942    0.0000 N   0  0  0  0  0  0  0  0  0  0  0  0
    0.7500   -9.0933    0.0000 C   0  0  0  0  0  0  0  0  0  0  0  0
    1.5000  -10.3923    0.0000 C   0  0  0  0  0  0  0  0  0  0  0  0
    3.0000  -10.3923    0.0000 N   0  0  0  0  0  0  0  0  0  0  0  0
    3.7500  -11.6913    0.0000 C   0  0  0  0  0  0  0  0  0  0  0  0
    3.0000  -12.9904    0.0000 C   0  0  0  0  0  0  0  0  0  0  0  0
    3.7500  -14.2894    0.0000 O   0  0  0  0  0  0  0  0  0  0  0  0
    3.7500   -9.0933    0.0000 C   0  0  0  0  0  0  0  0  0  0  0  0
    3.0000   -7.7942    0.0000 C   0  0  0  0  0  0  0  0  0  0  0  0
   -0.7500   -6.4952    0.0000 C   0  0  0  0  0  0  0  0  0  0  0  0
   -1.5000   -5.1962    0.0000 C   0  0  0  0  0  0  0  0  0  0  0  0
   -3.0000   -5.1962    0.0000 N   0  0  0  0  0  0  0  0  0  0  0  0
   -3.7500   -6.4952    0.0000 C   0  0  0  0  0  0  0  0  0  0  0  0
   -5.2500   -6.4952    0.0000 C   0  0  0  0  0  0  0  0  0  0  0  0
   -6.0000   -7.7942    0.0000 C   0  0  0  0  0  0  0  0  0  0  0  0
   -5.2500   -9.0933    0.0000 C   0  0  0  0  0  0  0  0  0  0  0  0
   -3.7500   -9.0933    0.0000 C   0  0  0  0  0  0  0  0  0  0  0  0
   -3.0000   -7.7942    0.0000 C   0  0  0  0  0  0  0  0  0  0  0  0
   -0.7500   -3.8971    0.0000 C   0  0  0  0  0  0  0  0  0  0  0  0
    0.7500   -3.8971    0.0000 C   0  0  0  0  0  0  0  0  0  0  0  0
    1.5000   -2.5981    0.0000 C   0  0  0  0  0  0  0  0  0  0  0  0
    3.0000   -2.5981    0.0000 O   0  0  0  0  0  0  0  0  0  0  0  0
    0.7500   -1.2990    0.0000 C   0  0  0  0  0  0  0  0  0  0  0  0
    1.5000    0.0000    0.0000 C   0  0  0  0  0  0  0  0  0  0  0  0
    0.7500    1.2990    0.0000 C   0  0  0  0  0  0  0  0  0  0  0  0
   -0.7500    1.2990    0.0000 C   0  0  0  0  0  0  0  0  0  0  0  0
   -1.5000    0.0000    0.0000 C   0  0  0  0  0  0  0  0  0  0  0  0
   -0.7500   -1.2990    0.0000 C   0  0  0  0  0  0  0  0  0  0  0  0
   -1.5000   -2.5981    0.0000 C   0  0  0  0  0  0  0  0  0  0  0  0
   -3.0000   -2.5981    0.0000 O   0  0  0  0  0  0  0  0  0  0  0  0
  1  2  1  0
  2  3  2  0
  3  4  1  0
  4  5  1  0
  5  6  1  0
  6  7  1  0
  7  8  1  0
  8  9  1  0
  9 10  1  0
  7 11  1  0
 11 12  1  0
  3 13  1  0
 13 14  2  0
 14 15  1  0
 15 16  1  0
 16 17  2  0
 17 18  1  0
 18 19  2  0
 19 20  1  0
 20 21  2  0
 14 22  1  0
 22 23  2  0
 23 24  1  0
 24 25  2  0
 24 26  1  0
 26 27  2  0
 27 28  1  0
 28 29  2  0
 29 30  1  0
 30 31  2  0
 31 32  1  0
 32 33  2  0
 23  2  1  0
 31 26  1  0
 12  4  1  0
 21 16  1  0
 32 22  1  0
M  END
>  <Compound_ID>  (617) 
C20572527

>  <Active>  (617) 
0.0

>  <Smiles>  (617) 
Nc1c(N2CCN(CCO)CC2)cc(Nc2ccccc2)c2c1C(=O)c1ccccc1C2=O

>  <canonical_smi>  (617) 
Nc1c(N2CCN(CCO)CC2)cc(Nc2ccccc2)c2c1C(=O)c1ccccc1C2=O

>  <Set>  (617) 
G2 inactive

>  <Set_type>  (617) 
Train

>  <MW>  (617) 
442.52

>  <HBD>  (617) 
3

>  <HBA>  (617) 
7

>  <NRB>  (617) 
5

>  <NR>  (617) 
5

>  <NAR>  (617) 
4

>  <PSA>  (617) 
98.9

>  <Standard Type>  (617) 
nan

>  <Standard Relation>  (617) 
nan

>  <Standard Units>  (617) 
nan

>  <Standard Value>  (617) 
nan

>  <Assay ChEMBL ID>  (617) 
nan

>  <Assay Description>  (617) 
nan

>  <BAO Label>  (617) 
nan

$$$$

     RDKit          2D

 28 29  0  0  0  0  0  0  0  0999 V2000
    3.0000    0.0000    0.0000 C   0  0  0  0  0  0  0  0  0  0  0  0
    1.5000    0.0000    0.0000 C   0  0  0  0  0  0  0  0  0  0  0  0
    0.7500   -1.2990    0.0000 C   0  0  0  0  0  0  0  0  0  0  0  0
   -0.7500   -1.2990    0.0000 C   0  0  0  0  0  0  0  0  0  0  0  0
   -1.5000    0.0000    0.0000 C   0  0  0  0  0  0  0  0  0  0  0  0
   -3.0000    0.0000    0.0000 N   0  0  0  0  0  0  0  0  0  0  0  0
   -3.7500   -1.2990    0.0000 N   0  0  0  0  0  0  0  0  0  0  0  0
   -5.2500   -1.2990    0.0000 N   0  0  0  0  0  0  0  0  0  0  0  0
   -6.0000   -2.5981    0.0000 C   0  0  0  0  0  0  0  0  0  0  0  0
   -7.5000   -2.5981    0.0000 C   0  0  0  0  0  0  0  0  0  0  0  0
   -8.2500   -1.2990    0.0000 O   0  0  0  0  0  0  0  0  0  0  0  0
   -8.2500   -3.8971    0.0000 C   0  0  0  0  0  0  0  0  0  0  0  0
   -7.5000   -5.1962    0.0000 O   0  0  0  0  0  0  0  0  0  0  0  0
   -9.7500   -3.8971    0.0000 C   0  0  0  0  0  0  0  0  0  0  0  0
  -10.5000   -2.5981    0.0000 O   0  0  0  0  0  0  0  0  0  0  0  0
  -10.5000   -5.1962    0.0000 C   0  0  0  0  0  0  0  0  0  0  0  0
  -12.0000   -5.1962    0.0000 O   0  0  0  0  0  0  0  0  0  0  0  0
   -6.0000    0.0000    0.0000 C   0  0  0  0  0  0  0  0  0  0  0  0
   -5.2500    1.2990    0.0000 C   0  0  0  0  0  0  0  0  0  0  0  0
   -6.0000    2.5981    0.0000 C   0  0  0  0  0  0  0  0  0  0  0  0
   -7.5000    2.5981    0.0000 C   0  0  0  0  0  0  0  0  0  0  0  0
   -8.2500    3.8971    0.0000 C   0  0  0  0  0  0  0  0  0  0  0  0
   -8.2500    1.2990    0.0000 C   0  0  0  0  0  0  0  0  0  0  0  0
   -9.7500    1.2990    0.0000 C   0  0  0  0  0  0  0  0  0  0  0  0
   -7.5000    0.0000    0.0000 C   0  0  0  0  0  0  0  0  0  0  0  0
   -0.7500    1.2990    0.0000 C   0  0  0  0  0  0  0  0  0  0  0  0
    0.7500    1.2990    0.0000 C   0  0  0  0  0  0  0  0  0  0  0  0
    1.5000    2.5981    0.0000 C   0  0  0  0  0  0  0  0  0  0  0  0
  1  2  1  0
  2  3  2  0
  3  4  1  0
  4  5  2  0
  5  6  1  0
  6  7  2  0
  7  8  1  0
  8  9  1  0
  9 10  1  0
 10 11  1  6
 10 12  1  0
 12 13  1  1
 12 14  1  0
 14 15  1  6
 14 16  1  0
 16 17  1  0
  8 18  1  0
 18 19  2  0
 19 20  1  0
 20 21  2  0
 21 22  1  0
 21 23  1  0
 23 24  1  0
 23 25  2  0
  5 26  1  0
 26 27  2  0
 27 28  1  0
 27  2  1  0
 25 18  1  0
M  END
>  <Compound_ID>  (618) 
C15938555

>  <Active>  (618) 
0.0

>  <Smiles>  (618) 
Cc1ccc(/N=N/N(C[C@@H](O)[C@@H](O)[C@@H](O)CO)c2ccc(C)c(C)c2)cc1C

>  <canonical_smi>  (618) 
Cc1ccc(/N=N/N(C[C@@H](O)[C@@H](O)[C@@H](O)CO)c2ccc(C)c(C)c2)cc1C

>  <Set>  (618) 
G2 inactive

>  <Set_type>  (618) 
Train

>  <MW>  (618) 
387.48

>  <HBD>  (618) 
4

>  <HBA>  (618) 
5

>  <NRB>  (618) 
8

>  <NR>  (618) 
2

>  <NAR>  (618) 
2

>  <PSA>  (618) 
108.88

>  <Standard Type>  (618) 
nan

>  <Standard Relation>  (618) 
nan

>  <Standard Units>  (618) 
nan

>  <Standard Value>  (618) 
nan

>  <Assay ChEMBL ID>  (618) 
nan

>  <Assay Description>  (618) 
nan

>  <BAO Label>  (618) 
nan

$$$$

     RDKit          2D

 31 32  0  0  0  0  0  0  0  0999 V2000
    3.9271    0.0000    0.0000 C   0  0  0  0  0  0  0  0  0  0  0  0
    2.4271    0.0000    0.0000 C   0  0  0  0  0  0  0  0  0  0  0  0
    1.9635   -1.4266    0.0000 C   0  0  0  0  0  0  0  0  0  0  0  0
    0.7500   -2.3083    0.0000 C   0  0  0  0  0  0  0  0  0  0  0  0
   -0.7500   -2.3083    0.0000 C   0  0  0  0  0  0  0  0  0  0  0  0
   -1.2135   -3.7348    0.0000 O   0  0  0  0  0  0  0  0  0  0  0  0
   -1.9635   -1.4266    0.0000 C   0  0  0  0  0  0  0  0  0  0  0  0
   -3.1771   -2.3083    0.0000 C   0  0  0  0  0  0  0  0  0  0  0  0
   -2.4271    0.0000    0.0000 C   0  0  0  0  0  0  0  0  0  0  0  0
   -1.9635    1.4266    0.0000 C   0  0  0  0  0  0  0  0  0  0  0  0
   -0.7500    2.3083    0.0000 C   0  0  0  0  0  0  0  0  0  0  0  0
   -1.2135    3.7348    0.0000 C   0  0  0  0  0  0  0  0  0  0  0  0
   -0.2098    4.8496    0.0000 C   0  0  0  0  0  0  0  0  0  0  0  0
   -2.6807    4.0467    0.0000 C   0  0  0  0  0  0  0  0  0  0  0  0
    0.7500    2.3083    0.0000 C   0  0  0  0  0  0  0  0  0  0  0  0
    1.2135    3.7348    0.0000 O   0  0  0  0  0  0  0  0  0  0  0  0
    2.6807    4.0467    0.0000 C   0  0  0  0  0  0  0  0  0  0  0  0
    3.6844    2.9320    0.0000 O   0  0  0  0  0  0  0  0  0  0  0  0
    5.1517    3.2439    0.0000 C   0  0  0  0  0  0  0  0  0  0  0  0
    6.1554    2.1291    0.0000 C   0  0  0  0  0  0  0  0  0  0  0  0
    7.6226    2.4410    0.0000 O   0  0  0  0  0  0  0  0  0  0  0  0
    8.6263    1.3263    0.0000 C   0  0  0  0  0  0  0  0  0  0  0  0
   10.0935    1.6382    0.0000 C   0  0  0  0  0  0  0  0  0  0  0  0
    8.1628   -0.1003    0.0000 O   0  0  0  0  0  0  0  0  0  0  0  0
    5.6152    4.6705    0.0000 C   0  0  0  0  0  0  0  0  0  0  0  0
    7.0824    4.9823    0.0000 O   0  0  0  0  0  0  0  0  0  0  0  0
    4.6115    5.7852    0.0000 C   0  0  0  0  0  0  0  0  0  0  0  0
    5.0750    7.2118    0.0000 O   0  0  0  0  0  0  0  0  0  0  0  0
    3.1443    5.4733    0.0000 C   0  0  0  0  0  0  0  0  0  0  0  0
    2.1406    6.5880    0.0000 O   0  0  0  0  0  0  0  0  0  0  0  0
    1.9635    1.4266    0.0000 C   0  0  0  0  0  0  0  0  0  0  0  0
  1  2  2  0
  2  3  1  0
  3  4  1  0
  4  5  1  0
  5  6  1  6
  5  7  1  0
  7  8  1  0
  7  9  2  0
  9 10  1  0
 10 11  1  0
 11 12  1  1
 12 13  1  0
 12 14  1  0
 11 15  1  0
 15 16  1  6
 17 16  1  6
 17 18  1  0
 18 19  1  0
 19 20  1  6
 20 21  1  0
 21 22  1  0
 22 23  1  0
 22 24  2  0
 19 25  1  0
 25 26  1  6
 25 27  1  0
 27 28  1  6
 27 29  1  0
 29 30  1  6
 15 31  1  0
 31  2  1  0
 29 17  1  0
M  END
>  <Compound_ID>  (619) 
C35271448

>  <Active>  (619) 
0.0

>  <Smiles>  (619) 
C=C1CC[C@H](O)/C(C)=C/C[C@@H](C(C)C)[C@H](O[C@H]2O[C@@H](COC(C)=O)[C@@H](O)[C@@H](O)[C@H]2O)C1

>  <canonical_smi>  (619) 
C=C1CC[C@H](O)/C(C)=C/C[C@@H](C(C)C)[C@H](O[C@H]2O[C@@H](COC(C)=O)[C@@H](O)[C@@H](O)[C@H]2O)C1

>  <Set>  (619) 
G2 inactive

>  <Set_type>  (619) 
Train

>  <MW>  (619) 
442.55

>  <HBD>  (619) 
4

>  <HBA>  (619) 
8

>  <NRB>  (619) 
5

>  <NR>  (619) 
2

>  <NAR>  (619) 
0

>  <PSA>  (619) 
125.68

>  <Standard Type>  (619) 
nan

>  <Standard Relation>  (619) 
nan

>  <Standard Units>  (619) 
nan

>  <Standard Value>  (619) 
nan

>  <Assay ChEMBL ID>  (619) 
nan

>  <Assay Description>  (619) 
nan

>  <BAO Label>  (619) 
nan

$$$$

     RDKit          2D

 33 36  0  0  0  0  0  0  0  0999 V2000
   -2.5981   -9.6073    0.0000 C   0  0  0  0  0  0  0  0  0  0  0  0
   -2.5981   -8.1073    0.0000 C   0  0  0  0  0  0  0  0  0  0  0  0
   -1.2990   -7.3573    0.0000 C   0  0  0  0  0  0  0  0  0  0  0  0
   -1.2990   -5.8573    0.0000 C   0  0  0  0  0  0  0  0  0  0  0  0
   -0.0000   -5.1073    0.0000 N   0  0  0  0  0  0  0  0  0  0  0  0
   -0.0000   -3.6073    0.0000 C   0  0  0  0  0  0  0  0  0  0  0  0
    1.2135   -2.7256    0.0000 N   0  0  0  0  0  4  0  0  0  0  0  0
    0.7500   -1.2990    0.0000 C   0  0  0  0  0  0  0  0  0  0  0  0
    1.5000    0.0000    0.0000 C   0  0  0  0  0  0  0  0  0  0  0  0
    0.7500    1.2990    0.0000 C   0  0  0  0  0  0  0  0  0  0  0  0
   -0.7500    1.2990    0.0000 C   0  0  0  0  0  0  0  0  0  0  0  0
   -1.5000    2.5981    0.0000 C   0  0  0  0  0  0  0  0  0  0  0  0
   -0.7500    3.8971    0.0000 N   0  0  0  0  0  0  0  0  0  0  0  0
   -1.5000    5.1962    0.0000 C   0  0  0  0  0  0  0  0  0  0  0  0
   -0.7500    6.4952    0.0000 C   0  0  0  0  0  0  0  0  0  0  0  0
   -1.5000    7.7942    0.0000 C   0  0  0  0  0  0  0  0  0  0  0  0
   -0.7500    9.0933    0.0000 C   0  0  0  0  0  0  0  0  0  0  0  0
   -3.0000    7.7942    0.0000 C   0  0  0  0  0  0  0  0  0  0  0  0
   -3.7500    6.4952    0.0000 C   0  0  0  0  0  0  0  0  0  0  0  0
   -5.2500    6.4952    0.0000 C   0  0  0  0  0  0  0  0  0  0  0  0
   -3.0000    5.1962    0.0000 C   0  0  0  0  0  0  0  0  0  0  0  0
   -1.5000    0.0000    0.0000 C   0  0  0  0  0  0  0  0  0  0  0  0
   -0.7500   -1.2990    0.0000 C   0  0  0  0  0  0  0  0  0  0  0  0
   -1.2135   -2.7256    0.0000 N   0  0  0  0  0  0  0  0  0  0  0  0
   -2.6401   -3.1891    0.0000 C   0  0  0  0  0  0  0  0  0  0  0  0
   -3.7548   -2.1855    0.0000 C   0  0  0  0  0  0  0  0  0  0  0  0
   -3.4430   -0.7182    0.0000 N   0  0  0  0  0  4  0  0  0  0  0  0
   -4.5577    0.2855    0.0000 C   0  0  0  0  0  0  0  0  0  0  0  0
   -4.2458    1.7527    0.0000 C   0  0  0  0  0  0  0  0  0  0  0  0
   -5.9843   -0.1781    0.0000 C   0  0  0  0  0  0  0  0  0  0  0  0
   -6.2961   -1.6453    0.0000 C   0  0  0  0  0  0  0  0  0  0  0  0
   -5.1814   -2.6490    0.0000 C   0  0  0  0  0  0  0  0  0  0  0  0
   -5.4933   -4.1162    0.0000 O   0  0  0  0  0  1  0  0  0  0  0  0
  1  2  1  0
  2  3  1  0
  3  4  1  0
  4  5  1  0
  5  6  1  0
  6  7  2  0
  7  8  1  0
  8  9  2  0
  9 10  1  0
 10 11  2  0
 11 12  1  0
 12 13  1  0
 13 14  1  0
 14 15  2  0
 15 16  1  0
 16 17  1  0
 16 18  2  0
 18 19  1  0
 19 20  1  0
 19 21  2  0
 11 22  1  0
 22 23  2  0
 23 24  1  0
 24 25  1  0
 25 26  1  0
 26 27  2  0
 27 28  1  0
 28 29  1  0
 28 30  2  0
 30 31  1  0
 31 32  2  0
 32 33  1  0
 24  6  1  0
 32 26  1  0
 23  8  1  0
 21 14  1  0
M  CHG  3   7   1  27   1  33  -1
M  END
>  <Compound_ID>  (620) 
C29134212

>  <Active>  (620) 
0.0

>  <Smiles>  (620) 
CCCCNc1[nH+]c2ccc(CNc3cc(C)cc(C)c3)cc2n1Cc1[nH+]c(C)ccc1[O-]

>  <canonical_smi>  (620) 
CCCCNc1[nH+]c2ccc(CNc3cc(C)cc(C)c3)cc2n1Cc1[nH+]c(C)ccc1[O-]

>  <Set>  (620) 
G2 inactive

>  <Set_type>  (620) 
Train

>  <MW>  (620) 
444.6

>  <HBD>  (620) 
2

>  <HBA>  (620) 
3

>  <NRB>  (620) 
9

>  <NR>  (620) 
4

>  <NAR>  (620) 
4

>  <PSA>  (620) 
80.33

>  <Standard Type>  (620) 
nan

>  <Standard Relation>  (620) 
nan

>  <Standard Units>  (620) 
nan

>  <Standard Value>  (620) 
nan

>  <Assay ChEMBL ID>  (620) 
nan

>  <Assay Description>  (620) 
nan

>  <BAO Label>  (620) 
nan

$$$$

     RDKit          2D

 23 25  0  0  0  0  0  0  0  0999 V2000
    3.9955   -4.2382    0.0000 N   0  0  0  0  0  0  0  0  0  0  0  0
    2.9918   -5.3529    0.0000 N   0  0  0  0  0  0  0  0  0  0  0  0
    1.5000   -5.1962    0.0000 C   0  0  0  0  0  0  0  0  0  0  0  0
    0.7500   -3.8971    0.0000 N   0  0  0  0  0  0  0  0  0  0  0  0
    1.5000   -2.5981    0.0000 N   0  0  0  0  0  0  0  0  0  0  0  0
    0.7500   -1.2990    0.0000 C   0  0  0  0  0  0  0  0  0  0  0  0
    1.5000    0.0000    0.0000 C   0  0  0  0  0  0  0  0  0  0  0  0
    0.7500    1.2990    0.0000 C   0  0  0  0  0  0  0  0  0  0  0  0
   -0.7500    1.2990    0.0000 C   0  0  0  0  0  0  0  0  0  0  0  0
   -1.5000    0.0000    0.0000 C   0  0  0  0  0  0  0  0  0  0  0  0
   -0.7500   -1.2990    0.0000 C   0  0  0  0  0  0  0  0  0  0  0  0
    0.8899   -6.5665    0.0000 N   0  0  0  0  0  0  0  0  0  0  0  0
    2.0046   -7.5702    0.0000 N   0  0  0  0  0  0  0  0  0  0  0  0
    3.3037   -6.8202    0.0000 C   0  0  0  0  0  0  0  0  0  0  0  0
    4.6740   -7.4303    0.0000 S   0  0  0  0  0  0  0  0  0  0  0  0
    4.8308   -8.9221    0.0000 C   0  0  0  0  0  0  0  0  0  0  0  0
    6.2011   -9.5322    0.0000 C   0  0  0  0  0  0  0  0  0  0  0  0
    6.3579  -11.0239    0.0000 C   0  0  0  0  0  0  0  0  0  0  0  0
    7.7282  -11.6340    0.0000 C   0  0  0  0  0  0  0  0  0  0  0  0
    8.9417  -10.7524    0.0000 C   0  0  0  0  0  0  0  0  0  0  0  0
   10.3120  -11.3625    0.0000 Cl  0  0  0  0  0  0  0  0  0  0  0  0
    8.7849   -9.2606    0.0000 C   0  0  0  0  0  0  0  0  0  0  0  0
    7.4146   -8.6505    0.0000 C   0  0  0  0  0  0  0  0  0  0  0  0
  1  2  1  0
  2  3  1  0
  3  4  1  0
  4  5  1  0
  5  6  2  0
  6  7  1  0
  7  8  1  0
  8  9  1  0
  9 10  1  0
 10 11  1  0
  3 12  2  0
 12 13  1  0
 13 14  2  0
 14 15  1  0
 15 16  1  0
 16 17  1  0
 17 18  2  0
 18 19  1  0
 19 20  2  0
 20 21  1  0
 20 22  1  0
 22 23  2  0
 14  2  1  0
 23 17  1  0
 11  6  1  0
M  END
>  <Compound_ID>  (621) 
C21327193

>  <Active>  (621) 
0.0

>  <Smiles>  (621) 
Nn1c(NN=C2CCCCC2)nnc1SCc1ccc(Cl)cc1

>  <canonical_smi>  (621) 
Nn1c(NN=C2CCCCC2)nnc1SCc1ccc(Cl)cc1

>  <Set>  (621) 
G2 inactive

>  <Set_type>  (621) 
Train

>  <MW>  (621) 
350.88

>  <HBD>  (621) 
2

>  <HBA>  (621) 
5

>  <NRB>  (621) 
5

>  <NR>  (621) 
3

>  <NAR>  (621) 
2

>  <PSA>  (621) 
81.12

>  <Standard Type>  (621) 
nan

>  <Standard Relation>  (621) 
nan

>  <Standard Units>  (621) 
nan

>  <Standard Value>  (621) 
nan

>  <Assay ChEMBL ID>  (621) 
nan

>  <Assay Description>  (621) 
nan

>  <BAO Label>  (621) 
nan

$$$$

     RDKit          2D

 27 29  0  0  0  0  0  0  0  0999 V2000
    3.0000    0.0000    0.0000 C   0  0  0  0  0  0  0  0  0  0  0  0
    1.5000    0.0000    0.0000 C   0  0  0  0  0  0  0  0  0  0  0  0
    0.7500   -1.2990    0.0000 C   0  0  0  0  0  0  0  0  0  0  0  0
   -0.7500   -1.2990    0.0000 C   0  0  0  0  0  0  0  0  0  0  0  0
   -1.5000   -2.5981    0.0000 C   0  0  0  0  0  0  0  0  0  0  0  0
   -1.5000    0.0000    0.0000 C   0  0  0  0  0  0  0  0  0  0  0  0
   -2.9672    0.3119    0.0000 C   0  0  0  0  0  0  0  0  0  0  0  0
   -4.0819   -0.6918    0.0000 N   0  0  0  0  0  0  0  0  0  0  0  0
   -3.1240    1.8037    0.0000 C   0  0  0  0  0  0  0  0  0  0  0  0
   -4.4231    2.5537    0.0000 C   0  0  0  0  0  0  0  0  0  0  0  0
   -5.7221    1.8037    0.0000 O   0  0  0  0  0  0  0  0  0  0  0  0
   -4.4231    4.0537    0.0000 O   0  0  0  0  0  0  0  0  0  0  0  0
   -5.7221    4.8037    0.0000 C   0  0  0  0  0  0  0  0  0  0  0  0
   -5.7221    6.3037    0.0000 C   0  0  0  0  0  0  0  0  0  0  0  0
   -7.0211    4.0537    0.0000 C   0  0  0  0  0  0  0  0  0  0  0  0
   -7.0211    2.5537    0.0000 O   0  0  0  0  0  0  0  0  0  0  0  0
   -8.3202    4.8037    0.0000 N   0  0  0  0  0  0  0  0  0  0  0  0
   -9.6192    4.0537    0.0000 C   0  0  0  0  0  0  0  0  0  0  0  0
  -10.9182    4.8037    0.0000 C   0  0  0  0  0  0  0  0  0  0  0  0
  -12.2173    4.0537    0.0000 C   0  0  0  0  0  0  0  0  0  0  0  0
  -12.2173    2.5537    0.0000 C   0  0  0  0  0  0  0  0  0  0  0  0
  -10.9182    1.8037    0.0000 C   0  0  0  0  0  0  0  0  0  0  0  0
   -9.6192    2.5537    0.0000 C   0  0  0  0  0  0  0  0  0  0  0  0
   -8.3202    1.8037    0.0000 C   0  0  0  0  0  0  0  0  0  0  0  0
   -1.7537    2.4138    0.0000 S   0  0  0  0  0  0  0  0  0  0  0  0
   -0.7500    1.2990    0.0000 C   0  0  0  0  0  0  0  0  0  0  0  0
    0.7500    1.2990    0.0000 N   0  0  0  0  0  0  0  0  0  0  0  0
  1  2  1  0
  2  3  2  0
  3  4  1  0
  4  5  1  0
  4  6  2  0
  6  7  1  0
  7  8  1  0
  7  9  2  0
  9 10  1  0
 10 11  2  0
 10 12  1  0
 12 13  1  0
 13 14  1  6
 13 15  1  0
 15 16  2  0
 15 17  1  0
 18 17  1  1
 18 19  1  0
 19 20  1  0
 20 21  1  0
 21 22  1  0
 22 23  1  0
 23 24  1  1
  9 25  1  0
 25 26  1  0
 26 27  2  0
 27  2  1  0
 26  6  1  0
 23 18  1  0
M  END
>  <Compound_ID>  (622) 
C36713183

>  <Active>  (622) 
0.0

>  <Smiles>  (622) 
Cc1cc(C)c2c(N)c(C(=O)O[C@@H](C)C(=O)N[C@@H]3CCCC[C@@H]3C)sc2n1

>  <canonical_smi>  (622) 
Cc1cc(C)c2c(N)c(C(=O)O[C@@H](C)C(=O)N[C@@H]3CCCC[C@@H]3C)sc2n1

>  <Set>  (622) 
G2 inactive

>  <Set_type>  (622) 
Train

>  <MW>  (622) 
389.52

>  <HBD>  (622) 
2

>  <HBA>  (622) 
5

>  <NRB>  (622) 
4

>  <NR>  (622) 
3

>  <NAR>  (622) 
2

>  <PSA>  (622) 
94.31

>  <Standard Type>  (622) 
nan

>  <Standard Relation>  (622) 
nan

>  <Standard Units>  (622) 
nan

>  <Standard Value>  (622) 
nan

>  <Assay ChEMBL ID>  (622) 
nan

>  <Assay Description>  (622) 
nan

>  <BAO Label>  (622) 
nan

$$$$

     RDKit          2D

 26 28  0  0  0  0  0  0  0  0999 V2000
    6.5490   -7.2452    0.0000 C   0  0  0  0  0  0  0  0  0  0  0  0
    5.0490   -7.2452    0.0000 C   0  0  0  0  0  0  0  0  0  0  0  0
    4.2990   -8.5442    0.0000 C   0  0  0  0  0  0  0  0  0  0  0  0
    4.2990   -5.9462    0.0000 C   0  0  0  0  0  0  0  0  0  0  0  0
    2.7990   -5.9462    0.0000 C   0  0  0  0  0  0  0  0  0  0  0  0
    1.5000   -5.1962    0.0000 C   0  0  0  0  0  0  0  0  0  0  0  0
    0.7500   -3.8971    0.0000 C   0  0  0  0  0  0  0  0  0  0  0  0
   -0.7500   -3.8971    0.0000 O   0  0  0  0  0  0  0  0  0  0  0  0
    1.5000   -2.5981    0.0000 N   0  0  0  0  0  0  0  0  0  0  0  0
    0.7500   -1.2990    0.0000 C   0  0  0  0  0  0  0  0  0  0  0  0
    1.5000    0.0000    0.0000 C   0  0  0  0  0  0  0  0  0  0  0  0
    0.7500    1.2990    0.0000 C   0  0  0  0  0  0  0  0  0  0  0  0
   -0.7500    1.2990    0.0000 C   0  0  0  0  0  0  0  0  0  0  0  0
   -1.5000    0.0000    0.0000 C   0  0  0  0  0  0  0  0  0  0  0  0
   -3.0000    0.0000    0.0000 C   0  0  0  0  0  0  0  0  0  0  0  0
   -2.8432   -1.4918    0.0000 C   0  0  0  0  0  0  0  0  0  0  0  0
   -4.4672   -0.3119    0.0000 N   0  0  0  0  0  0  0  0  0  0  0  0
   -5.2172    0.9872    0.0000 C   0  0  0  0  0  0  0  0  0  0  0  0
   -6.7090    1.1440    0.0000 O   0  0  0  0  0  0  0  0  0  0  0  0
   -4.2135    2.1019    0.0000 N   0  0  0  0  0  0  0  0  0  0  0  0
   -2.8432    1.4918    0.0000 C   0  0  0  0  0  0  0  0  0  0  0  0
   -1.5442    2.2418    0.0000 O   0  0  0  0  0  0  0  0  0  0  0  0
   -0.7500   -1.2990    0.0000 C   0  0  0  0  0  0  0  0  0  0  0  0
    1.5000   -6.6962    0.0000 C   0  0  0  0  0  0  0  0  0  0  0  0
    2.0130   -8.1057    0.0000 C   0  0  0  0  0  0  0  0  0  0  0  0
    0.0228   -6.9566    0.0000 C   0  0  0  0  0  0  0  0  0  0  0  0
  1  2  1  0
  2  3  1  0
  2  4  2  0
  5  4  1  1
  5  6  1  0
  6  7  1  6
  7  8  2  0
  7  9  1  0
  9 10  1  0
 10 11  2  0
 11 12  1  0
 12 13  2  0
 13 14  1  0
 14 15  1  0
 15 16  1  6
 15 17  1  0
 17 18  1  0
 18 19  2  0
 18 20  1  0
 20 21  1  0
 21 22  2  0
 14 23  2  0
  6 24  1  0
 24 25  1  0
 24 26  1  0
 24  5  1  0
 23 10  1  0
 21 15  1  0
M  END
>  <Compound_ID>  (623) 
C58982845

>  <Active>  (623) 
0.0

>  <Smiles>  (623) 
CC(C)=C[C@@H]1[C@@H](C(=O)Nc2cccc([C@@]3(C)NC(=O)NC3=O)c2)C1(C)C

>  <canonical_smi>  (623) 
CC(C)=C[C@@H]1[C@@H](C(=O)Nc2cccc([C@@]3(C)NC(=O)NC3=O)c2)C1(C)C

>  <Set>  (623) 
G2 inactive

>  <Set_type>  (623) 
Train

>  <MW>  (623) 
355.44

>  <HBD>  (623) 
3

>  <HBA>  (623) 
3

>  <NRB>  (623) 
4

>  <NR>  (623) 
3

>  <NAR>  (623) 
1

>  <PSA>  (623) 
87.3

>  <Standard Type>  (623) 
nan

>  <Standard Relation>  (623) 
nan

>  <Standard Units>  (623) 
nan

>  <Standard Value>  (623) 
nan

>  <Assay ChEMBL ID>  (623) 
nan

>  <Assay Description>  (623) 
nan

>  <BAO Label>  (623) 
nan

$$$$

     RDKit          2D

 26 29  0  0  0  0  0  0  0  0999 V2000
  -10.3946    0.4398    0.0000 C   0  0  0  0  0  0  0  0  0  0  0  0
   -8.9681    0.9033    0.0000 C   0  0  0  0  0  0  0  0  0  0  0  0
   -7.8533   -0.1004    0.0000 O   0  0  0  0  0  0  0  0  0  0  0  0
   -6.4268    0.3631    0.0000 C   0  0  0  0  0  0  0  0  0  0  0  0
   -6.1149    1.8303    0.0000 C   0  0  0  0  0  0  0  0  0  0  0  0
   -4.6883    2.2939    0.0000 C   0  0  0  0  0  0  0  0  0  0  0  0
   -3.5736    1.2902    0.0000 C   0  0  0  0  0  0  0  0  0  0  0  0
   -2.1470    1.7537    0.0000 C   0  0  0  0  0  0  0  0  0  0  0  0
   -1.8351    3.2209    0.0000 C   0  0  0  0  0  0  0  0  0  0  0  0
   -0.4086    3.6844    0.0000 C   0  0  0  0  0  0  0  0  0  0  0  0
   -0.0967    5.1517    0.0000 C   0  0  0  0  0  0  0  0  0  0  0  0
    1.3299    5.6152    0.0000 C   0  0  0  0  0  0  0  0  0  0  0  0
    1.6418    7.0824    0.0000 C   0  0  0  0  0  0  0  0  0  0  0  0
    0.5271    8.0861    0.0000 C   0  0  0  0  0  0  0  0  0  0  0  0
    0.8389    9.5533    0.0000 F   0  0  0  0  0  0  0  0  0  0  0  0
   -0.8995    7.6226    0.0000 C   0  0  0  0  0  0  0  0  0  0  0  0
   -1.2114    6.1554    0.0000 C   0  0  0  0  0  0  0  0  0  0  0  0
    0.7062    2.6807    0.0000 N   0  0  0  0  0  0  0  0  0  0  0  0
    0.3943    1.2135    0.0000 C   0  0  0  0  0  0  0  0  0  0  0  0
    1.2760    0.0000    0.0000 N   0  0  0  0  0  0  0  0  0  0  0  0
    0.3943   -1.2135    0.0000 C   0  0  0  0  0  0  0  0  0  0  0  0
    0.8578   -2.6401    0.0000 N   0  0  0  0  0  0  0  0  0  0  0  0
   -1.0323   -0.7500    0.0000 N   0  0  0  0  0  0  0  0  0  0  0  0
   -1.0323    0.7500    0.0000 N   0  0  0  0  0  0  0  0  0  0  0  0
   -3.8855   -0.1771    0.0000 C   0  0  0  0  0  0  0  0  0  0  0  0
   -5.3120   -0.6406    0.0000 C   0  0  0  0  0  0  0  0  0  0  0  0
  1  2  1  0
  2  3  1  0
  3  4  1  0
  4  5  2  0
  5  6  1  0
  6  7  2  0
  8  7  1  1
  8  9  1  0
  9 10  1  0
 10 11  1  1
 11 12  2  0
 12 13  1  0
 13 14  2  0
 14 15  1  0
 14 16  1  0
 16 17  2  0
 10 18  1  0
 18 19  1  0
 19 20  2  0
 20 21  1  0
 21 22  1  0
 21 23  2  0
 23 24  1  0
  7 25  1  0
 25 26  2  0
 26  4  1  0
 24  8  1  0
 17 11  1  0
 24 19  1  0
M  END
>  <Compound_ID>  (624) 
C13131836

>  <Active>  (624) 
0.0

>  <Smiles>  (624) 
CCOc1ccc([C@H]2C[C@@H](c3ccc(F)cc3)Nc3nc(N)nn32)cc1

>  <canonical_smi>  (624) 
CCOc1ccc([C@H]2C[C@@H](c3ccc(F)cc3)Nc3nc(N)nn32)cc1

>  <Set>  (624) 
G2 inactive

>  <Set_type>  (624) 
Train

>  <MW>  (624) 
353.4

>  <HBD>  (624) 
2

>  <HBA>  (624) 
5

>  <NRB>  (624) 
4

>  <NR>  (624) 
4

>  <NAR>  (624) 
3

>  <PSA>  (624) 
77.99

>  <Standard Type>  (624) 
nan

>  <Standard Relation>  (624) 
nan

>  <Standard Units>  (624) 
nan

>  <Standard Value>  (624) 
nan

>  <Assay ChEMBL ID>  (624) 
nan

>  <Assay Description>  (624) 
nan

>  <BAO Label>  (624) 
nan

$$$$

     RDKit          2D

 31 33  0  0  0  0  0  0  0  0999 V2000
    3.7500   -1.2990    0.0000 C   0  0  0  0  0  0  0  0  0  0  0  0
    3.0000    0.0000    0.0000 O   0  0  0  0  0  0  0  0  0  0  0  0
    1.5000    0.0000    0.0000 C   0  0  0  0  0  0  0  0  0  0  0  0
    0.7500   -1.2990    0.0000 C   0  0  0  0  0  0  0  0  0  0  0  0
    1.5000   -2.5981    0.0000 C   0  0  0  0  0  0  0  0  0  0  0  0
   -0.7500   -1.2990    0.0000 C   0  0  0  0  0  0  0  0  0  0  0  0
   -1.5000   -2.5981    0.0000 C   0  0  0  0  0  0  0  0  0  0  0  0
   -0.2010   -3.3481    0.0000 C   0  0  0  0  0  0  0  0  0  0  0  0
   -2.2500   -3.8971    0.0000 O   0  0  0  0  0  0  0  0  0  0  0  0
   -2.7990   -1.8481    0.0000 C   0  0  0  0  0  0  0  0  0  0  0  0
   -4.0981   -2.5981    0.0000 C   0  0  0  0  0  0  0  0  0  0  0  0
   -4.0981   -4.0981    0.0000 C   0  0  0  0  0  0  0  0  0  0  0  0
   -5.3971   -1.8481    0.0000 C   0  0  0  0  0  0  0  0  0  0  0  0
   -6.6962   -2.5981    0.0000 O   0  0  0  0  0  0  0  0  0  0  0  0
   -5.3971   -0.3481    0.0000 C   0  0  0  0  0  0  0  0  0  0  0  0
   -4.0981    0.4019    0.0000 C   0  0  0  0  0  0  0  0  0  0  0  0
   -6.6962    0.4019    0.0000 C   0  0  0  0  0  0  0  0  0  0  0  0
   -6.6962    1.9019    0.0000 C   0  0  0  0  0  0  0  0  0  0  0  0
   -5.2044    1.7451    0.0000 C   0  0  0  0  0  0  0  0  0  0  0  0
   -6.3843    3.3691    0.0000 O   0  0  0  0  0  0  0  0  0  0  0  0
   -7.6833    4.1191    0.0000 C   0  0  0  0  0  0  0  0  0  0  0  0
   -7.8401    5.6109    0.0000 C   0  0  0  0  0  0  0  0  0  0  0  0
   -8.7980    3.1154    0.0000 C   0  0  0  0  0  0  0  0  0  0  0  0
   -9.9128    4.1191    0.0000 C   0  0  0  0  0  0  0  0  0  0  0  0
   -9.6797    1.9019    0.0000 O   0  0  0  0  0  0  0  0  0  0  0  0
   -8.1879    1.7451    0.0000 C   0  0  0  0  0  0  0  0  0  0  0  0
   -1.5000    0.0000    0.0000 O   0  0  0  0  0  0  0  0  0  0  0  0
   -0.7500    1.2990    0.0000 C   0  0  0  0  0  0  0  0  0  0  0  0
   -1.5000    2.5981    0.0000 O   0  0  0  0  0  0  0  0  0  0  0  0
    0.7500    1.2990    0.0000 C   0  0  0  0  0  0  0  0  0  0  0  0
    1.5000    2.5981    0.0000 C   0  0  0  0  0  0  0  0  0  0  0  0
  1  2  1  0
  2  3  1  0
  3  4  1  0
  4  5  1  0
  4  6  2  0
  6  7  1  0
  7  8  1  1
  7  9  1  0
  7 10  1  0
 10 11  2  0
 11 12  1  0
 11 13  1  0
 13 14  1  1
 13 15  1  0
 15 16  1  0
 15 17  2  0
 17 18  1  0
 18 19  1  1
 18 20  1  0
 20 21  1  0
 21 22  1  6
 21 23  1  0
 23 24  1  6
 23 25  1  0
 26 25  1  1
  6 27  1  0
 27 28  1  0
 28 29  2  0
 28 30  1  0
 30 31  1  0
 30  3  2  0
 26 18  1  0
 26 23  1  0
M  END
>  <Compound_ID>  (625) 
C49601565

>  <Active>  (625) 
0.0

>  <Smiles>  (625) 
COc1c(C)c([C@](C)(O)/C=C(\C)[C@@H](O)/C(C)=C/[C@@]2(C)O[C@@H](C)[C@]3(C)O[C@@H]32)oc(=O)c1C

>  <canonical_smi>  (625) 
COc1c(C)c([C@](C)(O)/C=C(\C)[C@@H](O)/C(C)=C/[C@@]2(C)O[C@@H](C)[C@]3(C)O[C@@H]32)oc(=O)c1C

>  <Set>  (625) 
G2 inactive

>  <Set_type>  (625) 
Train

>  <MW>  (625) 
434.53

>  <HBD>  (625) 
2

>  <HBA>  (625) 
7

>  <NRB>  (625) 
6

>  <NR>  (625) 
3

>  <NAR>  (625) 
1

>  <PSA>  (625) 
101.66

>  <Standard Type>  (625) 
nan

>  <Standard Relation>  (625) 
nan

>  <Standard Units>  (625) 
nan

>  <Standard Value>  (625) 
nan

>  <Assay ChEMBL ID>  (625) 
nan

>  <Assay Description>  (625) 
nan

>  <BAO Label>  (625) 
nan

$$$$

     RDKit          2D

 27 28  0  0  0  0  0  0  0  0999 V2000
   -0.6546  -12.7344    0.0000 C   0  0  0  0  0  0  0  0  0  0  0  0
   -0.8113  -11.2427    0.0000 C   0  0  0  0  0  0  0  0  0  0  0  0
    0.4022  -10.3610    0.0000 C   0  0  0  0  0  0  0  0  0  0  0  0
    0.2454   -8.8692    0.0000 C   0  0  0  0  0  0  0  0  0  0  0  0
    1.3601   -7.8655    0.0000 C   0  0  0  0  0  0  0  0  0  0  0  0
    0.7500   -6.4952    0.0000 C   0  0  0  0  0  0  0  0  0  0  0  0
    1.5000   -5.1962    0.0000 C   0  0  0  0  0  0  0  0  0  0  0  0
    3.0000   -5.1962    0.0000 O   0  0  0  0  0  0  0  0  0  0  0  0
    0.7500   -3.8971    0.0000 N   0  0  0  0  0  0  0  0  0  0  0  0
    1.5000   -2.5981    0.0000 C   0  0  0  0  0  0  0  0  0  0  0  0
    0.7500   -1.2990    0.0000 C   0  0  0  0  0  0  0  0  0  0  0  0
    1.5000    0.0000    0.0000 O   0  0  0  0  0  0  0  0  0  0  0  0
    0.7500    1.2990    0.0000 C   0  0  0  0  0  0  0  0  0  0  0  0
    1.5000    2.5981    0.0000 S   0  0  0  0  0  0  0  0  0  0  0  0
    3.0000    2.5981    0.0000 C   0  0  0  0  0  0  0  0  0  0  0  0
   -0.7500    1.2990    0.0000 C   0  0  0  0  0  0  0  0  0  0  0  0
   -1.5000    2.5981    0.0000 O   0  0  0  0  0  0  0  0  0  0  0  0
   -1.5000    0.0000    0.0000 C   0  0  0  0  0  0  0  0  0  0  0  0
   -3.0000    0.0000    0.0000 O   0  0  0  0  0  0  0  0  0  0  0  0
   -0.7500   -1.2990    0.0000 C   0  0  0  0  0  0  0  0  0  0  0  0
   -1.5000   -2.5981    0.0000 O   0  0  0  0  0  0  0  0  0  0  0  0
    3.0000   -2.5981    0.0000 C   0  0  0  0  0  0  0  0  0  0  0  0
    3.7500   -3.8971    0.0000 C   0  0  0  0  0  0  0  0  0  0  0  0
    3.7500   -1.2990    0.0000 Cl  0  0  0  0  0  0  0  0  0  0  0  0
   -0.7418   -6.6520    0.0000 N   0  0  0  0  0  4  0  0  0  0  0  0
   -1.7455   -5.5373    0.0000 C   0  0  0  0  0  0  0  0  0  0  0  0
   -1.0537   -8.1192    0.0000 C   0  0  0  0  0  0  0  0  0  0  0  0
  1  2  1  0
  2  3  1  0
  4  3  1  6
  4  5  1  0
  5  6  1  0
  6  7  1  1
  7  8  2  0
  7  9  1  0
 10  9  1  6
 10 11  1  0
 11 12  1  1
 12 13  1  0
 13 14  1  6
 14 15  1  0
 13 16  1  0
 16 17  1  6
 16 18  1  0
 18 19  1  6
 18 20  1  0
 20 21  1  1
 10 22  1  0
 22 23  1  6
 22 24  1  0
  6 25  1  0
 25 26  1  0
 25 27  1  0
 27  4  1  0
 20 11  1  0
M  CHG  1  25   1
M  END
>  <Compound_ID>  (626) 
C08551996

>  <Active>  (626) 
0.0

>  <Smiles>  (626) 
CCC[C@H]1C[C@H](C(=O)N[C@H]([C@@H]2O[C@@H](SC)[C@@H](O)[C@@H](O)[C@@H]2O)[C@@H](C)Cl)[NH+](C)C1

>  <canonical_smi>  (626) 
CCC[C@H]1C[C@H](C(=O)N[C@H]([C@@H]2O[C@@H](SC)[C@@H](O)[C@@H](O)[C@@H]2O)[C@@H](C)Cl)[NH+](C)C1

>  <Set>  (626) 
G2 inactive

>  <Set_type>  (626) 
Train

>  <MW>  (626) 
426.0

>  <HBD>  (626) 
5

>  <HBA>  (626) 
6

>  <NRB>  (626) 
7

>  <NR>  (626) 
2

>  <NAR>  (626) 
0

>  <PSA>  (626) 
103.46

>  <Standard Type>  (626) 
nan

>  <Standard Relation>  (626) 
nan

>  <Standard Units>  (626) 
nan

>  <Standard Value>  (626) 
nan

>  <Assay ChEMBL ID>  (626) 
nan

>  <Assay Description>  (626) 
nan

>  <BAO Label>  (626) 
nan

$$$$

     RDKit          2D

 31 32  0  0  0  0  0  0  0  0999 V2000
   10.5000   -5.1962    0.0000 C   0  0  0  0  0  0  0  0  0  0  0  0
    9.7500   -3.8971    0.0000 C   0  0  0  0  0  0  0  0  0  0  0  0
   10.5000   -2.5981    0.0000 C   0  0  0  0  0  0  0  0  0  0  0  0
    8.2500   -3.8971    0.0000 O   0  0  0  0  0  0  0  0  0  0  0  0
    7.5000   -2.5981    0.0000 C   0  0  0  0  0  0  0  0  0  0  0  0
    6.0000   -2.5981    0.0000 C   0  0  0  0  0  0  0  0  0  0  0  0
    5.2500   -1.2990    0.0000 C   0  0  0  0  0  0  0  0  0  0  0  0
    3.7500   -1.2990    0.0000 N   0  0  0  0  0  0  0  0  0  0  0  0
    3.0000    0.0000    0.0000 C   0  0  0  0  0  0  0  0  0  0  0  0
    3.7500    1.2990    0.0000 O   0  0  0  0  0  0  0  0  0  0  0  0
    1.5000    0.0000    0.0000 C   0  0  0  0  0  0  0  0  0  0  0  0
    0.7500   -1.2990    0.0000 C   0  0  0  0  0  0  0  0  0  0  0  0
   -0.7500   -1.2990    0.0000 S   0  0  0  0  0  0  0  0  0  0  0  0
   -1.5000    0.0000    0.0000 C   0  0  0  0  0  0  0  0  0  0  0  0
   -0.7500    1.2990    0.0000 C   0  0  0  0  0  0  0  0  0  0  0  0
   -1.5000    2.5981    0.0000 C   0  0  0  0  0  0  0  0  0  0  0  0
   -0.7500    3.8971    0.0000 C   0  0  0  0  0  0  0  0  0  0  0  0
   -1.5000    5.1962    0.0000 C   0  0  0  0  0  0  0  0  0  0  0  0
   -0.7500    6.4952    0.0000 C   0  0  0  0  0  0  0  0  0  0  0  0
    0.5490    5.7452    0.0000 C   0  0  0  0  0  0  0  0  0  0  0  0
   -2.0490    7.2452    0.0000 C   0  0  0  0  0  0  0  0  0  0  0  0
    0.0000    7.7942    0.0000 C   0  0  0  0  0  0  0  0  0  0  0  0
   -3.0000    5.1962    0.0000 C   0  0  0  0  0  0  0  0  0  0  0  0
   -3.7500    6.4952    0.0000 O   0  0  0  0  0  0  0  0  0  0  0  0
   -3.7500    3.8971    0.0000 C   0  0  0  0  0  0  0  0  0  0  0  0
   -5.2500    3.8971    0.0000 C   0  0  0  0  0  0  0  0  0  0  0  0
   -5.2500    2.3971    0.0000 C   0  0  0  0  0  0  0  0  0  0  0  0
   -5.2500    5.3971    0.0000 C   0  0  0  0  0  0  0  0  0  0  0  0
   -6.7500    3.8971    0.0000 C   0  0  0  0  0  0  0  0  0  0  0  0
   -3.0000    2.5981    0.0000 C   0  0  0  0  0  0  0  0  0  0  0  0
    0.7500    1.2990    0.0000 N   0  0  0  0  0  4  0  0  0  0  0  0
  1  2  1  0
  2  3  1  0
  2  4  1  0
  4  5  1  0
  5  6  1  0
  6  7  1  0
  7  8  1  0
  8  9  1  0
  9 10  2  0
 11  9  1  6
 11 12  1  0
 12 13  1  0
 13 14  1  0
 14 15  1  0
 15 16  1  6
 16 17  2  0
 17 18  1  0
 18 19  1  0
 19 20  1  0
 19 21  1  0
 19 22  1  0
 18 23  2  0
 23 24  1  0
 23 25  1  0
 25 26  1  0
 26 27  1  0
 26 28  1  0
 26 29  1  0
 25 30  2  0
 15 31  1  0
 31 11  1  0
 30 16  1  0
M  CHG  1  31   1
M  END
>  <Compound_ID>  (627) 
C44164843

>  <Active>  (627) 
0.0

>  <Smiles>  (627) 
CC(C)OCCCNC(=O)[C@@H]1CSC[C@H](c2cc(C(C)(C)C)c(O)c(C(C)(C)C)c2)[NH2+]1

>  <canonical_smi>  (627) 
CC(C)OCCCNC(=O)[C@@H]1CSC[C@H](c2cc(C(C)(C)C)c(O)c(C(C)(C)C)c2)[NH2+]1

>  <Set>  (627) 
G2 inactive

>  <Set_type>  (627) 
Train

>  <MW>  (627) 
451.7

>  <HBD>  (627) 
3

>  <HBA>  (627) 
4

>  <NRB>  (627) 
7

>  <NR>  (627) 
2

>  <NAR>  (627) 
1

>  <PSA>  (627) 
75.17

>  <Standard Type>  (627) 
nan

>  <Standard Relation>  (627) 
nan

>  <Standard Units>  (627) 
nan

>  <Standard Value>  (627) 
nan

>  <Assay ChEMBL ID>  (627) 
nan

>  <Assay Description>  (627) 
nan

>  <BAO Label>  (627) 
nan

$$$$

     RDKit          2D

 21 22  0  0  0  0  0  0  0  0999 V2000
    3.0000   -7.7942    0.0000 O   0  0  0  0  0  0  0  0  0  0  0  0
    1.5000   -7.7942    0.0000 C   0  0  0  0  0  0  0  0  0  0  0  0
    0.7500   -6.4952    0.0000 C   0  0  0  0  0  0  0  0  0  0  0  0
    1.5000   -5.1962    0.0000 N   0  0  0  0  0  4  0  0  0  0  0  0
    0.7500   -3.8971    0.0000 C   0  0  0  0  0  0  0  0  0  0  0  0
    1.5000   -2.5981    0.0000 C   0  0  0  0  0  0  0  0  0  0  0  0
    0.7500   -1.2990    0.0000 C   0  0  0  0  0  0  0  0  0  0  0  0
    1.5000    0.0000    0.0000 C   0  0  0  0  0  0  0  0  0  0  0  0
    0.7500    1.2990    0.0000 C   0  0  0  0  0  0  0  0  0  0  0  0
   -0.7500    1.2990    0.0000 C   0  0  0  0  0  0  0  0  0  0  0  0
   -1.5000    2.5981    0.0000 Cl  0  0  0  0  0  0  0  0  0  0  0  0
   -1.5000    0.0000    0.0000 C   0  0  0  0  0  0  0  0  0  0  0  0
   -0.7500   -1.2990    0.0000 C   0  0  0  0  0  0  0  0  0  0  0  0
   -1.5000   -2.5981    0.0000 Cl  0  0  0  0  0  0  0  0  0  0  0  0
    0.7500   -9.0933    0.0000 C   0  0  0  0  0  0  0  0  0  0  0  0
   -0.7500   -9.0933    0.0000 C   0  0  0  0  0  0  0  0  0  0  0  0
   -1.5000  -10.3923    0.0000 C   0  0  0  0  0  0  0  0  0  0  0  0
   -0.7500  -11.6913    0.0000 C   0  0  0  0  0  0  0  0  0  0  0  0
    0.7500  -11.6913    0.0000 C   0  0  0  0  0  0  0  0  0  0  0  0
    1.5000  -12.9904    0.0000 Br  0  0  0  0  0  0  0  0  0  0  0  0
    1.5000  -10.3923    0.0000 C   0  0  0  0  0  0  0  0  0  0  0  0
  2  1  1  1
  2  3  1  0
  3  4  1  0
  4  5  1  0
  5  6  1  0
  6  7  1  0
  7  8  2  0
  8  9  1  0
  9 10  2  0
 10 11  1  0
 10 12  1  0
 12 13  2  0
 13 14  1  0
  2 15  1  0
 15 16  2  0
 16 17  1  0
 17 18  2  0
 18 19  1  0
 19 20  1  0
 19 21  2  0
 13  7  1  0
 21 15  1  0
M  CHG  1   4   1
M  END
>  <Compound_ID>  (628) 
C37860092

>  <Active>  (628) 
0.0

>  <Smiles>  (628) 
O[C@H](C[NH2+]CCc1ccc(Cl)cc1Cl)c1cccc(Br)c1

>  <canonical_smi>  (628) 
O[C@H](C[NH2+]CCc1ccc(Cl)cc1Cl)c1cccc(Br)c1

>  <Set>  (628) 
G2 inactive

>  <Set_type>  (628) 
Train

>  <MW>  (628) 
390.13

>  <HBD>  (628) 
2

>  <HBA>  (628) 
1

>  <NRB>  (628) 
6

>  <NR>  (628) 
2

>  <NAR>  (628) 
2

>  <PSA>  (628) 
36.84

>  <Standard Type>  (628) 
nan

>  <Standard Relation>  (628) 
nan

>  <Standard Units>  (628) 
nan

>  <Standard Value>  (628) 
nan

>  <Assay ChEMBL ID>  (628) 
nan

>  <Assay Description>  (628) 
nan

>  <BAO Label>  (628) 
nan

$$$$

     RDKit          2D

 21 23  0  0  0  0  0  0  0  0999 V2000
    4.2558    4.6904    0.0000 C   0  0  0  0  0  0  0  0  0  0  0  0
    2.7886    4.3786    0.0000 C   0  0  0  0  0  0  0  0  0  0  0  0
    2.3250    2.9520    0.0000 C   0  0  0  0  0  0  0  0  0  0  0  0
    3.3287    1.8373    0.0000 N   0  0  0  0  0  0  0  0  0  0  0  0
    0.8578    2.6401    0.0000 C   0  0  0  0  0  0  0  0  0  0  0  0
    0.3943    1.2135    0.0000 C   0  0  0  0  0  0  0  0  0  0  0  0
    1.2760    0.0000    0.0000 C   0  0  0  0  0  0  0  0  0  0  0  0
    0.3943   -1.2135    0.0000 C   0  0  0  0  0  0  0  0  0  0  0  0
   -1.0323   -0.7500    0.0000 C   0  0  0  0  0  0  0  0  0  0  0  0
   -2.2458   -1.6317    0.0000 Br  0  0  0  0  0  0  0  0  0  0  0  0
   -1.0323    0.7500    0.0000 S   0  0  0  0  0  0  0  0  0  0  0  0
   -0.1459    3.7548    0.0000 N   0  0  0  0  0  4  0  0  0  0  0  0
    0.3177    5.1814    0.0000 C   0  0  0  0  0  0  0  0  0  0  0  0
   -0.6860    6.2961    0.0000 C   0  0  0  0  0  0  0  0  0  0  0  0
   -2.1778    6.1393    0.0000 C   0  0  0  0  0  0  0  0  0  0  0  0
   -2.7879    7.5097    0.0000 C   0  0  0  0  0  0  0  0  0  0  0  0
   -1.6732    8.5134    0.0000 S   0  0  0  0  0  0  0  0  0  0  0  0
   -0.3742    7.7634    0.0000 C   0  0  0  0  0  0  0  0  0  0  0  0
   -1.6131    3.4430    0.0000 C   0  0  0  0  0  0  0  0  0  0  0  0
   -2.7278    2.4393    0.0000 C   0  0  0  0  0  0  0  0  0  0  0  0
   -3.0397    3.9065    0.0000 C   0  0  0  0  0  0  0  0  0  0  0  0
  1  2  1  0
  2  3  1  0
  3  4  1  6
  3  5  1  0
  5  6  1  0
  6  7  2  0
  7  8  1  0
  8  9  2  0
  9 10  1  0
  9 11  1  0
  5 12  1  1
 12 13  1  0
 13 14  1  0
 14 15  1  0
 15 16  2  0
 16 17  1  0
 17 18  1  0
 12 19  1  0
 19 20  1  0
 20 21  1  0
 11  6  1  0
 18 14  2  0
 21 19  1  0
M  CHG  1  12   1
M  END
>  <Compound_ID>  (629) 
C43261749

>  <Active>  (629) 
0.0

>  <Smiles>  (629) 
CC[C@H](N)[C@@H](c1ccc(Br)s1)[NH+](Cc1ccsc1)C1CC1

>  <canonical_smi>  (629) 
CC[C@H](N)[C@@H](c1ccc(Br)s1)[NH+](Cc1ccsc1)C1CC1

>  <Set>  (629) 
G2 inactive

>  <Set_type>  (629) 
Train

>  <MW>  (629) 
386.4

>  <HBD>  (629) 
2

>  <HBA>  (629) 
1

>  <NRB>  (629) 
7

>  <NR>  (629) 
3

>  <NAR>  (629) 
2

>  <PSA>  (629) 
30.46

>  <Standard Type>  (629) 
nan

>  <Standard Relation>  (629) 
nan

>  <Standard Units>  (629) 
nan

>  <Standard Value>  (629) 
nan

>  <Assay ChEMBL ID>  (629) 
nan

>  <Assay Description>  (629) 
nan

>  <BAO Label>  (629) 
nan

$$$$

     RDKit          2D

 20 21  0  0  0  0  0  0  0  0999 V2000
    1.5000   -5.1962    0.0000 C   0  0  0  0  0  0  0  0  0  0  0  0
    0.7500   -3.8971    0.0000 N   0  0  0  0  0  0  0  0  0  0  0  0
    1.5000   -2.5981    0.0000 C   0  0  0  0  0  0  0  0  0  0  0  0
    3.0000   -2.5981    0.0000 C   0  0  0  0  0  0  0  0  0  0  0  0
    3.7500   -1.2990    0.0000 C   0  0  0  0  0  0  0  0  0  0  0  0
    5.2500   -1.2990    0.0000 C   0  0  0  0  0  0  0  0  0  0  0  0
    6.0000   -2.5981    0.0000 C   0  0  0  0  0  0  0  0  0  0  0  0
    5.2500   -3.8971    0.0000 C   0  0  0  0  0  0  0  0  0  0  0  0
    3.7500   -3.8971    0.0000 C   0  0  0  0  0  0  0  0  0  0  0  0
    3.0000   -5.1962    0.0000 Br  0  0  0  0  0  0  0  0  0  0  0  0
   -0.7500   -3.8971    0.0000 C   0  0  0  0  0  0  0  0  0  0  0  0
   -1.5000   -2.5981    0.0000 C   0  0  0  0  0  0  0  0  0  0  0  0
   -3.0000   -2.5981    0.0000 N   0  0  0  0  0  4  0  0  0  0  0  0
   -1.5000   -5.1962    0.0000 C   0  0  0  0  0  0  0  0  0  0  0  0
   -3.0000   -5.1962    0.0000 C   0  0  0  0  0  0  0  0  0  0  0  0
   -3.7500   -6.4952    0.0000 C   0  0  0  0  0  0  0  0  0  0  0  0
   -3.0000   -7.7942    0.0000 C   0  0  0  0  0  0  0  0  0  0  0  0
   -1.5000   -7.7942    0.0000 C   0  0  0  0  0  0  0  0  0  0  0  0
   -0.7500   -6.4952    0.0000 C   0  0  0  0  0  0  0  0  0  0  0  0
    0.7500   -6.4952    0.0000 Br  0  0  0  0  0  0  0  0  0  0  0  0
  1  2  1  0
  2  3  1  0
  3  4  1  0
  4  5  2  0
  5  6  1  0
  6  7  2  0
  7  8  1  0
  8  9  2  0
  9 10  1  0
  2 11  1  0
 11 12  1  6
 12 13  1  0
 11 14  1  0
 14 15  2  0
 15 16  1  0
 16 17  2  0
 17 18  1  0
 18 19  2  0
 19 20  1  0
  9  4  1  0
 19 14  1  0
M  CHG  1  13   1
M  END
>  <Compound_ID>  (630) 
C48892233

>  <Active>  (630) 
0.0

>  <Smiles>  (630) 
CN(Cc1ccccc1Br)[C@@H](C[NH3+])c1ccccc1Br

>  <canonical_smi>  (630) 
CN(Cc1ccccc1Br)[C@@H](C[NH3+])c1ccccc1Br

>  <Set>  (630) 
G2 inactive

>  <Set_type>  (630) 
Train

>  <MW>  (630) 
399.15

>  <HBD>  (630) 
1

>  <HBA>  (630) 
1

>  <NRB>  (630) 
5

>  <NR>  (630) 
2

>  <NAR>  (630) 
2

>  <PSA>  (630) 
30.88

>  <Standard Type>  (630) 
nan

>  <Standard Relation>  (630) 
nan

>  <Standard Units>  (630) 
nan

>  <Standard Value>  (630) 
nan

>  <Assay ChEMBL ID>  (630) 
nan

>  <Assay Description>  (630) 
nan

>  <BAO Label>  (630) 
nan

$$$$

     RDKit          2D

 28 31  0  0  0  0  0  0  0  0999 V2000
    3.0000    0.0000    0.0000 O   0  0  0  0  0  0  0  0  0  0  0  0
    1.5000    0.0000    0.0000 C   0  0  0  0  0  0  0  0  0  0  0  0
    0.7500   -1.2990    0.0000 C   0  0  0  0  0  0  0  0  0  0  0  0
   -0.7500   -1.2990    0.0000 C   0  0  0  0  0  0  0  0  0  0  0  0
   -1.5000    0.0000    0.0000 C   0  0  0  0  0  0  0  0  0  0  0  0
   -0.7500    1.2990    0.0000 C   0  0  0  0  0  0  0  0  0  0  0  0
    0.7500    1.2990    0.0000 N   0  0  0  0  0  0  0  0  0  0  0  0
   -1.5000    2.5981    0.0000 C   0  0  0  0  0  0  0  0  0  0  0  0
   -3.0000    2.5981    0.0000 C   0  0  0  0  0  0  0  0  0  0  0  0
   -3.7500    1.2990    0.0000 C   0  0  0  0  0  0  0  0  0  0  0  0
   -3.0000    0.0000    0.0000 C   0  0  0  0  0  0  0  0  0  0  0  0
   -3.7500   -1.2990    0.0000 N   0  0  0  0  0  4  0  0  0  0  0  0
   -5.2500   -1.2990    0.0000 C   0  0  0  0  0  0  0  0  0  0  0  0
   -6.0000   -2.5981    0.0000 C   0  0  0  0  0  0  0  0  0  0  0  0
   -7.5000   -2.5981    0.0000 C   0  0  0  0  0  0  0  0  0  0  0  0
   -8.2500   -3.8971    0.0000 C   0  0  0  0  0  0  0  0  0  0  0  0
   -7.5000   -5.1962    0.0000 C   0  0  0  0  0  0  0  0  0  0  0  0
   -8.2500   -6.4952    0.0000 O   0  0  0  0  0  0  0  0  0  0  0  0
   -9.7500   -6.4952    0.0000 C   0  0  0  0  0  0  0  0  0  0  0  0
  -10.5000   -5.1962    0.0000 C   0  0  0  0  0  0  0  0  0  0  0  0
  -12.0000   -5.1962    0.0000 C   0  0  0  0  0  0  0  0  0  0  0  0
  -12.7500   -3.8971    0.0000 F   0  0  0  0  0  0  0  0  0  0  0  0
  -12.7500   -6.4952    0.0000 C   0  0  0  0  0  0  0  0  0  0  0  0
  -12.0000   -7.7942    0.0000 C   0  0  0  0  0  0  0  0  0  0  0  0
  -12.7500   -9.0933    0.0000 F   0  0  0  0  0  0  0  0  0  0  0  0
  -10.5000   -7.7942    0.0000 C   0  0  0  0  0  0  0  0  0  0  0  0
   -6.0000   -5.1962    0.0000 C   0  0  0  0  0  0  0  0  0  0  0  0
   -5.2500   -3.8971    0.0000 C   0  0  0  0  0  0  0  0  0  0  0  0
  1  2  2  0
  2  3  1  0
  3  4  2  0
  4  5  1  0
  5  6  2  0
  6  7  1  0
  6  8  1  0
  8  9  1  0
  9 10  1  0
 10 11  1  0
 11 12  1  1
 12 13  1  0
 13 14  1  0
 14 15  2  0
 15 16  1  0
 16 17  2  0
 17 18  1  0
 18 19  1  0
 19 20  2  0
 20 21  1  0
 21 22  1  0
 21 23  2  0
 23 24  1  0
 24 25  1  0
 24 26  2  0
 17 27  1  0
 27 28  2  0
  7  2  1  0
 28 14  1  0
 11  5  1  0
 26 19  1  0
M  CHG  1  12   1
M  END
>  <Compound_ID>  (631) 
C67504122

>  <Active>  (631) 
0.0

>  <Smiles>  (631) 
O=c1ccc2c([nH]1)CCC[C@@H]2[NH2+]Cc1ccc(Oc2cc(F)cc(F)c2)cc1

>  <canonical_smi>  (631) 
O=c1ccc2c([nH]1)CCC[C@@H]2[NH2+]Cc1ccc(Oc2cc(F)cc(F)c2)cc1

>  <Set>  (631) 
G2 inactive

>  <Set_type>  (631) 
Train

>  <MW>  (631) 
383.42

>  <HBD>  (631) 
2

>  <HBA>  (631) 
2

>  <NRB>  (631) 
5

>  <NR>  (631) 
4

>  <NAR>  (631) 
3

>  <PSA>  (631) 
58.7

>  <Standard Type>  (631) 
nan

>  <Standard Relation>  (631) 
nan

>  <Standard Units>  (631) 
nan

>  <Standard Value>  (631) 
nan

>  <Assay ChEMBL ID>  (631) 
nan

>  <Assay Description>  (631) 
nan

>  <BAO Label>  (631) 
nan

$$$$

     RDKit          2D

 27 30  0  0  0  0  0  0  0  0999 V2000
   -1.5000  -10.3923    0.0000 C   0  0  0  0  0  0  0  0  0  0  0  0
   -0.7500   -9.0933    0.0000 C   0  0  0  0  0  0  0  0  0  0  0  0
    0.7500   -9.0933    0.0000 O   0  0  0  0  0  0  0  0  0  0  0  0
    1.5000   -7.7942    0.0000 C   0  0  0  0  0  0  0  0  0  0  0  0
    0.7500   -6.4952    0.0000 C   0  0  0  0  0  0  0  0  0  0  0  0
    1.5000   -5.1962    0.0000 C   0  0  0  0  0  0  0  0  0  0  0  0
    0.7500   -3.8971    0.0000 C   0  0  0  0  0  0  0  0  0  0  0  0
    1.5000   -2.5981    0.0000 N   0  0  0  0  0  4  0  0  0  0  0  0
    0.7500   -1.2990    0.0000 C   0  0  0  0  0  0  0  0  0  0  0  0
    1.5000    0.0000    0.0000 C   0  0  0  0  0  0  0  0  0  0  0  0
    0.7500    1.2990    0.0000 C   0  0  0  0  0  0  0  0  0  0  0  0
   -0.7500    1.2990    0.0000 C   0  0  0  0  0  0  0  0  0  0  0  0
   -1.5000    0.0000    0.0000 C   0  0  0  0  0  0  0  0  0  0  0  0
    1.7010   -0.7500    0.0000 C   0  0  0  0  0  0  0  0  0  0  0  0
    3.0000   -0.0000    0.0000 C   0  0  0  0  0  0  0  0  0  0  0  0
    2.2500    1.2990    0.0000 C   0  0  0  0  0  0  0  0  0  0  0  0
    2.2500   -1.2990    0.0000 C   0  0  0  0  0  0  0  0  0  0  0  0
   -0.7500   -1.2990    0.0000 C   0  0  0  0  0  0  0  0  0  0  0  0
    3.0000   -5.1962    0.0000 C   0  0  0  0  0  0  0  0  0  0  0  0
    3.7500   -3.8971    0.0000 Br  0  0  0  0  0  0  0  0  0  0  0  0
    3.7500   -6.4952    0.0000 C   0  0  0  0  0  0  0  0  0  0  0  0
    3.0000   -7.7942    0.0000 C   0  0  0  0  0  0  0  0  0  0  0  0
    3.7500   -9.0933    0.0000 O   0  0  0  0  0  0  0  0  0  0  0  0
    5.2500   -9.0933    0.0000 C   0  0  0  0  0  0  0  0  0  0  0  0
    6.0000  -10.3923    0.0000 C   0  0  0  0  0  0  0  0  0  0  0  0
    7.5000  -10.3923    0.0000 N   0  0  0  0  0  0  0  0  0  0  0  0
    5.2500  -11.6913    0.0000 O   0  0  0  0  0  0  0  0  0  0  0  0
  1  2  1  0
  2  3  1  0
  3  4  1  0
  4  5  2  0
  5  6  1  0
  6  7  1  0
  7  8  1  0
  8  9  1  0
  9 10  1  0
 10 11  1  0
 11 12  1  0
 12 13  1  0
 13 14  1  0
 14 15  1  0
 15 16  1  0
 15 17  1  0
 13 18  1  0
  6 19  2  0
 19 20  1  0
 19 21  1  0
 21 22  2  0
 22 23  1  0
 23 24  1  0
 24 25  1  0
 25 26  1  0
 25 27  2  0
 22  4  1  0
 17  9  1  0
 18  9  1  0
 16 11  1  0
M  CHG  1   8   1
M  END
>  <Compound_ID>  (632) 
C36612887

>  <Active>  (632) 
0.0

>  <Smiles>  (632) 
CCOc1cc(C[NH2+]C23CC4CC(CC(C4)C2)C3)c(Br)cc1OCC(N)=O

>  <canonical_smi>  (632) 
CCOc1cc(C[NH2+]C23CC4CC(CC(C4)C2)C3)c(Br)cc1OCC(N)=O

>  <Set>  (632) 
G2 inactive

>  <Set_type>  (632) 
Train

>  <MW>  (632) 
438.39

>  <HBD>  (632) 
2

>  <HBA>  (632) 
3

>  <NRB>  (632) 
8

>  <NR>  (632) 
5

>  <NAR>  (632) 
1

>  <PSA>  (632) 
78.16

>  <Standard Type>  (632) 
nan

>  <Standard Relation>  (632) 
nan

>  <Standard Units>  (632) 
nan

>  <Standard Value>  (632) 
nan

>  <Assay ChEMBL ID>  (632) 
nan

>  <Assay Description>  (632) 
nan

>  <BAO Label>  (632) 
nan

$$$$

     RDKit          2D

 32 37  0  0  0  0  0  0  0  0999 V2000
    5.8786  -10.3160    0.0000 C   0  0  0  0  0  0  0  0  0  0  0  0
    4.4520   -9.8525    0.0000 N   0  0  0  0  0  0  0  0  0  0  0  0
    4.1401   -8.3853    0.0000 C   0  0  0  0  0  0  0  0  0  0  0  0
    5.2548   -7.3816    0.0000 O   0  0  0  0  0  0  0  0  0  0  0  0
    2.7135   -7.9218    0.0000 C   0  0  0  0  0  0  0  0  0  0  0  0
    1.5000   -8.8035    0.0000 N   0  0  0  0  0  0  0  0  0  0  0  0
    0.2865   -7.9218    0.0000 N   0  0  0  0  0  0  0  0  0  0  0  0
   -1.1401   -8.3853    0.0000 C   0  0  0  0  0  0  0  0  0  0  0  0
   -1.4520   -9.8525    0.0000 C   0  0  0  0  0  0  0  0  0  0  0  0
   -2.8786  -10.3160    0.0000 C   0  0  0  0  0  0  0  0  0  0  0  0
   -3.1904  -11.7833    0.0000 C   0  0  0  0  0  0  0  0  0  0  0  0
   -2.0757  -12.7870    0.0000 C   0  0  0  0  0  0  0  0  0  0  0  0
   -0.6491  -12.3234    0.0000 C   0  0  0  0  0  0  0  0  0  0  0  0
   -0.3373  -10.8562    0.0000 C   0  0  0  0  0  0  0  0  0  0  0  0
    0.7500   -6.4952    0.0000 C   0  0  0  0  0  0  0  0  0  0  0  0
    2.2500   -6.4952    0.0000 C   0  0  0  0  0  0  0  0  0  0  0  0
    3.0000   -5.1962    0.0000 C   0  0  0  0  0  0  0  0  0  0  0  0
    2.2500   -3.8971    0.0000 C   0  0  0  0  0  0  0  0  0  0  0  0
    3.0000   -2.5981    0.0000 N   0  0  0  0  0  4  0  0  0  0  0  0
    2.2500   -1.2990    0.0000 C   0  0  0  0  0  0  0  0  0  0  0  0
    0.7500   -1.2990    0.0000 C   0  0  0  0  0  0  0  0  0  0  0  0
    1.5000    0.0000    0.0000 C   0  0  0  0  0  0  0  0  0  0  0  0
    0.7500    1.2990    0.0000 C   0  0  0  0  0  0  0  0  0  0  0  0
    2.2500    1.2990    0.0000 C   0  0  0  0  0  0  0  0  0  0  0  0
    3.0000   -0.0000    0.0000 C   0  0  0  0  0  0  0  0  0  0  0  0
   -0.2010    0.7500    0.0000 C   0  0  0  0  0  0  0  0  0  0  0  0
   -1.5000    0.0000    0.0000 C   0  0  0  0  0  0  0  0  0  0  0  0
   -3.0000    0.0000    0.0000 O   0  0  0  0  0  0  0  0  0  0  0  0
   -0.7500    1.2990    0.0000 C   0  0  0  0  0  0  0  0  0  0  0  0
   -0.7500   -1.2990    0.0000 C   0  0  0  0  0  0  0  0  0  0  0  0
    0.7500   -3.8971    0.0000 C   0  0  0  0  0  0  0  0  0  0  0  0
   -0.0000   -5.1962    0.0000 C   0  0  0  0  0  0  0  0  0  0  0  0
  1  2  1  0
  2  3  1  0
  3  4  2  0
  3  5  1  0
  5  6  2  0
  6  7  1  0
  7  8  1  0
  8  9  1  0
  9 10  1  0
 10 11  1  0
 11 12  1  0
 12 13  1  0
 13 14  1  0
  7 15  1  0
 15 16  2  0
 16 17  1  0
 17 18  1  0
 18 19  1  1
 19 20  1  0
 20 21  1  0
 21 22  1  6
 22 23  1  0
 23 24  1  0
 25 24  1  6
 25 26  1  0
 26 27  1  0
 27 28  1  0
 27 29  1  0
 27 30  1  0
 18 31  1  0
 31 32  1  0
 16  5  1  0
 25 20  1  0
 14  9  1  0
 32 15  1  0
 30 21  1  0
 29 23  1  0
M  CHG  1  19   1
M  END
>  <Compound_ID>  (633) 
C14751746

>  <Active>  (633) 
0.0

>  <Smiles>  (633) 
CNC(=O)c1nn(CC2CCCCC2)c2c1C[C@H]([NH2+]C1[C@@H]3CC4C[C@H]1CC(O)(C4)C3)CC2

>  <canonical_smi>  (633) 
CNC(=O)c1nn(CC2CCCCC2)c2c1C[C@H]([NH2+]C1[C@H]3CC4C[C@@H]1CC(O)(C4)C3)CC2

>  <Set>  (633) 
G2 inactive

>  <Set_type>  (633) 
Train

>  <MW>  (633) 
441.64

>  <HBD>  (633) 
3

>  <HBA>  (633) 
3

>  <NRB>  (633) 
5

>  <NR>  (633) 
7

>  <NAR>  (633) 
1

>  <PSA>  (633) 
83.76

>  <Standard Type>  (633) 
nan

>  <Standard Relation>  (633) 
nan

>  <Standard Units>  (633) 
nan

>  <Standard Value>  (633) 
nan

>  <Assay ChEMBL ID>  (633) 
nan

>  <Assay Description>  (633) 
nan

>  <BAO Label>  (633) 
nan

$$$$

     RDKit          2D

 29 31  0  0  0  0  0  0  0  0999 V2000
    0.7500   -9.0933    0.0000 C   0  0  0  0  0  0  0  0  0  0  0  0
    1.5000   -7.7942    0.0000 C   0  0  0  0  0  0  0  0  0  0  0  0
    0.7500   -6.4952    0.0000 O   0  0  0  0  0  0  0  0  0  0  0  0
    1.5000   -5.1962    0.0000 N   0  0  0  0  0  0  0  0  0  0  0  0
    0.7500   -3.8971    0.0000 C   0  0  0  0  0  0  0  0  0  0  0  0
    1.5000   -2.5981    0.0000 C   0  0  0  0  0  0  0  0  0  0  0  0
    0.7500   -1.2990    0.0000 C   0  0  0  0  0  0  0  0  0  0  0  0
    1.5000    0.0000    0.0000 C   0  0  0  0  0  0  0  0  0  0  0  0
    0.7500    1.2990    0.0000 C   0  0  0  0  0  0  0  0  0  0  0  0
   -0.7500    1.2990    0.0000 C   0  0  0  0  0  0  0  0  0  0  0  0
   -1.5000    2.5981    0.0000 C   0  0  0  0  0  0  0  0  0  0  0  0
   -0.7500    3.8971    0.0000 C   0  0  0  0  0  0  0  0  0  0  0  0
   -1.5000    5.1962    0.0000 C   0  0  0  0  0  0  0  0  0  0  0  0
    0.7500    3.8971    0.0000 C   0  0  0  0  0  0  0  0  0  0  0  0
   -1.5000    0.0000    0.0000 C   0  0  0  0  0  0  0  0  0  0  0  0
   -0.7500   -1.2990    0.0000 C   0  0  0  0  0  0  0  0  0  0  0  0
    3.0000   -2.5981    0.0000 N   0  0  0  0  0  0  0  0  0  0  0  0
    3.7500   -3.8971    0.0000 C   0  0  0  0  0  0  0  0  0  0  0  0
    5.2500   -3.8971    0.0000 C   0  0  0  0  0  0  0  0  0  0  0  0
    6.0000   -2.5981    0.0000 N   0  0  0  0  0  4  0  0  0  0  0  0
    5.2500   -1.2990    0.0000 C   0  0  0  0  0  0  0  0  0  0  0  0
    6.0000   -0.0000    0.0000 C   0  0  0  0  0  0  0  0  0  0  0  0
    7.5000   -0.0000    0.0000 C   0  0  0  0  0  0  0  0  0  0  0  0
    8.2500    1.2990    0.0000 C   0  0  0  0  0  0  0  0  0  0  0  0
    7.5000    2.5981    0.0000 C   0  0  0  0  0  0  0  0  0  0  0  0
    6.0000    2.5981    0.0000 C   0  0  0  0  0  0  0  0  0  0  0  0
    5.2500    1.2990    0.0000 C   0  0  0  0  0  0  0  0  0  0  0  0
    3.7500    1.2990    0.0000 O   0  0  0  0  0  0  0  0  0  0  0  0
    3.7500   -1.2990    0.0000 C   0  0  0  0  0  0  0  0  0  0  0  0
  1  2  1  0
  2  3  1  0
  3  4  1  0
  4  5  1  0
  6  5  1  6
  6  7  1  0
  7  8  2  0
  8  9  1  0
  9 10  2  0
 10 11  1  0
 11 12  1  0
 12 13  1  0
 12 14  1  0
 10 15  1  0
 15 16  2  0
  6 17  1  0
 17 18  1  0
 18 19  1  0
 19 20  1  0
 20 21  1  0
 21 22  1  1
 22 23  2  0
 23 24  1  0
 24 25  2  0
 25 26  1  0
 26 27  2  0
 27 28  1  0
 21 29  1  0
 16  7  1  0
 29 17  1  0
 27 22  1  0
M  CHG  1  20   1
M  END
>  <Compound_ID>  (634) 
C39533345

>  <Active>  (634) 
0.0

>  <Smiles>  (634) 
CCONC[C@H](c1ccc(CC(C)C)cc1)N1CC[NH2+][C@H](c2ccccc2O)C1

>  <canonical_smi>  (634) 
CCONC[C@H](c1ccc(CC(C)C)cc1)N1CC[NH2+][C@H](c2ccccc2O)C1

>  <Set>  (634) 
G2 inactive

>  <Set_type>  (634) 
Train

>  <MW>  (634) 
398.57

>  <HBD>  (634) 
3

>  <HBA>  (634) 
4

>  <NRB>  (634) 
9

>  <NR>  (634) 
3

>  <NAR>  (634) 
2

>  <PSA>  (634) 
61.34

>  <Standard Type>  (634) 
nan

>  <Standard Relation>  (634) 
nan

>  <Standard Units>  (634) 
nan

>  <Standard Value>  (634) 
nan

>  <Assay ChEMBL ID>  (634) 
nan

>  <Assay Description>  (634) 
nan

>  <BAO Label>  (634) 
nan

$$$$

     RDKit          2D

 26 27  0  0  0  0  0  0  0  0999 V2000
   -0.0000   -5.1073    0.0000 C   0  0  0  0  0  0  0  0  0  0  0  0
   -0.0000   -3.6073    0.0000 C   0  0  0  0  0  0  0  0  0  0  0  0
    1.2135   -2.7256    0.0000 C   0  0  0  0  0  0  0  0  0  0  0  0
    0.7500   -1.2990    0.0000 C   0  0  0  0  0  0  0  0  0  0  0  0
    1.5000    0.0000    0.0000 C   0  0  0  0  0  0  0  0  0  0  0  0
    0.7500    1.2990    0.0000 C   0  0  0  0  0  0  0  0  0  0  0  0
    1.5000    2.5981    0.0000 S   0  0  0  0  0  0  0  0  0  0  0  0
    2.2500    3.8971    0.0000 N   0  0  0  0  0  0  0  0  0  0  0  0
    2.7990    1.8481    0.0000 O   0  0  0  0  0  0  0  0  0  0  0  0
    0.2010    3.3481    0.0000 O   0  0  0  0  0  0  0  0  0  0  0  0
   -0.7500    1.2990    0.0000 C   0  0  0  0  0  0  0  0  0  0  0  0
   -1.5000    0.0000    0.0000 C   0  0  0  0  0  0  0  0  0  0  0  0
   -0.7500   -1.2990    0.0000 C   0  0  0  0  0  0  0  0  0  0  0  0
   -1.2135   -2.7256    0.0000 N   0  0  0  0  0  0  0  0  0  0  0  0
   -2.6401   -3.1891    0.0000 C   0  0  0  0  0  0  0  0  0  0  0  0
   -2.9520   -4.6564    0.0000 O   0  0  0  0  0  0  0  0  0  0  0  0
   -3.7548   -2.1855    0.0000 C   0  0  0  0  0  0  0  0  0  0  0  0
   -5.1814   -2.6490    0.0000 N   0  0  0  0  0  4  0  0  0  0  0  0
   -6.2961   -1.6453    0.0000 C   0  0  0  0  0  0  0  0  0  0  0  0
   -7.2998   -2.7600    0.0000 C   0  0  0  0  0  0  0  0  0  0  0  0
   -5.2924   -0.5306    0.0000 C   0  0  0  0  0  0  0  0  0  0  0  0
   -7.4108   -0.6416    0.0000 C   0  0  0  0  0  0  0  0  0  0  0  0
   -7.0990    0.8256    0.0000 C   0  0  0  0  0  0  0  0  0  0  0  0
   -8.5662    1.1375    0.0000 C   0  0  0  0  0  0  0  0  0  0  0  0
   -5.6318    0.5138    0.0000 C   0  0  0  0  0  0  0  0  0  0  0  0
   -6.7871    2.2929    0.0000 C   0  0  0  0  0  0  0  0  0  0  0  0
  2  1  1  6
  2  3  1  0
  3  4  1  0
  4  5  2  0
  5  6  1  0
  6  7  1  0
  7  8  1  0
  7  9  2  0
  7 10  2  0
  6 11  2  0
 11 12  1  0
 12 13  2  0
 13 14  1  0
 14 15  1  0
 15 16  2  0
 15 17  1  0
 17 18  1  0
 18 19  1  0
 19 20  1  0
 19 21  1  0
 19 22  1  0
 22 23  1  0
 23 24  1  0
 23 25  1  0
 23 26  1  0
 14  2  1  0
 13  4  1  0
M  CHG  1  18   1
M  END
>  <Compound_ID>  (635) 
C53123717

>  <Active>  (635) 
0.0

>  <Smiles>  (635) 
C[C@H]1Cc2cc(S(N)(=O)=O)ccc2N1C(=O)C[NH2+]C(C)(C)CC(C)(C)C

>  <canonical_smi>  (635) 
C[C@H]1Cc2cc(S(N)(=O)=O)ccc2N1C(=O)C[NH2+]C(C)(C)CC(C)(C)C

>  <Set>  (635) 
G2 inactive

>  <Set_type>  (635) 
Train

>  <MW>  (635) 
382.55

>  <HBD>  (635) 
2

>  <HBA>  (635) 
3

>  <NRB>  (635) 
5

>  <NR>  (635) 
2

>  <NAR>  (635) 
1

>  <PSA>  (635) 
97.08

>  <Standard Type>  (635) 
nan

>  <Standard Relation>  (635) 
nan

>  <Standard Units>  (635) 
nan

>  <Standard Value>  (635) 
nan

>  <Assay ChEMBL ID>  (635) 
nan

>  <Assay Description>  (635) 
nan

>  <BAO Label>  (635) 
nan

$$$$

     RDKit          2D

 33 36  0  0  0  0  0  0  0  0999 V2000
    3.0000    0.0000    0.0000 C   0  0  0  0  0  0  0  0  0  0  0  0
    1.5000    0.0000    0.0000 C   0  0  0  0  0  0  0  0  0  0  0  0
    0.7500   -1.2990    0.0000 C   0  0  0  0  0  0  0  0  0  0  0  0
   -0.7500   -1.2990    0.0000 C   0  0  0  0  0  0  0  0  0  0  0  0
   -1.5000    0.0000    0.0000 C   0  0  0  0  0  0  0  0  0  0  0  0
   -0.7500    1.2990    0.0000 C   0  0  0  0  0  0  0  0  0  0  0  0
   -1.5000    2.5981    0.0000 C   0  0  0  0  0  0  0  0  0  0  0  0
    0.7500    1.2990    0.0000 C   0  0  0  0  0  0  0  0  0  0  0  0
    1.5000    2.5981    0.0000 N   0  0  0  0  0  0  0  0  0  0  0  0
    3.0000    2.5981    0.0000 C   0  0  0  0  0  0  0  0  0  0  0  0
    3.7500    3.8971    0.0000 C   0  0  0  0  0  0  0  0  0  0  0  0
    3.0000    5.1962    0.0000 N   0  0  0  0  0  0  0  0  0  0  0  0
    3.7500    6.4952    0.0000 C   0  0  0  0  0  0  0  0  0  0  0  0
    5.2500    6.4952    0.0000 N   0  0  0  0  0  0  0  0  0  0  0  0
    6.0000    7.7942    0.0000 C   0  0  0  0  0  0  0  0  0  0  0  0
    7.5000    7.7942    0.0000 O   0  0  0  0  0  0  0  0  0  0  0  0
    8.2500    6.4952    0.0000 C   0  0  0  0  0  0  0  0  0  0  0  0
    7.5000    5.1962    0.0000 C   0  0  0  0  0  0  0  0  0  0  0  0
    8.2500    3.8971    0.0000 C   0  0  0  0  0  0  0  0  0  0  0  0
    9.7500    3.8971    0.0000 C   0  0  0  0  0  0  0  0  0  0  0  0
   10.5000    5.1962    0.0000 C   0  0  0  0  0  0  0  0  0  0  0  0
   12.0000    5.1962    0.0000 C   0  0  0  0  0  0  0  0  0  0  0  0
   12.7500    3.8971    0.0000 N   0  0  0  0  0  0  0  0  0  0  0  0
   12.7500    6.4952    0.0000 N   0  0  0  0  0  4  0  0  0  0  0  0
    9.7500    6.4952    0.0000 C   0  0  0  0  0  0  0  0  0  0  0  0
    5.2500    9.0933    0.0000 C   0  0  0  0  0  0  0  0  0  0  0  0
    6.0000   10.3923    0.0000 F   0  0  0  0  0  0  0  0  0  0  0  0
    3.7500    9.0933    0.0000 C   0  0  0  0  0  0  0  0  0  0  0  0
    3.0000   10.3923    0.0000 C   0  0  0  0  0  0  0  0  0  0  0  0
    3.0000    7.7942    0.0000 C   0  0  0  0  0  0  0  0  0  0  0  0
    1.5000    7.7942    0.0000 F   0  0  0  0  0  0  0  0  0  0  0  0
    1.5000    5.1962    0.0000 C   0  0  0  0  0  0  0  0  0  0  0  0
    0.7500    3.8971    0.0000 C   0  0  0  0  0  0  0  0  0  0  0  0
  1  2  1  0
  2  3  2  0
  3  4  1  0
  4  5  2  0
  5  6  1  0
  6  7  1  0
  6  8  2  0
  8  9  1  0
  9 10  1  0
 10 11  1  0
 11 12  1  0
 12 13  1  0
 13 14  2  0
 14 15  1  0
 15 16  1  0
 16 17  1  0
 17 18  2  0
 18 19  1  0
 19 20  2  0
 20 21  1  0
 21 22  1  0
 22 23  1  0
 22 24  2  0
 21 25  2  0
 15 26  2  0
 26 27  1  0
 26 28  1  0
 28 29  1  0
 28 30  2  0
 30 31  1  0
 12 32  1  0
 32 33  1  0
  8  2  1  0
 33  9  1  0
 30 13  1  0
 25 17  1  0
M  CHG  1  24   1
M  END
>  <Compound_ID>  (636) 
C29549476

>  <Active>  (636) 
0.0

>  <Smiles>  (636) 
Cc1cccc(C)c1N1CCN(c2nc(Oc3cccc(C(N)=[NH2+])c3)c(F)c(C)c2F)CC1

>  <canonical_smi>  (636) 
Cc1cccc(C)c1N1CCN(c2nc(Oc3cccc(C(N)=[NH2+])c3)c(F)c(C)c2F)CC1

>  <Set>  (636) 
G2 inactive

>  <Set_type>  (636) 
Train

>  <MW>  (636) 
452.53

>  <HBD>  (636) 
2

>  <HBA>  (636) 
5

>  <NRB>  (636) 
5

>  <NR>  (636) 
4

>  <NAR>  (636) 
3

>  <PSA>  (636) 
80.21

>  <Standard Type>  (636) 
nan

>  <Standard Relation>  (636) 
nan

>  <Standard Units>  (636) 
nan

>  <Standard Value>  (636) 
nan

>  <Assay ChEMBL ID>  (636) 
nan

>  <Assay Description>  (636) 
nan

>  <BAO Label>  (636) 
nan

$$$$

     RDKit          2D

 19 20  0  0  0  0  0  0  0  0999 V2000
    3.5260   -1.2990    0.0000 C   0  0  0  0  0  0  0  0  0  0  0  0
    2.7760    0.0000    0.0000 C   0  0  0  0  0  0  0  0  0  0  0  0
    1.2760    0.0000    0.0000 C   0  0  0  0  0  0  0  0  0  0  0  0
    0.3943    1.2135    0.0000 C   0  0  0  0  0  0  0  0  0  0  0  0
    0.8578    2.6401    0.0000 C   0  0  0  0  0  0  0  0  0  0  0  0
   -1.0323    0.7500    0.0000 N   0  0  0  0  0  0  0  0  0  0  0  0
   -1.0323   -0.7500    0.0000 N   0  0  0  0  0  0  0  0  0  0  0  0
   -2.2458   -1.6317    0.0000 C   0  0  0  0  0  0  0  0  0  0  0  0
   -3.6161   -1.0216    0.0000 C   0  0  0  0  0  0  0  0  0  0  0  0
   -4.9152   -1.7716    0.0000 C   0  0  0  0  0  0  0  0  0  0  0  0
   -6.0299   -0.7679    0.0000 C   0  0  0  0  0  0  0  0  0  0  0  0
   -5.4198    0.6024    0.0000 C   0  0  0  0  0  0  0  0  0  0  0  0
   -6.1698    1.9015    0.0000 C   0  0  0  0  0  0  0  0  0  0  0  0
   -6.9198    3.2005    0.0000 C   0  0  0  0  0  0  0  0  0  0  0  0
   -7.6698    4.4996    0.0000 C   0  0  0  0  0  0  0  0  0  0  0  0
   -6.9198    5.7986    0.0000 O   0  0  0  0  0  0  0  0  0  0  0  0
   -3.9280    0.4456    0.0000 S   0  0  0  0  0  0  0  0  0  0  0  0
    0.3943   -1.2135    0.0000 C   0  0  0  0  0  0  0  0  0  0  0  0
    0.8578   -2.6401    0.0000 C   0  0  0  0  0  0  0  0  0  0  0  0
  1  2  1  0
  2  3  1  0
  3  4  1  0
  4  5  1  0
  4  6  2  0
  6  7  1  0
  7  8  1  0
  8  9  1  0
  9 10  2  0
 10 11  1  0
 11 12  2  0
 12 13  1  0
 13 14  3  0
 14 15  1  0
 15 16  1  0
 12 17  1  0
  7 18  1  0
 18 19  1  0
 18  3  2  0
 17  9  1  0
M  END
>  <Compound_ID>  (637) 
C43682368

>  <Active>  (637) 
0.0

>  <Smiles>  (637) 
CCc1c(C)nn(Cc2ccc(C#CCO)s2)c1C

>  <canonical_smi>  (637) 
CCc1c(C)nn(Cc2ccc(C#CCO)s2)c1C

>  <Set>  (637) 
G2 inactive

>  <Set_type>  (637) 
Train

>  <MW>  (637) 
274.39

>  <HBD>  (637) 
1

>  <HBA>  (637) 
2

>  <NRB>  (637) 
3

>  <NR>  (637) 
2

>  <NAR>  (637) 
2

>  <PSA>  (637) 
38.05

>  <Standard Type>  (637) 
nan

>  <Standard Relation>  (637) 
nan

>  <Standard Units>  (637) 
nan

>  <Standard Value>  (637) 
nan

>  <Assay ChEMBL ID>  (637) 
nan

>  <Assay Description>  (637) 
nan

>  <BAO Label>  (637) 
nan

$$$$

     RDKit          2D

 19 22  0  0  0  0  0  0  0  0999 V2000
  -10.4353    1.2152    0.0000 C   0  0  0  0  0  0  0  0  0  0  0  0
  -10.1234    2.6824    0.0000 C   0  0  0  0  0  0  0  0  0  0  0  0
   -8.6968    3.1459    0.0000 C   0  0  0  0  0  0  0  0  0  0  0  0
   -7.5821    2.1422    0.0000 C   0  0  0  0  0  0  0  0  0  0  0  0
   -6.1555    2.6057    0.0000 C   0  0  0  0  0  0  0  0  0  0  0  0
   -5.1518    3.7205    0.0000 C   0  0  0  0  0  0  0  0  0  0  0  0
   -4.6883    2.2939    0.0000 C   0  0  0  0  0  0  0  0  0  0  0  0
   -3.5736    1.2902    0.0000 N   0  0  0  0  0  0  0  0  0  0  0  0
   -2.1470    1.7537    0.0000 C   0  0  0  0  0  0  0  0  0  0  0  0
   -1.8351    3.2209    0.0000 N   0  0  0  0  0  0  0  0  0  0  0  0
   -0.4086    3.6844    0.0000 C   0  0  0  0  0  0  0  0  0  0  0  0
    0.7062    2.6807    0.0000 N   0  0  0  0  0  0  0  0  0  0  0  0
    0.3943    1.2135    0.0000 C   0  0  0  0  0  0  0  0  0  0  0  0
    1.2760    0.0000    0.0000 S   0  0  0  0  0  0  0  0  0  0  0  0
    0.3943   -1.2135    0.0000 C   0  0  0  0  0  0  0  0  0  0  0  0
   -1.0323   -0.7500    0.0000 C   0  0  0  0  0  0  0  0  0  0  0  0
   -1.0323    0.7500    0.0000 C   0  0  0  0  0  0  0  0  0  0  0  0
   -7.8940    0.6750    0.0000 C   0  0  0  0  0  0  0  0  0  0  0  0
   -9.3206    0.2115    0.0000 C   0  0  0  0  0  0  0  0  0  0  0  0
  1  2  2  0
  2  3  1  0
  3  4  2  0
  5  4  1  1
  5  6  1  0
  6  7  1  0
  7  8  1  6
  8  9  1  0
  9 10  2  0
 10 11  1  0
 11 12  2  0
 12 13  1  0
 13 14  1  0
 14 15  1  0
 15 16  2  0
 16 17  1  0
  4 18  1  0
 18 19  2  0
 19  1  1  0
  7  5  1  0
 17  9  1  0
 17 13  2  0
M  END
>  <Compound_ID>  (638) 
C44416550

>  <Active>  (638) 
0.0

>  <Smiles>  (638) 
c1ccc([C@H]2C[C@@H]2Nc2ncnc3sccc23)cc1

>  <canonical_smi>  (638) 
c1ccc([C@H]2C[C@@H]2Nc2ncnc3sccc23)cc1

>  <Set>  (638) 
G2 inactive

>  <Set_type>  (638) 
Train

>  <MW>  (638) 
267.36

>  <HBD>  (638) 
1

>  <HBA>  (638) 
3

>  <NRB>  (638) 
3

>  <NR>  (638) 
4

>  <NAR>  (638) 
3

>  <PSA>  (638) 
37.81

>  <Standard Type>  (638) 
nan

>  <Standard Relation>  (638) 
nan

>  <Standard Units>  (638) 
nan

>  <Standard Value>  (638) 
nan

>  <Assay ChEMBL ID>  (638) 
nan

>  <Assay Description>  (638) 
nan

>  <BAO Label>  (638) 
nan

$$$$

     RDKit          2D

 18 19  0  0  0  0  0  0  0  0999 V2000
    0.4022   -7.7629    0.0000 C   0  0  0  0  0  0  0  0  0  0  0  0
    0.2454   -6.2711    0.0000 C   0  0  0  0  0  0  0  0  0  0  0  0
   -1.0537   -5.5211    0.0000 C   0  0  0  0  0  0  0  0  0  0  0  0
   -0.7418   -4.0539    0.0000 N   0  0  0  0  0  0  0  0  0  0  0  0
    0.7500   -3.8971    0.0000 C   0  0  0  0  0  0  0  0  0  0  0  0
    1.5000   -2.5981    0.0000 N   0  0  0  0  0  0  0  0  0  0  0  0
    0.7500   -1.2990    0.0000 C   0  0  0  0  0  0  0  0  0  0  0  0
    1.5000    0.0000    0.0000 C   0  0  0  0  0  0  0  0  0  0  0  0
    0.7500    1.2990    0.0000 C   0  0  0  0  0  0  0  0  0  0  0  0
   -0.7500    1.2990    0.0000 C   0  0  0  0  0  0  0  0  0  0  0  0
   -1.5000    0.0000    0.0000 C   0  0  0  0  0  0  0  0  0  0  0  0
   -0.7500   -1.2990    0.0000 C   0  0  0  0  0  0  0  0  0  0  0  0
   -1.5000   -2.5981    0.0000 O   0  0  0  0  0  0  0  0  0  0  0  0
   -3.0000   -2.5981    0.0000 C   0  0  0  0  0  0  0  0  0  0  0  0
   -4.5000   -2.5981    0.0000 F   0  0  0  0  0  0  0  0  0  0  0  0
   -3.0000   -4.0981    0.0000 F   0  0  0  0  0  0  0  0  0  0  0  0
   -3.0000   -1.0981    0.0000 F   0  0  0  0  0  0  0  0  0  0  0  0
    1.3601   -5.2674    0.0000 S   0  0  0  0  0  0  0  0  0  0  0  0
  2  1  1  1
  2  3  1  0
  3  4  1  0
  4  5  1  0
  5  6  2  0
  6  7  1  0
  7  8  2  0
  8  9  1  0
  9 10  2  0
 10 11  1  0
 11 12  2  0
 12 13  1  0
 13 14  1  0
 14 15  1  0
 14 16  1  0
 14 17  1  0
  5 18  1  0
 18  2  1  0
 12  7  1  0
M  END
>  <Compound_ID>  (639) 
C35057429

>  <Active>  (639) 
0.0

>  <Smiles>  (639) 
C[C@H]1CN/C(=N\c2ccccc2OC(F)(F)F)S1

>  <canonical_smi>  (639) 
C[C@H]1CN/C(=N\c2ccccc2OC(F)(F)F)S1

>  <Set>  (639) 
G2 inactive

>  <Set_type>  (639) 
Train

>  <MW>  (639) 
276.28

>  <HBD>  (639) 
1

>  <HBA>  (639) 
3

>  <NRB>  (639) 
2

>  <NR>  (639) 
2

>  <NAR>  (639) 
1

>  <PSA>  (639) 
33.62

>  <Standard Type>  (639) 
nan

>  <Standard Relation>  (639) 
nan

>  <Standard Units>  (639) 
nan

>  <Standard Value>  (639) 
nan

>  <Assay ChEMBL ID>  (639) 
nan

>  <Assay Description>  (639) 
nan

>  <BAO Label>  (639) 
nan

$$$$

     RDKit          2D

 20 22  0  0  0  0  0  0  0  0999 V2000
   -3.7500   -9.0933    0.0000 O   0  0  0  0  0  0  0  0  0  0  0  0
   -3.0000   -7.7942    0.0000 C   0  0  0  0  0  0  0  0  0  0  0  0
   -3.7500   -6.4952    0.0000 C   0  0  0  0  0  0  0  0  0  0  0  0
   -5.2500   -6.4952    0.0000 C   0  0  0  0  0  0  0  0  0  0  0  0
   -6.0000   -5.1962    0.0000 C   0  0  0  0  0  0  0  0  0  0  0  0
   -5.2500   -3.8971    0.0000 N   0  0  0  0  0  0  0  0  0  0  0  0
   -3.7500   -3.8971    0.0000 C   0  0  0  0  0  0  0  0  0  0  0  0
   -3.0000   -2.5981    0.0000 O   0  0  0  0  0  0  0  0  0  0  0  0
   -1.5000   -2.5981    0.0000 C   0  0  0  0  0  0  0  0  0  0  0  0
   -0.7500   -3.8971    0.0000 C   0  0  0  0  0  0  0  0  0  0  0  0
    0.7500   -3.8971    0.0000 C   0  0  0  0  0  0  0  0  0  0  0  0
    1.5000   -2.5981    0.0000 C   0  0  0  0  0  0  0  0  0  0  0  0
    3.0000   -2.5981    0.0000 Cl  0  0  0  0  0  0  0  0  0  0  0  0
    0.7500   -1.2990    0.0000 C   0  0  0  0  0  0  0  0  0  0  0  0
    1.5000    0.0000    0.0000 C   0  0  0  0  0  0  0  0  0  0  0  0
    0.7500    1.2990    0.0000 C   0  0  0  0  0  0  0  0  0  0  0  0
   -0.7500    1.2990    0.0000 C   0  0  0  0  0  0  0  0  0  0  0  0
   -1.5000    0.0000    0.0000 C   0  0  0  0  0  0  0  0  0  0  0  0
   -0.7500   -1.2990    0.0000 C   0  0  0  0  0  0  0  0  0  0  0  0
   -3.0000   -5.1962    0.0000 C   0  0  0  0  0  0  0  0  0  0  0  0
  1  2  1  0
  2  3  1  0
  3  4  2  0
  4  5  1  0
  5  6  2  0
  6  7  1  0
  7  8  1  0
  8  9  1  0
  9 10  2  0
 10 11  1  0
 11 12  2  0
 12 13  1  0
 12 14  1  0
 14 15  2  0
 15 16  1  0
 16 17  2  0
 17 18  1  0
 18 19  2  0
  7 20  2  0
 20  3  1  0
 19  9  1  0
 19 14  1  0
M  END
>  <Compound_ID>  (640) 
C40882347

>  <Active>  (640) 
0.0

>  <Smiles>  (640) 
OCc1ccnc(Oc2ccc(Cl)c3ccccc23)c1

>  <canonical_smi>  (640) 
OCc1ccnc(Oc2ccc(Cl)c3ccccc23)c1

>  <Set>  (640) 
G2 inactive

>  <Set_type>  (640) 
Train

>  <MW>  (640) 
285.73

>  <HBD>  (640) 
1

>  <HBA>  (640) 
3

>  <NRB>  (640) 
3

>  <NR>  (640) 
3

>  <NAR>  (640) 
3

>  <PSA>  (640) 
42.35

>  <Standard Type>  (640) 
nan

>  <Standard Relation>  (640) 
nan

>  <Standard Units>  (640) 
nan

>  <Standard Value>  (640) 
nan

>  <Assay ChEMBL ID>  (640) 
nan

>  <Assay Description>  (640) 
nan

>  <BAO Label>  (640) 
nan

$$$$

     RDKit          2D

 20 22  0  0  0  0  0  0  0  0999 V2000
   -2.7990   -7.3573    0.0000 C   0  0  0  0  0  0  0  0  0  0  0  0
   -1.2990   -7.3573    0.0000 C   0  0  0  0  0  0  0  0  0  0  0  0
    0.2010   -7.3573    0.0000 C   0  0  0  0  0  0  0  0  0  0  0  0
   -1.2990   -8.8573    0.0000 C   0  0  0  0  0  0  0  0  0  0  0  0
   -1.2990   -5.8573    0.0000 C   0  0  0  0  0  0  0  0  0  0  0  0
   -2.5981   -5.1073    0.0000 O   0  0  0  0  0  0  0  0  0  0  0  0
   -0.0000   -5.1073    0.0000 C   0  0  0  0  0  0  0  0  0  0  0  0
   -0.0000   -3.6073    0.0000 N   0  0  0  0  0  0  0  0  0  0  0  0
    1.2135   -2.7256    0.0000 C   0  0  0  0  0  0  0  0  0  0  0  0
    2.6401   -3.1891    0.0000 O   0  0  0  0  0  0  0  0  0  0  0  0
    0.7500   -1.2990    0.0000 C   0  0  0  0  0  0  0  0  0  0  0  0
    1.5000    0.0000    0.0000 C   0  0  0  0  0  0  0  0  0  0  0  0
    0.7500    1.2990    0.0000 C   0  0  0  0  0  0  0  0  0  0  0  0
   -0.7500    1.2990    0.0000 C   0  0  0  0  0  0  0  0  0  0  0  0
   -1.5000    0.0000    0.0000 C   0  0  0  0  0  0  0  0  0  0  0  0
   -2.9769   -0.2986    0.0000 C   0  0  0  0  0  0  0  0  0  0  0  0
   -3.5870   -1.6689    0.0000 C   0  0  0  0  0  0  0  0  0  0  0  0
   -2.7053   -2.8824    0.0000 C   0  0  0  0  0  0  0  0  0  0  0  0
   -1.2135   -2.7256    0.0000 C   0  0  0  0  0  0  0  0  0  0  0  0
   -0.7500   -1.2990    0.0000 C   0  0  0  0  0  0  0  0  0  0  0  0
  1  2  1  0
  2  3  1  0
  2  4  1  0
  2  5  1  0
  5  6  1  6
  5  7  1  0
  7  8  1  0
  8  9  1  0
  9 10  2  0
  9 11  1  0
 11 12  2  0
 12 13  1  0
 13 14  2  0
 14 15  1  0
 15 16  2  0
 16 17  1  0
 17 18  2  0
 18 19  1  0
 19 20  2  0
 19  8  1  0
 20 11  1  0
 20 15  1  0
M  END
>  <Compound_ID>  (641) 
C44184719

>  <Active>  (641) 
0.0

>  <Smiles>  (641) 
CC(C)(C)[C@H](O)CN1C(=O)c2cccc3cccc1c23

>  <canonical_smi>  (641) 
CC(C)(C)[C@H](O)CN1C(=O)c2cccc3cccc1c23

>  <Set>  (641) 
G2 inactive

>  <Set_type>  (641) 
Train

>  <MW>  (641) 
269.34

>  <HBD>  (641) 
1

>  <HBA>  (641) 
2

>  <NRB>  (641) 
2

>  <NR>  (641) 
3

>  <NAR>  (641) 
2

>  <PSA>  (641) 
40.54

>  <Standard Type>  (641) 
nan

>  <Standard Relation>  (641) 
nan

>  <Standard Units>  (641) 
nan

>  <Standard Value>  (641) 
nan

>  <Assay ChEMBL ID>  (641) 
nan

>  <Assay Description>  (641) 
nan

>  <BAO Label>  (641) 
nan

$$$$

     RDKit          2D

 19 20  0  0  0  0  0  0  0  0999 V2000
    3.7500   -1.2990    0.0000 C   0  0  0  0  0  0  0  0  0  0  0  0
    3.0000    0.0000    0.0000 C   0  0  0  0  0  0  0  0  0  0  0  0
    3.7500    1.2990    0.0000 C   0  0  0  0  0  0  0  0  0  0  0  0
    1.5000    0.0000    0.0000 C   0  0  0  0  0  0  0  0  0  0  0  0
    0.7500   -1.2990    0.0000 C   0  0  0  0  0  0  0  0  0  0  0  0
   -0.7500   -1.2990    0.0000 C   0  0  0  0  0  0  0  0  0  0  0  0
   -1.5000    0.0000    0.0000 C   0  0  0  0  0  0  0  0  0  0  0  0
   -3.0000    0.0000    0.0000 O   0  0  0  0  0  0  0  0  0  0  0  0
   -0.7500    1.2990    0.0000 C   0  0  0  0  0  0  0  0  0  0  0  0
   -1.5000    2.5981    0.0000 C   0  0  0  0  0  0  0  0  0  0  0  0
   -0.7500    3.8971    0.0000 N   0  0  0  0  0  0  0  0  0  0  0  0
    0.7500    3.8971    0.0000 C   0  0  0  0  0  0  0  0  0  0  0  0
    1.5000    5.1962    0.0000 C   0  0  0  0  0  0  0  0  0  0  0  0
    3.0000    5.1962    0.0000 C   0  0  0  0  0  0  0  0  0  0  0  0
    0.7500    6.4952    0.0000 O   0  0  0  0  0  0  0  0  0  0  0  0
   -0.7500    6.4952    0.0000 C   0  0  0  0  0  0  0  0  0  0  0  0
   -1.5000    7.7942    0.0000 C   0  0  0  0  0  0  0  0  0  0  0  0
   -1.5000    5.1962    0.0000 C   0  0  0  0  0  0  0  0  0  0  0  0
    0.7500    1.2990    0.0000 C   0  0  0  0  0  0  0  0  0  0  0  0
  1  2  1  0
  2  3  1  0
  4  2  1  6
  4  5  1  0
  5  6  1  0
  6  7  1  0
  7  8  1  6
  7  9  1  0
  9 10  1  6
 10 11  1  0
 11 12  1  0
 12 13  1  0
 13 14  1  6
 13 15  1  0
 15 16  1  0
 16 17  1  6
 16 18  1  0
  9 19  1  0
 19  4  1  0
 18 11  1  0
M  END
>  <Compound_ID>  (642) 
C54560804

>  <Active>  (642) 
0.0

>  <Smiles>  (642) 
CC(C)[C@@H]1CC[C@H](O)[C@H](CN2C[C@@H](C)O[C@@H](C)C2)C1

>  <canonical_smi>  (642) 
CC(C)[C@@H]1CC[C@H](O)[C@H](CN2C[C@H](C)O[C@H](C)C2)C1

>  <Set>  (642) 
G2 inactive

>  <Set_type>  (642) 
Train

>  <MW>  (642) 
269.43

>  <HBD>  (642) 
1

>  <HBA>  (642) 
3

>  <NRB>  (642) 
3

>  <NR>  (642) 
2

>  <NAR>  (642) 
0

>  <PSA>  (642) 
32.7

>  <Standard Type>  (642) 
nan

>  <Standard Relation>  (642) 
nan

>  <Standard Units>  (642) 
nan

>  <Standard Value>  (642) 
nan

>  <Assay ChEMBL ID>  (642) 
nan

>  <Assay Description>  (642) 
nan

>  <BAO Label>  (642) 
nan

$$$$

     RDKit          2D

 21 23  0  0  0  0  0  0  0  0999 V2000
    2.6401   -3.1891    0.0000 C   0  0  0  0  0  0  0  0  0  0  0  0
    1.2135   -2.7256    0.0000 N   0  0  0  0  0  0  0  0  0  0  0  0
   -0.0000   -3.6073    0.0000 N   0  0  0  0  0  0  0  0  0  0  0  0
   -1.2135   -2.7256    0.0000 C   0  0  0  0  0  0  0  0  0  0  0  0
   -0.7500   -1.2990    0.0000 C   0  0  0  0  0  0  0  0  0  0  0  0
    0.7500   -1.2990    0.0000 C   0  0  0  0  0  0  0  0  0  0  0  0
    1.5000    0.0000    0.0000 C   0  0  0  0  0  0  0  0  0  0  0  0
    0.7500    1.2990    0.0000 C   0  0  0  0  0  0  0  0  0  0  0  0
   -0.7500    1.2990    0.0000 C   0  0  0  0  0  0  0  0  0  0  0  0
   -1.5000    0.0000    0.0000 C   0  0  0  0  0  0  0  0  0  0  0  0
   -3.0000    0.0000    0.0000 N   0  0  0  0  0  0  0  0  0  0  0  0
   -3.7500    1.2990    0.0000 C   0  0  0  0  0  0  0  0  0  0  0  0
   -3.0000    2.5981    0.0000 C   0  0  0  0  0  0  0  0  0  0  0  0
   -3.7500    3.8971    0.0000 C   0  0  0  0  0  0  0  0  0  0  0  0
   -5.2500    3.8971    0.0000 C   0  0  0  0  0  0  0  0  0  0  0  0
   -6.0000    2.5981    0.0000 C   0  0  0  0  0  0  0  0  0  0  0  0
   -5.2500    1.2990    0.0000 C   0  0  0  0  0  0  0  0  0  0  0  0
   -6.0000    0.0000    0.0000 C   0  0  0  0  0  0  0  0  0  0  0  0
   -7.2990    0.7500    0.0000 C   0  0  0  0  0  0  0  0  0  0  0  0
   -4.7010   -0.7500    0.0000 C   0  0  0  0  0  0  0  0  0  0  0  0
   -6.7500   -1.2990    0.0000 C   0  0  0  0  0  0  0  0  0  0  0  0
  1  2  1  0
  2  3  1  0
  3  4  2  0
  4  5  1  0
  5  6  2  0
  6  7  1  0
  7  8  1  0
  8  9  1  0
  9 10  1  0
 10 11  1  1
 11 12  1  0
 12 13  2  0
 13 14  1  0
 14 15  2  0
 15 16  1  0
 16 17  2  0
 17 18  1  0
 18 19  1  0
 18 20  1  0
 18 21  1  0
  6  2  1  0
 17 12  1  0
 10  5  1  0
M  END
>  <Compound_ID>  (643) 
C36956670

>  <Active>  (643) 
0.0

>  <Smiles>  (643) 
Cn1ncc2c1CCC[C@@H]2Nc1ccccc1C(C)(C)C

>  <canonical_smi>  (643) 
Cn1ncc2c1CCC[C@@H]2Nc1ccccc1C(C)(C)C

>  <Set>  (643) 
G2 inactive

>  <Set_type>  (643) 
Train

>  <MW>  (643) 
283.42

>  <HBD>  (643) 
1

>  <HBA>  (643) 
2

>  <NRB>  (643) 
2

>  <NR>  (643) 
3

>  <NAR>  (643) 
2

>  <PSA>  (643) 
29.85

>  <Standard Type>  (643) 
nan

>  <Standard Relation>  (643) 
nan

>  <Standard Units>  (643) 
nan

>  <Standard Value>  (643) 
nan

>  <Assay ChEMBL ID>  (643) 
nan

>  <Assay Description>  (643) 
nan

>  <BAO Label>  (643) 
nan

$$$$

     RDKit          2D

 19 21  0  0  0  0  0  0  0  0999 V2000
   -1.2990  -11.8573    0.0000 C   0  0  0  0  0  0  0  0  0  0  0  0
   -1.2990  -10.3573    0.0000 C   0  0  0  0  0  0  0  0  0  0  0  0
   -0.0000   -9.6073    0.0000 C   0  0  0  0  0  0  0  0  0  0  0  0
   -0.0000   -8.1073    0.0000 C   0  0  0  0  0  0  0  0  0  0  0  0
   -1.2990   -7.3573    0.0000 C   0  0  0  0  0  0  0  0  0  0  0  0
   -1.2990   -5.8573    0.0000 C   0  0  0  0  0  0  0  0  0  0  0  0
   -0.0000   -5.1073    0.0000 N   0  0  0  0  0  0  0  0  0  0  0  0
   -0.0000   -3.6073    0.0000 C   0  0  0  0  0  0  0  0  0  0  0  0
   -1.2135   -2.7256    0.0000 N   0  0  0  0  0  0  0  0  0  0  0  0
   -0.7500   -1.2990    0.0000 C   0  0  0  0  0  0  0  0  0  0  0  0
    0.7500   -1.2990    0.0000 C   0  0  0  0  0  0  0  0  0  0  0  0
    1.2135   -2.7256    0.0000 S   0  0  0  0  0  0  0  0  0  0  0  0
    1.5000    0.0000    0.0000 C   0  0  0  0  0  0  0  0  0  0  0  0
    3.0000    0.0000    0.0000 O   0  0  0  0  0  0  0  0  0  0  0  0
    0.7500    1.2990    0.0000 C   0  0  0  0  0  0  0  0  0  0  0  0
   -0.7500    1.2990    0.0000 C   0  0  0  0  0  0  0  0  0  0  0  0
   -1.5000    0.0000    0.0000 C   0  0  0  0  0  0  0  0  0  0  0  0
    1.2990   -5.8573    0.0000 C   0  0  0  0  0  0  0  0  0  0  0  0
    1.2990   -7.3573    0.0000 C   0  0  0  0  0  0  0  0  0  0  0  0
  1  2  1  0
  2  3  1  0
  3  4  1  0
  4  5  1  0
  5  6  1  0
  6  7  1  0
  7  8  1  0
  8  9  2  0
  9 10  1  0
 10 11  2  0
 11 12  1  0
 11 13  1  0
 13 14  1  1
 13 15  1  0
 15 16  1  0
 16 17  1  0
  7 18  1  0
 18 19  1  0
 19  4  1  0
 12  8  1  0
 17 10  1  0
M  END
>  <Compound_ID>  (644) 
C54911513

>  <Active>  (644) 
0.0

>  <Smiles>  (644) 
CCCC1CCN(c2nc3c(s2)[C@H](O)CCC3)CC1

>  <canonical_smi>  (644) 
CCCC1CCN(c2nc3c(s2)[C@H](O)CCC3)CC1

>  <Set>  (644) 
G2 inactive

>  <Set_type>  (644) 
Train

>  <MW>  (644) 
280.44

>  <HBD>  (644) 
1

>  <HBA>  (644) 
3

>  <NRB>  (644) 
3

>  <NR>  (644) 
3

>  <NAR>  (644) 
1

>  <PSA>  (644) 
36.36

>  <Standard Type>  (644) 
nan

>  <Standard Relation>  (644) 
nan

>  <Standard Units>  (644) 
nan

>  <Standard Value>  (644) 
nan

>  <Assay ChEMBL ID>  (644) 
nan

>  <Assay Description>  (644) 
nan

>  <BAO Label>  (644) 
nan

$$$$

     RDKit          2D

 26 28  0  0  0  0  0  0  0  0999 V2000
    3.0000    0.0000    0.0000 C   0  0  0  0  0  0  0  0  0  0  0  0
    1.5000    0.0000    0.0000 C   0  0  0  0  0  0  0  0  0  0  0  0
    0.7500   -1.2990    0.0000 C   0  0  0  0  0  0  0  0  0  0  0  0
   -0.7500   -1.2990    0.0000 C   0  0  0  0  0  0  0  0  0  0  0  0
   -1.5000    0.0000    0.0000 C   0  0  0  0  0  0  0  0  0  0  0  0
   -0.7500    1.2990    0.0000 N   0  0  0  0  0  4  0  0  0  0  0  0
   -1.5000    2.5981    0.0000 C   0  0  0  0  0  0  0  0  0  0  0  0
   -0.7500    3.8971    0.0000 C   0  0  0  0  0  0  0  0  0  0  0  0
    0.7500    3.8971    0.0000 C   0  0  0  0  0  0  0  0  0  0  0  0
    1.5000    5.1962    0.0000 C   0  0  0  0  0  0  0  0  0  0  0  0
    0.7500    6.4952    0.0000 C   0  0  0  0  0  0  0  0  0  0  0  0
   -0.7500    6.4952    0.0000 C   0  0  0  0  0  0  0  0  0  0  0  0
   -1.5000    5.1962    0.0000 C   0  0  0  0  0  0  0  0  0  0  0  0
   -3.0000    5.1962    0.0000 C   0  0  0  0  0  0  0  0  0  0  0  0
   -3.7500    6.4952    0.0000 N   0  0  0  0  0  0  0  0  0  0  0  0
   -5.2500    6.4952    0.0000 C   0  0  0  0  0  0  0  0  0  0  0  0
   -6.0000    5.1962    0.0000 O   0  0  0  0  0  0  0  0  0  0  0  0
   -6.0000    7.7942    0.0000 C   0  0  0  0  0  0  0  0  0  0  0  0
   -7.5000    7.7942    0.0000 S   0  0  0  0  0  0  0  0  0  0  0  0
   -8.2500    9.0933    0.0000 C   0  0  0  0  0  0  0  0  0  0  0  0
   -9.7418    9.2501    0.0000 N   0  0  0  0  0  0  0  0  0  0  0  0
  -10.0537   10.7173    0.0000 N   0  0  0  0  0  0  0  0  0  0  0  0
   -8.7546   11.4673    0.0000 C   0  0  0  0  0  0  0  0  0  0  0  0
   -8.5978   12.9591    0.0000 N   0  0  0  0  0  0  0  0  0  0  0  0
   -7.6399   10.4636    0.0000 S   0  0  0  0  0  0  0  0  0  0  0  0
    0.7500    1.2990    0.0000 C   0  0  0  0  0  0  0  0  0  0  0  0
  2  1  1  6
  2  3  1  0
  3  4  1  0
  4  5  1  0
  5  6  1  0
  6  7  1  0
  7  8  1  0
  8  9  2  0
  9 10  1  0
 10 11  2  0
 11 12  1  0
 12 13  2  0
 13 14  1  0
 14 15  1  0
 15 16  1  0
 16 17  2  0
 16 18  1  0
 18 19  1  0
 19 20  1  0
 20 21  2  0
 21 22  1  0
 22 23  2  0
 23 24  1  0
 23 25  1  0
  6 26  1  0
 26  2  1  0
 13  8  1  0
 25 20  1  0
M  CHG  1   6   1
M  END
>  <Compound_ID>  (645) 
C53350486

>  <Active>  (645) 
0.0

>  <Smiles>  (645) 
C[C@@H]1CCC[NH+](Cc2ccccc2CNC(=O)CSc2nnc(N)s2)C1

>  <canonical_smi>  (645) 
C[C@@H]1CCC[NH+](Cc2ccccc2CNC(=O)CSc2nnc(N)s2)C1

>  <Set>  (645) 
G2 inactive

>  <Set_type>  (645) 
Train

>  <MW>  (645) 
392.57

>  <HBD>  (645) 
3

>  <HBA>  (645) 
5

>  <NRB>  (645) 
7

>  <NR>  (645) 
3

>  <NAR>  (645) 
2

>  <PSA>  (645) 
85.34

>  <Standard Type>  (645) 
nan

>  <Standard Relation>  (645) 
nan

>  <Standard Units>  (645) 
nan

>  <Standard Value>  (645) 
nan

>  <Assay ChEMBL ID>  (645) 
nan

>  <Assay Description>  (645) 
nan

>  <BAO Label>  (645) 
nan

$$$$

     RDKit          2D

 38 42  0  0  0  0  0  0  0  0999 V2000
    6.4563   -6.0063    0.0000 C   0  0  0  0  0  0  0  0  0  0  0  0
    6.9199   -4.5797    0.0000 C   0  0  0  0  0  0  0  0  0  0  0  0
    7.3834   -3.1531    0.0000 C   0  0  0  0  0  0  0  0  0  0  0  0
    8.3464   -5.0433    0.0000 C   0  0  0  0  0  0  0  0  0  0  0  0
    5.4933   -4.1162    0.0000 C   0  0  0  0  0  0  0  0  0  0  0  0
    4.3786   -5.1199    0.0000 C   0  0  0  0  0  0  0  0  0  0  0  0
    2.9520   -4.6564    0.0000 C   0  0  0  0  0  0  0  0  0  0  0  0
    2.6401   -3.1891    0.0000 C   0  0  0  0  0  0  0  0  0  0  0  0
    1.2135   -2.7256    0.0000 N   0  0  0  0  0  0  0  0  0  0  0  0
    0.7500   -1.2990    0.0000 C   0  0  0  0  0  0  0  0  0  0  0  0
    1.5000    0.0000    0.0000 N   0  0  0  0  0  0  0  0  0  0  0  0
    0.7500    1.2990    0.0000 C   0  0  0  0  0  0  0  0  0  0  0  0
   -0.7500    1.2990    0.0000 C   0  0  0  0  0  0  0  0  0  0  0  0
   -1.5000    0.0000    0.0000 C   0  0  0  0  0  0  0  0  0  0  0  0
   -0.7500   -1.2990    0.0000 C   0  0  0  0  0  0  0  0  0  0  0  0
   -1.2135   -2.7256    0.0000 C   0  0  0  0  0  0  0  0  0  0  0  0
   -2.6401   -3.1891    0.0000 O   0  0  0  0  0  0  0  0  0  0  0  0
   -3.7548   -2.1855    0.0000 C   0  0  0  0  0  0  0  0  0  0  0  0
   -3.4430   -0.7182    0.0000 C   0  0  0  0  0  0  0  0  0  0  0  0
   -4.5577    0.2855    0.0000 C   0  0  0  0  0  0  0  0  0  0  0  0
   -5.9843   -0.1781    0.0000 C   0  0  0  0  0  0  0  0  0  0  0  0
   -7.0990    0.8256    0.0000 C   0  0  0  0  0  0  0  0  0  0  0  0
   -8.5662    0.5138    0.0000 N   0  0  0  0  0  0  0  0  0  0  0  0
   -9.3162    1.8128    0.0000 C   0  0  0  0  0  0  0  0  0  0  0  0
   -8.3125    2.9275    0.0000 C   0  0  0  0  0  0  0  0  0  0  0  0
   -8.6244    4.3947    0.0000 C   0  0  0  0  0  0  0  0  0  0  0  0
   -8.9362    5.8620    0.0000 F   0  0  0  0  0  0  0  0  0  0  0  0
   -7.1572    4.7066    0.0000 F   0  0  0  0  0  0  0  0  0  0  0  0
  -10.0916    4.0829    0.0000 F   0  0  0  0  0  0  0  0  0  0  0  0
   -6.9422    2.3174    0.0000 C   0  0  0  0  0  0  0  0  0  0  0  0
   -6.2961   -1.6453    0.0000 C   0  0  0  0  0  0  0  0  0  0  0  0
   -5.1814   -2.6490    0.0000 C   0  0  0  0  0  0  0  0  0  0  0  0
   -0.0000   -3.6073    0.0000 C   0  0  0  0  0  0  0  0  0  0  0  0
    0.0000   -5.1073    0.0000 C   0  0  0  0  0  0  0  0  0  0  0  0
    1.2990   -5.8573    0.0000 O   0  0  0  0  0  0  0  0  0  0  0  0
   -1.2990   -5.8573    0.0000 O   0  0  0  0  0  1  0  0  0  0  0  0
    3.7548   -2.1855    0.0000 C   0  0  0  0  0  0  0  0  0  0  0  0
    5.1814   -2.6490    0.0000 C   0  0  0  0  0  0  0  0  0  0  0  0
  1  2  1  0
  2  3  1  0
  2  4  1  0
  2  5  1  0
  5  6  2  0
  6  7  1  0
  7  8  2  0
  8  9  1  0
  9 10  1  0
 10 11  2  0
 11 12  1  0
 12 13  2  0
 13 14  1  0
 14 15  2  0
 15 16  1  0
 16 17  1  1
 17 18  1  0
 18 19  2  0
 19 20  1  0
 20 21  2  0
 21 22  1  0
 22 23  2  0
 23 24  1  0
 24 25  2  0
 25 26  1  0
 26 27  1  0
 26 28  1  0
 26 29  1  0
 25 30  1  0
 21 31  1  0
 31 32  2  0
 16 33  1  0
 33 34  1  6
 34 35  2  0
 34 36  1  0
  8 37  1  0
 37 38  2  0
 38  5  1  0
 33  9  1  0
 15 10  1  0
 32 18  1  0
 30 22  1  0
M  CHG  1  36  -1
M  END
>  <Compound_ID>  (646) 
C52627254

>  <Active>  (646) 
0.0

>  <Smiles>  (646) 
CC(C)(C)c1ccc(N2c3ncccc3[C@H](Oc3ccc(C4=NC=C(C(F)(F)F)C4)cc3)[C@H]2C(=O)[O-])cc1

>  <canonical_smi>  (646) 
CC(C)(C)c1ccc(N2c3ncccc3[C@H](Oc3ccc(C4=NC=C(C(F)(F)F)C4)cc3)[C@H]2C(=O)[O-])cc1

>  <Set>  (646) 
G2 inactive

>  <Set_type>  (646) 
Train

>  <MW>  (646) 
520.53

>  <HBD>  (646) 
0

>  <HBA>  (646) 
5

>  <NRB>  (646) 
5

>  <NR>  (646) 
5

>  <NAR>  (646) 
3

>  <PSA>  (646) 
77.85

>  <Standard Type>  (646) 
nan

>  <Standard Relation>  (646) 
nan

>  <Standard Units>  (646) 
nan

>  <Standard Value>  (646) 
nan

>  <Assay ChEMBL ID>  (646) 
nan

>  <Assay Description>  (646) 
nan

>  <BAO Label>  (646) 
nan

$$$$

     RDKit          2D

 29 32  0  0  0  0  0  0  0  0999 V2000
    2.2500   -9.0933    0.0000 C   0  0  0  0  0  0  0  0  0  0  0  0
    1.5000   -7.7942    0.0000 C   0  0  0  0  0  0  0  0  0  0  0  0
   -0.0000   -7.7942    0.0000 C   0  0  0  0  0  0  0  0  0  0  0  0
   -0.7500   -6.4952    0.0000 C   0  0  0  0  0  0  0  0  0  0  0  0
   -0.0000   -5.1962    0.0000 C   0  0  0  0  0  0  0  0  0  0  0  0
   -0.7500   -3.8971    0.0000 C   0  0  0  0  0  0  0  0  0  0  0  0
    1.5000   -5.1962    0.0000 C   0  0  0  0  0  0  0  0  0  0  0  0
    2.2500   -3.8971    0.0000 N   0  0  0  0  0  0  0  0  0  0  0  0
    1.5000   -2.5981    0.0000 S   0  0  0  0  0  0  0  0  0  0  0  0
    2.7990   -1.8481    0.0000 O   0  0  0  0  0  0  0  0  0  0  0  0
    0.2010   -3.3481    0.0000 O   0  0  0  0  0  0  0  0  0  0  0  0
    0.7500   -1.2990    0.0000 C   0  0  0  0  0  0  0  0  0  0  0  0
    1.5000    0.0000    0.0000 C   0  0  0  0  0  0  0  0  0  0  0  0
    0.7500    1.2990    0.0000 C   0  0  0  0  0  0  0  0  0  0  0  0
    1.2135    2.7256    0.0000 N   0  0  0  0  0  0  0  0  0  0  0  0
    0.0000    3.6073    0.0000 C   0  0  0  0  0  0  0  0  0  0  0  0
   -1.2135    2.7256    0.0000 C   0  0  0  0  0  0  0  0  0  0  0  0
   -0.7500    1.2990    0.0000 C   0  0  0  0  0  0  0  0  0  0  0  0
   -1.5000    0.0000    0.0000 C   0  0  0  0  0  0  0  0  0  0  0  0
   -0.7500   -1.2990    0.0000 C   0  0  0  0  0  0  0  0  0  0  0  0
   -1.5000   -2.5981    0.0000 C   0  0  0  0  0  0  0  0  0  0  0  0
   -2.5838    3.3357    0.0000 C   0  0  0  0  0  0  0  0  0  0  0  0
   -3.7974    2.4540    0.0000 O   0  0  0  0  0  0  0  0  0  0  0  0
   -2.7406    4.8275    0.0000 C   0  0  0  0  0  0  0  0  0  0  0  0
   -1.5271    5.7092    0.0000 C   0  0  0  0  0  0  0  0  0  0  0  0
   -0.6883    6.9527    0.0000 C   0  0  0  0  0  0  0  0  0  0  0  0
   -2.6061    6.7512    0.0000 C   0  0  0  0  0  0  0  0  0  0  0  0
   -0.1568    5.0991    0.0000 C   0  0  0  0  0  0  0  0  0  0  0  0
    2.2500   -6.4952    0.0000 C   0  0  0  0  0  0  0  0  0  0  0  0
  1  2  1  0
  2  3  2  0
  3  4  1  0
  4  5  2  0
  5  6  1  0
  5  7  1  0
  7  8  1  0
  8  9  1  0
  9 10  2  0
  9 11  2  0
  9 12  1  0
 12 13  2  0
 13 14  1  0
 14 15  1  0
 15 16  1  0
 16 17  2  0
 17 18  1  0
 18 19  1  0
 19 20  2  0
 20 21  1  0
 17 22  1  0
 22 23  2  0
 22 24  1  0
 24 25  1  0
 25 26  1  0
 25 27  1  0
 25 28  1  0
  7 29  2  0
 29  2  1  0
 20 12  1  0
 18 14  2  0
 28 16  1  0
M  END
>  <Compound_ID>  (647) 
C09685477

>  <Active>  (647) 
0.0

>  <Smiles>  (647) 
Cc1ccc(C)c(NS(=O)(=O)c2cc3[nH]c4c(c3cc2C)C(=O)CC(C)(C)C4)c1

>  <canonical_smi>  (647) 
Cc1ccc(C)c(NS(=O)(=O)c2cc3[nH]c4c(c3cc2C)C(=O)CC(C)(C)C4)c1

>  <Set>  (647) 
G2 inactive

>  <Set_type>  (647) 
Train

>  <MW>  (647) 
410.54

>  <HBD>  (647) 
2

>  <HBA>  (647) 
3

>  <NRB>  (647) 
3

>  <NR>  (647) 
4

>  <NAR>  (647) 
3

>  <PSA>  (647) 
79.03

>  <Standard Type>  (647) 
nan

>  <Standard Relation>  (647) 
nan

>  <Standard Units>  (647) 
nan

>  <Standard Value>  (647) 
nan

>  <Assay ChEMBL ID>  (647) 
nan

>  <Assay Description>  (647) 
nan

>  <BAO Label>  (647) 
nan

$$$$

     RDKit          2D

 26 28  0  0  0  0  0  0  0  0999 V2000
    3.0000   -7.7942    0.0000 C   0  0  0  0  0  0  0  0  0  0  0  0
    3.7500   -6.4952    0.0000 O   0  0  0  0  0  0  0  0  0  0  0  0
    3.0000   -5.1962    0.0000 C   0  0  0  0  0  0  0  0  0  0  0  0
    1.5000   -5.1962    0.0000 C   0  0  0  0  0  0  0  0  0  0  0  0
    0.7500   -3.8971    0.0000 C   0  0  0  0  0  0  0  0  0  0  0  0
    1.5000   -2.5981    0.0000 C   0  0  0  0  0  0  0  0  0  0  0  0
    0.7500   -1.2990    0.0000 C   0  0  0  0  0  0  0  0  0  0  0  0
    1.5000    0.0000    0.0000 C   0  0  0  0  0  0  0  0  0  0  0  0
    0.7500    1.2990    0.0000 C   0  0  0  0  0  0  0  0  0  0  0  0
    1.5000    2.5981    0.0000 O   0  0  0  0  0  0  0  0  0  0  0  0
   -0.7500    1.2990    0.0000 C   0  0  0  0  0  0  0  0  0  0  0  0
   -1.5000    0.0000    0.0000 C   0  0  0  0  0  0  0  0  0  0  0  0
   -3.0000    0.0000    0.0000 C   0  0  0  0  0  0  0  0  0  0  0  0
   -3.7500    1.2990    0.0000 C   0  0  0  0  0  0  0  0  0  0  0  0
   -5.2500    1.2990    0.0000 O   0  0  0  0  0  0  0  0  0  0  0  0
   -3.0000    2.5981    0.0000 C   0  0  0  0  0  0  0  0  0  0  0  0
   -3.7500    3.8971    0.0000 C   0  0  0  0  0  0  0  0  0  0  0  0
   -3.0000    5.1962    0.0000 C   0  0  0  0  0  0  0  0  0  0  0  0
   -3.7500    6.4952    0.0000 C   0  0  0  0  0  0  0  0  0  0  0  0
   -3.0000    7.7942    0.0000 C   0  0  0  0  0  0  0  0  0  0  0  0
   -5.2500    6.4952    0.0000 C   0  0  0  0  0  0  0  0  0  0  0  0
   -1.5000    2.5981    0.0000 C   0  0  0  0  0  0  0  0  0  0  0  0
   -0.7500    3.8971    0.0000 O   0  0  0  0  0  0  0  0  0  0  0  0
   -0.7500   -1.2990    0.0000 O   0  0  0  0  0  0  0  0  0  0  0  0
    3.0000   -2.5981    0.0000 C   0  0  0  0  0  0  0  0  0  0  0  0
    3.7500   -3.8971    0.0000 C   0  0  0  0  0  0  0  0  0  0  0  0
  1  2  1  0
  2  3  1  0
  3  4  2  0
  4  5  1  0
  5  6  2  0
  7  6  1  6
  7  8  1  0
  8  9  1  0
  9 10  2  0
  9 11  1  0
 11 12  2  0
 12 13  1  0
 13 14  2  0
 14 15  1  0
 14 16  1  0
 16 17  1  0
 17 18  1  0
 18 19  2  0
 19 20  1  0
 19 21  1  0
 16 22  2  0
 22 23  1  0
 12 24  1  0
  6 25  1  0
 25 26  2  0
 26  3  1  0
 24  7  1  0
 22 11  1  0
M  END
>  <Compound_ID>  (648) 
C28540277

>  <Active>  (648) 
0.0

>  <Smiles>  (648) 
COc1ccc([C@H]2CC(=O)c3c(cc(O)c(CC=C(C)C)c3O)O2)cc1

>  <canonical_smi>  (648) 
COc1ccc([C@H]2CC(=O)c3c(cc(O)c(CC=C(C)C)c3O)O2)cc1

>  <Set>  (648) 
G2 inactive

>  <Set_type>  (648) 
Train

>  <MW>  (648) 
354.4

>  <HBD>  (648) 
2

>  <HBA>  (648) 
5

>  <NRB>  (648) 
4

>  <NR>  (648) 
3

>  <NAR>  (648) 
2

>  <PSA>  (648) 
75.99

>  <Standard Type>  (648) 
nan

>  <Standard Relation>  (648) 
nan

>  <Standard Units>  (648) 
nan

>  <Standard Value>  (648) 
nan

>  <Assay ChEMBL ID>  (648) 
nan

>  <Assay Description>  (648) 
nan

>  <BAO Label>  (648) 
nan

$$$$

     RDKit          2D

 34 38  0  0  0  0  0  0  0  0999 V2000
    3.0000  -10.3923    0.0000 C   0  0  0  0  0  0  0  0  0  0  0  0
    3.7500   -9.0933    0.0000 O   0  0  0  0  0  0  0  0  0  0  0  0
    3.0000   -7.7942    0.0000 C   0  0  0  0  0  0  0  0  0  0  0  0
    3.7500   -6.4952    0.0000 C   0  0  0  0  0  0  0  0  0  0  0  0
    3.0000   -5.1962    0.0000 N   0  0  0  0  0  4  0  0  0  0  0  0
    1.5000   -5.1962    0.0000 C   0  0  0  0  0  0  0  0  0  0  0  0
    0.7500   -3.8971    0.0000 C   0  0  0  0  0  0  0  0  0  0  0  0
    1.5000   -2.5981    0.0000 N   0  0  0  0  0  0  0  0  0  0  0  0
    0.7500   -1.2990    0.0000 C   0  0  0  0  0  0  0  0  0  0  0  0
    1.5000    0.0000    0.0000 N   0  0  0  0  0  0  0  0  0  0  0  0
    0.7500    1.2990    0.0000 C   0  0  0  0  0  0  0  0  0  0  0  0
    1.5000    2.5981    0.0000 C   0  0  0  0  0  0  0  0  0  0  0  0
    3.0000    2.5981    0.0000 C   0  0  0  0  0  0  0  0  0  0  0  0
    3.7500    3.8971    0.0000 C   0  0  0  0  0  0  0  0  0  0  0  0
    3.0000    5.1962    0.0000 C   0  0  0  0  0  0  0  0  0  0  0  0
    3.7500    6.4952    0.0000 Cl  0  0  0  0  0  0  0  0  0  0  0  0
    1.5000    5.1962    0.0000 C   0  0  0  0  0  0  0  0  0  0  0  0
    0.7500    3.8971    0.0000 C   0  0  0  0  0  0  0  0  0  0  0  0
   -0.7500    1.2990    0.0000 C   0  0  0  0  0  0  0  0  0  0  0  0
   -1.7537    2.4138    0.0000 C   0  0  0  0  0  0  0  0  0  0  0  0
   -1.4418    3.8810    0.0000 N   0  0  0  0  0  0  0  0  0  0  0  0
   -3.1240    1.8037    0.0000 N   0  0  0  0  0  0  0  0  0  0  0  0
   -4.4231    2.5537    0.0000 C   0  0  0  0  0  0  0  0  0  0  0  0
   -4.4231    4.0537    0.0000 C   0  0  0  0  0  0  0  0  0  0  0  0
   -5.7221    4.8037    0.0000 C   0  0  0  0  0  0  0  0  0  0  0  0
   -7.0211    4.0537    0.0000 C   0  0  0  0  0  0  0  0  0  0  0  0
   -8.3202    4.8037    0.0000 Cl  0  0  0  0  0  0  0  0  0  0  0  0
   -7.0211    2.5537    0.0000 C   0  0  0  0  0  0  0  0  0  0  0  0
   -5.7221    1.8037    0.0000 C   0  0  0  0  0  0  0  0  0  0  0  0
   -2.9672    0.3119    0.0000 N   0  0  0  0  0  0  0  0  0  0  0  0
   -1.5000    0.0000    0.0000 C   0  0  0  0  0  0  0  0  0  0  0  0
   -0.7500   -1.2990    0.0000 N   0  0  0  0  0  0  0  0  0  0  0  0
    3.0000   -2.5981    0.0000 C   0  0  0  0  0  0  0  0  0  0  0  0
    3.7500   -3.8971    0.0000 C   0  0  0  0  0  0  0  0  0  0  0  0
  1  2  1  0
  2  3  1  0
  3  4  1  0
  4  5  1  0
  5  6  1  0
  6  7  1  0
  7  8  1  0
  8  9  1  0
  9 10  1  0
 10 11  2  0
 11 12  1  0
 12 13  2  0
 13 14  1  0
 14 15  2  0
 15 16  1  0
 15 17  1  0
 17 18  2  0
 11 19  1  0
 19 20  2  0
 20 21  1  0
 20 22  1  0
 22 23  1  0
 23 24  2  0
 24 25  1  0
 25 26  2  0
 26 27  1  0
 26 28  1  0
 28 29  2  0
 22 30  1  0
 30 31  2  0
 31 32  1  0
  8 33  1  0
 33 34  1  0
 34  5  1  0
 32  9  2  0
 18 12  1  0
 31 19  1  0
 29 23  1  0
M  CHG  1   5   1
M  END
>  <Compound_ID>  (649) 
C35577230

>  <Active>  (649) 
0.0

>  <Smiles>  (649) 
COCC[NH+]1CCN(c2nc(-c3ccc(Cl)cc3)c3c(N)n(-c4ccc(Cl)cc4)nc3n2)CC1

>  <canonical_smi>  (649) 
COCC[NH+]1CCN(c2nc(-c3ccc(Cl)cc3)c3c(N)n(-c4ccc(Cl)cc4)nc3n2)CC1

>  <Set>  (649) 
G2 inactive

>  <Set_type>  (649) 
Train

>  <MW>  (649) 
499.43

>  <HBD>  (649) 
2

>  <HBA>  (649) 
6

>  <NRB>  (649) 
6

>  <NR>  (649) 
5

>  <NAR>  (649) 
4

>  <PSA>  (649) 
86.53

>  <Standard Type>  (649) 
nan

>  <Standard Relation>  (649) 
nan

>  <Standard Units>  (649) 
nan

>  <Standard Value>  (649) 
nan

>  <Assay ChEMBL ID>  (649) 
nan

>  <Assay Description>  (649) 
nan

>  <BAO Label>  (649) 
nan

$$$$

     RDKit          2D

 23 26  0  0  0  0  0  0  0  0999 V2000
    8.7849   -6.6625    0.0000 C   0  0  0  0  0  0  0  0  0  0  0  0
    7.4146   -6.0524    0.0000 C   0  0  0  0  0  0  0  0  0  0  0  0
    6.2011   -6.9341    0.0000 C   0  0  0  0  0  0  0  0  0  0  0  0
    4.8308   -6.3240    0.0000 C   0  0  0  0  0  0  0  0  0  0  0  0
    4.6740   -4.8322    0.0000 C   0  0  0  0  0  0  0  0  0  0  0  0
    3.3037   -4.2221    0.0000 C   0  0  0  0  0  0  0  0  0  0  0  0
    2.0046   -4.9721    0.0000 N   0  0  0  0  0  0  0  0  0  0  0  0
    0.8899   -3.9684    0.0000 N   0  0  0  0  0  0  0  0  0  0  0  0
    1.5000   -2.5981    0.0000 C   0  0  0  0  0  0  0  0  0  0  0  0
    0.7500   -1.2990    0.0000 C   0  0  0  0  0  0  0  0  0  0  0  0
    1.5000    0.0000    0.0000 C   0  0  0  0  0  0  0  0  0  0  0  0
    0.7500    1.2990    0.0000 C   0  0  0  0  0  0  0  0  0  0  0  0
   -0.7500    1.2990    0.0000 C   0  0  0  0  0  0  0  0  0  0  0  0
   -1.5000    0.0000    0.0000 C   0  0  0  0  0  0  0  0  0  0  0  0
   -2.9672   -0.3119    0.0000 N   0  0  0  0  0  0  0  0  0  0  0  0
   -3.1240   -1.8037    0.0000 C   0  0  0  0  0  0  0  0  0  0  0  0
   -4.4231   -2.5537    0.0000 C   0  0  0  0  0  0  0  0  0  0  0  0
   -1.7537   -2.4138    0.0000 O   0  0  0  0  0  0  0  0  0  0  0  0
   -0.7500   -1.2990    0.0000 C   0  0  0  0  0  0  0  0  0  0  0  0
    2.9918   -2.7549    0.0000 C   0  0  0  0  0  0  0  0  0  0  0  0
    5.8875   -3.9505    0.0000 C   0  0  0  0  0  0  0  0  0  0  0  0
    5.7307   -2.4587    0.0000 O   0  0  0  0  0  0  0  0  0  0  0  0
    7.2578   -4.5606    0.0000 C   0  0  0  0  0  0  0  0  0  0  0  0
  1  2  1  0
  2  3  2  0
  3  4  1  0
  4  5  2  0
  5  6  1  0
  6  7  2  0
  7  8  1  0
  8  9  2  0
  9 10  1  0
 10 11  2  0
 11 12  1  0
 12 13  2  0
 13 14  1  0
 14 15  1  0
 15 16  2  0
 16 17  1  0
 16 18  1  0
 18 19  1  0
  9 20  1  0
  5 21  1  0
 21 22  1  0
 21 23  2  0
 23  2  1  0
 20  6  1  0
 19 10  1  0
 19 14  2  0
M  END
>  <Compound_ID>  (650) 
C04171287

>  <Active>  (650) 
0.0

>  <Smiles>  (650) 
Cc1ccc(C2=NN=C(c3cccc4nc(C)oc34)C2)c(O)c1

>  <canonical_smi>  (650) 
Cc1ccc(C2=NN=C(c3cccc4nc(C)oc34)C2)c(O)c1

>  <Set>  (650) 
G2 inactive

>  <Set_type>  (650) 
Train

>  <MW>  (650) 
305.34

>  <HBD>  (650) 
1

>  <HBA>  (650) 
3

>  <NRB>  (650) 
2

>  <NR>  (650) 
4

>  <NAR>  (650) 
3

>  <PSA>  (650) 
70.98

>  <Standard Type>  (650) 
nan

>  <Standard Relation>  (650) 
nan

>  <Standard Units>  (650) 
nan

>  <Standard Value>  (650) 
nan

>  <Assay ChEMBL ID>  (650) 
nan

>  <Assay Description>  (650) 
nan

>  <BAO Label>  (650) 
nan

$$$$

     RDKit          2D

 20 21  0  0  0  0  0  0  0  0999 V2000
    5.2500   -3.8971    0.0000 C   0  0  0  0  0  0  0  0  0  0  0  0
    3.7500   -3.8971    0.0000 C   0  0  0  0  0  0  0  0  0  0  0  0
    3.0000   -2.5981    0.0000 N   0  0  0  0  0  4  0  0  0  0  0  0
    1.5000   -2.5981    0.0000 C   0  0  0  0  0  0  0  0  0  0  0  0
    0.7500   -3.8971    0.0000 C   0  0  0  0  0  0  0  0  0  0  0  0
    1.3601   -5.2674    0.0000 C   0  0  0  0  0  0  0  0  0  0  0  0
    0.2454   -6.2711    0.0000 C   0  0  0  0  0  0  0  0  0  0  0  0
   -1.0537   -5.5211    0.0000 C   0  0  0  0  0  0  0  0  0  0  0  0
   -2.4240   -6.1312    0.0000 N   0  0  0  0  0  4  0  0  0  0  0  0
   -2.5808   -7.6230    0.0000 O   0  0  0  0  0  0  0  0  0  0  0  0
   -3.6375   -5.2496    0.0000 O   0  0  0  0  0  1  0  0  0  0  0  0
   -0.7418   -4.0539    0.0000 O   0  0  0  0  0  0  0  0  0  0  0  0
    0.7500   -1.2990    0.0000 C   0  0  0  0  0  0  0  0  0  0  0  0
    1.5000    0.0000    0.0000 C   0  0  0  0  0  0  0  0  0  0  0  0
    0.7500    1.2990    0.0000 C   0  0  0  0  0  0  0  0  0  0  0  0
    1.5000    2.5981    0.0000 Br  0  0  0  0  0  0  0  0  0  0  0  0
   -0.7500    1.2990    0.0000 C   0  0  0  0  0  0  0  0  0  0  0  0
   -1.5000    0.0000    0.0000 C   0  0  0  0  0  0  0  0  0  0  0  0
   -0.7500   -1.2990    0.0000 C   0  0  0  0  0  0  0  0  0  0  0  0
   -1.5000   -2.5981    0.0000 Br  0  0  0  0  0  0  0  0  0  0  0  0
  1  2  1  0
  2  3  1  0
  4  3  1  6
  4  5  1  0
  5  6  2  0
  6  7  1  0
  7  8  2  0
  8  9  1  0
  9 10  2  0
  9 11  1  0
  8 12  1  0
  4 13  1  0
 13 14  2  0
 14 15  1  0
 15 16  1  0
 15 17  2  0
 17 18  1  0
 18 19  2  0
 19 20  1  0
 12  5  1  0
 19 13  1  0
M  CHG  3   3   1   9   1  11  -1
M  END
>  <Compound_ID>  (651) 
C35541686

>  <Active>  (651) 
0.0

>  <Smiles>  (651) 
CC[NH2+][C@H](c1ccc([N+](=O)[O-])o1)c1cc(Br)ccc1Br

>  <canonical_smi>  (651) 
CC[NH2+][C@H](c1ccc([N+](=O)[O-])o1)c1cc(Br)ccc1Br

>  <Set>  (651) 
G2 inactive

>  <Set_type>  (651) 
Train

>  <MW>  (651) 
405.07

>  <HBD>  (651) 
1

>  <HBA>  (651) 
3

>  <NRB>  (651) 
5

>  <NR>  (651) 
2

>  <NAR>  (651) 
2

>  <PSA>  (651) 
72.89

>  <Standard Type>  (651) 
nan

>  <Standard Relation>  (651) 
nan

>  <Standard Units>  (651) 
nan

>  <Standard Value>  (651) 
nan

>  <Assay ChEMBL ID>  (651) 
nan

>  <Assay Description>  (651) 
nan

>  <BAO Label>  (651) 
nan

$$$$

     RDKit          2D

 28 32  0  0  0  0  0  0  0  0999 V2000
    1.2447    8.0346    0.0000 C   0  0  0  0  0  0  0  0  0  0  0  0
    2.2484    6.9199    0.0000 C   0  0  0  0  0  0  0  0  0  0  0  0
    3.7156    7.2317    0.0000 C   0  0  0  0  0  0  0  0  0  0  0  0
    4.7193    6.1170    0.0000 C   0  0  0  0  0  0  0  0  0  0  0  0
    4.2558    4.6904    0.0000 C   0  0  0  0  0  0  0  0  0  0  0  0
    2.7886    4.3786    0.0000 C   0  0  0  0  0  0  0  0  0  0  0  0
    2.3250    2.9520    0.0000 O   0  0  0  0  0  0  0  0  0  0  0  0
    0.8578    2.6401    0.0000 C   0  0  0  0  0  0  0  0  0  0  0  0
    0.3943    1.2135    0.0000 C   0  0  0  0  0  0  0  0  0  0  0  0
    1.2760    0.0000    0.0000 N   0  0  0  0  0  0  0  0  0  0  0  0
    0.3943   -1.2135    0.0000 N   0  0  0  0  0  0  0  0  0  0  0  0
   -1.0323   -0.7500    0.0000 C   0  0  0  0  0  0  0  0  0  0  0  0
   -1.0323    0.7500    0.0000 N   0  0  0  0  0  0  0  0  0  0  0  0
   -2.4589    1.2135    0.0000 N   0  0  0  0  0  0  0  0  0  0  0  0
   -3.3405    0.0000    0.0000 C   0  0  0  0  0  0  0  0  0  0  0  0
   -4.8405    0.0000    0.0000 C   0  0  0  0  0  0  0  0  0  0  0  0
   -5.7222   -1.2135    0.0000 C   0  0  0  0  0  0  0  0  0  0  0  0
   -7.1488   -0.7500    0.0000 C   0  0  0  0  0  0  0  0  0  0  0  0
   -8.3623   -1.6317    0.0000 C   0  0  0  0  0  0  0  0  0  0  0  0
   -9.7327   -1.0216    0.0000 C   0  0  0  0  0  0  0  0  0  0  0  0
  -10.9462   -1.9033    0.0000 C   0  0  0  0  0  0  0  0  0  0  0  0
  -10.7894   -3.3950    0.0000 C   0  0  0  0  0  0  0  0  0  0  0  0
   -9.4191   -4.0051    0.0000 C   0  0  0  0  0  0  0  0  0  0  0  0
   -8.2055   -3.1235    0.0000 C   0  0  0  0  0  0  0  0  0  0  0  0
   -7.1488    0.7500    0.0000 N   0  0  0  0  0  0  0  0  0  0  0  0
   -5.7222    1.2135    0.0000 N   0  0  0  0  0  0  0  0  0  0  0  0
   -2.4589   -1.2135    0.0000 S   0  0  0  0  0  0  0  0  0  0  0  0
    1.7849    5.4933    0.0000 C   0  0  0  0  0  0  0  0  0  0  0  0
  1  2  1  0
  2  3  2  0
  3  4  1  0
  4  5  2  0
  5  6  1  0
  6  7  1  0
  7  8  1  0
  8  9  1  0
  9 10  2  0
 10 11  1  0
 11 12  2  0
 12 13  1  0
 13 14  1  0
 15 14  1  6
 15 16  1  0
 16 17  1  1
 17 18  2  0
 18 19  1  0
 19 20  2  0
 20 21  1  0
 21 22  2  0
 22 23  1  0
 23 24  2  0
 18 25  1  0
 25 26  2  0
 15 27  1  0
  6 28  2  0
 28  2  1  0
 13  9  1  0
 26 16  1  0
 27 12  1  0
 24 19  1  0
M  END
>  <Compound_ID>  (652) 
C38745218

>  <Active>  (652) 
0.0

>  <Smiles>  (652) 
Cc1cccc(OCc2nnc3n2N[C@@H]([C@H]2C=C(c4ccccc4)N=N2)S3)c1

>  <canonical_smi>  (652) 
Cc1cccc(OCc2nnc3n2N[C@@H]([C@H]2C=C(c4ccccc4)N=N2)S3)c1

>  <Set>  (652) 
G2 inactive

>  <Set_type>  (652) 
Train

>  <MW>  (652) 
390.47

>  <HBD>  (652) 
1

>  <HBA>  (652) 
5

>  <NRB>  (652) 
5

>  <NR>  (652) 
5

>  <NAR>  (652) 
3

>  <PSA>  (652) 
76.69

>  <Standard Type>  (652) 
nan

>  <Standard Relation>  (652) 
nan

>  <Standard Units>  (652) 
nan

>  <Standard Value>  (652) 
nan

>  <Assay ChEMBL ID>  (652) 
nan

>  <Assay Description>  (652) 
nan

>  <BAO Label>  (652) 
nan

$$$$

     RDKit          2D

 27 30  0  0  0  0  0  0  0  0999 V2000
    7.2317   -6.0469    0.0000 C   0  0  0  0  0  0  0  0  0  0  0  0
    6.9199   -4.5797    0.0000 O   0  0  0  0  0  0  0  0  0  0  0  0
    5.4933   -4.1162    0.0000 C   0  0  0  0  0  0  0  0  0  0  0  0
    4.3786   -5.1199    0.0000 C   0  0  0  0  0  0  0  0  0  0  0  0
    2.9520   -4.6564    0.0000 C   0  0  0  0  0  0  0  0  0  0  0  0
    2.6401   -3.1891    0.0000 C   0  0  0  0  0  0  0  0  0  0  0  0
    1.2135   -2.7256    0.0000 N   0  0  0  0  0  0  0  0  0  0  0  0
   -0.0000   -3.6073    0.0000 N   0  0  0  0  0  0  0  0  0  0  0  0
   -1.2135   -2.7256    0.0000 C   0  0  0  0  0  0  0  0  0  0  0  0
   -2.6401   -3.1891    0.0000 C   0  0  0  0  0  0  0  0  0  0  0  0
   -0.7500   -1.2990    0.0000 C   0  0  0  0  0  0  0  0  0  0  0  0
    0.7500   -1.2990    0.0000 C   0  0  0  0  0  0  0  0  0  0  0  0
    1.5000    0.0000    0.0000 N   0  0  0  0  0  0  0  0  0  0  0  0
    0.7500    1.2990    0.0000 C   0  0  0  0  0  0  0  0  0  0  0  0
    1.5000    2.5981    0.0000 O   0  0  0  0  0  0  0  0  0  0  0  0
   -0.7500    1.2990    0.0000 C   0  0  0  0  0  0  0  0  0  0  0  0
   -1.5000    0.0000    0.0000 C   0  0  0  0  0  0  0  0  0  0  0  0
   -3.0000    0.0000    0.0000 C   0  0  0  0  0  0  0  0  0  0  0  0
   -3.7500    1.2990    0.0000 C   0  0  0  0  0  0  0  0  0  0  0  0
   -5.2500    1.2990    0.0000 C   0  0  0  0  0  0  0  0  0  0  0  0
   -6.0000    0.0000    0.0000 C   0  0  0  0  0  0  0  0  0  0  0  0
   -7.5000    0.0000    0.0000 Cl  0  0  0  0  0  0  0  0  0  0  0  0
   -5.2500   -1.2990    0.0000 C   0  0  0  0  0  0  0  0  0  0  0  0
   -6.0000   -2.5981    0.0000 Cl  0  0  0  0  0  0  0  0  0  0  0  0
   -3.7500   -1.2990    0.0000 C   0  0  0  0  0  0  0  0  0  0  0  0
    3.7548   -2.1855    0.0000 N   0  0  0  0  0  0  0  0  0  0  0  0
    5.1814   -2.6490    0.0000 N   0  0  0  0  0  0  0  0  0  0  0  0
  1  2  1  0
  2  3  1  0
  3  4  2  0
  4  5  1  0
  5  6  2  0
  6  7  1  0
  7  8  1  0
  8  9  2  0
  9 10  1  0
  9 11  1  0
 11 12  2  0
 12 13  1  0
 13 14  2  0
 14 15  1  0
 14 16  1  0
 16 17  1  0
 17 18  1  1
 18 19  2  0
 19 20  1  0
 20 21  2  0
 21 22  1  0
 21 23  1  0
 23 24  1  0
 23 25  2  0
  6 26  1  0
 26 27  2  0
 27  3  1  0
 12  7  1  0
 25 18  1  0
 17 11  1  0
M  END
>  <Compound_ID>  (653) 
C32103565

>  <Active>  (653) 
0.0

>  <Smiles>  (653) 
COc1ccc(-n2nc(C)c3c2N=C(O)C[C@@H]3c2ccc(Cl)c(Cl)c2)nn1

>  <canonical_smi>  (653) 
COc1ccc(-n2nc(C)c3c2N=C(O)C[C@@H]3c2ccc(Cl)c(Cl)c2)nn1

>  <Set>  (653) 
G2 inactive

>  <Set_type>  (653) 
Train

>  <MW>  (653) 
404.26

>  <HBD>  (653) 
1

>  <HBA>  (653) 
5

>  <NRB>  (653) 
3

>  <NR>  (653) 
4

>  <NAR>  (653) 
3

>  <PSA>  (653) 
85.42

>  <Standard Type>  (653) 
nan

>  <Standard Relation>  (653) 
nan

>  <Standard Units>  (653) 
nan

>  <Standard Value>  (653) 
nan

>  <Assay ChEMBL ID>  (653) 
nan

>  <Assay Description>  (653) 
nan

>  <BAO Label>  (653) 
nan

$$$$

     RDKit          2D

 28 30  0  0  0  0  0  0  0  0999 V2000
    0.7500   -6.4952    0.0000 C   0  0  0  0  0  0  0  0  0  0  0  0
    1.5000   -5.1962    0.0000 C   0  0  0  0  0  0  0  0  0  0  0  0
    0.7500   -3.8971    0.0000 N   0  0  0  0  0  0  0  0  0  0  0  0
    1.5000   -2.5981    0.0000 C   0  0  0  0  0  0  0  0  0  0  0  0
    3.0000   -2.5981    0.0000 O   0  0  0  0  0  0  0  0  0  0  0  0
    0.7500   -1.2990    0.0000 N   0  0  0  0  0  0  0  0  0  0  0  0
    1.5000    0.0000    0.0000 C   0  0  0  0  0  0  0  0  0  0  0  0
    0.7500    1.2990    0.0000 C   0  0  0  0  0  0  0  0  0  0  0  0
   -0.7500    1.2990    0.0000 O   0  0  0  0  0  0  0  0  0  0  0  0
   -1.5000    0.0000    0.0000 C   0  0  0  0  0  0  0  0  0  0  0  0
   -3.0000    0.0000    0.0000 C   0  0  0  0  0  0  0  0  0  0  0  0
   -3.7500    1.2990    0.0000 C   0  0  0  0  0  0  0  0  0  0  0  0
   -5.2500    1.2990    0.0000 C   0  0  0  0  0  0  0  0  0  0  0  0
   -6.0000    0.0000    0.0000 C   0  0  0  0  0  0  0  0  0  0  0  0
   -7.5000    0.0000    0.0000 F   0  0  0  0  0  0  0  0  0  0  0  0
   -5.2500   -1.2990    0.0000 C   0  0  0  0  0  0  0  0  0  0  0  0
   -6.0000   -2.5981    0.0000 F   0  0  0  0  0  0  0  0  0  0  0  0
   -3.7500   -1.2990    0.0000 C   0  0  0  0  0  0  0  0  0  0  0  0
   -0.7500   -1.2990    0.0000 C   0  0  0  0  0  0  0  0  0  0  0  0
    3.0000   -5.1962    0.0000 C   0  0  0  0  0  0  0  0  0  0  0  0
    3.7500   -6.4952    0.0000 C   0  0  0  0  0  0  0  0  0  0  0  0
    5.2500   -6.4952    0.0000 C   0  0  0  0  0  0  0  0  0  0  0  0
    6.0000   -5.1962    0.0000 C   0  0  0  0  0  0  0  0  0  0  0  0
    5.2500   -3.8971    0.0000 C   0  0  0  0  0  0  0  0  0  0  0  0
    6.0000   -2.5981    0.0000 N   0  0  0  0  0  4  0  0  0  0  0  0
    5.2500   -1.2990    0.0000 O   0  0  0  0  0  0  0  0  0  0  0  0
    7.5000   -2.5981    0.0000 O   0  0  0  0  0  1  0  0  0  0  0  0
    3.7500   -3.8971    0.0000 C   0  0  0  0  0  0  0  0  0  0  0  0
  2  1  1  6
  2  3  1  0
  3  4  1  0
  4  5  2  0
  4  6  1  0
  6  7  1  0
  7  8  1  0
  8  9  1  0
  9 10  1  0
 10 11  1  6
 11 12  2  0
 12 13  1  0
 13 14  2  0
 14 15  1  0
 14 16  1  0
 16 17  1  0
 16 18  2  0
 10 19  1  0
  2 20  1  0
 20 21  2  0
 21 22  1  0
 22 23  2  0
 23 24  1  0
 24 25  1  0
 25 26  2  0
 25 27  1  0
 24 28  2  0
 19  6  1  0
 28 20  1  0
 18 11  1  0
M  CHG  2  25   1  27  -1
M  END
>  <Compound_ID>  (654) 
C67064357

>  <Active>  (654) 
0.0

>  <Smiles>  (654) 
C[C@H](NC(=O)N1CCO[C@@H](c2ccc(F)c(F)c2)C1)c1cccc([N+](=O)[O-])c1

>  <canonical_smi>  (654) 
C[C@H](NC(=O)N1CCO[C@@H](c2ccc(F)c(F)c2)C1)c1cccc([N+](=O)[O-])c1

>  <Set>  (654) 
G2 inactive

>  <Set_type>  (654) 
Train

>  <MW>  (654) 
391.37

>  <HBD>  (654) 
1

>  <HBA>  (654) 
4

>  <NRB>  (654) 
4

>  <NR>  (654) 
3

>  <NAR>  (654) 
2

>  <PSA>  (654) 
84.71

>  <Standard Type>  (654) 
nan

>  <Standard Relation>  (654) 
nan

>  <Standard Units>  (654) 
nan

>  <Standard Value>  (654) 
nan

>  <Assay ChEMBL ID>  (654) 
nan

>  <Assay Description>  (654) 
nan

>  <BAO Label>  (654) 
nan

$$$$

     RDKit          2D

 28 31  0  0  0  0  0  0  0  0999 V2000
    3.0000    0.0000    0.0000 C   0  0  0  0  0  0  0  0  0  0  0  0
    1.5000    0.0000    0.0000 C   0  0  0  0  0  0  0  0  0  0  0  0
    0.7500   -1.2990    0.0000 C   0  0  0  0  0  0  0  0  0  0  0  0
   -0.7500   -1.2990    0.0000 C   0  0  0  0  0  0  0  0  0  0  0  0
   -1.5000   -2.5981    0.0000 O   0  0  0  0  0  1  0  0  0  0  0  0
   -1.5000    0.0000    0.0000 N   0  0  0  0  0  0  0  0  0  0  0  0
   -0.7500    1.2990    0.0000 C   0  0  0  0  0  0  0  0  0  0  0  0
   -1.5000    2.5981    0.0000 N   0  0  0  0  0  0  0  0  0  0  0  0
   -3.0000    2.5981    0.0000 C   0  0  0  0  0  0  0  0  0  0  0  0
   -3.7500    3.8971    0.0000 N   0  0  0  0  0  0  0  0  0  0  0  0
   -3.0000    5.1962    0.0000 C   0  0  0  0  0  0  0  0  0  0  0  0
   -3.7500    6.4952    0.0000 C   0  0  0  0  0  0  0  0  0  0  0  0
   -3.0000    7.7942    0.0000 C   0  0  0  0  0  0  0  0  0  0  0  0
   -3.7500    9.0933    0.0000 C   0  0  0  0  0  0  0  0  0  0  0  0
   -5.2500    9.0933    0.0000 C   0  0  0  0  0  0  0  0  0  0  0  0
   -6.0000    7.7942    0.0000 C   0  0  0  0  0  0  0  0  0  0  0  0
   -5.2500    6.4952    0.0000 N   0  0  0  0  0  0  0  0  0  0  0  0
   -3.7500    1.2990    0.0000 N   0  0  0  0  0  4  0  0  0  0  0  0
   -3.0000    0.0000    0.0000 C   0  0  0  0  0  0  0  0  0  0  0  0
   -3.7500   -1.2990    0.0000 C   0  0  0  0  0  0  0  0  0  0  0  0
   -5.2500   -1.2990    0.0000 C   0  0  0  0  0  0  0  0  0  0  0  0
   -6.0000   -2.5981    0.0000 C   0  0  0  0  0  0  0  0  0  0  0  0
   -5.2500   -3.8971    0.0000 C   0  0  0  0  0  0  0  0  0  0  0  0
   -6.0000   -5.1962    0.0000 S   0  0  0  0  0  0  0  0  0  0  0  0
   -7.5000   -5.1962    0.0000 C   0  0  0  0  0  0  0  0  0  0  0  0
   -3.7500   -3.8971    0.0000 C   0  0  0  0  0  0  0  0  0  0  0  0
   -3.0000   -2.5981    0.0000 C   0  0  0  0  0  0  0  0  0  0  0  0
    0.7500    1.2990    0.0000 N   0  0  0  0  0  0  0  0  0  0  0  0
  1  2  2  0
  2  3  1  0
  3  4  2  0
  4  5  1  0
  4  6  1  0
  6  7  1  0
  7  8  2  0
  8  9  1  0
  9 10  1  0
 10 11  1  0
 11 12  1  0
 12 13  2  0
 13 14  1  0
 14 15  2  0
 15 16  1  0
 16 17  2  0
  9 18  2  0
 18 19  1  0
 19 20  1  1
 20 21  2  0
 21 22  1  0
 22 23  2  0
 23 24  1  0
 24 25  1  0
 23 26  1  0
 26 27  2  0
  7 28  1  0
 28  2  1  0
 19  6  1  0
 27 20  1  0
 17 12  1  0
M  CHG  2   5  -1  18   1
M  END
>  <Compound_ID>  (655) 
C20374700

>  <Active>  (655) 
0.0

>  <Smiles>  (655) 
C=C1C=C([O-])N2C(=NC(NCc3ccccn3)=[NH+][C@@H]2c2ccc(SC)cc2)N1

>  <canonical_smi>  (655) 
C=C1C=C([O-])N2C(=NC(NCc3ccccn3)=[NH+][C@@H]2c2ccc(SC)cc2)N1

>  <Set>  (655) 
G2 inactive

>  <Set_type>  (655) 
Train

>  <MW>  (655) 
392.49

>  <HBD>  (655) 
3

>  <HBA>  (655) 
6

>  <NRB>  (655) 
4

>  <NR>  (655) 
4

>  <NAR>  (655) 
2

>  <PSA>  (655) 
89.58

>  <Standard Type>  (655) 
nan

>  <Standard Relation>  (655) 
nan

>  <Standard Units>  (655) 
nan

>  <Standard Value>  (655) 
nan

>  <Assay ChEMBL ID>  (655) 
nan

>  <Assay Description>  (655) 
nan

>  <BAO Label>  (655) 
nan

$$$$

     RDKit          2D

 24 25  0  0  0  0  0  0  0  0999 V2000
    3.7500   -1.2990    0.0000 C   0  0  0  0  0  0  0  0  0  0  0  0
    3.0000    0.0000    0.0000 S   0  0  0  0  0  0  0  0  0  0  0  0
    1.5000    0.0000    0.0000 C   0  0  0  0  0  0  0  0  0  0  0  0
    0.7500   -1.2990    0.0000 C   0  0  0  0  0  0  0  0  0  0  0  0
   -0.7500   -1.2990    0.0000 N   0  0  0  0  0  4  0  0  0  0  0  0
   -1.5000   -2.5981    0.0000 C   0  0  0  0  0  0  0  0  0  0  0  0
   -0.7500   -3.8971    0.0000 C   0  0  0  0  0  0  0  0  0  0  0  0
   -1.5000   -5.1962    0.0000 N   0  0  0  0  0  0  0  0  0  0  0  0
   -0.7500   -6.4952    0.0000 O   0  0  0  0  0  0  0  0  0  0  0  0
   -3.0000   -2.5981    0.0000 C   0  0  0  0  0  0  0  0  0  0  0  0
   -3.7500   -1.2990    0.0000 C   0  0  0  0  0  0  0  0  0  0  0  0
   -5.2500   -1.2990    0.0000 C   0  0  0  0  0  0  0  0  0  0  0  0
   -6.0000   -2.5981    0.0000 C   0  0  0  0  0  0  0  0  0  0  0  0
   -7.5000   -2.5981    0.0000 S   0  0  0  0  0  0  0  0  0  0  0  0
   -7.5000   -4.0981    0.0000 O   0  0  0  0  0  0  0  0  0  0  0  0
   -7.5000   -1.0981    0.0000 O   0  0  0  0  0  0  0  0  0  0  0  0
   -9.0000   -2.5981    0.0000 C   0  0  0  0  0  0  0  0  0  0  0  0
   -9.7500   -3.8971    0.0000 C   0  0  0  0  0  0  0  0  0  0  0  0
   -9.7500   -1.2990    0.0000 C   0  0  0  0  0  0  0  0  0  0  0  0
   -5.2500   -3.8971    0.0000 C   0  0  0  0  0  0  0  0  0  0  0  0
   -3.7500   -3.8971    0.0000 C   0  0  0  0  0  0  0  0  0  0  0  0
   -1.5000    0.0000    0.0000 C   0  0  0  0  0  0  0  0  0  0  0  0
   -0.7500    1.2990    0.0000 C   0  0  0  0  0  0  0  0  0  0  0  0
    0.7500    1.2990    0.0000 N   0  0  0  0  0  0  0  0  0  0  0  0
  1  2  1  0
  3  2  1  6
  3  4  1  0
  4  5  1  0
  5  6  1  0
  6  7  1  1
  7  8  1  0
  8  9  1  0
  6 10  1  0
 10 11  2  0
 11 12  1  0
 12 13  2  0
 13 14  1  0
 14 15  2  0
 14 16  2  0
 14 17  1  0
 17 18  1  0
 17 19  1  0
 13 20  1  0
 20 21  2  0
  5 22  1  0
 22 23  1  0
 23 24  1  0
 24  3  1  0
 21 10  1  0
M  CHG  1   5   1
M  END
>  <Compound_ID>  (656) 
C39534490

>  <Active>  (656) 
0.0

>  <Smiles>  (656) 
CS[C@@H]1C[NH+]([C@@H](CNO)c2ccc(S(=O)(=O)C(C)C)cc2)CCN1

>  <canonical_smi>  (656) 
CS[C@@H]1C[NH+]([C@@H](CNO)c2ccc(S(=O)(=O)C(C)C)cc2)CCN1

>  <Set>  (656) 
G2 inactive

>  <Set_type>  (656) 
Train

>  <MW>  (656) 
374.55

>  <HBD>  (656) 
4

>  <HBA>  (656) 
6

>  <NRB>  (656) 
7

>  <NR>  (656) 
2

>  <NAR>  (656) 
1

>  <PSA>  (656) 
82.87

>  <Standard Type>  (656) 
nan

>  <Standard Relation>  (656) 
nan

>  <Standard Units>  (656) 
nan

>  <Standard Value>  (656) 
nan

>  <Assay ChEMBL ID>  (656) 
nan

>  <Assay Description>  (656) 
nan

>  <BAO Label>  (656) 
nan

$$$$

     RDKit          2D

 25 27  0  0  0  0  0  0  0  0999 V2000
   10.5909    9.1136    0.0000 N   0  0  0  0  0  0  0  0  0  0  0  0
    9.6556    7.9408    0.0000 C   0  0  0  0  0  0  0  0  0  0  0  0
   10.2037    6.5445    0.0000 N   0  0  0  0  0  0  0  0  0  0  0  0
    9.2684    5.3718    0.0000 C   0  0  0  0  0  0  0  0  0  0  0  0
    9.8164    3.9754    0.0000 N   0  0  0  0  0  0  0  0  0  0  0  0
    7.7852    5.5953    0.0000 N   0  0  0  0  0  0  0  0  0  0  0  0
    7.2372    6.9916    0.0000 C   0  0  0  0  0  0  0  0  0  0  0  0
    5.7539    7.2152    0.0000 C   0  0  0  0  0  0  0  0  0  0  0  0
    4.8187    6.0424    0.0000 N   0  0  0  0  0  4  0  0  0  0  0  0
    3.3354    6.2660    0.0000 C   0  0  0  0  0  0  0  0  0  0  0  0
    2.4002    5.0933    0.0000 C   0  0  0  0  0  0  0  0  0  0  0  0
    2.9482    3.6969    0.0000 N   0  0  0  0  0  0  0  0  0  0  0  0
    2.0130    2.5242    0.0000 S   0  0  0  0  0  0  0  0  0  0  0  0
    3.1857    1.5890    0.0000 O   0  0  0  0  0  0  0  0  0  0  0  0
    0.8402    3.4594    0.0000 O   0  0  0  0  0  0  0  0  0  0  0  0
    1.0777    1.3515    0.0000 N   0  0  0  0  0  0  0  0  0  0  0  0
    1.7286    0.0000    0.0000 C   0  0  0  0  0  0  0  0  0  0  0  0
    1.0777   -1.3515    0.0000 C   0  0  0  0  0  0  0  0  0  0  0  0
   -0.3846   -1.6852    0.0000 C   0  0  0  0  0  0  0  0  0  0  0  0
   -1.5574   -0.7500    0.0000 C   0  0  0  0  0  0  0  0  0  0  0  0
   -1.5574    0.7500    0.0000 C   0  0  0  0  0  0  0  0  0  0  0  0
   -0.3846    1.6852    0.0000 C   0  0  0  0  0  0  0  0  0  0  0  0
    4.4315    3.4734    0.0000 C   0  0  0  0  0  0  0  0  0  0  0  0
    5.3667    4.6461    0.0000 C   0  0  0  0  0  0  0  0  0  0  0  0
    8.1724    8.1644    0.0000 N   0  0  0  0  0  0  0  0  0  0  0  0
  1  2  1  0
  2  3  2  0
  3  4  1  0
  4  5  1  0
  4  6  2  0
  6  7  1  0
  7  8  1  0
  8  9  1  0
  9 10  1  0
 10 11  1  0
 11 12  1  0
 12 13  1  0
 13 14  2  0
 13 15  2  0
 13 16  1  0
 16 17  1  0
 17 18  1  0
 18 19  1  0
 19 20  1  0
 20 21  1  0
 21 22  1  0
 12 23  1  0
 23 24  1  0
  7 25  2  0
 25  2  1  0
 24  9  1  0
 22 16  1  0
M  CHG  1   9   1
M  END
>  <Compound_ID>  (657) 
C10309584

>  <Active>  (657) 
0.0

>  <Smiles>  (657) 
Nc1nc(N)nc(C[NH+]2CCN(S(=O)(=O)N3CCCCCC3)CC2)n1

>  <canonical_smi>  (657) 
Nc1nc(N)nc(C[NH+]2CCN(S(=O)(=O)N3CCCCCC3)CC2)n1

>  <Set>  (657) 
G2 inactive

>  <Set_type>  (657) 
Train

>  <MW>  (657) 
371.49

>  <HBD>  (657) 
3

>  <HBA>  (657) 
7

>  <NRB>  (657) 
4

>  <NR>  (657) 
3

>  <NAR>  (657) 
1

>  <PSA>  (657) 
135.77

>  <Standard Type>  (657) 
nan

>  <Standard Relation>  (657) 
nan

>  <Standard Units>  (657) 
nan

>  <Standard Value>  (657) 
nan

>  <Assay ChEMBL ID>  (657) 
nan

>  <Assay Description>  (657) 
nan

>  <BAO Label>  (657) 
nan

$$$$

     RDKit          2D

 30 33  0  0  0  0  0  0  0  0999 V2000
   -6.6213  -10.6178    0.0000 C   0  0  0  0  0  0  0  0  0  0  0  0
   -5.9705   -9.2664    0.0000 N   0  0  0  0  0  4  0  0  0  0  0  0
   -4.4747   -9.1543    0.0000 C   0  0  0  0  0  0  0  0  0  0  0  0
   -3.8239   -7.8028    0.0000 C   0  0  0  0  0  0  0  0  0  0  0  0
   -4.6689   -6.5635    0.0000 O   0  0  0  0  0  0  0  0  0  0  0  0
   -2.3281   -7.6907    0.0000 N   0  0  0  0  0  0  0  0  0  0  0  0
   -1.6772   -6.3393    0.0000 C   0  0  0  0  0  0  0  0  0  0  0  0
   -0.2013   -6.0714    0.0000 C   0  0  0  0  0  0  0  0  0  0  0  0
   -0.0000   -4.5850    0.0000 C   0  0  0  0  0  0  0  0  0  0  0  0
    1.3515   -3.9342    0.0000 C   0  0  0  0  0  0  0  0  0  0  0  0
    2.5242   -4.8694    0.0000 O   0  0  0  0  0  0  0  0  0  0  0  0
    1.6852   -2.4718    0.0000 N   0  0  0  0  0  0  0  0  0  0  0  0
    0.7500   -1.2990    0.0000 C   0  0  0  0  0  0  0  0  0  0  0  0
    1.5000    0.0000    0.0000 C   0  0  0  0  0  0  0  0  0  0  0  0
    0.7500    1.2990    0.0000 C   0  0  0  0  0  0  0  0  0  0  0  0
   -0.7500    1.2990    0.0000 C   0  0  0  0  0  0  0  0  0  0  0  0
   -1.5000    2.5981    0.0000 C   0  0  0  0  0  0  0  0  0  0  0  0
   -0.7500    3.8971    0.0000 C   0  0  0  0  0  0  0  0  0  0  0  0
   -1.5000    5.1962    0.0000 C   0  0  0  0  0  0  0  0  0  0  0  0
   -3.0000    5.1962    0.0000 C   0  0  0  0  0  0  0  0  0  0  0  0
   -3.7500    3.8971    0.0000 C   0  0  0  0  0  0  0  0  0  0  0  0
   -5.2500    3.8971    0.0000 C   0  0  0  0  0  0  0  0  0  0  0  0
   -3.0000    2.5981    0.0000 C   0  0  0  0  0  0  0  0  0  0  0  0
   -3.7500    1.2990    0.0000 C   0  0  0  0  0  0  0  0  0  0  0  0
   -1.5000    0.0000    0.0000 C   0  0  0  0  0  0  0  0  0  0  0  0
   -0.7500   -1.2990    0.0000 C   0  0  0  0  0  0  0  0  0  0  0  0
   -1.6852   -2.4718    0.0000 C   0  0  0  0  0  0  0  0  0  0  0  0
   -3.1476   -2.1380    0.0000 O   0  0  0  0  0  0  0  0  0  0  0  0
   -1.3515   -3.9342    0.0000 N   0  0  0  0  0  0  0  0  0  0  0  0
   -2.3880   -5.0184    0.0000 C   0  0  0  0  0  0  0  0  0  0  0  0
  1  2  1  0
  2  3  1  0
  3  4  1  0
  4  5  2  0
  4  6  1  0
  7  6  1  6
  7  8  1  0
  9  8  1  6
  9 10  1  0
 10 11  2  0
 10 12  1  0
 12 13  1  0
 13 14  2  0
 14 15  1  0
 15 16  2  0
 16 17  1  0
 17 18  2  0
 18 19  1  0
 19 20  2  0
 20 21  1  0
 21 22  1  0
 21 23  2  0
 23 24  1  0
 16 25  1  0
 25 26  2  0
 26 27  1  0
 27 28  2  0
 27 29  1  0
 29 30  1  0
 30  7  1  0
 29  9  1  0
 26 13  1  0
 23 17  1  0
M  CHG  1   2   1
M  END
>  <Compound_ID>  (658) 
C15708905

>  <Active>  (658) 
0.0

>  <Smiles>  (658) 
C[NH2+]CC(=O)N[C@H]1C[C@H]2C(=O)Nc3ccc(-c4cccc(C)c4C)cc3C(=O)N2C1

>  <canonical_smi>  (658) 
C[NH2+]CC(=O)N[C@H]1C[C@H]2C(=O)Nc3ccc(-c4cccc(C)c4C)cc3C(=O)N2C1

>  <Set>  (658) 
G2 inactive

>  <Set_type>  (658) 
Train

>  <MW>  (658) 
407.49

>  <HBD>  (658) 
3

>  <HBA>  (658) 
3

>  <NRB>  (658) 
4

>  <NR>  (658) 
4

>  <NAR>  (658) 
2

>  <PSA>  (658) 
95.12

>  <Standard Type>  (658) 
nan

>  <Standard Relation>  (658) 
nan

>  <Standard Units>  (658) 
nan

>  <Standard Value>  (658) 
nan

>  <Assay ChEMBL ID>  (658) 
nan

>  <Assay Description>  (658) 
nan

>  <BAO Label>  (658) 
nan

$$$$

     RDKit          2D

 30 33  0  0  0  0  0  0  0  0999 V2000
  -11.2540   -5.9314    0.0000 C   0  0  0  0  0  0  0  0  0  0  0  0
   -9.7540   -5.9314    0.0000 O   0  0  0  0  0  0  0  0  0  0  0  0
   -9.0040   -4.6324    0.0000 C   0  0  0  0  0  0  0  0  0  0  0  0
   -9.7540   -3.3333    0.0000 O   0  0  0  0  0  0  0  0  0  0  0  0
   -7.5040   -4.6324    0.0000 C   0  0  0  0  0  0  0  0  0  0  0  0
   -6.6223   -5.8459    0.0000 C   0  0  0  0  0  0  0  0  0  0  0  0
   -5.1957   -5.3824    0.0000 C   0  0  0  0  0  0  0  0  0  0  0  0
   -5.1957   -3.8824    0.0000 S   0  0  0  0  0  0  0  0  0  0  0  0
   -6.6223   -3.4188    0.0000 C   0  0  0  0  0  0  0  0  0  0  0  0
   -7.0858   -1.9923    0.0000 N   0  0  0  0  0  0  0  0  0  0  0  0
   -6.0821   -0.8775    0.0000 C   0  0  0  0  0  0  0  0  0  0  0  0
   -4.6149   -1.1894    0.0000 O   0  0  0  0  0  0  0  0  0  0  0  0
   -6.5456    0.5490    0.0000 C   0  0  0  0  0  0  0  0  0  0  0  0
   -7.9722    1.0126    0.0000 C   0  0  0  0  0  0  0  0  0  0  0  0
   -7.9722    2.5126    0.0000 C   0  0  0  0  0  0  0  0  0  0  0  0
   -6.5456    2.9761    0.0000 S   0  0  0  0  0  0  0  0  0  0  0  0
   -5.6640    1.7626    0.0000 C   0  0  0  0  0  0  0  0  0  0  0  0
   -4.1640    1.7626    0.0000 N   0  0  0  0  0  0  0  0  0  0  0  0
   -3.4140    3.0616    0.0000 C   0  0  0  0  0  0  0  0  0  0  0  0
   -4.1640    4.3606    0.0000 O   0  0  0  0  0  0  0  0  0  0  0  0
   -1.9140    3.0616    0.0000 C   0  0  0  0  0  0  0  0  0  0  0  0
   -1.0323    1.8481    0.0000 C   0  0  0  0  0  0  0  0  0  0  0  0
   -1.4958    0.4215    0.0000 C   0  0  0  0  0  0  0  0  0  0  0  0
   -2.9630    0.1096    0.0000 O   0  0  0  0  0  0  0  0  0  0  0  0
   -0.4921   -0.6932    0.0000 O   0  0  0  0  0  1  0  0  0  0  0  0
    0.3943    2.3116    0.0000 C   0  0  0  0  0  0  0  0  0  0  0  0
    1.2760    3.5251    0.0000 C   0  0  0  0  0  0  0  0  0  0  0  0
    0.3943    4.7387    0.0000 C   0  0  0  0  0  0  0  0  0  0  0  0
   -1.0323    4.2751    0.0000 C   0  0  0  0  0  0  0  0  0  0  0  0
   -1.0323    2.7751    0.0000 O   0  0  0  0  0  0  0  0  0  0  0  0
  1  2  1  0
  2  3  1  0
  3  4  2  0
  3  5  1  0
  5  6  1  0
  6  7  2  0
  7  8  1  0
  8  9  1  0
  9 10  1  0
 10 11  1  0
 11 12  2  0
 11 13  1  0
 13 14  1  0
 14 15  2  0
 15 16  1  0
 16 17  1  0
 17 18  1  0
 18 19  1  0
 19 20  2  0
 21 19  1  6
 21 22  1  0
 22 23  1  6
 23 24  2  0
 23 25  1  0
 22 26  1  0
 26 27  1  6
 27 28  1  0
 29 28  1  6
 29 30  1  0
  9  5  2  0
 17 13  2  0
 29 21  1  0
 30 26  1  0
M  CHG  1  25  -1
M  END
>  <Compound_ID>  (659) 
C20220960

>  <Active>  (659) 
0.0

>  <Smiles>  (659) 
COC(=O)c1ccsc1NC(=O)c1ccsc1NC(=O)[C@H]1[C@@H](C(=O)[O-])[C@H]2CC[C@@H]1O2

>  <canonical_smi>  (659) 
COC(=O)c1ccsc1NC(=O)c1ccsc1NC(=O)[C@@H]1[C@@H]2CC[C@@H](O2)[C@@H]1C(=O)[O-]

>  <Set>  (659) 
G2 inactive

>  <Set_type>  (659) 
Train

>  <MW>  (659) 
449.49

>  <HBD>  (659) 
2

>  <HBA>  (659) 
7

>  <NRB>  (659) 
6

>  <NR>  (659) 
4

>  <NAR>  (659) 
2

>  <PSA>  (659) 
133.86

>  <Standard Type>  (659) 
nan

>  <Standard Relation>  (659) 
nan

>  <Standard Units>  (659) 
nan

>  <Standard Value>  (659) 
nan

>  <Assay ChEMBL ID>  (659) 
nan

>  <Assay Description>  (659) 
nan

>  <BAO Label>  (659) 
nan

$$$$

     RDKit          2D

 19 21  0  0  0  0  0  0  0  0999 V2000
    3.0000    0.0000    0.0000 C   0  0  0  0  0  0  0  0  0  0  0  0
    1.5000    0.0000    0.0000 C   0  0  0  0  0  0  0  0  0  0  0  0
    0.7500   -1.2990    0.0000 C   0  0  0  0  0  0  0  0  0  0  0  0
   -0.7500   -1.2990    0.0000 C   0  0  0  0  0  0  0  0  0  0  0  0
   -1.5000    0.0000    0.0000 C   0  0  0  0  0  0  0  0  0  0  0  0
   -3.0000    0.0000    0.0000 O   0  0  0  0  0  0  0  0  0  0  0  0
   -0.7500    1.2990    0.0000 C   0  0  0  0  0  0  0  0  0  0  0  0
    0.7500    1.2990    0.0000 C   0  0  0  0  0  0  0  0  0  0  0  0
    1.2135    2.7256    0.0000 C   0  0  0  0  0  0  0  0  0  0  0  0
    2.6401    3.1891    0.0000 C   0  0  0  0  0  0  0  0  0  0  0  0
    0.0000    3.6073    0.0000 C   0  0  0  0  0  0  0  0  0  0  0  0
   -1.2135    2.7256    0.0000 C   0  0  0  0  0  0  0  0  0  0  0  0
   -2.6401    3.1891    0.0000 N   0  0  0  0  0  0  0  0  0  0  0  0
   -2.9520    4.6564    0.0000 C   0  0  0  0  0  0  0  0  0  0  0  0
   -4.3223    5.2665    0.0000 C   0  0  0  0  0  0  0  0  0  0  0  0
   -4.1655    6.7583    0.0000 C   0  0  0  0  0  0  0  0  0  0  0  0
   -2.6983    7.0701    0.0000 N   0  0  0  0  0  0  0  0  0  0  0  0
   -2.0882    8.4404    0.0000 C   0  0  0  0  0  0  0  0  0  0  0  0
   -1.9483    5.7711    0.0000 N   0  0  0  0  0  0  0  0  0  0  0  0
  1  2  1  0
  2  3  2  0
  3  4  1  0
  4  5  2  0
  5  6  1  0
  5  7  1  0
  7  8  2  0
  8  9  1  0
  9 10  1  6
  9 11  1  0
 11 12  1  0
 12 13  1  1
 13 14  1  0
 14 15  1  0
 15 16  2  0
 16 17  1  0
 17 18  1  0
 17 19  1  0
  8  2  1  0
 19 14  2  0
 12  7  1  0
M  END
>  <Compound_ID>  (660) 
C37561014

>  <Active>  (660) 
0.0

>  <Smiles>  (660) 
Cc1ccc(O)c2c1[C@@H](C)C[C@@H]2Nc1ccn(C)n1

>  <canonical_smi>  (660) 
Cc1ccc(O)c2c1[C@@H](C)C[C@@H]2Nc1ccn(C)n1

>  <Set>  (660) 
G2 inactive

>  <Set_type>  (660) 
Train

>  <MW>  (660) 
257.34

>  <HBD>  (660) 
2

>  <HBA>  (660) 
3

>  <NRB>  (660) 
2

>  <NR>  (660) 
3

>  <NAR>  (660) 
2

>  <PSA>  (660) 
50.08

>  <Standard Type>  (660) 
nan

>  <Standard Relation>  (660) 
nan

>  <Standard Units>  (660) 
nan

>  <Standard Value>  (660) 
nan

>  <Assay ChEMBL ID>  (660) 
nan

>  <Assay Description>  (660) 
nan

>  <BAO Label>  (660) 
nan

$$$$

     RDKit          2D

 27 29  0  0  0  0  0  0  0  0999 V2000
  -10.8856    4.3779    0.0000 C   0  0  0  0  0  0  0  0  0  0  0  0
   -9.7709    3.3742    0.0000 C   0  0  0  0  0  0  0  0  0  0  0  0
   -8.6562    2.3705    0.0000 C   0  0  0  0  0  0  0  0  0  0  0  0
   -7.2296    2.8340    0.0000 N   0  0  0  0  0  0  0  0  0  0  0  0
   -6.1149    1.8303    0.0000 C   0  0  0  0  0  0  0  0  0  0  0  0
   -6.4268    0.3631    0.0000 O   0  0  0  0  0  0  0  0  0  0  0  0
   -4.6883    2.2939    0.0000 C   0  0  0  0  0  0  0  0  0  0  0  0
   -3.5736    1.2902    0.0000 C   0  0  0  0  0  0  0  0  0  0  0  0
   -2.1470    1.7537    0.0000 C   0  0  0  0  0  0  0  0  0  0  0  0
   -1.8351    3.2209    0.0000 C   0  0  0  0  0  0  0  0  0  0  0  0
   -0.4086    3.6844    0.0000 N   0  0  0  0  0  0  0  0  0  0  0  0
    0.7062    2.6807    0.0000 C   0  0  0  0  0  0  0  0  0  0  0  0
    2.1328    3.1443    0.0000 O   0  0  0  0  0  0  0  0  0  0  0  0
    0.3943    1.2135    0.0000 C   0  0  0  0  0  0  0  0  0  0  0  0
    1.2760    0.0000    0.0000 C   0  0  0  0  0  0  0  0  0  0  0  0
    0.3943   -1.2135    0.0000 C   0  0  0  0  0  0  0  0  0  0  0  0
    0.8578   -2.6401    0.0000 N   0  0  0  0  0  0  0  0  0  0  0  0
   -0.1459   -3.7548    0.0000 C   0  0  0  0  0  0  0  0  0  0  0  0
    0.3177   -5.1814    0.0000 C   0  0  0  0  0  0  0  0  0  0  0  0
    1.7442   -5.6449    0.0000 C   0  0  0  0  0  0  0  0  0  0  0  0
    1.7442   -7.1449    0.0000 C   0  0  0  0  0  0  0  0  0  0  0  0
    0.3177   -7.6085    0.0000 C   0  0  0  0  0  0  0  0  0  0  0  0
   -0.1459   -9.0350    0.0000 C   0  0  0  0  0  0  0  0  0  0  0  0
   -1.6131   -9.3469    0.0000 O   0  0  0  0  0  0  0  0  0  0  0  0
   -0.5640   -6.3949    0.0000 O   0  0  0  0  0  0  0  0  0  0  0  0
   -1.0323   -0.7500    0.0000 C   0  0  0  0  0  0  0  0  0  0  0  0
   -1.0323    0.7500    0.0000 N   0  0  0  0  0  4  0  0  0  0  0  0
  1  2  3  0
  2  3  1  0
  3  4  1  0
  4  5  1  0
  5  6  2  0
  5  7  1  0
  7  8  1  0
  9  8  1  6
  9 10  1  0
 10 11  1  0
 11 12  1  0
 12 13  2  0
 12 14  1  0
 14 15  1  6
 15 16  1  0
 16 17  1  6
 17 18  1  0
 18 19  1  0
 19 20  2  0
 20 21  1  0
 21 22  2  0
 22 23  1  0
 23 24  1  0
 22 25  1  0
 16 26  1  0
 26 27  1  0
 27  9  1  0
 27 14  1  0
 25 19  1  0
M  CHG  1  27   1
M  END
>  <Compound_ID>  (661) 
C22936916

>  <Active>  (661) 
0.0

>  <Smiles>  (661) 
C#CCNC(=O)CC[C@@H]1CNC(=O)[C@@H]2C[C@H](NCc3ccc(CO)o3)C[NH+]12

>  <canonical_smi>  (661) 
C#CCNC(=O)CC[C@@H]1CNC(=O)[C@@H]2C[C@H](NCc3ccc(CO)o3)C[NH+]21

>  <Set>  (661) 
G2 inactive

>  <Set_type>  (661) 
Train

>  <MW>  (661) 
375.45

>  <HBD>  (661) 
5

>  <HBA>  (661) 
5

>  <NRB>  (661) 
8

>  <NR>  (661) 
3

>  <NAR>  (661) 
1

>  <PSA>  (661) 
108.04

>  <Standard Type>  (661) 
nan

>  <Standard Relation>  (661) 
nan

>  <Standard Units>  (661) 
nan

>  <Standard Value>  (661) 
nan

>  <Assay ChEMBL ID>  (661) 
nan

>  <Assay Description>  (661) 
nan

>  <BAO Label>  (661) 
nan

$$$$

     RDKit          2D

 29 30  0  0  0  0  0  0  0  0999 V2000
    2.1328    3.1443    0.0000 C   0  0  0  0  0  0  0  0  0  0  0  0
    0.7062    2.6807    0.0000 C   0  0  0  0  0  0  0  0  0  0  0  0
   -0.4086    3.6844    0.0000 C   0  0  0  0  0  0  0  0  0  0  0  0
   -0.0967    5.1517    0.0000 C   0  0  0  0  0  0  0  0  0  0  0  0
   -1.8351    3.2209    0.0000 C   0  0  0  0  0  0  0  0  0  0  0  0
   -2.9499    4.2246    0.0000 S   0  0  0  0  0  0  0  0  0  0  0  0
   -1.9462    5.3393    0.0000 O   0  0  0  0  0  0  0  0  0  0  0  0
   -3.9535    3.1099    0.0000 O   0  0  0  0  0  0  0  0  0  0  0  0
   -4.0646    5.2283    0.0000 N   0  0  0  0  0  0  0  0  0  0  0  0
   -5.4912    4.7648    0.0000 N   0  0  0  0  0  4  0  0  0  0  0  0
   -6.6059    5.7685    0.0000 C   0  0  0  0  0  0  0  0  0  0  0  0
   -8.0325    5.3050    0.0000 N   0  0  0  0  0  0  0  0  0  0  0  0
   -9.1472    6.3086    0.0000 C   0  0  0  0  0  0  0  0  0  0  0  0
  -10.5738    5.8451    0.0000 C   0  0  0  0  0  0  0  0  0  0  0  0
  -11.6885    6.8488    0.0000 C   0  0  0  0  0  0  0  0  0  0  0  0
  -13.1151    6.3853    0.0000 C   0  0  0  0  0  0  0  0  0  0  0  0
  -13.4269    4.9181    0.0000 N   0  0  0  0  0  4  0  0  0  0  0  0
  -14.2298    7.3890    0.0000 C   0  0  0  0  0  0  0  0  0  0  0  0
  -13.9179    8.8562    0.0000 O   0  0  0  0  0  0  0  0  0  0  0  0
  -15.6564    6.9255    0.0000 O   0  0  0  0  0  1  0  0  0  0  0  0
   -2.1470    1.7537    0.0000 C   0  0  0  0  0  0  0  0  0  0  0  0
   -3.5736    1.2902    0.0000 C   0  0  0  0  0  0  0  0  0  0  0  0
   -1.0323    0.7500    0.0000 C   0  0  0  0  0  0  0  0  0  0  0  0
    0.3943    1.2135    0.0000 C   0  0  0  0  0  0  0  0  0  0  0  0
    1.2760    0.0000    0.0000 O   0  0  0  0  0  0  0  0  0  0  0  0
    0.3943   -1.2135    0.0000 C   0  0  0  0  0  0  0  0  0  0  0  0
    1.6933   -1.9635    0.0000 C   0  0  0  0  0  0  0  0  0  0  0  0
   -0.2158   -2.5838    0.0000 C   0  0  0  0  0  0  0  0  0  0  0  0
   -1.0323   -0.7500    0.0000 C   0  0  0  0  0  0  0  0  0  0  0  0
  1  2  1  0
  2  3  2  0
  3  4  1  0
  3  5  1  0
  5  6  1  0
  6  7  2  0
  6  8  2  0
  6  9  1  0
  9 10  1  0
 10 11  2  0
 11 12  1  0
 12 13  1  0
 13 14  1  0
 14 15  1  0
 15 16  1  0
 16 17  1  1
 16 18  1  0
 18 19  2  0
 18 20  1  0
  5 21  2  0
 21 22  1  0
 21 23  1  0
 23 24  2  0
 24 25  1  0
 25 26  1  0
 26 27  1  0
 26 28  1  0
 26 29  1  0
 24  2  1  0
 29 23  1  0
M  CHG  3  10   1  17   1  20  -1
M  END
>  <Compound_ID>  (662) 
C55161959

>  <Active>  (662) 
0.0

>  <Smiles>  (662) 
Cc1c(C)c(S(=O)(=O)N/[NH+]=C/NCCC[C@@H]([NH3+])C(=O)[O-])c(C)c2c1OC(C)(C)C2

>  <canonical_smi>  (662) 
Cc1c(C)c(S(=O)(=O)N/[NH+]=C/NCCC[C@@H]([NH3+])C(=O)[O-])c(C)c2c1OC(C)(C)C2

>  <Set>  (662) 
G2 inactive

>  <Set_type>  (662) 
Train

>  <MW>  (662) 
427.55

>  <HBD>  (662) 
4

>  <HBA>  (662) 
6

>  <NRB>  (662) 
9

>  <NR>  (662) 
2

>  <NAR>  (662) 
1

>  <PSA>  (662) 
149.17

>  <Standard Type>  (662) 
nan

>  <Standard Relation>  (662) 
nan

>  <Standard Units>  (662) 
nan

>  <Standard Value>  (662) 
nan

>  <Assay ChEMBL ID>  (662) 
nan

>  <Assay Description>  (662) 
nan

>  <BAO Label>  (662) 
nan

$$$$

     RDKit          2D

 28 31  0  0  0  0  0  0  0  0999 V2000
   -7.4546   -9.2628    0.0000 N   0  0  0  0  0  0  0  0  0  0  0  0
   -7.9182   -7.8363    0.0000 C   0  0  0  0  0  0  0  0  0  0  0  0
   -8.3817   -6.4097    0.0000 C   0  0  0  0  0  0  0  0  0  0  0  0
   -7.5000   -5.1962    0.0000 C   0  0  0  0  0  0  0  0  0  0  0  0
   -6.0000   -5.1962    0.0000 C   0  0  0  0  0  0  0  0  0  0  0  0
   -5.2500   -3.8971    0.0000 C   0  0  0  0  0  0  0  0  0  0  0  0
   -3.7500   -3.8971    0.0000 C   0  0  0  0  0  0  0  0  0  0  0  0
   -3.0000   -2.5981    0.0000 N   0  0  0  0  0  0  0  0  0  0  0  0
   -1.5000   -2.5981    0.0000 C   0  0  0  0  0  0  0  0  0  0  0  0
   -0.7500   -3.8971    0.0000 N   0  0  0  0  0  0  0  0  0  0  0  0
    0.7500   -3.8971    0.0000 C   0  0  0  0  0  0  0  0  0  0  0  0
    1.5000   -5.1962    0.0000 C   0  0  0  0  0  0  0  0  0  0  0  0
    0.7500   -6.4952    0.0000 C   0  0  0  0  0  0  0  0  0  0  0  0
    1.5000   -7.7942    0.0000 C   0  0  0  0  0  0  0  0  0  0  0  0
    3.0000   -7.7942    0.0000 N   0  0  0  0  0  0  0  0  0  0  0  0
    3.7500   -6.4952    0.0000 C   0  0  0  0  0  0  0  0  0  0  0  0
    3.0000   -5.1962    0.0000 C   0  0  0  0  0  0  0  0  0  0  0  0
    1.5000   -2.5981    0.0000 N   0  0  0  0  0  0  0  0  0  0  0  0
    0.7500   -1.2990    0.0000 C   0  0  0  0  0  0  0  0  0  0  0  0
    1.5000    0.0000    0.0000 C   0  0  0  0  0  0  0  0  0  0  0  0
    0.7500    1.2990    0.0000 C   0  0  0  0  0  0  0  0  0  0  0  0
   -0.7500    1.2990    0.0000 C   0  0  0  0  0  0  0  0  0  0  0  0
   -1.5000    0.0000    0.0000 C   0  0  0  0  0  0  0  0  0  0  0  0
   -0.7500   -1.2990    0.0000 C   0  0  0  0  0  0  0  0  0  0  0  0
   -8.3817   -3.9826    0.0000 N   0  0  0  0  0  0  0  0  0  0  0  0
   -9.8083   -4.4462    0.0000 N   0  0  0  0  0  0  0  0  0  0  0  0
   -9.8083   -5.9462    0.0000 C   0  0  0  0  0  0  0  0  0  0  0  0
  -11.0218   -6.8278    0.0000 N   0  0  0  0  0  0  0  0  0  0  0  0
  1  2  3  0
  2  3  1  0
  3  4  1  0
  4  5  1  0
  5  6  1  0
  6  7  1  0
  7  8  1  0
  8  9  1  0
  9 10  2  0
 10 11  1  0
 11 12  1  0
 12 13  2  0
 13 14  1  0
 14 15  2  0
 15 16  1  0
 16 17  2  0
 11 18  2  0
 18 19  1  0
 19 20  2  0
 20 21  1  0
 21 22  2  0
 22 23  1  0
 23 24  2  0
  4 25  2  0
 25 26  1  0
 26 27  1  0
 27 28  1  0
 27  3  2  0
 24  9  1  0
 17 12  1  0
 24 19  1  0
M  END
>  <Compound_ID>  (663) 
C12629937

>  <Active>  (663) 
0.0

>  <Smiles>  (663) 
N#Cc1c(CCCNc2nc(-c3ccncc3)nc3ccccc23)n[nH]c1N

>  <canonical_smi>  (663) 
N#Cc1c(CCCNc2nc(-c3ccncc3)nc3ccccc23)n[nH]c1N

>  <Set>  (663) 
G2 inactive

>  <Set_type>  (663) 
Train

>  <MW>  (663) 
370.42

>  <HBD>  (663) 
3

>  <HBA>  (663) 
7

>  <NRB>  (663) 
6

>  <NR>  (663) 
4

>  <NAR>  (663) 
4

>  <PSA>  (663) 
129.19

>  <Standard Type>  (663) 
nan

>  <Standard Relation>  (663) 
nan

>  <Standard Units>  (663) 
nan

>  <Standard Value>  (663) 
nan

>  <Assay ChEMBL ID>  (663) 
nan

>  <Assay Description>  (663) 
nan

>  <BAO Label>  (663) 
nan

$$$$

     RDKit          2D

 35 38  0  0  0  0  0  0  0  0999 V2000
    4.5000   -5.1962    0.0000 N   0  0  0  0  0  0  0  0  0  0  0  0
    3.7500   -6.4952    0.0000 C   0  0  0  0  0  0  0  0  0  0  0  0
    3.0000   -7.7942    0.0000 C   0  0  0  0  0  0  0  0  0  0  0  0
    3.7500   -9.0933    0.0000 C   0  0  0  0  0  0  0  0  0  0  0  0
    3.0000  -10.3923    0.0000 C   0  0  0  0  0  0  0  0  0  0  0  0
    1.5000  -10.3923    0.0000 C   0  0  0  0  0  0  0  0  0  0  0  0
    0.7500  -11.6913    0.0000 N   0  0  0  0  0  0  0  0  0  0  0  0
   -0.7500  -11.6913    0.0000 C   0  0  0  0  0  0  0  0  0  0  0  0
   -1.5000  -12.9904    0.0000 C   0  0  0  0  0  0  0  0  0  0  0  0
   -2.7990  -12.2404    0.0000 F   0  0  0  0  0  0  0  0  0  0  0  0
   -0.2010  -13.7404    0.0000 F   0  0  0  0  0  0  0  0  0  0  0  0
   -2.2500  -14.2894    0.0000 C   0  0  0  0  0  0  0  0  0  0  0  0
   -3.7500  -14.2894    0.0000 C   0  0  0  0  0  0  0  0  0  0  0  0
   -4.5000  -15.5885    0.0000 C   0  0  0  0  0  0  0  0  0  0  0  0
   -3.7500  -16.8875    0.0000 C   0  0  0  0  0  0  0  0  0  0  0  0
   -2.2500  -16.8875    0.0000 C   0  0  0  0  0  0  0  0  0  0  0  0
   -1.5000  -15.5885    0.0000 N   0  0  0  0  0  0  0  0  0  0  0  0
    0.7500   -9.0933    0.0000 C   0  0  0  0  0  0  0  0  0  0  0  0
   -0.7500   -9.0933    0.0000 F   0  0  0  0  0  0  0  0  0  0  0  0
    1.5000   -7.7942    0.0000 C   0  0  0  0  0  0  0  0  0  0  0  0
    0.7500   -6.4952    0.0000 C   0  0  0  0  0  0  0  0  0  0  0  0
    1.5000   -5.1962    0.0000 C   0  0  0  0  0  0  0  0  0  0  0  0
    3.0000   -5.1962    0.0000 O   0  0  0  0  0  0  0  0  0  0  0  0
    0.7500   -3.8971    0.0000 N   0  0  0  0  0  0  0  0  0  0  0  0
    1.5000   -2.5981    0.0000 C   0  0  0  0  0  0  0  0  0  0  0  0
    0.7500   -1.2990    0.0000 C   0  0  0  0  0  0  0  0  0  0  0  0
    1.5000    0.0000    0.0000 C   0  0  0  0  0  0  0  0  0  0  0  0
    0.7500    1.2990    0.0000 C   0  0  0  0  0  0  0  0  0  0  0  0
   -0.7500    1.2990    0.0000 C   0  0  0  0  0  0  0  0  0  0  0  0
   -1.7537    2.4138    0.0000 C   0  0  0  0  0  0  0  0  0  0  0  0
   -1.4418    3.8810    0.0000 N   0  0  0  0  0  0  0  0  0  0  0  0
   -3.1240    1.8037    0.0000 N   0  0  0  0  0  0  0  0  0  0  0  0
   -2.9672    0.3119    0.0000 O   0  0  0  0  0  0  0  0  0  0  0  0
   -1.5000    0.0000    0.0000 C   0  0  0  0  0  0  0  0  0  0  0  0
   -0.7500   -1.2990    0.0000 C   0  0  0  0  0  0  0  0  0  0  0  0
  1  2  3  0
  2  3  1  0
  3  4  2  0
  4  5  1  0
  5  6  2  0
  6  7  1  0
  7  8  1  0
  8  9  1  0
  9 10  1  0
  9 11  1  0
  9 12  1  0
 12 13  2  0
 13 14  1  0
 14 15  2  0
 15 16  1  0
 16 17  2  0
  6 18  1  0
 18 19  1  0
 18 20  2  0
 20 21  1  0
 21 22  1  0
 22 23  2  0
 22 24  1  0
 24 25  1  0
 25 26  1  0
 26 27  2  0
 27 28  1  0
 28 29  2  0
 29 30  1  0
 30 31  1  0
 30 32  2  0
 32 33  1  0
 33 34  1  0
 34 35  2  0
 20  3  1  0
 35 26  1  0
 17 12  1  0
 34 29  1  0
M  END
>  <Compound_ID>  (664) 
C29043378

>  <Active>  (664) 
0.0

>  <Smiles>  (664) 
N#Cc1ccc(NCC(F)(F)c2ccccn2)c(F)c1CC(=O)NCc1ccc2c(N)noc2c1

>  <canonical_smi>  (664) 
N#Cc1ccc(NCC(F)(F)c2ccccn2)c(F)c1CC(=O)NCc1ccc2c(N)noc2c1

>  <Set>  (664) 
G2 inactive

>  <Set_type>  (664) 
Train

>  <MW>  (664) 
480.45

>  <HBD>  (664) 
3

>  <HBA>  (664) 
7

>  <NRB>  (664) 
8

>  <NR>  (664) 
4

>  <NAR>  (664) 
4

>  <PSA>  (664) 
129.86

>  <Standard Type>  (664) 
nan

>  <Standard Relation>  (664) 
nan

>  <Standard Units>  (664) 
nan

>  <Standard Value>  (664) 
nan

>  <Assay ChEMBL ID>  (664) 
nan

>  <Assay Description>  (664) 
nan

>  <BAO Label>  (664) 
nan

$$$$

     RDKit          2D

 36 38  0  0  0  0  0  0  0  0999 V2000
   14.4110    3.9134    0.0000 C   0  0  0  0  0  0  0  0  0  0  0  0
   12.9844    4.3769    0.0000 C   0  0  0  0  0  0  0  0  0  0  0  0
   11.8697    3.3732    0.0000 C   0  0  0  0  0  0  0  0  0  0  0  0
   10.4431    3.8367    0.0000 C   0  0  0  0  0  0  0  0  0  0  0  0
    9.3284    2.8330    0.0000 C   0  0  0  0  0  0  0  0  0  0  0  0
    7.9018    3.2966    0.0000 C   0  0  0  0  0  0  0  0  0  0  0  0
    6.7871    2.2929    0.0000 C   0  0  0  0  0  0  0  0  0  0  0  0
    7.0990    0.8256    0.0000 C   0  0  0  0  0  0  0  0  0  0  0  0
    8.5256    0.3621    0.0000 O   0  0  0  0  0  0  0  0  0  0  0  0
    5.9843   -0.1781    0.0000 N   0  0  0  0  0  0  0  0  0  0  0  0
    6.2961   -1.6453    0.0000 C   0  0  0  0  0  0  0  0  0  0  0  0
    5.1814   -2.6490    0.0000 C   0  0  0  0  0  0  0  0  0  0  0  0
    5.4933   -4.1162    0.0000 O   0  0  0  0  0  0  0  0  0  0  0  0
    3.7548   -2.1855    0.0000 O   0  0  0  0  0  0  0  0  0  0  0  0
    2.6401   -3.1891    0.0000 C   0  0  0  0  0  0  0  0  0  0  0  0
    1.2135   -2.7256    0.0000 C   0  0  0  0  0  0  0  0  0  0  0  0
    0.7500   -1.2990    0.0000 C   0  0  0  0  0  0  0  0  0  0  0  0
    1.5000    0.0000    0.0000 C   0  0  0  0  0  0  0  0  0  0  0  0
    0.7500    1.2990    0.0000 C   0  0  0  0  0  0  0  0  0  0  0  0
   -0.7500    1.2990    0.0000 C   0  0  0  0  0  0  0  0  0  0  0  0
   -1.5000    2.5981    0.0000 Cl  0  0  0  0  0  0  0  0  0  0  0  0
   -1.5000    0.0000    0.0000 C   0  0  0  0  0  0  0  0  0  0  0  0
   -0.7500   -1.2990    0.0000 C   0  0  0  0  0  0  0  0  0  0  0  0
   -1.2135   -2.7256    0.0000 N   0  0  0  0  0  0  0  0  0  0  0  0
    0.0000   -3.6073    0.0000 C   0  0  0  0  0  0  0  0  0  0  0  0
    2.9520   -4.6564    0.0000 C   0  0  0  0  0  0  0  0  0  0  0  0
    4.3786   -5.1199    0.0000 N   0  0  0  0  0  0  0  0  0  0  0  0
    4.6904   -6.5871    0.0000 C   0  0  0  0  0  0  0  0  0  0  0  0
    6.1170   -7.0506    0.0000 O   0  0  0  0  0  0  0  0  0  0  0  0
    3.5757   -7.5908    0.0000 C   0  0  0  0  0  0  0  0  0  0  0  0
    2.1491   -7.1273    0.0000 N   0  0  0  0  0  0  0  0  0  0  0  0
    1.8373   -5.6601    0.0000 C   0  0  0  0  0  0  0  0  0  0  0  0
    0.4107   -5.1965    0.0000 O   0  0  0  0  0  0  0  0  0  0  0  0
    7.7227   -2.1088    0.0000 C   0  0  0  0  0  0  0  0  0  0  0  0
    8.8374   -1.1051    0.0000 C   0  0  0  0  0  0  0  0  0  0  0  0
    8.0346   -3.5760    0.0000 N   0  0  0  0  0  4  0  0  0  0  0  0
  1  2  1  0
  2  3  2  0
  3  4  1  0
  4  5  2  0
  5  6  1  0
  6  7  2  0
  7  8  1  0
  8  9  2  0
  8 10  1  0
 11 10  1  1
 11 12  1  0
 12 13  2  0
 12 14  1  0
 15 14  1  1
 15 16  1  0
 16 17  2  0
 17 18  1  0
 18 19  2  0
 19 20  1  0
 20 21  1  0
 20 22  2  0
 23 22  1  1
 23 24  1  0
 24 25  2  0
 15 26  1  0
 26 27  1  1
 27 28  1  0
 28 29  2  0
 28 30  1  0
 30 31  1  0
 31 32  1  0
 32 33  2  0
 11 34  1  0
 34 35  1  1
 34 36  1  0
 25 16  1  0
 32 26  1  0
 23 17  1  0
M  CHG  1  36   1
M  END
>  <Compound_ID>  (665) 
C39559754

>  <Active>  (665) 
0.0

>  <Smiles>  (665) 
C/C=C/C=C/C=C\C(=O)N[C@H](C(=O)O[C@H](C1=C2C=CC(Cl)=C[C@@H]2N=C1)[C@H]1NC(=O)CNC1=O)[C@@H](C)[NH3+]

>  <canonical_smi>  (665) 
C/C=C/C=C/C=C\C(=O)N[C@H](C(=O)O[C@H](C1=C2C=CC(Cl)=C[C@@H]2N=C1)[C@H]1NC(=O)CNC1=O)[C@@H](C)[NH3+]

>  <Set>  (665) 
G2 inactive

>  <Set_type>  (665) 
Train

>  <MW>  (665) 
514.99

>  <HBD>  (665) 
4

>  <HBA>  (665) 
5

>  <NRB>  (665) 
9

>  <NR>  (665) 
3

>  <NAR>  (665) 
0

>  <PSA>  (665) 
153.6

>  <Standard Type>  (665) 
nan

>  <Standard Relation>  (665) 
nan

>  <Standard Units>  (665) 
nan

>  <Standard Value>  (665) 
nan

>  <Assay ChEMBL ID>  (665) 
nan

>  <Assay Description>  (665) 
nan

>  <BAO Label>  (665) 
nan

$$$$

     RDKit          2D

 22 25  0  0  0  0  0  0  0  0999 V2000
   -5.8752    8.4192    0.0000 F   0  0  0  0  0  0  0  0  0  0  0  0
   -4.9936    9.6327    0.0000 C   0  0  0  0  0  0  0  0  0  0  0  0
   -5.6037   11.0030    0.0000 C   0  0  0  0  0  0  0  0  0  0  0  0
   -4.7220   12.2165    0.0000 C   0  0  0  0  0  0  0  0  0  0  0  0
   -3.2302   12.0598    0.0000 C   0  0  0  0  0  0  0  0  0  0  0  0
   -2.6201   10.6894    0.0000 C   0  0  0  0  0  0  0  0  0  0  0  0
   -3.5018    9.4759    0.0000 C   0  0  0  0  0  0  0  0  0  0  0  0
   -2.8917    8.1056    0.0000 C   0  0  0  0  0  0  0  0  0  0  0  0
   -1.4245    7.7937    0.0000 N   0  0  0  0  0  0  0  0  0  0  0  0
   -1.2677    6.3019    0.0000 N   0  0  0  0  0  0  0  0  0  0  0  0
   -2.6380    5.6918    0.0000 C   0  0  0  0  0  0  0  0  0  0  0  0
   -2.9499    4.2246    0.0000 S   0  0  0  0  0  0  0  0  0  0  0  0
   -1.8351    3.2209    0.0000 C   0  0  0  0  0  0  0  0  0  0  0  0
   -0.4086    3.6844    0.0000 C   0  0  0  0  0  0  0  0  0  0  0  0
    0.7062    2.6807    0.0000 C   0  0  0  0  0  0  0  0  0  0  0  0
    0.3943    1.2135    0.0000 C   0  0  0  0  0  0  0  0  0  0  0  0
    1.2760    0.0000    0.0000 N   0  0  0  0  0  0  0  0  0  0  0  0
    0.3943   -1.2135    0.0000 N   0  0  0  0  0  0  0  0  0  0  0  0
   -1.0323   -0.7500    0.0000 N   0  0  0  0  0  0  0  0  0  0  0  0
   -1.0323    0.7500    0.0000 N   0  0  0  0  0  0  0  0  0  0  0  0
   -2.1470    1.7537    0.0000 N   0  0  0  0  0  0  0  0  0  0  0  0
   -3.6417    6.8066    0.0000 N   0  0  0  0  0  0  0  0  0  0  0  0
  1  2  1  0
  2  3  2  0
  3  4  1  0
  4  5  2  0
  5  6  1  0
  6  7  2  0
  7  8  1  0
  8  9  2  0
  9 10  1  0
 10 11  1  0
 11 12  1  0
 12 13  1  0
 13 14  1  0
 14 15  2  0
 15 16  1  0
 16 17  2  0
 17 18  1  0
 18 19  2  0
 19 20  1  0
 20 21  1  0
 11 22  2  0
  7  2  1  0
 22  8  1  0
 21 13  2  0
 20 16  1  0
M  END
>  <Compound_ID>  (666) 
C42678126

>  <Active>  (666) 
0.0

>  <Smiles>  (666) 
Fc1ccccc1-c1n[nH]c(Sc2ccc3nnnn3n2)n1

>  <canonical_smi>  (666) 
Fc1ccccc1-c1n[nH]c(Sc2ccc3nnnn3n2)n1

>  <Set>  (666) 
G2 inactive

>  <Set_type>  (666) 
Train

>  <MW>  (666) 
314.31

>  <HBD>  (666) 
1

>  <HBA>  (666) 
7

>  <NRB>  (666) 
3

>  <NR>  (666) 
4

>  <NAR>  (666) 
4

>  <PSA>  (666) 
97.54

>  <Standard Type>  (666) 
nan

>  <Standard Relation>  (666) 
nan

>  <Standard Units>  (666) 
nan

>  <Standard Value>  (666) 
nan

>  <Assay ChEMBL ID>  (666) 
nan

>  <Assay Description>  (666) 
nan

>  <BAO Label>  (666) 
nan

$$$$

     RDKit          2D

 33 37  0  0  0  0  0  0  0  0999 V2000
    4.3324    0.7225    0.0000 F   0  0  0  0  0  0  0  0  0  0  0  0
    3.3287    1.8373    0.0000 C   0  0  0  0  0  0  0  0  0  0  0  0
    4.4435    2.8410    0.0000 F   0  0  0  0  0  0  0  0  0  0  0  0
    2.2140    0.8336    0.0000 F   0  0  0  0  0  0  0  0  0  0  0  0
    2.3250    2.9520    0.0000 C   0  0  0  0  0  0  0  0  0  0  0  0
    2.7886    4.3786    0.0000 C   0  0  0  0  0  0  0  0  0  0  0  0
    1.7849    5.4933    0.0000 C   0  0  0  0  0  0  0  0  0  0  0  0
    0.3177    5.1814    0.0000 C   0  0  0  0  0  0  0  0  0  0  0  0
   -0.1459    3.7548    0.0000 C   0  0  0  0  0  0  0  0  0  0  0  0
    0.8578    2.6401    0.0000 C   0  0  0  0  0  0  0  0  0  0  0  0
    0.3943    1.2135    0.0000 C   0  0  0  0  0  0  0  0  0  0  0  0
    1.2760    0.0000    0.0000 N   0  0  0  0  0  0  0  0  0  0  0  0
    0.3943   -1.2135    0.0000 N   0  0  0  0  0  0  0  0  0  0  0  0
   -1.0323   -0.7500    0.0000 C   0  0  0  0  0  0  0  0  0  0  0  0
   -2.3313   -1.5000    0.0000 N   0  0  0  0  0  0  0  0  0  0  0  0
   -3.6304   -0.7500    0.0000 C   0  0  0  0  0  0  0  0  0  0  0  0
   -4.9294   -1.5000    0.0000 N   0  0  0  0  0  2  0  0  0  0  0  0
   -6.2284   -0.7500    0.0000 C   0  0  0  0  0  0  0  0  0  0  0  0
   -6.2284    0.7500    0.0000 C   0  0  0  0  0  0  0  0  0  0  0  0
   -7.5275    1.5000    0.0000 C   0  0  0  0  0  0  0  0  0  0  0  0
   -8.8265    0.7500    0.0000 C   0  0  0  0  0  0  0  0  0  0  0  0
   -8.8265   -0.7500    0.0000 C   0  0  0  0  0  0  0  0  0  0  0  0
   -7.5275   -1.5000    0.0000 C   0  0  0  0  0  0  0  0  0  0  0  0
   -3.6304    0.7500    0.0000 N   0  0  0  0  0  0  0  0  0  0  0  0
   -2.3313    1.5000    0.0000 C   0  0  0  0  0  0  0  0  0  0  0  0
   -2.3313    3.0000    0.0000 N   0  0  0  0  0  0  0  0  0  0  0  0
   -3.6304    3.7500    0.0000 C   0  0  0  0  0  0  0  0  0  0  0  0
   -3.6304    5.2500    0.0000 C   0  0  0  0  0  0  0  0  0  0  0  0
   -4.9294    6.0000    0.0000 C   0  0  0  0  0  0  0  0  0  0  0  0
   -6.2284    5.2500    0.0000 C   0  0  0  0  0  0  0  0  0  0  0  0
   -6.2284    3.7500    0.0000 C   0  0  0  0  0  0  0  0  0  0  0  0
   -4.9294    3.0000    0.0000 C   0  0  0  0  0  0  0  0  0  0  0  0
   -1.0323    0.7500    0.0000 N   0  0  0  0  0  0  0  0  0  0  0  0
  1  2  1  0
  2  3  1  0
  2  4  1  0
  2  5  1  0
  5  6  2  0
  6  7  1  0
  7  8  2  0
  8  9  1  0
  9 10  2  0
 10 11  1  0
 11 12  2  0
 12 13  1  0
 14 13  1  1
 14 15  1  0
 15 16  1  0
 16 17  1  0
 17 18  1  0
 18 19  2  0
 19 20  1  0
 20 21  2  0
 21 22  1  0
 22 23  2  0
 16 24  2  0
 24 25  1  0
 25 26  2  0
 26 27  1  0
 27 28  2  0
 28 29  1  0
 29 30  2  0
 30 31  1  0
 31 32  2  0
 25 33  1  0
 10  5  1  0
 33 11  1  0
 33 14  1  0
 23 18  1  0
 32 27  1  0
M  CHG  1  17  -1
M  END
>  <Compound_ID>  (667) 
C59226945

>  <Active>  (667) 
0.0

>  <Smiles>  (667) 
FC(F)(F)c1ccccc1C1=NN[C@H]2NC([N-]c3ccccc3)=N/C(=N\c3ccccc3)N12

>  <canonical_smi>  (667) 
FC(F)(F)c1ccccc1C1=NN[C@H]2NC([N-]c3ccccc3)=N/C(=N\c3ccccc3)N12

>  <Set>  (667) 
G2 inactive

>  <Set_type>  (667) 
Train

>  <MW>  (667) 
448.43

>  <HBD>  (667) 
2

>  <HBA>  (667) 
3

>  <NRB>  (667) 
3

>  <NR>  (667) 
5

>  <NAR>  (667) 
3

>  <PSA>  (667) 
78.48

>  <Standard Type>  (667) 
nan

>  <Standard Relation>  (667) 
nan

>  <Standard Units>  (667) 
nan

>  <Standard Value>  (667) 
nan

>  <Assay ChEMBL ID>  (667) 
nan

>  <Assay Description>  (667) 
nan

>  <BAO Label>  (667) 
nan

$$$$

     RDKit          2D

 23 24  0  0  0  0  0  0  0  0999 V2000
    2.7760    0.0000    0.0000 C   0  0  0  0  0  0  0  0  0  0  0  0
    1.2760    0.0000    0.0000 C   0  0  0  0  0  0  0  0  0  0  0  0
    0.3943    1.2135    0.0000 O   0  0  0  0  0  0  0  0  0  0  0  0
   -1.0323    0.7500    0.0000 C   0  0  0  0  0  0  0  0  0  0  0  0
   -1.0323   -0.7500    0.0000 C   0  0  0  0  0  0  0  0  0  0  0  0
    0.3943   -1.2135    0.0000 C   0  0  0  0  0  0  0  0  0  0  0  0
    0.8578   -2.6401    0.0000 C   0  0  0  0  0  0  0  0  0  0  0  0
    2.3250   -2.9520    0.0000 O   0  0  0  0  0  0  0  0  0  0  0  0
   -0.1459   -3.7548    0.0000 C   0  0  0  0  0  0  0  0  0  0  0  0
   -1.6131   -3.4430    0.0000 C   0  0  0  0  0  0  0  0  0  0  0  0
   -3.0803   -3.1311    0.0000 N   0  0  0  0  0  0  0  0  0  0  0  0
    0.3177   -5.1814    0.0000 C   0  0  0  0  0  0  0  0  0  0  0  0
    1.7849   -5.4933    0.0000 O   0  0  0  0  0  1  0  0  0  0  0  0
   -0.6860   -6.2961    0.0000 C   0  0  0  0  0  0  0  0  0  0  0  0
   -0.3742   -7.7634    0.0000 C   0  0  0  0  0  0  0  0  0  0  0  0
   -1.6732   -8.5134    0.0000 C   0  0  0  0  0  0  0  0  0  0  0  0
   -1.8300  -10.0051    0.0000 C   0  0  0  0  0  0  0  0  0  0  0  0
   -2.7879   -7.5097    0.0000 N   0  0  0  0  0  0  0  0  0  0  0  0
   -4.2552   -7.8215    0.0000 C   0  0  0  0  0  0  0  0  0  0  0  0
   -5.2588   -6.7068    0.0000 C   0  0  0  0  0  0  0  0  0  0  0  0
   -4.7187   -9.2481    0.0000 C   0  0  0  0  0  0  0  0  0  0  0  0
   -2.1778   -6.1393    0.0000 C   0  0  0  0  0  0  0  0  0  0  0  0
   -2.9278   -4.8403    0.0000 C   0  0  0  0  0  0  0  0  0  0  0  0
  1  2  1  0
  2  3  1  0
  3  4  1  0
  4  5  2  0
  5  6  1  0
  6  7  1  0
  7  8  2  0
  7  9  1  0
  9 10  1  0
 10 11  3  0
  9 12  2  0
 12 13  1  0
 12 14  1  0
 14 15  1  0
 15 16  2  0
 16 17  1  0
 16 18  1  0
 18 19  1  0
 19 20  1  0
 19 21  1  0
 18 22  1  0
 22 23  1  0
  6  2  2  0
 22 14  2  0
M  CHG  1  13  -1
M  END
>  <Compound_ID>  (668) 
C49165064

>  <Active>  (668) 
0.0

>  <Smiles>  (668) 
Cc1occc1C(=O)/C(C#N)=C(\[O-])c1cc(C)n(C(C)C)c1C

>  <canonical_smi>  (668) 
Cc1occc1C(=O)/C(C#N)=C(\[O-])c1cc(C)n(C(C)C)c1C

>  <Set>  (668) 
G2 inactive

>  <Set_type>  (668) 
Train

>  <MW>  (668) 
311.36

>  <HBD>  (668) 
0

>  <HBA>  (668) 
4

>  <NRB>  (668) 
4

>  <NR>  (668) 
2

>  <NAR>  (668) 
2

>  <PSA>  (668) 
81.99

>  <Standard Type>  (668) 
nan

>  <Standard Relation>  (668) 
nan

>  <Standard Units>  (668) 
nan

>  <Standard Value>  (668) 
nan

>  <Assay ChEMBL ID>  (668) 
nan

>  <Assay Description>  (668) 
nan

>  <BAO Label>  (668) 
nan

$$$$

     RDKit          2D

 19 20  0  0  0  0  0  0  0  0999 V2000
    5.2500   -1.2990    0.0000 C   0  0  0  0  0  0  0  0  0  0  0  0
    3.7500   -1.2990    0.0000 C   0  0  0  0  0  0  0  0  0  0  0  0
    3.0000    0.0000    0.0000 C   0  0  0  0  0  0  0  0  0  0  0  0
    1.5000    0.0000    0.0000 C   0  0  0  0  0  0  0  0  0  0  0  0
    0.7500   -1.2990    0.0000 C   0  0  0  0  0  0  0  0  0  0  0  0
   -0.7500   -1.2990    0.0000 C   0  0  0  0  0  0  0  0  0  0  0  0
   -1.5000   -2.5981    0.0000 O   0  0  0  0  0  1  0  0  0  0  0  0
   -1.5000    0.0000    0.0000 N   0  0  0  0  0  0  0  0  0  0  0  0
   -0.7500    1.2990    0.0000 C   0  0  0  0  0  0  0  0  0  0  0  0
   -1.5000    2.5981    0.0000 S   0  0  0  0  0  0  0  0  0  0  0  0
   -0.7500    3.8971    0.0000 C   0  0  0  0  0  0  0  0  0  0  0  0
    0.7500    3.8971    0.0000 C   0  0  0  0  0  0  0  0  0  0  0  0
    1.5000    5.1962    0.0000 C   0  0  0  0  0  0  0  0  0  0  0  0
    3.0000    5.1962    0.0000 Cl  0  0  0  0  0  0  0  0  0  0  0  0
    0.7500    6.4952    0.0000 N   0  0  0  0  0  0  0  0  0  0  0  0
   -0.7500    6.4952    0.0000 C   0  0  0  0  0  0  0  0  0  0  0  0
   -1.5000    7.7942    0.0000 C   0  0  0  0  0  0  0  0  0  0  0  0
   -1.5000    5.1962    0.0000 N   0  0  0  0  0  0  0  0  0  0  0  0
    0.7500    1.2990    0.0000 N   0  0  0  0  0  0  0  0  0  0  0  0
  1  2  1  0
  2  3  1  0
  3  4  1  0
  4  5  2  0
  5  6  1  0
  6  7  1  0
  6  8  2  0
  8  9  1  0
  9 10  1  0
 10 11  1  0
 11 12  2  0
 12 13  1  0
 13 14  1  0
 13 15  2  0
 15 16  1  0
 16 17  1  0
 16 18  2  0
  9 19  2  0
 19  4  1  0
 18 11  1  0
M  CHG  1   7  -1
M  END
>  <Compound_ID>  (669) 
C52837721

>  <Active>  (669) 
0.0

>  <Smiles>  (669) 
CCCc1cc([O-])nc(Sc2cc(Cl)nc(C)n2)n1

>  <canonical_smi>  (669) 
CCCc1cc([O-])nc(Sc2cc(Cl)nc(C)n2)n1

>  <Set>  (669) 
G2 inactive

>  <Set_type>  (669) 
Train

>  <MW>  (669) 
295.77

>  <HBD>  (669) 
0

>  <HBA>  (669) 
6

>  <NRB>  (669) 
4

>  <NR>  (669) 
2

>  <NAR>  (669) 
2

>  <PSA>  (669) 
74.62

>  <Standard Type>  (669) 
nan

>  <Standard Relation>  (669) 
nan

>  <Standard Units>  (669) 
nan

>  <Standard Value>  (669) 
nan

>  <Assay ChEMBL ID>  (669) 
nan

>  <Assay Description>  (669) 
nan

>  <BAO Label>  (669) 
nan

$$$$

     RDKit          2D

 39 41  0  0  0  0  0  0  0  0999 V2000
    5.0490   -0.5490    0.0000 C   0  0  0  0  0  0  0  0  0  0  0  0
    3.7500   -1.2990    0.0000 C   0  0  0  0  0  0  0  0  0  0  0  0
    2.4510   -2.0490    0.0000 C   0  0  0  0  0  0  0  0  0  0  0  0
    4.5000   -2.5981    0.0000 C   0  0  0  0  0  0  0  0  0  0  0  0
    3.0000    0.0000    0.0000 O   0  0  0  0  0  0  0  0  0  0  0  0
    1.5000    0.0000    0.0000 C   0  0  0  0  0  0  0  0  0  0  0  0
    0.7500   -1.2990    0.0000 N   0  0  0  0  0  0  0  0  0  0  0  0
   -0.7500   -1.2990    0.0000 C   0  0  0  0  0  0  0  0  0  0  0  0
   -1.5000    0.0000    0.0000 C   0  0  0  0  0  0  0  0  0  0  0  0
   -3.0000    0.0000    0.0000 C   0  0  0  0  0  0  0  0  0  0  0  0
   -3.7500    1.2990    0.0000 C   0  0  0  0  0  0  0  0  0  0  0  0
   -5.2500    1.2990    0.0000 C   0  0  0  0  0  0  0  0  0  0  0  0
   -6.0000    2.5981    0.0000 F   0  0  0  0  0  0  0  0  0  0  0  0
   -6.0000    0.0000    0.0000 C   0  0  0  0  0  0  0  0  0  0  0  0
   -5.2500   -1.2990    0.0000 C   0  0  0  0  0  0  0  0  0  0  0  0
   -6.0000   -2.5981    0.0000 C   0  0  0  0  0  0  0  0  0  0  0  0
   -7.5000   -2.5981    0.0000 C   0  0  0  0  0  0  0  0  0  0  0  0
   -8.2500   -3.8971    0.0000 N   0  0  0  0  0  0  0  0  0  0  0  0
   -7.5000   -5.1962    0.0000 C   0  0  0  0  0  0  0  0  0  0  0  0
   -8.2500   -6.4952    0.0000 O   0  0  0  0  0  0  0  0  0  0  0  0
   -9.7500   -6.4952    0.0000 C   0  0  0  0  0  0  0  0  0  0  0  0
   -9.7500   -7.9952    0.0000 C   0  0  0  0  0  0  0  0  0  0  0  0
   -9.7500   -4.9952    0.0000 C   0  0  0  0  0  0  0  0  0  0  0  0
  -11.2500   -6.4952    0.0000 C   0  0  0  0  0  0  0  0  0  0  0  0
   -6.0000   -5.1962    0.0000 N   0  0  0  0  0  0  0  0  0  0  0  0
   -5.2500   -3.8971    0.0000 C   0  0  0  0  0  0  0  0  0  0  0  0
   -3.7500   -3.8971    0.0000 O   0  0  0  0  0  0  0  0  0  0  0  0
   -3.0000   -5.1962    0.0000 C   0  0  0  0  0  0  0  0  0  0  0  0
   -1.7010   -4.4462    0.0000 C   0  0  0  0  0  0  0  0  0  0  0  0
   -4.2990   -5.9462    0.0000 C   0  0  0  0  0  0  0  0  0  0  0  0
   -2.2500   -6.4952    0.0000 C   0  0  0  0  0  0  0  0  0  0  0  0
   -3.7500   -1.2990    0.0000 C   0  0  0  0  0  0  0  0  0  0  0  0
   -0.7500    1.2990    0.0000 C   0  0  0  0  0  0  0  0  0  0  0  0
   -1.5000    2.5981    0.0000 O   0  0  0  0  0  0  0  0  0  0  0  0
   -0.7500    3.8971    0.0000 C   0  0  0  0  0  0  0  0  0  0  0  0
   -2.0490    4.6471    0.0000 C   0  0  0  0  0  0  0  0  0  0  0  0
    0.5490    3.1471    0.0000 C   0  0  0  0  0  0  0  0  0  0  0  0
    0.0000    5.1962    0.0000 C   0  0  0  0  0  0  0  0  0  0  0  0
    0.7500    1.2990    0.0000 N   0  0  0  0  0  0  0  0  0  0  0  0
  1  2  1  0
  2  3  1  0
  2  4  1  0
  2  5  1  0
  5  6  1  0
  6  7  2  0
  7  8  1  0
  8  9  2  0
  9 10  1  0
 10 11  2  0
 11 12  1  0
 12 13  1  0
 12 14  2  0
 14 15  1  0
 15 16  1  0
 16 17  2  0
 17 18  1  0
 18 19  2  0
 19 20  1  0
 20 21  1  0
 21 22  1  0
 21 23  1  0
 21 24  1  0
 19 25  1  0
 25 26  2  0
 26 27  1  0
 27 28  1  0
 28 29  1  0
 28 30  1  0
 28 31  1  0
 15 32  2  0
  9 33  1  0
 33 34  1  0
 34 35  1  0
 35 36  1  0
 35 37  1  0
 35 38  1  0
 33 39  2  0
 39  6  1  0
 32 10  1  0
 26 16  1  0
M  END
>  <Compound_ID>  (670) 
C02173023

>  <Active>  (670) 
0.0

>  <Smiles>  (670) 
CC(C)(C)Oc1ncc(-c2cc(F)cc(-c3cnc(OC(C)(C)C)nc3OC(C)(C)C)c2)c(OC(C)(C)C)n1

>  <canonical_smi>  (670) 
CC(C)(C)Oc1ncc(-c2cc(F)cc(-c3cnc(OC(C)(C)C)nc3OC(C)(C)C)c2)c(OC(C)(C)C)n1

>  <Set>  (670) 
G2 inactive

>  <Set_type>  (670) 
Train

>  <MW>  (670) 
540.68

>  <HBD>  (670) 
0

>  <HBA>  (670) 
8

>  <NRB>  (670) 
6

>  <NR>  (670) 
3

>  <NAR>  (670) 
3

>  <PSA>  (670) 
88.48

>  <Standard Type>  (670) 
nan

>  <Standard Relation>  (670) 
nan

>  <Standard Units>  (670) 
nan

>  <Standard Value>  (670) 
nan

>  <Assay ChEMBL ID>  (670) 
nan

>  <Assay Description>  (670) 
nan

>  <BAO Label>  (670) 
nan

$$$$

     RDKit          2D

 36 38  0  0  0  0  0  0  0  0999 V2000
   -1.2990  -17.8573    0.0000 C   0  0  0  0  0  0  0  0  0  0  0  0
   -1.2990  -16.3573    0.0000 C   0  0  0  0  0  0  0  0  0  0  0  0
    0.0000  -15.6073    0.0000 C   0  0  0  0  0  0  0  0  0  0  0  0
    0.0000  -14.1073    0.0000 C   0  0  0  0  0  0  0  0  0  0  0  0
    1.2990  -13.3573    0.0000 N   0  0  0  0  0  0  0  0  0  0  0  0
    2.5981  -14.1073    0.0000 C   0  0  0  0  0  0  0  0  0  0  0  0
    2.5981  -15.6073    0.0000 C   0  0  0  0  0  0  0  0  0  0  0  0
    1.2990  -11.8573    0.0000 S   0  0  0  0  0  0  0  0  0  0  0  0
   -0.2010  -11.8573    0.0000 O   0  0  0  0  0  0  0  0  0  0  0  0
    2.7990  -11.8573    0.0000 O   0  0  0  0  0  0  0  0  0  0  0  0
    1.2990  -10.3573    0.0000 C   0  0  0  0  0  0  0  0  0  0  0  0
   -0.0000   -9.6073    0.0000 C   0  0  0  0  0  0  0  0  0  0  0  0
   -0.0000   -8.1073    0.0000 C   0  0  0  0  0  0  0  0  0  0  0  0
    1.2990   -7.3573    0.0000 C   0  0  0  0  0  0  0  0  0  0  0  0
    1.2990   -5.8573    0.0000 C   0  0  0  0  0  0  0  0  0  0  0  0
    2.5981   -5.1073    0.0000 O   0  0  0  0  0  0  0  0  0  0  0  0
   -0.0000   -5.1073    0.0000 N   0  0  0  0  0  0  0  0  0  0  0  0
   -0.0000   -3.6073    0.0000 C   0  0  0  0  0  0  0  0  0  0  0  0
    1.2135   -2.7256    0.0000 S   0  0  0  0  0  0  0  0  0  0  0  0
    0.7500   -1.2990    0.0000 C   0  0  0  0  0  0  0  0  0  0  0  0
    1.5000    0.0000    0.0000 C   0  0  0  0  0  0  0  0  0  0  0  0
    0.7500    1.2990    0.0000 C   0  0  0  0  0  0  0  0  0  0  0  0
    1.5000    2.5981    0.0000 C   0  0  0  0  0  0  0  0  0  0  0  0
   -0.7500    1.2990    0.0000 C   0  0  0  0  0  0  0  0  0  0  0  0
   -1.5000    2.5981    0.0000 C   0  0  0  0  0  0  0  0  0  0  0  0
   -1.5000    0.0000    0.0000 C   0  0  0  0  0  0  0  0  0  0  0  0
   -0.7500   -1.2990    0.0000 C   0  0  0  0  0  0  0  0  0  0  0  0
   -1.2135   -2.7256    0.0000 N   0  0  0  0  0  0  0  0  0  0  0  0
   -2.6401   -3.1891    0.0000 C   0  0  0  0  0  0  0  0  0  0  0  0
   -3.7548   -2.1855    0.0000 C   0  0  0  0  0  0  0  0  0  0  0  0
   -3.4430   -0.7182    0.0000 O   0  0  0  0  0  0  0  0  0  0  0  0
   -5.1814   -2.6490    0.0000 O   0  0  0  0  0  0  0  0  0  0  0  0
   -6.2961   -1.6453    0.0000 C   0  0  0  0  0  0  0  0  0  0  0  0
   -7.7227   -2.1088    0.0000 C   0  0  0  0  0  0  0  0  0  0  0  0
    2.5981   -8.1073    0.0000 C   0  0  0  0  0  0  0  0  0  0  0  0
    2.5981   -9.6073    0.0000 C   0  0  0  0  0  0  0  0  0  0  0  0
  1  2  1  0
  2  3  1  0
  3  4  1  0
  4  5  1  0
  5  6  1  0
  6  7  1  0
  5  8  1  0
  8  9  2  0
  8 10  2  0
  8 11  1  0
 11 12  2  0
 12 13  1  0
 13 14  2  0
 14 15  1  0
 15 16  2  0
 15 17  1  0
 17 18  2  0
 18 19  1  0
 19 20  1  0
 20 21  2  0
 21 22  1  0
 22 23  1  0
 22 24  2  0
 24 25  1  0
 24 26  1  0
 26 27  2  0
 27 28  1  0
 28 29  1  0
 29 30  1  0
 30 31  2  0
 30 32  1  0
 32 33  1  0
 33 34  1  0
 14 35  1  0
 35 36  2  0
 36 11  1  0
 28 18  1  0
 27 20  1  0
M  END
>  <Compound_ID>  (671) 
C09511080

>  <Active>  (671) 
0.0

>  <Smiles>  (671) 
CCCCN(CC)S(=O)(=O)c1ccc(C(=O)/N=c2\sc3cc(C)c(C)cc3n2CC(=O)OCC)cc1

>  <canonical_smi>  (671) 
CCCCN(CC)S(=O)(=O)c1ccc(C(=O)/N=c2\sc3cc(C)c(C)cc3n2CC(=O)OCC)cc1

>  <Set>  (671) 
G2 inactive

>  <Set_type>  (671) 
Train

>  <MW>  (671) 
531.7

>  <HBD>  (671) 
0

>  <HBA>  (671) 
5

>  <NRB>  (671) 
10

>  <NR>  (671) 
3

>  <NAR>  (671) 
3

>  <PSA>  (671) 
98.04

>  <Standard Type>  (671) 
nan

>  <Standard Relation>  (671) 
nan

>  <Standard Units>  (671) 
nan

>  <Standard Value>  (671) 
nan

>  <Assay ChEMBL ID>  (671) 
nan

>  <Assay Description>  (671) 
nan

>  <BAO Label>  (671) 
nan

$$$$

     RDKit          2D

 38 41  0  0  0  0  0  0  0  0999 V2000
  -10.9635  -11.8189    0.0000 C   0  0  0  0  0  0  0  0  0  0  0  0
  -10.2135  -10.5199    0.0000 C   0  0  0  0  0  0  0  0  0  0  0  0
   -8.7135  -10.5199    0.0000 O   0  0  0  0  0  0  0  0  0  0  0  0
   -7.9635   -9.2208    0.0000 C   0  0  0  0  0  0  0  0  0  0  0  0
   -8.7135   -7.9218    0.0000 O   0  0  0  0  0  0  0  0  0  0  0  0
   -6.4635   -9.2208    0.0000 N   0  0  0  0  0  0  0  0  0  0  0  0
   -5.7135   -7.9218    0.0000 N   0  0  0  0  0  0  0  0  0  0  0  0
   -4.2135   -7.9218    0.0000 C   0  0  0  0  0  0  0  0  0  0  0  0
   -3.4635   -9.2208    0.0000 C   0  0  0  0  0  0  0  0  0  0  0  0
   -3.4635   -6.6227    0.0000 C   0  0  0  0  0  0  0  0  0  0  0  0
   -4.8338   -6.0126    0.0000 O   0  0  0  0  0  0  0  0  0  0  0  0
   -6.0474   -6.8943    0.0000 C   0  0  0  0  0  0  0  0  0  0  0  0
   -2.2500   -7.5044    0.0000 C   0  0  0  0  0  0  0  0  0  0  0  0
   -2.2500   -9.0044    0.0000 O   0  0  0  0  0  0  0  0  0  0  0  0
   -0.9510   -9.7544    0.0000 C   0  0  0  0  0  0  0  0  0  0  0  0
   -0.9510  -11.2544    0.0000 C   0  0  0  0  0  0  0  0  0  0  0  0
    0.3481   -9.0044    0.0000 O   0  0  0  0  0  0  0  0  0  0  0  0
   -1.0365   -6.6227    0.0000 C   0  0  0  0  0  0  0  0  0  0  0  0
   -1.5000   -5.1962    0.0000 C   0  0  0  0  0  0  0  0  0  0  0  0
   -0.7500   -3.8971    0.0000 C   0  0  0  0  0  0  0  0  0  0  0  0
    0.7500   -3.8971    0.0000 C   0  0  0  0  0  0  0  0  0  0  0  0
    1.5000   -2.5981    0.0000 C   0  0  0  0  0  0  0  0  0  0  0  0
    0.7500   -1.2990    0.0000 C   0  0  0  0  0  0  0  0  0  0  0  0
    1.5000    0.0000    0.0000 C   0  0  0  0  0  0  0  0  0  0  0  0
    0.7500    1.2990    0.0000 C   0  0  0  0  0  0  0  0  0  0  0  0
    1.5000    2.5981    0.0000 O   0  0  0  0  0  0  0  0  0  0  0  0
    3.0000    2.5981    0.0000 C   0  0  0  0  0  0  0  0  0  0  0  0
    3.7500    3.8971    0.0000 C   0  0  0  0  0  0  0  0  0  0  0  0
    3.7500    1.2990    0.0000 O   0  0  0  0  0  0  0  0  0  0  0  0
   -0.7500    1.2990    0.0000 C   0  0  0  0  0  0  0  0  0  0  0  0
   -1.5000    0.0000    0.0000 C   0  0  0  0  0  0  0  0  0  0  0  0
   -0.7500   -1.2990    0.0000 C   0  0  0  0  0  0  0  0  0  0  0  0
   -2.2500   -1.2990    0.0000 C   0  0  0  0  0  0  0  0  0  0  0  0
   -1.5000   -2.5981    0.0000 C   0  0  0  0  0  0  0  0  0  0  0  0
   -3.0000   -2.5981    0.0000 C   0  0  0  0  0  0  0  0  0  0  0  0
   -3.7500   -3.8971    0.0000 C   0  0  0  0  0  0  0  0  0  0  0  0
   -3.0000   -5.1962    0.0000 C   0  0  0  0  0  0  0  0  0  0  0  0
   -4.4854   -4.9873    0.0000 C   0  0  0  0  0  0  0  0  0  0  0  0
  1  2  1  0
  2  3  1  0
  3  4  1  0
  4  5  2  0
  4  6  1  0
  6  7  1  0
  7  8  2  0
  8  9  1  0
  8 10  1  0
 10 11  1  6
 11 12  1  0
 10 13  1  0
 13 14  1  1
 14 15  1  0
 15 16  1  0
 15 17  2  0
 13 18  1  0
 19 18  1  1
 19 20  1  0
 20 21  1  1
 21 22  1  0
 22 23  2  0
 23 24  1  0
 24 25  1  0
 25 26  1  6
 26 27  1  0
 27 28  1  0
 27 29  2  0
 25 30  1  0
 30 31  1  0
 31 32  1  0
 32 33  1  1
 32 34  1  0
 34 35  1  1
 35 36  1  0
 36 37  1  0
 37 38  1  6
 37 10  1  0
 37 19  1  0
 34 20  1  0
 32 23  1  0
M  END
>  <Compound_ID>  (672) 
C13574518

>  <Active>  (672) 
0.0

>  <Smiles>  (672) 
CCOC(=O)N/N=C(\C)[C@]1(OC)[C@H](OC(C)=O)C[C@@H]2[C@@H]3CC=C4C[C@@H](OC(C)=O)CC[C@@]4(C)[C@@H]3CC[C@@]21C

>  <canonical_smi>  (672) 
CCOC(=O)N/N=C(\C)[C@]1(OC)[C@H](OC(C)=O)C[C@@H]2[C@@H]3CC=C4C[C@@H](OC(C)=O)CC[C@@]4(C)[C@@H]3CC[C@@]21C

>  <Set>  (672) 
G2 inactive

>  <Set_type>  (672) 
Train

>  <MW>  (672) 
532.68

>  <HBD>  (672) 
1

>  <HBA>  (672) 
7

>  <NRB>  (672) 
6

>  <NR>  (672) 
4

>  <NAR>  (672) 
0

>  <PSA>  (672) 
112.52

>  <Standard Type>  (672) 
nan

>  <Standard Relation>  (672) 
nan

>  <Standard Units>  (672) 
nan

>  <Standard Value>  (672) 
nan

>  <Assay ChEMBL ID>  (672) 
nan

>  <Assay Description>  (672) 
nan

>  <BAO Label>  (672) 
nan

$$$$

     RDKit          2D

 38 42  0  0  0  0  0  0  0  0999 V2000
   -2.6401   -3.1891    0.0000 C   0  0  0  0  0  0  0  0  0  0  0  0
   -1.2135   -2.7256    0.0000 C   0  0  0  0  0  0  0  0  0  0  0  0
   -0.0000   -3.6073    0.0000 N   0  0  0  0  0  0  0  0  0  0  0  0
    1.2135   -2.7256    0.0000 N   0  0  0  0  0  0  0  0  0  0  0  0
    2.6401   -3.1891    0.0000 C   0  0  0  0  0  0  0  0  0  0  0  0
    2.9520   -4.6564    0.0000 C   0  0  0  0  0  0  0  0  0  0  0  0
    4.3786   -5.1199    0.0000 C   0  0  0  0  0  0  0  0  0  0  0  0
    5.4933   -4.1162    0.0000 C   0  0  0  0  0  0  0  0  0  0  0  0
    5.1814   -2.6490    0.0000 C   0  0  0  0  0  0  0  0  0  0  0  0
    3.7548   -2.1855    0.0000 C   0  0  0  0  0  0  0  0  0  0  0  0
    0.7500   -1.2990    0.0000 C   0  0  0  0  0  0  0  0  0  0  0  0
    1.5000    0.0000    0.0000 N   0  0  0  0  0  0  0  0  0  0  0  0
    0.7500    1.2990    0.0000 C   0  0  0  0  0  0  0  0  0  0  0  0
    1.5000    2.5981    0.0000 C   0  0  0  0  0  0  0  0  0  0  0  0
    3.0000    2.5981    0.0000 C   0  0  0  0  0  0  0  0  0  0  0  0
    3.7500    3.8971    0.0000 C   0  0  0  0  0  0  0  0  0  0  0  0
    3.7500    1.2990    0.0000 C   0  0  0  0  0  0  0  0  0  0  0  0
   -0.7500    1.2990    0.0000 N   0  0  0  0  0  0  0  0  0  0  0  0
   -1.5000    0.0000    0.0000 C   0  0  0  0  0  0  0  0  0  0  0  0
   -3.0000    0.0000    0.0000 N   0  0  0  0  0  0  0  0  0  0  0  0
   -3.6508   -1.3515    0.0000 C   0  0  0  0  0  0  0  0  0  0  0  0
   -5.1132   -1.6852    0.0000 C   0  0  0  0  0  0  0  0  0  0  0  0
   -6.2860   -0.7500    0.0000 C   0  0  0  0  0  0  0  0  0  0  0  0
   -6.2860    0.7500    0.0000 N   0  0  0  0  0  0  0  0  0  0  0  0
   -7.6374    1.4008    0.0000 S   0  0  0  0  0  0  0  0  0  0  0  0
   -8.2882    0.0494    0.0000 O   0  0  0  0  0  0  0  0  0  0  0  0
   -6.9866    2.7523    0.0000 O   0  0  0  0  0  0  0  0  0  0  0  0
   -8.9889    2.0517    0.0000 C   0  0  0  0  0  0  0  0  0  0  0  0
  -10.2282    1.2067    0.0000 C   0  0  0  0  0  0  0  0  0  0  0  0
  -11.5797    1.8575    0.0000 C   0  0  0  0  0  0  0  0  0  0  0  0
  -11.6918    3.3533    0.0000 C   0  0  0  0  0  0  0  0  0  0  0  0
  -13.0432    4.0041    0.0000 C   0  0  0  0  0  0  0  0  0  0  0  0
  -14.2826    3.1591    0.0000 C   0  0  0  0  0  0  0  0  0  0  0  0
  -14.1705    1.6633    0.0000 C   0  0  0  0  0  0  0  0  0  0  0  0
  -12.8190    1.0125    0.0000 C   0  0  0  0  0  0  0  0  0  0  0  0
   -5.1132    1.6852    0.0000 C   0  0  0  0  0  0  0  0  0  0  0  0
   -3.6508    1.3515    0.0000 C   0  0  0  0  0  0  0  0  0  0  0  0
   -0.7500   -1.2990    0.0000 C   0  0  0  0  0  0  0  0  0  0  0  0
  1  2  1  0
  2  3  2  0
  3  4  1  0
  4  5  1  0
  5  6  2  0
  6  7  1  0
  7  8  2  0
  8  9  1  0
  9 10  2  0
  4 11  1  0
 11 12  2  0
 12 13  1  0
 13 14  1  0
 14 15  1  0
 15 16  1  0
 15 17  1  0
 13 18  2  0
 18 19  1  0
 19 20  1  0
 20 21  1  0
 21 22  1  0
 22 23  1  0
 23 24  1  0
 24 25  1  0
 25 26  2  0
 25 27  2  0
 25 28  1  0
 28 29  2  0
 29 30  1  0
 30 31  2  0
 31 32  1  0
 32 33  2  0
 33 34  1  0
 34 35  2  0
 24 36  1  0
 36 37  1  0
 19 38  2  0
 38  2  1  0
 10  5  1  0
 38 11  1  0
 37 20  1  0
 35 30  1  0
M  END
>  <Compound_ID>  (673) 
C35912539

>  <Active>  (673) 
0.0

>  <Smiles>  (673) 
Cc1nn(-c2ccccc2)c2nc(CC(C)C)nc(N3CCCN(S(=O)(=O)/C=C/c4ccccc4)CC3)c12

>  <canonical_smi>  (673) 
Cc1nn(-c2ccccc2)c2nc(CC(C)C)nc(N3CCCN(S(=O)(=O)/C=C/c4ccccc4)CC3)c12

>  <Set>  (673) 
G2 inactive

>  <Set_type>  (673) 
Train

>  <MW>  (673) 
530.7

>  <HBD>  (673) 
0

>  <HBA>  (673) 
6

>  <NRB>  (673) 
7

>  <NR>  (673) 
5

>  <NAR>  (673) 
4

>  <PSA>  (673) 
84.22

>  <Standard Type>  (673) 
nan

>  <Standard Relation>  (673) 
nan

>  <Standard Units>  (673) 
nan

>  <Standard Value>  (673) 
nan

>  <Assay ChEMBL ID>  (673) 
nan

>  <Assay Description>  (673) 
nan

>  <BAO Label>  (673) 
nan

$$$$

     RDKit          2D

 42 45  0  0  0  0  0  0  0  0999 V2000
    3.0000  -12.9904    0.0000 C   0  0  0  0  0  0  0  0  0  0  0  0
    3.7500  -11.6913    0.0000 O   0  0  0  0  0  0  0  0  0  0  0  0
    3.0000  -10.3923    0.0000 C   0  0  0  0  0  0  0  0  0  0  0  0
    1.5000  -10.3923    0.0000 C   0  0  0  0  0  0  0  0  0  0  0  0
    0.7500   -9.0933    0.0000 C   0  0  0  0  0  0  0  0  0  0  0  0
    1.5000   -7.7942    0.0000 C   0  0  0  0  0  0  0  0  0  0  0  0
    0.7500   -6.4952    0.0000 C   0  0  0  0  0  0  0  0  0  0  0  0
    1.5000   -5.1962    0.0000 C   0  0  0  0  0  0  0  0  0  0  0  0
    0.7500   -3.8971    0.0000 C   0  0  0  0  0  0  0  0  0  0  0  0
   -0.7500   -3.8971    0.0000 O   0  0  0  0  0  0  0  0  0  0  0  0
    1.5000   -2.5981    0.0000 O   0  0  0  0  0  0  0  0  0  0  0  0
    0.7500   -1.2990    0.0000 C   0  0  0  0  0  0  0  0  0  0  0  0
    1.5000    0.0000    0.0000 C   0  0  0  0  0  0  0  0  0  0  0  0
    0.7500    1.2990    0.0000 C   0  0  0  0  0  0  0  0  0  0  0  0
   -0.7500    1.2990    0.0000 C   0  0  0  0  0  0  0  0  0  0  0  0
   -1.5000    0.0000    0.0000 C   0  0  0  0  0  0  0  0  0  0  0  0
   -0.7500   -1.2990    0.0000 C   0  0  0  0  0  0  0  0  0  0  0  0
   -3.0000    0.0000    0.0000 C   0  0  0  0  0  0  0  0  0  0  0  0
   -3.7500   -1.2990    0.0000 C   0  0  0  0  0  0  0  0  0  0  0  0
   -3.7500    1.2990    0.0000 C   0  0  0  0  0  0  0  0  0  0  0  0
   -3.0000    2.5981    0.0000 C   0  0  0  0  0  0  0  0  0  0  0  0
   -2.7395    4.0753    0.0000 C   0  0  0  0  0  0  0  0  0  0  0  0
   -4.4095    3.1111    0.0000 C   0  0  0  0  0  0  0  0  0  0  0  0
   -1.5000    2.5981    0.0000 N   0  0  0  0  0  0  0  0  0  0  0  0
   -0.7500    3.8971    0.0000 C   0  0  0  0  0  0  0  0  0  0  0  0
   -1.5000    5.1962    0.0000 O   0  0  0  0  0  0  0  0  0  0  0  0
    0.7500    3.8971    0.0000 C   0  0  0  0  0  0  0  0  0  0  0  0
    1.5000    5.1962    0.0000 C   0  0  0  0  0  0  0  0  0  0  0  0
    3.0000    5.1962    0.0000 C   0  0  0  0  0  0  0  0  0  0  0  0
    3.7500    3.8971    0.0000 C   0  0  0  0  0  0  0  0  0  0  0  0
    5.2500    3.8971    0.0000 C   0  0  0  0  0  0  0  0  0  0  0  0
    6.0000    5.1962    0.0000 C   0  0  0  0  0  0  0  0  0  0  0  0
    7.5000    5.1962    0.0000 O   0  0  0  0  0  0  0  0  0  0  0  0
    8.2500    3.8971    0.0000 C   0  0  0  0  0  0  0  0  0  0  0  0
    5.2500    6.4952    0.0000 C   0  0  0  0  0  0  0  0  0  0  0  0
    6.0000    7.7942    0.0000 O   0  0  0  0  0  0  0  0  0  0  0  0
    5.2500    9.0933    0.0000 C   0  0  0  0  0  0  0  0  0  0  0  0
    3.7500    6.4952    0.0000 C   0  0  0  0  0  0  0  0  0  0  0  0
    3.0000   -7.7942    0.0000 C   0  0  0  0  0  0  0  0  0  0  0  0
    3.7500   -9.0933    0.0000 C   0  0  0  0  0  0  0  0  0  0  0  0
    5.2500   -9.0933    0.0000 O   0  0  0  0  0  0  0  0  0  0  0  0
    6.0000   -7.7942    0.0000 C   0  0  0  0  0  0  0  0  0  0  0  0
  1  2  1  0
  2  3  1  0
  3  4  2  0
  4  5  1  0
  5  6  2  0
  6  7  1  0
  7  8  2  0
  8  9  1  0
  9 10  2  0
  9 11  1  0
 11 12  1  0
 12 13  2  0
 13 14  1  0
 14 15  2  0
 15 16  1  0
 16 17  2  0
 16 18  1  0
 18 19  1  0
 18 20  2  0
 20 21  1  0
 21 22  1  0
 21 23  1  0
 21 24  1  0
 24 25  1  0
 25 26  2  0
 25 27  1  0
 27 28  2  0
 28 29  1  0
 29 30  2  0
 30 31  1  0
 31 32  2  0
 32 33  1  0
 33 34  1  0
 32 35  1  0
 35 36  1  0
 36 37  1  0
 35 38  2  0
  6 39  1  0
 39 40  2  0
 40 41  1  0
 41 42  1  0
 40  3  1  0
 17 12  1  0
 38 29  1  0
 24 15  1  0
M  END
>  <Compound_ID>  (674) 
C01875966

>  <Active>  (674) 
0.0

>  <Smiles>  (674) 
COc1ccc(/C=C/C(=O)Oc2ccc3c(c2)C(C)=CC(C)(C)N3C(=O)/C=C/c2ccc(OC)c(OC)c2)cc1OC

>  <canonical_smi>  (674) 
COc1ccc(/C=C/C(=O)Oc2ccc3c(c2)C(C)=CC(C)(C)N3C(=O)/C=C/c2ccc(OC)c(OC)c2)cc1OC

>  <Set>  (674) 
G2 inactive

>  <Set_type>  (674) 
Train

>  <MW>  (674) 
569.65

>  <HBD>  (674) 
0

>  <HBA>  (674) 
7

>  <NRB>  (674) 
9

>  <NR>  (674) 
4

>  <NAR>  (674) 
3

>  <PSA>  (674) 
83.53

>  <Standard Type>  (674) 
nan

>  <Standard Relation>  (674) 
nan

>  <Standard Units>  (674) 
nan

>  <Standard Value>  (674) 
nan

>  <Assay ChEMBL ID>  (674) 
nan

>  <Assay Description>  (674) 
nan

>  <BAO Label>  (674) 
nan

$$$$

     RDKit          2D

 33 38  0  0  0  0  0  0  0  0999 V2000
    9.7500   -3.8971    0.0000 C   0  0  0  0  0  0  0  0  0  0  0  0
    8.2500   -3.8971    0.0000 O   0  0  0  0  0  0  0  0  0  0  0  0
    7.5000   -2.5981    0.0000 C   0  0  0  0  0  0  0  0  0  0  0  0
    8.2500   -1.2990    0.0000 O   0  0  0  0  0  0  0  0  0  0  0  0
    6.0000   -2.5981    0.0000 C   0  0  0  0  0  0  0  0  0  0  0  0
    5.2500   -1.2990    0.0000 C   0  0  0  0  0  0  0  0  0  0  0  0
    3.7500   -1.2990    0.0000 C   0  0  0  0  0  0  0  0  0  0  0  0
    3.0000   -2.5981    0.0000 O   0  0  0  0  0  0  0  0  0  0  0  0
    3.0000    0.0000    0.0000 N   0  0  0  0  0  0  0  0  0  0  0  0
    1.5000    0.0000    0.0000 C   0  0  0  0  0  0  0  0  0  0  0  0
    0.7500   -1.2990    0.0000 C   0  0  0  0  0  0  0  0  0  0  0  0
   -0.7500   -1.2990    0.0000 C   0  0  0  0  0  0  0  0  0  0  0  0
   -1.5000    0.0000    0.0000 C   0  0  0  0  0  0  0  0  0  0  0  0
   -1.9134   -1.4419    0.0000 O   0  0  0  0  0  0  0  0  0  0  0  0
   -3.0000    0.0000    0.0000 C   0  0  0  0  0  0  0  0  0  0  0  0
   -3.7500    1.2990    0.0000 C   0  0  0  0  0  0  0  0  0  0  0  0
   -3.0000    2.5981    0.0000 C   0  0  0  0  0  0  0  0  0  0  0  0
   -3.7500    3.8971    0.0000 C   0  0  0  0  0  0  0  0  0  0  0  0
   -3.0000    5.1962    0.0000 C   0  0  0  0  0  0  0  0  0  0  0  0
   -1.5000    5.1962    0.0000 C   0  0  0  0  0  0  0  0  0  0  0  0
   -0.7500    6.4952    0.0000 O   0  0  0  0  0  0  0  0  0  0  0  0
   -0.7500    3.8971    0.0000 C   0  0  0  0  0  0  0  0  0  0  0  0
   -1.5000    2.5981    0.0000 C   0  0  0  0  0  0  0  0  0  0  0  0
   -0.7500    1.2990    0.0000 C   0  0  0  0  0  0  0  0  0  0  0  0
   -1.5846    1.4456    0.0000 C   0  0  0  0  0  0  0  0  0  0  0  0
   -1.8000    0.5196    0.0000 C   0  0  0  0  0  0  0  0  0  0  0  0
   -2.7096    0.7961    0.0000 N   0  0  0  0  0  4  0  0  0  0  0  0
   -3.0000   -2.5981    0.0000 C   0  0  0  0  0  0  0  0  0  0  0  0
   -4.5000   -2.5981    0.0000 C   0  0  0  0  0  0  0  0  0  0  0  0
   -5.7990   -3.3481    0.0000 C   0  0  0  0  0  0  0  0  0  0  0  0
   -5.7990   -1.8481    0.0000 C   0  0  0  0  0  0  0  0  0  0  0  0
    0.7500    1.2990    0.0000 C   0  0  0  0  0  0  0  0  0  0  0  0
    0.9068    2.7908    0.0000 O   0  0  0  0  0  0  0  0  0  0  0  0
  1  2  1  0
  2  3  1  0
  3  4  2  0
  3  5  1  0
  5  6  2  0
  6  7  1  0
  7  8  2  0
  7  9  1  0
 10  9  1  6
 10 11  1  0
 11 12  1  0
 12 13  1  0
 13 14  1  1
 13 15  1  0
 15 16  1  6
 16 17  1  0
 17 18  2  0
 18 19  1  0
 19 20  2  0
 20 21  1  0
 20 22  1  0
 22 23  2  0
 23 24  1  0
 24 25  1  1
 25 26  1  0
 26 27  1  0
 27 28  1  0
 28 29  1  0
 29 30  1  0
 30 31  1  0
 24 32  1  0
 32 33  1  6
 32 10  1  0
 24 13  1  0
 31 29  1  0
 27 15  1  0
 23 17  1  0
 33 22  1  0
M  CHG  1  27   1
M  END
>  <Compound_ID>  (675) 
C33740735

>  <Active>  (675) 
0.0

>  <Smiles>  (675) 
COC(=O)/C=C/C(=O)N[C@@H]1CC[C@]2(O)[C@@H]3Cc4ccc(O)c5c4[C@]2(CC[NH+]3CC2CC2)[C@@H]1O5

>  <canonical_smi>  (675) 
COC(=O)/C=C/C(=O)N[C@@H]1CC[C@]2(O)[C@@H]3Cc4ccc(O)c5c4[C@]2(CC[NH+]3CC2CC2)[C@@H]1O5

>  <Set>  (675) 
G2 inactive

>  <Set_type>  (675) 
Train

>  <MW>  (675) 
455.53

>  <HBD>  (675) 
4

>  <HBA>  (675) 
6

>  <NRB>  (675) 
5

>  <NR>  (675) 
6

>  <NAR>  (675) 
1

>  <PSA>  (675) 
109.53

>  <Standard Type>  (675) 
nan

>  <Standard Relation>  (675) 
nan

>  <Standard Units>  (675) 
nan

>  <Standard Value>  (675) 
nan

>  <Assay ChEMBL ID>  (675) 
nan

>  <Assay Description>  (675) 
nan

>  <BAO Label>  (675) 
nan

$$$$

     RDKit          2D

 22 25  0  0  0  0  0  0  0  0999 V2000
    2.3250    2.9520    0.0000 C   0  0  0  0  0  0  0  0  0  0  0  0
    0.8578    2.6401    0.0000 C   0  0  0  0  0  0  0  0  0  0  0  0
   -0.1459    3.7548    0.0000 C   0  0  0  0  0  0  0  0  0  0  0  0
    0.3177    5.1814    0.0000 C   0  0  0  0  0  0  0  0  0  0  0  0
   -0.6860    6.2961    0.0000 C   0  0  0  0  0  0  0  0  0  0  0  0
   -2.1533    5.9843    0.0000 C   0  0  0  0  0  0  0  0  0  0  0  0
   -2.6168    4.5577    0.0000 C   0  0  0  0  0  0  0  0  0  0  0  0
   -1.6131    3.4430    0.0000 C   0  0  0  0  0  0  0  0  0  0  0  0
    0.3943    1.2135    0.0000 N   0  0  0  0  0  0  0  0  0  0  0  0
    1.2760    0.0000    0.0000 N   0  0  0  0  0  0  0  0  0  0  0  0
    0.3943   -1.2135    0.0000 C   0  0  0  0  0  0  0  0  0  0  0  0
   -1.0323   -0.7500    0.0000 C   0  0  0  0  0  0  0  0  0  0  0  0
   -2.4589   -1.2135    0.0000 N   0  0  0  0  0  0  0  0  0  0  0  0
   -3.3405    0.0000    0.0000 C   0  0  0  0  0  0  0  0  0  0  0  0
   -4.8405    0.0000    0.0000 C   0  0  0  0  0  0  0  0  0  0  0  0
   -5.7222   -1.2135    0.0000 C   0  0  0  0  0  0  0  0  0  0  0  0
   -7.1488   -0.7500    0.0000 N   0  0  0  0  0  0  0  0  0  0  0  0
   -7.1488    0.7500    0.0000 N   0  0  0  0  0  0  0  0  0  0  0  0
   -8.3623    1.6317    0.0000 C   0  0  0  0  0  0  0  0  0  0  0  0
   -5.7222    1.2135    0.0000 C   0  0  0  0  0  0  0  0  0  0  0  0
   -2.4589    1.2135    0.0000 N   0  0  0  0  0  0  0  0  0  0  0  0
   -1.0323    0.7500    0.0000 C   0  0  0  0  0  0  0  0  0  0  0  0
  2  1  1  6
  2  3  1  0
  3  4  2  0
  4  5  1  0
  5  6  2  0
  6  7  1  0
  7  8  2  0
  2  9  1  0
  9 10  1  0
 10 11  2  0
 11 12  1  0
 12 13  2  0
 13 14  1  0
 14 15  1  6
 15 16  1  0
 16 17  2  0
 17 18  1  0
 18 19  1  0
 18 20  1  0
 14 21  1  0
 22 21  1  6
  8  3  1  0
 22  9  1  0
 22 12  1  0
 20 15  2  0
M  END
>  <Compound_ID>  (676) 
C39358245

>  <Active>  (676) 
0.0

>  <Smiles>  (676) 
C[C@@H](c1ccccc1)N1N=CC2=N[C@H](c3cnn(C)c3)N[C@@H]21

>  <canonical_smi>  (676) 
C[C@@H](c1ccccc1)N1N=CC2=N[C@H](c3cnn(C)c3)N[C@@H]21

>  <Set>  (676) 
G2 inactive

>  <Set_type>  (676) 
Train

>  <MW>  (676) 
294.36

>  <HBD>  (676) 
1

>  <HBA>  (676) 
3

>  <NRB>  (676) 
3

>  <NR>  (676) 
4

>  <NAR>  (676) 
2

>  <PSA>  (676) 
57.81

>  <Standard Type>  (676) 
nan

>  <Standard Relation>  (676) 
nan

>  <Standard Units>  (676) 
nan

>  <Standard Value>  (676) 
nan

>  <Assay ChEMBL ID>  (676) 
nan

>  <Assay Description>  (676) 
nan

>  <BAO Label>  (676) 
nan

$$$$

     RDKit          2D

 19 20  0  0  0  0  0  0  0  0999 V2000
    3.7500   -1.2990    0.0000 C   0  0  0  0  0  0  0  0  0  0  0  0
    3.0000    0.0000    0.0000 S   0  0  0  0  0  0  0  0  0  0  0  0
    1.5000    0.0000    0.0000 C   0  0  0  0  0  0  0  0  0  0  0  0
    0.7500   -1.2990    0.0000 N   0  0  0  0  0  0  0  0  0  0  0  0
   -0.7500   -1.2990    0.0000 C   0  0  0  0  0  0  0  0  0  0  0  0
   -1.5000    0.0000    0.0000 N   0  0  0  0  0  0  0  0  0  0  0  0
   -0.7500    1.2990    0.0000 C   0  0  0  0  0  0  0  0  0  0  0  0
   -1.5000    2.5981    0.0000 N   0  0  0  0  0  0  0  0  0  0  0  0
   -3.0000    2.5981    0.0000 C   0  0  0  0  0  0  0  0  0  0  0  0
   -3.8817    1.3846    0.0000 C   0  0  0  0  0  0  0  0  0  0  0  0
   -3.4182   -0.0420    0.0000 C   0  0  0  0  0  0  0  0  0  0  0  0
   -5.3083    1.8481    0.0000 N   0  0  0  0  0  0  0  0  0  0  0  0
   -5.3083    3.3481    0.0000 N   0  0  0  0  0  0  0  0  0  0  0  0
   -6.5218    4.2298    0.0000 C   0  0  0  0  0  0  0  0  0  0  0  0
   -3.8817    3.8116    0.0000 C   0  0  0  0  0  0  0  0  0  0  0  0
   -3.4182    5.2382    0.0000 C   0  0  0  0  0  0  0  0  0  0  0  0
    0.7500    1.2990    0.0000 C   0  0  0  0  0  0  0  0  0  0  0  0
    1.5000    2.5981    0.0000 C   0  0  0  0  0  0  0  0  0  0  0  0
    2.2500    3.8971    0.0000 N   0  0  0  0  0  0  0  0  0  0  0  0
  1  2  1  0
  2  3  1  0
  3  4  2  0
  4  5  1  0
  5  6  2  0
  6  7  1  0
  7  8  1  0
  8  9  1  0
  9 10  1  0
 10 11  1  0
 10 12  2  0
 12 13  1  0
 13 14  1  0
 13 15  1  0
 15 16  1  0
  7 17  2  0
 17 18  1  0
 18 19  3  0
 17  3  1  0
 15  9  2  0
M  END
>  <Compound_ID>  (677) 
C41527718

>  <Active>  (677) 
0.0

>  <Smiles>  (677) 
CSc1ncnc(Nc2c(C)nn(C)c2C)c1C#N

>  <canonical_smi>  (677) 
CSc1ncnc(Nc2c(C)nn(C)c2C)c1C#N

>  <Set>  (677) 
G2 inactive

>  <Set_type>  (677) 
Train

>  <MW>  (677) 
274.35

>  <HBD>  (677) 
1

>  <HBA>  (677) 
6

>  <NRB>  (677) 
3

>  <NR>  (677) 
2

>  <NAR>  (677) 
2

>  <PSA>  (677) 
79.42

>  <Standard Type>  (677) 
nan

>  <Standard Relation>  (677) 
nan

>  <Standard Units>  (677) 
nan

>  <Standard Value>  (677) 
nan

>  <Assay ChEMBL ID>  (677) 
nan

>  <Assay Description>  (677) 
nan

>  <BAO Label>  (677) 
nan

$$$$

     RDKit          2D

 21 25  0  0  0  0  0  0  0  0999 V2000
   -0.4635   -8.2972    0.0000 C   0  0  0  0  0  0  0  0  0  0  0  0
   -1.6771   -7.4156    0.0000 C   0  0  0  0  0  0  0  0  0  0  0  0
   -1.2135   -5.9890    0.0000 C   0  0  0  0  0  0  0  0  0  0  0  0
    0.2865   -5.9890    0.0000 C   0  0  0  0  0  0  0  0  0  0  0  0
    0.7500   -7.4156    0.0000 C   0  0  0  0  0  0  0  0  0  0  0  0
    1.2135   -5.9890    0.0000 C   0  0  0  0  0  0  0  0  0  0  0  0
   -0.0000   -5.1073    0.0000 C   0  0  0  0  0  0  0  0  0  0  0  0
   -0.0000   -3.6073    0.0000 C   0  0  0  0  0  0  0  0  0  0  0  0
    1.2135   -2.7256    0.0000 N   0  0  0  0  0  0  0  0  0  0  0  0
    0.7500   -1.2990    0.0000 C   0  0  0  0  0  0  0  0  0  0  0  0
    1.5000    0.0000    0.0000 C   0  0  0  0  0  0  0  0  0  0  0  0
    0.7500    1.2990    0.0000 C   0  0  0  0  0  0  0  0  0  0  0  0
    1.5000    2.5981    0.0000 N   0  0  0  0  0  0  0  0  0  0  0  0
    0.8899    3.9684    0.0000 C   0  0  0  0  0  0  0  0  0  0  0  0
    2.0046    4.9721    0.0000 N   0  0  0  0  0  0  0  0  0  0  0  0
    3.3037    4.2221    0.0000 N   0  0  0  0  0  0  0  0  0  0  0  0
    2.9918    2.7549    0.0000 N   0  0  0  0  0  0  0  0  0  0  0  0
   -0.7500    1.2990    0.0000 C   0  0  0  0  0  0  0  0  0  0  0  0
   -1.5000    0.0000    0.0000 C   0  0  0  0  0  0  0  0  0  0  0  0
   -0.7500   -1.2990    0.0000 C   0  0  0  0  0  0  0  0  0  0  0  0
   -1.2135   -2.7256    0.0000 N   0  0  0  0  0  0  0  0  0  0  0  0
  1  2  2  0
  3  2  1  1
  3  4  1  0
  4  5  1  0
  5  6  1  1
  6  7  1  0
  7  8  1  6
  8  9  2  0
  9 10  1  0
 10 11  2  0
 11 12  1  0
 12 13  1  0
 13 14  1  0
 14 15  2  0
 15 16  1  0
 16 17  2  0
 12 18  2  0
 18 19  1  0
 19 20  2  0
 20 21  1  0
  5  1  1  0
 21  8  1  0
  7  3  1  0
 20 10  1  0
 17 13  1  0
M  END
>  <Compound_ID>  (678) 
C55037086

>  <Active>  (678) 
0.0

>  <Smiles>  (678) 
C1=C[C@@H]2C[C@H]1C[C@H]2c1nc2cc(-n3cnnn3)ccc2[nH]1

>  <canonical_smi>  (678) 
C1=C[C@@H]2C[C@H]1C[C@H]2c1nc2cc(-n3cnnn3)ccc2[nH]1

>  <Set>  (678) 
G2 inactive

>  <Set_type>  (678) 
Train

>  <MW>  (678) 
278.32

>  <HBD>  (678) 
1

>  <HBA>  (678) 
4

>  <NRB>  (678) 
2

>  <NR>  (678) 
5

>  <NAR>  (678) 
3

>  <PSA>  (678) 
72.28

>  <Standard Type>  (678) 
nan

>  <Standard Relation>  (678) 
nan

>  <Standard Units>  (678) 
nan

>  <Standard Value>  (678) 
nan

>  <Assay ChEMBL ID>  (678) 
nan

>  <Assay Description>  (678) 
nan

>  <BAO Label>  (678) 
nan

$$$$

     RDKit          2D

 21 24  0  0  0  0  0  0  0  0999 V2000
   -2.9520   -4.6564    0.0000 C   0  0  0  0  0  0  0  0  0  0  0  0
   -2.6401   -3.1891    0.0000 C   0  0  0  0  0  0  0  0  0  0  0  0
   -3.7548   -2.1855    0.0000 C   0  0  0  0  0  0  0  0  0  0  0  0
   -1.2135   -2.7256    0.0000 C   0  0  0  0  0  0  0  0  0  0  0  0
   -0.0000   -3.6073    0.0000 N   0  0  0  0  0  0  0  0  0  0  0  0
    1.2135   -2.7256    0.0000 N   0  0  0  0  0  0  0  0  0  0  0  0
    0.7500   -1.2990    0.0000 C   0  0  0  0  0  0  0  0  0  0  0  0
    1.5000    0.0000    0.0000 C   0  0  0  0  0  0  0  0  0  0  0  0
    0.7500    1.2990    0.0000 C   0  0  0  0  0  0  0  0  0  0  0  0
   -0.7500    1.2990    0.0000 N   0  0  0  0  0  0  0  0  0  0  0  0
   -1.5000    2.5981    0.0000 C   0  0  0  0  0  0  0  0  0  0  0  0
   -3.0000    2.5981    0.0000 N   0  0  0  0  0  0  0  0  0  0  0  0
   -3.7500    3.8971    0.0000 C   0  0  0  0  0  0  0  0  0  0  0  0
   -3.0000    5.1962    0.0000 N   0  0  0  0  0  0  0  0  0  0  0  0
   -1.5000    5.1962    0.0000 C   0  0  0  0  0  0  0  0  0  0  0  0
   -0.4963    6.3109    0.0000 N   0  0  0  0  0  0  0  0  0  0  0  0
    0.8740    5.7008    0.0000 C   0  0  0  0  0  0  0  0  0  0  0  0
    0.7172    4.2090    0.0000 C   0  0  0  0  0  0  0  0  0  0  0  0
   -0.7500    3.8971    0.0000 C   0  0  0  0  0  0  0  0  0  0  0  0
   -1.5000    0.0000    0.0000 C   0  0  0  0  0  0  0  0  0  0  0  0
   -0.7500   -1.2990    0.0000 C   0  0  0  0  0  0  0  0  0  0  0  0
  1  2  1  0
  2  3  1  0
  4  2  1  1
  4  5  1  0
  5  6  1  0
  6  7  2  0
  7  8  1  0
  8  9  1  0
  9 10  1  0
 10 11  1  0
 11 12  2  0
 12 13  1  0
 13 14  2  0
 14 15  1  0
 15 16  2  0
 16 17  1  0
 17 18  2  0
 19 18  1  6
 10 20  1  0
 21 20  1  1
 21  4  1  0
 21  7  1  0
 19 11  1  0
 19 15  1  0
M  END
>  <Compound_ID>  (679) 
C65434926

>  <Active>  (679) 
0.0

>  <Smiles>  (679) 
CC(C)[C@@H]1NN=C2CCN(C3=NC=NC4=NC=C[C@@H]43)C[C@@H]21

>  <canonical_smi>  (679) 
CC(C)[C@@H]1NN=C2CCN(C3=NC=NC4=NC=C[C@@H]43)C[C@@H]21

>  <Set>  (679) 
G2 inactive

>  <Set_type>  (679) 
Train

>  <MW>  (679) 
284.37

>  <HBD>  (679) 
1

>  <HBA>  (679) 
2

>  <NRB>  (679) 
1

>  <NR>  (679) 
4

>  <NAR>  (679) 
0

>  <PSA>  (679) 
64.71

>  <Standard Type>  (679) 
nan

>  <Standard Relation>  (679) 
nan

>  <Standard Units>  (679) 
nan

>  <Standard Value>  (679) 
nan

>  <Assay ChEMBL ID>  (679) 
nan

>  <Assay Description>  (679) 
nan

>  <BAO Label>  (679) 
nan

$$$$

     RDKit          2D

 20 22  0  0  0  0  0  0  0  0999 V2000
    2.7760    0.0000    0.0000 C   0  0  0  0  0  0  0  0  0  0  0  0
    1.2760    0.0000    0.0000 C   0  0  0  0  0  0  0  0  0  0  0  0
    0.3943    1.2135    0.0000 N   0  0  0  0  0  0  0  0  0  0  0  0
   -1.0323    0.7500    0.0000 N   0  0  0  0  0  0  0  0  0  0  0  0
   -1.0323   -0.7500    0.0000 C   0  0  0  0  0  0  0  0  0  0  0  0
   -2.2458   -1.6317    0.0000 N   0  0  0  0  0  0  0  0  0  0  0  0
   -3.6161   -1.0216    0.0000 C   0  0  0  0  0  0  0  0  0  0  0  0
   -4.9152   -1.7716    0.0000 S   0  0  0  0  0  0  0  0  0  0  0  0
   -6.0299   -0.7679    0.0000 C   0  0  0  0  0  0  0  0  0  0  0  0
   -7.4971   -1.0797    0.0000 C   0  0  0  0  0  0  0  0  0  0  0  0
   -8.5008    0.0350    0.0000 C   0  0  0  0  0  0  0  0  0  0  0  0
   -9.9926   -0.1218    0.0000 C   0  0  0  0  0  0  0  0  0  0  0  0
  -10.6027    1.2485    0.0000 C   0  0  0  0  0  0  0  0  0  0  0  0
   -9.4880    2.2522    0.0000 C   0  0  0  0  0  0  0  0  0  0  0  0
   -8.1889    1.5022    0.0000 N   0  0  0  0  0  0  0  0  0  0  0  0
   -5.4198    0.6024    0.0000 C   0  0  0  0  0  0  0  0  0  0  0  0
   -6.1698    1.9015    0.0000 O   0  0  0  0  0  0  0  0  0  0  0  0
   -3.9280    0.4456    0.0000 N   0  0  0  0  0  0  0  0  0  0  0  0
   -2.9243    1.5604    0.0000 C   0  0  0  0  0  0  0  0  0  0  0  0
    0.3943   -1.2135    0.0000 S   0  0  0  0  0  0  0  0  0  0  0  0
  1  2  1  0
  2  3  2  0
  3  4  1  0
  4  5  2  0
  5  6  1  0
  6  7  2  0
  7  8  1  0
  8  9  1  0
  9 10  2  0
 10 11  1  0
 11 12  2  0
 12 13  1  0
 13 14  2  0
 14 15  1  0
  9 16  1  0
 16 17  2  0
 16 18  1  0
 18 19  1  0
  5 20  1  0
 20  2  1  0
 18  7  1  0
 15 11  1  0
M  END
>  <Compound_ID>  (680) 
C40467657

>  <Active>  (680) 
0.0

>  <Smiles>  (680) 
Cc1nnc(/N=C2/S/C(=C/c3ccc[nH]3)C(=O)N2C)s1

>  <canonical_smi>  (680) 
Cc1nnc(/N=C2/S/C(=C/c3ccc[nH]3)C(=O)N2C)s1

>  <Set>  (680) 
G2 inactive

>  <Set_type>  (680) 
Train

>  <MW>  (680) 
305.39

>  <HBD>  (680) 
1

>  <HBA>  (680) 
4

>  <NRB>  (680) 
2

>  <NR>  (680) 
3

>  <NAR>  (680) 
2

>  <PSA>  (680) 
74.24

>  <Standard Type>  (680) 
nan

>  <Standard Relation>  (680) 
nan

>  <Standard Units>  (680) 
nan

>  <Standard Value>  (680) 
nan

>  <Assay ChEMBL ID>  (680) 
nan

>  <Assay Description>  (680) 
nan

>  <BAO Label>  (680) 
nan

$$$$

     RDKit          2D

 23 25  0  0  0  0  0  0  0  0999 V2000
    3.0000    0.0000    0.0000 C   0  0  0  0  0  0  0  0  0  0  0  0
    1.5000    0.0000    0.0000 C   0  0  0  0  0  0  0  0  0  0  0  0
    0.7500   -1.2990    0.0000 C   0  0  0  0  0  0  0  0  0  0  0  0
   -0.7500   -1.2990    0.0000 C   0  0  0  0  0  0  0  0  0  0  0  0
   -1.5000   -2.5981    0.0000 C   0  0  0  0  0  0  0  0  0  0  0  0
   -1.5000    0.0000    0.0000 N   0  0  0  0  0  0  0  0  0  0  0  0
   -0.7500    1.2990    0.0000 C   0  0  0  0  0  0  0  0  0  0  0  0
   -1.5000    2.5981    0.0000 N   0  0  0  0  0  0  0  0  0  0  0  0
   -2.9918    2.7549    0.0000 N   0  0  0  0  0  0  0  0  0  0  0  0
   -3.3037    4.2221    0.0000 C   0  0  0  0  0  0  0  0  0  0  0  0
   -4.6740    4.8322    0.0000 C   0  0  0  0  0  0  0  0  0  0  0  0
   -2.0046    4.9721    0.0000 C   0  0  0  0  0  0  0  0  0  0  0  0
   -0.8899    3.9684    0.0000 C   0  0  0  0  0  0  0  0  0  0  0  0
    0.5773    4.2803    0.0000 N   0  0  0  0  0  0  0  0  0  0  0  0
    1.0409    5.7068    0.0000 C   0  0  0  0  0  0  0  0  0  0  0  0
    0.0372    6.8216    0.0000 O   0  0  0  0  0  0  0  0  0  0  0  0
    2.5081    6.0187    0.0000 C   0  0  0  0  0  0  0  0  0  0  0  0
    3.5118    4.9040    0.0000 C   0  0  0  0  0  0  0  0  0  0  0  0
    4.9790    5.2159    0.0000 C   0  0  0  0  0  0  0  0  0  0  0  0
    5.4425    6.6424    0.0000 C   0  0  0  0  0  0  0  0  0  0  0  0
    4.4388    7.7572    0.0000 C   0  0  0  0  0  0  0  0  0  0  0  0
    2.9716    7.4453    0.0000 C   0  0  0  0  0  0  0  0  0  0  0  0
    0.7500    1.2990    0.0000 N   0  0  0  0  0  0  0  0  0  0  0  0
  1  2  1  0
  2  3  2  0
  3  4  1  0
  4  5  1  0
  4  6  2  0
  6  7  1  0
  7  8  1  0
  8  9  1  0
  9 10  2  0
 10 11  1  0
 10 12  1  0
 12 13  2  0
 13 14  1  0
 14 15  1  0
 15 16  2  0
 17 15  1  1
 17 18  1  0
 18 19  1  0
 19 20  2  0
 20 21  1  0
 21 22  1  0
  7 23  2  0
 23  2  1  0
 13  8  1  0
 22 17  1  0
M  END
>  <Compound_ID>  (681) 
C57682337

>  <Active>  (681) 
0.0

>  <Smiles>  (681) 
Cc1cc(C)nc(-n2nc(C)cc2NC(=O)[C@@H]2CC=CCC2)n1

>  <canonical_smi>  (681) 
Cc1cc(C)nc(-n2nc(C)cc2NC(=O)[C@@H]2CC=CCC2)n1

>  <Set>  (681) 
G2 inactive

>  <Set_type>  (681) 
Train

>  <MW>  (681) 
311.39

>  <HBD>  (681) 
1

>  <HBA>  (681) 
4

>  <NRB>  (681) 
3

>  <NR>  (681) 
3

>  <NAR>  (681) 
2

>  <PSA>  (681) 
72.7

>  <Standard Type>  (681) 
nan

>  <Standard Relation>  (681) 
nan

>  <Standard Units>  (681) 
nan

>  <Standard Value>  (681) 
nan

>  <Assay ChEMBL ID>  (681) 
nan

>  <Assay Description>  (681) 
nan

>  <BAO Label>  (681) 
nan

$$$$

     RDKit          2D

 29 32  0  0  0  0  0  0  0  0999 V2000
    3.2475    2.1406    0.0000 C   0  0  0  0  0  0  0  0  0  0  0  0
    2.1328    3.1443    0.0000 O   0  0  0  0  0  0  0  0  0  0  0  0
    0.7062    2.6807    0.0000 C   0  0  0  0  0  0  0  0  0  0  0  0
    0.3943    1.2135    0.0000 C   0  0  0  0  0  0  0  0  0  0  0  0
    1.2760    0.0000    0.0000 C   0  0  0  0  0  0  0  0  0  0  0  0
    0.3943   -1.2135    0.0000 C   0  0  0  0  0  0  0  0  0  0  0  0
   -1.0323   -0.7500    0.0000 O   0  0  0  0  0  0  0  0  0  0  0  0
   -1.0323    0.7500    0.0000 C   0  0  0  0  0  0  0  0  0  0  0  0
   -2.1470    1.7537    0.0000 C   0  0  0  0  0  0  0  0  0  0  0  0
   -1.8351    3.2209    0.0000 C   0  0  0  0  0  0  0  0  0  0  0  0
   -2.9499    4.2246    0.0000 O   0  0  0  0  0  0  0  0  0  0  0  0
   -2.6380    5.6918    0.0000 C   0  0  0  0  0  0  0  0  0  0  0  0
   -3.7527    6.6955    0.0000 C   0  0  0  0  0  0  0  0  0  0  0  0
   -3.4408    8.1628    0.0000 O   0  0  0  0  0  0  0  0  0  0  0  0
   -4.5556    9.1664    0.0000 C   0  0  0  0  0  0  0  0  0  0  0  0
   -4.2437   10.6337    0.0000 O   0  0  0  0  0  0  0  0  0  0  0  0
   -5.3584   11.6374    0.0000 C   0  0  0  0  0  0  0  0  0  0  0  0
   -5.0465   13.1046    0.0000 C   0  0  0  0  0  0  0  0  0  0  0  0
   -3.6200   13.5681    0.0000 O   0  0  0  0  0  0  0  0  0  0  0  0
   -6.7850   11.1738    0.0000 C   0  0  0  0  0  0  0  0  0  0  0  0
   -7.8997   12.1775    0.0000 O   0  0  0  0  0  0  0  0  0  0  0  0
   -7.0969    9.7066    0.0000 C   0  0  0  0  0  0  0  0  0  0  0  0
   -8.5234    9.2431    0.0000 O   0  0  0  0  0  0  0  0  0  0  0  0
   -5.9821    8.7029    0.0000 C   0  0  0  0  0  0  0  0  0  0  0  0
   -6.2940    7.2357    0.0000 O   0  0  0  0  0  0  0  0  0  0  0  0
   -1.2114    6.1554    0.0000 C   0  0  0  0  0  0  0  0  0  0  0  0
   -0.0967    5.1517    0.0000 C   0  0  0  0  0  0  0  0  0  0  0  0
    1.3299    5.6152    0.0000 O   0  0  0  0  0  0  0  0  0  0  0  0
   -0.4086    3.6844    0.0000 C   0  0  0  0  0  0  0  0  0  0  0  0
  1  2  1  0
  2  3  1  0
  3  4  2  0
  4  5  1  0
  5  6  2  0
  6  7  1  0
  7  8  1  0
  8  9  2  0
  9 10  1  0
 10 11  1  0
 11 12  1  0
 12 13  1  0
 13 14  1  0
 15 14  1  1
 15 16  1  0
 16 17  1  0
 17 18  1  6
 18 19  1  0
 17 20  1  0
 20 21  1  6
 20 22  1  0
 22 23  1  6
 22 24  1  0
 24 25  1  1
 12 26  2  0
 26 27  1  0
 27 28  2  0
 27 29  1  0
 29  3  1  0
  8  4  1  0
 29 10  2  0
 24 15  1  0
M  END
>  <Compound_ID>  (682) 
C04897163

>  <Active>  (682) 
0.0

>  <Smiles>  (682) 
COc1c2ccoc2cc2oc(CO[C@@H]3O[C@@H](CO)[C@@H](O)[C@@H](O)[C@@H]3O)cc(=O)c12

>  <canonical_smi>  (682) 
COc1c2ccoc2cc2oc(CO[C@@H]3O[C@@H](CO)[C@@H](O)[C@@H](O)[C@@H]3O)cc(=O)c12

>  <Set>  (682) 
G2 inactive

>  <Set_type>  (682) 
Train

>  <MW>  (682) 
408.36

>  <HBD>  (682) 
4

>  <HBA>  (682) 
10

>  <NRB>  (682) 
5

>  <NR>  (682) 
4

>  <NAR>  (682) 
3

>  <PSA>  (682) 
151.96

>  <Standard Type>  (682) 
nan

>  <Standard Relation>  (682) 
nan

>  <Standard Units>  (682) 
nan

>  <Standard Value>  (682) 
nan

>  <Assay ChEMBL ID>  (682) 
nan

>  <Assay Description>  (682) 
nan

>  <BAO Label>  (682) 
nan

$$$$

     RDKit          2D

 25 27  0  0  0  0  0  0  0  0999 V2000
   -5.4912    4.7648    0.0000 C   0  0  0  0  0  0  0  0  0  0  0  0
   -4.3764    3.7611    0.0000 O   0  0  0  0  0  0  0  0  0  0  0  0
   -2.9499    4.2246    0.0000 C   0  0  0  0  0  0  0  0  0  0  0  0
   -2.6380    5.6918    0.0000 O   0  0  0  0  0  0  0  0  0  0  0  0
   -1.8351    3.2209    0.0000 C   0  0  0  0  0  0  0  0  0  0  0  0
   -2.1470    1.7537    0.0000 C   0  0  0  0  0  0  0  0  0  0  0  0
   -3.5736    1.2902    0.0000 O   0  0  0  0  0  0  0  0  0  0  0  0
   -1.0323    0.7500    0.0000 C   0  0  0  0  0  0  0  0  0  0  0  0
    0.3943    1.2135    0.0000 C   0  0  0  0  0  0  0  0  0  0  0  0
    1.2760    0.0000    0.0000 N   0  0  0  0  0  0  0  0  0  0  0  0
    0.3943   -1.2135    0.0000 C   0  0  0  0  0  0  0  0  0  0  0  0
    0.8578   -2.6401    0.0000 C   0  0  0  0  0  0  0  0  0  0  0  0
   -0.1459   -3.7548    0.0000 O   0  0  0  0  0  0  0  0  0  0  0  0
    2.3250   -2.9520    0.0000 O   0  0  0  0  0  0  0  0  0  0  0  0
    2.7886   -4.3786    0.0000 C   0  0  0  0  0  0  0  0  0  0  0  0
    1.7849   -5.4933    0.0000 C   0  0  0  0  0  0  0  0  0  0  0  0
    2.2484   -6.9199    0.0000 C   0  0  0  0  0  0  0  0  0  0  0  0
    3.7156   -7.2317    0.0000 C   0  0  0  0  0  0  0  0  0  0  0  0
    4.7193   -6.1170    0.0000 C   0  0  0  0  0  0  0  0  0  0  0  0
    4.2558   -4.6904    0.0000 C   0  0  0  0  0  0  0  0  0  0  0  0
   -1.0323   -0.7500    0.0000 C   0  0  0  0  0  0  0  0  0  0  0  0
   -2.2458   -1.6317    0.0000 C   0  0  0  0  0  0  0  0  0  0  0  0
    0.7062    2.6807    0.0000 C   0  0  0  0  0  0  0  0  0  0  0  0
   -0.4086    3.6844    0.0000 C   0  0  0  0  0  0  0  0  0  0  0  0
   -0.0967    5.1517    0.0000 C   0  0  0  0  0  0  0  0  0  0  0  0
  1  2  1  0
  2  3  1  0
  3  4  2  0
  5  3  1  6
  5  6  1  0
  6  7  2  0
  6  8  1  0
  8  9  2  0
  9 10  1  0
 10 11  1  0
 11 12  1  0
 12 13  2  0
 12 14  1  0
 14 15  1  0
 15 16  1  0
 16 17  1  0
 17 18  1  0
 18 19  1  0
 19 20  1  0
 11 21  2  0
 21 22  1  0
  9 23  1  0
 23 24  1  0
 24 25  1  6
 24  5  1  0
 21  8  1  0
 20 15  1  0
M  END
>  <Compound_ID>  (683) 
C04488720

>  <Active>  (683) 
0.0

>  <Smiles>  (683) 
COC(=O)[C@H]1C(=O)c2c([nH]c(C(=O)OC3CCCCC3)c2C)C[C@H]1C

>  <canonical_smi>  (683) 
COC(=O)[C@H]1C(=O)c2c([nH]c(C(=O)OC3CCCCC3)c2C)C[C@H]1C

>  <Set>  (683) 
G2 inactive

>  <Set_type>  (683) 
Train

>  <MW>  (683) 
347.41

>  <HBD>  (683) 
1

>  <HBA>  (683) 
5

>  <NRB>  (683) 
3

>  <NR>  (683) 
3

>  <NAR>  (683) 
1

>  <PSA>  (683) 
85.46

>  <Standard Type>  (683) 
nan

>  <Standard Relation>  (683) 
nan

>  <Standard Units>  (683) 
nan

>  <Standard Value>  (683) 
nan

>  <Assay ChEMBL ID>  (683) 
nan

>  <Assay Description>  (683) 
nan

>  <BAO Label>  (683) 
nan

$$$$

     RDKit          2D

 22 25  0  0  0  0  0  0  0  0999 V2000
   -2.3734   -4.1931    0.0000 O   0  0  0  0  0  0  0  0  0  0  0  0
   -0.9148   -4.5433    0.0000 C   0  0  0  0  0  0  0  0  0  0  0  0
    0.1177   -3.4552    0.0000 C   0  0  0  0  0  0  0  0  0  0  0  0
   -0.0000   -1.9598    0.0000 C   0  0  0  0  0  0  0  0  0  0  0  0
    1.3858   -1.3858    0.0000 C   0  0  0  0  0  0  0  0  0  0  0  0
    1.9598    0.0000    0.0000 C   0  0  0  0  0  0  0  0  0  0  0  0
    1.3858    1.3858    0.0000 C   0  0  0  0  0  0  0  0  0  0  0  0
    0.0000    1.9598    0.0000 C   0  0  0  0  0  0  0  0  0  0  0  0
   -1.3858    1.3858    0.0000 C   0  0  0  0  0  0  0  0  0  0  0  0
   -1.9598    0.0000    0.0000 C   0  0  0  0  0  0  0  0  0  0  0  0
   -1.3858   -1.3858    0.0000 C   0  0  0  0  0  0  0  0  0  0  0  0
    2.3600   -2.5264    0.0000 S   0  0  0  0  0  0  0  0  0  0  0  0
    1.5762   -3.8054    0.0000 C   0  0  0  0  0  0  0  0  0  0  0  0
    2.0023   -5.2436    0.0000 N   0  0  0  0  0  0  0  0  0  0  0  0
    0.9697   -6.3317    0.0000 C   0  0  0  0  0  0  0  0  0  0  0  0
   -0.4888   -5.9815    0.0000 N   0  0  0  0  0  0  0  0  0  0  0  0
   -1.5214   -7.0696    0.0000 C   0  0  0  0  0  0  0  0  0  0  0  0
   -1.0953   -8.5078    0.0000 C   0  0  0  0  0  0  0  0  0  0  0  0
    0.3186   -9.0085    0.0000 N   0  0  0  0  0  0  0  0  0  0  0  0
    0.2794  -10.5080    0.0000 C   0  0  0  0  0  0  0  0  0  0  0  0
   -1.1589  -10.9340    0.0000 N   0  0  0  0  0  0  0  0  0  0  0  0
   -2.0085   -9.6978    0.0000 N   0  0  0  0  0  0  0  0  0  0  0  0
  1  2  2  0
  3  2  1  6
  3  4  1  0
  4  5  2  0
  5  6  1  0
  6  7  1  0
  7  8  1  0
  8  9  1  0
  9 10  1  0
 10 11  1  0
  5 12  1  0
 12 13  1  0
 13 14  1  6
 14 15  1  0
 15 16  1  0
 16 17  1  0
 17 18  1  0
 18 19  2  0
 19 20  1  0
 20 21  2  0
 21 22  1  0
 16  2  1  0
 22 18  1  0
 13  3  1  0
 11  4  1  0
M  END
>  <Compound_ID>  (684) 
C63847123

>  <Active>  (684) 
0.0

>  <Smiles>  (684) 
O=C1[C@@H]2C3=C(CCCCCC3)S[C@@H]2NCN1Cc1ncn[nH]1

>  <canonical_smi>  (684) 
O=C1[C@@H]2C3=C(CCCCCC3)S[C@@H]2NCN1Cc1ncn[nH]1

>  <Set>  (684) 
G2 inactive

>  <Set_type>  (684) 
Train

>  <MW>  (684) 
319.43

>  <HBD>  (684) 
2

>  <HBA>  (684) 
5

>  <NRB>  (684) 
2

>  <NR>  (684) 
4

>  <NAR>  (684) 
1

>  <PSA>  (684) 
73.91

>  <Standard Type>  (684) 
nan

>  <Standard Relation>  (684) 
nan

>  <Standard Units>  (684) 
nan

>  <Standard Value>  (684) 
nan

>  <Assay ChEMBL ID>  (684) 
nan

>  <Assay Description>  (684) 
nan

>  <BAO Label>  (684) 
nan

$$$$

     RDKit          2D

 19 20  0  0  0  0  0  0  0  0999 V2000
    6.0000   -2.5981    0.0000 C   0  0  0  0  0  0  0  0  0  0  0  0
    5.2500   -1.2990    0.0000 C   0  0  0  0  0  0  0  0  0  0  0  0
    3.7500   -1.2990    0.0000 C   0  0  0  0  0  0  0  0  0  0  0  0
    3.0000    0.0000    0.0000 O   0  0  0  0  0  0  0  0  0  0  0  0
    1.5000    0.0000    0.0000 C   0  0  0  0  0  0  0  0  0  0  0  0
    0.7500   -1.2990    0.0000 C   0  0  0  0  0  0  0  0  0  0  0  0
   -0.7500   -1.2990    0.0000 C   0  0  0  0  0  0  0  0  0  0  0  0
   -1.5000    0.0000    0.0000 C   0  0  0  0  0  0  0  0  0  0  0  0
   -0.7500    1.2990    0.0000 C   0  0  0  0  0  0  0  0  0  0  0  0
    0.7500    1.2990    0.0000 C   0  0  0  0  0  0  0  0  0  0  0  0
    1.2135    2.7256    0.0000 O   0  0  0  0  0  0  0  0  0  0  0  0
    0.0000    3.6073    0.0000 C   0  0  0  0  0  0  0  0  0  0  0  0
    1.0037    4.7220    0.0000 C   0  0  0  0  0  0  0  0  0  0  0  0
   -1.0037    4.7220    0.0000 C   0  0  0  0  0  0  0  0  0  0  0  0
   -1.2135    2.7256    0.0000 C   0  0  0  0  0  0  0  0  0  0  0  0
    3.0000   -2.5981    0.0000 C   0  0  0  0  0  0  0  0  0  0  0  0
    1.5000   -2.5981    0.0000 N   0  0  0  0  0  0  0  0  0  0  0  0
    3.7500   -3.8971    0.0000 N   0  0  0  0  0  0  0  0  0  0  0  0
    3.0000   -5.1962    0.0000 O   0  0  0  0  0  0  0  0  0  0  0  0
  1  2  1  0
  3  2  1  6
  3  4  1  0
  4  5  1  0
  5  6  2  0
  6  7  1  0
  7  8  2  0
  8  9  1  0
  9 10  2  0
 10 11  1  0
 11 12  1  0
 12 13  1  0
 12 14  1  0
 12 15  1  0
  3 16  1  0
 16 17  1  0
 16 18  2  0
 18 19  1  0
 10  5  1  0
 15  9  1  0
M  END
>  <Compound_ID>  (685) 
C43541114

>  <Active>  (685) 
0.0

>  <Smiles>  (685) 
CC[C@@H](Oc1cccc2c1OC(C)(C)C2)/C(N)=N/O

>  <canonical_smi>  (685) 
CC[C@@H](Oc1cccc2c1OC(C)(C)C2)/C(N)=N/O

>  <Set>  (685) 
G2 inactive

>  <Set_type>  (685) 
Train

>  <MW>  (685) 
264.32

>  <HBD>  (685) 
2

>  <HBA>  (685) 
4

>  <NRB>  (685) 
4

>  <NR>  (685) 
2

>  <NAR>  (685) 
1

>  <PSA>  (685) 
77.07

>  <Standard Type>  (685) 
nan

>  <Standard Relation>  (685) 
nan

>  <Standard Units>  (685) 
nan

>  <Standard Value>  (685) 
nan

>  <Assay ChEMBL ID>  (685) 
nan

>  <Assay Description>  (685) 
nan

>  <BAO Label>  (685) 
nan

$$$$

     RDKit          2D

 19 20  0  0  0  0  0  0  0  0999 V2000
    3.7500   -1.2990    0.0000 C   0  0  0  0  0  0  0  0  0  0  0  0
    3.0000    0.0000    0.0000 C   0  0  0  0  0  0  0  0  0  0  0  0
    1.5000    0.0000    0.0000 C   0  0  0  0  0  0  0  0  0  0  0  0
    0.7500   -1.2990    0.0000 C   0  0  0  0  0  0  0  0  0  0  0  0
   -0.7500   -1.2990    0.0000 C   0  0  0  0  0  0  0  0  0  0  0  0
   -1.5000    0.0000    0.0000 C   0  0  0  0  0  0  0  0  0  0  0  0
   -0.7500    1.2990    0.0000 C   0  0  0  0  0  0  0  0  0  0  0  0
    0.7500    1.2990    0.0000 C   0  0  0  0  0  0  0  0  0  0  0  0
    1.5000    2.5981    0.0000 N   0  0  0  0  0  2  0  0  0  0  0  0
    0.7500    3.8971    0.0000 S   0  0  0  0  0  0  0  0  0  0  0  0
   -0.5490    3.1471    0.0000 O   0  0  0  0  0  0  0  0  0  0  0  0
    2.0490    4.6471    0.0000 O   0  0  0  0  0  0  0  0  0  0  0  0
    0.0000    5.1962    0.0000 C   0  0  0  0  0  0  0  0  0  0  0  0
    0.7500    6.4952    0.0000 C   0  0  0  0  0  0  0  0  0  0  0  0
   -0.0000    7.7942    0.0000 C   0  0  0  0  0  0  0  0  0  0  0  0
   -1.5000    7.7942    0.0000 C   0  0  0  0  0  0  0  0  0  0  0  0
   -2.2500    6.4952    0.0000 N   0  0  0  0  0  4  0  0  0  0  0  0
   -1.5000    5.1962    0.0000 C   0  0  0  0  0  0  0  0  0  0  0  0
   -2.2500    3.8971    0.0000 N   0  0  0  0  0  0  0  0  0  0  0  0
  1  2  1  0
  2  3  1  0
  3  4  2  0
  4  5  1  0
  5  6  2  0
  6  7  1  0
  7  8  2  0
  8  9  1  0
  9 10  1  0
 10 11  2  0
 10 12  2  0
 10 13  1  0
 13 14  2  0
 14 15  1  0
 15 16  2  0
 16 17  1  0
 17 18  2  0
 18 19  1  0
  8  3  1  0
 18 13  1  0
M  CHG  2   9  -1  17   1
M  END
>  <Compound_ID>  (686) 
C50648847

>  <Active>  (686) 
0.0

>  <Smiles>  (686) 
CCc1ccccc1[N-]S(=O)(=O)c1ccc[nH+]c1N

>  <canonical_smi>  (686) 
CCc1ccccc1[N-]S(=O)(=O)c1ccc[nH+]c1N

>  <Set>  (686) 
G2 inactive

>  <Set_type>  (686) 
Train

>  <MW>  (686) 
277.35

>  <HBD>  (686) 
1

>  <HBA>  (686) 
3

>  <NRB>  (686) 
4

>  <NR>  (686) 
2

>  <NAR>  (686) 
2

>  <PSA>  (686) 
88.4

>  <Standard Type>  (686) 
nan

>  <Standard Relation>  (686) 
nan

>  <Standard Units>  (686) 
nan

>  <Standard Value>  (686) 
nan

>  <Assay ChEMBL ID>  (686) 
nan

>  <Assay Description>  (686) 
nan

>  <BAO Label>  (686) 
nan

$$$$

     RDKit          2D

 25 28  0  0  0  0  0  0  0  0999 V2000
    4.5813   -9.9130    0.0000 C   0  0  0  0  0  0  0  0  0  0  0  0
    3.2110   -9.3029    0.0000 C   0  0  0  0  0  0  0  0  0  0  0  0
    1.9975  -10.1845    0.0000 C   0  0  0  0  0  0  0  0  0  0  0  0
    0.6272   -9.5744    0.0000 C   0  0  0  0  0  0  0  0  0  0  0  0
    0.4704   -8.0826    0.0000 C   0  0  0  0  0  0  0  0  0  0  0  0
   -0.8999   -7.4725    0.0000 O   0  0  0  0  0  0  0  0  0  0  0  0
    1.6839   -7.2010    0.0000 C   0  0  0  0  0  0  0  0  0  0  0  0
    1.5271   -5.7092    0.0000 C   0  0  0  0  0  0  0  0  0  0  0  0
    2.7406   -4.8275    0.0000 N   0  0  0  0  0  0  0  0  0  0  0  0
    2.5838   -3.3357    0.0000 C   0  0  0  0  0  0  0  0  0  0  0  0
    3.7974   -2.4540    0.0000 O   0  0  0  0  0  0  0  0  0  0  0  0
    1.2135   -2.7256    0.0000 C   0  0  0  0  0  0  0  0  0  0  0  0
   -0.0000   -3.6073    0.0000 C   0  0  0  0  0  0  0  0  0  0  0  0
   -1.2135   -2.7256    0.0000 S   0  0  0  0  0  0  0  0  0  0  0  0
   -0.7500   -1.2990    0.0000 C   0  0  0  0  0  0  0  0  0  0  0  0
    0.7500   -1.2990    0.0000 C   0  0  0  0  0  0  0  0  0  0  0  0
    1.5000    0.0000    0.0000 C   0  0  0  0  0  0  0  0  0  0  0  0
    0.7500    1.2990    0.0000 C   0  0  0  0  0  0  0  0  0  0  0  0
   -0.7500    1.2990    0.0000 N   0  0  0  0  0  4  0  0  0  0  0  0
   -1.5000    2.5981    0.0000 C   0  0  0  0  0  0  0  0  0  0  0  0
   -0.7500    3.8971    0.0000 C   0  0  0  0  0  0  0  0  0  0  0  0
   -3.0000    2.5981    0.0000 C   0  0  0  0  0  0  0  0  0  0  0  0
   -1.5000    0.0000    0.0000 C   0  0  0  0  0  0  0  0  0  0  0  0
    0.1568   -5.0991    0.0000 N   0  0  0  0  0  0  0  0  0  0  0  0
    3.0542   -7.8111    0.0000 C   0  0  0  0  0  0  0  0  0  0  0  0
  1  2  1  0
  2  3  2  0
  3  4  1  0
  4  5  2  0
  5  6  1  0
  5  7  1  0
  8  7  1  6
  8  9  1  0
  9 10  2  0
 10 11  1  0
 10 12  1  0
 12 13  2  0
 13 14  1  0
 14 15  1  0
 15 16  2  0
 16 17  1  0
 17 18  1  0
 18 19  1  0
 19 20  1  0
 20 21  1  0
 20 22  1  0
 19 23  1  0
 13 24  1  0
  7 25  2  0
 25  2  1  0
 24  8  1  0
 16 12  1  0
 23 15  1  0
M  CHG  1  19   1
M  END
>  <Compound_ID>  (687) 
C04553996

>  <Active>  (687) 
0.0

>  <Smiles>  (687) 
Cc1ccc(O)c([C@H]2N=C(O)c3c(sc4c3CC[NH+](C(C)C)C4)N2)c1

>  <canonical_smi>  (687) 
Cc1ccc(O)c([C@H]2N=C(O)c3c(sc4c3CC[NH+](C(C)C)C4)N2)c1

>  <Set>  (687) 
G2 inactive

>  <Set_type>  (687) 
Train

>  <MW>  (687) 
358.49

>  <HBD>  (687) 
4

>  <HBA>  (687) 
3

>  <NRB>  (687) 
2

>  <NR>  (687) 
4

>  <NAR>  (687) 
2

>  <PSA>  (687) 
69.29

>  <Standard Type>  (687) 
nan

>  <Standard Relation>  (687) 
nan

>  <Standard Units>  (687) 
nan

>  <Standard Value>  (687) 
nan

>  <Assay ChEMBL ID>  (687) 
nan

>  <Assay Description>  (687) 
nan

>  <BAO Label>  (687) 
nan

$$$$

     RDKit          2D

 24 27  0  0  0  0  0  0  0  0999 V2000
   -4.4918   -5.3529    0.0000 C   0  0  0  0  0  0  0  0  0  0  0  0
   -3.0000   -5.1962    0.0000 C   0  0  0  0  0  0  0  0  0  0  0  0
   -3.7500   -3.8971    0.0000 C   0  0  0  0  0  0  0  0  0  0  0  0
   -3.0000   -2.5981    0.0000 C   0  0  0  0  0  0  0  0  0  0  0  0
   -1.5000   -2.5981    0.0000 C   0  0  0  0  0  0  0  0  0  0  0  0
   -0.7500   -3.8971    0.0000 C   0  0  0  0  0  0  0  0  0  0  0  0
    0.7500   -3.8971    0.0000 C   0  0  0  0  0  0  0  0  0  0  0  0
    1.5000   -2.5981    0.0000 C   0  0  0  0  0  0  0  0  0  0  0  0
    0.7500   -1.2990    0.0000 C   0  0  0  0  0  0  0  0  0  0  0  0
    1.5000    0.0000    0.0000 C   0  0  0  0  0  0  0  0  0  0  0  0
    0.7500    1.2990    0.0000 C   0  0  0  0  0  0  0  0  0  0  0  0
    1.5000    2.5981    0.0000 O   0  0  0  0  0  0  0  0  0  0  0  0
   -0.7500    1.2990    0.0000 C   0  0  0  0  0  0  0  0  0  0  0  0
   -1.5000    0.0000    0.0000 C   0  0  0  0  0  0  0  0  0  0  0  0
   -0.7500   -1.2990    0.0000 C   0  0  0  0  0  0  0  0  0  0  0  0
   -2.2500   -1.2990    0.0000 C   0  0  0  0  0  0  0  0  0  0  0  0
   -1.5000   -5.1962    0.0000 C   0  0  0  0  0  0  0  0  0  0  0  0
   -1.0365   -6.6227    0.0000 C   0  0  0  0  0  0  0  0  0  0  0  0
   -2.2500   -7.5044    0.0000 C   0  0  0  0  0  0  0  0  0  0  0  0
   -3.4635   -6.6227    0.0000 C   0  0  0  0  0  0  0  0  0  0  0  0
   -4.8901   -7.0863    0.0000 N   0  0  0  0  0  4  0  0  0  0  0  0
   -5.2020   -8.5535    0.0000 C   0  0  0  0  0  0  0  0  0  0  0  0
   -6.6286   -9.0170    0.0000 C   0  0  0  0  0  0  0  0  0  0  0  0
   -6.9404  -10.4842    0.0000 O   0  0  0  0  0  0  0  0  0  0  0  0
  2  1  1  1
  2  3  1  0
  3  4  1  0
  5  4  1  6
  5  6  1  0
  6  7  1  1
  7  8  1  0
  9  8  1  1
  9 10  1  0
 10 11  1  0
 11 12  1  1
 11 13  1  0
 13 14  1  0
 14 15  1  0
 15 16  1  1
  6 17  1  0
 17 18  1  1
 18 19  1  0
 19 20  1  0
 20 21  1  6
 21 22  1  0
 22 23  1  0
 23 24  1  0
 17  2  1  0
 20  2  1  0
 15  5  1  0
 15  9  1  0
M  CHG  1  21   1
M  END
>  <Compound_ID>  (688) 
C43737406

>  <Active>  (688) 
0.0

>  <Smiles>  (688) 
C[C@@]12CC[C@H]3[C@@H](CC[C@@H]4C[C@H](O)CC[C@]43C)[C@H]1CC[C@@H]2[NH2+]CCO

>  <canonical_smi>  (688) 
C[C@@]12CC[C@@H](O)C[C@H]1CC[C@@H]1[C@@H]2CC[C@@]2(C)[C@@H]([NH2+]CCO)CC[C@H]12

>  <Set>  (688) 
G2 inactive

>  <Set_type>  (688) 
Train

>  <MW>  (688) 
336.54

>  <HBD>  (688) 
3

>  <HBA>  (688) 
2

>  <NRB>  (688) 
3

>  <NR>  (688) 
4

>  <NAR>  (688) 
0

>  <PSA>  (688) 
57.07

>  <Standard Type>  (688) 
nan

>  <Standard Relation>  (688) 
nan

>  <Standard Units>  (688) 
nan

>  <Standard Value>  (688) 
nan

>  <Assay ChEMBL ID>  (688) 
nan

>  <Assay Description>  (688) 
nan

>  <BAO Label>  (688) 
nan

$$$$

     RDKit          2D

 14 15  0  0  0  0  0  0  0  0999 V2000
   -0.1459    3.7548    0.0000 N   0  0  0  0  0  4  0  0  0  0  0  0
    0.8578    2.6401    0.0000 C   0  0  0  0  0  0  0  0  0  0  0  0
    0.3943    1.2135    0.0000 C   0  0  0  0  0  0  0  0  0  0  0  0
    1.2760    0.0000    0.0000 C   0  0  0  0  0  0  0  0  0  0  0  0
    0.3943   -1.2135    0.0000 C   0  0  0  0  0  0  0  0  0  0  0  0
   -1.0323   -0.7500    0.0000 N   0  0  0  0  0  0  0  0  0  0  0  0
   -1.0323    0.7500    0.0000 N   0  0  0  0  0  0  0  0  0  0  0  0
    2.3250    2.9520    0.0000 C   0  0  0  0  0  0  0  0  0  0  0  0
    2.9352    4.3223    0.0000 C   0  0  0  0  0  0  0  0  0  0  0  0
    4.4269    4.1655    0.0000 C   0  0  0  0  0  0  0  0  0  0  0  0
    5.4306    5.2802    0.0000 Br  0  0  0  0  0  0  0  0  0  0  0  0
    4.7388    2.6983    0.0000 S   0  0  0  0  0  0  0  0  0  0  0  0
    3.4398    1.9483    0.0000 C   0  0  0  0  0  0  0  0  0  0  0  0
    3.2830    0.4565    0.0000 Br  0  0  0  0  0  0  0  0  0  0  0  0
  2  1  1  6
  2  3  1  0
  3  4  1  0
  4  5  2  0
  5  6  1  0
  6  7  1  0
  2  8  1  0
  8  9  1  0
  9 10  2  0
 10 11  1  0
 10 12  1  0
 12 13  1  0
 13 14  1  0
  7  3  2  0
 13  8  2  0
M  CHG  1   1   1
M  END
>  <Compound_ID>  (689) 
C62776069

>  <Active>  (689) 
0.0

>  <Smiles>  (689) 
[NH3+][C@@H](c1cc[nH]n1)c1cc(Br)sc1Br

>  <canonical_smi>  (689) 
[NH3+][C@@H](c1cc[nH]n1)c1cc(Br)sc1Br

>  <Set>  (689) 
G2 inactive

>  <Set_type>  (689) 
Train

>  <MW>  (689) 
338.05

>  <HBD>  (689) 
2

>  <HBA>  (689) 
1

>  <NRB>  (689) 
2

>  <NR>  (689) 
2

>  <NAR>  (689) 
2

>  <PSA>  (689) 
56.32

>  <Standard Type>  (689) 
nan

>  <Standard Relation>  (689) 
nan

>  <Standard Units>  (689) 
nan

>  <Standard Value>  (689) 
nan

>  <Assay ChEMBL ID>  (689) 
nan

>  <Assay Description>  (689) 
nan

>  <BAO Label>  (689) 
nan

$$$$

     RDKit          2D

 17 17  0  0  0  0  0  0  0  0999 V2000
    9.0000   -2.5981    0.0000 C   0  0  0  0  0  0  0  0  0  0  0  0
    7.5000   -2.5981    0.0000 C   0  0  0  0  0  0  0  0  0  0  0  0
    7.5000   -4.0981    0.0000 N   0  0  0  0  0  4  0  0  0  0  0  0
    6.0000   -2.5981    0.0000 C   0  0  0  0  0  0  0  0  0  0  0  0
    5.2500   -1.2990    0.0000 C   0  0  0  0  0  0  0  0  0  0  0  0
    3.7500   -1.2990    0.0000 C   0  0  0  0  0  0  0  0  0  0  0  0
    3.0000    0.0000    0.0000 S   0  0  0  0  0  0  0  0  0  0  0  0
    1.5000    0.0000    0.0000 C   0  0  0  0  0  0  0  0  0  0  0  0
    0.7500   -1.2990    0.0000 C   0  0  0  0  0  0  0  0  0  0  0  0
   -0.7500   -1.2990    0.0000 C   0  0  0  0  0  0  0  0  0  0  0  0
   -1.5000    0.0000    0.0000 C   0  0  0  0  0  0  0  0  0  0  0  0
   -3.0000    0.0000    0.0000 Br  0  0  0  0  0  0  0  0  0  0  0  0
   -0.7500    1.2990    0.0000 C   0  0  0  0  0  0  0  0  0  0  0  0
    0.7500    1.2990    0.0000 C   0  0  0  0  0  0  0  0  0  0  0  0
    7.5000   -1.0981    0.0000 C   0  0  0  0  0  0  0  0  0  0  0  0
    8.7990   -0.3481    0.0000 N   0  0  0  0  0  0  0  0  0  0  0  0
    6.2010   -0.3481    0.0000 O   0  0  0  0  0  0  0  0  0  0  0  0
  2  1  1  6
  2  3  1  0
  2  4  1  0
  4  5  1  0
  5  6  1  0
  6  7  1  0
  7  8  1  0
  8  9  2  0
  9 10  1  0
 10 11  2  0
 11 12  1  0
 11 13  1  0
 13 14  2  0
  2 15  1  0
 15 16  1  0
 15 17  2  0
 14  8  1  0
M  CHG  1   3   1
M  END
>  <Compound_ID>  (690) 
C45551506

>  <Active>  (690) 
0.0

>  <Smiles>  (690) 
C[C@]([NH3+])(CCCSc1ccc(Br)cc1)C(N)=O

>  <canonical_smi>  (690) 
C[C@]([NH3+])(CCCSc1ccc(Br)cc1)C(N)=O

>  <Set>  (690) 
G2 inactive

>  <Set_type>  (690) 
Train

>  <MW>  (690) 
318.26

>  <HBD>  (690) 
2

>  <HBA>  (690) 
2

>  <NRB>  (690) 
6

>  <NR>  (690) 
1

>  <NAR>  (690) 
1

>  <PSA>  (690) 
70.73

>  <Standard Type>  (690) 
nan

>  <Standard Relation>  (690) 
nan

>  <Standard Units>  (690) 
nan

>  <Standard Value>  (690) 
nan

>  <Assay ChEMBL ID>  (690) 
nan

>  <Assay Description>  (690) 
nan

>  <BAO Label>  (690) 
nan

$$$$

     RDKit          2D

 18 19  0  0  0  0  0  0  0  0999 V2000
    3.7500   -1.2990    0.0000 N   0  0  0  0  0  0  0  0  0  0  0  0
    3.0000    0.0000    0.0000 C   0  0  0  0  0  0  0  0  0  0  0  0
    3.7500    1.2990    0.0000 S   0  0  0  0  0  0  0  0  0  0  0  0
    1.5000    0.0000    0.0000 C   0  0  0  0  0  0  0  0  0  0  0  0
    0.7500   -1.2990    0.0000 C   0  0  0  0  0  0  0  0  0  0  0  0
   -0.7500   -1.2990    0.0000 C   0  0  0  0  0  0  0  0  0  0  0  0
   -1.5000   -2.5981    0.0000 N   0  0  0  0  0  0  0  0  0  0  0  0
   -3.0000   -2.5981    0.0000 C   0  0  0  0  0  0  0  0  0  0  0  0
   -3.7500   -1.2990    0.0000 C   0  0  0  0  0  0  0  0  0  0  0  0
   -5.2500   -1.2990    0.0000 C   0  0  0  0  0  0  0  0  0  0  0  0
   -6.0000   -2.5981    0.0000 C   0  0  0  0  0  0  0  0  0  0  0  0
   -7.5000   -2.5981    0.0000 Br  0  0  0  0  0  0  0  0  0  0  0  0
   -5.2500   -3.8971    0.0000 C   0  0  0  0  0  0  0  0  0  0  0  0
   -3.7500   -3.8971    0.0000 C   0  0  0  0  0  0  0  0  0  0  0  0
   -3.0000   -5.1962    0.0000 F   0  0  0  0  0  0  0  0  0  0  0  0
   -1.5000    0.0000    0.0000 C   0  0  0  0  0  0  0  0  0  0  0  0
   -0.7500    1.2990    0.0000 C   0  0  0  0  0  0  0  0  0  0  0  0
    0.7500    1.2990    0.0000 N   0  0  0  0  0  4  0  0  0  0  0  0
  1  2  1  0
  2  3  2  0
  2  4  1  0
  4  5  2  0
  5  6  1  0
  6  7  1  0
  7  8  1  0
  8  9  2  0
  9 10  1  0
 10 11  2  0
 11 12  1  0
 11 13  1  0
 13 14  2  0
 14 15  1  0
  6 16  2  0
 16 17  1  0
 17 18  2  0
 18  4  1  0
 14  8  1  0
M  CHG  1  18   1
M  END
>  <Compound_ID>  (691) 
C61811990

>  <Active>  (691) 
0.0

>  <Smiles>  (691) 
NC(=S)c1cc(Nc2ccc(Br)cc2F)cc[nH+]1

>  <canonical_smi>  (691) 
NC(=S)c1cc(Nc2ccc(Br)cc2F)cc[nH+]1

>  <Set>  (691) 
G2 inactive

>  <Set_type>  (691) 
Train

>  <MW>  (691) 
327.2

>  <HBD>  (691) 
2

>  <HBA>  (691) 
3

>  <NRB>  (691) 
3

>  <NR>  (691) 
2

>  <NAR>  (691) 
2

>  <PSA>  (691) 
52.19

>  <Standard Type>  (691) 
nan

>  <Standard Relation>  (691) 
nan

>  <Standard Units>  (691) 
nan

>  <Standard Value>  (691) 
nan

>  <Assay ChEMBL ID>  (691) 
nan

>  <Assay Description>  (691) 
nan

>  <BAO Label>  (691) 
nan

$$$$

     RDKit          2D

 18 19  0  0  0  0  0  0  0  0999 V2000
    5.2500   -1.2990    0.0000 C   0  0  0  0  0  0  0  0  0  0  0  0
    3.7500   -1.2990    0.0000 C   0  0  0  0  0  0  0  0  0  0  0  0
    3.0000    0.0000    0.0000 C   0  0  0  0  0  0  0  0  0  0  0  0
    1.5000    0.0000    0.0000 C   0  0  0  0  0  0  0  0  0  0  0  0
    0.7500   -1.2990    0.0000 C   0  0  0  0  0  0  0  0  0  0  0  0
   -0.7500   -1.2990    0.0000 C   0  0  0  0  0  0  0  0  0  0  0  0
   -1.5000   -2.5981    0.0000 O   0  0  0  0  0  0  0  0  0  0  0  0
   -1.5000    0.0000    0.0000 O   0  0  0  0  0  0  0  0  0  0  0  0
   -0.7500    1.2990    0.0000 C   0  0  0  0  0  0  0  0  0  0  0  0
   -1.5000    2.5981    0.0000 C   0  0  0  0  0  0  0  0  0  0  0  0
   -3.0000    2.5981    0.0000 C   0  0  0  0  0  0  0  0  0  0  0  0
   -3.7500    3.8971    0.0000 O   0  0  0  0  0  0  0  0  0  0  0  0
   -0.7500    3.8971    0.0000 C   0  0  0  0  0  0  0  0  0  0  0  0
   -1.5000    5.1962    0.0000 O   0  0  0  0  0  0  0  0  0  0  0  0
    0.7500    3.8971    0.0000 C   0  0  0  0  0  0  0  0  0  0  0  0
    1.5000    2.5981    0.0000 C   0  0  0  0  0  0  0  0  0  0  0  0
    3.0000    2.5981    0.0000 O   0  0  0  0  0  0  0  0  0  0  0  0
    0.7500    1.2990    0.0000 C   0  0  0  0  0  0  0  0  0  0  0  0
  1  2  1  0
  2  3  1  0
  3  4  1  0
  4  5  1  0
  5  6  2  0
  6  7  1  0
  6  8  1  0
  8  9  1  0
  9 10  2  0
 10 11  1  0
 11 12  2  0
 10 13  1  0
 13 14  1  0
 13 15  2  0
 15 16  1  0
 16 17  2  0
 16 18  1  0
 18  4  2  0
 18  9  1  0
M  END
>  <Compound_ID>  (692) 
C05807487

>  <Active>  (692) 
0.0

>  <Smiles>  (692) 
CCCc1cc(O)oc2c(C=O)c(O)cc(=O)c1-2

>  <canonical_smi>  (692) 
CCCc1cc(O)oc2c(C=O)c(O)cc(=O)c1-2

>  <Set>  (692) 
G2 inactive

>  <Set_type>  (692) 
Train

>  <MW>  (692) 
248.23

>  <HBD>  (692) 
2

>  <HBA>  (692) 
5

>  <NRB>  (692) 
3

>  <NR>  (692) 
2

>  <NAR>  (692) 
2

>  <PSA>  (692) 
87.74

>  <Standard Type>  (692) 
nan

>  <Standard Relation>  (692) 
nan

>  <Standard Units>  (692) 
nan

>  <Standard Value>  (692) 
nan

>  <Assay ChEMBL ID>  (692) 
nan

>  <Assay Description>  (692) 
nan

>  <BAO Label>  (692) 
nan

$$$$

     RDKit          2D

 18 19  0  0  0  0  0  0  0  0999 V2000
    0.7500   -3.8971    0.0000 C   0  0  0  0  0  0  0  0  0  0  0  0
    1.5000   -2.5981    0.0000 C   0  0  0  0  0  0  0  0  0  0  0  0
    3.0000   -2.5981    0.0000 S   0  0  0  0  0  0  0  0  0  0  0  0
    3.7500   -3.8971    0.0000 C   0  0  0  0  0  0  0  0  0  0  0  0
    5.2418   -4.0539    0.0000 C   0  0  0  0  0  0  0  0  0  0  0  0
    5.5537   -5.5211    0.0000 C   0  0  0  0  0  0  0  0  0  0  0  0
    4.2546   -6.2711    0.0000 C   0  0  0  0  0  0  0  0  0  0  0  0
    3.1399   -5.2674    0.0000 C   0  0  0  0  0  0  0  0  0  0  0  0
    0.7500   -1.2990    0.0000 C   0  0  0  0  0  0  0  0  0  0  0  0
    1.5000    0.0000    0.0000 N   0  0  0  0  0  0  0  0  0  0  0  0
    0.7500    1.2990    0.0000 C   0  0  0  0  0  0  0  0  0  0  0  0
    1.5000    2.5981    0.0000 N   0  0  0  0  0  0  0  0  0  0  0  0
   -0.7500    1.2990    0.0000 N   0  0  0  0  0  0  0  0  0  0  0  0
   -1.5000    0.0000    0.0000 C   0  0  0  0  0  0  0  0  0  0  0  0
   -3.0000    0.0000    0.0000 N   0  0  0  0  0  0  0  0  0  0  0  0
   -3.7500    1.2990    0.0000 C   0  0  0  0  0  0  0  0  0  0  0  0
   -3.7500   -1.2990    0.0000 C   0  0  0  0  0  0  0  0  0  0  0  0
   -0.7500   -1.2990    0.0000 N   0  0  0  0  0  0  0  0  0  0  0  0
  2  1  1  1
  2  3  1  0
  3  4  1  0
  4  5  1  0
  5  6  1  0
  6  7  1  0
  7  8  1  0
  2  9  1  0
  9 10  2  0
 10 11  1  0
 11 12  1  0
 11 13  2  0
 13 14  1  0
 14 15  1  0
 15 16  1  0
 15 17  1  0
 14 18  2  0
  8  4  1  0
 18  9  1  0
M  END
>  <Compound_ID>  (693) 
C24959476

>  <Active>  (693) 
0.0

>  <Smiles>  (693) 
C[C@H](SC1CCCC1)c1nc(N)nc(N(C)C)n1

>  <canonical_smi>  (693) 
C[C@H](SC1CCCC1)c1nc(N)nc(N(C)C)n1

>  <Set>  (693) 
G2 inactive

>  <Set_type>  (693) 
Train

>  <MW>  (693) 
267.4

>  <HBD>  (693) 
1

>  <HBA>  (693) 
6

>  <NRB>  (693) 
4

>  <NR>  (693) 
2

>  <NAR>  (693) 
1

>  <PSA>  (693) 
67.93

>  <Standard Type>  (693) 
nan

>  <Standard Relation>  (693) 
nan

>  <Standard Units>  (693) 
nan

>  <Standard Value>  (693) 
nan

>  <Assay ChEMBL ID>  (693) 
nan

>  <Assay Description>  (693) 
nan

>  <BAO Label>  (693) 
nan

$$$$

     RDKit          2D

 18 19  0  0  0  0  0  0  0  0999 V2000
   -3.5736    1.2902    0.0000 N   0  0  0  0  0  0  0  0  0  0  0  0
   -2.1470    1.7537    0.0000 C   0  0  0  0  0  0  0  0  0  0  0  0
   -1.8351    3.2209    0.0000 C   0  0  0  0  0  0  0  0  0  0  0  0
   -0.4086    3.6844    0.0000 C   0  0  0  0  0  0  0  0  0  0  0  0
    0.7062    2.6807    0.0000 C   0  0  0  0  0  0  0  0  0  0  0  0
    2.1328    3.1443    0.0000 O   0  0  0  0  0  0  0  0  0  0  0  0
    2.4446    4.6115    0.0000 C   0  0  0  0  0  0  0  0  0  0  0  0
    3.8712    5.0750    0.0000 C   0  0  0  0  0  0  0  0  0  0  0  0
    3.4077    6.5016    0.0000 F   0  0  0  0  0  0  0  0  0  0  0  0
    4.3347    3.6484    0.0000 F   0  0  0  0  0  0  0  0  0  0  0  0
    5.2978    5.5385    0.0000 C   0  0  0  0  0  0  0  0  0  0  0  0
    6.4125    4.5348    0.0000 F   0  0  0  0  0  0  0  0  0  0  0  0
    5.6097    7.0058    0.0000 F   0  0  0  0  0  0  0  0  0  0  0  0
    0.3943    1.2135    0.0000 C   0  0  0  0  0  0  0  0  0  0  0  0
    1.2760    0.0000    0.0000 N   0  0  0  0  0  0  0  0  0  0  0  0
    0.3943   -1.2135    0.0000 O   0  0  0  0  0  0  0  0  0  0  0  0
   -1.0323   -0.7500    0.0000 N   0  0  0  0  0  0  0  0  0  0  0  0
   -1.0323    0.7500    0.0000 C   0  0  0  0  0  0  0  0  0  0  0  0
  1  2  1  0
  2  3  2  0
  3  4  1  0
  4  5  2  0
  5  6  1  0
  6  7  1  0
  7  8  1  0
  8  9  1  0
  8 10  1  0
  8 11  1  0
 11 12  1  0
 11 13  1  0
  5 14  1  0
 14 15  2  0
 15 16  1  0
 16 17  1  0
 17 18  2  0
 18  2  1  0
 18 14  1  0
M  END
>  <Compound_ID>  (694) 
C35675975

>  <Active>  (694) 
0.0

>  <Smiles>  (694) 
Nc1ccc(OCC(F)(F)C(F)F)c2nonc12

>  <canonical_smi>  (694) 
Nc1ccc(OCC(F)(F)C(F)F)c2nonc12

>  <Set>  (694) 
G2 inactive

>  <Set_type>  (694) 
Train

>  <MW>  (694) 
265.17

>  <HBD>  (694) 
1

>  <HBA>  (694) 
5

>  <NRB>  (694) 
4

>  <NR>  (694) 
2

>  <NAR>  (694) 
2

>  <PSA>  (694) 
74.17

>  <Standard Type>  (694) 
nan

>  <Standard Relation>  (694) 
nan

>  <Standard Units>  (694) 
nan

>  <Standard Value>  (694) 
nan

>  <Assay ChEMBL ID>  (694) 
nan

>  <Assay Description>  (694) 
nan

>  <BAO Label>  (694) 
nan

$$$$

     RDKit          2D

 20 23  0  0  0  0  0  0  0  0999 V2000
    5.2500   -3.8971    0.0000 C   0  0  0  0  0  0  0  0  0  0  0  0
    3.7500   -3.8971    0.0000 C   0  0  0  0  0  0  0  0  0  0  0  0
    3.0000   -2.5981    0.0000 N   0  0  0  0  0  4  0  0  0  0  0  0
    1.5000   -2.5981    0.0000 C   0  0  0  0  0  0  0  0  0  0  0  0
    0.7500   -3.8971    0.0000 C   0  0  0  0  0  0  0  0  0  0  0  0
    0.7500   -1.2990    0.0000 C   0  0  0  0  0  0  0  0  0  0  0  0
    1.5000    0.0000    0.0000 C   0  0  0  0  0  0  0  0  0  0  0  0
    0.7500    1.2990    0.0000 C   0  0  0  0  0  0  0  0  0  0  0  0
   -0.7500    1.2990    0.0000 C   0  0  0  0  0  0  0  0  0  0  0  0
   -1.5000    0.0000    0.0000 C   0  0  0  0  0  0  0  0  0  0  0  0
    1.7010   -0.7500    0.0000 C   0  0  0  0  0  0  0  0  0  0  0  0
    3.0000   -0.0000    0.0000 C   0  0  0  0  0  0  0  0  0  0  0  0
    2.2500    1.2990    0.0000 C   0  0  0  0  0  0  0  0  0  0  0  0
    2.2500   -1.2990    0.0000 C   0  0  0  0  0  0  0  0  0  0  0  0
   -0.7500   -1.2990    0.0000 C   0  0  0  0  0  0  0  0  0  0  0  0
    3.0000   -5.1962    0.0000 C   0  0  0  0  0  0  0  0  0  0  0  0
    3.6101   -6.5665    0.0000 N   0  0  0  0  0  0  0  0  0  0  0  0
    2.4954   -7.5702    0.0000 N   0  0  0  0  0  0  0  0  0  0  0  0
    1.1963   -6.8202    0.0000 N   0  0  0  0  0  2  0  0  0  0  0  0
    1.5082   -5.3529    0.0000 N   0  0  0  0  0  0  0  0  0  0  0  0
  2  1  1  1
  2  3  1  0
  3  4  1  0
  4  5  1  6
  4  6  1  0
  6  7  1  0
  7  8  1  0
  8  9  1  0
  9 10  1  0
 10 11  1  0
 11 12  1  0
 12 13  1  0
 12 14  1  0
 10 15  1  0
  2 16  1  0
 16 17  1  0
 17 18  2  0
 18 19  1  0
 19 20  1  0
 14  6  1  0
 20 16  2  0
 15  6  1  0
 13  8  1  0
M  CHG  2   3   1  19  -1
M  END
>  <Compound_ID>  (695) 
C44923199

>  <Active>  (695) 
0.0

>  <Smiles>  (695) 
C[C@H]([NH2+][C@H](C)C12CC3CC(CC(C3)C1)C2)c1nn[n-]n1

>  <canonical_smi>  (695) 
C[C@H]([NH2+][C@H](C)C12CC3CC(CC(C3)C1)C2)c1nn[n-]n1

>  <Set>  (695) 
G2 inactive

>  <Set_type>  (695) 
Train

>  <MW>  (695) 
275.4

>  <HBD>  (695) 
1

>  <HBA>  (695) 
4

>  <NRB>  (695) 
4

>  <NR>  (695) 
5

>  <NAR>  (695) 
1

>  <PSA>  (695) 
69.38

>  <Standard Type>  (695) 
nan

>  <Standard Relation>  (695) 
nan

>  <Standard Units>  (695) 
nan

>  <Standard Value>  (695) 
nan

>  <Assay ChEMBL ID>  (695) 
nan

>  <Assay Description>  (695) 
nan

>  <BAO Label>  (695) 
nan

$$$$

     RDKit          2D

 26 30  0  0  0  0  0  0  0  0999 V2000
    2.4446    4.6115    0.0000 O   0  0  0  0  0  0  0  0  0  0  0  0
    1.3299    5.6152    0.0000 C   0  0  0  0  0  0  0  0  0  0  0  0
   -0.0967    5.1517    0.0000 N   0  0  0  0  0  0  0  0  0  0  0  0
   -0.4086    3.6844    0.0000 C   0  0  0  0  0  0  0  0  0  0  0  0
    0.7062    2.6807    0.0000 C   0  0  0  0  0  0  0  0  0  0  0  0
    0.3943    1.2135    0.0000 C   0  0  0  0  0  0  0  0  0  0  0  0
    1.2760    0.0000    0.0000 C   0  0  0  0  0  0  0  0  0  0  0  0
    0.3943   -1.2135    0.0000 C   0  0  0  0  0  0  0  0  0  0  0  0
   -1.0323   -0.7500    0.0000 N   0  0  0  0  0  0  0  0  0  0  0  0
   -1.0323    0.7500    0.0000 C   0  0  0  0  0  0  0  0  0  0  0  0
   -2.1470    1.7537    0.0000 C   0  0  0  0  0  0  0  0  0  0  0  0
   -1.8351    3.2209    0.0000 C   0  0  0  0  0  0  0  0  0  0  0  0
    1.6418    7.0824    0.0000 C   0  0  0  0  0  0  0  0  0  0  0  0
    0.5271    8.0861    0.0000 C   0  0  0  0  0  0  0  0  0  0  0  0
    0.8389    9.5533    0.0000 C   0  0  0  0  0  0  0  0  0  0  0  0
    2.2655   10.0169    0.0000 C   0  0  0  0  0  0  0  0  0  0  0  0
    3.3802    9.0132    0.0000 C   0  0  0  0  0  0  0  0  0  0  0  0
    3.0684    7.5459    0.0000 C   0  0  0  0  0  0  0  0  0  0  0  0
    4.6793    9.7632    0.0000 S   0  0  0  0  0  0  0  0  0  0  0  0
    4.3674   11.2304    0.0000 C   0  0  0  0  0  0  0  0  0  0  0  0
    5.3711   12.3451    0.0000 N   0  0  0  0  0  0  0  0  0  0  0  0
    5.0592   13.8123    0.0000 C   0  0  0  0  0  0  0  0  0  0  0  0
    6.3583   14.5623    0.0000 C   0  0  0  0  0  0  0  0  0  0  0  0
    7.4730   13.5586    0.0000 C   0  0  0  0  0  0  0  0  0  0  0  0
    6.8629   12.1883    0.0000 C   0  0  0  0  0  0  0  0  0  0  0  0
    2.8756   11.3872    0.0000 N   0  0  0  0  0  0  0  0  0  0  0  0
  1  2  2  0
  2  3  1  0
  3  4  1  0
  4  5  2  0
  5  6  1  0
  6  7  2  0
  7  8  1  0
  8  9  2  0
  9 10  1  0
 10 11  1  1
 11 12  2  0
  2 13  1  0
 13 14  2  0
 14 15  1  0
 15 16  2  0
 16 17  1  0
 17 18  2  0
 17 19  1  0
 19 20  1  0
 20 21  1  1
 21 22  1  0
 22 23  2  0
 23 24  1  0
 24 25  2  0
 20 26  1  0
 12  4  1  0
 18 13  1  0
 25 21  1  0
 10  6  1  0
 26 16  1  0
M  END
>  <Compound_ID>  (696) 
C39955381

>  <Active>  (696) 
0.0

>  <Smiles>  (696) 
O=C(NC1=CC2=CC=N[C@H]2C=C1)c1ccc2c(c1)S[C@H](n1cccc1)N2

>  <canonical_smi>  (696) 
O=C(NC1=CC2=CC=N[C@H]2C=C1)c1ccc2c(c1)S[C@H](n1cccc1)N2

>  <Set>  (696) 
G2 inactive

>  <Set_type>  (696) 
Train

>  <MW>  (696) 
360.44

>  <HBD>  (696) 
2

>  <HBA>  (696) 
3

>  <NRB>  (696) 
3

>  <NR>  (696) 
5

>  <NAR>  (696) 
2

>  <PSA>  (696) 
58.42

>  <Standard Type>  (696) 
nan

>  <Standard Relation>  (696) 
nan

>  <Standard Units>  (696) 
nan

>  <Standard Value>  (696) 
nan

>  <Assay ChEMBL ID>  (696) 
nan

>  <Assay Description>  (696) 
nan

>  <BAO Label>  (696) 
nan

$$$$

     RDKit          2D

 24 27  0  0  0  0  0  0  0  0999 V2000
    2.1766   -4.6157    0.0000 C   0  0  0  0  0  0  0  0  0  0  0  0
    2.6401   -3.1891    0.0000 C   0  0  0  0  0  0  0  0  0  0  0  0
    3.1036   -1.7626    0.0000 C   0  0  0  0  0  0  0  0  0  0  0  0
    4.0667   -3.6527    0.0000 C   0  0  0  0  0  0  0  0  0  0  0  0
    1.2135   -2.7256    0.0000 C   0  0  0  0  0  0  0  0  0  0  0  0
   -0.0000   -3.6073    0.0000 N   0  0  0  0  0  0  0  0  0  0  0  0
   -1.2135   -2.7256    0.0000 N   0  0  0  0  0  0  0  0  0  0  0  0
   -0.7500   -1.2990    0.0000 C   0  0  0  0  0  0  0  0  0  0  0  0
    0.7500   -1.2990    0.0000 C   0  0  0  0  0  0  0  0  0  0  0  0
    1.5000    0.0000    0.0000 C   0  0  0  0  0  0  0  0  0  0  0  0
    0.7500    1.2990    0.0000 N   0  0  0  0  0  0  0  0  0  0  0  0
    1.5000    2.5981    0.0000 C   0  0  0  0  0  0  0  0  0  0  0  0
    3.0000    2.5981    0.0000 C   0  0  0  0  0  0  0  0  0  0  0  0
    3.8817    3.8116    0.0000 C   0  0  0  0  0  0  0  0  0  0  0  0
    5.3083    3.3481    0.0000 C   0  0  0  0  0  0  0  0  0  0  0  0
    5.3083    1.8481    0.0000 C   0  0  0  0  0  0  0  0  0  0  0  0
    6.5218    0.9664    0.0000 C   0  0  0  0  0  0  0  0  0  0  0  0
    7.9484    1.4299    0.0000 C   0  0  0  0  0  0  0  0  0  0  0  0
    8.8301    0.2164    0.0000 C   0  0  0  0  0  0  0  0  0  0  0  0
    7.9484   -0.9971    0.0000 N   0  0  0  0  0  0  0  0  0  0  0  0
    6.5218   -0.5336    0.0000 N   0  0  0  0  0  0  0  0  0  0  0  0
    3.8817    1.3846    0.0000 S   0  0  0  0  0  0  0  0  0  0  0  0
   -0.7500    1.2990    0.0000 C   0  0  0  0  0  0  0  0  0  0  0  0
   -1.5000    0.0000    0.0000 C   0  0  0  0  0  0  0  0  0  0  0  0
  1  2  1  0
  2  3  1  0
  2  4  1  0
  5  2  1  1
  5  6  1  0
  6  7  1  0
  7  8  1  0
  8  9  2  0
  9 10  1  0
 10 11  1  0
 11 12  1  0
 12 13  1  0
 13 14  2  0
 14 15  1  0
 15 16  2  0
 17 16  1  6
 17 18  1  0
 18 19  2  0
 19 20  1  0
 20 21  2  0
 16 22  1  0
 11 23  1  0
 23 24  1  0
  9  5  1  0
 22 13  1  0
 24  8  1  0
 21 17  1  0
M  END
>  <Compound_ID>  (697) 
C39405289

>  <Active>  (697) 
0.0

>  <Smiles>  (697) 
CC(C)(C)[C@H]1NNC2=C1CN(Cc1ccc([C@@H]3C=CN=N3)s1)CC2

>  <canonical_smi>  (697) 
CC(C)(C)[C@H]1NNC2=C1CN(Cc1ccc([C@@H]3C=CN=N3)s1)CC2

>  <Set>  (697) 
G2 inactive

>  <Set_type>  (697) 
Train

>  <MW>  (697) 
343.5

>  <HBD>  (697) 
2

>  <HBA>  (697) 
3

>  <NRB>  (697) 
3

>  <NR>  (697) 
4

>  <NAR>  (697) 
1

>  <PSA>  (697) 
52.02

>  <Standard Type>  (697) 
nan

>  <Standard Relation>  (697) 
nan

>  <Standard Units>  (697) 
nan

>  <Standard Value>  (697) 
nan

>  <Assay ChEMBL ID>  (697) 
nan

>  <Assay Description>  (697) 
nan

>  <BAO Label>  (697) 
nan

$$$$

     RDKit          2D

  7  7  0  0  0  0  0  0  0  0999 V2000
    2.7760    0.0000    0.0000 O   0  0  0  0  0  0  0  0  0  0  0  0
    1.2760    0.0000    0.0000 C   0  0  0  0  0  0  0  0  0  0  0  0
    0.3943    1.2135    0.0000 O   0  0  0  0  0  0  0  0  0  0  0  0
   -1.0323    0.7500    0.0000 C   0  0  0  0  0  0  0  0  0  0  0  0
   -1.0323   -0.7500    0.0000 C   0  0  0  0  0  0  0  0  0  0  0  0
   -2.2458   -1.6317    0.0000 Cl  0  0  0  0  0  0  0  0  0  0  0  0
    0.3943   -1.2135    0.0000 O   0  0  0  0  0  0  0  0  0  0  0  0
  1  2  2  0
  2  3  1  0
  3  4  1  0
  4  5  2  0
  5  6  1  0
  5  7  1  0
  7  2  1  0
M  END
>  <Compound_ID>  (698) 
C01760795

>  <Active>  (698) 
0.0

>  <Smiles>  (698) 
O=c1occ(Cl)o1

>  <canonical_smi>  (698) 
O=c1occ(Cl)o1

>  <Set>  (698) 
G2 inactive

>  <Set_type>  (698) 
Train

>  <MW>  (698) 
120.49

>  <HBD>  (698) 
0

>  <HBA>  (698) 
3

>  <NRB>  (698) 
0

>  <NR>  (698) 
1

>  <NAR>  (698) 
1

>  <PSA>  (698) 
43.35

>  <Standard Type>  (698) 
nan

>  <Standard Relation>  (698) 
nan

>  <Standard Units>  (698) 
nan

>  <Standard Value>  (698) 
nan

>  <Assay ChEMBL ID>  (698) 
nan

>  <Assay Description>  (698) 
nan

>  <BAO Label>  (698) 
nan

$$$$

     RDKit          2D

 10 10  0  0  0  0  0  0  0  0999 V2000
    5.0260   -1.2990    0.0000 C   0  0  0  0  0  0  0  0  0  0  0  0
    3.5260   -1.2990    0.0000 C   0  0  0  0  0  0  0  0  0  0  0  0
    2.7760    0.0000    0.0000 O   0  0  0  0  0  0  0  0  0  0  0  0
    1.2760    0.0000    0.0000 P   0  0  0  0  0  0  0  0  0  0  0  0
    0.3943    1.2135    0.0000 O   0  0  0  0  0  0  0  0  0  0  0  0
   -1.0323    0.7500    0.0000 C   0  0  0  0  0  0  0  0  0  0  0  0
   -2.2458    1.6317    0.0000 C   0  0  0  0  0  0  0  0  0  0  0  0
   -1.0323   -0.7500    0.0000 C   0  0  0  0  0  0  0  0  0  0  0  0
   -2.2458   -1.6317    0.0000 C   0  0  0  0  0  0  0  0  0  0  0  0
    0.3943   -1.2135    0.0000 O   0  0  0  0  0  0  0  0  0  0  0  0
  1  2  1  0
  2  3  1  0
  3  4  1  0
  4  5  1  0
  5  6  1  0
  6  7  1  1
  6  8  1  0
  8  9  1  6
  8 10  1  0
 10  4  1  0
M  END
>  <Compound_ID>  (699) 
C01705243

>  <Active>  (699) 
0.0

>  <Smiles>  (699) 
CCOP1O[C@H](C)[C@@H](C)O1

>  <canonical_smi>  (699) 
CCOP1O[C@H](C)[C@@H](C)O1

>  <Set>  (699) 
G2 inactive

>  <Set_type>  (699) 
Train

>  <MW>  (699) 
164.14

>  <HBD>  (699) 
0

>  <HBA>  (699) 
3

>  <NRB>  (699) 
2

>  <NR>  (699) 
1

>  <NAR>  (699) 
0

>  <PSA>  (699) 
27.69

>  <Standard Type>  (699) 
nan

>  <Standard Relation>  (699) 
nan

>  <Standard Units>  (699) 
nan

>  <Standard Value>  (699) 
nan

>  <Assay ChEMBL ID>  (699) 
nan

>  <Assay Description>  (699) 
nan

>  <BAO Label>  (699) 
nan

$$$$

     RDKit          2D

 11 10  0  0  0  0  0  0  0  0999 V2000
   -0.0000   -1.5000    0.0000 N   0  0  0  0  0  0  0  0  0  0  0  0
    0.0000    0.0000    0.0000 C   0  0  0  0  0  0  0  0  0  0  0  0
    0.0000    1.5000    0.0000 C   0  0  0  0  0  0  0  0  0  0  0  0
   -1.2990    2.2500    0.0000 C   0  0  0  0  0  0  0  0  0  0  0  0
   -2.5981    3.0000    0.0000 N   0  0  0  0  0  0  0  0  0  0  0  0
    1.2990    2.2500    0.0000 C   0  0  0  0  0  0  0  0  0  0  0  0
    1.2990    3.7500    0.0000 C   0  0  0  0  0  0  0  0  0  0  0  0
    2.5981    4.5000    0.0000 C   0  0  0  0  0  0  0  0  0  0  0  0
    3.8971    5.2500    0.0000 N   0  0  0  0  0  0  0  0  0  0  0  0
    0.0000    4.5000    0.0000 C   0  0  0  0  0  0  0  0  0  0  0  0
   -1.2990    5.2500    0.0000 N   0  0  0  0  0  0  0  0  0  0  0  0
  1  2  3  0
  2  3  1  0
  3  4  1  0
  4  5  3  0
  3  6  2  0
  6  7  1  0
  7  8  1  0
  8  9  3  0
  7 10  1  0
 10 11  3  0
M  END
>  <Compound_ID>  (700) 
C01578024

>  <Active>  (700) 
0.0

>  <Smiles>  (700) 
N#CC(C#N)=CC(C#N)C#N

>  <canonical_smi>  (700) 
N#CC(C#N)=CC(C#N)C#N

>  <Set>  (700) 
G2 inactive

>  <Set_type>  (700) 
Train

>  <MW>  (700) 
142.12

>  <HBD>  (700) 
0

>  <HBA>  (700) 
4

>  <NRB>  (700) 
1

>  <NR>  (700) 
0

>  <NAR>  (700) 
0

>  <PSA>  (700) 
95.16

>  <Standard Type>  (700) 
nan

>  <Standard Relation>  (700) 
nan

>  <Standard Units>  (700) 
nan

>  <Standard Value>  (700) 
nan

>  <Assay ChEMBL ID>  (700) 
nan

>  <Assay Description>  (700) 
nan

>  <BAO Label>  (700) 
nan

$$$$

     RDKit          2D

  7  7  0  0  0  0  0  0  0  0999 V2000
    3.5260   -1.2990    0.0000 Cl  0  0  0  0  0  0  0  0  0  0  0  0
    2.7760    0.0000    0.0000 C   0  0  0  0  0  0  0  0  0  0  0  0
    1.2760    0.0000    0.0000 C   0  0  0  0  0  0  0  0  0  0  0  0
    0.3943    1.2135    0.0000 N   0  0  0  0  0  0  0  0  0  0  0  0
   -1.0323    0.7500    0.0000 N   0  0  0  0  0  0  0  0  0  0  0  0
   -1.0323   -0.7500    0.0000 C   0  0  0  0  0  0  0  0  0  0  0  0
    0.3943   -1.2135    0.0000 O   0  0  0  0  0  0  0  0  0  0  0  0
  1  2  1  0
  2  3  1  0
  3  4  2  0
  4  5  1  0
  5  6  2  0
  6  7  1  0
  7  3  1  0
M  END
>  <Compound_ID>  (701) 
C03844434

>  <Active>  (701) 
0.0

>  <Smiles>  (701) 
ClCc1nnco1

>  <canonical_smi>  (701) 
ClCc1nnco1

>  <Set>  (701) 
G2 inactive

>  <Set_type>  (701) 
Train

>  <MW>  (701) 
118.52

>  <HBD>  (701) 
0

>  <HBA>  (701) 
3

>  <NRB>  (701) 
1

>  <NR>  (701) 
1

>  <NAR>  (701) 
1

>  <PSA>  (701) 
38.92

>  <Standard Type>  (701) 
nan

>  <Standard Relation>  (701) 
nan

>  <Standard Units>  (701) 
nan

>  <Standard Value>  (701) 
nan

>  <Assay ChEMBL ID>  (701) 
nan

>  <Assay Description>  (701) 
nan

>  <BAO Label>  (701) 
nan

$$$$

     RDKit          2D

  8  8  0  0  0  0  0  0  0  0999 V2000
    3.0000    0.0000    0.0000 C   0  0  0  0  0  0  0  0  0  0  0  0
    1.5000    0.0000    0.0000 C   0  0  0  0  0  0  0  0  0  0  0  0
    0.7500   -1.2990    0.0000 C   0  0  0  0  0  0  0  0  0  0  0  0
   -0.7500   -1.2990    0.0000 C   0  0  0  0  0  0  0  0  0  0  0  0
   -1.5000    0.0000    0.0000 O   0  0  0  0  0  0  0  0  0  0  0  0
   -0.7500    1.2990    0.0000 S   0  0  0  0  0  4  0  0  0  0  0  0
   -1.5000    2.5981    0.0000 O   0  0  0  0  0  0  0  0  0  0  0  0
    0.7500    1.2990    0.0000 O   0  0  0  0  0  0  0  0  0  0  0  0
  2  1  1  1
  2  3  1  0
  3  4  1  0
  4  5  1  0
  6  5  1  1
  6  7  2  0
  6  8  1  0
  8  2  1  0
M  END
>  <Compound_ID>  (702) 
C04578224

>  <Active>  (702) 
0.0

>  <Smiles>  (702) 
C[C@H]1CCO[S@@](=O)O1

>  <canonical_smi>  (702) 
C[C@H]1CCO[S@@](=O)O1

>  <Set>  (702) 
G2 inactive

>  <Set_type>  (702) 
Train

>  <MW>  (702) 
136.17

>  <HBD>  (702) 
0

>  <HBA>  (702) 
3

>  <NRB>  (702) 
0

>  <NR>  (702) 
1

>  <NAR>  (702) 
0

>  <PSA>  (702) 
35.53

>  <Standard Type>  (702) 
nan

>  <Standard Relation>  (702) 
nan

>  <Standard Units>  (702) 
nan

>  <Standard Value>  (702) 
nan

>  <Assay ChEMBL ID>  (702) 
nan

>  <Assay Description>  (702) 
nan

>  <BAO Label>  (702) 
nan

$$$$

     RDKit          2D

 11 11  0  0  0  0  0  0  0  0999 V2000
    2.3907    1.0037    0.0000 C   0  0  0  0  0  0  0  0  0  0  0  0
    1.2760    0.0000    0.0000 C   0  0  0  0  0  0  0  0  0  0  0  0
    2.3907   -1.0037    0.0000 C   0  0  0  0  0  0  0  0  0  0  0  0
    0.3943    1.2135    0.0000 C   0  0  0  0  0  0  0  0  0  0  0  0
   -1.0323    0.7500    0.0000 O   0  0  0  0  0  0  0  0  0  0  0  0
   -1.0323   -0.7500    0.0000 C   0  0  0  0  0  0  0  0  0  0  0  0
   -2.2458   -1.6317    0.0000 O   0  0  0  0  0  0  0  0  0  0  0  0
    0.3943   -1.2135    0.0000 C   0  0  0  0  0  0  0  0  0  0  0  0
    0.8578   -2.6401    0.0000 C   0  0  0  0  0  0  0  0  0  0  0  0
    2.3250   -2.9520    0.0000 C   0  0  0  0  0  0  0  0  0  0  0  0
    3.7923   -3.2638    0.0000 N   0  0  0  0  0  0  0  0  0  0  0  0
  1  2  1  0
  2  3  1  0
  2  4  1  0
  4  5  1  0
  5  6  1  0
  6  7  2  0
  6  8  1  0
  8  9  2  0
  9 10  1  0
 10 11  3  0
  8  2  1  0
M  END
>  <Compound_ID>  (703) 
C17109959

>  <Active>  (703) 
0.0

>  <Smiles>  (703) 
CC1(C)COC(=O)/C1=C/C#N

>  <canonical_smi>  (703) 
CC1(C)COC(=O)/C1=C/C#N

>  <Set>  (703) 
G2 inactive

>  <Set_type>  (703) 
Train

>  <MW>  (703) 
151.16

>  <HBD>  (703) 
0

>  <HBA>  (703) 
3

>  <NRB>  (703) 
0

>  <NR>  (703) 
1

>  <NAR>  (703) 
0

>  <PSA>  (703) 
50.09

>  <Standard Type>  (703) 
nan

>  <Standard Relation>  (703) 
nan

>  <Standard Units>  (703) 
nan

>  <Standard Value>  (703) 
nan

>  <Assay ChEMBL ID>  (703) 
nan

>  <Assay Description>  (703) 
nan

>  <BAO Label>  (703) 
nan

$$$$

     RDKit          2D

 11 12  0  0  0  0  0  0  0  0999 V2000
   -0.0967    5.1517    0.0000 C   0  0  0  0  0  0  0  0  0  0  0  0
   -0.4086    3.6844    0.0000 N   0  0  0  0  0  0  0  0  0  0  0  0
    0.7062    2.6807    0.0000 C   0  0  0  0  0  0  0  0  0  0  0  0
    0.3943    1.2135    0.0000 N   0  0  0  0  0  0  0  0  0  0  0  0
    1.2760    0.0000    0.0000 C   0  0  0  0  0  0  0  0  0  0  0  0
    0.3943   -1.2135    0.0000 C   0  0  0  0  0  0  0  0  0  0  0  0
   -1.0323   -0.7500    0.0000 C   0  0  0  0  0  0  0  0  0  0  0  0
   -1.0323    0.7500    0.0000 N   0  0  0  0  0  0  0  0  0  0  0  0
   -2.1470    1.7537    0.0000 C   0  0  0  0  0  0  0  0  0  0  0  0
   -1.8351    3.2209    0.0000 N   0  0  0  0  0  0  0  0  0  0  0  0
   -2.9499    4.2246    0.0000 C   0  0  0  0  0  0  0  0  0  0  0  0
  1  2  1  0
  2  3  1  0
  3  4  1  0
  4  5  1  0
  5  6  1  0
  6  7  1  0
  7  8  1  0
  8  9  1  0
  9 10  1  0
 10 11  1  0
 10  2  1  0
  8  4  1  0
M  END
>  <Compound_ID>  (704) 
C19168626

>  <Active>  (704) 
0.0

>  <Smiles>  (704) 
CN1CN2CCCN2CN1C

>  <canonical_smi>  (704) 
CN1CN2CCCN2CN1C

>  <Set>  (704) 
G2 inactive

>  <Set_type>  (704) 
Train

>  <MW>  (704) 
156.23

>  <HBD>  (704) 
0

>  <HBA>  (704) 
4

>  <NRB>  (704) 
0

>  <NR>  (704) 
2

>  <NAR>  (704) 
0

>  <PSA>  (704) 
12.96

>  <Standard Type>  (704) 
nan

>  <Standard Relation>  (704) 
nan

>  <Standard Units>  (704) 
nan

>  <Standard Value>  (704) 
nan

>  <Assay ChEMBL ID>  (704) 
nan

>  <Assay Description>  (704) 
nan

>  <BAO Label>  (704) 
nan

$$$$

     RDKit          2D

 11 11  0  0  0  0  0  0  0  0999 V2000
    6.0000   -2.5981    0.0000 C   0  0  0  0  0  0  0  0  0  0  0  0
    5.2500   -1.2990    0.0000 O   0  0  0  0  0  0  0  0  0  0  0  0
    3.7500   -1.2990    0.0000 N   0  0  0  0  0  0  0  0  0  0  0  0
    3.0000    0.0000    0.0000 C   0  0  0  0  0  0  0  0  0  0  0  0
    1.5000    0.0000    0.0000 C   0  0  0  0  0  0  0  0  0  0  0  0
    0.7500   -1.2990    0.0000 C   0  0  0  0  0  0  0  0  0  0  0  0
   -0.7500   -1.2990    0.0000 C   0  0  0  0  0  0  0  0  0  0  0  0
   -1.5000    0.0000    0.0000 C   0  0  0  0  0  0  0  0  0  0  0  0
   -0.7500    1.2990    0.0000 N   0  0  0  0  0  0  0  0  0  0  0  0
   -1.5000    2.5981    0.0000 C   0  0  0  0  0  0  0  0  0  0  0  0
    0.7500    1.2990    0.0000 C   0  0  0  0  0  0  0  0  0  0  0  0
  1  2  1  0
  2  3  1  0
  3  4  2  0
  4  5  1  0
  5  6  2  0
  6  7  1  0
  7  8  1  0
  8  9  1  0
  9 10  1  0
  9 11  1  0
 11  5  1  0
M  END
>  <Compound_ID>  (705) 
C27638049

>  <Active>  (705) 
0.0

>  <Smiles>  (705) 
CO/N=C/C1=CCCN(C)C1

>  <canonical_smi>  (705) 
CO/N=C/C1=CCCN(C)C1

>  <Set>  (705) 
G2 inactive

>  <Set_type>  (705) 
Train

>  <MW>  (705) 
154.21

>  <HBD>  (705) 
0

>  <HBA>  (705) 
2

>  <NRB>  (705) 
2

>  <NR>  (705) 
1

>  <NAR>  (705) 
0

>  <PSA>  (705) 
24.83

>  <Standard Type>  (705) 
nan

>  <Standard Relation>  (705) 
nan

>  <Standard Units>  (705) 
nan

>  <Standard Value>  (705) 
nan

>  <Assay ChEMBL ID>  (705) 
nan

>  <Assay Description>  (705) 
nan

>  <BAO Label>  (705) 
nan

$$$$

     RDKit          2D

  9  9  0  0  0  0  0  0  0  0999 V2000
    2.1213    1.0607    0.0000 O   0  0  0  0  0  0  0  0  0  0  0  0
    1.0607    0.0000    0.0000 S   0  0  0  0  0  0  0  0  0  0  0  0
    2.1213   -1.0607    0.0000 O   0  0  0  0  0  0  0  0  0  0  0  0
   -0.0000   -1.0607    0.0000 O   0  0  0  0  0  0  0  0  0  0  0  0
   -1.0607    0.0000    0.0000 C   0  0  0  0  0  0  0  0  0  0  0  0
   -2.5607    0.0000    0.0000 F   0  0  0  0  0  0  0  0  0  0  0  0
    0.0000    1.0607    0.0000 C   0  0  0  0  0  0  0  0  0  0  0  0
   -1.0607    2.1213    0.0000 F   0  0  0  0  0  0  0  0  0  0  0  0
    1.0607    2.1213    0.0000 F   0  0  0  0  0  0  0  0  0  0  0  0
  1  2  2  0
  2  3  2  0
  2  4  1  0
  4  5  1  0
  5  6  1  6
  5  7  1  0
  7  8  1  0
  7  9  1  0
  7  2  1  0
M  END
>  <Compound_ID>  (706) 
C38949179

>  <Active>  (706) 
0.0

>  <Smiles>  (706) 
O=S1(=O)O[C@H](F)C1(F)F

>  <canonical_smi>  (706) 
O=S1(=O)O[C@H](F)C1(F)F

>  <Set>  (706) 
G2 inactive

>  <Set_type>  (706) 
Train

>  <MW>  (706) 
162.09

>  <HBD>  (706) 
0

>  <HBA>  (706) 
3

>  <NRB>  (706) 
0

>  <NR>  (706) 
1

>  <NAR>  (706) 
0

>  <PSA>  (706) 
43.37

>  <Standard Type>  (706) 
nan

>  <Standard Relation>  (706) 
nan

>  <Standard Units>  (706) 
nan

>  <Standard Value>  (706) 
nan

>  <Assay ChEMBL ID>  (706) 
nan

>  <Assay Description>  (706) 
nan

>  <BAO Label>  (706) 
nan

$$$$

     RDKit          2D

 10 10  0  0  0  0  0  0  0  0999 V2000
    3.7500   -1.2990    0.0000 C   0  0  0  0  0  0  0  0  0  0  0  0
    3.0000    0.0000    0.0000 O   0  0  0  0  0  0  0  0  0  0  0  0
    1.5000    0.0000    0.0000 C   0  0  0  0  0  0  0  0  0  0  0  0
    0.7500   -1.2990    0.0000 C   0  0  0  0  0  0  0  0  0  0  0  0
   -0.7500   -1.2990    0.0000 C   0  0  0  0  0  0  0  0  0  0  0  0
   -1.5000    0.0000    0.0000 C   0  0  0  0  0  0  0  0  0  0  0  0
   -0.7500    1.2990    0.0000 C   0  0  0  0  0  0  0  0  0  0  0  0
   -1.5000    2.5981    0.0000 C   0  0  0  0  0  0  0  0  0  0  0  0
   -0.7500    3.8971    0.0000 O   0  0  0  0  0  0  0  0  0  0  0  0
    0.7500    1.2990    0.0000 O   0  0  0  0  0  0  0  0  0  0  0  0
  1  2  1  0
  3  2  1  6
  3  4  1  0
  4  5  2  0
  5  6  1  0
  6  7  1  0
  7  8  1  1
  8  9  2  0
  7 10  1  0
 10  3  1  0
M  END
>  <Compound_ID>  (707) 
C39061088

>  <Active>  (707) 
0.0

>  <Smiles>  (707) 
CO[C@@H]1C=CC[C@@H](C=O)O1

>  <canonical_smi>  (707) 
CO[C@@H]1C=CC[C@@H](C=O)O1

>  <Set>  (707) 
G2 inactive

>  <Set_type>  (707) 
Train

>  <MW>  (707) 
142.15

>  <HBD>  (707) 
0

>  <HBA>  (707) 
3

>  <NRB>  (707) 
2

>  <NR>  (707) 
1

>  <NAR>  (707) 
0

>  <PSA>  (707) 
35.53

>  <Standard Type>  (707) 
nan

>  <Standard Relation>  (707) 
nan

>  <Standard Units>  (707) 
nan

>  <Standard Value>  (707) 
nan

>  <Assay ChEMBL ID>  (707) 
nan

>  <Assay Description>  (707) 
nan

>  <BAO Label>  (707) 
nan

$$$$

     RDKit          2D

 10 10  0  0  0  0  0  0  0  0999 V2000
    3.5260   -1.2990    0.0000 C   0  0  0  0  0  0  0  0  0  0  0  0
    2.7760    0.0000    0.0000 C   0  0  0  0  0  0  0  0  0  0  0  0
    1.2760    0.0000    0.0000 C   0  0  0  0  0  0  0  0  0  0  0  0
    0.3943    1.2135    0.0000 C   0  0  0  0  0  0  0  0  0  0  0  0
   -1.0323    0.7500    0.0000 O   0  0  0  0  0  0  0  0  0  0  0  0
   -1.0323   -0.7500    0.0000 C   0  0  0  0  0  0  0  0  0  0  0  0
   -2.2458   -1.6317    0.0000 C   0  0  0  0  0  0  0  0  0  0  0  0
    0.3943   -1.2135    0.0000 N   0  0  0  0  0  0  0  0  0  0  0  0
    0.8578   -2.6401    0.0000 C   0  0  0  0  0  0  0  0  0  0  0  0
   -0.1459   -3.7548    0.0000 O   0  0  0  0  0  0  0  0  0  0  0  0
  1  2  1  0
  3  2  1  6
  3  4  1  0
  4  5  1  0
  5  6  1  0
  6  7  1  6
  6  8  1  0
  8  9  1  0
  9 10  2  0
  8  3  1  0
M  END
>  <Compound_ID>  (708) 
C39061278

>  <Active>  (708) 
0.0

>  <Smiles>  (708) 
CC[C@H]1CO[C@@H](C)N1C=O

>  <canonical_smi>  (708) 
CC[C@H]1CO[C@@H](C)N1C=O

>  <Set>  (708) 
G2 inactive

>  <Set_type>  (708) 
Train

>  <MW>  (708) 
143.19

>  <HBD>  (708) 
0

>  <HBA>  (708) 
2

>  <NRB>  (708) 
2

>  <NR>  (708) 
1

>  <NAR>  (708) 
0

>  <PSA>  (708) 
29.54

>  <Standard Type>  (708) 
nan

>  <Standard Relation>  (708) 
nan

>  <Standard Units>  (708) 
nan

>  <Standard Value>  (708) 
nan

>  <Assay ChEMBL ID>  (708) 
nan

>  <Assay Description>  (708) 
nan

>  <BAO Label>  (708) 
nan

$$$$

     RDKit          2D

 11 11  0  0  0  0  0  0  0  0999 V2000
    2.3660    2.5981    0.0000 C   0  0  0  0  0  0  0  0  0  0  0  0
    3.1160    1.2990    0.0000 C   0  0  0  0  0  0  0  0  0  0  0  0
    2.3660    0.0000    0.0000 C   0  0  0  0  0  0  0  0  0  0  0  0
    0.8660    0.0000    0.0000 C   0  0  0  0  0  0  0  0  0  0  0  0
   -0.4330    0.7500    0.0000 O   0  0  0  0  0  0  0  0  0  0  0  0
   -0.4330   -0.7500    0.0000 C   0  0  0  0  0  0  0  0  0  0  0  0
   -1.1830   -2.0490    0.0000 C   0  0  0  0  0  0  0  0  0  0  0  0
   -0.4330   -3.3481    0.0000 O   0  0  0  0  0  0  0  0  0  0  0  0
   -2.6830   -2.0490    0.0000 N   0  0  0  0  0  0  0  0  0  0  0  0
   -3.4330   -3.3481    0.0000 C   0  0  0  0  0  0  0  0  0  0  0  0
   -3.4330   -0.7500    0.0000 C   0  0  0  0  0  0  0  0  0  0  0  0
  1  2  1  0
  2  3  2  0
  4  3  1  6
  4  5  1  0
  5  6  1  0
  6  7  1  6
  7  8  2  0
  7  9  1  0
  9 10  1  0
  9 11  1  0
  6  4  1  0
M  END
>  <Compound_ID>  (709) 
C39064963

>  <Active>  (709) 
0.0

>  <Smiles>  (709) 
C/C=C\[C@H]1O[C@H]1C(=O)N(C)C

>  <canonical_smi>  (709) 
C/C=C\[C@H]1O[C@H]1C(=O)N(C)C

>  <Set>  (709) 
G2 inactive

>  <Set_type>  (709) 
Train

>  <MW>  (709) 
155.2

>  <HBD>  (709) 
0

>  <HBA>  (709) 
2

>  <NRB>  (709) 
2

>  <NR>  (709) 
1

>  <NAR>  (709) 
0

>  <PSA>  (709) 
32.84

>  <Standard Type>  (709) 
nan

>  <Standard Relation>  (709) 
nan

>  <Standard Units>  (709) 
nan

>  <Standard Value>  (709) 
nan

>  <Assay ChEMBL ID>  (709) 
nan

>  <Assay Description>  (709) 
nan

>  <BAO Label>  (709) 
nan

$$$$

     RDKit          2D

  9  9  0  0  0  0  0  0  0  0999 V2000
    4.6160   -1.2990    0.0000 C   0  0  0  0  0  0  0  0  0  0  0  0
    3.1160   -1.2990    0.0000 C   0  0  0  0  0  0  0  0  0  0  0  0
    2.3660    0.0000    0.0000 C   0  0  0  0  0  0  0  0  0  0  0  0
    3.1160    1.2990    0.0000 O   0  0  0  0  0  0  0  0  0  0  0  0
    0.8660    0.0000    0.0000 N   0  0  0  0  0  0  0  0  0  0  0  0
   -0.4330    0.7500    0.0000 C   0  0  0  0  0  0  0  0  0  0  0  0
   -0.4330   -0.7500    0.0000 C   0  0  0  0  0  0  0  0  0  0  0  0
   -1.1830   -2.0490    0.0000 C   0  0  0  0  0  0  0  0  0  0  0  0
   -1.9330   -3.3481    0.0000 N   0  0  0  0  0  0  0  0  0  0  0  0
  1  2  2  0
  2  3  1  0
  3  4  2  0
  3  5  1  0
  5  6  1  0
  6  7  1  0
  7  8  1  1
  8  9  3  0
  7  5  1  0
M  END
>  <Compound_ID>  (710) 
C39073594

>  <Active>  (710) 
0.0

>  <Smiles>  (710) 
C=CC(=O)N1C[C@@H]1C#N

>  <canonical_smi>  (710) 
C=CC(=O)N1C[C@@H]1C#N

>  <Set>  (710) 
G2 inactive

>  <Set_type>  (710) 
Train

>  <MW>  (710) 
122.13

>  <HBD>  (710) 
0

>  <HBA>  (710) 
2

>  <NRB>  (710) 
1

>  <NR>  (710) 
1

>  <NAR>  (710) 
0

>  <PSA>  (710) 
43.87

>  <Standard Type>  (710) 
nan

>  <Standard Relation>  (710) 
nan

>  <Standard Units>  (710) 
nan

>  <Standard Value>  (710) 
nan

>  <Assay ChEMBL ID>  (710) 
nan

>  <Assay Description>  (710) 
nan

>  <BAO Label>  (710) 
nan

$$$$

     RDKit          2D

 10 10  0  0  0  0  0  0  0  0999 V2000
    3.7500   -1.2990    0.0000 C   0  0  0  0  0  0  0  0  0  0  0  0
    3.0000    0.0000    0.0000 N   0  0  0  0  0  0  0  0  0  0  0  0
    3.7500    1.2990    0.0000 C   0  0  0  0  0  0  0  0  0  0  0  0
    1.5000    0.0000    0.0000 C   0  0  0  0  0  0  0  0  0  0  0  0
    0.7500   -1.2990    0.0000 C   0  0  0  0  0  0  0  0  0  0  0  0
   -0.7500   -1.2990    0.0000 C   0  0  0  0  0  0  0  0  0  0  0  0
   -1.5000    0.0000    0.0000 C   0  0  0  0  0  0  0  0  0  0  0  0
   -0.7500    1.2990    0.0000 N   0  0  0  0  0  4  0  0  0  0  0  0
   -1.5000    2.5981    0.0000 O   0  0  0  0  0  1  0  0  0  0  0  0
    0.7500    1.2990    0.0000 O   0  0  0  0  0  0  0  0  0  0  0  0
  1  2  1  0
  2  3  1  0
  4  2  1  6
  4  5  1  0
  5  6  1  0
  6  7  1  0
  7  8  2  0
  8  9  1  0
  8 10  1  0
 10  4  1  0
M  CHG  2   8   1   9  -1
M  END
>  <Compound_ID>  (711) 
C39079336

>  <Active>  (711) 
0.0

>  <Smiles>  (711) 
CN(C)[C@@H]1CCC=[N+]([O-])O1

>  <canonical_smi>  (711) 
CN(C)[C@@H]1CCC=[N+]([O-])O1

>  <Set>  (711) 
G2 inactive

>  <Set_type>  (711) 
Train

>  <MW>  (711) 
144.17

>  <HBD>  (711) 
0

>  <HBA>  (711) 
3

>  <NRB>  (711) 
1

>  <NR>  (711) 
1

>  <NAR>  (711) 
0

>  <PSA>  (711) 
38.54

>  <Standard Type>  (711) 
nan

>  <Standard Relation>  (711) 
nan

>  <Standard Units>  (711) 
nan

>  <Standard Value>  (711) 
nan

>  <Assay ChEMBL ID>  (711) 
nan

>  <Assay Description>  (711) 
nan

>  <BAO Label>  (711) 
nan

$$$$

     RDKit          2D

 11 12  0  0  0  0  0  0  0  0999 V2000
   -4.1640    3.2626    0.0000 C   0  0  0  0  0  0  0  0  0  0  0  0
   -3.4140    1.9635    0.0000 C   0  0  0  0  0  0  0  0  0  0  0  0
   -4.1640    0.6645    0.0000 C   0  0  0  0  0  0  0  0  0  0  0  0
   -1.9140    1.9635    0.0000 C   0  0  0  0  0  0  0  0  0  0  0  0
   -1.0323    3.1771    0.0000 O   0  0  0  0  0  0  0  0  0  0  0  0
    0.3943    2.7135    0.0000 C   0  0  0  0  0  0  0  0  0  0  0  0
    0.3943    1.2135    0.0000 C   0  0  0  0  0  0  0  0  0  0  0  0
    1.2760    0.0000    0.0000 C   0  0  0  0  0  0  0  0  0  0  0  0
    0.3943   -1.2135    0.0000 N   0  0  0  0  0  0  0  0  0  0  0  0
   -1.0323   -0.7500    0.0000 N   0  0  0  0  0  0  0  0  0  0  0  0
   -1.0323    0.7500    0.0000 N   0  0  0  0  0  0  0  0  0  0  0  0
  1  2  1  0
  2  3  1  0
  4  2  1  6
  4  5  1  0
  5  6  1  0
  7  6  1  6
  7  8  1  0
  8  9  1  0
  9 10  2  0
 10 11  1  0
 11  4  1  0
 11  7  1  0
M  END
>  <Compound_ID>  (712) 
C39103361

>  <Active>  (712) 
0.0

>  <Smiles>  (712) 
CC(C)[C@@H]1OC[C@@H]2CN=NN21

>  <canonical_smi>  (712) 
CC(C)[C@@H]1OC[C@@H]2CN=NN21

>  <Set>  (712) 
G2 inactive

>  <Set_type>  (712) 
Train

>  <MW>  (712) 
155.2

>  <HBD>  (712) 
0

>  <HBA>  (712) 
2

>  <NRB>  (712) 
1

>  <NR>  (712) 
2

>  <NAR>  (712) 
0

>  <PSA>  (712) 
37.19

>  <Standard Type>  (712) 
nan

>  <Standard Relation>  (712) 
nan

>  <Standard Units>  (712) 
nan

>  <Standard Value>  (712) 
nan

>  <Assay ChEMBL ID>  (712) 
nan

>  <Assay Description>  (712) 
nan

>  <BAO Label>  (712) 
nan

$$$$

     RDKit          2D

 13 14  0  0  0  0  0  0  0  0999 V2000
    2.2500   -6.4952    0.0000 N   0  0  0  0  0  0  0  0  0  0  0  0
    1.5000   -5.1962    0.0000 C   0  0  0  0  0  0  0  0  0  0  0  0
    0.7500   -3.8971    0.0000 C   0  0  0  0  0  0  0  0  0  0  0  0
    1.5000   -2.5981    0.0000 N   0  0  0  0  0  0  0  0  0  0  0  0
    0.7500   -1.2990    0.0000 C   0  0  0  0  0  0  0  0  0  0  0  0
    1.5000    0.0000    0.0000 C   0  0  0  0  0  0  0  0  0  0  0  0
    0.7500    1.2990    0.0000 C   0  0  0  0  0  0  0  0  0  0  0  0
   -0.7500    1.2990    0.0000 C   0  0  0  0  0  0  0  0  0  0  0  0
   -1.5000    0.0000    0.0000 C   0  0  0  0  0  0  0  0  0  0  0  0
   -0.7500   -1.2990    0.0000 C   0  0  0  0  0  0  0  0  0  0  0  0
   -1.5000   -2.5981    0.0000 N   0  0  0  0  0  0  0  0  0  0  0  0
   -0.7500   -3.8971    0.0000 C   0  0  0  0  0  0  0  0  0  0  0  0
   -1.5000   -5.1962    0.0000 O   0  0  0  0  0  0  0  0  0  0  0  0
  1  2  3  0
  3  2  1  1
  3  4  1  0
  4  5  2  0
  5  6  1  0
  6  7  1  0
  7  8  1  0
  8  9  1  0
  9 10  1  0
 10 11  2  0
 11 12  1  0
 12 13  2  0
 12  3  1  0
 10  5  1  0
M  END
>  <Compound_ID>  (713) 
C39113972

>  <Active>  (713) 
0.0

>  <Smiles>  (713) 
N#C[C@@H]1N=C2CCCCC2=NC1=O

>  <canonical_smi>  (713) 
N#C[C@@H]1N=C2CCCCC2=NC1=O

>  <Set>  (713) 
G2 inactive

>  <Set_type>  (713) 
Train

>  <MW>  (713) 
175.19

>  <HBD>  (713) 
0

>  <HBA>  (713) 
2

>  <NRB>  (713) 
0

>  <NR>  (713) 
2

>  <NAR>  (713) 
0

>  <PSA>  (713) 
65.58

>  <Standard Type>  (713) 
nan

>  <Standard Relation>  (713) 
nan

>  <Standard Units>  (713) 
nan

>  <Standard Value>  (713) 
nan

>  <Assay ChEMBL ID>  (713) 
nan

>  <Assay Description>  (713) 
nan

>  <BAO Label>  (713) 
nan

$$$$

     RDKit          2D

  9  9  0  0  0  0  0  0  0  0999 V2000
    3.5260   -1.2990    0.0000 O   0  0  0  0  0  0  0  0  0  0  0  0
    2.7760    0.0000    0.0000 C   0  0  0  0  0  0  0  0  0  0  0  0
    1.2760    0.0000    0.0000 C   0  0  0  0  0  0  0  0  0  0  0  0
    0.3943    1.2135    0.0000 N   0  0  0  0  0  0  0  0  0  0  0  0
   -1.0323    0.7500    0.0000 N   0  0  0  0  0  0  0  0  0  0  0  0
   -1.0323   -0.7500    0.0000 C   0  0  0  0  0  0  0  0  0  0  0  0
   -2.2458   -1.6317    0.0000 C   0  0  0  0  0  0  0  0  0  0  0  0
   -3.6161   -1.0216    0.0000 O   0  0  0  0  0  0  0  0  0  0  0  0
    0.3943   -1.2135    0.0000 S   0  0  0  0  0  0  0  0  0  0  0  0
  1  2  2  0
  3  2  1  6
  3  4  1  0
  4  5  2  0
  5  6  1  0
  6  7  1  1
  7  8  2  0
  6  9  1  0
  9  3  1  0
M  END
>  <Compound_ID>  (714) 
C39140545

>  <Active>  (714) 
0.0

>  <Smiles>  (714) 
O=C[C@H]1N=N[C@H](C=O)S1

>  <canonical_smi>  (714) 
O=C[C@H]1N=N[C@H](C=O)S1

>  <Set>  (714) 
G2 inactive

>  <Set_type>  (714) 
Train

>  <MW>  (714) 
144.16

>  <HBD>  (714) 
0

>  <HBA>  (714) 
3

>  <NRB>  (714) 
2

>  <NR>  (714) 
1

>  <NAR>  (714) 
0

>  <PSA>  (714) 
58.86

>  <Standard Type>  (714) 
nan

>  <Standard Relation>  (714) 
nan

>  <Standard Units>  (714) 
nan

>  <Standard Value>  (714) 
nan

>  <Assay ChEMBL ID>  (714) 
nan

>  <Assay Description>  (714) 
nan

>  <BAO Label>  (714) 
nan

$$$$

     RDKit          2D

 11 12  0  0  0  0  0  0  0  0999 V2000
    2.6401   -3.1891    0.0000 C   0  0  0  0  0  0  0  0  0  0  0  0
    1.2135   -2.7256    0.0000 C   0  0  0  0  0  0  0  0  0  0  0  0
    0.7500   -1.2990    0.0000 C   0  0  0  0  0  0  0  0  0  0  0  0
    1.5000    0.0000    0.0000 C   0  0  0  0  0  0  0  0  0  0  0  0
    3.0000    0.0000    0.0000 O   0  0  0  0  0  0  0  0  0  0  0  0
    0.7500    1.2990    0.0000 C   0  0  0  0  0  0  0  0  0  0  0  0
   -0.7500    1.2990    0.0000 C   0  0  0  0  0  0  0  0  0  0  0  0
   -1.5000    0.0000    0.0000 C   0  0  0  0  0  0  0  0  0  0  0  0
   -0.7500   -1.2990    0.0000 C   0  0  0  0  0  0  0  0  0  0  0  0
   -1.2135   -2.7256    0.0000 N   0  0  0  0  0  0  0  0  0  0  0  0
   -0.0000   -3.6073    0.0000 N   0  0  0  0  0  0  0  0  0  0  0  0
  1  2  1  0
  2  3  2  0
  3  4  1  0
  4  5  2  0
  4  6  1  0
  6  7  1  0
  7  8  1  0
  9  8  1  1
  9 10  1  0
 10 11  2  0
 11  2  1  0
  9  3  1  0
M  END
>  <Compound_ID>  (715) 
C39276607

>  <Active>  (715) 
0.0

>  <Smiles>  (715) 
CC1=C2C(=O)CCC[C@@H]2N=N1

>  <canonical_smi>  (715) 
CC1=C2C(=O)CCC[C@@H]2N=N1

>  <Set>  (715) 
G2 inactive

>  <Set_type>  (715) 
Train

>  <MW>  (715) 
150.18

>  <HBD>  (715) 
0

>  <HBA>  (715) 
1

>  <NRB>  (715) 
0

>  <NR>  (715) 
2

>  <NAR>  (715) 
0

>  <PSA>  (715) 
41.79

>  <Standard Type>  (715) 
nan

>  <Standard Relation>  (715) 
nan

>  <Standard Units>  (715) 
nan

>  <Standard Value>  (715) 
nan

>  <Assay ChEMBL ID>  (715) 
nan

>  <Assay Description>  (715) 
nan

>  <BAO Label>  (715) 
nan

$$$$

     RDKit          2D

 11 12  0  0  0  0  0  0  0  0999 V2000
    3.5260   -1.2990    0.0000 O   0  0  0  0  0  0  0  0  0  0  0  0
    2.7760    0.0000    0.0000 C   0  0  0  0  0  0  0  0  0  0  0  0
    1.2760    0.0000    0.0000 C   0  0  0  0  0  0  0  0  0  0  0  0
    0.3943    1.2135    0.0000 C   0  0  0  0  0  0  0  0  0  0  0  0
   -1.0323    0.7500    0.0000 C   0  0  0  0  0  0  0  0  0  0  0  0
   -1.0323   -0.7500    0.0000 C   0  0  0  0  0  0  0  0  0  0  0  0
   -1.9140   -1.9635    0.0000 O   0  0  0  0  0  0  0  0  0  0  0  0
   -1.0323   -3.1771    0.0000 C   0  0  0  0  0  0  0  0  0  0  0  0
   -1.4958   -4.6036    0.0000 O   0  0  0  0  0  0  0  0  0  0  0  0
    0.3943   -2.7135    0.0000 C   0  0  0  0  0  0  0  0  0  0  0  0
    0.3943   -1.2135    0.0000 C   0  0  0  0  0  0  0  0  0  0  0  0
  1  2  2  0
  3  2  1  1
  3  4  1  0
  4  5  1  0
  6  5  1  6
  6  7  1  0
  7  8  1  0
  8  9  2  0
  8 10  1  0
 11 10  1  1
 11  3  1  0
 11  6  1  0
M  END
>  <Compound_ID>  (716) 
C39330392

>  <Active>  (716) 
0.0

>  <Smiles>  (716) 
O=C[C@@H]1CC[C@H]2OC(=O)C[C@H]12

>  <canonical_smi>  (716) 
O=C[C@@H]1CC[C@H]2OC(=O)C[C@H]12

>  <Set>  (716) 
G2 inactive

>  <Set_type>  (716) 
Train

>  <MW>  (716) 
154.16

>  <HBD>  (716) 
0

>  <HBA>  (716) 
3

>  <NRB>  (716) 
1

>  <NR>  (716) 
2

>  <NAR>  (716) 
0

>  <PSA>  (716) 
43.37

>  <Standard Type>  (716) 
nan

>  <Standard Relation>  (716) 
nan

>  <Standard Units>  (716) 
nan

>  <Standard Value>  (716) 
nan

>  <Assay ChEMBL ID>  (716) 
nan

>  <Assay Description>  (716) 
nan

>  <BAO Label>  (716) 
nan

$$$$

     RDKit          2D

 11 11  0  0  0  0  0  0  0  0999 V2000
    3.5260   -1.2990    0.0000 C   0  0  0  0  0  0  0  0  0  0  0  0
    2.7760    0.0000    0.0000 O   0  0  0  0  0  0  0  0  0  0  0  0
    1.2760    0.0000    0.0000 C   0  0  0  0  0  0  0  0  0  0  0  0
    0.3943    1.2135    0.0000 C   0  0  0  0  0  0  0  0  0  0  0  0
    0.8578    2.6401    0.0000 C   0  0  0  0  0  0  0  0  0  0  0  0
   -1.0323    0.7500    0.0000 N   0  0  0  0  0  4  0  0  0  0  0  0
   -2.2458    1.6317    0.0000 O   0  0  0  0  0  1  0  0  0  0  0  0
   -1.0323   -0.7500    0.0000 N   0  0  0  0  0  0  0  0  0  0  0  0
    0.3943   -1.2135    0.0000 C   0  0  0  0  0  0  0  0  0  0  0  0
    1.6933   -1.9635    0.0000 C   0  0  0  0  0  0  0  0  0  0  0  0
   -0.2158   -2.5838    0.0000 C   0  0  0  0  0  0  0  0  0  0  0  0
  1  2  1  0
  2  3  1  0
  3  4  2  0
  4  5  1  0
  4  6  1  0
  6  7  1  0
  6  8  2  0
  8  9  1  0
  9 10  1  0
  9 11  1  0
  9  3  1  0
M  CHG  2   6   1   7  -1
M  END
>  <Compound_ID>  (717) 
C45821474

>  <Active>  (717) 
0.0

>  <Smiles>  (717) 
COC1=C(C)[N+]([O-])=NC1(C)C

>  <canonical_smi>  (717) 
COC1=C(C)[N+]([O-])=NC1(C)C

>  <Set>  (717) 
G2 inactive

>  <Set_type>  (717) 
Train

>  <MW>  (717) 
156.19

>  <HBD>  (717) 
0

>  <HBA>  (717) 
2

>  <NRB>  (717) 
1

>  <NR>  (717) 
1

>  <NAR>  (717) 
0

>  <PSA>  (717) 
47.66

>  <Standard Type>  (717) 
nan

>  <Standard Relation>  (717) 
nan

>  <Standard Units>  (717) 
nan

>  <Standard Value>  (717) 
nan

>  <Assay ChEMBL ID>  (717) 
nan

>  <Assay Description>  (717) 
nan

>  <BAO Label>  (717) 
nan

$$$$

     RDKit          2D

  7  7  0  0  0  0  0  0  0  0999 V2000
    2.7760    0.0000    0.0000 C   0  0  0  0  0  0  0  0  0  0  0  0
    1.2760    0.0000    0.0000 C   0  0  0  0  0  0  0  0  0  0  0  0
    0.3943    1.2135    0.0000 N   0  0  0  0  0  0  0  0  0  0  0  0
   -1.0323    0.7500    0.0000 N   0  0  0  0  0  0  0  0  0  0  0  0
   -1.0323   -0.7500    0.0000 C   0  0  0  0  0  0  0  0  0  0  0  0
   -2.2458   -1.6317    0.0000 S   0  0  0  0  0  0  0  0  0  0  0  0
    0.3943   -1.2135    0.0000 O   0  0  0  0  0  0  0  0  0  0  0  0
  2  1  1  6
  2  3  1  0
  3  4  2  0
  4  5  1  0
  5  6  2  0
  5  7  1  0
  7  2  1  0
M  END
>  <Compound_ID>  (718) 
C39944151

>  <Active>  (718) 
0.0

>  <Smiles>  (718) 
C[C@H]1N=NC(=S)O1

>  <canonical_smi>  (718) 
C[C@H]1N=NC(=S)O1

>  <Set>  (718) 
G2 inactive

>  <Set_type>  (718) 
Train

>  <MW>  (718) 
116.14

>  <HBD>  (718) 
0

>  <HBA>  (718) 
2

>  <NRB>  (718) 
0

>  <NR>  (718) 
1

>  <NAR>  (718) 
0

>  <PSA>  (718) 
33.95

>  <Standard Type>  (718) 
nan

>  <Standard Relation>  (718) 
nan

>  <Standard Units>  (718) 
nan

>  <Standard Value>  (718) 
nan

>  <Assay ChEMBL ID>  (718) 
nan

>  <Assay Description>  (718) 
nan

>  <BAO Label>  (718) 
nan

$$$$

     RDKit          2D

 10 11  0  0  0  0  0  0  0  0999 V2000
   -3.5736    1.2902    0.0000 Cl  0  0  0  0  0  0  0  0  0  0  0  0
   -2.1470    1.7537    0.0000 C   0  0  0  0  0  0  0  0  0  0  0  0
   -1.8351    3.2209    0.0000 C   0  0  0  0  0  0  0  0  0  0  0  0
   -0.4086    3.6844    0.0000 C   0  0  0  0  0  0  0  0  0  0  0  0
    0.7062    2.6807    0.0000 N   0  0  0  0  0  0  0  0  0  0  0  0
    0.3943    1.2135    0.0000 C   0  0  0  0  0  0  0  0  0  0  0  0
    1.2760    0.0000    0.0000 N   0  0  0  0  0  0  0  0  0  0  0  0
    0.3943   -1.2135    0.0000 C   0  0  0  0  0  0  0  0  0  0  0  0
   -1.0323   -0.7500    0.0000 N   0  0  0  0  0  0  0  0  0  0  0  0
   -1.0323    0.7500    0.0000 C   0  0  0  0  0  0  0  0  0  0  0  0
  2  1  1  6
  2  3  1  0
  3  4  2  0
  4  5  1  0
  5  6  2  0
  6  7  1  0
  7  8  2  0
  8  9  1  0
  9 10  2  0
 10  2  1  0
 10  6  1  0
M  END
>  <Compound_ID>  (719) 
C64033246

>  <Active>  (719) 
0.0

>  <Smiles>  (719) 
Cl[C@@H]1C=CN=C2N=CN=C21

>  <canonical_smi>  (719) 
Cl[C@@H]1C=CN=C2N=CN=C21

>  <Set>  (719) 
G2 inactive

>  <Set_type>  (719) 
Train

>  <MW>  (719) 
153.57

>  <HBD>  (719) 
0

>  <HBA>  (719) 
0

>  <NRB>  (719) 
0

>  <NR>  (719) 
2

>  <NAR>  (719) 
0

>  <PSA>  (719) 
37.08

>  <Standard Type>  (719) 
nan

>  <Standard Relation>  (719) 
nan

>  <Standard Units>  (719) 
nan

>  <Standard Value>  (719) 
nan

>  <Assay ChEMBL ID>  (719) 
nan

>  <Assay Description>  (719) 
nan

>  <BAO Label>  (719) 
nan

$$$$

     RDKit          2D

 13 14  0  0  0  0  0  0  0  0999 V2000
   -2.6401   -3.1891    0.0000 C   0  0  0  0  0  0  0  0  0  0  0  0
   -1.2135   -2.7256    0.0000 C   0  0  0  0  0  0  0  0  0  0  0  0
   -0.0000   -3.6073    0.0000 N   0  0  0  0  0  0  0  0  0  0  0  0
    1.2135   -2.7256    0.0000 C   0  0  0  0  0  0  0  0  0  0  0  0
    2.6401   -3.1891    0.0000 C   0  0  0  0  0  0  0  0  0  0  0  0
    0.7500   -1.2990    0.0000 C   0  0  0  0  0  0  0  0  0  0  0  0
    1.5000    0.0000    0.0000 C   0  0  0  0  0  0  0  0  0  0  0  0
    3.0000    0.0000    0.0000 O   0  0  0  0  0  0  0  0  0  0  0  0
    0.7500    1.2990    0.0000 N   0  0  0  0  0  0  0  0  0  0  0  0
   -0.7500    1.2990    0.0000 N   0  0  0  0  0  0  0  0  0  0  0  0
   -1.5000    0.0000    0.0000 C   0  0  0  0  0  0  0  0  0  0  0  0
   -3.0000    0.0000    0.0000 C   0  0  0  0  0  0  0  0  0  0  0  0
   -0.7500   -1.2990    0.0000 C   0  0  0  0  0  0  0  0  0  0  0  0
  1  2  1  0
  2  3  2  0
  3  4  1  0
  4  5  1  0
  4  6  2  0
  6  7  1  0
  7  8  2  0
  7  9  1  0
  9 10  2  0
 10 11  1  0
 11 12  1  0
 11 13  2  0
 13  2  1  0
 13  6  1  0
M  END
>  <Compound_ID>  (720) 
C65335532

>  <Active>  (720) 
0.0

>  <Smiles>  (720) 
CC1=NC(C)=C2C(=O)N=NC(C)=C12

>  <canonical_smi>  (720) 
CC1=NC(C)=C2C(=O)N=NC(C)=C12

>  <Set>  (720) 
G2 inactive

>  <Set_type>  (720) 
Train

>  <MW>  (720) 
175.19

>  <HBD>  (720) 
0

>  <HBA>  (720) 
1

>  <NRB>  (720) 
0

>  <NR>  (720) 
2

>  <NAR>  (720) 
0

>  <PSA>  (720) 
54.15

>  <Standard Type>  (720) 
nan

>  <Standard Relation>  (720) 
nan

>  <Standard Units>  (720) 
nan

>  <Standard Value>  (720) 
nan

>  <Assay ChEMBL ID>  (720) 
nan

>  <Assay Description>  (720) 
nan

>  <BAO Label>  (720) 
nan

$$$$

     RDKit          2D

 16 18  0  0  0  0  0  0  0  0999 V2000
    1.5000   -5.1962    0.0000 N   0  0  0  0  0  0  0  0  0  0  0  0
    0.7500   -3.8971    0.0000 N   0  0  0  0  0  0  0  0  0  0  0  0
    1.5000   -2.5981    0.0000 C   0  0  0  0  0  0  0  0  0  0  0  0
    3.0000   -2.5981    0.0000 O   0  0  0  0  0  0  0  0  0  0  0  0
    0.7500   -1.2990    0.0000 C   0  0  0  0  0  0  0  0  0  0  0  0
    1.5000    0.0000    0.0000 C   0  0  0  0  0  0  0  0  0  0  0  0
    0.7500    1.2990    0.0000 C   0  0  0  0  0  0  0  0  0  0  0  0
   -0.7500    1.2990    0.0000 C   0  0  0  0  0  0  0  0  0  0  0  0
   -1.5000    0.0000    0.0000 C   0  0  0  0  0  0  0  0  0  0  0  0
   -3.0000   -0.0000    0.0000 C   0  0  0  0  0  0  0  0  0  0  0  0
   -3.7500   -1.2990    0.0000 C   0  0  0  0  0  0  0  0  0  0  0  0
   -3.0000   -2.5981    0.0000 C   0  0  0  0  0  0  0  0  0  0  0  0
   -1.5000   -2.5981    0.0000 C   0  0  0  0  0  0  0  0  0  0  0  0
   -0.7500   -3.8971    0.0000 C   0  0  0  0  0  0  0  0  0  0  0  0
   -1.5000   -5.1962    0.0000 O   0  0  0  0  0  0  0  0  0  0  0  0
   -0.7500   -1.2990    0.0000 C   0  0  0  0  0  0  0  0  0  0  0  0
  1  2  1  0
  2  3  1  0
  3  4  2  0
  3  5  1  0
  5  6  2  0
  6  7  1  0
  7  8  2  0
  8  9  1  0
  9 10  2  0
 10 11  1  0
 11 12  2  0
 13 12  1  6
 13 14  1  0
 14 15  2  0
 13 16  1  0
 14  2  1  0
 16  5  1  1
 16  9  1  0
M  END
>  <Compound_ID>  (721) 
C04984854

>  <Active>  (721) 
0.0

>  <Smiles>  (721) 
NN1C(=O)C2=CC=CC3=CC=C[C@@H](C1=O)[C@@H]32

>  <canonical_smi>  (721) 
NN1C(=O)C2=CC=CC3=CC=C[C@@H](C1=O)[C@@H]32

>  <Set>  (721) 
G2 inactive

>  <Set_type>  (721) 
Train

>  <MW>  (721) 
214.22

>  <HBD>  (721) 
1

>  <HBA>  (721) 
3

>  <NRB>  (721) 
0

>  <NR>  (721) 
3

>  <NAR>  (721) 
0

>  <PSA>  (721) 
63.4

>  <Standard Type>  (721) 
nan

>  <Standard Relation>  (721) 
nan

>  <Standard Units>  (721) 
nan

>  <Standard Value>  (721) 
nan

>  <Assay ChEMBL ID>  (721) 
nan

>  <Assay Description>  (721) 
nan

>  <BAO Label>  (721) 
nan

$$$$

     RDKit          2D

 12 13  0  0  0  0  0  0  0  0999 V2000
    3.0000    0.0000    0.0000 O   0  0  0  0  0  0  0  0  0  0  0  0
    1.5000    0.0000    0.0000 C   0  0  0  0  0  0  0  0  0  0  0  0
    0.7500   -1.2990    0.0000 N   0  0  0  0  0  0  0  0  0  0  0  0
   -0.7500   -1.2990    0.0000 C   0  0  0  0  0  0  0  0  0  0  0  0
   -1.5000    0.0000    0.0000 C   0  0  0  0  0  0  0  0  0  0  0  0
   -3.0000    0.0000    0.0000 C   0  0  0  0  0  0  0  0  0  0  0  0
   -3.7500    1.2990    0.0000 C   0  0  0  0  0  0  0  0  0  0  0  0
   -3.0000    2.5981    0.0000 C   0  0  0  0  0  0  0  0  0  0  0  0
   -3.7500    3.8971    0.0000 Cl  0  0  0  0  0  0  0  0  0  0  0  0
   -1.5000    2.5981    0.0000 C   0  0  0  0  0  0  0  0  0  0  0  0
   -0.7500    1.2990    0.0000 C   0  0  0  0  0  0  0  0  0  0  0  0
    0.7500    1.2990    0.0000 N   0  0  0  0  0  0  0  0  0  0  0  0
  1  2  2  0
  2  3  1  0
  3  4  1  0
  4  5  2  0
  5  6  1  0
  6  7  2  0
  7  8  1  0
  8  9  1  0
  8 10  2  0
 10 11  1  0
 11 12  1  6
 12  2  1  0
 11  5  1  0
M  END
>  <Compound_ID>  (722) 
C22009909

>  <Active>  (722) 
0.0

>  <Smiles>  (722) 
O=C1NC=C2C=CC(Cl)=C[C@@H]2N1

>  <canonical_smi>  (722) 
O=C1NC=C2C=CC(Cl)=C[C@@H]2N1

>  <Set>  (722) 
G2 inactive

>  <Set_type>  (722) 
Train

>  <MW>  (722) 
182.61

>  <HBD>  (722) 
2

>  <HBA>  (722) 
1

>  <NRB>  (722) 
0

>  <NR>  (722) 
2

>  <NAR>  (722) 
0

>  <PSA>  (722) 
41.13

>  <Standard Type>  (722) 
nan

>  <Standard Relation>  (722) 
nan

>  <Standard Units>  (722) 
nan

>  <Standard Value>  (722) 
nan

>  <Assay ChEMBL ID>  (722) 
nan

>  <Assay Description>  (722) 
nan

>  <BAO Label>  (722) 
nan

$$$$

     RDKit          2D

 11 12  0  0  0  0  0  0  0  0999 V2000
   -3.5736    1.2902    0.0000 N   0  0  0  0  0  0  0  0  0  0  0  0
   -2.1470    1.7537    0.0000 C   0  0  0  0  0  0  0  0  0  0  0  0
   -1.8351    3.2209    0.0000 C   0  0  0  0  0  0  0  0  0  0  0  0
   -0.4086    3.6844    0.0000 C   0  0  0  0  0  0  0  0  0  0  0  0
   -0.0967    5.1517    0.0000 Br  0  0  0  0  0  0  0  0  0  0  0  0
    0.7062    2.6807    0.0000 C   0  0  0  0  0  0  0  0  0  0  0  0
    0.3943    1.2135    0.0000 N   0  0  0  0  0  0  0  0  0  0  0  0
    1.2760    0.0000    0.0000 C   0  0  0  0  0  0  0  0  0  0  0  0
    0.3943   -1.2135    0.0000 N   0  0  0  0  0  0  0  0  0  0  0  0
   -1.0323   -0.7500    0.0000 N   0  0  0  0  0  0  0  0  0  0  0  0
   -1.0323    0.7500    0.0000 C   0  0  0  0  0  0  0  0  0  0  0  0
  1  2  1  0
  2  3  2  0
  3  4  1  0
  4  5  1  0
  4  6  2  0
  6  7  1  0
  7  8  1  0
  8  9  2  0
  9 10  1  0
 10 11  2  0
 11  2  1  0
 11  7  1  0
M  END
>  <Compound_ID>  (723) 
C36242501

>  <Active>  (723) 
0.0

>  <Smiles>  (723) 
Nc1cc(Br)cn2cnnc12

>  <canonical_smi>  (723) 
Nc1cc(Br)cn2cnnc12

>  <Set>  (723) 
G2 inactive

>  <Set_type>  (723) 
Train

>  <MW>  (723) 
213.04

>  <HBD>  (723) 
1

>  <HBA>  (723) 
3

>  <NRB>  (723) 
0

>  <NR>  (723) 
2

>  <NAR>  (723) 
2

>  <PSA>  (723) 
56.21

>  <Standard Type>  (723) 
nan

>  <Standard Relation>  (723) 
nan

>  <Standard Units>  (723) 
nan

>  <Standard Value>  (723) 
nan

>  <Assay ChEMBL ID>  (723) 
nan

>  <Assay Description>  (723) 
nan

>  <BAO Label>  (723) 
nan

$$$$

     RDKit          2D

 14 14  0  0  0  0  0  0  0  0999 V2000
    3.7500   -1.2990    0.0000 C   0  0  0  0  0  0  0  0  0  0  0  0
    3.0000    0.0000    0.0000 N   0  0  0  0  0  0  0  0  0  0  0  0
    3.7500    1.2990    0.0000 C   0  0  0  0  0  0  0  0  0  0  0  0
    5.2500    1.2990    0.0000 C   0  0  0  0  0  0  0  0  0  0  0  0
    6.0000    2.5981    0.0000 C   0  0  0  0  0  0  0  0  0  0  0  0
    6.7500    3.8971    0.0000 N   0  0  0  0  0  0  0  0  0  0  0  0
    1.5000    0.0000    0.0000 C   0  0  0  0  0  0  0  0  0  0  0  0
    0.7500   -1.2990    0.0000 C   0  0  0  0  0  0  0  0  0  0  0  0
   -0.7500   -1.2990    0.0000 C   0  0  0  0  0  0  0  0  0  0  0  0
   -1.5000   -2.5981    0.0000 N   0  0  0  0  0  0  0  0  0  0  0  0
   -1.5000    0.0000    0.0000 C   0  0  0  0  0  0  0  0  0  0  0  0
   -0.7500    1.2990    0.0000 C   0  0  0  0  0  0  0  0  0  0  0  0
   -1.5000    2.5981    0.0000 F   0  0  0  0  0  0  0  0  0  0  0  0
    0.7500    1.2990    0.0000 C   0  0  0  0  0  0  0  0  0  0  0  0
  1  2  1  0
  2  3  1  0
  3  4  1  0
  4  5  1  0
  5  6  3  0
  2  7  1  0
  7  8  2  0
  8  9  1  0
  9 10  1  0
  9 11  2  0
 11 12  1  0
 12 13  1  0
 12 14  2  0
 14  7  1  0
M  END
>  <Compound_ID>  (724) 
C37666624

>  <Active>  (724) 
0.0

>  <Smiles>  (724) 
CN(CCC#N)c1cc(N)cc(F)c1

>  <canonical_smi>  (724) 
CN(CCC#N)c1cc(N)cc(F)c1

>  <Set>  (724) 
G2 inactive

>  <Set_type>  (724) 
Train

>  <MW>  (724) 
193.22

>  <HBD>  (724) 
1

>  <HBA>  (724) 
3

>  <NRB>  (724) 
3

>  <NR>  (724) 
1

>  <NAR>  (724) 
1

>  <PSA>  (724) 
53.05

>  <Standard Type>  (724) 
nan

>  <Standard Relation>  (724) 
nan

>  <Standard Units>  (724) 
nan

>  <Standard Value>  (724) 
nan

>  <Assay ChEMBL ID>  (724) 
nan

>  <Assay Description>  (724) 
nan

>  <BAO Label>  (724) 
nan

$$$$

     RDKit          2D

 12 13  0  0  0  0  0  0  0  0999 V2000
   -1.4958    4.6036    0.0000 O   0  0  0  0  0  0  0  0  0  0  0  0
   -1.0323    3.1771    0.0000 C   0  0  0  0  0  0  0  0  0  0  0  0
    0.3943    2.7135    0.0000 C   0  0  0  0  0  0  0  0  0  0  0  0
    0.3943    1.2135    0.0000 C   0  0  0  0  0  0  0  0  0  0  0  0
    1.2760    0.0000    0.0000 C   0  0  0  0  0  0  0  0  0  0  0  0
    0.3943   -1.2135    0.0000 C   0  0  0  0  0  0  0  0  0  0  0  0
    0.8578   -2.6401    0.0000 O   0  0  0  0  0  0  0  0  0  0  0  0
   -1.0323   -0.7500    0.0000 O   0  0  0  0  0  0  0  0  0  0  0  0
   -1.0323    0.7500    0.0000 C   0  0  0  0  0  0  0  0  0  0  0  0
   -1.9140    1.9635    0.0000 C   0  0  0  0  0  0  0  0  0  0  0  0
   -3.0287    2.9672    0.0000 F   0  0  0  0  0  0  0  0  0  0  0  0
   -3.0287    0.9598    0.0000 F   0  0  0  0  0  0  0  0  0  0  0  0
  2  1  1  6
  2  3  1  0
  4  3  1  6
  4  5  1  0
  5  6  1  0
  6  7  1  6
  6  8  1  0
  9  8  1  6
  9 10  1  0
 10 11  1  0
 10 12  1  0
 10  2  1  0
  9  4  1  0
M  END
>  <Compound_ID>  (725) 
C39111962

>  <Active>  (725) 
0.0

>  <Smiles>  (725) 
O[C@@H]1C[C@@H]2C[C@H](O)O[C@@H]2C1(F)F

>  <canonical_smi>  (725) 
O[C@H]1C[C@H]2C[C@@H](O)C(F)(F)[C@H]2O1

>  <Set>  (725) 
G2 inactive

>  <Set_type>  (725) 
Train

>  <MW>  (725) 
180.15

>  <HBD>  (725) 
2

>  <HBA>  (725) 
3

>  <NRB>  (725) 
0

>  <NR>  (725) 
2

>  <NAR>  (725) 
0

>  <PSA>  (725) 
49.69

>  <Standard Type>  (725) 
nan

>  <Standard Relation>  (725) 
nan

>  <Standard Units>  (725) 
nan

>  <Standard Value>  (725) 
nan

>  <Assay ChEMBL ID>  (725) 
nan

>  <Assay Description>  (725) 
nan

>  <BAO Label>  (725) 
nan

$$$$

     RDKit          2D

 14 15  0  0  0  0  0  0  0  0999 V2000
    3.0000    0.0000    0.0000 O   0  0  0  0  0  0  0  0  0  0  0  0
    1.5000    0.0000    0.0000 C   0  0  0  0  0  0  0  0  0  0  0  0
    0.7500   -1.2990    0.0000 C   0  0  0  0  0  0  0  0  0  0  0  0
   -0.7500   -1.2990    0.0000 C   0  0  0  0  0  0  0  0  0  0  0  0
   -1.5000    0.0000    0.0000 C   0  0  0  0  0  0  0  0  0  0  0  0
   -0.7500    1.2990    0.0000 C   0  0  0  0  0  0  0  0  0  0  0  0
    0.0000    2.5981    0.0000 C   0  0  0  0  0  0  0  0  0  0  0  0
   -0.7500    3.8971    0.0000 C   0  0  0  0  0  0  0  0  0  0  0  0
   -2.2500    3.8971    0.0000 C   0  0  0  0  0  0  0  0  0  0  0  0
   -3.0000    2.5981    0.0000 C   0  0  0  0  0  0  0  0  0  0  0  0
   -4.5000    2.5981    0.0000 O   0  0  0  0  0  0  0  0  0  0  0  0
   -2.2500    1.2990    0.0000 N   0  0  0  0  0  0  0  0  0  0  0  0
   -3.0000    0.0000    0.0000 F   0  0  0  0  0  0  0  0  0  0  0  0
    0.7500    1.2990    0.0000 C   0  0  0  0  0  0  0  0  0  0  0  0
  2  1  1  6
  2  3  1  0
  3  4  1  0
  4  5  1  0
  6  5  1  1
  6  7  1  0
  7  8  1  0
  8  9  1  0
  9 10  1  0
 10 11  1  1
 10 12  1  0
 12 13  1  0
  6 14  1  0
 14  2  1  0
 12  6  1  0
M  END
>  <Compound_ID>  (726) 
C39523721

>  <Active>  (726) 
0.0

>  <Smiles>  (726) 
O[C@@H]1CCC[C@@]2(CCC[C@H](O)N2F)C1

>  <canonical_smi>  (726) 
O[C@H]1CCC[C@@]2(CCC[C@@H](O)C2)N1F

>  <Set>  (726) 
G2 inactive

>  <Set_type>  (726) 
Train

>  <MW>  (726) 
203.26

>  <HBD>  (726) 
2

>  <HBA>  (726) 
3

>  <NRB>  (726) 
0

>  <NR>  (726) 
2

>  <NAR>  (726) 
0

>  <PSA>  (726) 
43.7

>  <Standard Type>  (726) 
nan

>  <Standard Relation>  (726) 
nan

>  <Standard Units>  (726) 
nan

>  <Standard Value>  (726) 
nan

>  <Assay ChEMBL ID>  (726) 
nan

>  <Assay Description>  (726) 
nan

>  <BAO Label>  (726) 
nan

$$$$

     RDKit          2D

 10  9  0  0  0  0  0  0  0  0999 V2000
    0.0000    0.0000    0.0000 C   0  0  0  0  0  0  0  0  0  0  0  0
    1.2990    0.7500    0.0000 C   0  0  0  0  0  0  0  0  0  0  0  0
    1.2990    2.2500    0.0000 O   0  0  0  0  0  0  0  0  0  0  0  0
    2.5981   -0.0000    0.0000 C   0  0  0  0  0  0  0  0  0  0  0  0
    3.8971    0.7500    0.0000 N   0  0  0  0  0  0  0  0  0  0  0  0
    5.1962   -0.0000    0.0000 C   0  0  0  0  0  0  0  0  0  0  0  0
    5.1962   -1.5000    0.0000 O   0  0  0  0  0  0  0  0  0  0  0  0
    6.4952    0.7500    0.0000 C   0  0  0  0  0  0  0  0  0  0  0  0
    7.7942   -0.0000    0.0000 C   0  0  0  0  0  0  0  0  0  0  0  0
    6.4952    2.2500    0.0000 Br  0  0  0  0  0  0  0  0  0  0  0  0
  2  1  1  6
  2  3  1  0
  2  4  1  0
  4  5  1  0
  5  6  1  0
  6  7  2  0
  6  8  1  0
  8  9  1  1
  8 10  1  0
M  END
>  <Compound_ID>  (727) 
C41727620

>  <Active>  (727) 
0.0

>  <Smiles>  (727) 
C[C@H](O)CNC(=O)[C@H](C)Br

>  <canonical_smi>  (727) 
C[C@H](O)CNC(=O)[C@H](C)Br

>  <Set>  (727) 
G2 inactive

>  <Set_type>  (727) 
Train

>  <MW>  (727) 
210.07

>  <HBD>  (727) 
2

>  <HBA>  (727) 
2

>  <NRB>  (727) 
3

>  <NR>  (727) 
0

>  <NAR>  (727) 
0

>  <PSA>  (727) 
49.33

>  <Standard Type>  (727) 
nan

>  <Standard Relation>  (727) 
nan

>  <Standard Units>  (727) 
nan

>  <Standard Value>  (727) 
nan

>  <Assay ChEMBL ID>  (727) 
nan

>  <Assay Description>  (727) 
nan

>  <BAO Label>  (727) 
nan

$$$$

     RDKit          2D

 13 12  0  0  0  0  0  0  0  0999 V2000
    0.0000    0.0000    0.0000 C   0  0  0  0  0  0  0  0  0  0  0  0
    1.2990    0.7500    0.0000 C   0  0  0  0  0  0  0  0  0  0  0  0
    2.5981   -0.0000    0.0000 C   0  0  0  0  0  0  0  0  0  0  0  0
    1.2990    2.2500    0.0000 N   0  0  0  0  0  0  0  0  0  0  0  0
    2.5981    3.0000    0.0000 C   0  0  0  0  0  0  0  0  0  0  0  0
   -0.0000    3.0000    0.0000 C   0  0  0  0  0  0  0  0  0  0  0  0
   -1.2990    2.2500    0.0000 O   0  0  0  0  0  0  0  0  0  0  0  0
   -0.0000    4.5000    0.0000 C   0  0  0  0  0  0  0  0  0  0  0  0
    1.5000    4.5000    0.0000 C   0  0  0  0  0  0  0  0  0  0  0  0
   -1.5000    4.5000    0.0000 C   0  0  0  0  0  0  0  0  0  0  0  0
   -0.0000    6.0000    0.0000 C   0  0  0  0  0  0  0  0  0  0  0  0
    1.2990    6.7500    0.0000 N   0  0  0  0  0  0  0  0  0  0  0  0
   -1.2990    6.7500    0.0000 S   0  0  0  0  0  0  0  0  0  0  0  0
  1  2  1  0
  2  3  1  0
  2  4  1  0
  4  5  1  0
  4  6  1  0
  6  7  2  0
  6  8  1  0
  8  9  1  0
  8 10  1  0
  8 11  1  0
 11 12  1  0
 11 13  2  0
M  END
>  <Compound_ID>  (728) 
C44768211

>  <Active>  (728) 
0.0

>  <Smiles>  (728) 
CC(C)N(C)C(=O)C(C)(C)C(N)=S

>  <canonical_smi>  (728) 
CC(C)N(C)C(=O)C(C)(C)C(N)=S

>  <Set>  (728) 
G2 inactive

>  <Set_type>  (728) 
Train

>  <MW>  (728) 
202.32

>  <HBD>  (728) 
1

>  <HBA>  (728) 
3

>  <NRB>  (728) 
3

>  <NR>  (728) 
0

>  <NAR>  (728) 
0

>  <PSA>  (728) 
46.33

>  <Standard Type>  (728) 
nan

>  <Standard Relation>  (728) 
nan

>  <Standard Units>  (728) 
nan

>  <Standard Value>  (728) 
nan

>  <Assay ChEMBL ID>  (728) 
nan

>  <Assay Description>  (728) 
nan

>  <BAO Label>  (728) 
nan

$$$$

     RDKit          2D

 12 13  0  0  0  0  0  0  0  0999 V2000
    1.3299    5.6152    0.0000 N   0  0  0  0  0  0  0  0  0  0  0  0
   -0.0967    5.1517    0.0000 C   0  0  0  0  0  0  0  0  0  0  0  0
   -0.4086    3.6844    0.0000 C   0  0  0  0  0  0  0  0  0  0  0  0
    0.7062    2.6807    0.0000 C   0  0  0  0  0  0  0  0  0  0  0  0
    0.3943    1.2135    0.0000 C   0  0  0  0  0  0  0  0  0  0  0  0
    1.2760    0.0000    0.0000 O   0  0  0  0  0  0  0  0  0  0  0  0
    0.3943   -1.2135    0.0000 C   0  0  0  0  0  0  0  0  0  0  0  0
   -1.0323   -0.7500    0.0000 O   0  0  0  0  0  0  0  0  0  0  0  0
   -1.0323    0.7500    0.0000 C   0  0  0  0  0  0  0  0  0  0  0  0
   -2.1470    1.7537    0.0000 C   0  0  0  0  0  0  0  0  0  0  0  0
   -1.8351    3.2209    0.0000 C   0  0  0  0  0  0  0  0  0  0  0  0
   -2.9499    4.2246    0.0000 Cl  0  0  0  0  0  0  0  0  0  0  0  0
  1  2  1  0
  2  3  1  0
  3  4  2  0
  4  5  1  0
  5  6  1  1
  6  7  1  0
  7  8  1  0
  9  8  1  1
  9 10  1  0
 10 11  2  0
 11 12  1  0
 11  3  1  0
  9  5  1  0
M  END
>  <Compound_ID>  (729) 
C67173047

>  <Active>  (729) 
0.0

>  <Smiles>  (729) 
NCC1=C[C@H]2OCO[C@H]2C=C1Cl

>  <canonical_smi>  (729) 
NCC1=C[C@H]2OCO[C@H]2C=C1Cl

>  <Set>  (729) 
G2 inactive

>  <Set_type>  (729) 
Train

>  <MW>  (729) 
187.63

>  <HBD>  (729) 
1

>  <HBA>  (729) 
3

>  <NRB>  (729) 
1

>  <NR>  (729) 
2

>  <NAR>  (729) 
0

>  <PSA>  (729) 
44.48

>  <Standard Type>  (729) 
nan

>  <Standard Relation>  (729) 
nan

>  <Standard Units>  (729) 
nan

>  <Standard Value>  (729) 
nan

>  <Assay ChEMBL ID>  (729) 
nan

>  <Assay Description>  (729) 
nan

>  <BAO Label>  (729) 
nan

$$$$

     RDKit          2D

 34 38  0  0  0  0  0  0  0  0999 V2000
    2.2500    6.4952    0.0000 C   0  0  0  0  0  0  0  0  0  0  0  0
    0.7500    6.4952    0.0000 O   0  0  0  0  0  0  0  0  0  0  0  0
    0.0000    5.1962    0.0000 C   0  0  0  0  0  0  0  0  0  0  0  0
    0.7500    3.8971    0.0000 O   0  0  0  0  0  0  0  0  0  0  0  0
   -1.5000    5.1962    0.0000 C   0  0  0  0  0  0  0  0  0  0  0  0
   -2.2500    3.8971    0.0000 C   0  0  0  0  0  0  0  0  0  0  0  0
   -3.7500    3.8971    0.0000 C   0  0  0  0  0  0  0  0  0  0  0  0
   -3.4895    5.3743    0.0000 C   0  0  0  0  0  0  0  0  0  0  0  0
   -5.1595    4.4101    0.0000 C   0  0  0  0  0  0  0  0  0  0  0  0
   -4.5000    2.5981    0.0000 C   0  0  0  0  0  0  0  0  0  0  0  0
   -6.0000    2.5981    0.0000 O   0  0  0  0  0  0  0  0  0  0  0  0
   -3.7500    1.2990    0.0000 C   0  0  0  0  0  0  0  0  0  0  0  0
   -3.0000    0.0000    0.0000 C   0  0  0  0  0  0  0  0  0  0  0  0
   -1.5000    0.0000    0.0000 C   0  0  0  0  0  0  0  0  0  0  0  0
   -0.7500   -1.2990    0.0000 C   0  0  0  0  0  0  0  0  0  0  0  0
   -1.5000   -2.5981    0.0000 C   0  0  0  0  0  0  0  0  0  0  0  0
   -0.7500   -3.8971    0.0000 C   0  0  0  0  0  0  0  0  0  0  0  0
   -1.5000   -5.1962    0.0000 O   0  0  0  0  0  0  0  0  0  0  0  0
    0.7500   -3.8971    0.0000 O   0  0  0  0  0  0  0  0  0  0  0  0
    1.5000   -2.5981    0.0000 C   0  0  0  0  0  0  0  0  0  0  0  0
    3.0000   -2.5981    0.0000 C   0  0  0  0  0  0  0  0  0  0  0  0
    3.8817   -1.3846    0.0000 C   0  0  0  0  0  0  0  0  0  0  0  0
    5.3083   -1.8481    0.0000 C   0  0  0  0  0  0  0  0  0  0  0  0
    5.3083   -3.3481    0.0000 O   0  0  0  0  0  0  0  0  0  0  0  0
    3.8817   -3.8116    0.0000 C   0  0  0  0  0  0  0  0  0  0  0  0
    0.7500   -1.2990    0.0000 C   0  0  0  0  0  0  0  0  0  0  0  0
    2.2500   -1.2990    0.0000 C   0  0  0  0  0  0  0  0  0  0  0  0
    1.5000    0.0000    0.0000 C   0  0  0  0  0  0  0  0  0  0  0  0
    0.7500    1.2990    0.0000 C   0  0  0  0  0  0  0  0  0  0  0  0
   -0.7500    1.2990    0.0000 C   0  0  0  0  0  0  0  0  0  0  0  0
   -1.5000    2.5981    0.0000 C   0  0  0  0  0  0  0  0  0  0  0  0
   -0.7500    3.8971    0.0000 C   0  0  0  0  0  0  0  0  0  0  0  0
   -3.0000    2.5981    0.0000 C   0  0  0  0  0  0  0  0  0  0  0  0
   -3.5538    3.1715    0.0000 O   0  0  0  0  0  0  0  0  0  0  0  0
  1  2  1  0
  2  3  1  0
  3  4  2  0
  3  5  1  0
  6  5  1  6
  6  7  1  0
  7  8  1  0
  7  9  1  0
  7 10  1  0
 10 11  1  1
 10 12  1  0
 12 13  1  1
 13 14  1  0
 14 15  2  0
 15 16  1  0
 16 17  1  0
 17 18  1  6
 17 19  1  0
 19 20  1  0
 20 21  1  6
 21 22  1  0
 22 23  2  0
 23 24  1  0
 24 25  1  0
 20 26  1  0
 26 27  1  6
 26 28  1  0
 28 29  1  0
 30 29  1  6
 30 31  1  0
 31 32  1  6
 31 33  1  0
 33 34  2  0
 31  6  1  0
 33 12  1  0
 30 14  1  0
 26 15  1  0
 25 21  2  0
M  END
>  <Compound_ID>  (730) 
C03978301

>  <Active>  (730) 
0.0

>  <Smiles>  (730) 
COC(=O)C[C@H]1C(C)(C)[C@H](O)[C@@H]2CC3=C4C[C@@H](O)O[C@@H](c5ccoc5)[C@]4(C)CC[C@H]3[C@@]1(C)C2=O

>  <canonical_smi>  (730) 
COC(=O)C[C@H]1C(C)(C)[C@H](O)[C@@H]2CC3=C4C[C@@H](O)O[C@@H](c5ccoc5)[C@]4(C)CC[C@H]3[C@@]1(C)C2=O

>  <Set>  (730) 
G2 inactive

>  <Set_type>  (730) 
Train

>  <MW>  (730) 
472.58

>  <HBD>  (730) 
2

>  <HBA>  (730) 
7

>  <NRB>  (730) 
3

>  <NR>  (730) 
5

>  <NAR>  (730) 
1

>  <PSA>  (730) 
106.2

>  <Standard Type>  (730) 
nan

>  <Standard Relation>  (730) 
nan

>  <Standard Units>  (730) 
nan

>  <Standard Value>  (730) 
nan

>  <Assay ChEMBL ID>  (730) 
nan

>  <Assay Description>  (730) 
nan

>  <BAO Label>  (730) 
nan

$$$$

     RDKit          2D

 31 33  0  0  0  0  0  0  0  0999 V2000
    3.0000   -5.1962    0.0000 H   0  0  0  0  0  0  0  0  0  0  0  0
    1.5000   -5.1962    0.0000 N   0  0  0  0  0  0  0  0  0  0  0  0
    0.7500   -3.8971    0.0000 C   0  0  0  0  0  0  0  0  0  0  0  0
    1.5000   -2.5981    0.0000 C   0  0  0  0  0  0  0  0  0  0  0  0
    3.0000   -2.5981    0.0000 C   0  0  0  0  0  0  0  0  0  0  0  0
    4.5000   -2.5981    0.0000 N   0  0  0  0  0  0  0  0  0  0  0  0
    0.7500   -1.2990    0.0000 C   0  0  0  0  0  0  0  0  0  0  0  0
    1.5000    0.0000    0.0000 C   0  0  0  0  0  0  0  0  0  0  0  0
    0.7500    1.2990    0.0000 C   0  0  0  0  0  0  0  0  0  0  0  0
   -0.7500    1.2990    0.0000 N   0  0  0  0  0  4  0  0  0  0  0  0
   -1.5000    2.5981    0.0000 C   0  0  0  0  0  0  0  0  0  0  0  0
   -0.7500    3.8971    0.0000 C   0  0  0  0  0  0  0  0  0  0  0  0
   -1.5000    5.1962    0.0000 C   0  0  0  0  0  0  0  0  0  0  0  0
   -1.5000    0.0000    0.0000 C   0  0  0  0  0  0  0  0  0  0  0  0
   -0.7500   -1.2990    0.0000 C   0  0  0  0  0  0  0  0  0  0  0  0
   -1.5000   -2.5981    0.0000 C   0  0  0  0  0  0  0  0  0  0  0  0
   -3.0000   -2.5981    0.0000 C   0  0  0  0  0  0  0  0  0  0  0  0
   -3.7500   -1.2990    0.0000 C   0  0  0  0  0  0  0  0  0  0  0  0
   -5.2500   -1.2990    0.0000 C   0  0  0  0  0  0  0  0  0  0  0  0
   -6.0000   -2.5981    0.0000 C   0  0  0  0  0  0  0  0  0  0  0  0
   -7.5000   -2.5981    0.0000 Cl  0  0  0  0  0  0  0  0  0  0  0  0
   -5.2500   -3.8971    0.0000 C   0  0  0  0  0  0  0  0  0  0  0  0
   -3.7500   -3.8971    0.0000 C   0  0  0  0  0  0  0  0  0  0  0  0
   -3.0000   -5.1962    0.0000 N   0  0  0  0  0  4  0  0  0  0  0  0
   -1.5000   -5.1962    0.0000 O   0  0  0  0  0  0  0  0  0  0  0  0
   -3.7500   -6.4952    0.0000 O   0  0  0  0  0  1  0  0  0  0  0  0
   -0.7500   -3.8971    0.0000 C   0  0  0  0  0  0  0  0  0  0  0  0
   -2.1595   -4.4101    0.0000 C   0  0  0  0  0  0  0  0  0  0  0  0
   -2.8204   -4.8559    0.0000 N   0  0  0  0  0  0  0  0  0  0  0  0
   -0.4895   -5.3743    0.0000 C   0  0  0  0  0  0  0  0  0  0  0  0
   -0.2291   -6.8515    0.0000 N   0  0  0  0  0  0  0  0  0  0  0  0
  1  2  1  0
  2  3  2  0
  3  4  1  0
  4  5  1  0
  5  6  3  0
  4  7  1  0
  7  8  2  0
  8  9  1  0
  9 10  1  0
 10 11  1  0
 11 12  1  0
 12 13  1  0
 10 14  1  0
 15 14  1  1
 15 16  1  0
 16 17  1  6
 17 18  2  0
 18 19  1  0
 19 20  2  0
 20 21  1  0
 20 22  1  0
 22 23  2  0
 23 24  1  0
 24 25  2  0
 24 26  1  0
 16 27  1  0
 27 28  1  0
 28 29  3  0
 27 30  1  0
 30 31  3  0
 27  3  1  0
 15  7  1  0
 23 17  1  0
M  CHG  3  10   1  24   1  26  -1
M  END
>  <Compound_ID>  (731) 
C04391521

>  <Active>  (731) 
0.0

>  <Smiles>  (731) 
[H]/N=C1\C(C#N)C2=CC[NH+](CCC)C[C@@H]2[C@@H](c2ccc(Cl)cc2[N+](=O)[O-])C1(C#N)C#N

>  <canonical_smi>  (731) 
[H]/N=C1\C(C#N)C2=CC[NH+](CCC)C[C@@H]2[C@@H](c2ccc(Cl)cc2[N+](=O)[O-])C1(C#N)C#N

>  <Set>  (731) 
G2 inactive

>  <Set_type>  (731) 
Train

>  <MW>  (731) 
423.88

>  <HBD>  (731) 
2

>  <HBA>  (731) 
5

>  <NRB>  (731) 
4

>  <NR>  (731) 
3

>  <NAR>  (731) 
1

>  <PSA>  (731) 
142.8

>  <Standard Type>  (731) 
nan

>  <Standard Relation>  (731) 
nan

>  <Standard Units>  (731) 
nan

>  <Standard Value>  (731) 
nan

>  <Assay ChEMBL ID>  (731) 
nan

>  <Assay Description>  (731) 
nan

>  <BAO Label>  (731) 
nan

$$$$

     RDKit          2D

 32 36  0  0  0  0  0  0  0  0999 V2000
    3.2286   -0.0000    0.0000 O   0  0  0  0  0  0  0  0  0  0  0  0
    1.7286    0.0000    0.0000 C   0  0  0  0  0  0  0  0  0  0  0  0
    1.0777    1.3515    0.0000 C   0  0  0  0  0  0  0  0  0  0  0  0
   -0.3846    1.6852    0.0000 C   0  0  0  0  0  0  0  0  0  0  0  0
   -1.5574    0.7500    0.0000 S   0  0  0  0  0  0  0  0  0  0  0  0
   -1.5574   -0.7500    0.0000 C   0  0  0  0  0  0  0  0  0  0  0  0
   -2.9537   -1.2980    0.0000 C   0  0  0  0  0  0  0  0  0  0  0  0
   -3.1773   -2.7813    0.0000 C   0  0  0  0  0  0  0  0  0  0  0  0
   -2.0045   -3.7165    0.0000 C   0  0  0  0  0  0  0  0  0  0  0  0
   -2.2281   -5.1997    0.0000 S   0  0  0  0  0  0  0  0  0  0  0  0
   -3.7113   -4.9762    0.0000 O   0  0  0  0  0  0  0  0  0  0  0  0
   -0.7448   -5.4233    0.0000 O   0  0  0  0  0  0  0  0  0  0  0  0
   -2.4516   -6.6830    0.0000 N   0  0  0  0  0  0  0  0  0  0  0  0
   -3.8480   -7.2310    0.0000 C   0  0  0  0  0  0  0  0  0  0  0  0
   -4.0715   -8.7142    0.0000 C   0  0  0  0  0  0  0  0  0  0  0  0
   -2.8988   -9.6495    0.0000 C   0  0  0  0  0  0  0  0  0  0  0  0
   -3.1223  -11.1327    0.0000 C   0  0  0  0  0  0  0  0  0  0  0  0
   -4.5186  -11.6807    0.0000 N   0  0  0  0  0  4  0  0  0  0  0  0
   -5.6914  -10.7455    0.0000 C   0  0  0  0  0  0  0  0  0  0  0  0
   -7.0877  -11.2935    0.0000 C   0  0  0  0  0  0  0  0  0  0  0  0
   -7.3113  -12.7768    0.0000 C   0  0  0  0  0  0  0  0  0  0  0  0
   -8.7076  -13.3248    0.0000 C   0  0  0  0  0  0  0  0  0  0  0  0
   -8.9311  -14.8080    0.0000 C   0  0  0  0  0  0  0  0  0  0  0  0
   -7.7584  -15.7433    0.0000 C   0  0  0  0  0  0  0  0  0  0  0  0
   -6.3621  -15.1952    0.0000 C   0  0  0  0  0  0  0  0  0  0  0  0
   -6.1385  -13.7120    0.0000 C   0  0  0  0  0  0  0  0  0  0  0  0
   -4.7422  -13.1640    0.0000 C   0  0  0  0  0  0  0  0  0  0  0  0
   -1.5025   -9.1015    0.0000 C   0  0  0  0  0  0  0  0  0  0  0  0
   -1.2789   -7.6182    0.0000 C   0  0  0  0  0  0  0  0  0  0  0  0
   -0.6082   -3.1685    0.0000 C   0  0  0  0  0  0  0  0  0  0  0  0
   -0.3846   -1.6852    0.0000 C   0  0  0  0  0  0  0  0  0  0  0  0
    1.0777   -1.3515    0.0000 N   0  0  0  0  0  0  0  0  0  0  0  0
  1  2  2  0
  2  3  1  0
  3  4  1  0
  4  5  1  0
  5  6  1  0
  6  7  2  0
  7  8  1  0
  8  9  2  0
  9 10  1  0
 10 11  2  0
 10 12  2  0
 10 13  1  0
 13 14  1  0
 14 15  1  0
 15 16  1  0
 16 17  1  0
 17 18  1  0
 18 19  1  0
 19 20  1  0
 20 21  1  0
 21 22  2  0
 22 23  1  0
 23 24  2  0
 24 25  1  0
 25 26  2  0
 26 27  1  0
 16 28  1  0
 28 29  1  0
  9 30  1  0
 30 31  2  0
 31 32  1  0
 32  2  1  0
 31  6  1  0
 29 13  1  0
 27 18  1  0
 26 21  1  0
M  CHG  1  18   1
M  END
>  <Compound_ID>  (732) 
C15731067

>  <Active>  (732) 
0.0

>  <Smiles>  (732) 
O=C1CCSc2ccc(S(=O)(=O)N3CCC(C[NH+]4CCc5ccccc5C4)CC3)cc2N1

>  <canonical_smi>  (732) 
O=C1CCSc2ccc(S(=O)(=O)N3CCC(C[NH+]4CCc5ccccc5C4)CC3)cc2N1

>  <Set>  (732) 
G2 inactive

>  <Set_type>  (732) 
Train

>  <MW>  (732) 
472.66

>  <HBD>  (732) 
2

>  <HBA>  (732) 
4

>  <NRB>  (732) 
4

>  <NR>  (732) 
5

>  <NAR>  (732) 
2

>  <PSA>  (732) 
70.92

>  <Standard Type>  (732) 
nan

>  <Standard Relation>  (732) 
nan

>  <Standard Units>  (732) 
nan

>  <Standard Value>  (732) 
nan

>  <Assay ChEMBL ID>  (732) 
nan

>  <Assay Description>  (732) 
nan

>  <BAO Label>  (732) 
nan

$$$$

     RDKit          2D

 26 29  0  0  0  0  0  0  0  0999 V2000
   -1.9679   -3.6517    0.0000 F   0  0  0  0  0  0  0  0  0  0  0  0
   -3.0826   -2.6480    0.0000 C   0  0  0  0  0  0  0  0  0  0  0  0
   -4.5092   -3.1115    0.0000 F   0  0  0  0  0  0  0  0  0  0  0  0
   -2.7707   -1.1807    0.0000 O   0  0  0  0  0  0  0  0  0  0  0  0
   -3.8855   -0.1771    0.0000 C   0  0  0  0  0  0  0  0  0  0  0  0
   -5.3120   -0.6406    0.0000 C   0  0  0  0  0  0  0  0  0  0  0  0
   -6.4268    0.3631    0.0000 C   0  0  0  0  0  0  0  0  0  0  0  0
   -6.1149    1.8303    0.0000 C   0  0  0  0  0  0  0  0  0  0  0  0
   -4.6883    2.2939    0.0000 C   0  0  0  0  0  0  0  0  0  0  0  0
   -3.5736    1.2902    0.0000 C   0  0  0  0  0  0  0  0  0  0  0  0
   -2.1470    1.7537    0.0000 C   0  0  0  0  0  0  0  0  0  0  0  0
   -1.8351    3.2209    0.0000 C   0  0  0  0  0  0  0  0  0  0  0  0
   -0.4086    3.6844    0.0000 C   0  0  0  0  0  0  0  0  0  0  0  0
   -0.0967    5.1517    0.0000 C   0  0  0  0  0  0  0  0  0  0  0  0
    1.3299    5.6152    0.0000 C   0  0  0  0  0  0  0  0  0  0  0  0
    1.6418    7.0824    0.0000 C   0  0  0  0  0  0  0  0  0  0  0  0
    0.5271    8.0861    0.0000 C   0  0  0  0  0  0  0  0  0  0  0  0
    0.8389    9.5533    0.0000 I   0  0  0  0  0  0  0  0  0  0  0  0
   -0.8995    7.6226    0.0000 C   0  0  0  0  0  0  0  0  0  0  0  0
   -1.2114    6.1554    0.0000 C   0  0  0  0  0  0  0  0  0  0  0  0
    0.7062    2.6807    0.0000 N   0  0  0  0  0  4  0  0  0  0  0  0
    0.3943    1.2135    0.0000 C   0  0  0  0  0  0  0  0  0  0  0  0
    1.2760    0.0000    0.0000 N   0  0  0  0  0  0  0  0  0  0  0  0
    0.3943   -1.2135    0.0000 N   0  0  0  0  0  0  0  0  0  0  0  0
   -1.0323   -0.7500    0.0000 N   0  0  0  0  0  0  0  0  0  0  0  0
   -1.0323    0.7500    0.0000 N   0  0  0  0  0  0  0  0  0  0  0  0
  1  2  1  0
  2  3  1  0
  2  4  1  0
  4  5  1  0
  5  6  2  0
  6  7  1  0
  7  8  2  0
  8  9  1  0
  9 10  2  0
 11 10  1  1
 11 12  1  0
 12 13  1  0
 13 14  1  6
 14 15  2  0
 15 16  1  0
 16 17  2  0
 17 18  1  0
 17 19  1  0
 19 20  2  0
 13 21  1  0
 21 22  2  0
 22 23  1  0
 23 24  2  0
 24 25  1  0
 25 26  1  0
 10  5  1  0
 26 11  1  0
 20 14  1  0
 26 22  1  0
M  CHG  1  21   1
M  END
>  <Compound_ID>  (733) 
C02918613

>  <Active>  (733) 
0.0

>  <Smiles>  (733) 
FC(F)Oc1ccccc1[C@H]1C[C@H](c2ccc(I)cc2)[NH+]=C2N=NNN21

>  <canonical_smi>  (733) 
FC(F)Oc1ccccc1[C@H]1C[C@H](c2ccc(I)cc2)[NH+]=C2N=NNN21

>  <Set>  (733) 
G2 inactive

>  <Set_type>  (733) 
Train

>  <MW>  (733) 
470.24

>  <HBD>  (733) 
2

>  <HBA>  (733) 
3

>  <NRB>  (733) 
4

>  <NR>  (733) 
4

>  <NAR>  (733) 
2

>  <PSA>  (733) 
63.19

>  <Standard Type>  (733) 
nan

>  <Standard Relation>  (733) 
nan

>  <Standard Units>  (733) 
nan

>  <Standard Value>  (733) 
nan

>  <Assay ChEMBL ID>  (733) 
nan

>  <Assay Description>  (733) 
nan

>  <BAO Label>  (733) 
nan

$$$$

     RDKit          2D

 25 28  0  0  0  0  0  0  0  0999 V2000
    3.5260    1.2990    0.0000 C   0  0  0  0  0  0  0  0  0  0  0  0
    2.7760    0.0000    0.0000 C   0  0  0  0  0  0  0  0  0  0  0  0
    3.5260   -1.2990    0.0000 C   0  0  0  0  0  0  0  0  0  0  0  0
    1.2760    0.0000    0.0000 C   0  0  0  0  0  0  0  0  0  0  0  0
    0.3943    1.2135    0.0000 C   0  0  0  0  0  0  0  0  0  0  0  0
   -1.0323    0.7500    0.0000 N   0  0  0  0  0  0  0  0  0  0  0  0
   -1.0323   -0.7500    0.0000 N   0  0  0  0  0  0  0  0  0  0  0  0
   -2.1470   -1.7537    0.0000 C   0  0  0  0  0  0  0  0  0  0  0  0
   -3.5736   -1.2902    0.0000 O   0  0  0  0  0  0  0  0  0  0  0  0
   -1.8351   -3.2209    0.0000 C   0  0  0  0  0  0  0  0  0  0  0  0
   -0.4086   -3.6844    0.0000 C   0  0  0  0  0  0  0  0  0  0  0  0
   -0.0967   -5.1517    0.0000 C   0  0  0  0  0  0  0  0  0  0  0  0
    1.2736   -5.7618    0.0000 C   0  0  0  0  0  0  0  0  0  0  0  0
    1.1168   -7.2536    0.0000 C   0  0  0  0  0  0  0  0  0  0  0  0
   -0.3504   -7.5654    0.0000 C   0  0  0  0  0  0  0  0  0  0  0  0
   -1.1004   -6.2664    0.0000 N   0  0  0  0  0  4  0  0  0  0  0  0
    0.7062   -2.6807    0.0000 N   0  0  0  0  0  0  0  0  0  0  0  0
    0.3943   -1.2135    0.0000 C   0  0  0  0  0  0  0  0  0  0  0  0
    1.8615   -1.5254    0.0000 C   0  0  0  0  0  0  0  0  0  0  0  0
    2.3250   -2.9520    0.0000 C   0  0  0  0  0  0  0  0  0  0  0  0
    1.3213   -4.0667    0.0000 C   0  0  0  0  0  0  0  0  0  0  0  0
    1.7849   -5.4933    0.0000 C   0  0  0  0  0  0  0  0  0  0  0  0
    3.2521   -5.8051    0.0000 C   0  0  0  0  0  0  0  0  0  0  0  0
    4.2558   -4.6904    0.0000 C   0  0  0  0  0  0  0  0  0  0  0  0
    3.7923   -3.2638    0.0000 C   0  0  0  0  0  0  0  0  0  0  0  0
  1  2  1  0
  2  3  1  0
  2  4  1  0
  4  5  2  0
  5  6  1  0
  6  7  1  0
  7  8  1  0
  8  9  2  0
  8 10  1  0
 10 11  2  0
 12 11  1  6
 12 13  1  0
 13 14  1  0
 14 15  1  0
 15 16  1  0
 11 17  1  0
 17 18  1  0
 18 19  1  6
 19 20  1  0
 20 21  2  0
 21 22  1  0
 22 23  2  0
 23 24  1  0
 24 25  2  0
 18  4  1  0
 25 20  1  0
 18  7  1  0
 16 12  1  0
M  CHG  1  16   1
M  END
>  <Compound_ID>  (734) 
C39955816

>  <Active>  (734) 
0.0

>  <Smiles>  (734) 
CC(C)C1=CNN2C(=O)C=C([C@@H]3CCC[NH2+]3)N[C@]12Cc1ccccc1

>  <canonical_smi>  (734) 
CC(C)C1=CNN2C(=O)C=C([C@@H]3CCC[NH2+]3)N[C@]12Cc1ccccc1

>  <Set>  (734) 
G2 inactive

>  <Set_type>  (734) 
Train

>  <MW>  (734) 
339.46

>  <HBD>  (734) 
3

>  <HBA>  (734) 
3

>  <NRB>  (734) 
4

>  <NR>  (734) 
4

>  <NAR>  (734) 
1

>  <PSA>  (734) 
60.98

>  <Standard Type>  (734) 
nan

>  <Standard Relation>  (734) 
nan

>  <Standard Units>  (734) 
nan

>  <Standard Value>  (734) 
nan

>  <Assay ChEMBL ID>  (734) 
nan

>  <Assay Description>  (734) 
nan

>  <BAO Label>  (734) 
nan

$$$$

     RDKit          2D

 21 23  0  0  0  0  0  0  0  0999 V2000
   -8.5658   -5.4280    0.0000 N   0  0  0  0  0  4  0  0  0  0  0  0
   -7.0740   -5.5848    0.0000 C   0  0  0  0  0  0  0  0  0  0  0  0
   -6.4639   -6.9551    0.0000 C   0  0  0  0  0  0  0  0  0  0  0  0
   -4.9721   -7.1119    0.0000 C   0  0  0  0  0  0  0  0  0  0  0  0
   -4.2221   -8.4110    0.0000 C   0  0  0  0  0  0  0  0  0  0  0  0
   -2.7549   -8.0991    0.0000 C   0  0  0  0  0  0  0  0  0  0  0  0
   -2.5981   -6.6073    0.0000 C   0  0  0  0  0  0  0  0  0  0  0  0
   -1.2990   -5.8573    0.0000 S   0  0  0  0  0  0  0  0  0  0  0  0
   -2.0490   -4.5583    0.0000 O   0  0  0  0  0  0  0  0  0  0  0  0
   -0.5490   -7.1563    0.0000 O   0  0  0  0  0  0  0  0  0  0  0  0
   -0.0000   -5.1073    0.0000 N   0  0  0  0  0  0  0  0  0  0  0  0
   -0.0000   -3.6073    0.0000 C   0  0  0  0  0  0  0  0  0  0  0  0
   -1.2135   -2.7256    0.0000 N   0  0  0  0  0  0  0  0  0  0  0  0
   -0.7500   -1.2990    0.0000 C   0  0  0  0  0  0  0  0  0  0  0  0
    0.7500   -1.2990    0.0000 C   0  0  0  0  0  0  0  0  0  0  0  0
    1.2135   -2.7256    0.0000 S   0  0  0  0  0  0  0  0  0  0  0  0
    1.5000    0.0000    0.0000 C   0  0  0  0  0  0  0  0  0  0  0  0
    0.7500    1.2990    0.0000 C   0  0  0  0  0  0  0  0  0  0  0  0
   -0.7500    1.2990    0.0000 C   0  0  0  0  0  0  0  0  0  0  0  0
   -1.5000    0.0000    0.0000 C   0  0  0  0  0  0  0  0  0  0  0  0
   -3.9684   -5.9972    0.0000 S   0  0  0  0  0  0  0  0  0  0  0  0
  1  2  1  0
  2  3  1  0
  3  4  1  0
  4  5  2  0
  5  6  1  0
  6  7  2  0
  7  8  1  0
  8  9  2  0
  8 10  2  0
  8 11  1  0
 11 12  2  0
 12 13  1  0
 13 14  1  0
 14 15  2  0
 15 16  1  0
 15 17  1  0
 17 18  1  0
 18 19  1  0
 19 20  1  0
  7 21  1  0
 21  4  1  0
 16 12  1  0
 20 14  1  0
M  CHG  1   1   1
M  END
>  <Compound_ID>  (735) 
C49560680

>  <Active>  (735) 
0.0

>  <Smiles>  (735) 
[NH3+]CCc1ccc(S(=O)(=O)/N=c2\[nH]c3c(s2)CCCC3)s1

>  <canonical_smi>  (735) 
[NH3+]CCc1ccc(S(=O)(=O)/N=c2\[nH]c3c(s2)CCCC3)s1

>  <Set>  (735) 
G2 inactive

>  <Set_type>  (735) 
Train

>  <MW>  (735) 
344.51

>  <HBD>  (735) 
2

>  <HBA>  (735) 
2

>  <NRB>  (735) 
4

>  <NR>  (735) 
3

>  <NAR>  (735) 
2

>  <PSA>  (735) 
89.93

>  <Standard Type>  (735) 
nan

>  <Standard Relation>  (735) 
nan

>  <Standard Units>  (735) 
nan

>  <Standard Value>  (735) 
nan

>  <Assay ChEMBL ID>  (735) 
nan

>  <Assay Description>  (735) 
nan

>  <BAO Label>  (735) 
nan

$$$$

     RDKit          2D

 23 23  0  0  0  0  0  0  0  0999 V2000
    7.5000   -0.0000    0.0000 N   0  0  0  0  0  4  0  0  0  0  0  0
    6.7500    1.2990    0.0000 C   0  0  0  0  0  0  0  0  0  0  0  0
    5.2500    1.2990    0.0000 N   0  0  0  0  0  0  0  0  0  0  0  0
    4.5000    0.0000    0.0000 N   0  0  0  0  0  0  0  0  0  0  0  0
    3.0000    0.0000    0.0000 S   0  0  0  0  0  0  0  0  0  0  0  0
    3.0000   -1.5000    0.0000 O   0  0  0  0  0  0  0  0  0  0  0  0
    3.0000    1.5000    0.0000 O   0  0  0  0  0  0  0  0  0  0  0  0
    1.5000    0.0000    0.0000 C   0  0  0  0  0  0  0  0  0  0  0  0
    0.7500   -1.2990    0.0000 C   0  0  0  0  0  0  0  0  0  0  0  0
   -0.7500   -1.2990    0.0000 C   0  0  0  0  0  0  0  0  0  0  0  0
   -1.5000    0.0000    0.0000 C   0  0  0  0  0  0  0  0  0  0  0  0
   -0.7500    1.2990    0.0000 C   0  0  0  0  0  0  0  0  0  0  0  0
    0.7500    1.2990    0.0000 C   0  0  0  0  0  0  0  0  0  0  0  0
    7.5000    2.5981    0.0000 C   0  0  0  0  0  0  0  0  0  0  0  0
    8.7990    1.8481    0.0000 F   0  0  0  0  0  0  0  0  0  0  0  0
    6.2010    3.3481    0.0000 F   0  0  0  0  0  0  0  0  0  0  0  0
    8.2500    3.8971    0.0000 C   0  0  0  0  0  0  0  0  0  0  0  0
    6.9510    4.6471    0.0000 F   0  0  0  0  0  0  0  0  0  0  0  0
    9.5490    3.1471    0.0000 F   0  0  0  0  0  0  0  0  0  0  0  0
    9.0000    5.1962    0.0000 C   0  0  0  0  0  0  0  0  0  0  0  0
    9.7500    6.4952    0.0000 F   0  0  0  0  0  0  0  0  0  0  0  0
   10.2990    4.4462    0.0000 F   0  0  0  0  0  0  0  0  0  0  0  0
    7.7010    5.9462    0.0000 F   0  0  0  0  0  0  0  0  0  0  0  0
  1  2  2  0
  2  3  1  0
  3  4  1  0
  4  5  1  0
  5  6  2  0
  5  7  2  0
  5  8  1  0
  8  9  2  0
  9 10  1  0
 10 11  2  0
 11 12  1  0
 12 13  2  0
  2 14  1  0
 14 15  1  0
 14 16  1  0
 14 17  1  0
 17 18  1  0
 17 19  1  0
 17 20  1  0
 20 21  1  0
 20 22  1  0
 20 23  1  0
 13  8  1  0
M  CHG  1   1   1
M  END
>  <Compound_ID>  (736) 
C01697252

>  <Active>  (736) 
0.0

>  <Smiles>  (736) 
[NH2+]=C(NNS(=O)(=O)c1ccccc1)C(F)(F)C(F)(F)C(F)(F)F

>  <canonical_smi>  (736) 
[NH2+]=C(NNS(=O)(=O)c1ccccc1)C(F)(F)C(F)(F)C(F)(F)F

>  <Set>  (736) 
G2 inactive

>  <Set_type>  (736) 
Train

>  <MW>  (736) 
368.25

>  <HBD>  (736) 
3

>  <HBA>  (736) 
3

>  <NRB>  (736) 
5

>  <NR>  (736) 
1

>  <NAR>  (736) 
1

>  <PSA>  (736) 
83.79

>  <Standard Type>  (736) 
nan

>  <Standard Relation>  (736) 
nan

>  <Standard Units>  (736) 
nan

>  <Standard Value>  (736) 
nan

>  <Assay ChEMBL ID>  (736) 
nan

>  <Assay Description>  (736) 
nan

>  <BAO Label>  (736) 
nan

$$$$

     RDKit          2D

 21 22  0  0  0  0  0  0  0  0999 V2000
    1.5000   -7.7942    0.0000 C   0  0  0  0  0  0  0  0  0  0  0  0
    0.7500   -6.4952    0.0000 N   0  0  0  0  0  0  0  0  0  0  0  0
    1.5000   -5.1962    0.0000 C   0  0  0  0  0  0  0  0  0  0  0  0
    0.7500   -3.8971    0.0000 C   0  0  0  0  0  0  0  0  0  0  0  0
    1.5000   -2.5981    0.0000 O   0  0  0  0  0  0  0  0  0  0  0  0
    0.7500   -1.2990    0.0000 C   0  0  0  0  0  0  0  0  0  0  0  0
    1.5000    0.0000    0.0000 C   0  0  0  0  0  0  0  0  0  0  0  0
    0.7500    1.2990    0.0000 C   0  0  0  0  0  0  0  0  0  0  0  0
   -0.7500    1.2990    0.0000 C   0  0  0  0  0  0  0  0  0  0  0  0
   -1.5000    2.5981    0.0000 C   0  0  0  0  0  0  0  0  0  0  0  0
   -0.7500    3.8971    0.0000 N   0  0  0  0  0  0  0  0  0  0  0  0
   -3.0000    2.5981    0.0000 N   0  0  0  0  0  4  0  0  0  0  0  0
   -1.5000    0.0000    0.0000 C   0  0  0  0  0  0  0  0  0  0  0  0
   -0.7500   -1.2990    0.0000 C   0  0  0  0  0  0  0  0  0  0  0  0
   -0.7500   -6.4952    0.0000 C   0  0  0  0  0  0  0  0  0  0  0  0
   -1.5000   -7.7942    0.0000 C   0  0  0  0  0  0  0  0  0  0  0  0
   -0.8899   -9.1645    0.0000 C   0  0  0  0  0  0  0  0  0  0  0  0
   -2.0046  -10.1682    0.0000 C   0  0  0  0  0  0  0  0  0  0  0  0
   -1.8478  -11.6600    0.0000 Br  0  0  0  0  0  0  0  0  0  0  0  0
   -3.3037   -9.4182    0.0000 C   0  0  0  0  0  0  0  0  0  0  0  0
   -2.9918   -7.9510    0.0000 S   0  0  0  0  0  0  0  0  0  0  0  0
  1  2  1  0
  2  3  1  0
  3  4  1  0
  4  5  1  0
  5  6  1  0
  6  7  2  0
  7  8  1  0
  8  9  2  0
  9 10  1  0
 10 11  1  0
 10 12  2  0
  9 13  1  0
 13 14  2  0
  2 15  1  0
 15 16  1  0
 16 17  2  0
 17 18  1  0
 18 19  1  0
 18 20  2  0
 20 21  1  0
 14  6  1  0
 21 16  1  0
M  CHG  1  12   1
M  END
>  <Compound_ID>  (737) 
C42399573

>  <Active>  (737) 
0.0

>  <Smiles>  (737) 
CN(CCOc1ccc(C(N)=[NH2+])cc1)Cc1cc(Br)cs1

>  <canonical_smi>  (737) 
CN(CCOc1ccc(C(N)=[NH2+])cc1)Cc1cc(Br)cs1

>  <Set>  (737) 
G2 inactive

>  <Set_type>  (737) 
Train

>  <MW>  (737) 
369.31

>  <HBD>  (737) 
2

>  <HBA>  (737) 
3

>  <NRB>  (737) 
7

>  <NR>  (737) 
2

>  <NAR>  (737) 
2

>  <PSA>  (737) 
64.08

>  <Standard Type>  (737) 
nan

>  <Standard Relation>  (737) 
nan

>  <Standard Units>  (737) 
nan

>  <Standard Value>  (737) 
nan

>  <Assay ChEMBL ID>  (737) 
nan

>  <Assay Description>  (737) 
nan

>  <BAO Label>  (737) 
nan

$$$$

     RDKit          2D

 28 30  0  0  0  0  0  0  0  0999 V2000
   -1.5000   -5.1962    0.0000 C   0  0  0  0  0  0  0  0  0  0  0  0
   -0.7500   -3.8971    0.0000 C   0  0  0  0  0  0  0  0  0  0  0  0
    0.7500   -3.8971    0.0000 C   0  0  0  0  0  0  0  0  0  0  0  0
    1.5000   -2.5981    0.0000 C   0  0  0  0  0  0  0  0  0  0  0  0
    3.0000   -2.5981    0.0000 C   0  0  0  0  0  0  0  0  0  0  0  0
    3.7500   -1.2990    0.0000 O   0  0  0  0  0  0  0  0  0  0  0  0
    3.7500   -3.8971    0.0000 O   0  0  0  0  0  0  0  0  0  0  0  0
    5.2500   -3.8971    0.0000 C   0  0  0  0  0  0  0  0  0  0  0  0
    6.0000   -5.1962    0.0000 C   0  0  0  0  0  0  0  0  0  0  0  0
    5.2500   -6.4952    0.0000 O   0  0  0  0  0  0  0  0  0  0  0  0
    7.5000   -5.1962    0.0000 N   0  0  0  0  0  0  0  0  0  0  0  0
    8.2500   -6.4952    0.0000 C   0  0  0  0  0  0  0  0  0  0  0  0
    7.5000   -7.7942    0.0000 C   0  0  0  0  0  0  0  0  0  0  0  0
    8.2500   -9.0933    0.0000 C   0  0  0  0  0  0  0  0  0  0  0  0
    7.5000  -10.3923    0.0000 N   0  0  0  0  0  4  0  0  0  0  0  0
    8.2500  -11.6913    0.0000 O   0  0  0  0  0  0  0  0  0  0  0  0
    6.0000  -10.3923    0.0000 O   0  0  0  0  0  1  0  0  0  0  0  0
    9.7500   -9.0933    0.0000 C   0  0  0  0  0  0  0  0  0  0  0  0
   10.5000   -7.7942    0.0000 C   0  0  0  0  0  0  0  0  0  0  0  0
    9.7500   -6.4952    0.0000 C   0  0  0  0  0  0  0  0  0  0  0  0
   10.5000   -5.1962    0.0000 C   0  0  0  0  0  0  0  0  0  0  0  0
    0.7500   -1.2990    0.0000 C   0  0  0  0  0  0  0  0  0  0  0  0
    1.5000    0.0000    0.0000 C   0  0  0  0  0  0  0  0  0  0  0  0
    0.7500    1.2990    0.0000 C   0  0  0  0  0  0  0  0  0  0  0  0
   -0.7500    1.2990    0.0000 C   0  0  0  0  0  0  0  0  0  0  0  0
   -1.5000    0.0000    0.0000 C   0  0  0  0  0  0  0  0  0  0  0  0
   -0.7500   -1.2990    0.0000 C   0  0  0  0  0  0  0  0  0  0  0  0
   -1.5000   -2.5981    0.0000 N   0  0  0  0  0  0  0  0  0  0  0  0
  1  2  1  0
  2  3  2  0
  3  4  1  0
  4  5  1  0
  5  6  2  0
  5  7  1  0
  7  8  1  0
  8  9  1  0
  9 10  2  0
  9 11  1  0
 11 12  1  0
 12 13  2  0
 13 14  1  0
 14 15  1  0
 15 16  2  0
 15 17  1  0
 14 18  2  0
 18 19  1  0
 19 20  2  0
 20 21  1  0
  4 22  2  0
 22 23  1  0
 23 24  2  0
 24 25  1  0
 25 26  2  0
 26 27  1  0
 27 28  2  0
 28  2  1  0
 20 12  1  0
 27 22  1  0
M  CHG  2  15   1  17  -1
M  END
>  <Compound_ID>  (738) 
C04766260

>  <Active>  (738) 
0.0

>  <Smiles>  (738) 
Cc1cc(C(=O)OCC(=O)Nc2cc([N+](=O)[O-])ccc2C)c2ccccc2n1

>  <canonical_smi>  (738) 
Cc1cc(C(=O)OCC(=O)Nc2cc([N+](=O)[O-])ccc2C)c2ccccc2n1

>  <Set>  (738) 
G2 inactive

>  <Set_type>  (738) 
Train

>  <MW>  (738) 
379.37

>  <HBD>  (738) 
1

>  <HBA>  (738) 
6

>  <NRB>  (738) 
5

>  <NR>  (738) 
3

>  <NAR>  (738) 
3

>  <PSA>  (738) 
111.43

>  <Standard Type>  (738) 
nan

>  <Standard Relation>  (738) 
nan

>  <Standard Units>  (738) 
nan

>  <Standard Value>  (738) 
nan

>  <Assay ChEMBL ID>  (738) 
nan

>  <Assay Description>  (738) 
nan

>  <BAO Label>  (738) 
nan

$$$$

     RDKit          2D

 30 33  0  0  0  0  0  0  0  0999 V2000
    7.5785   -6.6032    0.0000 C   0  0  0  0  0  0  0  0  0  0  0  0
    6.3650   -5.7215    0.0000 C   0  0  0  0  0  0  0  0  0  0  0  0
    4.9947   -6.3316    0.0000 C   0  0  0  0  0  0  0  0  0  0  0  0
    6.5218   -4.2298    0.0000 S   0  0  0  0  0  0  0  0  0  0  0  0
    5.3083   -3.3481    0.0000 C   0  0  0  0  0  0  0  0  0  0  0  0
    5.3083   -1.8481    0.0000 N   0  0  0  0  0  0  0  0  0  0  0  0
    3.8817   -1.3846    0.0000 N   0  0  0  0  0  0  0  0  0  0  0  0
    3.0000   -2.5981    0.0000 C   0  0  0  0  0  0  0  0  0  0  0  0
    1.5000   -2.5981    0.0000 N   0  0  0  0  0  0  0  0  0  0  0  0
    0.7500   -3.8971    0.0000 C   0  0  0  0  0  0  0  0  0  0  0  0
    1.5000   -5.1962    0.0000 N   0  0  0  0  0  0  0  0  0  0  0  0
   -0.7500   -3.8971    0.0000 C   0  0  0  0  0  0  0  0  0  0  0  0
   -1.5000   -5.1962    0.0000 C   0  0  0  0  0  0  0  0  0  0  0  0
   -2.2500   -6.4952    0.0000 N   0  0  0  0  0  0  0  0  0  0  0  0
   -1.5000   -2.5981    0.0000 C   0  0  0  0  0  0  0  0  0  0  0  0
   -3.0000   -2.5981    0.0000 C   0  0  0  0  0  0  0  0  0  0  0  0
   -3.8817   -3.8116    0.0000 C   0  0  0  0  0  0  0  0  0  0  0  0
   -5.3083   -3.3481    0.0000 C   0  0  0  0  0  0  0  0  0  0  0  0
   -5.3083   -1.8481    0.0000 S   0  0  0  0  0  0  0  0  0  0  0  0
   -3.8817   -1.3846    0.0000 C   0  0  0  0  0  0  0  0  0  0  0  0
   -0.7500   -1.2990    0.0000 C   0  0  0  0  0  0  0  0  0  0  0  0
    0.7500   -1.2990    0.0000 C   0  0  0  0  0  0  0  0  0  0  0  0
    1.5000    0.0000    0.0000 C   0  0  0  0  0  0  0  0  0  0  0  0
    0.7500    1.2990    0.0000 C   0  0  0  0  0  0  0  0  0  0  0  0
    0.4895    2.7762    0.0000 C   0  0  0  0  0  0  0  0  0  0  0  0
    2.1595    1.8121    0.0000 C   0  0  0  0  0  0  0  0  0  0  0  0
   -0.7500    1.2990    0.0000 C   0  0  0  0  0  0  0  0  0  0  0  0
   -1.5000    0.0000    0.0000 C   0  0  0  0  0  0  0  0  0  0  0  0
   -3.0000    0.0000    0.0000 O   0  0  0  0  0  0  0  0  0  0  0  0
    3.8817   -3.8116    0.0000 S   0  0  0  0  0  0  0  0  0  0  0  0
  1  2  1  0
  2  3  1  0
  2  4  1  0
  4  5  1  0
  5  6  2  0
  6  7  1  0
  7  8  2  0
  8  9  1  0
  9 10  1  0
 10 11  1  0
 10 12  2  0
 12 13  1  0
 13 14  3  0
 12 15  1  0
 15 16  1  6
 16 17  1  0
 17 18  2  0
 18 19  1  0
 19 20  1  0
 15 21  1  0
 21 22  2  0
 22 23  1  0
 23 24  1  0
 24 25  1  0
 24 26  1  0
 24 27  1  0
 27 28  1  0
 28 29  2  0
  8 30  1  0
 30  5  1  0
 22  9  1  0
 20 16  2  0
 28 21  1  0
M  END
>  <Compound_ID>  (739) 
C12401694

>  <Active>  (739) 
0.0

>  <Smiles>  (739) 
CC(C)Sc1nnc(N2C(N)=C(C#N)[C@H](c3ccsc3)C3=C2CC(C)(C)CC3=O)s1

>  <canonical_smi>  (739) 
CC(C)Sc1nnc(N2C(N)=C(C#N)[C@H](c3ccsc3)C3=C2CC(C)(C)CC3=O)s1

>  <Set>  (739) 
G2 inactive

>  <Set_type>  (739) 
Train

>  <MW>  (739) 
457.65

>  <HBD>  (739) 
1

>  <HBA>  (739) 
7

>  <NRB>  (739) 
4

>  <NR>  (739) 
4

>  <NAR>  (739) 
2

>  <PSA>  (739) 
95.9

>  <Standard Type>  (739) 
nan

>  <Standard Relation>  (739) 
nan

>  <Standard Units>  (739) 
nan

>  <Standard Value>  (739) 
nan

>  <Assay ChEMBL ID>  (739) 
nan

>  <Assay Description>  (739) 
nan

>  <BAO Label>  (739) 
nan

$$$$

     RDKit          2D

 32 37  0  0  0  0  0  0  0  0999 V2000
    4.7779    9.2179    0.0000 C   0  0  0  0  0  0  0  0  0  0  0  0
    4.1678   10.5882    0.0000 C   0  0  0  0  0  0  0  0  0  0  0  0
    2.8687    9.8382    0.0000 C   0  0  0  0  0  0  0  0  0  0  0  0
    1.4984   10.4483    0.0000 C   0  0  0  0  0  0  0  0  0  0  0  0
    0.4947    9.3336    0.0000 C   0  0  0  0  0  0  0  0  0  0  0  0
    1.2447    8.0346    0.0000 C   0  0  0  0  0  0  0  0  0  0  0  0
    0.7812    6.6080    0.0000 C   0  0  0  0  0  0  0  0  0  0  0  0
   -0.6860    6.2961    0.0000 C   0  0  0  0  0  0  0  0  0  0  0  0
   -1.1496    4.8695    0.0000 C   0  0  0  0  0  0  0  0  0  0  0  0
   -0.1459    3.7548    0.0000 C   0  0  0  0  0  0  0  0  0  0  0  0
   -0.6094    2.3282    0.0000 C   0  0  0  0  0  0  0  0  0  0  0  0
    0.3943    1.2135    0.0000 C   0  0  0  0  0  0  0  0  0  0  0  0
    1.8615    1.5254    0.0000 C   0  0  0  0  0  0  0  0  0  0  0  0
    2.3250    2.9520    0.0000 C   0  0  0  0  0  0  0  0  0  0  0  0
    1.3213    4.0667    0.0000 C   0  0  0  0  0  0  0  0  0  0  0  0
    2.7886    4.3786    0.0000 C   0  0  0  0  0  0  0  0  0  0  0  0
    1.7849    5.4933    0.0000 C   0  0  0  0  0  0  0  0  0  0  0  0
    3.2521    5.8051    0.0000 C   0  0  0  0  0  0  0  0  0  0  0  0
    4.2558    4.6904    0.0000 O   0  0  0  0  0  0  0  0  0  0  0  0
    3.7156    7.2317    0.0000 C   0  0  0  0  0  0  0  0  0  0  0  0
    2.7119    8.3464    0.0000 C   0  0  0  0  0  0  0  0  0  0  0  0
    4.1385    8.8100    0.0000 C   0  0  0  0  0  0  0  0  0  0  0  0
    5.2532    7.8063    0.0000 N   0  0  0  0  0  0  0  0  0  0  0  0
    6.6798    8.2698    0.0000 O   0  0  0  0  0  0  0  0  0  0  0  0
    1.2760    0.0000    0.0000 O   0  0  0  0  0  0  0  0  0  0  0  0
    0.3943   -1.2135    0.0000 C   0  0  0  0  0  0  0  0  0  0  0  0
   -1.0323   -0.7500    0.0000 C   0  0  0  0  0  0  0  0  0  0  0  0
   -1.0323    0.7500    0.0000 O   0  0  0  0  0  0  0  0  0  0  0  0
    5.5943   11.0518    0.0000 O   0  0  0  0  0  0  0  0  0  0  0  0
    5.5943   12.5518    0.0000 C   0  0  0  0  0  0  0  0  0  0  0  0
    4.1678   13.0153    0.0000 C   0  0  0  0  0  0  0  0  0  0  0  0
    3.2861   11.8018    0.0000 O   0  0  0  0  0  0  0  0  0  0  0  0
  1  2  1  0
  3  2  1  6
  3  4  1  0
  4  5  1  0
  6  5  1  6
  6  7  1  0
  7  8  1  1
  8  9  1  0
 10  9  1  1
 10 11  1  0
 11 12  1  0
 12 13  1  0
 13 14  1  0
 14 15  1  0
 15 16  1  6
 15 17  1  0
 17 18  1  1
 18 19  1  6
 18 20  1  0
 20 21  1  0
 21 22  1  6
 22 23  2  0
 23 24  1  0
 12 25  1  0
 25 26  1  0
 26 27  1  0
 27 28  1  0
  2 29  1  0
 29 30  1  0
 30 31  1  0
 31 32  1  0
 32  2  1  0
 21  3  1  0
 21  6  1  0
 17  7  1  0
 15 10  1  0
 28 12  1  0
M  END
>  <Compound_ID>  (740) 
C12661278

>  <Active>  (740) 
0.0

>  <Smiles>  (740) 
CC1([C@H]2CC[C@H]3[C@@H]4CC[C@@H]5CC6(CC[C@]5(C)[C@@H]4[C@@H](O)C[C@]23/C=N/O)OCCO6)OCCO1

>  <canonical_smi>  (740) 
CC1([C@H]2CC[C@H]3[C@@H]4CC[C@@H]5CC6(CC[C@]5(C)[C@@H]4[C@@H](O)C[C@@]32/C=N/O)OCCO6)OCCO1

>  <Set>  (740) 
G2 inactive

>  <Set_type>  (740) 
Train

>  <MW>  (740) 
449.59

>  <HBD>  (740) 
2

>  <HBA>  (740) 
6

>  <NRB>  (740) 
2

>  <NR>  (740) 
6

>  <NAR>  (740) 
0

>  <PSA>  (740) 
89.74

>  <Standard Type>  (740) 
nan

>  <Standard Relation>  (740) 
nan

>  <Standard Units>  (740) 
nan

>  <Standard Value>  (740) 
nan

>  <Assay ChEMBL ID>  (740) 
nan

>  <Assay Description>  (740) 
nan

>  <BAO Label>  (740) 
nan

$$$$

     RDKit          2D

 32 36  0  0  0  0  0  0  0  0999 V2000
    0.8050    6.0661    0.0000 O   0  0  0  0  0  0  0  0  0  0  0  0
   -0.4086    5.1844    0.0000 C   0  0  0  0  0  0  0  0  0  0  0  0
   -0.4086    3.6844    0.0000 C   0  0  0  0  0  0  0  0  0  0  0  0
    0.7062    2.6807    0.0000 C   0  0  0  0  0  0  0  0  0  0  0  0
    2.1328    3.1443    0.0000 C   0  0  0  0  0  0  0  0  0  0  0  0
    2.4446    4.6115    0.0000 C   0  0  0  0  0  0  0  0  0  0  0  0
    3.8712    5.0750    0.0000 C   0  0  0  0  0  0  0  0  0  0  0  0
    4.9859    4.0713    0.0000 C   0  0  0  0  0  0  0  0  0  0  0  0
    4.6741    2.6041    0.0000 C   0  0  0  0  0  0  0  0  0  0  0  0
    3.2475    2.1406    0.0000 C   0  0  0  0  0  0  0  0  0  0  0  0
    2.9356    0.6734    0.0000 O   0  0  0  0  0  0  0  0  0  0  0  0
    0.3943    1.2135    0.0000 C   0  0  0  0  0  0  0  0  0  0  0  0
    1.2760    0.0000    0.0000 S   0  0  0  0  0  0  0  0  0  0  0  0
    0.3943   -1.2135    0.0000 C   0  0  0  0  0  0  0  0  0  0  0  0
    0.8578   -2.6401    0.0000 O   0  0  0  0  0  0  0  0  0  0  0  0
   -1.0323   -0.7500    0.0000 N   0  0  0  0  0  0  0  0  0  0  0  0
   -1.0323    0.7500    0.0000 C   0  0  0  0  0  0  0  0  0  0  0  0
   -2.1470    1.7537    0.0000 S   0  0  0  0  0  0  0  0  0  0  0  0
   -1.8351    3.2209    0.0000 C   0  0  0  0  0  0  0  0  0  0  0  0
   -2.7168    4.4344    0.0000 C   0  0  0  0  0  0  0  0  0  0  0  0
   -4.2168    4.4344    0.0000 O   0  0  0  0  0  0  0  0  0  0  0  0
   -1.8351    5.6480    0.0000 N   0  0  0  0  0  0  0  0  0  0  0  0
   -2.2987    7.0746    0.0000 C   0  0  0  0  0  0  0  0  0  0  0  0
   -1.2950    8.1893    0.0000 C   0  0  0  0  0  0  0  0  0  0  0  0
   -1.7585    9.6159    0.0000 C   0  0  0  0  0  0  0  0  0  0  0  0
   -3.2257    9.9277    0.0000 C   0  0  0  0  0  0  0  0  0  0  0  0
   -4.2294    8.8130    0.0000 C   0  0  0  0  0  0  0  0  0  0  0  0
   -3.7659    7.3864    0.0000 C   0  0  0  0  0  0  0  0  0  0  0  0
   -4.7696    6.2717    0.0000 C   0  0  0  0  0  0  0  0  0  0  0  0
   -5.7733    5.1570    0.0000 F   0  0  0  0  0  0  0  0  0  0  0  0
   -5.8843    7.2754    0.0000 F   0  0  0  0  0  0  0  0  0  0  0  0
   -3.6549    5.2680    0.0000 F   0  0  0  0  0  0  0  0  0  0  0  0
  1  2  2  0
  3  2  1  1
  3  4  1  0
  4  5  1  1
  5  6  2  0
  6  7  1  0
  7  8  2  0
  8  9  1  0
  9 10  2  0
 10 11  1  0
  4 12  1  0
 12 13  1  0
 13 14  1  0
 14 15  2  0
 14 16  1  0
 16 17  1  0
 17 18  1  0
 19 18  1  1
 19 20  1  0
 20 21  2  0
 20 22  1  0
 22 23  1  0
 23 24  2  0
 24 25  1  0
 25 26  2  0
 26 27  1  0
 27 28  2  0
 28 29  1  0
 29 30  1  0
 29 31  1  0
 29 32  1  0
 22  2  1  0
 28 23  1  0
 19  3  1  0
 10  5  1  0
 17 12  2  0
M  END
>  <Compound_ID>  (741) 
C47147111

>  <Active>  (741) 
0.0

>  <Smiles>  (741) 
O=C1[C@H]2[C@@H](c3ccccc3O)c3sc(=O)[nH]c3S[C@H]2C(=O)N1c1ccccc1C(F)(F)F

>  <canonical_smi>  (741) 
O=C1[C@@H]2Sc3[nH]c(=O)sc3[C@H](c3ccccc3O)[C@@H]2C(=O)N1c1ccccc1C(F)(F)F

>  <Set>  (741) 
G2 inactive

>  <Set_type>  (741) 
Train

>  <MW>  (741) 
478.47

>  <HBD>  (741) 
2

>  <HBA>  (741) 
5

>  <NRB>  (741) 
2

>  <NR>  (741) 
5

>  <NAR>  (741) 
3

>  <PSA>  (741) 
90.47

>  <Standard Type>  (741) 
nan

>  <Standard Relation>  (741) 
nan

>  <Standard Units>  (741) 
nan

>  <Standard Value>  (741) 
nan

>  <Assay ChEMBL ID>  (741) 
nan

>  <Assay Description>  (741) 
nan

>  <BAO Label>  (741) 
nan

$$$$

     RDKit          2D

 27 31  0  0  0  0  0  0  0  0999 V2000
    2.7760    0.0000    0.0000 O   0  0  0  0  0  0  0  0  0  0  0  0
    1.2760    0.0000    0.0000 C   0  0  0  0  0  0  0  0  0  0  0  0
    0.3943    1.2135    0.0000 C   0  0  0  0  0  0  0  0  0  0  0  0
   -1.0323    0.7500    0.0000 C   0  0  0  0  0  0  0  0  0  0  0  0
   -1.0323   -0.7500    0.0000 C   0  0  0  0  0  0  0  0  0  0  0  0
   -2.4026   -0.1399    0.0000 C   0  0  0  0  0  0  0  0  0  0  0  0
   -3.6161   -1.0216    0.0000 C   0  0  0  0  0  0  0  0  0  0  0  0
   -4.9864   -0.4115    0.0000 O   0  0  0  0  0  0  0  0  0  0  0  0
   -3.4593   -2.5134    0.0000 O   0  0  0  0  0  0  0  0  0  0  0  0
   -2.0890   -3.1235    0.0000 C   0  0  0  0  0  0  0  0  0  0  0  0
   -0.8755   -2.2418    0.0000 C   0  0  0  0  0  0  0  0  0  0  0  0
    0.4948   -2.8519    0.0000 C   0  0  0  0  0  0  0  0  0  0  0  0
    1.7083   -1.9702    0.0000 O   0  0  0  0  0  0  0  0  0  0  0  0
    0.6516   -4.3437    0.0000 C   0  0  0  0  0  0  0  0  0  0  0  0
    1.8651   -5.2253    0.0000 O   0  0  0  0  0  0  0  0  0  0  0  0
    1.4016   -6.6519    0.0000 C   0  0  0  0  0  0  0  0  0  0  0  0
   -0.0984   -6.6519    0.0000 C   0  0  0  0  0  0  0  0  0  0  0  0
   -0.5619   -5.2253    0.0000 C   0  0  0  0  0  0  0  0  0  0  0  0
   -1.9322   -4.6152    0.0000 C   0  0  0  0  0  0  0  0  0  0  0  0
   -3.1458   -5.4969    0.0000 O   0  0  0  0  0  0  0  0  0  0  0  0
   -0.8484   -7.9510    0.0000 C   0  0  0  0  0  0  0  0  0  0  0  0
   -0.0984   -9.2500    0.0000 C   0  0  0  0  0  0  0  0  0  0  0  0
   -0.8484  -10.5490    0.0000 O   0  0  0  0  0  0  0  0  0  0  0  0
    1.4016   -9.2500    0.0000 C   0  0  0  0  0  0  0  0  0  0  0  0
    2.1516  -10.5490    0.0000 O   0  0  0  0  0  0  0  0  0  0  0  0
    2.1516   -7.9510    0.0000 C   0  0  0  0  0  0  0  0  0  0  0  0
    0.3943   -1.2135    0.0000 O   0  0  0  0  0  0  0  0  0  0  0  0
  1  2  2  0
  2  3  1  0
  3  4  2  0
  4  5  1  0
  5  6  1  6
  6  7  1  0
  7  8  1  1
  7  9  1  0
  9 10  1  0
 10 11  2  0
 11 12  1  0
 12 13  1  0
 12 14  2  0
 14 15  1  0
 15 16  1  0
 16 17  1  0
 17 18  1  0
 18 19  2  0
 19 20  1  0
 17 21  2  0
 21 22  1  0
 22 23  2  0
 22 24  1  0
 24 25  2  0
 24 26  1  0
  5 27  1  0
 27  2  1  0
 11  5  1  0
 18 14  1  0
 19 10  1  0
 26 16  2  0
M  END
>  <Compound_ID>  (742) 
C05600620

>  <Active>  (742) 
0.0

>  <Smiles>  (742) 
O=C1C=C[C@@]2(C[C@H](O)Oc3c2c(O)c2oc4c(c2c3O)=CC(=O)C(=O)C=4)O1

>  <canonical_smi>  (742) 
O=C1C=C[C@@]2(C[C@H](O)Oc3c2c(O)c2oc4c(c2c3O)=CC(=O)C(=O)C=4)O1

>  <Set>  (742) 
G2 inactive

>  <Set_type>  (742) 
Train

>  <MW>  (742) 
370.27

>  <HBD>  (742) 
3

>  <HBA>  (742) 
9

>  <NRB>  (742) 
0

>  <NR>  (742) 
5

>  <NAR>  (742) 
2

>  <PSA>  (742) 
143.5

>  <Standard Type>  (742) 
nan

>  <Standard Relation>  (742) 
nan

>  <Standard Units>  (742) 
nan

>  <Standard Value>  (742) 
nan

>  <Assay ChEMBL ID>  (742) 
nan

>  <Assay Description>  (742) 
nan

>  <BAO Label>  (742) 
nan

$$$$

     RDKit          2D

 27 30  0  0  0  0  0  0  0  0999 V2000
    9.4036    0.4036    0.0000 H   0  0  0  0  0  0  0  0  0  0  0  0
    9.2468   -1.0882    0.0000 N   0  0  0  0  0  0  0  0  0  0  0  0
    7.8765   -1.6983    0.0000 C   0  0  0  0  0  0  0  0  0  0  0  0
    6.5774   -0.9483    0.0000 S   0  0  0  0  0  0  0  0  0  0  0  0
    5.4627   -1.9520    0.0000 C   0  0  0  0  0  0  0  0  0  0  0  0
    3.9955   -1.6402    0.0000 C   0  0  0  0  0  0  0  0  0  0  0  0
    2.9918   -2.7549    0.0000 C   0  0  0  0  0  0  0  0  0  0  0  0
    3.3037   -4.2221    0.0000 C   0  0  0  0  0  0  0  0  0  0  0  0
    2.0046   -4.9721    0.0000 N   0  0  0  0  0  0  0  0  0  0  0  0
    0.8899   -3.9684    0.0000 N   0  0  0  0  0  0  0  0  0  0  0  0
    1.5000   -2.5981    0.0000 C   0  0  0  0  0  0  0  0  0  0  0  0
    0.7500   -1.2990    0.0000 C   0  0  0  0  0  0  0  0  0  0  0  0
    1.5000    0.0000    0.0000 C   0  0  0  0  0  0  0  0  0  0  0  0
    0.7500    1.2990    0.0000 C   0  0  0  0  0  0  0  0  0  0  0  0
   -0.7500    1.2990    0.0000 C   0  0  0  0  0  0  0  0  0  0  0  0
   -1.5000    2.5981    0.0000 F   0  0  0  0  0  0  0  0  0  0  0  0
   -1.5000    0.0000    0.0000 C   0  0  0  0  0  0  0  0  0  0  0  0
   -0.7500   -1.2990    0.0000 C   0  0  0  0  0  0  0  0  0  0  0  0
    6.0728   -3.3223    0.0000 C   0  0  0  0  0  0  0  0  0  0  0  0
    5.3228   -4.6214    0.0000 O   0  0  0  0  0  0  0  0  0  0  0  0
    7.5646   -3.1655    0.0000 N   0  0  0  0  0  0  0  0  0  0  0  0
    8.5683   -4.2803    0.0000 C   0  0  0  0  0  0  0  0  0  0  0  0
   10.0601   -4.1235    0.0000 N   0  0  0  0  0  0  0  0  0  0  0  0
   10.6702   -5.4938    0.0000 O   0  0  0  0  0  0  0  0  0  0  0  0
    9.5555   -6.4975    0.0000 N   0  0  0  0  0  0  0  0  0  0  0  0
    8.2564   -5.7475    0.0000 C   0  0  0  0  0  0  0  0  0  0  0  0
    6.8861   -6.3576    0.0000 N   0  0  0  0  0  0  0  0  0  0  0  0
  1  2  1  0
  2  3  2  0
  3  4  1  0
  4  5  1  0
  5  6  2  0
  7  6  1  6
  7  8  1  0
  8  9  2  0
  9 10  1  0
 10 11  2  0
 11 12  1  0
 12 13  2  0
 13 14  1  0
 14 15  2  0
 15 16  1  0
 15 17  1  0
 17 18  2  0
  5 19  1  0
 19 20  2  0
 19 21  1  0
 21 22  1  0
 22 23  2  0
 23 24  1  0
 24 25  1  0
 25 26  2  0
 26 27  1  0
 21  3  1  0
 26 22  1  0
 11  7  1  0
 18 12  1  0
M  END
>  <Compound_ID>  (743) 
C63972390

>  <Active>  (743) 
0.0

>  <Smiles>  (743) 
[H]/N=C1\S/C(=C/[C@@H]2C=NN=C2c2ccc(F)cc2)C(=O)N1c1nonc1N

>  <canonical_smi>  (743) 
[H]/N=C1\S/C(=C/[C@@H]2C=NN=C2c2ccc(F)cc2)C(=O)N1c1nonc1N

>  <Set>  (743) 
G2 inactive

>  <Set_type>  (743) 
Train

>  <MW>  (743) 
371.36

>  <HBD>  (743) 
2

>  <HBA>  (743) 
6

>  <NRB>  (743) 
3

>  <NR>  (743) 
4

>  <NAR>  (743) 
2

>  <PSA>  (743) 
133.82

>  <Standard Type>  (743) 
nan

>  <Standard Relation>  (743) 
nan

>  <Standard Units>  (743) 
nan

>  <Standard Value>  (743) 
nan

>  <Assay ChEMBL ID>  (743) 
nan

>  <Assay Description>  (743) 
nan

>  <BAO Label>  (743) 
nan

$$$$

     RDKit          2D

 22 25  0  0  0  0  0  0  0  0999 V2000
    6.6375   -2.6515    0.0000 N   0  0  0  0  0  0  0  0  0  0  0  0
    5.4240   -3.5332    0.0000 C   0  0  0  0  0  0  0  0  0  0  0  0
    5.5268   -4.5119    0.0000 S   0  0  0  0  0  0  0  0  0  0  0  0
    4.0537   -2.9231    0.0000 N   0  0  0  0  0  0  0  0  0  0  0  0
    3.7418   -1.4558    0.0000 N   0  0  0  0  0  0  0  0  0  0  0  0
    2.2500   -1.2990    0.0000 C   0  0  0  0  0  0  0  0  0  0  0  0
    1.6399   -2.6694    0.0000 C   0  0  0  0  0  0  0  0  0  0  0  0
    2.7546   -3.6731    0.0000 C   0  0  0  0  0  0  0  0  0  0  0  0
    1.6399   -4.6767    0.0000 O   0  0  0  0  0  0  0  0  0  0  0  0
    3.6363   -4.8866    0.0000 C   0  0  0  0  0  0  0  0  0  0  0  0
    4.5180   -6.1001    0.0000 F   0  0  0  0  0  0  0  0  0  0  0  0
    4.5488   -4.5180    0.0000 F   0  0  0  0  0  0  0  0  0  0  0  0
    2.4228   -5.7683    0.0000 F   0  0  0  0  0  0  0  0  0  0  0  0
    0.7500   -1.2990    0.0000 C   0  0  0  0  0  0  0  0  0  0  0  0
    1.5000    0.0000    0.0000 C   0  0  0  0  0  0  0  0  0  0  0  0
    0.7500    1.2990    0.0000 C   0  0  0  0  0  0  0  0  0  0  0  0
   -0.7500    1.2990    0.0000 C   0  0  0  0  0  0  0  0  0  0  0  0
   -1.5000    0.0000    0.0000 C   0  0  0  0  0  0  0  0  0  0  0  0
   -0.7500   -1.2990    0.0000 C   0  0  0  0  0  0  0  0  0  0  0  0
    1.7010   -0.7500    0.0000 C   0  0  0  0  0  0  0  0  0  0  0  0
    3.0000   -0.0000    0.0000 C   0  0  0  0  0  0  0  0  0  0  0  0
    2.2500    1.2990    0.0000 C   0  0  0  0  0  0  0  0  0  0  0  0
  1  2  1  0
  2  3  2  0
  2  4  1  0
  4  5  1  0
  5  6  1  0
  6  7  1  0
  7  8  1  0
  8  9  1  6
  8 10  1  0
 10 11  1  0
 10 12  1  0
 10 13  1  0
  6 14  1  0
 14 15  1  0
 15 16  1  0
 16 17  1  0
 17 18  1  0
 18 19  1  0
 18 20  1  0
 20 21  1  0
 21 22  1  0
  8  4  1  0
 19 14  1  0
 21  6  1  0
 22 16  1  0
M  END
>  <Compound_ID>  (744) 
C04084651

>  <Active>  (744) 
0.0

>  <Smiles>  (744) 
NC(=S)N1NC2(C[C@]1(O)C(F)(F)F)C1CC3CC(C1)CC2C3

>  <canonical_smi>  (744) 
NC(=S)N1NC2(C[C@]1(O)C(F)(F)F)C1CC3CC(C1)CC2C3

>  <Set>  (744) 
G2 inactive

>  <Set_type>  (744) 
Train

>  <MW>  (744) 
335.39

>  <HBD>  (744) 
3

>  <HBA>  (744) 
5

>  <NRB>  (744) 
0

>  <NR>  (744) 
5

>  <NAR>  (744) 
0

>  <PSA>  (744) 
61.52

>  <Standard Type>  (744) 
nan

>  <Standard Relation>  (744) 
nan

>  <Standard Units>  (744) 
nan

>  <Standard Value>  (744) 
nan

>  <Assay ChEMBL ID>  (744) 
nan

>  <Assay Description>  (744) 
nan

>  <BAO Label>  (744) 
nan

$$$$

     RDKit          2D

 17 18  0  0  0  0  0  0  0  0999 V2000
    3.0000    0.0000    0.0000 C   0  0  0  0  0  0  0  0  0  0  0  0
    1.5000    0.0000    0.0000 C   0  0  0  0  0  0  0  0  0  0  0  0
    0.7500   -1.2990    0.0000 C   0  0  0  0  0  0  0  0  0  0  0  0
   -0.7500   -1.2990    0.0000 C   0  0  0  0  0  0  0  0  0  0  0  0
   -1.5000   -2.5981    0.0000 N   0  0  0  0  0  0  0  0  0  0  0  0
   -3.0000   -2.5981    0.0000 N   0  0  0  0  0  0  0  0  0  0  0  0
   -3.7500   -3.8971    0.0000 C   0  0  0  0  0  0  0  0  0  0  0  0
   -5.2500   -3.8971    0.0000 C   0  0  0  0  0  0  0  0  0  0  0  0
   -6.0000   -5.1962    0.0000 C   0  0  0  0  0  0  0  0  0  0  0  0
   -5.2500   -6.4952    0.0000 C   0  0  0  0  0  0  0  0  0  0  0  0
   -6.0000   -7.7942    0.0000 Br  0  0  0  0  0  0  0  0  0  0  0  0
   -3.7500   -6.4952    0.0000 C   0  0  0  0  0  0  0  0  0  0  0  0
   -3.0000   -5.1962    0.0000 C   0  0  0  0  0  0  0  0  0  0  0  0
   -1.5000    0.0000    0.0000 N   0  0  0  0  0  0  0  0  0  0  0  0
   -0.7500    1.2990    0.0000 C   0  0  0  0  0  0  0  0  0  0  0  0
   -1.5000    2.5981    0.0000 S   0  0  0  0  0  0  0  0  0  0  0  0
    0.7500    1.2990    0.0000 N   0  0  0  0  0  0  0  0  0  0  0  0
  2  1  1  6
  2  3  1  0
  3  4  1  0
  4  5  1  1
  5  6  1  0
  6  7  1  0
  7  8  2  0
  8  9  1  0
  9 10  2  0
 10 11  1  0
 10 12  1  0
 12 13  2  0
  4 14  1  0
 14 15  1  0
 15 16  2  0
 15 17  1  0
 17  2  1  0
 13  7  1  0
M  END
>  <Compound_ID>  (745) 
C00321108

>  <Active>  (745) 
0.0

>  <Smiles>  (745) 
C[C@@H]1C[C@@H](NNc2ccc(Br)cc2)NC(=S)N1

>  <canonical_smi>  (745) 
C[C@@H]1C[C@@H](NNc2ccc(Br)cc2)NC(=S)N1

>  <Set>  (745) 
G2 inactive

>  <Set_type>  (745) 
Train

>  <MW>  (745) 
315.24

>  <HBD>  (745) 
4

>  <HBA>  (745) 
5

>  <NRB>  (745) 
3

>  <NR>  (745) 
2

>  <NAR>  (745) 
1

>  <PSA>  (745) 
48.12

>  <Standard Type>  (745) 
nan

>  <Standard Relation>  (745) 
nan

>  <Standard Units>  (745) 
nan

>  <Standard Value>  (745) 
nan

>  <Assay ChEMBL ID>  (745) 
nan

>  <Assay Description>  (745) 
nan

>  <BAO Label>  (745) 
nan

$$$$

     RDKit          2D

 16 17  0  0  0  0  0  0  0  0999 V2000
   -2.9499    4.2246    0.0000 C   0  0  0  0  0  0  0  0  0  0  0  0
   -1.8351    3.2209    0.0000 C   0  0  0  0  0  0  0  0  0  0  0  0
   -0.4086    3.6844    0.0000 C   0  0  0  0  0  0  0  0  0  0  0  0
    0.7062    2.6807    0.0000 C   0  0  0  0  0  0  0  0  0  0  0  0
    2.1328    3.1443    0.0000 C   0  0  0  0  0  0  0  0  0  0  0  0
    0.3943    1.2135    0.0000 C   0  0  0  0  0  0  0  0  0  0  0  0
    1.2760    0.0000    0.0000 N   0  0  0  0  0  0  0  0  0  0  0  0
    0.3943   -1.2135    0.0000 C   0  0  0  0  0  0  0  0  0  0  0  0
    0.8578   -2.6401    0.0000 N   0  0  0  0  0  0  0  0  0  0  0  0
   -0.1459   -3.7548    0.0000 N   0  0  0  0  0  0  0  0  0  0  0  0
    0.3177   -5.1814    0.0000 C   0  0  0  0  0  0  0  0  0  0  0  0
   -0.6860   -6.2961    0.0000 N   0  0  0  0  0  0  0  0  0  0  0  0
    1.7849   -5.4933    0.0000 S   0  0  0  0  0  0  0  0  0  0  0  0
   -1.0323   -0.7500    0.0000 S   0  0  0  0  0  0  0  0  0  0  0  0
   -1.0323    0.7500    0.0000 C   0  0  0  0  0  0  0  0  0  0  0  0
   -2.1470    1.7537    0.0000 C   0  0  0  0  0  0  0  0  0  0  0  0
  1  2  1  0
  2  3  2  0
  3  4  1  0
  4  5  1  0
  4  6  2  0
  6  7  1  0
  7  8  2  0
  8  9  1  0
  9 10  1  0
 10 11  1  0
 11 12  1  0
 11 13  2  0
  8 14  1  0
 14 15  1  0
 15 16  2  0
 16  2  1  0
 15  6  1  0
M  END
>  <Compound_ID>  (746) 
C22124836

>  <Active>  (746) 
0.0

>  <Smiles>  (746) 
Cc1cc(C)c2nc(NNC(N)=S)sc2c1

>  <canonical_smi>  (746) 
Cc1cc(C)c2nc(NNC(N)=S)sc2c1

>  <Set>  (746) 
G2 inactive

>  <Set_type>  (746) 
Train

>  <MW>  (746) 
252.37

>  <HBD>  (746) 
3

>  <HBA>  (746) 
5

>  <NRB>  (746) 
2

>  <NR>  (746) 
2

>  <NAR>  (746) 
2

>  <PSA>  (746) 
62.97

>  <Standard Type>  (746) 
nan

>  <Standard Relation>  (746) 
nan

>  <Standard Units>  (746) 
nan

>  <Standard Value>  (746) 
nan

>  <Assay ChEMBL ID>  (746) 
nan

>  <Assay Description>  (746) 
nan

>  <BAO Label>  (746) 
nan

$$$$

     RDKit          2D

 19 20  0  0  0  0  0  0  0  0999 V2000
    3.0000   -2.5981    0.0000 C   0  0  0  0  0  0  0  0  0  0  0  0
    1.5000   -2.5981    0.0000 C   0  0  0  0  0  0  0  0  0  0  0  0
    0.7500   -1.2990    0.0000 C   0  0  0  0  0  0  0  0  0  0  0  0
    1.5000    0.0000    0.0000 C   0  0  0  0  0  0  0  0  0  0  0  0
    3.0000    0.0000    0.0000 O   0  0  0  0  0  0  0  0  0  0  0  0
    0.7500    1.2990    0.0000 C   0  0  0  0  0  0  0  0  0  0  0  0
    1.5000    2.5981    0.0000 C   0  0  0  0  0  0  0  0  0  0  0  0
    0.2010    3.3481    0.0000 C   0  0  0  0  0  0  0  0  0  0  0  0
    2.7990    1.8481    0.0000 C   0  0  0  0  0  0  0  0  0  0  0  0
    2.2500    3.8971    0.0000 O   0  0  0  0  0  0  0  0  0  0  0  0
   -0.7500    1.2990    0.0000 C   0  0  0  0  0  0  0  0  0  0  0  0
   -1.5000    0.0000    0.0000 C   0  0  0  0  0  0  0  0  0  0  0  0
   -0.7500   -1.2990    0.0000 C   0  0  0  0  0  0  0  0  0  0  0  0
   -2.2500   -1.2990    0.0000 C   0  0  0  0  0  0  0  0  0  0  0  0
   -1.5000   -2.5981    0.0000 C   0  0  0  0  0  0  0  0  0  0  0  0
   -3.0000   -2.5981    0.0000 O   0  0  0  0  0  0  0  0  0  0  0  0
   -0.7500   -3.8971    0.0000 C   0  0  0  0  0  0  0  0  0  0  0  0
    0.7500   -3.8971    0.0000 C   0  0  0  0  0  0  0  0  0  0  0  0
    1.5000   -5.1962    0.0000 O   0  0  0  0  0  0  0  0  0  0  0  0
  2  1  1  6
  3  2  1  6
  3  4  1  0
  4  5  1  1
  4  6  1  0
  6  7  1  1
  7  8  1  0
  7  9  1  0
  7 10  1  0
  6 11  1  0
 11 12  1  0
 12 13  1  0
 13 14  1  6
 13 15  1  0
 15 16  1  6
 15 17  1  0
 17 18  1  0
 18 19  1  1
 18  2  1  0
 13  3  1  0
M  END
>  <Compound_ID>  (747) 
C35465385

>  <Active>  (747) 
0.0

>  <Smiles>  (747) 
C[C@H]1[C@H]2[C@H](O)[C@H](C(C)(C)O)CC[C@]2(C)[C@@H](O)C[C@@H]1O

>  <canonical_smi>  (747) 
C[C@@H]1[C@@H](O)C[C@H](O)[C@@]2(C)CC[C@@H](C(C)(C)O)[C@@H](O)[C@H]12

>  <Set>  (747) 
G2 inactive

>  <Set_type>  (747) 
Train

>  <MW>  (747) 
272.38

>  <HBD>  (747) 
4

>  <HBA>  (747) 
4

>  <NRB>  (747) 
1

>  <NR>  (747) 
2

>  <NAR>  (747) 
0

>  <PSA>  (747) 
80.92

>  <Standard Type>  (747) 
nan

>  <Standard Relation>  (747) 
nan

>  <Standard Units>  (747) 
nan

>  <Standard Value>  (747) 
nan

>  <Assay ChEMBL ID>  (747) 
nan

>  <Assay Description>  (747) 
nan

>  <BAO Label>  (747) 
nan

$$$$

     RDKit          2D

 20 21  0  0  0  0  0  0  0  0999 V2000
    3.7500   -1.2990    0.0000 N   0  0  0  0  0  0  0  0  0  0  0  0
    3.0000    0.0000    0.0000 C   0  0  0  0  0  0  0  0  0  0  0  0
    3.7500    1.2990    0.0000 O   0  0  0  0  0  0  0  0  0  0  0  0
    1.5000    0.0000    0.0000 C   0  0  0  0  0  0  0  0  0  0  0  0
    0.7500   -1.2990    0.0000 C   0  0  0  0  0  0  0  0  0  0  0  0
   -0.7500   -1.2990    0.0000 C   0  0  0  0  0  0  0  0  0  0  0  0
   -1.5000   -2.5981    0.0000 O   0  0  0  0  0  0  0  0  0  0  0  0
   -3.0000   -2.5981    0.0000 C   0  0  0  0  0  0  0  0  0  0  0  0
   -3.7500   -1.2990    0.0000 C   0  0  0  0  0  0  0  0  0  0  0  0
   -5.2500   -1.2990    0.0000 C   0  0  0  0  0  0  0  0  0  0  0  0
   -6.0000   -2.5981    0.0000 C   0  0  0  0  0  0  0  0  0  0  0  0
   -7.5000   -2.5981    0.0000 F   0  0  0  0  0  0  0  0  0  0  0  0
   -5.2500   -3.8971    0.0000 C   0  0  0  0  0  0  0  0  0  0  0  0
   -6.0000   -5.1962    0.0000 F   0  0  0  0  0  0  0  0  0  0  0  0
   -3.7500   -3.8971    0.0000 C   0  0  0  0  0  0  0  0  0  0  0  0
   -1.5000    0.0000    0.0000 C   0  0  0  0  0  0  0  0  0  0  0  0
   -3.0000    0.0000    0.0000 F   0  0  0  0  0  0  0  0  0  0  0  0
   -0.7500    1.2990    0.0000 C   0  0  0  0  0  0  0  0  0  0  0  0
    0.7500    1.2990    0.0000 C   0  0  0  0  0  0  0  0  0  0  0  0
    1.5000    2.5981    0.0000 N   0  0  0  0  0  0  0  0  0  0  0  0
  1  2  1  0
  2  3  2  0
  2  4  1  0
  4  5  2  0
  5  6  1  0
  6  7  1  0
  7  8  1  0
  8  9  2  0
  9 10  1  0
 10 11  2  0
 11 12  1  0
 11 13  1  0
 13 14  1  0
 13 15  2  0
  6 16  2  0
 16 17  1  0
 16 18  1  0
 18 19  2  0
 19 20  1  0
 19  4  1  0
 15  8  1  0
M  END
>  <Compound_ID>  (748) 
C50035274

>  <Active>  (748) 
0.0

>  <Smiles>  (748) 
NC(=O)c1cc(Oc2ccc(F)c(F)c2)c(F)cc1N

>  <canonical_smi>  (748) 
NC(=O)c1cc(Oc2ccc(F)c(F)c2)c(F)cc1N

>  <Set>  (748) 
G2 inactive

>  <Set_type>  (748) 
Train

>  <MW>  (748) 
282.22

>  <HBD>  (748) 
2

>  <HBA>  (748) 
3

>  <NRB>  (748) 
3

>  <NR>  (748) 
2

>  <NAR>  (748) 
2

>  <PSA>  (748) 
78.34

>  <Standard Type>  (748) 
nan

>  <Standard Relation>  (748) 
nan

>  <Standard Units>  (748) 
nan

>  <Standard Value>  (748) 
nan

>  <Assay ChEMBL ID>  (748) 
nan

>  <Assay Description>  (748) 
nan

>  <BAO Label>  (748) 
nan

$$$$

     RDKit          2D

 27 30  0  0  0  0  0  0  0  0999 V2000
   -1.5000   -7.7942    0.0000 O   0  0  0  0  0  0  0  0  0  0  0  0
   -0.7500   -6.4952    0.0000 C   0  0  0  0  0  0  0  0  0  0  0  0
   -1.5000   -5.1962    0.0000 N   0  0  0  0  0  0  0  0  0  0  0  0
   -0.7500   -3.8971    0.0000 C   0  0  0  0  0  0  0  0  0  0  0  0
   -1.5000   -2.5981    0.0000 N   0  0  0  0  0  0  0  0  0  0  0  0
   -0.7500   -1.2990    0.0000 C   0  0  0  0  0  0  0  0  0  0  0  0
    0.7500   -1.2990    0.0000 C   0  0  0  0  0  0  0  0  0  0  0  0
    1.5000    0.0000    0.0000 C   0  0  0  0  0  0  0  0  0  0  0  0
    3.0000    0.0000    0.0000 O   0  0  0  0  0  0  0  0  0  0  0  0
    0.7500    1.2990    0.0000 C   0  0  0  0  0  0  0  0  0  0  0  0
   -0.7500    1.2990    0.0000 C   0  0  0  0  0  0  0  0  0  0  0  0
   -1.5000    0.0000    0.0000 C   0  0  0  0  0  0  0  0  0  0  0  0
    1.5000   -2.5981    0.0000 C   0  0  0  0  0  0  0  0  0  0  0  0
    3.0000   -2.5981    0.0000 C   0  0  0  0  0  0  0  0  0  0  0  0
    3.7500   -3.8971    0.0000 C   0  0  0  0  0  0  0  0  0  0  0  0
    5.2500   -3.8971    0.0000 C   0  0  0  0  0  0  0  0  0  0  0  0
    6.0000   -2.5981    0.0000 C   0  0  0  0  0  0  0  0  0  0  0  0
    7.5000   -2.5981    0.0000 O   0  0  0  0  0  0  0  0  0  0  0  0
    8.2500   -3.8971    0.0000 C   0  0  0  0  0  0  0  0  0  0  0  0
    9.7500   -3.8971    0.0000 F   0  0  0  0  0  0  0  0  0  0  0  0
    7.5000   -5.1962    0.0000 F   0  0  0  0  0  0  0  0  0  0  0  0
    5.2500   -1.2990    0.0000 C   0  0  0  0  0  0  0  0  0  0  0  0
    3.7500   -1.2990    0.0000 C   0  0  0  0  0  0  0  0  0  0  0  0
    0.7500   -3.8971    0.0000 C   0  0  0  0  0  0  0  0  0  0  0  0
    1.5000   -5.1962    0.0000 C   0  0  0  0  0  0  0  0  0  0  0  0
    3.0000   -5.1962    0.0000 O   0  0  0  0  0  0  0  0  0  0  0  0
    0.7500   -6.4952    0.0000 N   0  0  0  0  0  0  0  0  0  0  0  0
  1  2  2  0
  2  3  1  0
  3  4  2  0
  4  5  1  0
  5  6  1  0
  6  7  2  0
  7  8  1  0
  8  9  2  0
  8 10  1  0
 10 11  1  0
 11 12  1  0
  7 13  1  0
 13 14  1  1
 14 15  2  0
 15 16  1  0
 16 17  2  0
 17 18  1  0
 18 19  1  0
 19 20  1  0
 19 21  1  0
 17 22  1  0
 22 23  2  0
 13 24  1  0
 24 25  1  6
 25 26  2  0
 25 27  1  0
 27  2  1  0
 24  4  1  0
 12  6  1  0
 23 14  1  0
M  END
>  <Compound_ID>  (749) 
C63067997

>  <Active>  (749) 
0.0

>  <Smiles>  (749) 
O=C1N=C2NC3=C(C(=O)CCC3)[C@@H](c3ccc(OC(F)F)cc3)[C@@H]2C(=O)N1

>  <canonical_smi>  (749) 
O=C1N=C2NC3=C(C(=O)CCC3)[C@@H](c3ccc(OC(F)F)cc3)[C@@H]2C(=O)N1

>  <Set>  (749) 
G2 inactive

>  <Set_type>  (749) 
Train

>  <MW>  (749) 
375.33

>  <HBD>  (749) 
2

>  <HBA>  (749) 
5

>  <NRB>  (749) 
3

>  <NR>  (749) 
4

>  <NAR>  (749) 
1

>  <PSA>  (749) 
96.86

>  <Standard Type>  (749) 
nan

>  <Standard Relation>  (749) 
nan

>  <Standard Units>  (749) 
nan

>  <Standard Value>  (749) 
nan

>  <Assay ChEMBL ID>  (749) 
nan

>  <Assay Description>  (749) 
nan

>  <BAO Label>  (749) 
nan

$$$$

     RDKit          2D

 34 37  0  0  0  0  0  0  0  0999 V2000
   -5.2500  -11.6913    0.0000 C   0  0  0  0  0  0  0  0  0  0  0  0
   -3.7500  -11.6913    0.0000 C   0  0  0  0  0  0  0  0  0  0  0  0
   -3.0000  -12.9904    0.0000 C   0  0  0  0  0  0  0  0  0  0  0  0
   -3.7500  -14.2894    0.0000 C   0  0  0  0  0  0  0  0  0  0  0  0
   -3.0000  -15.5885    0.0000 C   0  0  0  0  0  0  0  0  0  0  0  0
   -3.7500  -16.8875    0.0000 C   0  0  0  0  0  0  0  0  0  0  0  0
   -3.0000  -18.1865    0.0000 C   0  0  0  0  0  0  0  0  0  0  0  0
   -1.5000  -18.1865    0.0000 C   0  0  0  0  0  0  0  0  0  0  0  0
   -0.7500  -16.8875    0.0000 C   0  0  0  0  0  0  0  0  0  0  0  0
   -1.5000  -15.5885    0.0000 C   0  0  0  0  0  0  0  0  0  0  0  0
   -3.0000  -10.3923    0.0000 N   0  0  0  0  0  4  0  0  0  0  0  0
   -1.5000  -10.3923    0.0000 C   0  0  0  0  0  0  0  0  0  0  0  0
   -0.7500   -9.0933    0.0000 C   0  0  0  0  0  0  0  0  0  0  0  0
    0.7500   -9.0933    0.0000 C   0  0  0  0  0  0  0  0  0  0  0  0
    1.5000   -7.7942    0.0000 C   0  0  0  0  0  0  0  0  0  0  0  0
    0.7500   -6.4952    0.0000 C   0  0  0  0  0  0  0  0  0  0  0  0
    1.5000   -5.1962    0.0000 O   0  0  0  0  0  0  0  0  0  0  0  0
    0.7500   -3.8971    0.0000 C   0  0  0  0  0  0  0  0  0  0  0  0
    1.5000   -2.5981    0.0000 C   0  0  0  0  0  0  0  0  0  0  0  0
    3.0000   -2.5981    0.0000 O   0  0  0  0  0  0  0  0  0  0  0  0
    0.7500   -1.2990    0.0000 C   0  0  0  0  0  0  0  0  0  0  0  0
    1.5000    0.0000    0.0000 C   0  0  0  0  0  0  0  0  0  0  0  0
    0.7500    1.2990    0.0000 C   0  0  0  0  0  0  0  0  0  0  0  0
   -0.7500    1.2990    0.0000 C   0  0  0  0  0  0  0  0  0  0  0  0
   -1.5000    0.0000    0.0000 C   0  0  0  0  0  0  0  0  0  0  0  0
   -0.7500   -1.2990    0.0000 C   0  0  0  0  0  0  0  0  0  0  0  0
   -2.9672    0.3119    0.0000 N   0  0  0  0  0  0  0  0  0  0  0  0
   -4.0819   -0.6918    0.0000 C   0  0  0  0  0  0  0  0  0  0  0  0
   -3.1240    1.8037    0.0000 C   0  0  0  0  0  0  0  0  0  0  0  0
   -4.4231    2.5537    0.0000 O   0  0  0  0  0  0  0  0  0  0  0  0
   -1.7537    2.4138    0.0000 N   0  0  0  0  0  0  0  0  0  0  0  0
   -1.4418    3.8810    0.0000 C   0  0  0  0  0  0  0  0  0  0  0  0
   -0.7500   -6.4952    0.0000 C   0  0  0  0  0  0  0  0  0  0  0  0
   -1.5000   -7.7942    0.0000 C   0  0  0  0  0  0  0  0  0  0  0  0
  2  1  1  1
  2  3  1  0
  3  4  1  0
  4  5  1  0
  5  6  2  0
  6  7  1  0
  7  8  2  0
  8  9  1  0
  9 10  2  0
  2 11  1  0
 11 12  1  0
 12 13  1  0
 13 14  2  0
 14 15  1  0
 15 16  2  0
 16 17  1  0
 17 18  1  0
 18 19  1  0
 19 20  1  6
 19 21  1  0
 21 22  2  0
 22 23  1  0
 23 24  2  0
 24 25  1  0
 25 26  2  0
 25 27  1  0
 27 28  1  0
 27 29  1  0
 29 30  2  0
 29 31  1  0
 31 32  1  0
 16 33  1  0
 33 34  2  0
 10  5  1  0
 34 13  1  0
 26 21  1  0
 31 24  1  0
M  CHG  1  11   1
M  END
>  <Compound_ID>  (750) 
C13726464

>  <Active>  (750) 
0.0

>  <Smiles>  (750) 
C[C@H](CCc1ccccc1)[NH2+]Cc1ccc(OC[C@@H](O)c2ccc3c(c2)n(C)c(=O)n3C)cc1

>  <canonical_smi>  (750) 
C[C@H](CCc1ccccc1)[NH2+]Cc1ccc(OC[C@@H](O)c2ccc3c(c2)n(C)c(=O)n3C)cc1

>  <Set>  (750) 
G2 inactive

>  <Set_type>  (750) 
Train

>  <MW>  (750) 
460.6

>  <HBD>  (750) 
2

>  <HBA>  (750) 
3

>  <NRB>  (750) 
10

>  <NR>  (750) 
4

>  <NAR>  (750) 
4

>  <PSA>  (750) 
73.0

>  <Standard Type>  (750) 
nan

>  <Standard Relation>  (750) 
nan

>  <Standard Units>  (750) 
nan

>  <Standard Value>  (750) 
nan

>  <Assay ChEMBL ID>  (750) 
nan

>  <Assay Description>  (750) 
nan

>  <BAO Label>  (750) 
nan

$$$$

     RDKit          2D

 27 30  0  0  0  0  0  0  0  0999 V2000
   -8.9503   -5.6686    0.0000 C   0  0  0  0  0  0  0  0  0  0  0  0
   -7.5169   -6.1107    0.0000 C   0  0  0  0  0  0  0  0  0  0  0  0
   -6.4173   -5.0904    0.0000 C   0  0  0  0  0  0  0  0  0  0  0  0
   -4.9840   -5.5326    0.0000 S   0  0  0  0  0  0  0  0  0  0  0  0
   -3.8844   -4.5123    0.0000 C   0  0  0  0  0  0  0  0  0  0  0  0
   -4.2182   -3.0499    0.0000 N   0  0  0  0  0  0  0  0  0  0  0  0
   -3.1186   -2.0297    0.0000 N   0  0  0  0  0  0  0  0  0  0  0  0
   -1.6852   -2.4718    0.0000 C   0  0  0  0  0  0  0  0  0  0  0  0
   -1.3515   -3.9342    0.0000 C   0  0  0  0  0  0  0  0  0  0  0  0
   -2.4510   -4.9544    0.0000 N   0  0  0  0  0  0  0  0  0  0  0  0
   -0.0000   -4.5850    0.0000 O   0  0  0  0  0  0  0  0  0  0  0  0
    1.3515   -3.9342    0.0000 C   0  0  0  0  0  0  0  0  0  0  0  0
    2.5242   -4.8694    0.0000 C   0  0  0  0  0  0  0  0  0  0  0  0
    2.3006   -6.3527    0.0000 C   0  0  0  0  0  0  0  0  0  0  0  0
    3.4734   -7.2879    0.0000 C   0  0  0  0  0  0  0  0  0  0  0  0
    4.8697   -6.7399    0.0000 C   0  0  0  0  0  0  0  0  0  0  0  0
    6.0424   -7.6751    0.0000 O   0  0  0  0  0  0  0  0  0  0  0  0
    5.0933   -5.2566    0.0000 C   0  0  0  0  0  0  0  0  0  0  0  0
    6.4896   -4.7086    0.0000 O   0  0  0  0  0  0  0  0  0  0  0  0
    3.9205   -4.3214    0.0000 C   0  0  0  0  0  0  0  0  0  0  0  0
    1.6852   -2.4718    0.0000 N   0  0  0  0  0  0  0  0  0  0  0  0
    0.7500   -1.2990    0.0000 C   0  0  0  0  0  0  0  0  0  0  0  0
    1.5000    0.0000    0.0000 C   0  0  0  0  0  0  0  0  0  0  0  0
    0.7500    1.2990    0.0000 C   0  0  0  0  0  0  0  0  0  0  0  0
   -0.7500    1.2990    0.0000 C   0  0  0  0  0  0  0  0  0  0  0  0
   -1.5000    0.0000    0.0000 C   0  0  0  0  0  0  0  0  0  0  0  0
   -0.7500   -1.2990    0.0000 C   0  0  0  0  0  0  0  0  0  0  0  0
  1  2  2  0
  2  3  1  0
  3  4  1  0
  4  5  1  0
  5  6  2  0
  6  7  1  0
  7  8  2  0
  8  9  1  0
  9 10  2  0
  9 11  1  0
 11 12  1  0
 12 13  1  1
 13 14  2  0
 14 15  1  0
 15 16  2  0
 16 17  1  0
 16 18  1  0
 18 19  1  0
 18 20  2  0
 12 21  1  0
 21 22  1  0
 22 23  2  0
 23 24  1  0
 24 25  2  0
 25 26  1  0
 26 27  2  0
 10  5  1  0
 20 13  1  0
 27 22  1  0
 27  8  1  0
M  END
>  <Compound_ID>  (751) 
C02977480

>  <Active>  (751) 
0.0

>  <Smiles>  (751) 
C=CCSc1nnc2c(n1)O[C@H](c1ccc(O)c(O)c1)Nc1ccccc1-2

>  <canonical_smi>  (751) 
C=CCSc1nnc2c(n1)O[C@H](c1ccc(O)c(O)c1)Nc1ccccc1-2

>  <Set>  (751) 
G2 inactive

>  <Set_type>  (751) 
Train

>  <MW>  (751) 
380.43

>  <HBD>  (751) 
3

>  <HBA>  (751) 
8

>  <NRB>  (751) 
4

>  <NR>  (751) 
4

>  <NAR>  (751) 
3

>  <PSA>  (751) 
100.39

>  <Standard Type>  (751) 
nan

>  <Standard Relation>  (751) 
nan

>  <Standard Units>  (751) 
nan

>  <Standard Value>  (751) 
nan

>  <Assay ChEMBL ID>  (751) 
nan

>  <Assay Description>  (751) 
nan

>  <BAO Label>  (751) 
nan

$$$$

     RDKit          2D

 28 31  0  0  0  0  0  0  0  0999 V2000
    3.7500   -9.0933    0.0000 N   0  0  0  0  0  0  0  0  0  0  0  0
    3.0000  -10.3923    0.0000 C   0  0  0  0  0  0  0  0  0  0  0  0
    3.7500  -11.6913    0.0000 C   0  0  0  0  0  0  0  0  0  0  0  0
    3.0000  -12.9904    0.0000 C   0  0  0  0  0  0  0  0  0  0  0  0
    1.5000  -12.9904    0.0000 C   0  0  0  0  0  0  0  0  0  0  0  0
    0.7500  -11.6913    0.0000 C   0  0  0  0  0  0  0  0  0  0  0  0
    1.5000  -10.3923    0.0000 C   0  0  0  0  0  0  0  0  0  0  0  0
    0.7500   -9.0933    0.0000 C   0  0  0  0  0  0  0  0  0  0  0  0
   -0.7500   -9.0933    0.0000 O   0  0  0  0  0  0  0  0  0  0  0  0
    1.5000   -7.7942    0.0000 N   0  0  0  0  0  0  0  0  0  0  0  0
    0.7500   -6.4952    0.0000 N   0  0  0  0  0  0  0  0  0  0  0  0
    1.5000   -5.1962    0.0000 C   0  0  0  0  0  0  0  0  0  0  0  0
    0.7500   -3.8971    0.0000 C   0  0  0  0  0  0  0  0  0  0  0  0
    1.5000   -2.5981    0.0000 N   0  0  0  0  0  0  0  0  0  0  0  0
    0.7500   -1.2990    0.0000 C   0  0  0  0  0  0  0  0  0  0  0  0
    1.5000    0.0000    0.0000 C   0  0  0  0  0  0  0  0  0  0  0  0
    0.7500    1.2990    0.0000 C   0  0  0  0  0  0  0  0  0  0  0  0
   -0.7500    1.2990    0.0000 C   0  0  0  0  0  0  0  0  0  0  0  0
   -1.5000    0.0000    0.0000 C   0  0  0  0  0  0  0  0  0  0  0  0
   -0.7500   -1.2990    0.0000 C   0  0  0  0  0  0  0  0  0  0  0  0
   -1.5000   -2.5981    0.0000 C   0  0  0  0  0  0  0  0  0  0  0  0
   -0.7500   -3.8971    0.0000 N   0  0  0  0  0  0  0  0  0  0  0  0
    3.0000   -5.1962    0.0000 C   0  0  0  0  0  0  0  0  0  0  0  0
    3.7500   -6.4952    0.0000 C   0  0  0  0  0  0  0  0  0  0  0  0
    5.2500   -6.4952    0.0000 C   0  0  0  0  0  0  0  0  0  0  0  0
    6.0000   -5.1962    0.0000 C   0  0  0  0  0  0  0  0  0  0  0  0
    5.2500   -3.8971    0.0000 C   0  0  0  0  0  0  0  0  0  0  0  0
    3.7500   -3.8971    0.0000 C   0  0  0  0  0  0  0  0  0  0  0  0
  1  2  1  0
  2  3  2  0
  3  4  1  0
  4  5  2  0
  5  6  1  0
  6  7  2  0
  7  8  1  0
  8  9  2  0
  8 10  1  0
 10 11  1  0
 11 12  2  0
 12 13  1  0
 13 14  2  0
 14 15  1  0
 15 16  2  0
 16 17  1  0
 17 18  2  0
 18 19  1  0
 19 20  2  0
 20 21  1  0
 21 22  1  0
 12 23  1  0
 23 24  2  0
 24 25  1  0
 25 26  2  0
 26 27  1  0
 27 28  2  0
  7  2  1  0
 22 13  1  0
 28 23  1  0
 20 15  1  0
M  END
>  <Compound_ID>  (752) 
C27753440

>  <Active>  (752) 
0.0

>  <Smiles>  (752) 
Nc1ccccc1C(=O)N/N=C(/C1=Nc2ccccc2CN1)c1ccccc1

>  <canonical_smi>  (752) 
Nc1ccccc1C(=O)N/N=C(/C1=Nc2ccccc2CN1)c1ccccc1

>  <Set>  (752) 
G2 inactive

>  <Set_type>  (752) 
Train

>  <MW>  (752) 
369.43

>  <HBD>  (752) 
3

>  <HBA>  (752) 
3

>  <NRB>  (752) 
4

>  <NR>  (752) 
4

>  <NAR>  (752) 
3

>  <PSA>  (752) 
91.87

>  <Standard Type>  (752) 
nan

>  <Standard Relation>  (752) 
nan

>  <Standard Units>  (752) 
nan

>  <Standard Value>  (752) 
nan

>  <Assay ChEMBL ID>  (752) 
nan

>  <Assay Description>  (752) 
nan

>  <BAO Label>  (752) 
nan

$$$$

     RDKit          2D

 26 29  0  0  0  0  0  0  0  0999 V2000
    5.2500    0.2010    0.0000 C   0  0  0  0  0  0  0  0  0  0  0  0
    5.2500   -1.2990    0.0000 C   0  0  0  0  0  0  0  0  0  0  0  0
    5.2500   -2.7990    0.0000 C   0  0  0  0  0  0  0  0  0  0  0  0
    6.7500   -1.2990    0.0000 O   0  0  0  0  0  0  0  0  0  0  0  0
    3.7500   -1.2990    0.0000 C   0  0  0  0  0  0  0  0  0  0  0  0
    3.0000    0.0000    0.0000 C   0  0  0  0  0  0  0  0  0  0  0  0
    1.5000    0.0000    0.0000 C   0  0  0  0  0  0  0  0  0  0  0  0
    0.7500   -1.2990    0.0000 C   0  0  0  0  0  0  0  0  0  0  0  0
   -0.7500   -1.2990    0.0000 C   0  0  0  0  0  0  0  0  0  0  0  0
   -1.5000    0.0000    0.0000 C   0  0  0  0  0  0  0  0  0  0  0  0
   -0.7500    1.2990    0.0000 C   0  0  0  0  0  0  0  0  0  0  0  0
    0.7500    1.2990    0.0000 C   0  0  0  0  0  0  0  0  0  0  0  0
    1.5000    2.5981    0.0000 O   0  0  0  0  0  0  0  0  0  0  0  0
   -2.9672   -0.3119    0.0000 O   0  0  0  0  0  0  0  0  0  0  0  0
   -3.1240   -1.8037    0.0000 C   0  0  0  0  0  0  0  0  0  0  0  0
   -4.3375   -2.6853    0.0000 C   0  0  0  0  0  0  0  0  0  0  0  0
   -5.7079   -2.0752    0.0000 C   0  0  0  0  0  0  0  0  0  0  0  0
   -6.9214   -2.9569    0.0000 C   0  0  0  0  0  0  0  0  0  0  0  0
   -6.7646   -4.4487    0.0000 C   0  0  0  0  0  0  0  0  0  0  0  0
   -7.9781   -5.3304    0.0000 O   0  0  0  0  0  0  0  0  0  0  0  0
   -5.3943   -5.0588    0.0000 C   0  0  0  0  0  0  0  0  0  0  0  0
   -5.2375   -6.5506    0.0000 O   0  0  0  0  0  0  0  0  0  0  0  0
   -4.1807   -4.1771    0.0000 C   0  0  0  0  0  0  0  0  0  0  0  0
   -2.8104   -4.7872    0.0000 O   0  0  0  0  0  0  0  0  0  0  0  0
   -1.5969   -3.9055    0.0000 C   0  0  0  0  0  0  0  0  0  0  0  0
   -1.7537   -2.4138    0.0000 C   0  0  0  0  0  0  0  0  0  0  0  0
  1  2  1  0
  2  3  1  0
  2  4  1  0
  2  5  1  0
  5  6  1  0
  6  7  1  0
  7  8  2  0
  8  9  1  0
  9 10  2  0
 10 11  1  0
 11 12  2  0
 12 13  1  0
 10 14  1  0
 15 14  1  6
 15 16  1  0
 16 17  2  0
 17 18  1  0
 18 19  2  0
 19 20  1  0
 19 21  1  0
 21 22  1  0
 21 23  2  0
 23 24  1  0
 24 25  1  0
 26 25  1  1
 12  7  1  0
 26 15  1  0
 26  9  1  0
 23 16  1  0
M  END
>  <Compound_ID>  (753) 
C31161239

>  <Active>  (753) 
0.0

>  <Smiles>  (753) 
CC(C)(O)CCc1cc2c(cc1O)O[C@H]1c3ccc(O)c(O)c3OC[C@H]21

>  <canonical_smi>  (753) 
CC(C)(O)CCc1cc2c(cc1O)O[C@H]1c3ccc(O)c(O)c3OC[C@H]21

>  <Set>  (753) 
G2 inactive

>  <Set_type>  (753) 
Train

>  <MW>  (753) 
358.39

>  <HBD>  (753) 
4

>  <HBA>  (753) 
6

>  <NRB>  (753) 
3

>  <NR>  (753) 
4

>  <NAR>  (753) 
2

>  <PSA>  (753) 
99.38

>  <Standard Type>  (753) 
nan

>  <Standard Relation>  (753) 
nan

>  <Standard Units>  (753) 
nan

>  <Standard Value>  (753) 
nan

>  <Assay ChEMBL ID>  (753) 
nan

>  <Assay Description>  (753) 
nan

>  <BAO Label>  (753) 
nan

$$$$

     RDKit          2D

 21 21  0  0  0  0  0  0  0  0999 V2000
    7.8705    2.5981    0.0000 C   0  0  0  0  0  0  0  0  0  0  0  0
    7.1205    1.2990    0.0000 O   0  0  0  0  0  0  0  0  0  0  0  0
    5.6205    1.2990    0.0000 C   0  0  0  0  0  0  0  0  0  0  0  0
    5.0930    2.5417    0.0000 O   0  0  0  0  0  0  0  0  0  0  0  0
    4.8705    0.0000    0.0000 C   0  0  0  0  0  0  0  0  0  0  0  0
    3.3705    0.0000    0.0000 C   0  0  0  0  0  0  0  0  0  0  0  0
    3.0367   -1.4624    0.0000 C   0  0  0  0  0  0  0  0  0  0  0  0
    4.3881   -2.1132    0.0000 O   0  0  0  0  0  0  0  0  0  0  0  0
    2.1015   -2.6351    0.0000 C   0  0  0  0  0  0  0  0  0  0  0  0
    0.7500   -3.2860    0.0000 C   0  0  0  0  0  0  0  0  0  0  0  0
   -0.7500   -3.2860    0.0000 C   0  0  0  0  0  0  0  0  0  0  0  0
   -2.1015   -2.6351    0.0000 C   0  0  0  0  0  0  0  0  0  0  0  0
   -3.0367   -1.4624    0.0000 C   0  0  0  0  0  0  0  0  0  0  0  0
   -3.3705    0.0000    0.0000 C   0  0  0  0  0  0  0  0  0  0  0  0
   -3.0367    1.4624    0.0000 C   0  0  0  0  0  0  0  0  0  0  0  0
   -2.1015    2.6351    0.0000 C   0  0  0  0  0  0  0  0  0  0  0  0
   -0.7500    3.2860    0.0000 C   0  0  0  0  0  0  0  0  0  0  0  0
    0.7500    3.2860    0.0000 C   0  0  0  0  0  0  0  0  0  0  0  0
    2.1015    2.6351    0.0000 C   0  0  0  0  0  0  0  0  0  0  0  0
    3.0367    1.4624    0.0000 C   0  0  0  0  0  0  0  0  0  0  0  0
    4.1725    2.1920    0.0000 O   0  0  0  0  0  0  0  0  0  0  0  0
  1  2  1  0
  2  3  1  0
  3  4  2  0
  3  5  1  0
  5  6  1  0
  6  7  2  0
  7  8  1  0
  7  9  1  0
  9 10  1  0
 10 11  1  0
 11 12  1  0
 12 13  1  0
 13 14  1  0
 14 15  1  0
 15 16  1  0
 16 17  1  0
 17 18  1  0
 18 19  1  0
 19 20  1  0
 20 21  2  0
 20  6  1  0
M  END
>  <Compound_ID>  (754) 
C04552350

>  <Active>  (754) 
0.0

>  <Smiles>  (754) 
COC(=O)C/C1=C(\O)CCCCCCCCCCCC1=O

>  <canonical_smi>  (754) 
COC(=O)C/C1=C(\O)CCCCCCCCCCCC1=O

>  <Set>  (754) 
G2 inactive

>  <Set_type>  (754) 
Train

>  <MW>  (754) 
296.41

>  <HBD>  (754) 
1

>  <HBA>  (754) 
4

>  <NRB>  (754) 
2

>  <NR>  (754) 
1

>  <NAR>  (754) 
0

>  <PSA>  (754) 
63.6

>  <Standard Type>  (754) 
nan

>  <Standard Relation>  (754) 
nan

>  <Standard Units>  (754) 
nan

>  <Standard Value>  (754) 
nan

>  <Assay ChEMBL ID>  (754) 
nan

>  <Assay Description>  (754) 
nan

>  <BAO Label>  (754) 
nan

$$$$

     RDKit          2D

 22 24  0  0  0  0  0  0  0  0999 V2000
    3.0000    0.0000    0.0000 C   0  0  0  0  0  0  0  0  0  0  0  0
    1.5000    0.0000    0.0000 C   0  0  0  0  0  0  0  0  0  0  0  0
    0.7500   -1.2990    0.0000 C   0  0  0  0  0  0  0  0  0  0  0  0
   -0.7500   -1.2990    0.0000 C   0  0  0  0  0  0  0  0  0  0  0  0
   -1.5000    0.0000    0.0000 C   0  0  0  0  0  0  0  0  0  0  0  0
   -3.0000    0.0000    0.0000 C   0  0  0  0  0  0  0  0  0  0  0  0
   -3.7500    1.2990    0.0000 C   0  0  0  0  0  0  0  0  0  0  0  0
   -5.2500    1.2990    0.0000 C   0  0  0  0  0  0  0  0  0  0  0  0
   -6.0000    2.5981    0.0000 O   0  0  0  0  0  0  0  0  0  0  0  0
   -6.0000    0.0000    0.0000 N   0  0  0  0  0  0  0  0  0  0  0  0
   -5.2500   -1.2990    0.0000 C   0  0  0  0  0  0  0  0  0  0  0  0
   -6.0000   -2.5981    0.0000 N   0  0  0  0  0  0  0  0  0  0  0  0
   -7.5000   -2.5981    0.0000 C   0  0  0  0  0  0  0  0  0  0  0  0
   -8.2500   -1.2990    0.0000 C   0  0  0  0  0  0  0  0  0  0  0  0
   -8.2500   -3.8971    0.0000 C   0  0  0  0  0  0  0  0  0  0  0  0
   -7.5000   -5.1962    0.0000 C   0  0  0  0  0  0  0  0  0  0  0  0
   -6.0000   -5.1962    0.0000 C   0  0  0  0  0  0  0  0  0  0  0  0
   -5.2500   -3.8971    0.0000 C   0  0  0  0  0  0  0  0  0  0  0  0
   -3.7500   -3.8971    0.0000 C   0  0  0  0  0  0  0  0  0  0  0  0
   -3.7500   -1.2990    0.0000 N   0  0  0  0  0  0  0  0  0  0  0  0
   -0.7500    1.2990    0.0000 C   0  0  0  0  0  0  0  0  0  0  0  0
    0.7500    1.2990    0.0000 C   0  0  0  0  0  0  0  0  0  0  0  0
  1  2  1  0
  2  3  2  0
  3  4  1  0
  4  5  2  0
  5  6  1  0
  6  7  2  0
  7  8  1  0
  8  9  2  0
  8 10  1  0
 10 11  1  0
 11 12  1  0
 12 13  1  0
 13 14  1  1
 13 15  1  0
 15 16  1  0
 16 17  1  0
 17 18  1  0
 18 19  1  6
 11 20  2  0
  5 21  1  0
 21 22  2  0
 22  2  1  0
 20  6  1  0
 18 12  1  0
M  END
>  <Compound_ID>  (755) 
C22453503

>  <Active>  (755) 
0.0

>  <Smiles>  (755) 
Cc1ccc(-c2cc(=O)[nH]c(N3[C@H](C)CCC[C@H]3C)n2)cc1

>  <canonical_smi>  (755) 
Cc1ccc(-c2cc(=O)[nH]c(N3[C@H](C)CCC[C@H]3C)n2)cc1

>  <Set>  (755) 
G2 inactive

>  <Set_type>  (755) 
Train

>  <MW>  (755) 
297.4

>  <HBD>  (755) 
1

>  <HBA>  (755) 
3

>  <NRB>  (755) 
2

>  <NR>  (755) 
3

>  <NAR>  (755) 
2

>  <PSA>  (755) 
48.99

>  <Standard Type>  (755) 
nan

>  <Standard Relation>  (755) 
nan

>  <Standard Units>  (755) 
nan

>  <Standard Value>  (755) 
nan

>  <Assay ChEMBL ID>  (755) 
nan

>  <Assay Description>  (755) 
nan

>  <BAO Label>  (755) 
nan

$$$$

     RDKit          2D

 20 22  0  0  0  0  0  0  0  0999 V2000
    3.7500   -6.4952    0.0000 C   0  0  0  0  0  0  0  0  0  0  0  0
    3.0000   -5.1962    0.0000 O   0  0  0  0  0  0  0  0  0  0  0  0
    1.5000   -5.1962    0.0000 C   0  0  0  0  0  0  0  0  0  0  0  0
    0.7500   -6.4952    0.0000 C   0  0  0  0  0  0  0  0  0  0  0  0
   -0.7500   -6.4952    0.0000 C   0  0  0  0  0  0  0  0  0  0  0  0
   -1.5000   -5.1962    0.0000 C   0  0  0  0  0  0  0  0  0  0  0  0
   -0.7500   -3.8971    0.0000 C   0  0  0  0  0  0  0  0  0  0  0  0
    0.7500   -3.8971    0.0000 C   0  0  0  0  0  0  0  0  0  0  0  0
    1.5000   -2.5981    0.0000 N   0  0  0  0  0  0  0  0  0  0  0  0
    0.7500   -1.2990    0.0000 C   0  0  0  0  0  0  0  0  0  0  0  0
    1.5000    0.0000    0.0000 C   0  0  0  0  0  0  0  0  0  0  0  0
    0.7500    1.2990    0.0000 C   0  0  0  0  0  0  0  0  0  0  0  0
   -0.7500    1.2990    0.0000 C   0  0  0  0  0  0  0  0  0  0  0  0
   -1.5000    0.0000    0.0000 C   0  0  0  0  0  0  0  0  0  0  0  0
   -0.7500   -1.2990    0.0000 C   0  0  0  0  0  0  0  0  0  0  0  0
   -2.9672    0.3119    0.0000 O   0  0  0  0  0  0  0  0  0  0  0  0
   -3.1240    1.8037    0.0000 C   0  0  0  0  0  0  0  0  0  0  0  0
   -4.5912    1.4918    0.0000 F   0  0  0  0  0  0  0  0  0  0  0  0
   -3.5875    3.2302    0.0000 F   0  0  0  0  0  0  0  0  0  0  0  0
   -1.7537    2.4138    0.0000 O   0  0  0  0  0  0  0  0  0  0  0  0
  1  2  1  0
  3  2  1  6
  3  4  1  0
  4  5  1  0
  5  6  1  0
  6  7  1  0
  7  8  1  0
  8  9  1  6
  9 10  1  0
 10 11  2  0
 11 12  1  0
 12 13  2  0
 13 14  1  0
 14 15  2  0
 14 16  1  0
 16 17  1  0
 17 18  1  0
 17 19  1  0
 17 20  1  0
  8  3  1  0
 15 10  1  0
 20 13  1  0
M  END
>  <Compound_ID>  (756) 
C37200276

>  <Active>  (756) 
0.0

>  <Smiles>  (756) 
CO[C@@H]1CCCC[C@@H]1Nc1ccc2c(c1)OC(F)(F)O2

>  <canonical_smi>  (756) 
CO[C@@H]1CCCC[C@@H]1Nc1ccc2c(c1)OC(F)(F)O2

>  <Set>  (756) 
G2 inactive

>  <Set_type>  (756) 
Train

>  <MW>  (756) 
285.29

>  <HBD>  (756) 
1

>  <HBA>  (756) 
4

>  <NRB>  (756) 
3

>  <NR>  (756) 
3

>  <NAR>  (756) 
1

>  <PSA>  (756) 
39.72

>  <Standard Type>  (756) 
nan

>  <Standard Relation>  (756) 
nan

>  <Standard Units>  (756) 
nan

>  <Standard Value>  (756) 
nan

>  <Assay ChEMBL ID>  (756) 
nan

>  <Assay Description>  (756) 
nan

>  <BAO Label>  (756) 
nan

$$$$

     RDKit          2D

 35 39  0  0  0  0  0  0  0  0999 V2000
   -1.1232   13.2662    0.0000 C   0  0  0  0  0  0  0  0  0  0  0  0
   -1.7333   11.8959    0.0000 O   0  0  0  0  0  0  0  0  0  0  0  0
   -0.8516   10.6824    0.0000 C   0  0  0  0  0  0  0  0  0  0  0  0
    0.6402   10.8391    0.0000 C   0  0  0  0  0  0  0  0  0  0  0  0
    1.5219    9.6256    0.0000 C   0  0  0  0  0  0  0  0  0  0  0  0
    0.9117    8.2553    0.0000 C   0  0  0  0  0  0  0  0  0  0  0  0
    1.7934    7.0418    0.0000 N   0  0  0  0  0  0  0  0  0  0  0  0
    3.2934    7.0418    0.0000 C   0  0  0  0  0  0  0  0  0  0  0  0
    3.7570    5.6152    0.0000 C   0  0  0  0  0  0  0  0  0  0  0  0
    2.5434    4.7335    0.0000 C   0  0  0  0  0  0  0  0  0  0  0  0
    1.3299    5.6152    0.0000 C   0  0  0  0  0  0  0  0  0  0  0  0
   -0.0967    5.1517    0.0000 C   0  0  0  0  0  0  0  0  0  0  0  0
   -0.4086    3.6844    0.0000 C   0  0  0  0  0  0  0  0  0  0  0  0
    0.7062    2.6807    0.0000 C   0  0  0  0  0  0  0  0  0  0  0  0
    2.1328    3.1443    0.0000 N   0  0  0  0  0  4  0  0  0  0  0  0
    0.3943    1.2135    0.0000 N   0  0  0  0  0  0  0  0  0  0  0  0
    1.2760    0.0000    0.0000 N   0  0  0  0  0  0  0  0  0  0  0  0
    0.3943   -1.2135    0.0000 C   0  0  0  0  0  0  0  0  0  0  0  0
    0.8578   -2.6401    0.0000 C   0  0  0  0  0  0  0  0  0  0  0  0
   -0.1459   -3.7548    0.0000 O   0  0  0  0  0  0  0  0  0  0  0  0
    0.3177   -5.1814    0.0000 C   0  0  0  0  0  0  0  0  0  0  0  0
   -0.6860   -6.2961    0.0000 C   0  0  0  0  0  0  0  0  0  0  0  0
   -0.2225   -7.7227    0.0000 C   0  0  0  0  0  0  0  0  0  0  0  0
    1.2447   -8.0346    0.0000 C   0  0  0  0  0  0  0  0  0  0  0  0
    2.2484   -6.9199    0.0000 C   0  0  0  0  0  0  0  0  0  0  0  0
    1.7849   -5.4933    0.0000 C   0  0  0  0  0  0  0  0  0  0  0  0
    2.7886   -4.3786    0.0000 C   0  0  0  0  0  0  0  0  0  0  0  0
   -1.0323   -0.7500    0.0000 S   0  0  0  0  0  0  0  0  0  0  0  0
   -1.0323    0.7500    0.0000 C   0  0  0  0  0  0  0  0  0  0  0  0
   -2.1470    1.7537    0.0000 N   0  0  0  0  0  0  0  0  0  0  0  0
   -1.8351    3.2209    0.0000 C   0  0  0  0  0  0  0  0  0  0  0  0
   -2.9499    4.2246    0.0000 O   0  0  0  0  0  0  0  0  0  0  0  0
   -0.5800    8.0985    0.0000 C   0  0  0  0  0  0  0  0  0  0  0  0
   -1.4617    9.3120    0.0000 C   0  0  0  0  0  0  0  0  0  0  0  0
   -2.9535    9.1552    0.0000 Cl  0  0  0  0  0  0  0  0  0  0  0  0
  1  2  1  0
  2  3  1  0
  3  4  2  0
  4  5  1  0
  5  6  2  0
  6  7  1  0
  7  8  1  0
  8  9  2  0
  9 10  1  0
 10 11  2  0
 11 12  1  0
 12 13  2  0
 13 14  1  0
 14 15  2  0
 14 16  1  0
 16 17  1  0
 17 18  2  0
 18 19  1  0
 19 20  1  0
 20 21  1  0
 21 22  2  0
 22 23  1  0
 23 24  2  0
 24 25  1  0
 25 26  2  0
 26 27  1  0
 18 28  1  0
 28 29  1  0
 29 30  2  0
 30 31  1  0
 31 32  2  0
  6 33  1  0
 33 34  2  0
 34 35  1  0
 34  3  1  0
 11  7  1  0
 31 13  1  0
 29 16  1  0
 26 21  1  0
M  CHG  1  15   1
M  END
>  <Compound_ID>  (757) 
C32964323

>  <Active>  (757) 
0.0

>  <Smiles>  (757) 
COc1ccc(-n2cccc2/C=C2\C(=[NH2+])N3N=C(COc4ccccc4C)SC3=NC2=O)cc1Cl

>  <canonical_smi>  (757) 
COc1ccc(-n2cccc2/C=C2\C(=[NH2+])N3N=C(COc4ccccc4C)SC3=NC2=O)cc1Cl

>  <Set>  (757) 
G2 inactive

>  <Set_type>  (757) 
Train

>  <MW>  (757) 
507.0

>  <HBD>  (757) 
1

>  <HBA>  (757) 
5

>  <NRB>  (757) 
6

>  <NR>  (757) 
5

>  <NAR>  (757) 
3

>  <PSA>  (757) 
94.01

>  <Standard Type>  (757) 
nan

>  <Standard Relation>  (757) 
nan

>  <Standard Units>  (757) 
nan

>  <Standard Value>  (757) 
nan

>  <Assay ChEMBL ID>  (757) 
nan

>  <Assay Description>  (757) 
nan

>  <BAO Label>  (757) 
nan

$$$$

     RDKit          2D

 24 26  0  0  0  0  0  0  0  0999 V2000
    4.5000    0.0000    0.0000 N   0  0  0  0  0  0  0  0  0  0  0  0
    3.0000    0.0000    0.0000 S   0  0  0  0  0  0  0  0  0  0  0  0
    3.0000   -1.5000    0.0000 O   0  0  0  0  0  0  0  0  0  0  0  0
    3.0000    1.5000    0.0000 O   0  0  0  0  0  0  0  0  0  0  0  0
    1.5000    0.0000    0.0000 C   0  0  0  0  0  0  0  0  0  0  0  0
    0.7500   -1.2990    0.0000 C   0  0  0  0  0  0  0  0  0  0  0  0
   -0.7500   -1.2990    0.0000 C   0  0  0  0  0  0  0  0  0  0  0  0
   -1.5000    0.0000    0.0000 C   0  0  0  0  0  0  0  0  0  0  0  0
   -0.7500    1.2990    0.0000 C   0  0  0  0  0  0  0  0  0  0  0  0
    0.7500    1.2990    0.0000 C   0  0  0  0  0  0  0  0  0  0  0  0
    1.5000    2.5981    0.0000 Cl  0  0  0  0  0  0  0  0  0  0  0  0
   -3.0000    0.0000    0.0000 N   0  0  0  0  0  0  0  0  0  0  0  0
   -3.7500   -1.2990    0.0000 C   0  0  0  0  0  0  0  0  0  0  0  0
   -5.2500   -1.2990    0.0000 C   0  0  0  0  0  0  0  0  0  0  0  0
   -6.0000    0.0000    0.0000 C   0  0  0  0  0  0  0  0  0  0  0  0
   -7.5000    0.0000    0.0000 C   0  0  0  0  0  0  0  0  0  0  0  0
   -8.2500   -1.2990    0.0000 C   0  0  0  0  0  0  0  0  0  0  0  0
   -7.5000   -2.5981    0.0000 C   0  0  0  0  0  0  0  0  0  0  0  0
   -8.2500   -3.8971    0.0000 Cl  0  0  0  0  0  0  0  0  0  0  0  0
   -6.0000   -2.5981    0.0000 C   0  0  0  0  0  0  0  0  0  0  0  0
   -3.0000   -2.5981    0.0000 N   0  0  0  0  0  0  0  0  0  0  0  0
   -1.5000   -2.5981    0.0000 S   0  0  0  0  0  0  0  0  0  0  0  0
   -0.0905   -3.1111    0.0000 O   0  0  0  0  0  0  0  0  0  0  0  0
   -1.7605   -4.0753    0.0000 O   0  0  0  0  0  0  0  0  0  0  0  0
  1  2  1  0
  2  3  2  0
  2  4  2  0
  2  5  1  0
  5  6  2  0
  6  7  1  0
  7  8  2  0
  8  9  1  0
  9 10  2  0
 10 11  1  0
  8 12  1  0
 12 13  1  0
 13 14  1  1
 14 15  2  0
 15 16  1  0
 16 17  2  0
 17 18  1  0
 18 19  1  0
 18 20  2  0
 13 21  1  0
 21 22  1  0
 22 23  2  0
 22 24  2  0
 10  5  1  0
 20 14  1  0
 22  7  1  0
M  END
>  <Compound_ID>  (758) 
C53898998

>  <Active>  (758) 
0.0

>  <Smiles>  (758) 
NS(=O)(=O)c1cc2c(cc1Cl)N[C@H](c1cccc(Cl)c1)NS2(=O)=O

>  <canonical_smi>  (758) 
NS(=O)(=O)c1cc2c(cc1Cl)N[C@H](c1cccc(Cl)c1)NS2(=O)=O

>  <Set>  (758) 
G2 inactive

>  <Set_type>  (758) 
Train

>  <MW>  (758) 
408.29

>  <HBD>  (758) 
3

>  <HBA>  (758) 
5

>  <NRB>  (758) 
2

>  <NR>  (758) 
3

>  <NAR>  (758) 
2

>  <PSA>  (758) 
118.36

>  <Standard Type>  (758) 
nan

>  <Standard Relation>  (758) 
nan

>  <Standard Units>  (758) 
nan

>  <Standard Value>  (758) 
nan

>  <Assay ChEMBL ID>  (758) 
nan

>  <Assay Description>  (758) 
nan

>  <BAO Label>  (758) 
nan

$$$$

     RDKit          2D

 24 25  0  0  0  0  0  0  0  0999 V2000
    7.2990   -1.8481    0.0000 C   0  0  0  0  0  0  0  0  0  0  0  0
    6.0000   -2.5981    0.0000 C   0  0  0  0  0  0  0  0  0  0  0  0
    4.7010   -3.3481    0.0000 C   0  0  0  0  0  0  0  0  0  0  0  0
    6.7500   -3.8971    0.0000 C   0  0  0  0  0  0  0  0  0  0  0  0
    5.2500   -1.2990    0.0000 O   0  0  0  0  0  0  0  0  0  0  0  0
    3.7500   -1.2990    0.0000 C   0  0  0  0  0  0  0  0  0  0  0  0
    3.0000   -2.5981    0.0000 O   0  0  0  0  0  0  0  0  0  0  0  0
    3.0000    0.0000    0.0000 N   0  0  0  0  0  0  0  0  0  0  0  0
    1.5000    0.0000    0.0000 C   0  0  0  0  0  0  0  0  0  0  0  0
    0.7500   -1.2990    0.0000 C   0  0  0  0  0  0  0  0  0  0  0  0
   -0.7500   -1.2990    0.0000 C   0  0  0  0  0  0  0  0  0  0  0  0
   -1.5000    0.0000    0.0000 C   0  0  0  0  0  0  0  0  0  0  0  0
   -3.0000    0.0000    0.0000 C   0  0  0  0  0  0  0  0  0  0  0  0
   -3.7500    1.2990    0.0000 C   0  0  0  0  0  0  0  0  0  0  0  0
   -5.2500    1.2990    0.0000 C   0  0  0  0  0  0  0  0  0  0  0  0
   -6.0000    0.0000    0.0000 C   0  0  0  0  0  0  0  0  0  0  0  0
   -7.5000    0.0000    0.0000 N   0  0  0  0  0  0  0  0  0  0  0  0
   -5.2500   -1.2990    0.0000 N   0  0  0  0  0  4  0  0  0  0  0  0
   -3.7500   -1.2990    0.0000 C   0  0  0  0  0  0  0  0  0  0  0  0
   -3.0000   -2.5981    0.0000 C   0  0  0  0  0  0  0  0  0  0  0  0
   -1.5000   -2.5981    0.0000 O   0  0  0  0  0  0  0  0  0  0  0  0
   -3.7500   -3.8971    0.0000 O   0  0  0  0  0  1  0  0  0  0  0  0
   -0.7500    1.2990    0.0000 C   0  0  0  0  0  0  0  0  0  0  0  0
    0.7500    1.2990    0.0000 C   0  0  0  0  0  0  0  0  0  0  0  0
  1  2  1  0
  2  3  1  0
  2  4  1  0
  2  5  1  0
  5  6  1  0
  6  7  2  0
  6  8  1  0
  8  9  1  0
  9 10  2  0
 10 11  1  0
 11 12  2  0
 12 13  1  0
 13 14  2  0
 14 15  1  0
 15 16  2  0
 16 17  1  0
 16 18  1  0
 18 19  2  0
 19 20  1  0
 20 21  2  0
 20 22  1  0
 12 23  1  0
 23 24  2  0
 24  9  1  0
 19 13  1  0
M  CHG  2  18   1  22  -1
M  END
>  <Compound_ID>  (759) 
C65356161

>  <Active>  (759) 
0.0

>  <Smiles>  (759) 
CC(C)(C)OC(=O)Nc1ccc(-c2ccc(N)[nH+]c2C(=O)[O-])cc1

>  <canonical_smi>  (759) 
CC(C)(C)OC(=O)Nc1ccc(-c2ccc(N)[nH+]c2C(=O)[O-])cc1

>  <Set>  (759) 
G2 inactive

>  <Set_type>  (759) 
Train

>  <MW>  (759) 
329.36

>  <HBD>  (759) 
2

>  <HBA>  (759) 
5

>  <NRB>  (759) 
3

>  <NR>  (759) 
2

>  <NAR>  (759) 
2

>  <PSA>  (759) 
118.62

>  <Standard Type>  (759) 
nan

>  <Standard Relation>  (759) 
nan

>  <Standard Units>  (759) 
nan

>  <Standard Value>  (759) 
nan

>  <Assay ChEMBL ID>  (759) 
nan

>  <Assay Description>  (759) 
nan

>  <BAO Label>  (759) 
nan

$$$$

     RDKit          2D

 33 37  0  0  0  0  0  0  0  0999 V2000
   -4.6883    2.2939    0.0000 C   0  0  0  0  0  0  0  0  0  0  0  0
   -4.3764    3.7611    0.0000 C   0  0  0  0  0  0  0  0  0  0  0  0
   -5.4912    4.7648    0.0000 C   0  0  0  0  0  0  0  0  0  0  0  0
   -5.1793    6.2320    0.0000 C   0  0  0  0  0  0  0  0  0  0  0  0
   -3.7527    6.6955    0.0000 C   0  0  0  0  0  0  0  0  0  0  0  0
   -2.6380    5.6918    0.0000 C   0  0  0  0  0  0  0  0  0  0  0  0
   -2.9499    4.2246    0.0000 C   0  0  0  0  0  0  0  0  0  0  0  0
   -1.8351    3.2209    0.0000 N   0  0  0  0  0  0  0  0  0  0  0  0
   -0.4086    3.6844    0.0000 C   0  0  0  0  0  0  0  0  0  0  0  0
   -0.0967    5.1517    0.0000 S   0  0  0  0  0  0  0  0  0  0  0  0
    1.3299    5.6152    0.0000 C   0  0  0  0  0  0  0  0  0  0  0  0
    1.6418    7.0824    0.0000 C   0  0  0  0  0  0  0  0  0  0  0  0
    3.0684    7.5459    0.0000 N   0  0  0  0  0  0  0  0  0  0  0  0
    3.3802    9.0132    0.0000 C   0  0  0  0  0  0  0  0  0  0  0  0
    4.8068    9.4767    0.0000 N   0  0  0  0  0  0  0  0  0  0  0  0
    2.2655   10.0169    0.0000 N   0  0  0  0  0  0  0  0  0  0  0  0
    0.8389    9.5533    0.0000 C   0  0  0  0  0  0  0  0  0  0  0  0
   -0.2758   10.5570    0.0000 N   0  0  0  0  0  0  0  0  0  0  0  0
    0.5271    8.0861    0.0000 N   0  0  0  0  0  0  0  0  0  0  0  0
    0.7062    2.6807    0.0000 N   0  0  0  0  0  0  0  0  0  0  0  0
    0.3943    1.2135    0.0000 C   0  0  0  0  0  0  0  0  0  0  0  0
    1.2760    0.0000    0.0000 S   0  0  0  0  0  0  0  0  0  0  0  0
    0.3943   -1.2135    0.0000 C   0  0  0  0  0  0  0  0  0  0  0  0
    0.8578   -2.6401    0.0000 C   0  0  0  0  0  0  0  0  0  0  0  0
   -0.1459   -3.7548    0.0000 C   0  0  0  0  0  0  0  0  0  0  0  0
    0.3177   -5.1814    0.0000 C   0  0  0  0  0  0  0  0  0  0  0  0
    1.7849   -5.4933    0.0000 C   0  0  0  0  0  0  0  0  0  0  0  0
    2.7886   -4.3786    0.0000 C   0  0  0  0  0  0  0  0  0  0  0  0
    2.3250   -2.9520    0.0000 C   0  0  0  0  0  0  0  0  0  0  0  0
   -1.0323   -0.7500    0.0000 C   0  0  0  0  0  0  0  0  0  0  0  0
   -1.0323    0.7500    0.0000 C   0  0  0  0  0  0  0  0  0  0  0  0
   -2.1470    1.7537    0.0000 C   0  0  0  0  0  0  0  0  0  0  0  0
   -3.5736    1.2902    0.0000 O   0  0  0  0  0  0  0  0  0  0  0  0
  1  2  1  0
  2  3  2  0
  3  4  1  0
  4  5  2  0
  5  6  1  0
  6  7  2  0
  7  8  1  0
  8  9  1  0
  9 10  1  0
 10 11  1  0
 11 12  1  0
 12 13  2  0
 13 14  1  0
 14 15  1  0
 14 16  2  0
 16 17  1  0
 17 18  1  0
 17 19  2  0
  9 20  2  0
 20 21  1  0
 21 22  1  0
 22 23  1  0
 23 24  1  0
 24 25  2  0
 25 26  1  0
 26 27  2  0
 27 28  1  0
 28 29  2  0
 23 30  2  0
 30 31  1  0
 31 32  1  0
 32 33  2  0
  7  2  1  0
 32  8  1  0
 19 12  1  0
 31 21  2  0
 29 24  1  0
M  END
>  <Compound_ID>  (760) 
C19296798

>  <Active>  (760) 
0.0

>  <Smiles>  (760) 
Cc1ccccc1-n1c(SCc2nc(N)nc(N)n2)nc2sc(-c3ccccc3)cc2c1=O

>  <canonical_smi>  (760) 
Cc1ccccc1-n1c(SCc2nc(N)nc(N)n2)nc2sc(-c3ccccc3)cc2c1=O

>  <Set>  (760) 
G2 inactive

>  <Set_type>  (760) 
Train

>  <MW>  (760) 
473.59

>  <HBD>  (760) 
2

>  <HBA>  (760) 
8

>  <NRB>  (760) 
5

>  <NR>  (760) 
5

>  <NAR>  (760) 
5

>  <PSA>  (760) 
125.6

>  <Standard Type>  (760) 
nan

>  <Standard Relation>  (760) 
nan

>  <Standard Units>  (760) 
nan

>  <Standard Value>  (760) 
nan

>  <Assay ChEMBL ID>  (760) 
nan

>  <Assay Description>  (760) 
nan

>  <BAO Label>  (760) 
nan

$$$$

     RDKit          2D

 34 37  0  0  0  0  0  0  0  0999 V2000
  -10.4431    3.8367    0.0000 C   0  0  0  0  0  0  0  0  0  0  0  0
   -9.3284    2.8330    0.0000 C   0  0  0  0  0  0  0  0  0  0  0  0
   -9.6403    1.3658    0.0000 N   0  0  0  0  0  4  0  0  0  0  0  0
  -11.0669    0.9023    0.0000 C   0  0  0  0  0  0  0  0  0  0  0  0
  -12.1816    1.9060    0.0000 C   0  0  0  0  0  0  0  0  0  0  0  0
   -8.5256    0.3621    0.0000 C   0  0  0  0  0  0  0  0  0  0  0  0
   -7.0990    0.8256    0.0000 C   0  0  0  0  0  0  0  0  0  0  0  0
   -5.9843   -0.1781    0.0000 C   0  0  0  0  0  0  0  0  0  0  0  0
   -6.2961   -1.6453    0.0000 C   0  0  0  0  0  0  0  0  0  0  0  0
   -5.1814   -2.6490    0.0000 N   0  0  0  0  0  0  0  0  0  0  0  0
   -3.7548   -2.1855    0.0000 C   0  0  0  0  0  0  0  0  0  0  0  0
   -3.4430   -0.7182    0.0000 O   0  0  0  0  0  0  0  0  0  0  0  0
   -2.6401   -3.1891    0.0000 C   0  0  0  0  0  0  0  0  0  0  0  0
   -1.2135   -2.7256    0.0000 C   0  0  0  0  0  0  0  0  0  0  0  0
   -0.0000   -3.6073    0.0000 C   0  0  0  0  0  0  0  0  0  0  0  0
   -0.0000   -5.1073    0.0000 C   0  0  0  0  0  0  0  0  0  0  0  0
   -1.2990   -5.8573    0.0000 C   0  0  0  0  0  0  0  0  0  0  0  0
   -1.2990   -7.3573    0.0000 C   0  0  0  0  0  0  0  0  0  0  0  0
   -0.0000   -8.1073    0.0000 C   0  0  0  0  0  0  0  0  0  0  0  0
    0.0000   -9.6073    0.0000 C   0  0  0  0  0  0  0  0  0  0  0  0
    1.2990   -7.3573    0.0000 C   0  0  0  0  0  0  0  0  0  0  0  0
    2.5981   -8.1073    0.0000 C   0  0  0  0  0  0  0  0  0  0  0  0
    1.2990   -5.8573    0.0000 C   0  0  0  0  0  0  0  0  0  0  0  0
    1.2135   -2.7256    0.0000 N   0  0  0  0  0  4  0  0  0  0  0  0
    0.7500   -1.2990    0.0000 C   0  0  0  0  0  0  0  0  0  0  0  0
    1.5000    0.0000    0.0000 C   0  0  0  0  0  0  0  0  0  0  0  0
    3.0000    0.0000    0.0000 C   0  0  0  0  0  0  0  0  0  0  0  0
    0.7500    1.2990    0.0000 C   0  0  0  0  0  0  0  0  0  0  0  0
   -0.7500    1.2990    0.0000 C   0  0  0  0  0  0  0  0  0  0  0  0
   -1.5000    0.0000    0.0000 C   0  0  0  0  0  0  0  0  0  0  0  0
   -0.7500   -1.2990    0.0000 N   0  0  0  0  0  0  0  0  0  0  0  0
   -7.7227   -2.1088    0.0000 C   0  0  0  0  0  0  0  0  0  0  0  0
   -8.0346   -3.5760    0.0000 C   0  0  0  0  0  0  0  0  0  0  0  0
   -8.8374   -1.1051    0.0000 C   0  0  0  0  0  0  0  0  0  0  0  0
  1  2  1  0
  2  3  1  0
  3  4  1  0
  4  5  1  0
  3  6  1  0
  6  7  2  0
  7  8  1  0
  8  9  2  0
  9 10  1  0
 10 11  1  0
 11 12  2  0
 11 13  1  0
 13 14  1  0
 14 15  2  0
 15 16  1  0
 16 17  2  0
 17 18  1  0
 18 19  2  0
 19 20  1  0
 19 21  1  0
 21 22  1  0
 21 23  2  0
 15 24  1  0
 24 25  2  0
 25 26  1  0
 26 27  1  0
 26 28  2  0
 28 29  1  0
 29 30  2  0
 30 31  1  0
  9 32  1  0
 32 33  1  0
 32 34  2  0
 34  6  1  0
 31 14  1  0
 23 16  1  0
 31 25  1  0
M  CHG  2   3   1  24   1
M  END
>  <Compound_ID>  (761) 
C62042002

>  <Active>  (761) 
0.0

>  <Smiles>  (761) 
CC[NH+](CC)c1ccc(NC(=O)Cc2c(-c3ccc(C)c(C)c3)[nH+]c3c(C)cccn23)c(C)c1

>  <canonical_smi>  (761) 
CC[NH+](CC)c1ccc(NC(=O)Cc2c(-c3ccc(C)c(C)c3)[nH+]c3c(C)cccn23)c(C)c1

>  <Set>  (761) 
G2 inactive

>  <Set_type>  (761) 
Train

>  <MW>  (761) 
456.63

>  <HBD>  (761) 
2

>  <HBA>  (761) 
1

>  <NRB>  (761) 
7

>  <NR>  (761) 
4

>  <NAR>  (761) 
4

>  <PSA>  (761) 
52.09

>  <Standard Type>  (761) 
nan

>  <Standard Relation>  (761) 
nan

>  <Standard Units>  (761) 
nan

>  <Standard Value>  (761) 
nan

>  <Assay ChEMBL ID>  (761) 
nan

>  <Assay Description>  (761) 
nan

>  <BAO Label>  (761) 
nan

$$$$

     RDKit          2D

 24 26  0  0  0  0  0  0  0  0999 V2000
    8.2500   -3.8971    0.0000 N   0  0  0  0  0  0  0  0  0  0  0  0
    7.5000   -2.5981    0.0000 C   0  0  0  0  0  0  0  0  0  0  0  0
    8.2500   -1.2990    0.0000 O   0  0  0  0  0  0  0  0  0  0  0  0
    6.0000   -2.5981    0.0000 N   0  0  0  0  0  0  0  0  0  0  0  0
    5.2500   -1.2990    0.0000 C   0  0  0  0  0  0  0  0  0  0  0  0
    6.0000    0.0000    0.0000 O   0  0  0  0  0  0  0  0  0  0  0  0
    3.7500   -1.2990    0.0000 C   0  0  0  0  0  0  0  0  0  0  0  0
    3.0000    0.0000    0.0000 O   0  0  0  0  0  0  0  0  0  0  0  0
    1.5000    0.0000    0.0000 C   0  0  0  0  0  0  0  0  0  0  0  0
    0.7500   -1.2990    0.0000 N   0  0  0  0  0  0  0  0  0  0  0  0
   -0.7500   -1.2990    0.0000 C   0  0  0  0  0  0  0  0  0  0  0  0
   -1.5000    0.0000    0.0000 N   0  0  0  0  0  0  0  0  0  0  0  0
   -0.7500    1.2990    0.0000 C   0  0  0  0  0  0  0  0  0  0  0  0
   -1.2135    2.7256    0.0000 S   0  0  0  0  0  0  0  0  0  0  0  0
   -0.0000    3.6073    0.0000 C   0  0  0  0  0  0  0  0  0  0  0  0
    1.2135    2.7256    0.0000 C   0  0  0  0  0  0  0  0  0  0  0  0
    2.6401    3.1891    0.0000 C   0  0  0  0  0  0  0  0  0  0  0  0
    3.7548    2.1855    0.0000 C   0  0  0  0  0  0  0  0  0  0  0  0
    5.1814    2.6490    0.0000 C   0  0  0  0  0  0  0  0  0  0  0  0
    5.4933    4.1162    0.0000 C   0  0  0  0  0  0  0  0  0  0  0  0
    6.9199    4.5797    0.0000 Cl  0  0  0  0  0  0  0  0  0  0  0  0
    4.3786    5.1199    0.0000 C   0  0  0  0  0  0  0  0  0  0  0  0
    2.9520    4.6564    0.0000 C   0  0  0  0  0  0  0  0  0  0  0  0
    0.7500    1.2990    0.0000 C   0  0  0  0  0  0  0  0  0  0  0  0
  1  2  1  0
  2  3  2  0
  2  4  1  0
  4  5  1  0
  5  6  2  0
  5  7  1  0
  7  8  1  0
  8  9  1  0
  9 10  2  0
 10 11  1  0
 11 12  2  0
 12 13  1  0
 13 14  1  0
 14 15  1  0
 15 16  2  0
 16 17  1  0
 17 18  2  0
 18 19  1  0
 19 20  2  0
 20 21  1  0
 20 22  1  0
 22 23  2  0
 16 24  1  0
 24  9  1  0
 24 13  2  0
 23 17  1  0
M  END
>  <Compound_ID>  (762) 
C02616580

>  <Active>  (762) 
0.0

>  <Smiles>  (762) 
NC(=O)NC(=O)COc1ncnc2scc(-c3ccc(Cl)cc3)c12

>  <canonical_smi>  (762) 
NC(=O)NC(=O)COc1ncnc2scc(-c3ccc(Cl)cc3)c12

>  <Set>  (762) 
G2 inactive

>  <Set_type>  (762) 
Train

>  <MW>  (762) 
362.8

>  <HBD>  (762) 
2

>  <HBA>  (762) 
5

>  <NRB>  (762) 
4

>  <NR>  (762) 
3

>  <NAR>  (762) 
3

>  <PSA>  (762) 
107.2

>  <Standard Type>  (762) 
nan

>  <Standard Relation>  (762) 
nan

>  <Standard Units>  (762) 
nan

>  <Standard Value>  (762) 
nan

>  <Assay ChEMBL ID>  (762) 
nan

>  <Assay Description>  (762) 
nan

>  <BAO Label>  (762) 
nan

$$$$

     RDKit          2D

 24 28  0  0  0  0  0  0  0  0999 V2000
    2.7760    0.0000    0.0000 O   0  0  0  0  0  0  0  0  0  0  0  0
    1.2760    0.0000    0.0000 C   0  0  0  0  0  0  0  0  0  0  0  0
    0.3943    1.2135    0.0000 N   0  0  0  0  0  0  0  0  0  0  0  0
   -1.0323    0.7500    0.0000 C   0  0  0  0  0  0  0  0  0  0  0  0
   -2.3313    1.5000    0.0000 C   0  0  0  0  0  0  0  0  0  0  0  0
   -3.6304    0.7500    0.0000 C   0  0  0  0  0  0  0  0  0  0  0  0
   -5.0569    1.2135    0.0000 N   0  0  0  0  0  0  0  0  0  0  0  0
   -5.9386    0.0000    0.0000 C   0  0  0  0  0  0  0  0  0  0  0  0
   -7.4386    0.0000    0.0000 C   0  0  0  0  0  0  0  0  0  0  0  0
   -8.3203   -1.2135    0.0000 C   0  0  0  0  0  0  0  0  0  0  0  0
   -9.7469   -0.7500    0.0000 C   0  0  0  0  0  0  0  0  0  0  0  0
   -9.7469    0.7500    0.0000 C   0  0  0  0  0  0  0  0  0  0  0  0
  -10.9604    1.6317    0.0000 C   0  0  0  0  0  0  0  0  0  0  0  0
  -10.8036    3.1235    0.0000 C   0  0  0  0  0  0  0  0  0  0  0  0
  -12.0171    4.0051    0.0000 C   0  0  0  0  0  0  0  0  0  0  0  0
  -13.3875    3.3950    0.0000 C   0  0  0  0  0  0  0  0  0  0  0  0
  -13.5443    1.9033    0.0000 C   0  0  0  0  0  0  0  0  0  0  0  0
  -12.3307    1.0216    0.0000 O   0  0  0  0  0  0  0  0  0  0  0  0
   -8.3203    1.2135    0.0000 O   0  0  0  0  0  0  0  0  0  0  0  0
   -5.0569   -1.2135    0.0000 N   0  0  0  0  0  0  0  0  0  0  0  0
   -3.6304   -0.7500    0.0000 C   0  0  0  0  0  0  0  0  0  0  0  0
   -2.3313   -1.5000    0.0000 C   0  0  0  0  0  0  0  0  0  0  0  0
   -1.0323   -0.7500    0.0000 C   0  0  0  0  0  0  0  0  0  0  0  0
    0.3943   -1.2135    0.0000 N   0  0  0  0  0  0  0  0  0  0  0  0
  1  2  2  0
  2  3  1  0
  3  4  1  0
  4  5  2  0
  5  6  1  0
  6  7  1  0
  7  8  2  0
  8  9  1  0
  9 10  2  0
 10 11  1  0
 11 12  2  0
 13 12  1  6
 13 14  1  0
 14 15  1  0
 15 16  1  0
 16 17  1  0
 17 18  1  0
 12 19  1  0
  8 20  1  0
 20 21  1  0
 21 22  1  0
 22 23  2  0
 23 24  1  0
 24  2  1  0
 23  4  1  0
 21  6  2  0
 19  9  1  0
 18 13  1  0
M  END
>  <Compound_ID>  (763) 
C55386521

>  <Active>  (763) 
0.0

>  <Smiles>  (763) 
O=c1[nH]c2cc3nc(-c4ccc([C@H]5CCCCO5)o4)[nH]c3cc2[nH]1

>  <canonical_smi>  (763) 
O=c1[nH]c2cc3nc(-c4ccc([C@H]5CCCCO5)o4)[nH]c3cc2[nH]1

>  <Set>  (763) 
G2 inactive

>  <Set_type>  (763) 
Train

>  <MW>  (763) 
324.34

>  <HBD>  (763) 
3

>  <HBA>  (763) 
4

>  <NRB>  (763) 
2

>  <NR>  (763) 
5

>  <NAR>  (763) 
4

>  <PSA>  (763) 
99.7

>  <Standard Type>  (763) 
nan

>  <Standard Relation>  (763) 
nan

>  <Standard Units>  (763) 
nan

>  <Standard Value>  (763) 
nan

>  <Assay ChEMBL ID>  (763) 
nan

>  <Assay Description>  (763) 
nan

>  <BAO Label>  (763) 
nan

$$$$

     RDKit          2D

 22 25  0  0  0  0  0  0  0  0999 V2000
   -8.1517  -11.1192    0.0000 Cl  0  0  0  0  0  0  0  0  0  0  0  0
   -6.8527  -10.3692    0.0000 C   0  0  0  0  0  0  0  0  0  0  0  0
   -6.8527   -8.8692    0.0000 C   0  0  0  0  0  0  0  0  0  0  0  0
   -5.5537   -8.1192    0.0000 C   0  0  0  0  0  0  0  0  0  0  0  0
   -5.2418   -6.6520    0.0000 C   0  0  0  0  0  0  0  0  0  0  0  0
   -3.7500   -6.4952    0.0000 C   0  0  0  0  0  0  0  0  0  0  0  0
   -3.0000   -5.1962    0.0000 C   0  0  0  0  0  0  0  0  0  0  0  0
   -1.5000   -5.1962    0.0000 S   0  0  0  0  0  0  0  0  0  0  0  0
   -0.7500   -3.8971    0.0000 C   0  0  0  0  0  0  0  0  0  0  0  0
    0.7500   -3.8971    0.0000 N   0  0  0  0  0  0  0  0  0  0  0  0
    1.5000   -2.5981    0.0000 N   0  0  0  0  0  0  0  0  0  0  0  0
    0.7500   -1.2990    0.0000 C   0  0  0  0  0  0  0  0  0  0  0  0
    1.5000    0.0000    0.0000 C   0  0  0  0  0  0  0  0  0  0  0  0
    0.7500    1.2990    0.0000 C   0  0  0  0  0  0  0  0  0  0  0  0
   -0.7500    1.2990    0.0000 C   0  0  0  0  0  0  0  0  0  0  0  0
   -1.5000    0.0000    0.0000 C   0  0  0  0  0  0  0  0  0  0  0  0
   -0.7500   -1.2990    0.0000 C   0  0  0  0  0  0  0  0  0  0  0  0
   -1.5000   -2.5981    0.0000 N   0  0  0  0  0  0  0  0  0  0  0  0
   -3.1399   -7.8655    0.0000 N   0  0  0  0  0  0  0  0  0  0  0  0
   -4.2546   -8.8692    0.0000 C   0  0  0  0  0  0  0  0  0  0  0  0
   -4.2546  -10.3692    0.0000 C   0  0  0  0  0  0  0  0  0  0  0  0
   -5.5537  -11.1192    0.0000 C   0  0  0  0  0  0  0  0  0  0  0  0
  1  2  1  0
  2  3  2  0
  4  3  1  6
  4  5  1  0
  5  6  2  0
  6  7  1  0
  7  8  1  0
  8  9  1  0
  9 10  2  0
 10 11  1  0
 11 12  2  0
 12 13  1  0
 13 14  2  0
 14 15  1  0
 15 16  2  0
 16 17  1  0
 17 18  1  1
  6 19  1  0
 19 20  2  0
 20 21  1  0
 21 22  2  0
 22  2  1  0
 20  4  1  0
 18  9  1  0
 17 12  1  0
M  END
>  <Compound_ID>  (764) 
C26511728

>  <Active>  (764) 
0.0

>  <Smiles>  (764) 
ClC1=C[C@@H]2C=C(CSC3=NN=C4C=CC=C[C@@H]4N3)N=C2C=C1

>  <canonical_smi>  (764) 
ClC1=C[C@@H]2C=C(CSC3=NN=C4C=CC=C[C@@H]4N3)N=C2C=C1

>  <Set>  (764) 
G2 inactive

>  <Set_type>  (764) 
Train

>  <MW>  (764) 
328.83

>  <HBD>  (764) 
1

>  <HBA>  (764) 
2

>  <NRB>  (764) 
2

>  <NR>  (764) 
4

>  <NAR>  (764) 
0

>  <PSA>  (764) 
49.11

>  <Standard Type>  (764) 
nan

>  <Standard Relation>  (764) 
nan

>  <Standard Units>  (764) 
nan

>  <Standard Value>  (764) 
nan

>  <Assay ChEMBL ID>  (764) 
nan

>  <Assay Description>  (764) 
nan

>  <BAO Label>  (764) 
nan

$$$$

     RDKit          2D

 24 26  0  0  0  0  0  0  0  0999 V2000
    3.0000    0.0000    0.0000 C   0  0  0  0  0  0  0  0  0  0  0  0
    1.5000    0.0000    0.0000 C   0  0  0  0  0  0  0  0  0  0  0  0
    0.7500   -1.2990    0.0000 C   0  0  0  0  0  0  0  0  0  0  0  0
   -0.7500   -1.2990    0.0000 C   0  0  0  0  0  0  0  0  0  0  0  0
   -1.5000   -2.5981    0.0000 C   0  0  0  0  0  0  0  0  0  0  0  0
   -3.0000   -2.5981    0.0000 C   0  0  0  0  0  0  0  0  0  0  0  0
   -3.7500   -1.2990    0.0000 C   0  0  0  0  0  0  0  0  0  0  0  0
   -4.5000    0.0000    0.0000 N   0  0  0  0  0  0  0  0  0  0  0  0
   -3.7500   -3.8971    0.0000 C   0  0  0  0  0  0  0  0  0  0  0  0
   -3.1399   -5.2674    0.0000 N   0  0  0  0  0  0  0  0  0  0  0  0
   -4.2546   -6.2711    0.0000 C   0  0  0  0  0  0  0  0  0  0  0  0
   -4.0978   -7.7629    0.0000 C   0  0  0  0  0  0  0  0  0  0  0  0
   -5.3113   -8.6446    0.0000 C   0  0  0  0  0  0  0  0  0  0  0  0
   -5.1546  -10.1364    0.0000 C   0  0  0  0  0  0  0  0  0  0  0  0
   -3.7842  -10.7465    0.0000 N   0  0  0  0  0  0  0  0  0  0  0  0
   -2.5707   -9.8648    0.0000 C   0  0  0  0  0  0  0  0  0  0  0  0
   -2.7275   -8.3730    0.0000 C   0  0  0  0  0  0  0  0  0  0  0  0
   -5.5537   -5.5211    0.0000 C   0  0  0  0  0  0  0  0  0  0  0  0
   -5.2418   -4.0539    0.0000 S   0  0  0  0  0  0  0  0  0  0  0  0
   -1.5000    0.0000    0.0000 C   0  0  0  0  0  0  0  0  0  0  0  0
   -0.7500    1.2990    0.0000 C   0  0  0  0  0  0  0  0  0  0  0  0
   -1.5000    2.5981    0.0000 C   0  0  0  0  0  0  0  0  0  0  0  0
    0.7500    1.2990    0.0000 C   0  0  0  0  0  0  0  0  0  0  0  0
    1.5000    2.5981    0.0000 O   0  0  0  0  0  0  0  0  0  0  0  0
  1  2  1  0
  2  3  2  0
  3  4  1  0
  4  5  1  0
  5  6  2  0
  6  7  1  0
  7  8  3  0
  6  9  1  0
  9 10  2  0
 10 11  1  0
 11 12  1  0
 12 13  2  0
 13 14  1  0
 14 15  2  0
 15 16  1  0
 16 17  2  0
 11 18  2  0
 18 19  1  0
  4 20  2  0
 20 21  1  0
 21 22  1  0
 21 23  2  0
 23 24  1  0
 23  2  1  0
 19  9  1  0
 17 12  1  0
M  END
>  <Compound_ID>  (765) 
C63412617

>  <Active>  (765) 
0.0

>  <Smiles>  (765) 
Cc1cc(/C=C(\C#N)c2nc(-c3ccncc3)cs2)cc(C)c1O

>  <canonical_smi>  (765) 
Cc1cc(/C=C(\C#N)c2nc(-c3ccncc3)cs2)cc(C)c1O

>  <Set>  (765) 
G2 inactive

>  <Set_type>  (765) 
Train

>  <MW>  (765) 
333.42

>  <HBD>  (765) 
1

>  <HBA>  (765) 
4

>  <NRB>  (765) 
3

>  <NR>  (765) 
3

>  <NAR>  (765) 
3

>  <PSA>  (765) 
69.8

>  <Standard Type>  (765) 
nan

>  <Standard Relation>  (765) 
nan

>  <Standard Units>  (765) 
nan

>  <Standard Value>  (765) 
nan

>  <Assay ChEMBL ID>  (765) 
nan

>  <Assay Description>  (765) 
nan

>  <BAO Label>  (765) 
nan

$$$$

     RDKit          2D

 32 36  0  0  0  0  0  0  0  0999 V2000
    6.0000   -2.5981    0.0000 C   0  0  0  0  0  0  0  0  0  0  0  0
    5.2500   -1.2990    0.0000 O   0  0  0  0  0  0  0  0  0  0  0  0
    3.7500   -1.2990    0.0000 C   0  0  0  0  0  0  0  0  0  0  0  0
    3.0000    0.0000    0.0000 C   0  0  0  0  0  0  0  0  0  0  0  0
    1.5000    0.0000    0.0000 N   0  0  0  0  0  0  0  0  0  0  0  0
    0.7500   -1.2990    0.0000 C   0  0  0  0  0  0  0  0  0  0  0  0
   -0.7500   -1.2990    0.0000 C   0  0  0  0  0  0  0  0  0  0  0  0
   -1.5000    0.0000    0.0000 N   0  0  0  0  0  0  0  0  0  0  0  0
   -0.7500    1.2990    0.0000 C   0  0  0  0  0  0  0  0  0  0  0  0
   -1.7537    2.4138    0.0000 N   0  0  0  0  0  4  0  0  0  0  0  0
   -3.1240    1.8037    0.0000 C   0  0  0  0  0  0  0  0  0  0  0  0
   -4.4943    2.4138    0.0000 C   0  0  0  0  0  0  0  0  0  0  0  0
   -5.7079    1.5321    0.0000 C   0  0  0  0  0  0  0  0  0  0  0  0
   -7.0782    2.1422    0.0000 N   0  0  0  0  0  0  0  0  0  0  0  0
   -7.2350    3.6340    0.0000 C   0  0  0  0  0  0  0  0  0  0  0  0
   -6.1203    4.6377    0.0000 O   0  0  0  0  0  0  0  0  0  0  0  0
   -6.7304    6.0080    0.0000 C   0  0  0  0  0  0  0  0  0  0  0  0
   -5.9804    7.3070    0.0000 O   0  0  0  0  0  0  0  0  0  0  0  0
   -8.2221    5.8512    0.0000 C   0  0  0  0  0  0  0  0  0  0  0  0
   -8.5340    4.3840    0.0000 C   0  0  0  0  0  0  0  0  0  0  0  0
   -9.9606    3.9204    0.0000 C   0  0  0  0  0  0  0  0  0  0  0  0
  -11.0753    4.9241    0.0000 C   0  0  0  0  0  0  0  0  0  0  0  0
  -10.7634    6.3914    0.0000 C   0  0  0  0  0  0  0  0  0  0  0  0
  -11.8782    7.3951    0.0000 O   0  0  0  0  0  0  0  0  0  0  0  0
  -11.5663    8.8623    0.0000 C   0  0  0  0  0  0  0  0  0  0  0  0
   -9.3369    6.8549    0.0000 C   0  0  0  0  0  0  0  0  0  0  0  0
   -9.0250    8.3221    0.0000 O   0  0  0  0  0  0  0  0  0  0  0  0
  -10.1397    9.3258    0.0000 C   0  0  0  0  0  0  0  0  0  0  0  0
   -5.5511    0.0403    0.0000 C   0  0  0  0  0  0  0  0  0  0  0  0
   -4.1807   -0.5698    0.0000 C   0  0  0  0  0  0  0  0  0  0  0  0
   -2.9672    0.3119    0.0000 C   0  0  0  0  0  0  0  0  0  0  0  0
    0.7500    1.2990    0.0000 C   0  0  0  0  0  0  0  0  0  0  0  0
  1  2  1  0
  2  3  1  0
  3  4  1  0
  4  5  1  0
  5  6  1  0
  6  7  1  0
  7  8  1  0
  8  9  1  0
  9 10  2  0
 10 11  1  0
 11 12  2  0
 12 13  1  0
 13 14  1  0
 15 14  1  1
 15 16  1  0
 16 17  1  0
 17 18  2  0
 17 19  1  0
 19 20  2  0
 20 21  1  0
 21 22  2  0
 22 23  1  0
 23 24  1  0
 24 25  1  0
 23 26  2  0
 26 27  1  0
 27 28  1  0
 13 29  2  0
 29 30  1  0
 30 31  2  0
  9 32  1  0
 32  5  1  0
 31  8  1  0
 31 11  1  0
 20 15  1  0
 26 19  1  0
M  CHG  1  10   1
M  END
>  <Compound_ID>  (766) 
C36370002

>  <Active>  (766) 
0.0

>  <Smiles>  (766) 
COCCN1CCn2c([nH+]c3cc(N[C@@H]4OC(=O)c5c4ccc(OC)c5OC)ccc32)C1

>  <canonical_smi>  (766) 
COCCN1CCn2c([nH+]c3cc(N[C@@H]4OC(=O)c5c4ccc(OC)c5OC)ccc32)C1

>  <Set>  (766) 
G2 inactive

>  <Set_type>  (766) 
Train

>  <MW>  (766) 
439.49

>  <HBD>  (766) 
1

>  <HBA>  (766) 
7

>  <NRB>  (766) 
7

>  <NR>  (766) 
5

>  <NAR>  (766) 
3

>  <PSA>  (766) 
88.33

>  <Standard Type>  (766) 
nan

>  <Standard Relation>  (766) 
nan

>  <Standard Units>  (766) 
nan

>  <Standard Value>  (766) 
nan

>  <Assay ChEMBL ID>  (766) 
nan

>  <Assay Description>  (766) 
nan

>  <BAO Label>  (766) 
nan

$$$$

     RDKit          2D

 27 28  0  0  0  0  0  0  0  0999 V2000
    7.5000   -2.5981    0.0000 C   0  0  0  0  0  0  0  0  0  0  0  0
    6.0000   -2.5981    0.0000 C   0  0  0  0  0  0  0  0  0  0  0  0
    5.2500   -1.2990    0.0000 N   0  0  0  0  0  0  0  0  0  0  0  0
    3.7500   -1.2990    0.0000 C   0  0  0  0  0  0  0  0  0  0  0  0
    3.0000   -2.5981    0.0000 O   0  0  0  0  0  0  0  0  0  0  0  0
    3.0000    0.0000    0.0000 C   0  0  0  0  0  0  0  0  0  0  0  0
    1.5000    0.0000    0.0000 N   0  0  0  0  0  0  0  0  0  0  0  0
    0.7500   -1.2990    0.0000 C   0  0  0  0  0  0  0  0  0  0  0  0
   -0.7500   -1.2990    0.0000 C   0  0  0  0  0  0  0  0  0  0  0  0
   -1.5000    0.0000    0.0000 N   0  0  0  0  0  0  0  0  0  0  0  0
   -3.0000    0.0000    0.0000 C   0  0  0  0  0  0  0  0  0  0  0  0
   -3.7500   -1.2990    0.0000 O   0  0  0  0  0  0  0  0  0  0  0  0
   -3.7500    1.2990    0.0000 N   0  0  0  0  0  0  0  0  0  0  0  0
   -5.2500    1.2990    0.0000 C   0  0  0  0  0  0  0  0  0  0  0  0
   -6.0000    2.5981    0.0000 C   0  0  0  0  0  0  0  0  0  0  0  0
   -4.7010    3.3481    0.0000 C   0  0  0  0  0  0  0  0  0  0  0  0
   -7.2990    1.8481    0.0000 C   0  0  0  0  0  0  0  0  0  0  0  0
   -6.7500    3.8971    0.0000 N   0  0  0  0  0  4  0  0  0  0  0  0
   -6.0000    5.1962    0.0000 C   0  0  0  0  0  0  0  0  0  0  0  0
   -6.7500    6.4952    0.0000 C   0  0  0  0  0  0  0  0  0  0  0  0
   -6.0000    7.7942    0.0000 C   0  0  0  0  0  0  0  0  0  0  0  0
   -8.2500    6.4952    0.0000 C   0  0  0  0  0  0  0  0  0  0  0  0
   -9.0000    5.1962    0.0000 C   0  0  0  0  0  0  0  0  0  0  0  0
  -10.5000    5.1962    0.0000 C   0  0  0  0  0  0  0  0  0  0  0  0
   -8.2500    3.8971    0.0000 C   0  0  0  0  0  0  0  0  0  0  0  0
   -0.7500    1.2990    0.0000 C   0  0  0  0  0  0  0  0  0  0  0  0
    0.7500    1.2990    0.0000 C   0  0  0  0  0  0  0  0  0  0  0  0
  1  2  1  0
  2  3  1  0
  3  4  1  0
  4  5  2  0
  4  6  1  0
  6  7  1  0
  7  8  1  0
  8  9  1  0
  9 10  1  0
 10 11  1  0
 11 12  2  0
 11 13  1  0
 13 14  1  0
 14 15  1  0
 15 16  1  0
 15 17  1  0
 15 18  1  0
 18 19  1  0
 19 20  1  0
 20 21  1  6
 20 22  1  0
 22 23  1  0
 23 24  1  1
 23 25  1  0
 10 26  1  0
 26 27  1  0
 27  7  1  0
 25 18  1  0
M  CHG  1  18   1
M  END
>  <Compound_ID>  (767) 
C54727961

>  <Active>  (767) 
0.0

>  <Smiles>  (767) 
CCNC(=O)CN1CCN(C(=O)NCC(C)(C)[NH+]2C[C@@H](C)C[C@H](C)C2)CC1

>  <canonical_smi>  (767) 
CCNC(=O)CN1CCN(C(=O)NCC(C)(C)[NH+]2C[C@@H](C)C[C@H](C)C2)CC1

>  <Set>  (767) 
G2 inactive

>  <Set_type>  (767) 
Train

>  <MW>  (767) 
382.57

>  <HBD>  (767) 
3

>  <HBA>  (767) 
3

>  <NRB>  (767) 
6

>  <NR>  (767) 
2

>  <NAR>  (767) 
0

>  <PSA>  (767) 
69.12

>  <Standard Type>  (767) 
nan

>  <Standard Relation>  (767) 
nan

>  <Standard Units>  (767) 
nan

>  <Standard Value>  (767) 
nan

>  <Assay ChEMBL ID>  (767) 
nan

>  <Assay Description>  (767) 
nan

>  <BAO Label>  (767) 
nan

$$$$

     RDKit          2D

 33 37  0  0  0  0  0  0  0  0999 V2000
    2.3250    2.9520    0.0000 C   0  0  0  0  0  0  0  0  0  0  0  0
    0.8578    2.6401    0.0000 N   0  0  0  0  0  0  0  0  0  0  0  0
   -0.1459    3.7548    0.0000 C   0  0  0  0  0  0  0  0  0  0  0  0
    0.3177    5.1814    0.0000 C   0  0  0  0  0  0  0  0  0  0  0  0
    1.7849    5.4933    0.0000 C   0  0  0  0  0  0  0  0  0  0  0  0
    2.2484    6.9199    0.0000 C   0  0  0  0  0  0  0  0  0  0  0  0
    1.2447    8.0346    0.0000 C   0  0  0  0  0  0  0  0  0  0  0  0
   -0.2225    7.7227    0.0000 C   0  0  0  0  0  0  0  0  0  0  0  0
   -0.6860    6.2961    0.0000 C   0  0  0  0  0  0  0  0  0  0  0  0
    0.3943    1.2135    0.0000 C   0  0  0  0  0  0  0  0  0  0  0  0
    1.2760    0.0000    0.0000 N   0  0  0  0  0  4  0  0  0  0  0  0
    0.3943   -1.2135    0.0000 C   0  0  0  0  0  0  0  0  0  0  0  0
   -1.0323   -0.7500    0.0000 C   0  0  0  0  0  0  0  0  0  0  0  0
   -2.1470   -1.7537    0.0000 C   0  0  0  0  0  0  0  0  0  0  0  0
   -3.5736   -1.2902    0.0000 O   0  0  0  0  0  0  0  0  0  0  0  0
   -1.8351   -3.2209    0.0000 N   0  0  0  0  0  0  0  0  0  0  0  0
   -0.4086   -3.6844    0.0000 C   0  0  0  0  0  0  0  0  0  0  0  0
   -0.0967   -5.1517    0.0000 O   0  0  0  0  0  1  0  0  0  0  0  0
    0.7062   -2.6807    0.0000 N   0  0  0  0  0  0  0  0  0  0  0  0
    2.1328   -3.1443    0.0000 C   0  0  0  0  0  0  0  0  0  0  0  0
   -1.0323    0.7500    0.0000 N   0  0  0  0  0  0  0  0  0  0  0  0
   -2.2458    1.6317    0.0000 C   0  0  0  0  0  0  0  0  0  0  0  0
   -2.0890    3.1235    0.0000 C   0  0  0  0  0  0  0  0  0  0  0  0
   -3.3025    4.0051    0.0000 S   0  0  0  0  0  0  0  0  0  0  0  0
   -3.1458    5.4969    0.0000 C   0  0  0  0  0  0  0  0  0  0  0  0
   -1.8467    6.2469    0.0000 N   0  0  0  0  0  4  0  0  0  0  0  0
   -2.1586    7.7141    0.0000 C   0  0  0  0  0  0  0  0  0  0  0  0
   -1.2769    8.9277    0.0000 C   0  0  0  0  0  0  0  0  0  0  0  0
   -1.8870   10.2980    0.0000 C   0  0  0  0  0  0  0  0  0  0  0  0
   -3.3788   10.4548    0.0000 C   0  0  0  0  0  0  0  0  0  0  0  0
   -4.2605    9.2413    0.0000 C   0  0  0  0  0  0  0  0  0  0  0  0
   -3.6504    7.8709    0.0000 C   0  0  0  0  0  0  0  0  0  0  0  0
   -4.2605    6.5006    0.0000 N   0  0  0  0  0  4  0  0  0  0  0  0
  1  2  1  0
  2  3  1  0
  3  4  1  0
  4  5  2  0
  5  6  1  0
  6  7  2  0
  7  8  1  0
  8  9  2  0
  2 10  1  0
 10 11  2  0
 11 12  1  0
 12 13  1  0
 13 14  1  0
 14 15  2  0
 14 16  1  0
 16 17  2  0
 17 18  1  0
 17 19  1  0
 19 20  1  0
 13 21  1  6
 21 22  1  0
 22 23  1  0
 23 24  1  0
 24 25  1  0
 25 26  1  0
 26 27  2  0
 27 28  1  0
 28 29  2  0
 29 30  1  0
 30 31  2  0
 31 32  1  0
 32 33  2  0
  9  4  1  0
 21 10  1  0
 33 25  1  0
 12 19  1  6
 32 27  1  0
M  CHG  4  11   1  18  -1  26   1  33   1
M  END
>  <Compound_ID>  (768) 
C63426794

>  <Active>  (768) 
0.0

>  <Smiles>  (768) 
CN(Cc1ccccc1)C1=[NH+][C@H]2[C@H](C(=O)N=C([O-])N2C)N1CCSC1[NH+]=c2ccccc2=[NH+]1

>  <canonical_smi>  (768) 
CN(Cc1ccccc1)C1=[NH+][C@H]2[C@H](C(=O)N=C([O-])N2C)N1CCSC1[NH+]=c2ccccc2=[NH+]1

>  <Set>  (768) 
G2 inactive

>  <Set_type>  (768) 
Train

>  <MW>  (768) 
465.58

>  <HBD>  (768) 
3

>  <HBA>  (768) 
6

>  <NRB>  (768) 
6

>  <NR>  (768) 
5

>  <NAR>  (768) 
2

>  <PSA>  (768) 
104.12

>  <Standard Type>  (768) 
nan

>  <Standard Relation>  (768) 
nan

>  <Standard Units>  (768) 
nan

>  <Standard Value>  (768) 
nan

>  <Assay ChEMBL ID>  (768) 
nan

>  <Assay Description>  (768) 
nan

>  <BAO Label>  (768) 
nan

$$$$

     RDKit          2D

 28 32  0  0  0  0  0  0  0  0999 V2000
   -7.9925    5.9687    0.0000 C   0  0  0  0  0  0  0  0  0  0  0  0
   -6.7790    5.0870    0.0000 C   0  0  0  0  0  0  0  0  0  0  0  0
   -6.9358    3.5952    0.0000 C   0  0  0  0  0  0  0  0  0  0  0  0
   -5.7222    2.7135    0.0000 N   0  0  0  0  0  0  0  0  0  0  0  0
   -5.7222    1.2135    0.0000 N   0  0  0  0  0  0  0  0  0  0  0  0
   -4.2956    0.7500    0.0000 C   0  0  0  0  0  0  0  0  0  0  0  0
   -3.4140    1.9635    0.0000 C   0  0  0  0  0  0  0  0  0  0  0  0
   -1.9140    1.9635    0.0000 C   0  0  0  0  0  0  0  0  0  0  0  0
   -1.0323    3.1771    0.0000 C   0  0  0  0  0  0  0  0  0  0  0  0
    0.3943    2.7135    0.0000 C   0  0  0  0  0  0  0  0  0  0  0  0
    1.8209    3.1771    0.0000 C   0  0  0  0  0  0  0  0  0  0  0  0
    2.7026    1.9635    0.0000 N   0  0  0  0  0  0  0  0  0  0  0  0
    4.2026    1.9635    0.0000 C   0  0  0  0  0  0  0  0  0  0  0  0
    4.9526    0.6645    0.0000 C   0  0  0  0  0  0  0  0  0  0  0  0
    6.4526    0.6645    0.0000 C   0  0  0  0  0  0  0  0  0  0  0  0
    7.2026    1.9635    0.0000 N   0  0  0  0  0  4  0  0  0  0  0  0
    8.7026    1.9635    0.0000 C   0  0  0  0  0  0  0  0  0  0  0  0
    6.4526    3.2626    0.0000 C   0  0  0  0  0  0  0  0  0  0  0  0
    4.9526    3.2626    0.0000 C   0  0  0  0  0  0  0  0  0  0  0  0
    1.8209    0.7500    0.0000 C   0  0  0  0  0  0  0  0  0  0  0  0
    2.2844   -0.6766    0.0000 O   0  0  0  0  0  0  0  0  0  0  0  0
    0.3943    1.2135    0.0000 C   0  0  0  0  0  0  0  0  0  0  0  0
    1.2760    0.0000    0.0000 C   0  0  0  0  0  0  0  0  0  0  0  0
    0.3943   -1.2135    0.0000 C   0  0  0  0  0  0  0  0  0  0  0  0
   -1.0323   -0.7500    0.0000 C   0  0  0  0  0  0  0  0  0  0  0  0
   -1.0323    0.7500    0.0000 N   0  0  0  0  0  4  0  0  0  0  0  0
   -4.2956    3.1771    0.0000 C   0  0  0  0  0  0  0  0  0  0  0  0
   -3.8321    4.6036    0.0000 C   0  0  0  0  0  0  0  0  0  0  0  0
  1  2  1  0
  2  3  1  0
  3  4  1  0
  4  5  1  0
  5  6  2  0
  6  7  1  0
  8  7  1  6
  8  9  1  0
 10  9  1  6
 10 11  1  0
 11 12  1  0
 12 13  1  0
 13 14  1  0
 14 15  1  0
 15 16  1  0
 16 17  1  0
 16 18  1  0
 18 19  1  0
 12 20  1  0
 20 21  2  0
 20 22  1  0
 22 23  1  1
 23 24  1  0
 24 25  1  0
 25 26  1  0
  7 27  2  0
 27 28  1  0
 27  4  1  0
 26  8  1  0
 22 10  1  0
 19 13  1  0
 26 22  1  0
M  CHG  2  16   1  26   1
M  END
>  <Compound_ID>  (769) 
C43631298

>  <Active>  (769) 
0.0

>  <Smiles>  (769) 
CCCn1ncc([C@@H]2C[C@@H]3CN(C4CC[NH+](C)CC4)C(=O)[C@@]34CCC[NH+]24)c1C

>  <canonical_smi>  (769) 
CCCn1ncc([C@@H]2C[C@@H]3CN(C4CC[NH+](C)CC4)C(=O)[C@@]34CCC[NH+]24)c1C

>  <Set>  (769) 
G2 inactive

>  <Set_type>  (769) 
Train

>  <MW>  (769) 
387.57

>  <HBD>  (769) 
2

>  <HBA>  (769) 
2

>  <NRB>  (769) 
4

>  <NR>  (769) 
5

>  <NAR>  (769) 
1

>  <PSA>  (769) 
47.01

>  <Standard Type>  (769) 
nan

>  <Standard Relation>  (769) 
nan

>  <Standard Units>  (769) 
nan

>  <Standard Value>  (769) 
nan

>  <Assay ChEMBL ID>  (769) 
nan

>  <Assay Description>  (769) 
nan

>  <BAO Label>  (769) 
nan

$$$$

     RDKit          2D

 26 28  0  0  0  0  0  0  0  0999 V2000
    2.2500   -6.4952    0.0000 C   0  0  0  0  0  0  0  0  0  0  0  0
    1.5000   -5.1962    0.0000 C   0  0  0  0  0  0  0  0  0  0  0  0
    2.2500   -3.8971    0.0000 N   0  0  0  0  0  0  0  0  0  0  0  0
    3.7500   -3.8971    0.0000 C   0  0  0  0  0  0  0  0  0  0  0  0
    4.5000   -5.1962    0.0000 C   0  0  0  0  0  0  0  0  0  0  0  0
    6.0000   -5.1962    0.0000 C   0  0  0  0  0  0  0  0  0  0  0  0
    6.7500   -3.8971    0.0000 C   0  0  0  0  0  0  0  0  0  0  0  0
    6.0000   -2.5981    0.0000 C   0  0  0  0  0  0  0  0  0  0  0  0
    6.7500   -1.2990    0.0000 C   0  0  0  0  0  0  0  0  0  0  0  0
    4.5000   -2.5981    0.0000 C   0  0  0  0  0  0  0  0  0  0  0  0
    1.5000   -2.5981    0.0000 S   0  0  0  0  0  0  0  0  0  0  0  0
    2.7990   -1.8481    0.0000 O   0  0  0  0  0  0  0  0  0  0  0  0
    0.2010   -3.3481    0.0000 O   0  0  0  0  0  0  0  0  0  0  0  0
    0.7500   -1.2990    0.0000 C   0  0  0  0  0  0  0  0  0  0  0  0
    1.5000    0.0000    0.0000 C   0  0  0  0  0  0  0  0  0  0  0  0
    0.7500    1.2990    0.0000 C   0  0  0  0  0  0  0  0  0  0  0  0
   -0.7500    1.2990    0.0000 C   0  0  0  0  0  0  0  0  0  0  0  0
   -1.5000    0.0000    0.0000 C   0  0  0  0  0  0  0  0  0  0  0  0
   -0.7500   -1.2990    0.0000 C   0  0  0  0  0  0  0  0  0  0  0  0
   -1.5000   -2.5981    0.0000 C   0  0  0  0  0  0  0  0  0  0  0  0
   -1.5000    2.5981    0.0000 N   0  0  0  0  0  4  0  0  0  0  0  0
   -0.7500    3.8971    0.0000 C   0  0  0  0  0  0  0  0  0  0  0  0
   -1.5000    5.1962    0.0000 O   0  0  0  0  0  0  0  0  0  0  0  0
    0.7500    3.8971    0.0000 C   0  0  0  0  0  0  0  0  0  0  0  0
    1.5000    5.1962    0.0000 O   0  0  0  0  0  0  0  0  0  0  0  0
    1.5000    2.5981    0.0000 N   0  0  0  0  0  4  0  0  0  0  0  0
  1  2  1  0
  2  3  1  0
  3  4  1  0
  4  5  2  0
  5  6  1  0
  6  7  2  0
  7  8  1  0
  8  9  1  0
  8 10  2  0
  3 11  1  0
 11 12  2  0
 11 13  2  0
 11 14  1  0
 14 15  2  0
 15 16  1  0
 16 17  1  0
 17 18  1  0
 18 19  2  0
 19 20  1  0
 17 21  2  0
 21 22  1  0
 22 23  2  0
 22 24  1  0
 24 25  2  0
 24 26  1  0
 10  4  1  0
 19 14  1  0
 26 16  2  0
M  CHG  2  21   1  26   1
M  END
>  <Compound_ID>  (770) 
C06938582

>  <Active>  (770) 
0.0

>  <Smiles>  (770) 
CCN(c1cccc(C)c1)S(=O)(=O)c1cc2c(cc1C)=[NH+]C(=O)C(=O)[NH+]=2

>  <canonical_smi>  (770) 
CCN(c1cccc(C)c1)S(=O)(=O)c1cc2c(cc1C)=[NH+]C(=O)C(=O)[NH+]=2

>  <Set>  (770) 
G2 inactive

>  <Set_type>  (770) 
Train

>  <MW>  (770) 
373.43

>  <HBD>  (770) 
2

>  <HBA>  (770) 
4

>  <NRB>  (770) 
4

>  <NR>  (770) 
3

>  <NAR>  (770) 
2

>  <PSA>  (770) 
99.46

>  <Standard Type>  (770) 
nan

>  <Standard Relation>  (770) 
nan

>  <Standard Units>  (770) 
nan

>  <Standard Value>  (770) 
nan

>  <Assay ChEMBL ID>  (770) 
nan

>  <Assay Description>  (770) 
nan

>  <BAO Label>  (770) 
nan

$$$$

     RDKit          2D

 25 27  0  0  0  0  0  0  0  0999 V2000
   -1.2114    6.1554    0.0000 O   0  0  0  0  0  0  0  0  0  0  0  0
   -2.6380    5.6918    0.0000 C   0  0  0  0  0  0  0  0  0  0  0  0
   -2.9499    4.2246    0.0000 C   0  0  0  0  0  0  0  0  0  0  0  0
   -1.8351    3.2209    0.0000 N   0  0  0  0  0  4  0  0  0  0  0  0
   -0.4086    3.6844    0.0000 C   0  0  0  0  0  0  0  0  0  0  0  0
    0.7062    2.6807    0.0000 C   0  0  0  0  0  0  0  0  0  0  0  0
    0.3943    1.2135    0.0000 C   0  0  0  0  0  0  0  0  0  0  0  0
    1.2760    0.0000    0.0000 S   0  0  0  0  0  0  0  0  0  0  0  0
    0.3943   -1.2135    0.0000 C   0  0  0  0  0  0  0  0  0  0  0  0
   -1.0323   -0.7500    0.0000 C   0  0  0  0  0  0  0  0  0  0  0  0
   -1.0323    0.7500    0.0000 C   0  0  0  0  0  0  0  0  0  0  0  0
   -2.1470    1.7537    0.0000 C   0  0  0  0  0  0  0  0  0  0  0  0
   -3.7527    6.6955    0.0000 N   0  0  0  0  0  0  0  0  0  0  0  0
   -3.4408    8.1628    0.0000 C   0  0  0  0  0  0  0  0  0  0  0  0
   -4.5556    9.1664    0.0000 C   0  0  0  0  0  0  0  0  0  0  0  0
   -4.2437   10.6337    0.0000 N   0  0  0  0  0  0  0  0  0  0  0  0
   -5.3584   11.6374    0.0000 C   0  0  0  0  0  0  0  0  0  0  0  0
   -5.0465   13.1046    0.0000 C   0  0  0  0  0  0  0  0  0  0  0  0
   -6.1613   14.1083    0.0000 C   0  0  0  0  0  0  0  0  0  0  0  0
   -7.5878   13.6448    0.0000 C   0  0  0  0  0  0  0  0  0  0  0  0
   -8.7026   14.6485    0.0000 N   0  0  0  0  0  4  0  0  0  0  0  0
  -10.1291   14.1849    0.0000 O   0  0  0  0  0  0  0  0  0  0  0  0
   -8.3907   16.1157    0.0000 O   0  0  0  0  0  1  0  0  0  0  0  0
   -7.8997   12.1775    0.0000 C   0  0  0  0  0  0  0  0  0  0  0  0
   -6.7850   11.1738    0.0000 C   0  0  0  0  0  0  0  0  0  0  0  0
  1  2  2  0
  2  3  1  0
  3  4  1  0
  4  5  1  0
  5  6  1  0
  6  7  1  0
  7  8  1  0
  8  9  1  0
  9 10  2  0
 10 11  1  0
 11 12  1  0
  2 13  1  0
 13 14  1  0
 14 15  1  0
 15 16  1  0
 16 17  1  0
 17 18  2  0
 18 19  1  0
 19 20  2  0
 20 21  1  0
 21 22  2  0
 21 23  1  0
 20 24  1  0
 24 25  2  0
 12  4  1  0
 25 17  1  0
 11  7  2  0
M  CHG  3   4   1  21   1  23  -1
M  END
>  <Compound_ID>  (771) 
C54670629

>  <Active>  (771) 
0.0

>  <Smiles>  (771) 
O=C(C[NH+]1CCc2sccc2C1)NCCNc1ccc([N+](=O)[O-])cc1

>  <canonical_smi>  (771) 
O=C(C[NH+]1CCc2sccc2C1)NCCNc1ccc([N+](=O)[O-])cc1

>  <Set>  (771) 
G2 inactive

>  <Set_type>  (771) 
Train

>  <MW>  (771) 
361.45

>  <HBD>  (771) 
3

>  <HBA>  (771) 
4

>  <NRB>  (771) 
7

>  <NR>  (771) 
3

>  <NAR>  (771) 
2

>  <PSA>  (771) 
88.71

>  <Standard Type>  (771) 
nan

>  <Standard Relation>  (771) 
nan

>  <Standard Units>  (771) 
nan

>  <Standard Value>  (771) 
nan

>  <Assay ChEMBL ID>  (771) 
nan

>  <Assay Description>  (771) 
nan

>  <BAO Label>  (771) 
nan

$$$$

     RDKit          2D

 33 37  0  0  0  0  0  0  0  0999 V2000
    2.9554   -2.2351    0.0000 C   0  0  0  0  0  0  0  0  0  0  0  0
    1.5000   -2.5981    0.0000 C   0  0  0  0  0  0  0  0  0  0  0  0
    0.7500   -1.2990    0.0000 C   0  0  0  0  0  0  0  0  0  0  0  0
    1.5000    0.0000    0.0000 C   0  0  0  0  0  0  0  0  0  0  0  0
    0.7500    1.2990    0.0000 C   0  0  0  0  0  0  0  0  0  0  0  0
   -0.7500    1.2990    0.0000 C   0  0  0  0  0  0  0  0  0  0  0  0
   -1.5000    0.0000    0.0000 N   0  0  0  0  0  4  0  0  0  0  0  0
   -2.9672   -0.3119    0.0000 C   0  0  0  0  0  0  0  0  0  0  0  0
   -3.1240   -1.8037    0.0000 C   0  0  0  0  0  0  0  0  0  0  0  0
   -1.7537   -2.4138    0.0000 C   0  0  0  0  0  0  0  0  0  0  0  0
   -3.2240   -2.7110    0.0000 C   0  0  0  0  0  0  0  0  0  0  0  0
   -4.4286   -1.8173    0.0000 C   0  0  0  0  0  0  0  0  0  0  0  0
   -5.8050   -2.4137    0.0000 C   0  0  0  0  0  0  0  0  0  0  0  0
   -5.9766   -3.9038    0.0000 C   0  0  0  0  0  0  0  0  0  0  0  0
   -7.3529   -4.5002    0.0000 O   0  0  0  0  0  0  0  0  0  0  0  0
   -8.5576   -3.6065    0.0000 C   0  0  0  0  0  0  0  0  0  0  0  0
   -4.7719   -4.7976    0.0000 C   0  0  0  0  0  0  0  0  0  0  0  0
   -3.3956   -4.2011    0.0000 C   0  0  0  0  0  0  0  0  0  0  0  0
   -2.0314   -4.8249    0.0000 N   0  0  0  0  0  0  0  0  0  0  0  0
   -1.7342   -6.2951    0.0000 C   0  0  0  0  0  0  0  0  0  0  0  0
   -1.0134   -3.7261    0.0000 C   0  0  0  0  0  0  0  0  0  0  0  0
    0.4784   -3.8829    0.0000 C   0  0  0  0  0  0  0  0  0  0  0  0
    0.0650   -5.3248    0.0000 O   0  0  0  0  0  0  0  0  0  0  0  0
    1.8266   -4.5404    0.0000 C   0  0  0  0  0  0  0  0  0  0  0  0
    3.2362   -4.0275    0.0000 O   0  0  0  0  0  0  0  0  0  0  0  0
    1.9313   -6.0368    0.0000 O   0  0  0  0  0  0  0  0  0  0  0  0
    3.2794   -6.6943    0.0000 C   0  0  0  0  0  0  0  0  0  0  0  0
    1.3601   -2.6694    0.0000 C   0  0  0  0  0  0  0  0  0  0  0  0
    2.8519   -2.8261    0.0000 C   0  0  0  0  0  0  0  0  0  0  0  0
    3.7336   -1.6126    0.0000 O   0  0  0  0  0  0  0  0  0  0  0  0
    3.4620   -4.1965    0.0000 O   0  0  0  0  0  0  0  0  0  0  0  0
    4.9538   -4.3533    0.0000 C   0  0  0  0  0  0  0  0  0  0  0  0
   -0.7500   -1.2990    0.0000 C   0  0  0  0  0  0  0  0  0  0  0  0
  1  2  1  0
  3  2  1  6
  3  4  1  0
  4  5  2  0
  5  6  1  0
  6  7  1  0
  7  8  1  0
  8  9  1  0
 10  9  1  1
 10 11  1  0
 11 12  2  0
 12 13  1  0
 13 14  2  0
 14 15  1  0
 15 16  1  0
 14 17  1  0
 17 18  2  0
 18 19  1  0
 19 20  1  0
 21 19  1  6
 21 22  1  0
 22 23  1  1
 22 24  1  0
 24 25  2  0
 24 26  1  0
 26 27  1  0
 22 28  1  0
 28 29  1  1
 29 30  2  0
 29 31  1  0
 31 32  1  0
 10 33  1  0
 28  3  1  0
 33  3  1  0
 33  7  1  1
 21 10  1  0
 18 11  1  0
M  CHG  1   7   1
M  END
>  <Compound_ID>  (772) 
C19864844

>  <Active>  (772) 
0.0

>  <Smiles>  (772) 
CC[C@]12C=CC[NH+]3CC[C@@]4(c5ccc(OC)cc5N(C)[C@H]4[C@@](O)(C(=O)OC)[C@@H]1C(=O)OC)[C@@H]32

>  <canonical_smi>  (772) 
CC[C@]12C=CC[NH+]3CC[C@@]4(c5ccc(OC)cc5N(C)[C@H]4[C@@](O)(C(=O)OC)[C@@H]1C(=O)OC)[C@@H]32

>  <Set>  (772) 
G2 inactive

>  <Set_type>  (772) 
Train

>  <MW>  (772) 
457.55

>  <HBD>  (772) 
2

>  <HBA>  (772) 
7

>  <NRB>  (772) 
4

>  <NR>  (772) 
5

>  <NAR>  (772) 
1

>  <PSA>  (772) 
89.74

>  <Standard Type>  (772) 
nan

>  <Standard Relation>  (772) 
nan

>  <Standard Units>  (772) 
nan

>  <Standard Value>  (772) 
nan

>  <Assay ChEMBL ID>  (772) 
nan

>  <Assay Description>  (772) 
nan

>  <BAO Label>  (772) 
nan

$$$$

     RDKit          2D

 31 35  0  0  0  0  0  0  0  0999 V2000
    3.5757   -7.5908    0.0000 O   0  0  0  0  0  0  0  0  0  0  0  0
    4.6904   -6.5871    0.0000 C   0  0  0  0  0  0  0  0  0  0  0  0
    4.3786   -5.1199    0.0000 N   0  0  0  0  0  0  0  0  0  0  0  0
    2.9520   -4.6564    0.0000 C   0  0  0  0  0  0  0  0  0  0  0  0
    2.6401   -3.1891    0.0000 C   0  0  0  0  0  0  0  0  0  0  0  0
    1.2135   -2.7256    0.0000 C   0  0  0  0  0  0  0  0  0  0  0  0
    0.7500   -1.2990    0.0000 C   0  0  0  0  0  0  0  0  0  0  0  0
    1.5000    0.0000    0.0000 C   0  0  0  0  0  0  0  0  0  0  0  0
    0.7500    1.2990    0.0000 C   0  0  0  0  0  0  0  0  0  0  0  0
    1.5000    2.5981    0.0000 Cl  0  0  0  0  0  0  0  0  0  0  0  0
   -0.7500    1.2990    0.0000 C   0  0  0  0  0  0  0  0  0  0  0  0
   -1.5000    0.0000    0.0000 C   0  0  0  0  0  0  0  0  0  0  0  0
   -0.7500   -1.2990    0.0000 C   0  0  0  0  0  0  0  0  0  0  0  0
   -1.2135   -2.7256    0.0000 N   0  0  0  0  0  4  0  0  0  0  0  0
    0.0000   -3.6073    0.0000 C   0  0  0  0  0  0  0  0  0  0  0  0
    6.1170   -7.0506    0.0000 C   0  0  0  0  0  0  0  0  0  0  0  0
    6.4289   -8.5179    0.0000 C   0  0  0  0  0  0  0  0  0  0  0  0
    7.8555   -8.9814    0.0000 C   0  0  0  0  0  0  0  0  0  0  0  0
    8.9702   -7.9777    0.0000 N   0  0  0  0  0  0  0  0  0  0  0  0
   10.3968   -8.4412    0.0000 C   0  0  0  0  0  0  0  0  0  0  0  0
   11.5115   -7.4375    0.0000 N   0  0  0  0  0  0  0  0  0  0  0  0
   12.9381   -7.9010    0.0000 C   0  0  0  0  0  0  0  0  0  0  0  0
   14.0528   -6.8974    0.0000 Cl  0  0  0  0  0  0  0  0  0  0  0  0
   13.2499   -9.3683    0.0000 N   0  0  0  0  0  0  0  0  0  0  0  0
   12.1352  -10.3720    0.0000 C   0  0  0  0  0  0  0  0  0  0  0  0
   12.1352  -11.8720    0.0000 N   0  0  0  0  0  0  0  0  0  0  0  0
   10.7086  -12.3355    0.0000 C   0  0  0  0  0  0  0  0  0  0  0  0
    9.8270  -11.1220    0.0000 N   0  0  0  0  0  0  0  0  0  0  0  0
   10.7086   -9.9084    0.0000 C   0  0  0  0  0  0  0  0  0  0  0  0
    8.6583   -6.5105    0.0000 C   0  0  0  0  0  0  0  0  0  0  0  0
    7.2317   -6.0469    0.0000 C   0  0  0  0  0  0  0  0  0  0  0  0
  1  2  2  0
  2  3  1  0
  3  4  1  0
  4  5  1  0
  5  6  1  0
  6  7  2  0
  7  8  1  0
  8  9  2  0
  9 10  1  0
  9 11  1  0
 11 12  2  0
 12 13  1  0
 13 14  2  0
 14 15  1  0
  2 16  1  0
 16 17  1  0
 17 18  1  0
 18 19  1  0
 19 20  1  0
 20 21  2  0
 21 22  1  0
 22 23  1  0
 22 24  2  0
 24 25  1  0
 25 26  2  0
 26 27  1  0
 27 28  2  0
 29 28  1  1
 19 30  1  0
 30 31  1  0
 15  6  1  0
 31 16  1  0
 13  7  1  0
 29 20  1  0
 29 25  1  0
M  CHG  1  14   1
M  END
>  <Compound_ID>  (773) 
C64480026

>  <Active>  (773) 
0.0

>  <Smiles>  (773) 
O=C(NCCC1=c2cc(Cl)ccc2=[NH+]C1)C1CCN(C2=NC(Cl)=NC3=NC=N[C@H]32)CC1

>  <canonical_smi>  (773) 
O=C(NCCC1=c2cc(Cl)ccc2=[NH+]C1)C1CCN(C2=NC(Cl)=NC3=NC=N[C@H]32)CC1

>  <Set>  (773) 
G2 inactive

>  <Set_type>  (773) 
Train

>  <MW>  (773) 
459.36

>  <HBD>  (773) 
2

>  <HBA>  (773) 
2

>  <NRB>  (773) 
4

>  <NR>  (773) 
5

>  <NAR>  (773) 
1

>  <PSA>  (773) 
95.75

>  <Standard Type>  (773) 
nan

>  <Standard Relation>  (773) 
nan

>  <Standard Units>  (773) 
nan

>  <Standard Value>  (773) 
nan

>  <Assay ChEMBL ID>  (773) 
nan

>  <Assay Description>  (773) 
nan

>  <BAO Label>  (773) 
nan

$$$$

     RDKit          2D

 26 29  0  0  0  0  0  0  0  0999 V2000
    3.7500   -3.8971    0.0000 O   0  0  0  0  0  0  0  0  0  0  0  0
    3.0000   -5.1962    0.0000 N   0  0  0  0  0  4  0  0  0  0  0  0
    3.7500   -6.4952    0.0000 O   0  0  0  0  0  1  0  0  0  0  0  0
    1.5000   -5.1962    0.0000 C   0  0  0  0  0  0  0  0  0  0  0  0
    0.7500   -6.4952    0.0000 C   0  0  0  0  0  0  0  0  0  0  0  0
   -0.7500   -6.4952    0.0000 C   0  0  0  0  0  0  0  0  0  0  0  0
   -1.5000   -7.7942    0.0000 Cl  0  0  0  0  0  0  0  0  0  0  0  0
   -1.5000   -5.1962    0.0000 C   0  0  0  0  0  0  0  0  0  0  0  0
   -0.7500   -3.8971    0.0000 C   0  0  0  0  0  0  0  0  0  0  0  0
    0.7500   -3.8971    0.0000 C   0  0  0  0  0  0  0  0  0  0  0  0
    1.5000   -2.5981    0.0000 N   0  0  0  0  0  4  0  0  0  0  0  0
    0.7500   -1.2990    0.0000 C   0  0  0  0  0  0  0  0  0  0  0  0
    1.5000    0.0000    0.0000 C   0  0  0  0  0  0  0  0  0  0  0  0
    0.7500    1.2990    0.0000 C   0  0  0  0  0  0  0  0  0  0  0  0
   -0.7500    1.2990    0.0000 C   0  0  0  0  0  0  0  0  0  0  0  0
   -1.5000    0.0000    0.0000 C   0  0  0  0  0  0  0  0  0  0  0  0
   -0.7500   -1.2990    0.0000 C   0  0  0  0  0  0  0  0  0  0  0  0
   -2.9672    0.3119    0.0000 N   0  0  0  0  0  0  0  0  0  0  0  0
   -3.1240    1.8037    0.0000 N   0  0  0  0  0  0  0  0  0  0  0  0
   -1.7537    2.4138    0.0000 N   0  0  0  0  0  0  0  0  0  0  0  0
   -1.4418    3.8810    0.0000 C   0  0  0  0  0  0  0  0  0  0  0  0
   -0.0152    4.3445    0.0000 C   0  0  0  0  0  0  0  0  0  0  0  0
    0.2966    5.8117    0.0000 C   0  0  0  0  0  0  0  0  0  0  0  0
   -0.8181    6.8154    0.0000 C   0  0  0  0  0  0  0  0  0  0  0  0
   -2.2447    6.3519    0.0000 C   0  0  0  0  0  0  0  0  0  0  0  0
   -2.5565    4.8847    0.0000 C   0  0  0  0  0  0  0  0  0  0  0  0
  1  2  2  0
  2  3  1  0
  4  2  1  1
  4  5  1  0
  5  6  1  0
  6  7  1  1
  6  8  1  0
  8  9  1  0
  9 10  1  0
 10 11  1  1
 12 11  1  1
 12 13  1  0
 13 14  1  0
 15 14  1  6
 15 16  1  0
 16 17  1  6
 16 18  1  0
 18 19  2  0
 19 20  1  0
 20 21  1  0
 21 22  1  0
 22 23  1  0
 23 24  1  0
 24 25  1  0
 25 26  1  0
 10  4  1  0
 17 12  1  0
 26 21  1  0
 20 15  1  0
M  CHG  3   2   1   3  -1  11   1
M  END
>  <Compound_ID>  (774) 
C05282809

>  <Active>  (774) 
0.0

>  <Smiles>  (774) 
O=[N+]([O-])[C@H]1C[C@@H](Cl)CC[C@H]1[NH2+][C@@H]1CC[C@@H]2[C@H](C1)N=NN2C1CCCCC1

>  <canonical_smi>  (774) 
O=[N+]([O-])[C@H]1C[C@@H](Cl)CC[C@H]1[NH2+][C@@H]1CC[C@@H]2[C@H](C1)N=NN2C1CCCCC1

>  <Set>  (774) 
G2 inactive

>  <Set_type>  (774) 
Train

>  <MW>  (774) 
384.93

>  <HBD>  (774) 
1

>  <HBA>  (774) 
3

>  <NRB>  (774) 
4

>  <NR>  (774) 
4

>  <NAR>  (774) 
0

>  <PSA>  (774) 
87.71

>  <Standard Type>  (774) 
nan

>  <Standard Relation>  (774) 
nan

>  <Standard Units>  (774) 
nan

>  <Standard Value>  (774) 
nan

>  <Assay ChEMBL ID>  (774) 
nan

>  <Assay Description>  (774) 
nan

>  <BAO Label>  (774) 
nan

$$$$

     RDKit          2D

 30 32  0  0  0  0  0  0  0  0999 V2000
    5.2500   -1.2990    0.0000 C   0  0  0  0  0  0  0  0  0  0  0  0
    3.7500   -1.2990    0.0000 C   0  0  0  0  0  0  0  0  0  0  0  0
    3.0000    0.0000    0.0000 O   0  0  0  0  0  0  0  0  0  0  0  0
    1.5000    0.0000    0.0000 C   0  0  0  0  0  0  0  0  0  0  0  0
    0.7500   -1.2990    0.0000 C   0  0  0  0  0  0  0  0  0  0  0  0
    1.5000   -2.5981    0.0000 C   0  0  0  0  0  0  0  0  0  0  0  0
   -0.7500   -1.2990    0.0000 C   0  0  0  0  0  0  0  0  0  0  0  0
   -1.5000    0.0000    0.0000 C   0  0  0  0  0  0  0  0  0  0  0  0
   -3.0000    0.0000    0.0000 S   0  0  0  0  0  0  0  0  0  0  0  0
   -3.0000    1.5000    0.0000 O   0  0  0  0  0  0  0  0  0  0  0  0
   -3.0000   -1.5000    0.0000 O   0  0  0  0  0  0  0  0  0  0  0  0
   -4.5000    0.0000    0.0000 N   0  0  0  0  0  0  0  0  0  0  0  0
   -5.2500   -1.2990    0.0000 C   0  0  0  0  0  0  0  0  0  0  0  0
   -6.7500   -1.2990    0.0000 C   0  0  0  0  0  0  0  0  0  0  0  0
   -7.5000   -2.5981    0.0000 C   0  0  0  0  0  0  0  0  0  0  0  0
   -6.8899   -3.9684    0.0000 C   0  0  0  0  0  0  0  0  0  0  0  0
   -8.0046   -4.9721    0.0000 C   0  0  0  0  0  0  0  0  0  0  0  0
   -9.3037   -4.2221    0.0000 C   0  0  0  0  0  0  0  0  0  0  0  0
   -8.9918   -2.7549    0.0000 N   0  0  0  0  0  0  0  0  0  0  0  0
   -9.9955   -1.6402    0.0000 C   0  0  0  0  0  0  0  0  0  0  0  0
   -7.5000    0.0000    0.0000 N   0  0  0  0  0  0  0  0  0  0  0  0
   -6.7500    1.2990    0.0000 C   0  0  0  0  0  0  0  0  0  0  0  0
   -7.5000    2.5981    0.0000 C   0  0  0  0  0  0  0  0  0  0  0  0
   -9.0000    2.5981    0.0000 N   0  0  0  0  0  4  0  0  0  0  0  0
   -9.7500    3.8971    0.0000 C   0  0  0  0  0  0  0  0  0  0  0  0
   -9.7500    1.2990    0.0000 C   0  0  0  0  0  0  0  0  0  0  0  0
   -9.0000    0.0000    0.0000 C   0  0  0  0  0  0  0  0  0  0  0  0
   -0.7500    1.2990    0.0000 C   0  0  0  0  0  0  0  0  0  0  0  0
    0.7500    1.2990    0.0000 C   0  0  0  0  0  0  0  0  0  0  0  0
    1.5000    2.5981    0.0000 C   0  0  0  0  0  0  0  0  0  0  0  0
  1  2  1  0
  2  3  1  0
  3  4  1  0
  4  5  2  0
  5  6  1  0
  5  7  1  0
  7  8  2  0
  8  9  1  0
  9 10  2  0
  9 11  2  0
  9 12  1  0
 12 13  1  0
 14 13  1  6
 14 15  1  0
 15 16  2  0
 16 17  1  0
 17 18  2  0
 18 19  1  0
 19 20  1  0
 14 21  1  0
 21 22  1  0
 22 23  1  0
 23 24  1  0
 24 25  1  0
 24 26  1  0
 26 27  1  0
  8 28  1  0
 28 29  2  0
 29 30  1  0
 29  4  1  0
 19 15  1  0
 27 21  1  0
M  CHG  1  24   1
M  END
>  <Compound_ID>  (775) 
C21155300

>  <Active>  (775) 
0.0

>  <Smiles>  (775) 
CCOc1c(C)cc(S(=O)(=O)NC[C@H](c2cccn2C)N2CC[NH+](C)CC2)cc1C

>  <canonical_smi>  (775) 
CCOc1c(C)cc(S(=O)(=O)NC[C@H](c2cccn2C)N2CC[NH+](C)CC2)cc1C

>  <Set>  (775) 
G2 inactive

>  <Set_type>  (775) 
Train

>  <MW>  (775) 
435.61

>  <HBD>  (775) 
2

>  <HBA>  (775) 
4

>  <NRB>  (775) 
8

>  <NR>  (775) 
3

>  <NAR>  (775) 
2

>  <PSA>  (775) 
68.01

>  <Standard Type>  (775) 
nan

>  <Standard Relation>  (775) 
nan

>  <Standard Units>  (775) 
nan

>  <Standard Value>  (775) 
nan

>  <Assay ChEMBL ID>  (775) 
nan

>  <Assay Description>  (775) 
nan

>  <BAO Label>  (775) 
nan

$$$$

     RDKit          2D

 31 34  0  0  0  0  0  0  0  0999 V2000
    3.0000    0.0000    0.0000 C   0  0  0  0  0  0  0  0  0  0  0  0
    1.5000    0.0000    0.0000 C   0  0  0  0  0  0  0  0  0  0  0  0
    0.7500   -1.2990    0.0000 C   0  0  0  0  0  0  0  0  0  0  0  0
   -0.7500   -1.2990    0.0000 C   0  0  0  0  0  0  0  0  0  0  0  0
   -1.5000    0.0000    0.0000 C   0  0  0  0  0  0  0  0  0  0  0  0
   -3.0000    0.0000    0.0000 N   0  0  0  0  0  0  0  0  0  0  0  0
   -3.7500    1.2990    0.0000 C   0  0  0  0  0  0  0  0  0  0  0  0
   -5.2418    1.4558    0.0000 N   0  0  0  0  0  0  0  0  0  0  0  0
   -5.5537    2.9231    0.0000 C   0  0  0  0  0  0  0  0  0  0  0  0
   -6.9240    3.5332    0.0000 C   0  0  0  0  0  0  0  0  0  0  0  0
   -7.0808    5.0249    0.0000 N   0  0  0  0  0  4  0  0  0  0  0  0
   -8.4511    5.6350    0.0000 C   0  0  0  0  0  0  0  0  0  0  0  0
   -5.8672    5.9066    0.0000 C   0  0  0  0  0  0  0  0  0  0  0  0
   -6.0240    7.3984    0.0000 C   0  0  0  0  0  0  0  0  0  0  0  0
   -7.3231    8.1484    0.0000 C   0  0  0  0  0  0  0  0  0  0  0  0
   -8.6934    7.5383    0.0000 C   0  0  0  0  0  0  0  0  0  0  0  0
   -7.0112    9.6156    0.0000 N   0  0  0  0  0  0  0  0  0  0  0  0
   -5.5194    9.7724    0.0000 N   0  0  0  0  0  0  0  0  0  0  0  0
   -4.7694   11.0715    0.0000 C   0  0  0  0  0  0  0  0  0  0  0  0
   -5.3795   12.4418    0.0000 C   0  0  0  0  0  0  0  0  0  0  0  0
   -4.2648   13.4455    0.0000 C   0  0  0  0  0  0  0  0  0  0  0  0
   -2.9658   12.6955    0.0000 S   0  0  0  0  0  0  0  0  0  0  0  0
   -2.3557   14.0658    0.0000 O   0  0  0  0  0  0  0  0  0  0  0  0
   -1.5392   12.2319    0.0000 O   0  0  0  0  0  0  0  0  0  0  0  0
   -3.2776   11.2282    0.0000 C   0  0  0  0  0  0  0  0  0  0  0  0
   -4.9093    8.4021    0.0000 C   0  0  0  0  0  0  0  0  0  0  0  0
   -3.4421    8.0902    0.0000 C   0  0  0  0  0  0  0  0  0  0  0  0
   -4.2546    3.6731    0.0000 C   0  0  0  0  0  0  0  0  0  0  0  0
   -3.1399    2.6694    0.0000 S   0  0  0  0  0  0  0  0  0  0  0  0
   -0.7500    1.2990    0.0000 C   0  0  0  0  0  0  0  0  0  0  0  0
    0.7500    1.2990    0.0000 C   0  0  0  0  0  0  0  0  0  0  0  0
  1  2  1  0
  2  3  2  0
  3  4  1  0
  4  5  2  0
  5  6  1  0
  6  7  1  0
  7  8  2  0
  8  9  1  0
  9 10  1  0
 10 11  1  0
 11 12  1  0
 11 13  1  0
 13 14  1  0
 14 15  1  0
 15 16  1  0
 15 17  2  0
 17 18  1  0
 19 18  1  1
 19 20  1  0
 20 21  1  0
 21 22  1  0
 22 23  2  0
 22 24  2  0
 22 25  1  0
 18 26  1  0
 26 27  1  0
  9 28  2  0
 28 29  1  0
  5 30  1  0
 30 31  2  0
 31  2  1  0
 29  7  1  0
 26 14  2  0
 25 19  1  0
M  CHG  1  11   1
M  END
>  <Compound_ID>  (776) 
C24757361

>  <Active>  (776) 
0.0

>  <Smiles>  (776) 
Cc1ccc(Nc2nc(C[NH+](C)Cc3c(C)nn([C@H]4CCS(=O)(=O)C4)c3C)cs2)cc1

>  <canonical_smi>  (776) 
Cc1ccc(Nc2nc(C[NH+](C)Cc3c(C)nn([C@H]4CCS(=O)(=O)C4)c3C)cs2)cc1

>  <Set>  (776) 
G2 inactive

>  <Set_type>  (776) 
Train

>  <MW>  (776) 
460.65

>  <HBD>  (776) 
2

>  <HBA>  (776) 
5

>  <NRB>  (776) 
7

>  <NR>  (776) 
4

>  <NAR>  (776) 
3

>  <PSA>  (776) 
81.32

>  <Standard Type>  (776) 
nan

>  <Standard Relation>  (776) 
nan

>  <Standard Units>  (776) 
nan

>  <Standard Value>  (776) 
nan

>  <Assay ChEMBL ID>  (776) 
nan

>  <Assay Description>  (776) 
nan

>  <BAO Label>  (776) 
nan

$$$$

     RDKit          2D

 33 37  0  0  0  0  0  0  0  0999 V2000
    4.6904   -6.5871    0.0000 C   0  0  0  0  0  0  0  0  0  0  0  0
    4.3786   -5.1199    0.0000 C   0  0  0  0  0  0  0  0  0  0  0  0
    5.4933   -4.1162    0.0000 C   0  0  0  0  0  0  0  0  0  0  0  0
    2.9520   -4.6564    0.0000 C   0  0  0  0  0  0  0  0  0  0  0  0
    2.6401   -3.1891    0.0000 C   0  0  0  0  0  0  0  0  0  0  0  0
    1.2135   -2.7256    0.0000 C   0  0  0  0  0  0  0  0  0  0  0  0
   -0.0000   -3.6073    0.0000 N   0  0  0  0  0  4  0  0  0  0  0  0
   -1.2135   -2.7256    0.0000 C   0  0  0  0  0  0  0  0  0  0  0  0
   -2.6401   -3.1891    0.0000 C   0  0  0  0  0  0  0  0  0  0  0  0
   -3.1036   -4.6157    0.0000 C   0  0  0  0  0  0  0  0  0  0  0  0
   -4.6036   -4.6157    0.0000 C   0  0  0  0  0  0  0  0  0  0  0  0
   -5.0672   -3.1891    0.0000 O   0  0  0  0  0  0  0  0  0  0  0  0
   -3.8536   -2.3075    0.0000 C   0  0  0  0  0  0  0  0  0  0  0  0
   -0.7500   -1.2990    0.0000 N   0  0  0  0  0  0  0  0  0  0  0  0
    0.7500   -1.2990    0.0000 C   0  0  0  0  0  0  0  0  0  0  0  0
    1.5000    0.0000    0.0000 C   0  0  0  0  0  0  0  0  0  0  0  0
    0.7500    1.2990    0.0000 N   0  0  0  0  0  0  0  0  0  0  0  0
    1.5000    2.5981    0.0000 C   0  0  0  0  0  0  0  0  0  0  0  0
    0.7500    3.8971    0.0000 O   0  0  0  0  0  0  0  0  0  0  0  0
    3.0000    2.5981    0.0000 C   0  0  0  0  0  0  0  0  0  0  0  0
    3.7500    3.8971    0.0000 C   0  0  0  0  0  0  0  0  0  0  0  0
    5.2500    3.8971    0.0000 C   0  0  0  0  0  0  0  0  0  0  0  0
    6.1317    2.6836    0.0000 N   0  0  0  0  0  0  0  0  0  0  0  0
    7.5583    3.1471    0.0000 C   0  0  0  0  0  0  0  0  0  0  0  0
    8.8573    2.3971    0.0000 C   0  0  0  0  0  0  0  0  0  0  0  0
   10.1563    3.1471    0.0000 C   0  0  0  0  0  0  0  0  0  0  0  0
   10.1563    4.6471    0.0000 C   0  0  0  0  0  0  0  0  0  0  0  0
   11.4554    5.3971    0.0000 F   0  0  0  0  0  0  0  0  0  0  0  0
    8.8573    5.3971    0.0000 C   0  0  0  0  0  0  0  0  0  0  0  0
    7.5583    4.6471    0.0000 C   0  0  0  0  0  0  0  0  0  0  0  0
    6.1317    5.1106    0.0000 N   0  0  0  0  0  0  0  0  0  0  0  0
   -0.7500    1.2990    0.0000 C   0  0  0  0  0  0  0  0  0  0  0  0
   -1.5000    0.0000    0.0000 C   0  0  0  0  0  0  0  0  0  0  0  0
  1  2  1  0
  2  3  1  0
  2  4  1  0
  4  5  1  0
  5  6  1  0
  6  7  1  0
  7  8  2  0
  9  8  1  6
  9 10  1  0
 10 11  1  0
 11 12  1  0
 12 13  1  0
  8 14  1  0
 14 15  1  0
 15 16  1  0
 16 17  1  0
 17 18  1  0
 18 19  2  0
 18 20  1  0
 20 21  1  0
 21 22  1  0
 22 23  2  0
 23 24  1  0
 24 25  2  0
 25 26  1  0
 26 27  2  0
 27 28  1  0
 27 29  1  0
 29 30  2  0
 30 31  1  0
 17 32  1  0
 32 33  1  0
 15  6  2  0
 31 22  1  0
 13  9  1  0
 33 14  1  0
 30 24  1  0
M  CHG  1   7   1
M  END
>  <Compound_ID>  (777) 
C14531482

>  <Active>  (777) 
0.0

>  <Smiles>  (777) 
CC(C)CCc1[nH+]c([C@@H]2CCOC2)n2c1CN(C(=O)CCc1nc3ccc(F)cc3[nH]1)CC2

>  <canonical_smi>  (777) 
CC(C)CCc1[nH+]c([C@@H]2CCOC2)n2c1CN(C(=O)CCc1nc3ccc(F)cc3[nH]1)CC2

>  <Set>  (777) 
G2 inactive

>  <Set_type>  (777) 
Train

>  <MW>  (777) 
454.57

>  <HBD>  (777) 
1

>  <HBA>  (777) 
3

>  <NRB>  (777) 
7

>  <NR>  (777) 
5

>  <NAR>  (777) 
3

>  <PSA>  (777) 
77.29

>  <Standard Type>  (777) 
nan

>  <Standard Relation>  (777) 
nan

>  <Standard Units>  (777) 
nan

>  <Standard Value>  (777) 
nan

>  <Assay ChEMBL ID>  (777) 
nan

>  <Assay Description>  (777) 
nan

>  <BAO Label>  (777) 
nan

$$$$

     RDKit          2D

 32 35  0  0  0  0  0  0  0  0999 V2000
    3.0000   -7.7942    0.0000 O   0  0  0  0  0  0  0  0  0  0  0  0
    1.5000   -7.7942    0.0000 C   0  0  0  0  0  0  0  0  0  0  0  0
    0.7500   -6.4952    0.0000 N   0  0  0  0  0  0  0  0  0  0  0  0
    1.5000   -5.1962    0.0000 C   0  0  0  0  0  0  0  0  0  0  0  0
    0.7500   -3.8971    0.0000 C   0  0  0  0  0  0  0  0  0  0  0  0
    1.5000   -2.5981    0.0000 O   0  0  0  0  0  0  0  0  0  0  0  0
    0.7500   -1.2990    0.0000 C   0  0  0  0  0  0  0  0  0  0  0  0
    1.5000    0.0000    0.0000 C   0  0  0  0  0  0  0  0  0  0  0  0
    0.7500    1.2990    0.0000 C   0  0  0  0  0  0  0  0  0  0  0  0
   -0.7500    1.2990    0.0000 C   0  0  0  0  0  0  0  0  0  0  0  0
   -1.5000    0.0000    0.0000 C   0  0  0  0  0  0  0  0  0  0  0  0
   -0.7500   -1.2990    0.0000 C   0  0  0  0  0  0  0  0  0  0  0  0
    0.7500   -9.0933    0.0000 C   0  0  0  0  0  0  0  0  0  0  0  0
   -0.7500   -9.0933    0.0000 C   0  0  0  0  0  0  0  0  0  0  0  0
   -1.5000  -10.3923    0.0000 C   0  0  0  0  0  0  0  0  0  0  0  0
   -0.7500  -11.6913    0.0000 C   0  0  0  0  0  0  0  0  0  0  0  0
    0.7500  -11.6913    0.0000 C   0  0  0  0  0  0  0  0  0  0  0  0
    1.5000  -10.3923    0.0000 C   0  0  0  0  0  0  0  0  0  0  0  0
    3.0000  -10.3923    0.0000 C   0  0  0  0  0  0  0  0  0  0  0  0
    3.7500   -9.0933    0.0000 O   0  0  0  0  0  0  0  0  0  0  0  0
    3.7500  -11.6913    0.0000 N   0  0  0  0  0  0  0  0  0  0  0  0
    3.0000  -12.9904    0.0000 C   0  0  0  0  0  0  0  0  0  0  0  0
    3.7500  -14.2894    0.0000 C   0  0  0  0  0  0  0  0  0  0  0  0
    5.2500  -14.2894    0.0000 N   0  0  0  0  0  0  0  0  0  0  0  0
    6.0000  -15.5885    0.0000 C   0  0  0  0  0  0  0  0  0  0  0  0
    5.2500  -16.8875    0.0000 C   0  0  0  0  0  0  0  0  0  0  0  0
    6.0000  -18.1865    0.0000 C   0  0  0  0  0  0  0  0  0  0  0  0
    7.5000  -18.1865    0.0000 C   0  0  0  0  0  0  0  0  0  0  0  0
    8.2500  -16.8875    0.0000 C   0  0  0  0  0  0  0  0  0  0  0  0
    7.5000  -15.5885    0.0000 N   0  0  0  0  0  4  0  0  0  0  0  0
    6.0000  -12.9904    0.0000 C   0  0  0  0  0  0  0  0  0  0  0  0
    5.2500  -11.6913    0.0000 C   0  0  0  0  0  0  0  0  0  0  0  0
  1  2  2  0
  2  3  1  0
  3  4  1  0
  4  5  1  0
  5  6  1  0
  6  7  1  0
  7  8  2  0
  8  9  1  0
  9 10  2  0
 10 11  1  0
 11 12  2  0
 13  2  1  6
 13 14  1  0
 14 15  1  0
 15 16  2  0
 16 17  1  0
 17 18  1  0
 18 19  1  1
 19 20  2  0
 19 21  1  0
 21 22  1  0
 22 23  1  0
 23 24  1  0
 24 25  1  0
 25 26  2  0
 26 27  1  0
 27 28  2  0
 28 29  1  0
 29 30  2  0
 24 31  1  0
 31 32  1  0
 12  7  1  0
 18 13  1  0
 32 21  1  0
 30 25  1  0
M  CHG  1  30   1
M  END
>  <Compound_ID>  (778) 
C38740782

>  <Active>  (778) 
0.0

>  <Smiles>  (778) 
O=C(NCCOc1ccccc1)[C@H]1CC=CC[C@@H]1C(=O)N1CCN(c2cccc[nH+]2)CC1

>  <canonical_smi>  (778) 
O=C(NCCOc1ccccc1)[C@H]1CC=CC[C@@H]1C(=O)N1CCN(c2cccc[nH+]2)CC1

>  <Set>  (778) 
G2 inactive

>  <Set_type>  (778) 
Train

>  <MW>  (778) 
435.55

>  <HBD>  (778) 
1

>  <HBA>  (778) 
4

>  <NRB>  (778) 
7

>  <NR>  (778) 
4

>  <NAR>  (778) 
2

>  <PSA>  (778) 
76.02

>  <Standard Type>  (778) 
nan

>  <Standard Relation>  (778) 
nan

>  <Standard Units>  (778) 
nan

>  <Standard Value>  (778) 
nan

>  <Assay ChEMBL ID>  (778) 
nan

>  <Assay Description>  (778) 
nan

>  <BAO Label>  (778) 
nan

$$$$

     RDKit          2D

 32 35  0  0  0  0  0  0  0  0999 V2000
    3.7500   -1.2990    0.0000 C   0  0  0  0  0  0  0  0  0  0  0  0
    3.0000    0.0000    0.0000 O   0  0  0  0  0  0  0  0  0  0  0  0
    1.5000    0.0000    0.0000 C   0  0  0  0  0  0  0  0  0  0  0  0
    0.7500   -1.2990    0.0000 C   0  0  0  0  0  0  0  0  0  0  0  0
   -0.7500   -1.2990    0.0000 C   0  0  0  0  0  0  0  0  0  0  0  0
   -1.5000   -2.5981    0.0000 C   0  0  0  0  0  0  0  0  0  0  0  0
   -3.0000   -2.5981    0.0000 N   0  0  0  0  0  4  0  0  0  0  0  0
   -3.7500   -3.8971    0.0000 C   0  0  0  0  0  0  0  0  0  0  0  0
   -3.7500   -1.2990    0.0000 C   0  0  0  0  0  0  0  0  0  0  0  0
   -5.2500   -1.2990    0.0000 C   0  0  0  0  0  0  0  0  0  0  0  0
   -6.1317   -2.5126    0.0000 N   0  0  0  0  0  0  0  0  0  0  0  0
   -7.5583   -2.0490    0.0000 N   0  0  0  0  0  0  0  0  0  0  0  0
   -7.5583   -0.5490    0.0000 C   0  0  0  0  0  0  0  0  0  0  0  0
   -8.7718    0.3326    0.0000 S   0  0  0  0  0  0  0  0  0  0  0  0
   -8.6150    1.8244    0.0000 C   0  0  0  0  0  0  0  0  0  0  0  0
   -9.8285    2.7061    0.0000 C   0  0  0  0  0  0  0  0  0  0  0  0
   -9.6717    4.1979    0.0000 C   0  0  0  0  0  0  0  0  0  0  0  0
  -10.8853    5.0796    0.0000 C   0  0  0  0  0  0  0  0  0  0  0  0
  -12.2556    4.4695    0.0000 C   0  0  0  0  0  0  0  0  0  0  0  0
  -12.4124    2.9777    0.0000 C   0  0  0  0  0  0  0  0  0  0  0  0
  -11.1988    2.0960    0.0000 N   0  0  0  0  0  0  0  0  0  0  0  0
   -6.1317   -0.0855    0.0000 N   0  0  0  0  0  0  0  0  0  0  0  0
   -5.6682    1.3411    0.0000 C   0  0  0  0  0  0  0  0  0  0  0  0
   -4.2009    1.6529    0.0000 C   0  0  0  0  0  0  0  0  0  0  0  0
   -3.5908    3.0233    0.0000 C   0  0  0  0  0  0  0  0  0  0  0  0
   -2.0990    2.8665    0.0000 C   0  0  0  0  0  0  0  0  0  0  0  0
   -1.7872    1.3992    0.0000 C   0  0  0  0  0  0  0  0  0  0  0  0
   -3.0862    0.6492    0.0000 O   0  0  0  0  0  0  0  0  0  0  0  0
   -1.5000    0.0000    0.0000 C   0  0  0  0  0  0  0  0  0  0  0  0
   -0.7500    1.2990    0.0000 C   0  0  0  0  0  0  0  0  0  0  0  0
    0.7500    1.2990    0.0000 C   0  0  0  0  0  0  0  0  0  0  0  0
    1.5000    2.5981    0.0000 O   0  0  0  0  0  0  0  0  0  0  0  0
  1  2  1  0
  2  3  1  0
  3  4  2  0
  4  5  1  0
  5  6  1  0
  6  7  1  0
  7  8  1  0
  7  9  1  0
  9 10  1  0
 10 11  2  0
 11 12  1  0
 12 13  2  0
 13 14  1  0
 14 15  1  0
 15 16  1  0
 16 17  2  0
 17 18  1  0
 18 19  2  0
 19 20  1  0
 20 21  2  0
 13 22  1  0
 22 23  1  0
 24 23  1  1
 24 25  1  0
 25 26  1  0
 26 27  1  0
 27 28  1  0
  5 29  2  0
 29 30  1  0
 30 31  2  0
 31 32  1  0
 31  3  1  0
 22 10  1  0
 28 24  1  0
 21 16  1  0
M  CHG  1   7   1
M  END
>  <Compound_ID>  (779) 
C11913570

>  <Active>  (779) 
0.0

>  <Smiles>  (779) 
COc1cc(C[NH+](C)Cc2nnc(SCc3ccccn3)n2C[C@H]2CCCO2)ccc1O

>  <canonical_smi>  (779) 
COc1cc(C[NH+](C)Cc2nnc(SCc3ccccn3)n2C[C@H]2CCCO2)ccc1O

>  <Set>  (779) 
G2 inactive

>  <Set_type>  (779) 
Train

>  <MW>  (779) 
456.59

>  <HBD>  (779) 
2

>  <HBA>  (779) 
7

>  <NRB>  (779) 
10

>  <NR>  (779) 
4

>  <NAR>  (779) 
3

>  <PSA>  (779) 
86.73

>  <Standard Type>  (779) 
nan

>  <Standard Relation>  (779) 
nan

>  <Standard Units>  (779) 
nan

>  <Standard Value>  (779) 
nan

>  <Assay ChEMBL ID>  (779) 
nan

>  <Assay Description>  (779) 
nan

>  <BAO Label>  (779) 
nan

$$$$

     RDKit          2D

 34 38  0  0  0  0  0  0  0  0999 V2000
   -6.3018   12.3603    0.0000 O   0  0  0  0  0  0  0  0  0  0  0  0
   -5.7691   11.2683    0.0000 C   0  0  0  0  0  0  0  0  0  0  0  0
   -6.7728   10.1536    0.0000 C   0  0  0  0  0  0  0  0  0  0  0  0
   -6.0228    8.8546    0.0000 C   0  0  0  0  0  0  0  0  0  0  0  0
   -4.5556    9.1664    0.0000 C   0  0  0  0  0  0  0  0  0  0  0  0
   -3.4408    8.1628    0.0000 C   0  0  0  0  0  0  0  0  0  0  0  0
   -3.7527    6.6955    0.0000 C   0  0  0  0  0  0  0  0  0  0  0  0
   -2.6380    5.6918    0.0000 N   0  0  0  0  0  4  0  0  0  0  0  0
   -2.9499    4.2246    0.0000 C   0  0  0  0  0  0  0  0  0  0  0  0
   -1.8351    3.2209    0.0000 C   0  0  0  0  0  0  0  0  0  0  0  0
   -2.1470    1.7537    0.0000 C   0  0  0  0  0  0  0  0  0  0  0  0
   -1.0323    0.7500    0.0000 C   0  0  0  0  0  0  0  0  0  0  0  0
    0.3943    1.2135    0.0000 C   0  0  0  0  0  0  0  0  0  0  0  0
    0.7062    2.6807    0.0000 C   0  0  0  0  0  0  0  0  0  0  0  0
   -0.4086    3.6844    0.0000 C   0  0  0  0  0  0  0  0  0  0  0  0
   -0.0967    5.1517    0.0000 Cl  0  0  0  0  0  0  0  0  0  0  0  0
    1.2760    0.0000    0.0000 O   0  0  0  0  0  0  0  0  0  0  0  0
    0.3943   -1.2135    0.0000 C   0  0  0  0  0  0  0  0  0  0  0  0
   -1.0323   -0.7500    0.0000 O   0  0  0  0  0  0  0  0  0  0  0  0
   -4.3988   10.6582    0.0000 N   0  0  0  0  0  0  0  0  0  0  0  0
   -3.0997   11.4082    0.0000 C   0  0  0  0  0  0  0  0  0  0  0  0
   -3.0997   12.9082    0.0000 C   0  0  0  0  0  0  0  0  0  0  0  0
   -4.3988   13.6582    0.0000 C   0  0  0  0  0  0  0  0  0  0  0  0
   -5.6978   12.9082    0.0000 C   0  0  0  0  0  0  0  0  0  0  0  0
   -6.9968   13.6582    0.0000 C   0  0  0  0  0  0  0  0  0  0  0  0
   -6.9968   15.1582    0.0000 N   0  0  0  0  0  0  0  0  0  0  0  0
   -5.6978   15.9082    0.0000 C   0  0  0  0  0  0  0  0  0  0  0  0
   -4.3988   15.1582    0.0000 C   0  0  0  0  0  0  0  0  0  0  0  0
   -1.8007   13.6582    0.0000 N   0  0  0  0  0  0  0  0  0  0  0  0
   -0.5016   12.9082    0.0000 C   0  0  0  0  0  0  0  0  0  0  0  0
    0.7974   13.6582    0.0000 C   0  0  0  0  0  0  0  0  0  0  0  0
    0.7974   15.1582    0.0000 O   0  0  0  0  0  0  0  0  0  0  0  0
   -0.5016   15.9082    0.0000 C   0  0  0  0  0  0  0  0  0  0  0  0
   -1.8007   15.1582    0.0000 C   0  0  0  0  0  0  0  0  0  0  0  0
  1  2  2  0
  2  3  1  0
  3  4  1  0
  4  5  1  0
  5  6  1  6
  6  7  1  0
  7  8  1  0
  8  9  1  0
  9 10  1  0
 10 11  2  0
 11 12  1  0
 12 13  2  0
 13 14  1  0
 14 15  2  0
 15 16  1  0
 13 17  1  0
 17 18  1  0
 18 19  1  0
  5 20  1  0
 20 21  1  0
 22 21  1  1
 22 23  1  0
 23 24  2  0
 24 25  1  0
 25 26  2  0
 26 27  1  0
 27 28  2  0
 22 29  1  0
 29 30  1  0
 30 31  1  0
 31 32  1  0
 32 33  1  0
 33 34  1  0
 20  2  1  0
 28 23  1  0
 34 29  1  0
 15 10  1  0
 19 12  1  0
M  CHG  1   8   1
M  END
>  <Compound_ID>  (780) 
C14994761

>  <Active>  (780) 
0.0

>  <Smiles>  (780) 
O=C1CC[C@@H](CC[NH2+]Cc2cc3c(cc2Cl)OCO3)N1C[C@@H](c1ccncc1)N1CCOCC1

>  <canonical_smi>  (780) 
O=C1CC[C@@H](CC[NH2+]Cc2cc3c(cc2Cl)OCO3)N1C[C@@H](c1ccncc1)N1CCOCC1

>  <Set>  (780) 
G2 inactive

>  <Set_type>  (780) 
Train

>  <MW>  (780) 
488.01

>  <HBD>  (780) 
1

>  <HBA>  (780) 
6

>  <NRB>  (780) 
9

>  <NR>  (780) 
5

>  <NAR>  (780) 
2

>  <PSA>  (780) 
80.74

>  <Standard Type>  (780) 
nan

>  <Standard Relation>  (780) 
nan

>  <Standard Units>  (780) 
nan

>  <Standard Value>  (780) 
nan

>  <Assay ChEMBL ID>  (780) 
nan

>  <Assay Description>  (780) 
nan

>  <BAO Label>  (780) 
nan

$$$$

     RDKit          2D

 35 39  0  0  0  0  0  0  0  0999 V2000
    4.2820   -4.1107    0.0000 O   0  0  0  0  0  0  0  0  0  0  0  0
    4.7455   -5.5373    0.0000 C   0  0  0  0  0  0  0  0  0  0  0  0
    6.2127   -5.8491    0.0000 N   0  0  0  0  0  0  0  0  0  0  0  0
    7.2164   -4.7344    0.0000 C   0  0  0  0  0  0  0  0  0  0  0  0
    8.6836   -5.0463    0.0000 C   0  0  0  0  0  0  0  0  0  0  0  0
    9.1471   -6.4729    0.0000 C   0  0  0  0  0  0  0  0  0  0  0  0
   10.6144   -6.7847    0.0000 C   0  0  0  0  0  0  0  0  0  0  0  0
   11.6181   -5.6700    0.0000 C   0  0  0  0  0  0  0  0  0  0  0  0
   13.0853   -5.9819    0.0000 C   0  0  0  0  0  0  0  0  0  0  0  0
   13.5488   -7.4085    0.0000 N   0  0  0  0  0  4  0  0  0  0  0  0
   12.5451   -8.5232    0.0000 C   0  0  0  0  0  0  0  0  0  0  0  0
   13.0086   -9.9498    0.0000 C   0  0  0  0  0  0  0  0  0  0  0  0
   14.4759  -10.2616    0.0000 C   0  0  0  0  0  0  0  0  0  0  0  0
   15.4796   -9.1469    0.0000 C   0  0  0  0  0  0  0  0  0  0  0  0
   15.0160   -7.7203    0.0000 C   0  0  0  0  0  0  0  0  0  0  0  0
   11.1545   -4.2434    0.0000 C   0  0  0  0  0  0  0  0  0  0  0  0
    9.6873   -3.9316    0.0000 C   0  0  0  0  0  0  0  0  0  0  0  0
    3.7418   -6.6520    0.0000 C   0  0  0  0  0  0  0  0  0  0  0  0
    4.0537   -8.1192    0.0000 C   0  0  0  0  0  0  0  0  0  0  0  0
    2.7546   -8.8692    0.0000 C   0  0  0  0  0  0  0  0  0  0  0  0
    1.6399   -7.8655    0.0000 C   0  0  0  0  0  0  0  0  0  0  0  0
    2.2500   -6.4952    0.0000 N   0  0  0  0  0  0  0  0  0  0  0  0
    1.5000   -5.1962    0.0000 S   0  0  0  0  0  0  0  0  0  0  0  0
    0.2010   -5.9462    0.0000 O   0  0  0  0  0  0  0  0  0  0  0  0
    2.7990   -4.4462    0.0000 O   0  0  0  0  0  0  0  0  0  0  0  0
    0.7500   -3.8971    0.0000 C   0  0  0  0  0  0  0  0  0  0  0  0
   -0.7500   -3.8971    0.0000 C   0  0  0  0  0  0  0  0  0  0  0  0
   -1.5000   -2.5981    0.0000 C   0  0  0  0  0  0  0  0  0  0  0  0
   -0.7500   -1.2990    0.0000 C   0  0  0  0  0  0  0  0  0  0  0  0
    0.7500   -1.2990    0.0000 C   0  0  0  0  0  0  0  0  0  0  0  0
    1.5000   -2.5981    0.0000 C   0  0  0  0  0  0  0  0  0  0  0  0
    1.5000    0.0000    0.0000 O   0  0  0  0  0  0  0  0  0  0  0  0
    0.7500    1.2990    0.0000 C   0  0  0  0  0  0  0  0  0  0  0  0
   -0.7500    1.2990    0.0000 C   0  0  0  0  0  0  0  0  0  0  0  0
   -1.5000    0.0000    0.0000 O   0  0  0  0  0  0  0  0  0  0  0  0
  1  2  2  0
  2  3  1  0
  3  4  1  0
  4  5  1  0
  5  6  2  0
  6  7  1  0
  7  8  2  0
  8  9  1  0
  9 10  1  0
 10 11  1  0
 11 12  1  0
 12 13  1  0
 13 14  1  0
 14 15  1  0
  8 16  1  0
 16 17  2  0
 18  2  1  1
 18 19  1  0
 19 20  1  0
 20 21  1  0
 21 22  1  0
 22 23  1  0
 23 24  2  0
 23 25  2  0
 23 26  1  0
 26 27  2  0
 27 28  1  0
 28 29  2  0
 29 30  1  0
 30 31  2  0
 30 32  1  0
 32 33  1  0
 33 34  1  0
 34 35  1  0
 17  5  1  0
 22 18  1  0
 31 26  1  0
 15 10  1  0
 35 29  1  0
M  CHG  1  10   1
M  END
>  <Compound_ID>  (781) 
C22382534

>  <Active>  (781) 
0.0

>  <Smiles>  (781) 
O=C(NCc1ccc(C[NH+]2CCCCC2)cc1)[C@H]1CCCN1S(=O)(=O)c1ccc2c(c1)OCCO2

>  <canonical_smi>  (781) 
O=C(NCc1ccc(C[NH+]2CCCCC2)cc1)[C@H]1CCCN1S(=O)(=O)c1ccc2c(c1)OCCO2

>  <Set>  (781) 
G2 inactive

>  <Set_type>  (781) 
Train

>  <MW>  (781) 
500.64

>  <HBD>  (781) 
2

>  <HBA>  (781) 
5

>  <NRB>  (781) 
7

>  <NR>  (781) 
5

>  <NAR>  (781) 
2

>  <PSA>  (781) 
89.38

>  <Standard Type>  (781) 
nan

>  <Standard Relation>  (781) 
nan

>  <Standard Units>  (781) 
nan

>  <Standard Value>  (781) 
nan

>  <Assay ChEMBL ID>  (781) 
nan

>  <Assay Description>  (781) 
nan

>  <BAO Label>  (781) 
nan

$$$$

     RDKit          2D

 16 18  0  0  0  0  0  0  0  0999 V2000
   -1.2135   -4.4890    0.0000 C   0  0  0  0  0  0  0  0  0  0  0  0
    0.0000   -3.6073    0.0000 C   0  0  0  0  0  0  0  0  0  0  0  0
    0.4635   -5.0339    0.0000 C   0  0  0  0  0  0  0  0  0  0  0  0
    1.9635   -5.0339    0.0000 C   0  0  0  0  0  0  0  0  0  0  0  0
    1.8067   -6.5257    0.0000 C   0  0  0  0  0  0  0  0  0  0  0  0
    3.4307   -5.3458    0.0000 O   0  0  0  0  0  0  0  0  0  0  0  0
    2.4271   -3.6073    0.0000 O   0  0  0  0  0  0  0  0  0  0  0  0
    1.2135   -2.7256    0.0000 N   0  0  0  0  0  0  0  0  0  0  0  0
    0.7500   -1.2990    0.0000 C   0  0  0  0  0  0  0  0  0  0  0  0
    1.5000    0.0000    0.0000 C   0  0  0  0  0  0  0  0  0  0  0  0
    0.7500    1.2990    0.0000 C   0  0  0  0  0  0  0  0  0  0  0  0
   -0.7500    1.2990    0.0000 C   0  0  0  0  0  0  0  0  0  0  0  0
   -1.5000    0.0000    0.0000 C   0  0  0  0  0  0  0  0  0  0  0  0
   -0.7500   -1.2990    0.0000 C   0  0  0  0  0  0  0  0  0  0  0  0
   -1.2135   -2.7256    0.0000 N   0  0  0  0  0  0  0  0  0  0  0  0
   -2.6401   -3.1891    0.0000 O   0  0  0  0  0  0  0  0  0  0  0  0
  2  1  1  6
  2  3  1  0
  3  4  1  0
  4  5  1  6
  4  6  1  0
  4  7  1  0
  7  8  1  0
  8  9  1  0
  9 10  1  1
 10 11  1  0
 11 12  1  0
 12 13  1  0
 14 13  1  1
 14 15  1  0
 15 16  1  0
  8  2  1  0
 14  9  1  0
 15  2  1  0
M  END
>  <Compound_ID>  (782) 
C00507381

>  <Active>  (782) 
0.0

>  <Smiles>  (782) 
C[C@@]12C[C@](C)(O)ON1[C@@H]1CCCC[C@@H]1N2O

>  <canonical_smi>  (782) 
C[C@@]12C[C@](C)(O)ON1[C@@H]1CCCC[C@@H]1N2O

>  <Set>  (782) 
G2 inactive

>  <Set_type>  (782) 
Train

>  <MW>  (782) 
228.29

>  <HBD>  (782) 
2

>  <HBA>  (782) 
5

>  <NRB>  (782) 
0

>  <NR>  (782) 
3

>  <NAR>  (782) 
0

>  <PSA>  (782) 
56.17

>  <Standard Type>  (782) 
nan

>  <Standard Relation>  (782) 
nan

>  <Standard Units>  (782) 
nan

>  <Standard Value>  (782) 
nan

>  <Assay ChEMBL ID>  (782) 
nan

>  <Assay Description>  (782) 
nan

>  <BAO Label>  (782) 
nan

$$$$

     RDKit          2D

 16 17  0  0  0  0  0  0  0  0999 V2000
    2.7760    0.0000    0.0000 C   0  0  0  0  0  0  0  0  0  0  0  0
    1.2760    0.0000    0.0000 C   0  0  0  0  0  0  0  0  0  0  0  0
    0.3943    1.2135    0.0000 C   0  0  0  0  0  0  0  0  0  0  0  0
   -1.0323    0.7500    0.0000 C   0  0  0  0  0  0  0  0  0  0  0  0
   -1.0323   -0.7500    0.0000 C   0  0  0  0  0  0  0  0  0  0  0  0
   -1.9140    0.4635    0.0000 C   0  0  0  0  0  0  0  0  0  0  0  0
   -3.4140    0.4635    0.0000 S   0  0  0  0  0  0  0  0  0  0  0  0
   -3.4140   -1.0365    0.0000 O   0  0  0  0  0  0  0  0  0  0  0  0
   -3.4140    1.9635    0.0000 O   0  0  0  0  0  0  0  0  0  0  0  0
   -4.9140    0.4635    0.0000 O   0  0  0  0  0  0  0  0  0  0  0  0
   -5.6640    1.7626    0.0000 N   0  0  0  0  0  0  0  0  0  0  0  0
   -1.0323    1.6771    0.0000 C   0  0  0  0  0  0  0  0  0  0  0  0
   -1.4958    3.1036    0.0000 O   0  0  0  0  0  0  0  0  0  0  0  0
    0.3943   -1.2135    0.0000 C   0  0  0  0  0  0  0  0  0  0  0  0
    1.6933   -1.9635    0.0000 C   0  0  0  0  0  0  0  0  0  0  0  0
   -0.2158   -2.5838    0.0000 C   0  0  0  0  0  0  0  0  0  0  0  0
  2  1  1  1
  2  3  1  0
  3  4  1  0
  4  5  1  0
  5  6  1  0
  6  7  1  6
  7  8  2  0
  7  9  2  0
  7 10  1  0
 10 11  1  0
  6 12  1  0
 12 13  2  0
  5 14  1  1
 14 15  1  0
 14 16  1  0
 14  2  1  0
  3 12  1  1
M  END
>  <Compound_ID>  (783) 
C19877653

>  <Active>  (783) 
0.0

>  <Smiles>  (783) 
C[C@@H]1[C@H]2C[C@H]([C@H](S(=O)(=O)ON)C2=O)C1(C)C

>  <canonical_smi>  (783) 
C[C@@H]1[C@H]2C[C@H]([C@H](S(=O)(=O)ON)C2=O)C1(C)C

>  <Set>  (783) 
G2 inactive

>  <Set_type>  (783) 
Train

>  <MW>  (783) 
247.32

>  <HBD>  (783) 
1

>  <HBA>  (783) 
5

>  <NRB>  (783) 
2

>  <NR>  (783) 
2

>  <NAR>  (783) 
0

>  <PSA>  (783) 
86.46

>  <Standard Type>  (783) 
nan

>  <Standard Relation>  (783) 
nan

>  <Standard Units>  (783) 
nan

>  <Standard Value>  (783) 
nan

>  <Assay ChEMBL ID>  (783) 
nan

>  <Assay Description>  (783) 
nan

>  <BAO Label>  (783) 
nan

$$$$

     RDKit          2D

 16 17  0  0  0  0  0  0  0  0999 V2000
    3.0000    0.0000    0.0000 C   0  0  0  0  0  0  0  0  0  0  0  0
    1.5000    0.0000    0.0000 C   0  0  0  0  0  0  0  0  0  0  0  0
    0.7500   -1.2990    0.0000 C   0  0  0  0  0  0  0  0  0  0  0  0
   -0.7500   -1.2990    0.0000 C   0  0  0  0  0  0  0  0  0  0  0  0
   -1.5000    0.0000    0.0000 C   0  0  0  0  0  0  0  0  0  0  0  0
   -0.7500    1.2990    0.0000 C   0  0  0  0  0  0  0  0  0  0  0  0
    0.7500    1.2990    0.0000 C   0  0  0  0  0  0  0  0  0  0  0  0
    1.5000    2.5981    0.0000 N   0  0  0  0  0  0  0  0  0  0  0  0
    3.0000    2.5981    0.0000 C   0  0  0  0  0  0  0  0  0  0  0  0
    3.7500    3.8971    0.0000 N   0  0  0  0  0  0  0  0  0  0  0  0
    3.0000    5.1962    0.0000 C   0  0  0  0  0  0  0  0  0  0  0  0
    3.7500    6.4952    0.0000 N   0  0  0  0  0  0  0  0  0  0  0  0
    5.2500    6.4952    0.0000 C   0  0  0  0  0  0  0  0  0  0  0  0
    6.7500    6.4952    0.0000 N   0  0  0  0  0  0  0  0  0  0  0  0
    1.5000    5.1962    0.0000 N   0  0  0  0  0  0  0  0  0  0  0  0
    0.7500    3.8971    0.0000 C   0  0  0  0  0  0  0  0  0  0  0  0
  2  1  1  1
  2  3  1  0
  3  4  1  0
  4  5  1  0
  5  6  1  0
  6  7  1  0
  7  8  1  6
  8  9  1  0
  9 10  1  0
 10 11  2  0
 11 12  1  0
 12 13  1  0
 13 14  3  0
 11 15  1  0
 15 16  1  0
  7  2  1  0
 16  8  1  0
M  END
>  <Compound_ID>  (784) 
C19330790

>  <Active>  (784) 
0.0

>  <Smiles>  (784) 
C[C@H]1CCCC[C@@H]1N1CN=C(NC#N)NC1

>  <canonical_smi>  (784) 
C[C@H]1CCCC[C@@H]1N1CN=C(NC#N)NC1

>  <Set>  (784) 
G2 inactive

>  <Set_type>  (784) 
Train

>  <MW>  (784) 
221.31

>  <HBD>  (784) 
2

>  <HBA>  (784) 
4

>  <NRB>  (784) 
1

>  <NR>  (784) 
2

>  <NAR>  (784) 
0

>  <PSA>  (784) 
63.45

>  <Standard Type>  (784) 
nan

>  <Standard Relation>  (784) 
nan

>  <Standard Units>  (784) 
nan

>  <Standard Value>  (784) 
nan

>  <Assay ChEMBL ID>  (784) 
nan

>  <Assay Description>  (784) 
nan

>  <BAO Label>  (784) 
nan

$$$$

     RDKit          2D

 16 17  0  0  0  0  0  0  0  0999 V2000
    4.8308   -6.3240    0.0000 C   0  0  0  0  0  0  0  0  0  0  0  0
    4.6740   -4.8322    0.0000 C   0  0  0  0  0  0  0  0  0  0  0  0
    3.3037   -4.2221    0.0000 C   0  0  0  0  0  0  0  0  0  0  0  0
    2.9918   -2.7549    0.0000 C   0  0  0  0  0  0  0  0  0  0  0  0
    3.9955   -1.6402    0.0000 O   0  0  0  0  0  0  0  0  0  0  0  0
    1.5000   -2.5981    0.0000 N   0  0  0  0  0  0  0  0  0  0  0  0
    0.7500   -1.2990    0.0000 C   0  0  0  0  0  0  0  0  0  0  0  0
    1.5000    0.0000    0.0000 C   0  0  0  0  0  0  0  0  0  0  0  0
    0.7500    1.2990    0.0000 C   0  0  0  0  0  0  0  0  0  0  0  0
   -0.7500    1.2990    0.0000 C   0  0  0  0  0  0  0  0  0  0  0  0
   -1.5000    2.5981    0.0000 N   0  0  0  0  0  0  0  0  0  0  0  0
   -1.5000    0.0000    0.0000 C   0  0  0  0  0  0  0  0  0  0  0  0
   -0.7500   -1.2990    0.0000 N   0  0  0  0  0  0  0  0  0  0  0  0
    0.8899   -3.9684    0.0000 N   0  0  0  0  0  0  0  0  0  0  0  0
    2.0046   -4.9721    0.0000 C   0  0  0  0  0  0  0  0  0  0  0  0
    1.8478   -6.4639    0.0000 C   0  0  0  0  0  0  0  0  0  0  0  0
  1  2  1  0
  3  2  1  6
  3  4  1  0
  4  5  2  0
  4  6  1  0
  6  7  1  0
  7  8  2  0
  8  9  1  0
  9 10  2  0
 10 11  1  0
 10 12  1  0
 12 13  2  0
  6 14  1  0
 14 15  2  0
 15 16  1  0
 15  3  1  0
 13  7  1  0
M  END
>  <Compound_ID>  (785) 
C38004134

>  <Active>  (785) 
0.0

>  <Smiles>  (785) 
CC[C@H]1C(=O)N(c2ccc(N)cn2)N=C1C

>  <canonical_smi>  (785) 
CC[C@H]1C(=O)N(c2ccc(N)cn2)N=C1C

>  <Set>  (785) 
G2 inactive

>  <Set_type>  (785) 
Train

>  <MW>  (785) 
218.26

>  <HBD>  (785) 
1

>  <HBA>  (785) 
3

>  <NRB>  (785) 
2

>  <NR>  (785) 
2

>  <NAR>  (785) 
1

>  <PSA>  (785) 
71.58

>  <Standard Type>  (785) 
nan

>  <Standard Relation>  (785) 
nan

>  <Standard Units>  (785) 
nan

>  <Standard Value>  (785) 
nan

>  <Assay ChEMBL ID>  (785) 
nan

>  <Assay Description>  (785) 
nan

>  <BAO Label>  (785) 
nan

$$$$

     RDKit          2D

 15 16  0  0  0  0  0  0  0  0999 V2000
    5.7760   -2.5981    0.0000 C   0  0  0  0  0  0  0  0  0  0  0  0
    5.0260   -1.2990    0.0000 C   0  0  0  0  0  0  0  0  0  0  0  0
    5.7760    0.0000    0.0000 O   0  0  0  0  0  0  0  0  0  0  0  0
    3.5260   -1.2990    0.0000 N   0  0  0  0  0  0  0  0  0  0  0  0
    2.7760    0.0000    0.0000 N   0  0  0  0  0  0  0  0  0  0  0  0
    1.2760    0.0000    0.0000 C   0  0  0  0  0  0  0  0  0  0  0  0
    0.3943    1.2135    0.0000 N   0  0  0  0  0  0  0  0  0  0  0  0
   -1.0323    0.7500    0.0000 C   0  0  0  0  0  0  0  0  0  0  0  0
   -2.4589    1.2135    0.0000 C   0  0  0  0  0  0  0  0  0  0  0  0
   -3.3405    0.0000    0.0000 S   0  0  0  0  0  0  0  0  0  0  0  0
   -4.4553    1.0037    0.0000 O   0  0  0  0  0  0  0  0  0  0  0  0
   -4.4553   -1.0037    0.0000 O   0  0  0  0  0  0  0  0  0  0  0  0
   -2.4589   -1.2135    0.0000 C   0  0  0  0  0  0  0  0  0  0  0  0
   -1.0323   -0.7500    0.0000 C   0  0  0  0  0  0  0  0  0  0  0  0
    0.3943   -1.2135    0.0000 S   0  0  0  0  0  0  0  0  0  0  0  0
  1  2  1  0
  2  3  2  0
  2  4  1  0
  4  5  1  0
  5  6  1  0
  6  7  2  0
  7  8  1  0
  8  9  1  6
  9 10  1  0
 10 11  2  0
 10 12  2  0
 10 13  1  0
 14 13  1  6
 14 15  1  0
 15  6  1  0
 14  8  1  0
M  END
>  <Compound_ID>  (786) 
C05226402

>  <Active>  (786) 
0.0

>  <Smiles>  (786) 
CC(=O)NNC1=N[C@H]2CS(=O)(=O)C[C@H]2S1

>  <canonical_smi>  (786) 
CC(=O)NNC1=N[C@H]2CS(=O)(=O)C[C@H]2S1

>  <Set>  (786) 
G2 inactive

>  <Set_type>  (786) 
Train

>  <MW>  (786) 
249.32

>  <HBD>  (786) 
2

>  <HBA>  (786) 
5

>  <NRB>  (786) 
0

>  <NR>  (786) 
2

>  <NAR>  (786) 
0

>  <PSA>  (786) 
87.63

>  <Standard Type>  (786) 
nan

>  <Standard Relation>  (786) 
nan

>  <Standard Units>  (786) 
nan

>  <Standard Value>  (786) 
nan

>  <Assay ChEMBL ID>  (786) 
nan

>  <Assay Description>  (786) 
nan

>  <BAO Label>  (786) 
nan

$$$$

     RDKit          2D

 16 17  0  0  0  0  0  0  0  0999 V2000
    3.0000    0.0000    0.0000 C   0  0  0  0  0  0  0  0  0  0  0  0
    1.5000    0.0000    0.0000 N   0  0  0  0  0  0  0  0  0  0  0  0
    0.7500   -1.2990    0.0000 C   0  0  0  0  0  0  0  0  0  0  0  0
   -0.7500   -1.2990    0.0000 C   0  0  0  0  0  0  0  0  0  0  0  0
   -1.5000    0.0000    0.0000 N   0  0  0  0  0  0  0  0  0  0  0  0
   -0.7500    1.2990    0.0000 C   0  0  0  0  0  0  0  0  0  0  0  0
   -1.5000    2.5981    0.0000 N   0  0  0  0  0  0  0  0  0  0  0  0
   -2.9918    2.7549    0.0000 C   0  0  0  0  0  0  0  0  0  0  0  0
   -3.3037    4.2221    0.0000 N   0  0  0  0  0  0  0  0  0  0  0  0
   -2.0046    4.9721    0.0000 C   0  0  0  0  0  0  0  0  0  0  0  0
   -1.8478    6.4639    0.0000 C   0  0  0  0  0  0  0  0  0  0  0  0
   -0.4775    7.0740    0.0000 N   0  0  0  0  0  0  0  0  0  0  0  0
   -3.0613    7.3456    0.0000 S   0  0  0  0  0  0  0  0  0  0  0  0
   -0.8899    3.9684    0.0000 N   0  0  0  0  0  0  0  0  0  0  0  0
    0.7500    1.2990    0.0000 C   0  0  0  0  0  0  0  0  0  0  0  0
    1.5000    2.5981    0.0000 O   0  0  0  0  0  0  0  0  0  0  0  0
  1  2  1  0
  2  3  1  0
  3  4  2  0
  4  5  1  0
  5  6  2  0
  6  7  1  0
  7  8  1  0
  8  9  2  0
  9 10  1  0
 10 11  1  0
 11 12  1  0
 11 13  2  0
 10 14  2  0
  6 15  1  0
 15 16  2  0
 15  2  1  0
 14  7  1  0
M  END
>  <Compound_ID>  (787) 
C61843580

>  <Active>  (787) 
0.0

>  <Smiles>  (787) 
Cn1ccnc(-n2cnc(C(N)=S)n2)c1=O

>  <canonical_smi>  (787) 
Cn1ccnc(-n2cnc(C(N)=S)n2)c1=O

>  <Set>  (787) 
G2 inactive

>  <Set_type>  (787) 
Train

>  <MW>  (787) 
236.26

>  <HBD>  (787) 
1

>  <HBA>  (787) 
6

>  <NRB>  (787) 
2

>  <NR>  (787) 
2

>  <NAR>  (787) 
2

>  <PSA>  (787) 
91.62

>  <Standard Type>  (787) 
nan

>  <Standard Relation>  (787) 
nan

>  <Standard Units>  (787) 
nan

>  <Standard Value>  (787) 
nan

>  <Assay ChEMBL ID>  (787) 
nan

>  <Assay Description>  (787) 
nan

>  <BAO Label>  (787) 
nan

$$$$

     RDKit          2D

 32 36  0  0  0  0  0  0  0  0999 V2000
    3.9713   -6.1256    0.0000 C   0  0  0  0  0  0  0  0  0  0  0  0
    2.4787   -6.2750    0.0000 C   0  0  0  0  0  0  0  0  0  0  0  0
    2.8850   -7.7189    0.0000 C   0  0  0  0  0  0  0  0  0  0  0  0
    1.1273   -6.9258    0.0000 C   0  0  0  0  0  0  0  0  0  0  0  0
   -0.1121   -6.0808    0.0000 C   0  0  0  0  0  0  0  0  0  0  0  0
   -1.4635   -6.7316    0.0000 O   0  0  0  0  0  0  0  0  0  0  0  0
    0.0000   -4.5850    0.0000 C   0  0  0  0  0  0  0  0  0  0  0  0
    1.3515   -3.9342    0.0000 C   0  0  0  0  0  0  0  0  0  0  0  0
    2.5908   -4.7792    0.0000 C   0  0  0  0  0  0  0  0  0  0  0  0
    1.6852   -2.4718    0.0000 N   0  0  0  0  0  0  0  0  0  0  0  0
    0.7500   -1.2990    0.0000 C   0  0  0  0  0  0  0  0  0  0  0  0
    1.5000    0.0000    0.0000 C   0  0  0  0  0  0  0  0  0  0  0  0
    0.7500    1.2990    0.0000 C   0  0  0  0  0  0  0  0  0  0  0  0
   -0.7500    1.2990    0.0000 C   0  0  0  0  0  0  0  0  0  0  0  0
   -1.5000    0.0000    0.0000 C   0  0  0  0  0  0  0  0  0  0  0  0
   -0.7500   -1.2990    0.0000 C   0  0  0  0  0  0  0  0  0  0  0  0
   -1.6852   -2.4718    0.0000 N   0  0  0  0  0  0  0  0  0  0  0  0
   -3.1476   -2.1380    0.0000 S   0  0  0  0  0  0  0  0  0  0  0  0
   -3.4814   -3.6004    0.0000 O   0  0  0  0  0  0  0  0  0  0  0  0
   -2.8138   -0.6756    0.0000 O   0  0  0  0  0  0  0  0  0  0  0  0
   -4.6100   -1.8042    0.0000 C   0  0  0  0  0  0  0  0  0  0  0  0
   -5.0522   -0.3709    0.0000 C   0  0  0  0  0  0  0  0  0  0  0  0
   -6.5145   -0.0371    0.0000 C   0  0  0  0  0  0  0  0  0  0  0  0
   -7.5348   -1.1367    0.0000 C   0  0  0  0  0  0  0  0  0  0  0  0
   -7.0927   -2.5700    0.0000 C   0  0  0  0  0  0  0  0  0  0  0  0
   -5.6303   -2.9038    0.0000 C   0  0  0  0  0  0  0  0  0  0  0  0
   -1.3515   -3.9342    0.0000 C   0  0  0  0  0  0  0  0  0  0  0  0
   -2.5242   -4.8694    0.0000 C   0  0  0  0  0  0  0  0  0  0  0  0
   -2.4569   -6.3679    0.0000 C   0  0  0  0  0  0  0  0  0  0  0  0
   -3.8613   -6.8950    0.0000 C   0  0  0  0  0  0  0  0  0  0  0  0
   -4.7965   -5.7222    0.0000 C   0  0  0  0  0  0  0  0  0  0  0  0
   -3.9701   -4.4704    0.0000 O   0  0  0  0  0  0  0  0  0  0  0  0
  1  2  1  0
  2  3  1  0
  2  4  1  0
  4  5  1  0
  5  6  2  0
  5  7  1  0
  7  8  2  0
  8  9  1  0
  8 10  1  0
 10 11  1  0
 11 12  2  0
 12 13  1  0
 13 14  2  0
 14 15  1  0
 15 16  2  0
 16 17  1  0
 17 18  1  0
 18 19  2  0
 18 20  2  0
 18 21  1  0
 21 22  2  0
 22 23  1  0
 23 24  2  0
 24 25  1  0
 25 26  2  0
 17 27  1  0
 27 28  1  1
 28 29  2  0
 29 30  1  0
 30 31  2  0
 31 32  1  0
  9  2  1  0
 16 11  1  0
 26 21  1  0
 32 28  1  0
 27  7  1  0
M  END
>  <Compound_ID>  (788) 
C21722795

>  <Active>  (788) 
0.0

>  <Smiles>  (788) 
CC1(C)CC(=O)C2=C(C1)Nc1ccccc1N(S(=O)(=O)c1ccccc1)[C@@H]2c1ccco1

>  <canonical_smi>  (788) 
CC1(C)CC(=O)C2=C(C1)Nc1ccccc1N(S(=O)(=O)c1ccccc1)[C@@H]2c1ccco1

>  <Set>  (788) 
G2 inactive

>  <Set_type>  (788) 
Train

>  <MW>  (788) 
448.54

>  <HBD>  (788) 
1

>  <HBA>  (788) 
5

>  <NRB>  (788) 
3

>  <NR>  (788) 
5

>  <NAR>  (788) 
3

>  <PSA>  (788) 
79.62

>  <Standard Type>  (788) 
nan

>  <Standard Relation>  (788) 
nan

>  <Standard Units>  (788) 
nan

>  <Standard Value>  (788) 
nan

>  <Assay ChEMBL ID>  (788) 
nan

>  <Assay Description>  (788) 
nan

>  <BAO Label>  (788) 
nan

$$$$

     RDKit          2D

 25 27  0  0  0  0  0  0  0  0999 V2000
    6.0818    5.7569    0.0000 C   0  0  0  0  0  0  0  0  0  0  0  0
    4.8683    4.8752    0.0000 C   0  0  0  0  0  0  0  0  0  0  0  0
    3.4979    5.4853    0.0000 S   0  0  0  0  0  0  0  0  0  0  0  0
    2.2844    4.6036    0.0000 C   0  0  0  0  0  0  0  0  0  0  0  0
    0.8578    5.0672    0.0000 N   0  0  0  0  0  0  0  0  0  0  0  0
   -0.0239    3.8536    0.0000 N   0  0  0  0  0  0  0  0  0  0  0  0
    0.8578    2.6401    0.0000 C   0  0  0  0  0  0  0  0  0  0  0  0
    0.3943    1.2135    0.0000 N   0  0  0  0  0  0  0  0  0  0  0  0
    1.2760    0.0000    0.0000 C   0  0  0  0  0  0  0  0  0  0  0  0
    2.7760    0.0000    0.0000 O   0  0  0  0  0  0  0  0  0  0  0  0
    0.3943   -1.2135    0.0000 C   0  0  0  0  0  0  0  0  0  0  0  0
    0.7062   -2.6807    0.0000 C   0  0  0  0  0  0  0  0  0  0  0  0
    2.1328   -3.1443    0.0000 Cl  0  0  0  0  0  0  0  0  0  0  0  0
   -0.4086   -3.6844    0.0000 C   0  0  0  0  0  0  0  0  0  0  0  0
   -0.0967   -5.1517    0.0000 Cl  0  0  0  0  0  0  0  0  0  0  0  0
   -1.8351   -3.2209    0.0000 C   0  0  0  0  0  0  0  0  0  0  0  0
   -2.9499   -4.2246    0.0000 Cl  0  0  0  0  0  0  0  0  0  0  0  0
   -2.1470   -1.7537    0.0000 C   0  0  0  0  0  0  0  0  0  0  0  0
   -3.5736   -1.2902    0.0000 Cl  0  0  0  0  0  0  0  0  0  0  0  0
   -1.0323   -0.7500    0.0000 C   0  0  0  0  0  0  0  0  0  0  0  0
   -1.0323    0.7500    0.0000 C   0  0  0  0  0  0  0  0  0  0  0  0
   -2.2458    1.6317    0.0000 O   0  0  0  0  0  0  0  0  0  0  0  0
    2.2844    3.1036    0.0000 C   0  0  0  0  0  0  0  0  0  0  0  0
    3.4979    2.2220    0.0000 C   0  0  0  0  0  0  0  0  0  0  0  0
    4.7115    1.3403    0.0000 N   0  0  0  0  0  0  0  0  0  0  0  0
  1  2  1  0
  2  3  1  0
  3  4  1  0
  4  5  2  0
  5  6  1  0
  6  7  1  0
  7  8  1  0
  8  9  1  0
  9 10  2  0
  9 11  1  0
 11 12  2  0
 12 13  1  0
 12 14  1  0
 14 15  1  0
 14 16  2  0
 16 17  1  0
 16 18  1  0
 18 19  1  0
 18 20  2  0
 20 21  1  0
 21 22  2  0
  7 23  2  0
 23 24  1  0
 24 25  3  0
 23  4  1  0
 21  8  1  0
 20 11  1  0
M  END
>  <Compound_ID>  (789) 
C08847609

>  <Active>  (789) 
0.0

>  <Smiles>  (789) 
CCSc1n[nH]c(N2C(=O)c3c(Cl)c(Cl)c(Cl)c(Cl)c3C2=O)c1C#N

>  <canonical_smi>  (789) 
CCSc1n[nH]c(N2C(=O)c3c(Cl)c(Cl)c(Cl)c(Cl)c3C2=O)c1C#N

>  <Set>  (789) 
G2 inactive

>  <Set_type>  (789) 
Train

>  <MW>  (789) 
436.11

>  <HBD>  (789) 
1

>  <HBA>  (789) 
5

>  <NRB>  (789) 
3

>  <NR>  (789) 
3

>  <NAR>  (789) 
2

>  <PSA>  (789) 
89.85

>  <Standard Type>  (789) 
nan

>  <Standard Relation>  (789) 
nan

>  <Standard Units>  (789) 
nan

>  <Standard Value>  (789) 
nan

>  <Assay ChEMBL ID>  (789) 
nan

>  <Assay Description>  (789) 
nan

>  <BAO Label>  (789) 
nan

$$$$

     RDKit          2D

 31 36  0  0  0  0  0  0  0  0999 V2000
    5.3507   -2.2911    0.0000 N   0  0  0  0  0  0  0  0  0  0  0  0
    3.8554   -2.4087    0.0000 C   0  0  0  0  0  0  0  0  0  0  0  0
    2.3600   -2.5264    0.0000 C   0  0  0  0  0  0  0  0  0  0  0  0
    1.5762   -3.8054    0.0000 C   0  0  0  0  0  0  0  0  0  0  0  0
    2.1503   -5.1912    0.0000 N   0  0  0  0  0  0  0  0  0  0  0  0
    1.2371   -6.3812    0.0000 C   0  0  0  0  0  0  0  0  0  0  0  0
   -0.2500   -6.1854    0.0000 O   0  0  0  0  0  0  0  0  0  0  0  0
    1.8112   -7.7671    0.0000 C   0  0  0  0  0  0  0  0  0  0  0  0
    0.8980   -8.9571    0.0000 C   0  0  0  0  0  0  0  0  0  0  0  0
    1.4720  -10.3429    0.0000 C   0  0  0  0  0  0  0  0  0  0  0  0
    2.9592  -10.5387    0.0000 C   0  0  0  0  0  0  0  0  0  0  0  0
    3.8723   -9.3487    0.0000 C   0  0  0  0  0  0  0  0  0  0  0  0
    3.2983   -7.9628    0.0000 C   0  0  0  0  0  0  0  0  0  0  0  0
    0.7967   -8.1873    0.0000 C   0  0  0  0  0  0  0  0  0  0  0  0
   -0.5892   -8.7613    0.0000 C   0  0  0  0  0  0  0  0  0  0  0  0
   -2.0763   -8.5655    0.0000 N   0  0  0  0  0  0  0  0  0  0  0  0
   -3.1089   -9.6536    0.0000 C   0  0  0  0  0  0  0  0  0  0  0  0
   -4.4627   -9.0078    0.0000 N   0  0  0  0  0  0  0  0  0  0  0  0
   -4.2669   -7.5206    0.0000 C   0  0  0  0  0  0  0  0  0  0  0  0
   -2.7921   -7.2473    0.0000 N   0  0  0  0  0  0  0  0  0  0  0  0
   -0.0151  -10.1471    0.0000 C   0  0  0  0  0  0  0  0  0  0  0  0
    0.3240   -7.5713    0.0000 C   0  0  0  0  0  0  0  0  0  0  0  0
    0.1177   -3.4552    0.0000 S   0  0  0  0  0  0  0  0  0  0  0  0
   -0.0000   -1.9598    0.0000 C   0  0  0  0  0  0  0  0  0  0  0  0
    1.3858   -1.3858    0.0000 C   0  0  0  0  0  0  0  0  0  0  0  0
    1.9598    0.0000    0.0000 C   0  0  0  0  0  0  0  0  0  0  0  0
    1.3858    1.3858    0.0000 C   0  0  0  0  0  0  0  0  0  0  0  0
    0.0000    1.9598    0.0000 C   0  0  0  0  0  0  0  0  0  0  0  0
   -1.3858    1.3858    0.0000 C   0  0  0  0  0  0  0  0  0  0  0  0
   -1.9598    0.0000    0.0000 C   0  0  0  0  0  0  0  0  0  0  0  0
   -1.3858   -1.3858    0.0000 C   0  0  0  0  0  0  0  0  0  0  0  0
  1  2  3  0
  2  3  1  0
  3  4  2  0
  4  5  1  0
  5  6  1  0
  6  7  2  0
  6  8  1  0
  8  9  1  0
 10  9  1  6
 10 11  1  0
 12 11  1  6
 12 13  1  0
 12 14  1  0
 14 15  1  0
 15 16  1  0
 16 17  1  0
 17 18  2  0
 18 19  1  0
 19 20  2  0
 15 21  1  0
 15 22  1  0
  4 23  1  0
 23 24  1  0
 24 25  2  0
 25 26  1  0
 26 27  1  0
 27 28  1  0
 28 29  1  0
 29 30  1  0
 30 31  1  0
 25  3  1  0
 13  8  1  0
 20 16  1  0
 31 24  1  0
 22  8  1  0
 21 10  1  0
M  END
>  <Compound_ID>  (790) 
C27489340

>  <Active>  (790) 
0.0

>  <Smiles>  (790) 
N#Cc1c(NC(=O)C23C[C@H]4C[C@@H](C2)CC(n2cncn2)(C4)C3)sc2c1CCCCCC2

>  <canonical_smi>  (790) 
N#Cc1c(NC(=O)C23C[C@@H]4C[C@H](C2)CC(n2cncn2)(C4)C3)sc2c1CCCCCC2

>  <Set>  (790) 
G2 inactive

>  <Set_type>  (790) 
Train

>  <MW>  (790) 
435.6

>  <HBD>  (790) 
1

>  <HBA>  (790) 
4

>  <NRB>  (790) 
3

>  <NR>  (790) 
7

>  <NAR>  (790) 
2

>  <PSA>  (790) 
83.6

>  <Standard Type>  (790) 
nan

>  <Standard Relation>  (790) 
nan

>  <Standard Units>  (790) 
nan

>  <Standard Value>  (790) 
nan

>  <Assay ChEMBL ID>  (790) 
nan

>  <Assay Description>  (790) 
nan

>  <BAO Label>  (790) 
nan

$$$$

     RDKit          2D

 32 37  0  0  0  0  0  0  0  0999 V2000
    3.0000  -10.3923    0.0000 C   0  0  0  0  0  0  0  0  0  0  0  0
    3.7500   -9.0933    0.0000 C   0  0  0  0  0  0  0  0  0  0  0  0
    5.2500   -9.0933    0.0000 C   0  0  0  0  0  0  0  0  0  0  0  0
    3.0000   -7.7942    0.0000 C   0  0  0  0  0  0  0  0  0  0  0  0
    3.7500   -6.4952    0.0000 C   0  0  0  0  0  0  0  0  0  0  0  0
    3.0000   -5.1962    0.0000 C   0  0  0  0  0  0  0  0  0  0  0  0
    1.5000   -5.1962    0.0000 C   0  0  0  0  0  0  0  0  0  0  0  0
    0.7500   -3.8971    0.0000 C   0  0  0  0  0  0  0  0  0  0  0  0
    1.5000   -2.5981    0.0000 O   0  0  0  0  0  0  0  0  0  0  0  0
    0.7500   -1.2990    0.0000 C   0  0  0  0  0  0  0  0  0  0  0  0
    1.5000    0.0000    0.0000 C   0  0  0  0  0  0  0  0  0  0  0  0
    0.7500    1.2990    0.0000 C   0  0  0  0  0  0  0  0  0  0  0  0
   -0.7500    1.2990    0.0000 C   0  0  0  0  0  0  0  0  0  0  0  0
   -1.5000    0.0000    0.0000 C   0  0  0  0  0  0  0  0  0  0  0  0
   -0.7500   -1.2990    0.0000 C   0  0  0  0  0  0  0  0  0  0  0  0
   -1.5000   -2.5981    0.0000 C   0  0  0  0  0  0  0  0  0  0  0  0
   -0.7500   -3.8971    0.0000 C   0  0  0  0  0  0  0  0  0  0  0  0
   -1.5000   -5.1962    0.0000 C   0  0  0  0  0  0  0  0  0  0  0  0
   -0.7500   -6.4952    0.0000 C   0  0  0  0  0  0  0  0  0  0  0  0
   -1.5000   -7.7942    0.0000 C   0  0  0  0  0  0  0  0  0  0  0  0
   -0.7500   -9.0933    0.0000 C   0  0  0  0  0  0  0  0  0  0  0  0
    0.7500   -9.0933    0.0000 C   0  0  0  0  0  0  0  0  0  0  0  0
    1.5000   -7.7942    0.0000 N   0  0  0  0  0  0  0  0  0  0  0  0
    0.7500   -6.4952    0.0000 C   0  0  0  0  0  0  0  0  0  0  0  0
   -3.0000   -5.1962    0.0000 N   0  0  0  0  0  0  0  0  0  0  0  0
   -4.0037   -6.3109    0.0000 N   0  0  0  0  0  0  0  0  0  0  0  0
   -5.3740   -5.7008    0.0000 C   0  0  0  0  0  0  0  0  0  0  0  0
   -5.2172   -4.2090    0.0000 N   0  0  0  0  0  0  0  0  0  0  0  0
   -3.7500   -3.8971    0.0000 C   0  0  0  0  0  0  0  0  0  0  0  0
   -3.0000   -2.5981    0.0000 N   0  0  0  0  0  0  0  0  0  0  0  0
    0.7500   -6.4952    0.0000 C   0  0  0  0  0  0  0  0  0  0  0  0
    1.5000   -7.7942    0.0000 C   0  0  0  0  0  0  0  0  0  0  0  0
  1  2  1  0
  2  3  1  0
  2  4  1  0
  4  5  2  0
  5  6  1  0
  6  7  2  0
  8  7  1  6
  8  9  1  0
  9 10  1  0
 10 11  2  0
 11 12  1  0
 12 13  2  0
 13 14  1  0
 14 15  2  0
 15 16  1  0
 16 17  2  0
 17 18  1  0
 18 19  1  6
 19 20  2  0
 20 21  1  0
 21 22  2  0
 22 23  1  0
 23 24  2  0
 18 25  1  0
 25 26  1  0
 26 27  2  0
 27 28  1  0
 28 29  1  0
 29 30  2  0
  7 31  1  0
 31 32  2  0
 32  4  1  0
 17  8  1  0
 24 19  1  0
 29 25  1  0
 15 10  1  0
 30 16  1  0
M  END
>  <Compound_ID>  (791) 
C13213824

>  <Active>  (791) 
0.0

>  <Smiles>  (791) 
CC(C)c1ccc([C@H]2Oc3ccccc3C3=C2[C@H](c2cccnc2)N2N=CNC2=N3)cc1

>  <canonical_smi>  (791) 
CC(C)c1ccc([C@H]2Oc3ccccc3C3=C2[C@H](c2cccnc2)N2N=CNC2=N3)cc1

>  <Set>  (791) 
G2 inactive

>  <Set_type>  (791) 
Train

>  <MW>  (791) 
421.5

>  <HBD>  (791) 
1

>  <HBA>  (791) 
4

>  <NRB>  (791) 
3

>  <NR>  (791) 
6

>  <NAR>  (791) 
3

>  <PSA>  (791) 
62.11

>  <Standard Type>  (791) 
nan

>  <Standard Relation>  (791) 
nan

>  <Standard Units>  (791) 
nan

>  <Standard Value>  (791) 
nan

>  <Assay ChEMBL ID>  (791) 
nan

>  <Assay Description>  (791) 
nan

>  <BAO Label>  (791) 
nan

$$$$

     RDKit          2D

 25 28  0  0  0  0  0  0  0  0999 V2000
   -3.0000   -2.5981    0.0000 O   0  0  0  0  0  0  0  0  0  0  0  0
   -1.5000   -2.5981    0.0000 C   0  0  0  0  0  0  0  0  0  0  0  0
   -0.7500   -3.8971    0.0000 C   0  0  0  0  0  0  0  0  0  0  0  0
    0.7500   -3.8971    0.0000 C   0  0  0  0  0  0  0  0  0  0  0  0
    1.5000   -5.1962    0.0000 N   0  0  0  0  0  0  0  0  0  0  0  0
    0.7500   -6.4952    0.0000 C   0  0  0  0  0  0  0  0  0  0  0  0
    1.5000   -7.7942    0.0000 C   0  0  0  0  0  0  0  0  0  0  0  0
    2.9918   -7.9510    0.0000 C   0  0  0  0  0  0  0  0  0  0  0  0
    3.3037   -9.4182    0.0000 C   0  0  0  0  0  0  0  0  0  0  0  0
    2.0046  -10.1682    0.0000 C   0  0  0  0  0  0  0  0  0  0  0  0
    1.8478  -11.6600    0.0000 C   0  0  0  0  0  0  0  0  0  0  0  0
    0.4775  -12.2701    0.0000 C   0  0  0  0  0  0  0  0  0  0  0  0
    0.3207  -13.7619    0.0000 C   0  0  0  0  0  0  0  0  0  0  0  0
    1.5342  -14.6436    0.0000 C   0  0  0  0  0  0  0  0  0  0  0  0
    1.3774  -16.1354    0.0000 Cl  0  0  0  0  0  0  0  0  0  0  0  0
    2.9046  -14.0335    0.0000 C   0  0  0  0  0  0  0  0  0  0  0  0
    3.0613  -12.5417    0.0000 C   0  0  0  0  0  0  0  0  0  0  0  0
    0.8899   -9.1645    0.0000 O   0  0  0  0  0  0  0  0  0  0  0  0
    1.5000   -2.5981    0.0000 N   0  0  0  0  0  0  0  0  0  0  0  0
    0.7500   -1.2990    0.0000 C   0  0  0  0  0  0  0  0  0  0  0  0
    1.5000    0.0000    0.0000 C   0  0  0  0  0  0  0  0  0  0  0  0
    0.7500    1.2990    0.0000 C   0  0  0  0  0  0  0  0  0  0  0  0
   -0.7500    1.2990    0.0000 C   0  0  0  0  0  0  0  0  0  0  0  0
   -1.5000    0.0000    0.0000 C   0  0  0  0  0  0  0  0  0  0  0  0
   -0.7500   -1.2990    0.0000 N   0  0  0  0  0  0  0  0  0  0  0  0
  1  2  2  0
  2  3  1  0
  3  4  2  0
  4  5  1  0
  5  6  1  0
  6  7  1  0
  7  8  2  0
  8  9  1  0
  9 10  2  0
 10 11  1  0
 11 12  2  0
 12 13  1  0
 13 14  2  0
 14 15  1  0
 14 16  1  0
 16 17  2  0
 10 18  1  0
  4 19  1  0
 19 20  2  0
 20 21  1  0
 21 22  2  0
 22 23  1  0
 23 24  2  0
 24 25  1  0
 25  2  1  0
 18  7  1  0
 25 20  1  0
 17 11  1  0
M  END
>  <Compound_ID>  (792) 
C10993562

>  <Active>  (792) 
0.0

>  <Smiles>  (792) 
O=c1cc(NCc2ccc(-c3ccc(Cl)cc3)o2)nc2ccccn12

>  <canonical_smi>  (792) 
O=c1cc(NCc2ccc(-c3ccc(Cl)cc3)o2)nc2ccccn12

>  <Set>  (792) 
G2 inactive

>  <Set_type>  (792) 
Train

>  <MW>  (792) 
351.79

>  <HBD>  (792) 
1

>  <HBA>  (792) 
4

>  <NRB>  (792) 
4

>  <NR>  (792) 
4

>  <NAR>  (792) 
4

>  <PSA>  (792) 
59.54

>  <Standard Type>  (792) 
nan

>  <Standard Relation>  (792) 
nan

>  <Standard Units>  (792) 
nan

>  <Standard Value>  (792) 
nan

>  <Assay ChEMBL ID>  (792) 
nan

>  <Assay Description>  (792) 
nan

>  <BAO Label>  (792) 
nan

$$$$

     RDKit          2D

 25 28  0  0  0  0  0  0  0  0999 V2000
   -3.7527    6.6955    0.0000 C   0  0  0  0  0  0  0  0  0  0  0  0
   -2.6380    5.6918    0.0000 O   0  0  0  0  0  0  0  0  0  0  0  0
   -2.9499    4.2246    0.0000 C   0  0  0  0  0  0  0  0  0  0  0  0
   -4.3764    3.7611    0.0000 C   0  0  0  0  0  0  0  0  0  0  0  0
   -4.6883    2.2939    0.0000 C   0  0  0  0  0  0  0  0  0  0  0  0
   -3.5736    1.2902    0.0000 C   0  0  0  0  0  0  0  0  0  0  0  0
   -3.8855   -0.1771    0.0000 N   0  0  0  0  0  4  0  0  0  0  0  0
   -2.7707   -1.1807    0.0000 O   0  0  0  0  0  0  0  0  0  0  0  0
   -5.3120   -0.6406    0.0000 O   0  0  0  0  0  1  0  0  0  0  0  0
   -2.1470    1.7537    0.0000 C   0  0  0  0  0  0  0  0  0  0  0  0
   -1.8351    3.2209    0.0000 C   0  0  0  0  0  0  0  0  0  0  0  0
   -0.4086    3.6844    0.0000 N   0  0  0  0  0  0  0  0  0  0  0  0
    0.7062    2.6807    0.0000 C   0  0  0  0  0  0  0  0  0  0  0  0
    2.1328    3.1443    0.0000 C   0  0  0  0  0  0  0  0  0  0  0  0
    3.2475    2.1406    0.0000 C   0  0  0  0  0  0  0  0  0  0  0  0
    4.6741    2.6041    0.0000 C   0  0  0  0  0  0  0  0  0  0  0  0
    4.9859    4.0713    0.0000 C   0  0  0  0  0  0  0  0  0  0  0  0
    3.8712    5.0750    0.0000 C   0  0  0  0  0  0  0  0  0  0  0  0
    2.4446    4.6115    0.0000 C   0  0  0  0  0  0  0  0  0  0  0  0
    1.3299    5.6152    0.0000 Cl  0  0  0  0  0  0  0  0  0  0  0  0
    0.3943    1.2135    0.0000 C   0  0  0  0  0  0  0  0  0  0  0  0
    1.2760    0.0000    0.0000 C   0  0  0  0  0  0  0  0  0  0  0  0
    0.3943   -1.2135    0.0000 C   0  0  0  0  0  0  0  0  0  0  0  0
   -1.0323   -0.7500    0.0000 C   0  0  0  0  0  0  0  0  0  0  0  0
   -1.0323    0.7500    0.0000 C   0  0  0  0  0  0  0  0  0  0  0  0
  1  2  1  0
  2  3  1  0
  3  4  2  0
  4  5  1  0
  5  6  2  0
  6  7  1  0
  7  8  2  0
  7  9  1  0
  6 10  1  0
 10 11  2  0
 11 12  1  0
 12 13  1  0
 13 14  1  6
 14 15  2  0
 15 16  1  0
 16 17  2  0
 17 18  1  0
 18 19  2  0
 19 20  1  0
 13 21  1  0
 21 22  1  1
 22 23  1  0
 23 24  2  0
 25 24  1  1
 11  3  1  0
 19 14  1  0
 25 21  1  0
 25 10  1  0
M  CHG  2   7   1   9  -1
M  END
>  <Compound_ID>  (793) 
C20700215

>  <Active>  (793) 
0.0

>  <Smiles>  (793) 
COc1ccc([N+](=O)[O-])c2c1N[C@H](c1ccccc1Cl)[C@H]1CC=C[C@@H]21

>  <canonical_smi>  (793) 
COc1ccc([N+](=O)[O-])c2c1N[C@H](c1ccccc1Cl)[C@H]1CC=C[C@@H]21

>  <Set>  (793) 
G2 inactive

>  <Set_type>  (793) 
Train

>  <MW>  (793) 
356.81

>  <HBD>  (793) 
1

>  <HBA>  (793) 
4

>  <NRB>  (793) 
3

>  <NR>  (793) 
4

>  <NAR>  (793) 
2

>  <PSA>  (793) 
64.4

>  <Standard Type>  (793) 
nan

>  <Standard Relation>  (793) 
nan

>  <Standard Units>  (793) 
nan

>  <Standard Value>  (793) 
nan

>  <Assay ChEMBL ID>  (793) 
nan

>  <Assay Description>  (793) 
nan

>  <BAO Label>  (793) 
nan

$$$$

     RDKit          2D

 24 26  0  0  0  0  0  0  0  0999 V2000
    5.2500   -1.2990    0.0000 C   0  0  0  0  0  0  0  0  0  0  0  0
    3.7500   -1.2990    0.0000 C   0  0  0  0  0  0  0  0  0  0  0  0
    3.0000    0.0000    0.0000 C   0  0  0  0  0  0  0  0  0  0  0  0
    1.5000    0.0000    0.0000 C   0  0  0  0  0  0  0  0  0  0  0  0
    0.7500   -1.2990    0.0000 C   0  0  0  0  0  0  0  0  0  0  0  0
   -0.7500   -1.2990    0.0000 C   0  0  0  0  0  0  0  0  0  0  0  0
   -1.5000    0.0000    0.0000 C   0  0  0  0  0  0  0  0  0  0  0  0
   -0.7500    1.2990    0.0000 C   0  0  0  0  0  0  0  0  0  0  0  0
   -1.5000    2.5981    0.0000 C   0  0  0  0  0  0  0  0  0  0  0  0
    0.7500    1.2990    0.0000 N   0  0  0  0  0  0  0  0  0  0  0  0
    1.5000    2.5981    0.0000 C   0  0  0  0  0  0  0  0  0  0  0  0
    0.7500    3.8971    0.0000 O   0  0  0  0  0  0  0  0  0  0  0  0
    3.0000    2.5981    0.0000 C   0  0  0  0  0  0  0  0  0  0  0  0
    3.8817    3.8116    0.0000 C   0  0  0  0  0  0  0  0  0  0  0  0
    5.3083    3.3481    0.0000 C   0  0  0  0  0  0  0  0  0  0  0  0
    5.3083    1.8481    0.0000 C   0  0  0  0  0  0  0  0  0  0  0  0
    6.5218    0.9664    0.0000 C   0  0  0  0  0  0  0  0  0  0  0  0
    7.8921    1.5765    0.0000 S   0  0  0  0  0  0  0  0  0  0  0  0
    9.1056    0.6948    0.0000 C   0  0  0  0  0  0  0  0  0  0  0  0
   10.5322    1.1584    0.0000 N   0  0  0  0  0  0  0  0  0  0  0  0
   11.4139   -0.0552    0.0000 C   0  0  0  0  0  0  0  0  0  0  0  0
   10.5322   -1.2687    0.0000 N   0  0  0  0  0  0  0  0  0  0  0  0
    9.1056   -0.8052    0.0000 N   0  0  0  0  0  0  0  0  0  0  0  0
    3.8817    1.3846    0.0000 O   0  0  0  0  0  0  0  0  0  0  0  0
  1  2  2  0
  2  3  1  0
  4  3  1  6
  4  5  1  0
  5  6  1  0
  6  7  2  0
  7  8  1  0
  8  9  1  1
  8 10  1  0
 10 11  1  0
 11 12  2  0
 11 13  1  0
 13 14  2  0
 14 15  1  0
 15 16  2  0
 16 17  1  0
 17 18  1  0
 18 19  1  0
 19 20  2  0
 20 21  1  0
 21 22  2  0
 22 23  1  0
 16 24  1  0
 10  4  1  0
 24 13  1  0
 23 19  1  0
M  END
>  <Compound_ID>  (794) 
C55183113

>  <Active>  (794) 
0.0

>  <Smiles>  (794) 
C=CC[C@@H]1CC=C[C@@H](C)N1C(=O)c1ccc(CSc2ncn[nH]2)o1

>  <canonical_smi>  (794) 
C=CC[C@@H]1CC=C[C@@H](C)N1C(=O)c1ccc(CSc2ncn[nH]2)o1

>  <Set>  (794) 
G2 inactive

>  <Set_type>  (794) 
Train

>  <MW>  (794) 
344.44

>  <HBD>  (794) 
1

>  <HBA>  (794) 
5

>  <NRB>  (794) 
6

>  <NR>  (794) 
3

>  <NAR>  (794) 
2

>  <PSA>  (794) 
75.02

>  <Standard Type>  (794) 
nan

>  <Standard Relation>  (794) 
nan

>  <Standard Units>  (794) 
nan

>  <Standard Value>  (794) 
nan

>  <Assay ChEMBL ID>  (794) 
nan

>  <Assay Description>  (794) 
nan

>  <BAO Label>  (794) 
nan

$$$$

     RDKit          2D

 25 27  0  0  0  0  0  0  0  0999 V2000
    3.7500   -1.2990    0.0000 C   0  0  0  0  0  0  0  0  0  0  0  0
    3.0000    0.0000    0.0000 N   0  0  0  0  0  0  0  0  0  0  0  0
    3.7500    1.2990    0.0000 C   0  0  0  0  0  0  0  0  0  0  0  0
    1.5000    0.0000    0.0000 C   0  0  0  0  0  0  0  0  0  0  0  0
    0.7500   -1.2990    0.0000 C   0  0  0  0  0  0  0  0  0  0  0  0
   -0.7500   -1.2990    0.0000 C   0  0  0  0  0  0  0  0  0  0  0  0
   -1.5000    0.0000    0.0000 C   0  0  0  0  0  0  0  0  0  0  0  0
   -3.0000    0.0000    0.0000 C   0  0  0  0  0  0  0  0  0  0  0  0
   -3.7500    1.2990    0.0000 N   0  0  0  0  0  0  0  0  0  0  0  0
   -5.2418    1.4558    0.0000 N   0  0  0  0  0  0  0  0  0  0  0  0
   -5.5537    2.9231    0.0000 C   0  0  0  0  0  0  0  0  0  0  0  0
   -4.2546    3.6731    0.0000 C   0  0  0  0  0  0  0  0  0  0  0  0
   -3.1399    2.6694    0.0000 C   0  0  0  0  0  0  0  0  0  0  0  0
   -1.6727    2.9812    0.0000 N   0  0  0  0  0  0  0  0  0  0  0  0
   -1.2091    4.4078    0.0000 C   0  0  0  0  0  0  0  0  0  0  0  0
   -2.2128    5.5225    0.0000 O   0  0  0  0  0  0  0  0  0  0  0  0
    0.2581    4.7197    0.0000 C   0  0  0  0  0  0  0  0  0  0  0  0
    0.7216    6.1463    0.0000 C   0  0  0  0  0  0  0  0  0  0  0  0
    2.1888    6.4581    0.0000 C   0  0  0  0  0  0  0  0  0  0  0  0
    2.7989    7.8284    0.0000 N   0  0  0  0  0  0  0  0  0  0  0  0
    4.2907    7.6717    0.0000 C   0  0  0  0  0  0  0  0  0  0  0  0
    4.6026    6.2044    0.0000 C   0  0  0  0  0  0  0  0  0  0  0  0
    3.3035    5.4544    0.0000 S   0  0  0  0  0  0  0  0  0  0  0  0
   -0.7500    1.2990    0.0000 C   0  0  0  0  0  0  0  0  0  0  0  0
    0.7500    1.2990    0.0000 C   0  0  0  0  0  0  0  0  0  0  0  0
  1  2  1  0
  2  3  1  0
  2  4  1  0
  4  5  2  0
  5  6  1  0
  6  7  2  0
  7  8  1  0
  8  9  1  0
  9 10  1  0
 10 11  2  0
 11 12  1  0
 12 13  2  0
 13 14  1  0
 14 15  1  0
 15 16  2  0
 15 17  1  0
 17 18  2  0
 18 19  1  0
 19 20  2  0
 20 21  1  0
 21 22  2  0
 22 23  1  0
  7 24  1  0
 24 25  2  0
 25  4  1  0
 13  9  1  0
 23 19  1  0
M  END
>  <Compound_ID>  (795) 
C66662007

>  <Active>  (795) 
0.0

>  <Smiles>  (795) 
CN(C)c1ccc(Cn2nccc2NC(=O)/C=C/c2nccs2)cc1

>  <canonical_smi>  (795) 
CN(C)c1ccc(Cn2nccc2NC(=O)/C=C/c2nccs2)cc1

>  <Set>  (795) 
G2 inactive

>  <Set_type>  (795) 
Train

>  <MW>  (795) 
353.45

>  <HBD>  (795) 
1

>  <HBA>  (795) 
4

>  <NRB>  (795) 
6

>  <NR>  (795) 
3

>  <NAR>  (795) 
3

>  <PSA>  (795) 
63.05

>  <Standard Type>  (795) 
nan

>  <Standard Relation>  (795) 
nan

>  <Standard Units>  (795) 
nan

>  <Standard Value>  (795) 
nan

>  <Assay ChEMBL ID>  (795) 
nan

>  <Assay Description>  (795) 
nan

>  <BAO Label>  (795) 
nan

$$$$

     RDKit          2D

 30 33  0  0  0  0  0  0  0  0999 V2000
   -9.7500   -3.8971    0.0000 C   0  0  0  0  0  0  0  0  0  0  0  0
   -8.2500   -3.8971    0.0000 C   0  0  0  0  0  0  0  0  0  0  0  0
   -7.5000   -5.1962    0.0000 O   0  0  0  0  0  0  0  0  0  0  0  0
   -6.0000   -5.1962    0.0000 C   0  0  0  0  0  0  0  0  0  0  0  0
   -5.2500   -3.8971    0.0000 C   0  0  0  0  0  0  0  0  0  0  0  0
   -3.7500   -3.8971    0.0000 C   0  0  0  0  0  0  0  0  0  0  0  0
   -3.0000   -5.1962    0.0000 C   0  0  0  0  0  0  0  0  0  0  0  0
   -1.5000   -5.1962    0.0000 C   0  0  0  0  0  0  0  0  0  0  0  0
   -0.7500   -6.4952    0.0000 N   0  0  0  0  0  0  0  0  0  0  0  0
   -1.5000   -7.7942    0.0000 C   0  0  0  0  0  0  0  0  0  0  0  0
   -3.0000   -7.7942    0.0000 C   0  0  0  0  0  0  0  0  0  0  0  0
   -3.7500   -9.0933    0.0000 C   0  0  0  0  0  0  0  0  0  0  0  0
   -3.0000  -10.3923    0.0000 C   0  0  0  0  0  0  0  0  0  0  0  0
   -1.5000  -10.3923    0.0000 C   0  0  0  0  0  0  0  0  0  0  0  0
   -0.7500   -9.0933    0.0000 N   0  0  0  0  0  4  0  0  0  0  0  0
   -0.7500   -3.8971    0.0000 C   0  0  0  0  0  0  0  0  0  0  0  0
    0.7500   -3.8971    0.0000 C   0  0  0  0  0  0  0  0  0  0  0  0
    1.5000   -2.5981    0.0000 C   0  0  0  0  0  0  0  0  0  0  0  0
    0.7500   -1.2990    0.0000 C   0  0  0  0  0  0  0  0  0  0  0  0
    1.5000    0.0000    0.0000 C   0  0  0  0  0  0  0  0  0  0  0  0
    0.7500    1.2990    0.0000 C   0  0  0  0  0  0  0  0  0  0  0  0
   -0.7500    1.2990    0.0000 C   0  0  0  0  0  0  0  0  0  0  0  0
   -1.5000    2.5981    0.0000 C   0  0  0  0  0  0  0  0  0  0  0  0
   -1.5000    0.0000    0.0000 N   0  0  0  0  0  0  0  0  0  0  0  0
   -0.7500   -1.2990    0.0000 C   0  0  0  0  0  0  0  0  0  0  0  0
   -1.5000   -2.5981    0.0000 C   0  0  0  0  0  0  0  0  0  0  0  0
   -3.0000   -2.5981    0.0000 O   0  0  0  0  0  0  0  0  0  0  0  0
   -3.7500   -6.4952    0.0000 C   0  0  0  0  0  0  0  0  0  0  0  0
   -5.2500   -6.4952    0.0000 C   0  0  0  0  0  0  0  0  0  0  0  0
   -6.0000   -7.7942    0.0000 C   0  0  0  0  0  0  0  0  0  0  0  0
  1  2  1  0
  2  3  1  0
  3  4  1  0
  4  5  2  0
  5  6  1  0
  6  7  2  0
  7  8  1  0
  8  9  1  6
  9 10  1  0
 10 11  2  0
 11 12  1  0
 12 13  2  0
 13 14  1  0
 14 15  2  0
  8 16  1  0
 16 17  2  0
 17 18  1  0
 18 19  2  0
 19 20  1  0
 20 21  2  0
 21 22  1  0
 22 23  1  0
 22 24  2  0
 24 25  1  0
 25 26  2  0
 26 27  1  0
  7 28  1  0
 28 29  2  0
 29 30  1  0
 29  4  1  0
 15 10  1  0
 26 16  1  0
 25 19  1  0
M  CHG  1  15   1
M  END
>  <Compound_ID>  (796) 
C02470410

>  <Active>  (796) 
0.0

>  <Smiles>  (796) 
CCOc1ccc([C@@H](Nc2cccc[nH+]2)c2ccc3ccc(C)nc3c2O)cc1C

>  <canonical_smi>  (796) 
CCOc1ccc([C@@H](Nc2cccc[nH+]2)c2ccc3ccc(C)nc3c2O)cc1C

>  <Set>  (796) 
G2 inactive

>  <Set_type>  (796) 
Train

>  <MW>  (796) 
400.5

>  <HBD>  (796) 
2

>  <HBA>  (796) 
4

>  <NRB>  (796) 
6

>  <NR>  (796) 
4

>  <NAR>  (796) 
4

>  <PSA>  (796) 
68.52

>  <Standard Type>  (796) 
nan

>  <Standard Relation>  (796) 
nan

>  <Standard Units>  (796) 
nan

>  <Standard Value>  (796) 
nan

>  <Assay ChEMBL ID>  (796) 
nan

>  <Assay Description>  (796) 
nan

>  <BAO Label>  (796) 
nan

$$$$

     RDKit          2D

 25 27  0  0  0  0  0  0  0  0999 V2000
   -2.4936   -4.0713    0.0000 N   0  0  0  0  0  0  0  0  0  0  0  0
   -3.9934   -4.0938    0.0000 C   0  0  0  0  0  0  0  0  0  0  0  0
   -5.4933   -4.1162    0.0000 C   0  0  0  0  0  0  0  0  0  0  0  0
   -5.1814   -2.6490    0.0000 N   0  0  0  0  0  0  0  0  0  0  0  0
   -3.7548   -2.1855    0.0000 C   0  0  0  0  0  0  0  0  0  0  0  0
   -3.4430   -0.7182    0.0000 O   0  0  0  0  0  0  0  0  0  0  0  0
   -2.6401   -3.1891    0.0000 C   0  0  0  0  0  0  0  0  0  0  0  0
   -1.2135   -2.7256    0.0000 N   0  0  0  0  0  4  0  0  0  0  0  0
   -0.0000   -3.6073    0.0000 C   0  0  0  0  0  0  0  0  0  0  0  0
    0.0000   -5.1073    0.0000 C   0  0  0  0  0  0  0  0  0  0  0  0
   -1.2990   -5.8573    0.0000 N   0  0  0  0  0  0  0  0  0  0  0  0
    1.2990   -5.8573    0.0000 O   0  0  0  0  0  0  0  0  0  0  0  0
    1.2135   -2.7256    0.0000 C   0  0  0  0  0  0  0  0  0  0  0  0
    0.7500   -1.2990    0.0000 C   0  0  0  0  0  0  0  0  0  0  0  0
    1.5000    0.0000    0.0000 C   0  0  0  0  0  0  0  0  0  0  0  0
    0.7500    1.2990    0.0000 C   0  0  0  0  0  0  0  0  0  0  0  0
   -0.7500    1.2990    0.0000 C   0  0  0  0  0  0  0  0  0  0  0  0
   -1.5000    0.0000    0.0000 C   0  0  0  0  0  0  0  0  0  0  0  0
   -0.7500   -1.2990    0.0000 C   0  0  0  0  0  0  0  0  0  0  0  0
   -5.1377   -5.5734    0.0000 C   0  0  0  0  0  0  0  0  0  0  0  0
   -6.0552   -6.7600    0.0000 C   0  0  0  0  0  0  0  0  0  0  0  0
   -7.5551   -6.7825    0.0000 C   0  0  0  0  0  0  0  0  0  0  0  0
   -8.5078   -5.6239    0.0000 C   0  0  0  0  0  0  0  0  0  0  0  0
   -8.1959   -4.1566    0.0000 C   0  0  0  0  0  0  0  0  0  0  0  0
   -6.8543   -3.4857    0.0000 C   0  0  0  0  0  0  0  0  0  0  0  0
  1  2  3  0
  2  3  1  0
  3  4  1  0
  4  5  1  0
  5  6  2  0
  5  7  1  0
  7  8  1  0
  8  9  1  0
  9 10  1  6
 10 11  1  0
 10 12  2  0
  9 13  1  0
 14 13  1  6
 14 15  1  0
 15 16  1  0
 16 17  1  0
 17 18  1  0
 19 18  1  6
  3 20  1  0
 20 21  1  0
 21 22  1  0
 22 23  1  0
 23 24  1  0
 24 25  1  0
 25  3  1  0
 19  8  1  0
 19 14  1  0
M  CHG  1   8   1
M  END
>  <Compound_ID>  (797) 
C65577727

>  <Active>  (797) 
0.0

>  <Smiles>  (797) 
N#CC1(NC(=O)C[NH+]2[C@@H](C(N)=O)C[C@H]3CCCC[C@H]32)CCCCCC1

>  <canonical_smi>  (797) 
N#CC1(NC(=O)C[NH+]2[C@@H](C(N)=O)C[C@H]3CCCC[C@H]32)CCCCCC1

>  <Set>  (797) 
G2 inactive

>  <Set_type>  (797) 
Train

>  <MW>  (797) 
347.48

>  <HBD>  (797) 
3

>  <HBA>  (797) 
3

>  <NRB>  (797) 
4

>  <NR>  (797) 
3

>  <NAR>  (797) 
0

>  <PSA>  (797) 
100.42

>  <Standard Type>  (797) 
nan

>  <Standard Relation>  (797) 
nan

>  <Standard Units>  (797) 
nan

>  <Standard Value>  (797) 
nan

>  <Assay ChEMBL ID>  (797) 
nan

>  <Assay Description>  (797) 
nan

>  <BAO Label>  (797) 
nan

$$$$

     RDKit          2D

 29 32  0  0  0  0  0  0  0  0999 V2000
   -3.0000    2.5981    0.0000 C   0  0  0  0  0  0  0  0  0  0  0  0
   -1.5000    2.5981    0.0000 O   0  0  0  0  0  0  0  0  0  0  0  0
   -0.7500    1.2990    0.0000 C   0  0  0  0  0  0  0  0  0  0  0  0
   -1.5000    0.0000    0.0000 C   0  0  0  0  0  0  0  0  0  0  0  0
   -0.7500   -1.2990    0.0000 C   0  0  0  0  0  0  0  0  0  0  0  0
    0.7500   -1.2990    0.0000 C   0  0  0  0  0  0  0  0  0  0  0  0
    1.5000    0.0000    0.0000 C   0  0  0  0  0  0  0  0  0  0  0  0
    0.7500    1.2990    0.0000 C   0  0  0  0  0  0  0  0  0  0  0  0
    1.5000    2.5981    0.0000 C   0  0  0  0  0  0  0  0  0  0  0  0
    0.8899    3.9684    0.0000 C   0  0  0  0  0  0  0  0  0  0  0  0
    2.0046    4.9721    0.0000 N   0  0  0  0  0  0  0  0  0  0  0  0
    3.3037    4.2221    0.0000 O   0  0  0  0  0  0  0  0  0  0  0  0
    2.9918    2.7549    0.0000 C   0  0  0  0  0  0  0  0  0  0  0  0
    3.9955    1.6402    0.0000 C   0  0  0  0  0  0  0  0  0  0  0  0
    3.5320    0.2136    0.0000 C   0  0  0  0  0  0  0  0  0  0  0  0
    4.5356   -0.9012    0.0000 C   0  0  0  0  0  0  0  0  0  0  0  0
    6.0029   -0.5893    0.0000 C   0  0  0  0  0  0  0  0  0  0  0  0
    7.0066   -1.7040    0.0000 O   0  0  0  0  0  0  0  0  0  0  0  0
    6.5430   -3.1306    0.0000 C   0  0  0  0  0  0  0  0  0  0  0  0
    7.5467   -4.2453    0.0000 C   0  0  0  0  0  0  0  0  0  0  0  0
    7.0832   -5.6719    0.0000 C   0  0  0  0  0  0  0  0  0  0  0  0
    8.0869   -6.7866    0.0000 C   0  0  0  0  0  0  0  0  0  0  0  0
    9.5541   -6.4747    0.0000 C   0  0  0  0  0  0  0  0  0  0  0  0
   10.0177   -5.0482    0.0000 C   0  0  0  0  0  0  0  0  0  0  0  0
    9.0140   -3.9334    0.0000 C   0  0  0  0  0  0  0  0  0  0  0  0
    9.4775   -2.5068    0.0000 F   0  0  0  0  0  0  0  0  0  0  0  0
    6.4664    0.8373    0.0000 C   0  0  0  0  0  0  0  0  0  0  0  0
    5.4627    1.9520    0.0000 C   0  0  0  0  0  0  0  0  0  0  0  0
    5.9262    3.3786    0.0000 O   0  0  0  0  0  0  0  0  0  0  0  0
  1  2  1  0
  2  3  1  0
  3  4  2  0
  4  5  1  0
  5  6  2  0
  6  7  1  0
  7  8  2  0
  8  9  1  0
  9 10  1  0
 10 11  2  0
 11 12  1  0
 12 13  1  0
 13 14  1  0
 14 15  2  0
 15 16  1  0
 16 17  2  0
 17 18  1  0
 18 19  1  0
 19 20  1  0
 20 21  2  0
 21 22  1  0
 22 23  2  0
 23 24  1  0
 24 25  2  0
 25 26  1  0
 17 27  1  0
 27 28  2  0
 28 29  1  0
  8  3  1  0
 13  9  2  0
 28 14  1  0
 25 20  1  0
M  END
>  <Compound_ID>  (798) 
C05353452

>  <Active>  (798) 
0.0

>  <Smiles>  (798) 
COc1ccccc1-c1cnoc1-c1ccc(OCc2ccccc2F)cc1O

>  <canonical_smi>  (798) 
COc1ccccc1-c1cnoc1-c1ccc(OCc2ccccc2F)cc1O

>  <Set>  (798) 
G2 inactive

>  <Set_type>  (798) 
Train

>  <MW>  (798) 
391.4

>  <HBD>  (798) 
1

>  <HBA>  (798) 
5

>  <NRB>  (798) 
6

>  <NR>  (798) 
4

>  <NAR>  (798) 
4

>  <PSA>  (798) 
64.72

>  <Standard Type>  (798) 
nan

>  <Standard Relation>  (798) 
nan

>  <Standard Units>  (798) 
nan

>  <Standard Value>  (798) 
nan

>  <Assay ChEMBL ID>  (798) 
nan

>  <Assay Description>  (798) 
nan

>  <BAO Label>  (798) 
nan

$$$$

     RDKit          2D

 19 21  0  0  0  0  0  0  0  0999 V2000
    3.0000  -10.3923    0.0000 C   0  0  0  0  0  0  0  0  0  0  0  0
    3.7500   -9.0933    0.0000 C   0  0  0  0  0  0  0  0  0  0  0  0
    3.0000   -7.7942    0.0000 C   0  0  0  0  0  0  0  0  0  0  0  0
    1.5000   -7.7942    0.0000 C   0  0  0  0  0  0  0  0  0  0  0  0
    0.7500   -6.4952    0.0000 C   0  0  0  0  0  0  0  0  0  0  0  0
    1.5000   -5.1962    0.0000 C   0  0  0  0  0  0  0  0  0  0  0  0
    0.7500   -3.8971    0.0000 C   0  0  0  0  0  0  0  0  0  0  0  0
   -0.7500   -3.8971    0.0000 N   0  0  0  0  0  0  0  0  0  0  0  0
   -1.5000   -2.5981    0.0000 C   0  0  0  0  0  0  0  0  0  0  0  0
   -3.0000   -2.5981    0.0000 N   0  0  0  0  0  0  0  0  0  0  0  0
   -0.7500   -1.2990    0.0000 C   0  0  0  0  0  0  0  0  0  0  0  0
    0.7500   -1.2990    0.0000 C   0  0  0  0  0  0  0  0  0  0  0  0
    1.5000   -2.5981    0.0000 N   0  0  0  0  0  0  0  0  0  0  0  0
    1.5000    0.0000    0.0000 C   0  0  0  0  0  0  0  0  0  0  0  0
    0.7500    1.2990    0.0000 C   0  0  0  0  0  0  0  0  0  0  0  0
   -0.7500    1.2990    0.0000 C   0  0  0  0  0  0  0  0  0  0  0  0
   -1.5000    0.0000    0.0000 C   0  0  0  0  0  0  0  0  0  0  0  0
    3.0000   -5.1962    0.0000 C   0  0  0  0  0  0  0  0  0  0  0  0
    3.7500   -6.4952    0.0000 C   0  0  0  0  0  0  0  0  0  0  0  0
  1  2  1  0
  2  3  1  0
  3  4  2  0
  4  5  1  0
  5  6  2  0
  6  7  1  0
  7  8  2  0
  8  9  1  0
  9 10  1  0
  9 11  2  0
 11 12  1  0
 12 13  2  0
 12 14  1  0
 14 15  1  0
 15 16  1  0
 16 17  1  0
  6 18  1  0
 18 19  2  0
 19  3  1  0
 13  7  1  0
 17 11  1  0
M  END
>  <Compound_ID>  (799) 
C50846835

>  <Active>  (799) 
0.0

>  <Smiles>  (799) 
CCc1ccc(-c2nc(N)c3c(n2)CCCC3)cc1

>  <canonical_smi>  (799) 
CCc1ccc(-c2nc(N)c3c(n2)CCCC3)cc1

>  <Set>  (799) 
G2 inactive

>  <Set_type>  (799) 
Train

>  <MW>  (799) 
253.35

>  <HBD>  (799) 
1

>  <HBA>  (799) 
3

>  <NRB>  (799) 
2

>  <NR>  (799) 
3

>  <NAR>  (799) 
2

>  <PSA>  (799) 
51.8

>  <Standard Type>  (799) 
nan

>  <Standard Relation>  (799) 
nan

>  <Standard Units>  (799) 
nan

>  <Standard Value>  (799) 
nan

>  <Assay ChEMBL ID>  (799) 
nan

>  <Assay Description>  (799) 
nan

>  <BAO Label>  (799) 
nan

$$$$

     RDKit          2D

 19 20  0  0  0  0  0  0  0  0999 V2000
    2.7760    0.0000    0.0000 C   0  0  0  0  0  0  0  0  0  0  0  0
    1.2760    0.0000    0.0000 C   0  0  0  0  0  0  0  0  0  0  0  0
    0.3943    1.2135    0.0000 C   0  0  0  0  0  0  0  0  0  0  0  0
    0.8578    2.6401    0.0000 C   0  0  0  0  0  0  0  0  0  0  0  0
   -0.1459    3.7548    0.0000 O   0  0  0  0  0  0  0  0  0  0  0  0
   -1.0323    0.7500    0.0000 N   0  0  0  0  0  0  0  0  0  0  0  0
   -1.0323   -0.7500    0.0000 C   0  0  0  0  0  0  0  0  0  0  0  0
   -2.2458   -1.6317    0.0000 C   0  0  0  0  0  0  0  0  0  0  0  0
   -3.6161   -1.0216    0.0000 C   0  0  0  0  0  0  0  0  0  0  0  0
   -4.9152   -1.7716    0.0000 N   0  0  0  0  0  0  0  0  0  0  0  0
   -6.0299   -0.7679    0.0000 C   0  0  0  0  0  0  0  0  0  0  0  0
   -7.4971   -1.0797    0.0000 C   0  0  0  0  0  0  0  0  0  0  0  0
   -8.5008    0.0350    0.0000 O   0  0  0  0  0  0  0  0  0  0  0  0
   -5.4198    0.6024    0.0000 C   0  0  0  0  0  0  0  0  0  0  0  0
   -6.1698    1.9015    0.0000 C   0  0  0  0  0  0  0  0  0  0  0  0
   -3.9280    0.4456    0.0000 C   0  0  0  0  0  0  0  0  0  0  0  0
   -2.9243    1.5604    0.0000 C   0  0  0  0  0  0  0  0  0  0  0  0
    0.3943   -1.2135    0.0000 C   0  0  0  0  0  0  0  0  0  0  0  0
    0.8578   -2.6401    0.0000 C   0  0  0  0  0  0  0  0  0  0  0  0
  1  2  1  0
  2  3  2  0
  3  4  1  0
  4  5  2  0
  3  6  1  0
  6  7  1  0
  7  8  1  0
  8  9  1  0
  9 10  1  0
 10 11  1  0
 11 12  1  0
 12 13  2  0
 11 14  2  0
 14 15  1  0
 14 16  1  0
 16 17  1  0
  7 18  2  0
 18 19  1  0
 18  2  1  0
 16  9  2  0
M  END
>  <Compound_ID>  (800) 
C02519585

>  <Active>  (800) 
0.0

>  <Smiles>  (800) 
Cc1c(C=O)[nH]c(Cc2[nH]c(C=O)c(C)c2C)c1C

>  <canonical_smi>  (800) 
Cc1c(C=O)[nH]c(Cc2[nH]c(C=O)c(C)c2C)c1C

>  <Set>  (800) 
G2 inactive

>  <Set_type>  (800) 
Train

>  <MW>  (800) 
258.32

>  <HBD>  (800) 
2

>  <HBA>  (800) 
2

>  <NRB>  (800) 
4

>  <NR>  (800) 
2

>  <NAR>  (800) 
2

>  <PSA>  (800) 
65.72

>  <Standard Type>  (800) 
nan

>  <Standard Relation>  (800) 
nan

>  <Standard Units>  (800) 
nan

>  <Standard Value>  (800) 
nan

>  <Assay ChEMBL ID>  (800) 
nan

>  <Assay Description>  (800) 
nan

>  <BAO Label>  (800) 
nan

$$$$

     RDKit          2D

 20 21  0  0  0  0  0  0  0  0999 V2000
    5.2500   -1.2990    0.0000 C   0  0  0  0  0  0  0  0  0  0  0  0
    3.7500   -1.2990    0.0000 C   0  0  0  0  0  0  0  0  0  0  0  0
    3.0000    0.0000    0.0000 C   0  0  0  0  0  0  0  0  0  0  0  0
    1.5000    0.0000    0.0000 C   0  0  0  0  0  0  0  0  0  0  0  0
    0.7500   -1.2990    0.0000 C   0  0  0  0  0  0  0  0  0  0  0  0
    1.5000   -2.5981    0.0000 O   0  0  0  0  0  0  0  0  0  0  0  0
   -0.7500   -1.2990    0.0000 N   0  0  0  0  0  0  0  0  0  0  0  0
   -1.5000    0.0000    0.0000 C   0  0  0  0  0  0  0  0  0  0  0  0
   -3.0000    0.0000    0.0000 C   0  0  0  0  0  0  0  0  0  0  0  0
   -0.7500    1.2990    0.0000 N   0  0  0  0  0  0  0  0  0  0  0  0
    0.7500    1.2990    0.0000 C   0  0  0  0  0  0  0  0  0  0  0  0
    1.5000    2.5981    0.0000 C   0  0  0  0  0  0  0  0  0  0  0  0
    0.7500    3.8971    0.0000 C   0  0  0  0  0  0  0  0  0  0  0  0
    1.5000    5.1962    0.0000 C   0  0  0  0  0  0  0  0  0  0  0  0
    3.0000    5.1962    0.0000 C   0  0  0  0  0  0  0  0  0  0  0  0
    3.7500    6.4952    0.0000 C   0  0  0  0  0  0  0  0  0  0  0  0
    3.0000    7.7942    0.0000 C   0  0  0  0  0  0  0  0  0  0  0  0
    3.7500    9.0933    0.0000 O   0  0  0  0  0  0  0  0  0  0  0  0
    1.5000    7.7942    0.0000 C   0  0  0  0  0  0  0  0  0  0  0  0
    0.7500    6.4952    0.0000 C   0  0  0  0  0  0  0  0  0  0  0  0
  1  2  2  0
  2  3  1  0
  3  4  1  0
  4  5  2  0
  5  6  1  0
  5  7  1  0
  7  8  2  0
  8  9  1  0
  8 10  1  0
 10 11  2  0
 11 12  1  0
 12 13  2  0
 13 14  1  0
 14 15  2  0
 15 16  1  0
 16 17  2  0
 17 18  1  0
 17 19  1  0
 19 20  2  0
 11  4  1  0
 20 14  1  0
M  END
>  <Compound_ID>  (801) 
C16853068

>  <Active>  (801) 
0.0

>  <Smiles>  (801) 
C=CCc1c(O)nc(C)nc1/C=C/c1ccc(O)cc1

>  <canonical_smi>  (801) 
C=CCc1c(O)nc(C)nc1/C=C/c1ccc(O)cc1

>  <Set>  (801) 
G2 inactive

>  <Set_type>  (801) 
Train

>  <MW>  (801) 
268.32

>  <HBD>  (801) 
2

>  <HBA>  (801) 
4

>  <NRB>  (801) 
4

>  <NR>  (801) 
2

>  <NAR>  (801) 
2

>  <PSA>  (801) 
66.24

>  <Standard Type>  (801) 
nan

>  <Standard Relation>  (801) 
nan

>  <Standard Units>  (801) 
nan

>  <Standard Value>  (801) 
nan

>  <Assay ChEMBL ID>  (801) 
nan

>  <Assay Description>  (801) 
nan

>  <BAO Label>  (801) 
nan

$$$$

     RDKit          2D

 19 21  0  0  0  0  0  0  0  0999 V2000
   -2.9046  -11.4354    0.0000 C   0  0  0  0  0  0  0  0  0  0  0  0
   -3.0613   -9.9436    0.0000 C   0  0  0  0  0  0  0  0  0  0  0  0
   -4.4317   -9.3335    0.0000 C   0  0  0  0  0  0  0  0  0  0  0  0
   -1.8478   -9.0619    0.0000 N   0  0  0  0  0  0  0  0  0  0  0  0
   -2.0046   -7.5702    0.0000 C   0  0  0  0  0  0  0  0  0  0  0  0
   -0.8899   -6.5665    0.0000 N   0  0  0  0  0  0  0  0  0  0  0  0
   -1.5000   -5.1962    0.0000 C   0  0  0  0  0  0  0  0  0  0  0  0
   -0.7500   -3.8971    0.0000 C   0  0  0  0  0  0  0  0  0  0  0  0
    0.7500   -3.8971    0.0000 C   0  0  0  0  0  0  0  0  0  0  0  0
    1.5000   -2.5981    0.0000 C   0  0  0  0  0  0  0  0  0  0  0  0
    0.7500   -1.2990    0.0000 C   0  0  0  0  0  0  0  0  0  0  0  0
    1.5000    0.0000    0.0000 C   0  0  0  0  0  0  0  0  0  0  0  0
    0.7500    1.2990    0.0000 C   0  0  0  0  0  0  0  0  0  0  0  0
   -0.7500    1.2990    0.0000 C   0  0  0  0  0  0  0  0  0  0  0  0
   -1.5000    0.0000    0.0000 C   0  0  0  0  0  0  0  0  0  0  0  0
   -0.7500   -1.2990    0.0000 C   0  0  0  0  0  0  0  0  0  0  0  0
   -1.5000   -2.5981    0.0000 C   0  0  0  0  0  0  0  0  0  0  0  0
   -2.9918   -5.3529    0.0000 N   0  0  0  0  0  0  0  0  0  0  0  0
   -3.3037   -6.8202    0.0000 O   0  0  0  0  0  0  0  0  0  0  0  0
  1  2  1  0
  2  3  1  0
  2  4  1  0
  4  5  1  0
  5  6  2  0
  6  7  1  0
  7  8  1  0
  8  9  2  0
  9 10  1  0
 10 11  2  0
 11 12  1  0
 12 13  2  0
 13 14  1  0
 14 15  2  0
 15 16  1  0
 16 17  2  0
  7 18  2  0
 18 19  1  0
 19  5  1  0
 17  8  1  0
 16 11  1  0
M  END
>  <Compound_ID>  (802) 
C54441429

>  <Active>  (802) 
0.0

>  <Smiles>  (802) 
CC(C)Nc1nc(-c2ccc3ccccc3c2)no1

>  <canonical_smi>  (802) 
CC(C)Nc1nc(-c2ccc3ccccc3c2)no1

>  <Set>  (802) 
G2 inactive

>  <Set_type>  (802) 
Train

>  <MW>  (802) 
253.31

>  <HBD>  (802) 
1

>  <HBA>  (802) 
4

>  <NRB>  (802) 
3

>  <NR>  (802) 
3

>  <NAR>  (802) 
3

>  <PSA>  (802) 
50.95

>  <Standard Type>  (802) 
nan

>  <Standard Relation>  (802) 
nan

>  <Standard Units>  (802) 
nan

>  <Standard Value>  (802) 
nan

>  <Assay ChEMBL ID>  (802) 
nan

>  <Assay Description>  (802) 
nan

>  <BAO Label>  (802) 
nan

$$$$

     RDKit          2D

 18 18  0  0  0  0  0  0  0  0999 V2000
    5.2500   -6.4952    0.0000 C   0  0  0  0  0  0  0  0  0  0  0  0
    6.0000   -5.1962    0.0000 C   0  0  0  0  0  0  0  0  0  0  0  0
    5.2500   -3.8971    0.0000 C   0  0  0  0  0  0  0  0  0  0  0  0
    6.0000   -2.5981    0.0000 C   0  0  0  0  0  0  0  0  0  0  0  0
    7.5000   -2.5981    0.0000 C   0  0  0  0  0  0  0  0  0  0  0  0
    5.2500   -1.2990    0.0000 N   0  0  0  0  0  0  0  0  0  0  0  0
    3.7500   -1.2990    0.0000 C   0  0  0  0  0  0  0  0  0  0  0  0
    3.0000   -2.5981    0.0000 O   0  0  0  0  0  0  0  0  0  0  0  0
    3.0000    0.0000    0.0000 N   0  0  0  0  0  0  0  0  0  0  0  0
    1.5000    0.0000    0.0000 C   0  0  0  0  0  0  0  0  0  0  0  0
    0.7500   -1.2990    0.0000 C   0  0  0  0  0  0  0  0  0  0  0  0
   -0.7500   -1.2990    0.0000 C   0  0  0  0  0  0  0  0  0  0  0  0
   -1.5000    0.0000    0.0000 C   0  0  0  0  0  0  0  0  0  0  0  0
   -3.0000    0.0000    0.0000 C   0  0  0  0  0  0  0  0  0  0  0  0
   -0.7500    1.2990    0.0000 C   0  0  0  0  0  0  0  0  0  0  0  0
    0.7500    1.2990    0.0000 C   0  0  0  0  0  0  0  0  0  0  0  0
    1.5000    2.5981    0.0000 O   0  0  0  0  0  0  0  0  0  0  0  0
    0.7500    3.8971    0.0000 C   0  0  0  0  0  0  0  0  0  0  0  0
  1  2  1  0
  2  3  1  0
  3  4  1  0
  4  5  1  6
  4  6  1  0
  6  7  1  0
  7  8  2  0
  7  9  1  0
  9 10  1  0
 10 11  2  0
 11 12  1  0
 12 13  2  0
 13 14  1  0
 13 15  1  0
 15 16  2  0
 16 17  1  0
 17 18  1  0
 16 10  1  0
M  END
>  <Compound_ID>  (803) 
C49359082

>  <Active>  (803) 
0.0

>  <Smiles>  (803) 
CCC[C@@H](C)NC(=O)Nc1ccc(C)cc1OC

>  <canonical_smi>  (803) 
CCC[C@@H](C)NC(=O)Nc1ccc(C)cc1OC

>  <Set>  (803) 
G2 inactive

>  <Set_type>  (803) 
Train

>  <MW>  (803) 
250.34

>  <HBD>  (803) 
2

>  <HBA>  (803) 
2

>  <NRB>  (803) 
5

>  <NR>  (803) 
1

>  <NAR>  (803) 
1

>  <PSA>  (803) 
50.36

>  <Standard Type>  (803) 
nan

>  <Standard Relation>  (803) 
nan

>  <Standard Units>  (803) 
nan

>  <Standard Value>  (803) 
nan

>  <Assay ChEMBL ID>  (803) 
nan

>  <Assay Description>  (803) 
nan

>  <BAO Label>  (803) 
nan

$$$$

     RDKit          2D

 21 23  0  0  0  0  0  0  0  0999 V2000
    5.6464    8.9702    0.0000 C   0  0  0  0  0  0  0  0  0  0  0  0
    4.1791    8.6583    0.0000 C   0  0  0  0  0  0  0  0  0  0  0  0
    3.7156    7.2317    0.0000 C   0  0  0  0  0  0  0  0  0  0  0  0
    2.2484    6.9199    0.0000 C   0  0  0  0  0  0  0  0  0  0  0  0
    1.7849    5.4933    0.0000 C   0  0  0  0  0  0  0  0  0  0  0  0
    2.7886    4.3786    0.0000 C   0  0  0  0  0  0  0  0  0  0  0  0
    2.3250    2.9520    0.0000 C   0  0  0  0  0  0  0  0  0  0  0  0
    0.8578    2.6401    0.0000 C   0  0  0  0  0  0  0  0  0  0  0  0
    0.3943    1.2135    0.0000 C   0  0  0  0  0  0  0  0  0  0  0  0
    1.2760    0.0000    0.0000 N   0  0  0  0  0  0  0  0  0  0  0  0
    0.3943   -1.2135    0.0000 N   0  0  0  0  0  0  0  0  0  0  0  0
   -1.0323   -0.7500    0.0000 C   0  0  0  0  0  0  0  0  0  0  0  0
   -2.3313   -1.5000    0.0000 C   0  0  0  0  0  0  0  0  0  0  0  0
   -2.3313   -3.0000    0.0000 N   0  0  0  0  0  0  0  0  0  0  0  0
   -3.6304   -0.7500    0.0000 C   0  0  0  0  0  0  0  0  0  0  0  0
   -4.9294   -1.5000    0.0000 C   0  0  0  0  0  0  0  0  0  0  0  0
   -3.6304    0.7500    0.0000 C   0  0  0  0  0  0  0  0  0  0  0  0
   -2.3313    1.5000    0.0000 C   0  0  0  0  0  0  0  0  0  0  0  0
   -1.0323    0.7500    0.0000 N   0  0  0  0  0  0  0  0  0  0  0  0
   -0.1459    3.7548    0.0000 C   0  0  0  0  0  0  0  0  0  0  0  0
    0.3177    5.1814    0.0000 C   0  0  0  0  0  0  0  0  0  0  0  0
  1  2  1  0
  2  3  1  0
  3  4  1  0
  4  5  1  0
  5  6  1  0
  6  7  1  0
  7  8  1  0
  8  9  1  0
  9 10  2  0
 10 11  1  0
 11 12  2  0
 12 13  1  0
 13 14  1  0
 13 15  2  0
 15 16  1  0
 15 17  1  0
 17 18  2  0
 18 19  1  0
  8 20  1  0
 20 21  1  0
 21  5  1  0
 19  9  1  0
 19 12  1  0
M  END
>  <Compound_ID>  (804) 
C49771001

>  <Active>  (804) 
0.0

>  <Smiles>  (804) 
CCCCC1CCC(c2nnc3c(N)c(C)ccn23)CC1

>  <canonical_smi>  (804) 
CCCCC1CCC(c2nnc3c(N)c(C)ccn23)CC1

>  <Set>  (804) 
G2 inactive

>  <Set_type>  (804) 
Train

>  <MW>  (804) 
286.42

>  <HBD>  (804) 
1

>  <HBA>  (804) 
3

>  <NRB>  (804) 
4

>  <NR>  (804) 
3

>  <NAR>  (804) 
2

>  <PSA>  (804) 
56.21

>  <Standard Type>  (804) 
nan

>  <Standard Relation>  (804) 
nan

>  <Standard Units>  (804) 
nan

>  <Standard Value>  (804) 
nan

>  <Assay ChEMBL ID>  (804) 
nan

>  <Assay Description>  (804) 
nan

>  <BAO Label>  (804) 
nan

$$$$

     RDKit          2D

 27 29  0  0  0  0  0  0  0  0999 V2000
    7.7127   -1.9451    0.0000 H   0  0  0  0  0  0  0  0  0  0  0  0
    6.2455   -2.2570    0.0000 N   0  0  0  0  0  0  0  0  0  0  0  0
    5.2418   -1.1422    0.0000 C   0  0  0  0  0  0  0  0  0  0  0  0
    5.5537    0.3250    0.0000 C   0  0  0  0  0  0  0  0  0  0  0  0
    4.2546    1.0750    0.0000 C   0  0  0  0  0  0  0  0  0  0  0  0
    4.0978    2.5668    0.0000 C   0  0  0  0  0  0  0  0  0  0  0  0
    3.1399    0.0713    0.0000 S   0  0  0  0  0  0  0  0  0  0  0  0
    3.7500   -1.2990    0.0000 N   0  0  0  0  0  0  0  0  0  0  0  0
    3.0000   -2.5981    0.0000 C   0  0  0  0  0  0  0  0  0  0  0  0
    1.5000   -2.5981    0.0000 N   0  0  0  0  0  0  0  0  0  0  0  0
    0.7500   -1.2990    0.0000 C   0  0  0  0  0  0  0  0  0  0  0  0
    1.5000    0.0000    0.0000 C   0  0  0  0  0  0  0  0  0  0  0  0
    0.7500    1.2990    0.0000 C   0  0  0  0  0  0  0  0  0  0  0  0
   -0.7500    1.2990    0.0000 C   0  0  0  0  0  0  0  0  0  0  0  0
   -1.5000    0.0000    0.0000 C   0  0  0  0  0  0  0  0  0  0  0  0
   -3.0000    0.0000    0.0000 O   0  0  0  0  0  0  0  0  0  0  0  0
   -3.7500    1.2990    0.0000 C   0  0  0  0  0  0  0  0  0  0  0  0
   -0.7500   -1.2990    0.0000 C   0  0  0  0  0  0  0  0  0  0  0  0
    3.7500   -3.8971    0.0000 N   0  0  0  0  0  0  0  0  0  0  0  0
    3.0000   -5.1962    0.0000 C   0  0  0  0  0  0  0  0  0  0  0  0
    1.5000   -5.1962    0.0000 C   0  0  0  0  0  0  0  0  0  0  0  0
    0.7500   -6.4952    0.0000 C   0  0  0  0  0  0  0  0  0  0  0  0
   -0.7500   -6.4952    0.0000 C   0  0  0  0  0  0  0  0  0  0  0  0
    1.5000   -7.7942    0.0000 C   0  0  0  0  0  0  0  0  0  0  0  0
    3.0000   -7.7942    0.0000 C   0  0  0  0  0  0  0  0  0  0  0  0
    3.7500   -9.0933    0.0000 C   0  0  0  0  0  0  0  0  0  0  0  0
    3.7500   -6.4952    0.0000 C   0  0  0  0  0  0  0  0  0  0  0  0
  1  2  1  0
  2  3  2  0
  3  4  1  0
  4  5  2  0
  5  6  1  0
  5  7  1  0
  7  8  1  0
  8  9  1  0
  9 10  2  0
 10 11  1  0
 11 12  2  0
 12 13  1  0
 13 14  2  0
 14 15  1  0
 15 16  1  0
 16 17  1  0
 15 18  2  0
  9 19  1  0
 19 20  1  0
 20 21  2  0
 21 22  1  0
 22 23  1  0
 22 24  2  0
 24 25  1  0
 25 26  1  0
 25 27  2  0
  8  3  1  0
 18 11  1  0
 27 20  1  0
M  END
>  <Compound_ID>  (805) 
C20345281

>  <Active>  (805) 
0.0

>  <Smiles>  (805) 
[H]/N=c1\cc(C)sn1/C(=N\c1cccc(OC)c1)Nc1cc(C)cc(C)c1

>  <canonical_smi>  (805) 
[H]/N=c1\cc(C)sn1/C(=N\c1cccc(OC)c1)Nc1cc(C)cc(C)c1

>  <Set>  (805) 
G2 inactive

>  <Set_type>  (805) 
Train

>  <MW>  (805) 
366.49

>  <HBD>  (805) 
2

>  <HBA>  (805) 
2

>  <NRB>  (805) 
3

>  <NR>  (805) 
3

>  <NAR>  (805) 
3

>  <PSA>  (805) 
62.4

>  <Standard Type>  (805) 
nan

>  <Standard Relation>  (805) 
nan

>  <Standard Units>  (805) 
nan

>  <Standard Value>  (805) 
nan

>  <Assay ChEMBL ID>  (805) 
nan

>  <Assay Description>  (805) 
nan

>  <BAO Label>  (805) 
nan

$$$$

     RDKit          2D

 33 35  0  0  0  0  0  0  0  0999 V2000
   -1.8681  -13.6161    0.0000 C   0  0  0  0  0  0  0  0  0  0  0  0
   -0.6546  -12.7344    0.0000 C   0  0  0  0  0  0  0  0  0  0  0  0
   -0.8113  -11.2427    0.0000 N   0  0  0  0  0  0  0  0  0  0  0  0
    0.4022  -10.3610    0.0000 N   0  0  0  0  0  0  0  0  0  0  0  0
    0.2454   -8.8692    0.0000 C   0  0  0  0  0  0  0  0  0  0  0  0
   -1.0537   -8.1192    0.0000 N   0  0  0  0  0  0  0  0  0  0  0  0
   -0.7418   -6.6520    0.0000 C   0  0  0  0  0  0  0  0  0  0  0  0
   -1.7455   -5.5373    0.0000 O   0  0  0  0  0  0  0  0  0  0  0  0
    0.7500   -6.4952    0.0000 C   0  0  0  0  0  0  0  0  0  0  0  0
    1.5000   -5.1962    0.0000 C   0  0  0  0  0  0  0  0  0  0  0  0
    0.7500   -3.8971    0.0000 C   0  0  0  0  0  0  0  0  0  0  0  0
   -0.7500   -3.8971    0.0000 O   0  0  0  0  0  0  0  0  0  0  0  0
    1.5000   -2.5981    0.0000 N   0  0  0  0  0  0  0  0  0  0  0  0
    0.7500   -1.2990    0.0000 C   0  0  0  0  0  0  0  0  0  0  0  0
    1.5000    0.0000    0.0000 C   0  0  0  0  0  0  0  0  0  0  0  0
    0.7500    1.2990    0.0000 C   0  0  0  0  0  0  0  0  0  0  0  0
   -0.7500    1.2990    0.0000 C   0  0  0  0  0  0  0  0  0  0  0  0
   -1.5000    2.5981    0.0000 Cl  0  0  0  0  0  0  0  0  0  0  0  0
   -1.5000    0.0000    0.0000 C   0  0  0  0  0  0  0  0  0  0  0  0
   -3.0000    0.0000    0.0000 C   0  0  0  0  0  0  0  0  0  0  0  0
   -4.5000    0.0000    0.0000 F   0  0  0  0  0  0  0  0  0  0  0  0
   -3.0000    1.5000    0.0000 F   0  0  0  0  0  0  0  0  0  0  0  0
   -3.0000   -1.5000    0.0000 F   0  0  0  0  0  0  0  0  0  0  0  0
   -0.7500   -1.2990    0.0000 C   0  0  0  0  0  0  0  0  0  0  0  0
    1.3601   -7.8655    0.0000 S   0  0  0  0  0  0  0  0  0  0  0  0
    0.7158  -13.3446    0.0000 C   0  0  0  0  0  0  0  0  0  0  0  0
    0.8726  -14.8363    0.0000 C   0  0  0  0  0  0  0  0  0  0  0  0
    2.2429  -15.4464    0.0000 C   0  0  0  0  0  0  0  0  0  0  0  0
    3.4564  -14.5648    0.0000 C   0  0  0  0  0  0  0  0  0  0  0  0
    4.8267  -15.1749    0.0000 O   0  0  0  0  0  0  0  0  0  0  0  0
    4.9835  -16.6667    0.0000 C   0  0  0  0  0  0  0  0  0  0  0  0
    3.2996  -13.0730    0.0000 C   0  0  0  0  0  0  0  0  0  0  0  0
    1.9293  -12.4629    0.0000 C   0  0  0  0  0  0  0  0  0  0  0  0
  1  2  2  0
  2  3  1  0
  3  4  1  0
  4  5  2  0
  5  6  1  0
  6  7  1  0
  7  8  2  0
  7  9  1  0
  9 10  1  6
 10 11  1  0
 11 12  2  0
 11 13  1  0
 13 14  1  0
 14 15  2  0
 15 16  1  0
 16 17  2  0
 17 18  1  0
 17 19  1  0
 19 20  1  0
 20 21  1  0
 20 22  1  0
 20 23  1  0
 19 24  2  0
  9 25  1  0
  2 26  1  0
 26 27  2  0
 27 28  1  0
 28 29  2  0
 29 30  1  0
 30 31  1  0
 29 32  1  0
 32 33  2  0
 25  5  1  0
 33 26  1  0
 24 14  1  0
M  END
>  <Compound_ID>  (806) 
C02654088

>  <Active>  (806) 
0.0

>  <Smiles>  (806) 
C=C(N/N=C1\NC(=O)[C@H](CC(=O)Nc2ccc(Cl)c(C(F)(F)F)c2)S1)c1ccc(OC)cc1

>  <canonical_smi>  (806) 
C=C(N/N=C1\NC(=O)[C@H](CC(=O)Nc2ccc(Cl)c(C(F)(F)F)c2)S1)c1ccc(OC)cc1

>  <Set>  (806) 
G2 inactive

>  <Set_type>  (806) 
Train

>  <MW>  (806) 
498.91

>  <HBD>  (806) 
3

>  <HBA>  (806) 
5

>  <NRB>  (806) 
7

>  <NR>  (806) 
3

>  <NAR>  (806) 
2

>  <PSA>  (806) 
91.82

>  <Standard Type>  (806) 
nan

>  <Standard Relation>  (806) 
nan

>  <Standard Units>  (806) 
nan

>  <Standard Value>  (806) 
nan

>  <Assay ChEMBL ID>  (806) 
nan

>  <Assay Description>  (806) 
nan

>  <BAO Label>  (806) 
nan

$$$$

     RDKit          2D

 22 24  0  0  0  0  0  0  0  0999 V2000
   -5.0078   -5.8597    0.0000 C   0  0  0  0  0  0  0  0  0  0  0  0
   -3.6375   -5.2496    0.0000 N   0  0  0  0  0  4  0  0  0  0  0  0
   -2.4240   -6.1312    0.0000 C   0  0  0  0  0  0  0  0  0  0  0  0
   -1.0537   -5.5211    0.0000 N   0  0  0  0  0  0  0  0  0  0  0  0
   -0.7418   -4.0539    0.0000 N   0  0  0  0  0  0  0  0  0  0  0  0
    0.7500   -3.8971    0.0000 C   0  0  0  0  0  0  0  0  0  0  0  0
    1.5000   -2.5981    0.0000 N   0  0  0  0  0  0  0  0  0  0  0  0
    0.7500   -1.2990    0.0000 C   0  0  0  0  0  0  0  0  0  0  0  0
    1.5000    0.0000    0.0000 C   0  0  0  0  0  0  0  0  0  0  0  0
    0.7500    1.2990    0.0000 C   0  0  0  0  0  0  0  0  0  0  0  0
   -0.7500    1.2990    0.0000 C   0  0  0  0  0  0  0  0  0  0  0  0
   -1.5000    0.0000    0.0000 C   0  0  0  0  0  0  0  0  0  0  0  0
   -0.7500   -1.2990    0.0000 C   0  0  0  0  0  0  0  0  0  0  0  0
    1.3601   -5.2674    0.0000 S   0  0  0  0  0  0  0  0  0  0  0  0
    0.2454   -6.2711    0.0000 C   0  0  0  0  0  0  0  0  0  0  0  0
    0.4022   -7.7629    0.0000 S   0  0  0  0  0  0  0  0  0  0  0  0
   -3.4807   -3.7578    0.0000 C   0  0  0  0  0  0  0  0  0  0  0  0
   -2.1104   -3.1477    0.0000 C   0  0  0  0  0  0  0  0  0  0  0  0
   -1.9536   -1.6559    0.0000 C   0  0  0  0  0  0  0  0  0  0  0  0
   -3.1671   -0.7742    0.0000 C   0  0  0  0  0  0  0  0  0  0  0  0
   -4.5374   -1.3843    0.0000 C   0  0  0  0  0  0  0  0  0  0  0  0
   -4.6942   -2.8761    0.0000 C   0  0  0  0  0  0  0  0  0  0  0  0
  1  2  1  0
  2  3  1  0
  3  4  1  0
  4  5  1  0
  5  6  2  0
  6  7  1  0
  7  8  1  0
  8  9  1  0
  9 10  1  0
 10 11  1  0
 11 12  1  0
 12 13  1  0
  6 14  1  0
 14 15  1  0
 15 16  2  0
  2 17  1  0
 17 18  1  0
 18 19  1  0
 19 20  1  0
 20 21  1  0
 21 22  1  0
 15  4  1  0
 22 17  1  0
 13  8  1  0
M  CHG  1   2   1
M  END
>  <Compound_ID>  (807) 
C28705180

>  <Active>  (807) 
0.0

>  <Smiles>  (807) 
C[NH+](Cn1nc(NC2CCCCC2)sc1=S)C1CCCCC1

>  <canonical_smi>  (807) 
C[NH+](Cn1nc(NC2CCCCC2)sc1=S)C1CCCCC1

>  <Set>  (807) 
G2 inactive

>  <Set_type>  (807) 
Train

>  <MW>  (807) 
341.57

>  <HBD>  (807) 
2

>  <HBA>  (807) 
3

>  <NRB>  (807) 
5

>  <NR>  (807) 
3

>  <NAR>  (807) 
1

>  <PSA>  (807) 
34.29

>  <Standard Type>  (807) 
nan

>  <Standard Relation>  (807) 
nan

>  <Standard Units>  (807) 
nan

>  <Standard Value>  (807) 
nan

>  <Assay ChEMBL ID>  (807) 
nan

>  <Assay Description>  (807) 
nan

>  <BAO Label>  (807) 
nan

$$$$

     RDKit          2D

 26 28  0  0  0  0  0  0  0  0999 V2000
    8.2500   -9.0933    0.0000 C   0  0  0  0  0  0  0  0  0  0  0  0
    7.5000   -7.7942    0.0000 C   0  0  0  0  0  0  0  0  0  0  0  0
    6.0000   -7.7942    0.0000 C   0  0  0  0  0  0  0  0  0  0  0  0
    5.2500   -9.0933    0.0000 C   0  0  0  0  0  0  0  0  0  0  0  0
    3.7500   -9.0933    0.0000 C   0  0  0  0  0  0  0  0  0  0  0  0
    3.0000   -7.7942    0.0000 C   0  0  0  0  0  0  0  0  0  0  0  0
    1.5000   -7.7942    0.0000 C   0  0  0  0  0  0  0  0  0  0  0  0
    0.7500   -6.4952    0.0000 N   0  0  0  0  0  0  0  0  0  0  0  0
    1.5000   -5.1962    0.0000 C   0  0  0  0  0  0  0  0  0  0  0  0
    3.0000   -5.1962    0.0000 O   0  0  0  0  0  0  0  0  0  0  0  0
    0.7500   -3.8971    0.0000 C   0  0  0  0  0  0  0  0  0  0  0  0
    1.5000   -2.5981    0.0000 C   0  0  0  0  0  0  0  0  0  0  0  0
    0.7500   -1.2990    0.0000 C   0  0  0  0  0  0  0  0  0  0  0  0
    1.5000    0.0000    0.0000 C   0  0  0  0  0  0  0  0  0  0  0  0
    0.7500    1.2990    0.0000 C   0  0  0  0  0  0  0  0  0  0  0  0
   -0.7500    1.2990    0.0000 C   0  0  0  0  0  0  0  0  0  0  0  0
   -1.5000    0.0000    0.0000 C   0  0  0  0  0  0  0  0  0  0  0  0
   -0.7500   -1.2990    0.0000 C   0  0  0  0  0  0  0  0  0  0  0  0
   -1.5000   -2.5981    0.0000 N   0  0  0  0  0  4  0  0  0  0  0  0
   -0.7500   -3.8971    0.0000 C   0  0  0  0  0  0  0  0  0  0  0  0
   -1.5000   -5.1962    0.0000 O   0  0  0  0  0  0  0  0  0  0  0  0
    0.7500   -9.0933    0.0000 C   0  0  0  0  0  0  0  0  0  0  0  0
    1.5000  -10.3923    0.0000 C   0  0  0  0  0  0  0  0  0  0  0  0
   -0.7500   -9.0933    0.0000 C   0  0  0  0  0  0  0  0  0  0  0  0
    3.7500   -6.4952    0.0000 C   0  0  0  0  0  0  0  0  0  0  0  0
    5.2500   -6.4952    0.0000 C   0  0  0  0  0  0  0  0  0  0  0  0
  1  2  1  0
  2  3  1  0
  3  4  2  0
  4  5  1  0
  5  6  2  0
  6  7  1  0
  7  8  1  1
  8  9  1  0
  9 10  2  0
 11  9  1  1
 11 12  1  0
 12 13  2  0
 13 14  1  0
 14 15  2  0
 15 16  1  0
 16 17  2  0
 17 18  1  0
 18 19  2  0
 19 20  1  0
 20 21  2  0
  7 22  1  0
 22 23  1  0
 22 24  1  0
  6 25  1  0
 25 26  2  0
 26  3  1  0
 20 11  1  0
 18 13  1  0
M  CHG  1  19   1
M  END
>  <Compound_ID>  (808) 
C39796137

>  <Active>  (808) 
0.0

>  <Smiles>  (808) 
CCc1ccc([C@H](NC(=O)[C@@H]2C=c3ccccc3=[NH+]C2=O)C(C)C)cc1

>  <canonical_smi>  (808) 
CCc1ccc([C@H](NC(=O)[C@@H]2C=c3ccccc3=[NH+]C2=O)C(C)C)cc1

>  <Set>  (808) 
G2 inactive

>  <Set_type>  (808) 
Train

>  <MW>  (808) 
349.45

>  <HBD>  (808) 
2

>  <HBA>  (808) 
2

>  <NRB>  (808) 
5

>  <NR>  (808) 
3

>  <NAR>  (808) 
2

>  <PSA>  (808) 
60.14

>  <Standard Type>  (808) 
nan

>  <Standard Relation>  (808) 
nan

>  <Standard Units>  (808) 
nan

>  <Standard Value>  (808) 
nan

>  <Assay ChEMBL ID>  (808) 
nan

>  <Assay Description>  (808) 
nan

>  <BAO Label>  (808) 
nan

$$$$

     RDKit          2D

 26 28  0  0  0  0  0  0  0  0999 V2000
   12.4255   -4.0175    0.0000 C   0  0  0  0  0  0  0  0  0  0  0  0
   11.0552   -3.4074    0.0000 C   0  0  0  0  0  0  0  0  0  0  0  0
    9.8417   -4.2890    0.0000 C   0  0  0  0  0  0  0  0  0  0  0  0
    8.4713   -3.6789    0.0000 N   0  0  0  0  0  4  0  0  0  0  0  0
    7.2578   -4.5606    0.0000 C   0  0  0  0  0  0  0  0  0  0  0  0
    5.8875   -3.9505    0.0000 C   0  0  0  0  0  0  0  0  0  0  0  0
    5.7307   -2.4587    0.0000 O   0  0  0  0  0  0  0  0  0  0  0  0
    4.6740   -4.8322    0.0000 N   0  0  0  0  0  0  0  0  0  0  0  0
    3.3037   -4.2221    0.0000 C   0  0  0  0  0  0  0  0  0  0  0  0
    2.9918   -2.7549    0.0000 N   0  0  0  0  0  0  0  0  0  0  0  0
    1.5000   -2.5981    0.0000 C   0  0  0  0  0  0  0  0  0  0  0  0
    0.7500   -1.2990    0.0000 C   0  0  0  0  0  0  0  0  0  0  0  0
    1.5000    0.0000    0.0000 C   0  0  0  0  0  0  0  0  0  0  0  0
    0.7500    1.2990    0.0000 C   0  0  0  0  0  0  0  0  0  0  0  0
   -0.7500    1.2990    0.0000 C   0  0  0  0  0  0  0  0  0  0  0  0
   -1.5000    0.0000    0.0000 C   0  0  0  0  0  0  0  0  0  0  0  0
   -0.7500   -1.2990    0.0000 C   0  0  0  0  0  0  0  0  0  0  0  0
    0.8899   -3.9684    0.0000 C   0  0  0  0  0  0  0  0  0  0  0  0
    2.0046   -4.9721    0.0000 N   0  0  0  0  0  0  0  0  0  0  0  0
    1.8478   -6.4639    0.0000 C   0  0  0  0  0  0  0  0  0  0  0  0
    0.4775   -7.0740    0.0000 C   0  0  0  0  0  0  0  0  0  0  0  0
    0.3207   -8.5658    0.0000 C   0  0  0  0  0  0  0  0  0  0  0  0
    1.5342   -9.4474    0.0000 C   0  0  0  0  0  0  0  0  0  0  0  0
    1.3774  -10.9392    0.0000 C   0  0  0  0  0  0  0  0  0  0  0  0
    2.9046   -8.8373    0.0000 C   0  0  0  0  0  0  0  0  0  0  0  0
    3.0613   -7.3456    0.0000 C   0  0  0  0  0  0  0  0  0  0  0  0
  1  2  2  0
  2  3  1  0
  3  4  1  0
  4  5  1  0
  5  6  1  0
  6  7  2  0
  6  8  1  0
  8  9  2  0
  9 10  1  0
 10 11  1  0
 11 12  1  0
 12 13  2  0
 13 14  1  0
 14 15  2  0
 15 16  1  0
 16 17  2  0
 11 18  2  0
 18 19  1  0
 19 20  1  0
 20 21  2  0
 21 22  1  0
 22 23  2  0
 23 24  1  0
 23 25  1  0
 25 26  2  0
 19  9  1  0
 26 20  1  0
 17 12  1  0
M  CHG  1   4   1
M  END
>  <Compound_ID>  (809) 
C36039440

>  <Active>  (809) 
0.0

>  <Smiles>  (809) 
C=CC[NH2+]CC(=O)/N=c1\[nH]c(-c2ccccc2)cn1-c1ccc(C)cc1

>  <canonical_smi>  (809) 
C=CC[NH2+]CC(=O)/N=c1\[nH]c(-c2ccccc2)cn1-c1ccc(C)cc1

>  <Set>  (809) 
G2 inactive

>  <Set_type>  (809) 
Train

>  <MW>  (809) 
347.44

>  <HBD>  (809) 
2

>  <HBA>  (809) 
1

>  <NRB>  (809) 
6

>  <NR>  (809) 
3

>  <NAR>  (809) 
3

>  <PSA>  (809) 
66.76

>  <Standard Type>  (809) 
nan

>  <Standard Relation>  (809) 
nan

>  <Standard Units>  (809) 
nan

>  <Standard Value>  (809) 
nan

>  <Assay ChEMBL ID>  (809) 
nan

>  <Assay Description>  (809) 
nan

>  <BAO Label>  (809) 
nan

$$$$

     RDKit          2D

 21 23  0  0  0  0  0  0  0  0999 V2000
    4.2558    4.6904    0.0000 C   0  0  0  0  0  0  0  0  0  0  0  0
    2.7886    4.3786    0.0000 C   0  0  0  0  0  0  0  0  0  0  0  0
    1.7849    5.4933    0.0000 N   0  0  0  0  0  4  0  0  0  0  0  0
    2.3250    2.9520    0.0000 C   0  0  0  0  0  0  0  0  0  0  0  0
    0.8578    2.6401    0.0000 S   0  0  0  0  0  0  0  0  0  0  0  0
    0.3943    1.2135    0.0000 C   0  0  0  0  0  0  0  0  0  0  0  0
    1.2760    0.0000    0.0000 N   0  0  0  0  0  0  0  0  0  0  0  0
    0.3943   -1.2135    0.0000 N   0  0  0  0  0  0  0  0  0  0  0  0
   -1.0323   -0.7500    0.0000 N   0  0  0  0  0  0  0  0  0  0  0  0
   -1.0323    0.7500    0.0000 N   0  0  0  0  0  0  0  0  0  0  0  0
   -2.2458    1.6317    0.0000 C   0  0  0  0  0  0  0  0  0  0  0  0
   -3.6724    1.1682    0.0000 C   0  0  0  0  0  0  0  0  0  0  0  0
   -4.5541    2.3817    0.0000 C   0  0  0  0  0  0  0  0  0  0  0  0
   -3.6724    3.5952    0.0000 C   0  0  0  0  0  0  0  0  0  0  0  0
   -2.2458    3.1317    0.0000 C   0  0  0  0  0  0  0  0  0  0  0  0
    3.3287    1.8373    0.0000 C   0  0  0  0  0  0  0  0  0  0  0  0
    4.8205    1.9941    0.0000 C   0  0  0  0  0  0  0  0  0  0  0  0
    5.4306    0.6237    0.0000 C   0  0  0  0  0  0  0  0  0  0  0  0
    4.3159   -0.3800    0.0000 C   0  0  0  0  0  0  0  0  0  0  0  0
    4.4727   -1.8717    0.0000 Cl  0  0  0  0  0  0  0  0  0  0  0  0
    3.0169    0.3700    0.0000 S   0  0  0  0  0  0  0  0  0  0  0  0
  2  1  1  6
  2  3  1  0
  2  4  1  0
  4  5  1  6
  5  6  1  0
  6  7  2  0
  7  8  1  0
  8  9  2  0
  9 10  1  0
 10 11  1  0
 11 12  1  0
 12 13  1  0
 13 14  1  0
 14 15  1  0
  4 16  1  0
 16 17  2  0
 17 18  1  0
 18 19  2  0
 19 20  1  0
 19 21  1  0
 10  6  1  0
 15 11  1  0
 21 16  1  0
M  CHG  1   3   1
M  END
>  <Compound_ID>  (810) 
C43257233

>  <Active>  (810) 
0.0

>  <Smiles>  (810) 
C[C@@H]([NH3+])[C@@H](Sc1nnnn1C1CCCC1)c1ccc(Cl)s1

>  <canonical_smi>  (810) 
C[C@@H]([NH3+])[C@@H](Sc1nnnn1C1CCCC1)c1ccc(Cl)s1

>  <Set>  (810) 
G2 inactive

>  <Set_type>  (810) 
Train

>  <MW>  (810) 
344.92

>  <HBD>  (810) 
1

>  <HBA>  (810) 
4

>  <NRB>  (810) 
5

>  <NR>  (810) 
3

>  <NAR>  (810) 
2

>  <PSA>  (810) 
71.24

>  <Standard Type>  (810) 
nan

>  <Standard Relation>  (810) 
nan

>  <Standard Units>  (810) 
nan

>  <Standard Value>  (810) 
nan

>  <Assay ChEMBL ID>  (810) 
nan

>  <Assay Description>  (810) 
nan

>  <BAO Label>  (810) 
nan

$$$$

     RDKit          2D

 24 25  0  0  0  0  0  0  0  0999 V2000
    3.7500   -1.2990    0.0000 C   0  0  0  0  0  0  0  0  0  0  0  0
    3.0000    0.0000    0.0000 C   0  0  0  0  0  0  0  0  0  0  0  0
    3.7500    1.2990    0.0000 C   0  0  0  0  0  0  0  0  0  0  0  0
    1.5000    0.0000    0.0000 C   0  0  0  0  0  0  0  0  0  0  0  0
    0.7500   -1.2990    0.0000 C   0  0  0  0  0  0  0  0  0  0  0  0
   -0.7500   -1.2990    0.0000 C   0  0  0  0  0  0  0  0  0  0  0  0
   -1.5000    0.0000    0.0000 C   0  0  0  0  0  0  0  0  0  0  0  0
   -3.0000    0.0000    0.0000 C   0  0  0  0  0  0  0  0  0  0  0  0
   -0.7500    1.2990    0.0000 C   0  0  0  0  0  0  0  0  0  0  0  0
    0.7500    1.2990    0.0000 C   0  0  0  0  0  0  0  0  0  0  0  0
    1.5000    2.5981    0.0000 O   0  0  0  0  0  0  0  0  0  0  0  0
    0.7500    3.8971    0.0000 C   0  0  0  0  0  0  0  0  0  0  0  0
   -0.7500    3.8971    0.0000 O   0  0  0  0  0  0  0  0  0  0  0  0
    1.5000    5.1962    0.0000 C   0  0  0  0  0  0  0  0  0  0  0  0
    0.7500    6.4952    0.0000 N   0  0  0  0  0  4  0  0  0  0  0  0
    1.5000    7.7942    0.0000 C   0  0  0  0  0  0  0  0  0  0  0  0
    0.7500    9.0933    0.0000 C   0  0  0  0  0  0  0  0  0  0  0  0
   -0.7500    9.0933    0.0000 C   0  0  0  0  0  0  0  0  0  0  0  0
   -1.5000   10.3923    0.0000 C   0  0  0  0  0  0  0  0  0  0  0  0
   -0.7500   11.6913    0.0000 C   0  0  0  0  0  0  0  0  0  0  0  0
   -1.5000   12.9904    0.0000 N   0  0  0  0  0  0  0  0  0  0  0  0
    0.7500   11.6913    0.0000 O   0  0  0  0  0  0  0  0  0  0  0  0
   -1.5000    7.7942    0.0000 C   0  0  0  0  0  0  0  0  0  0  0  0
   -0.7500    6.4952    0.0000 C   0  0  0  0  0  0  0  0  0  0  0  0
  1  2  1  0
  2  3  1  0
  4  2  1  6
  4  5  1  0
  5  6  1  0
  6  7  1  0
  7  8  1  6
  7  9  1  0
  9 10  1  0
 10 11  1  1
 11 12  1  0
 12 13  2  0
 12 14  1  0
 14 15  1  0
 15 16  1  0
 16 17  1  0
 17 18  1  0
 18 19  1  0
 19 20  1  0
 20 21  1  0
 20 22  2  0
 18 23  1  0
 23 24  1  0
 10  4  1  0
 24 15  1  0
M  CHG  1  15   1
M  END
>  <Compound_ID>  (811) 
C48024988

>  <Active>  (811) 
0.0

>  <Smiles>  (811) 
CC(C)[C@@H]1CC[C@H](C)C[C@H]1OC(=O)C[NH+]1CCC(CC(N)=O)CC1

>  <canonical_smi>  (811) 
CC(C)[C@@H]1CC[C@H](C)C[C@H]1OC(=O)C[NH+]1CCC(CC(N)=O)CC1

>  <Set>  (811) 
G2 inactive

>  <Set_type>  (811) 
Train

>  <MW>  (811) 
339.5

>  <HBD>  (811) 
2

>  <HBA>  (811) 
3

>  <NRB>  (811) 
6

>  <NR>  (811) 
2

>  <NAR>  (811) 
0

>  <PSA>  (811) 
73.83

>  <Standard Type>  (811) 
nan

>  <Standard Relation>  (811) 
nan

>  <Standard Units>  (811) 
nan

>  <Standard Value>  (811) 
nan

>  <Assay ChEMBL ID>  (811) 
nan

>  <Assay Description>  (811) 
nan

>  <BAO Label>  (811) 
nan

$$$$

     RDKit          2D

 26 28  0  0  0  0  0  0  0  0999 V2000
    5.2500   -1.2990    0.0000 C   0  0  0  0  0  0  0  0  0  0  0  0
    3.7500   -1.2990    0.0000 C   0  0  0  0  0  0  0  0  0  0  0  0
    3.0000    0.0000    0.0000 N   0  0  0  0  0  0  0  0  0  0  0  0
    3.7500    1.2990    0.0000 C   0  0  0  0  0  0  0  0  0  0  0  0
    5.2500    1.2990    0.0000 C   0  0  0  0  0  0  0  0  0  0  0  0
    1.5000    0.0000    0.0000 C   0  0  0  0  0  0  0  0  0  0  0  0
    0.7500   -1.2990    0.0000 N   0  0  0  0  0  0  0  0  0  0  0  0
   -0.7500   -1.2990    0.0000 P   0  0  0  0  0  5  0  0  0  0  0  0
   -2.1595   -1.8121    0.0000 O   0  0  0  0  0  0  0  0  0  0  0  0
   -0.4895   -2.7762    0.0000 C   0  0  0  0  0  0  0  0  0  0  0  0
   -1.6386   -3.7404    0.0000 C   0  0  0  0  0  0  0  0  0  0  0  0
   -1.3781   -5.2176    0.0000 C   0  0  0  0  0  0  0  0  0  0  0  0
    0.0314   -5.7307    0.0000 C   0  0  0  0  0  0  0  0  0  0  0  0
    1.1805   -4.7665    0.0000 C   0  0  0  0  0  0  0  0  0  0  0  0
    0.9200   -3.2893    0.0000 C   0  0  0  0  0  0  0  0  0  0  0  0
   -1.5000    0.0000    0.0000 N   0  0  0  0  0  0  0  0  0  0  0  0
   -0.7500    1.2990    0.0000 C   0  0  0  0  0  0  0  0  0  0  0  0
   -1.5000    2.5981    0.0000 C   0  0  0  0  0  0  0  0  0  0  0  0
   -0.7500    3.8971    0.0000 C   0  0  0  0  0  0  0  0  0  0  0  0
   -1.5000    5.1962    0.0000 C   0  0  0  0  0  0  0  0  0  0  0  0
   -3.0000    5.1962    0.0000 C   0  0  0  0  0  0  0  0  0  0  0  0
   -3.7500    3.8971    0.0000 C   0  0  0  0  0  0  0  0  0  0  0  0
   -3.0000    2.5981    0.0000 C   0  0  0  0  0  0  0  0  0  0  0  0
    0.7500    1.2990    0.0000 C   0  0  0  0  0  0  0  0  0  0  0  0
    1.5000    2.5981    0.0000 C   0  0  0  0  0  0  0  0  0  0  0  0
    2.2500    3.8971    0.0000 N   0  0  0  0  0  0  0  0  0  0  0  0
  1  2  1  0
  2  3  1  0
  3  4  1  0
  4  5  1  0
  3  6  1  0
  6  7  2  0
  7  8  1  0
  8  9  2  0
  8 10  1  1
 10 11  2  0
 11 12  1  0
 12 13  2  0
 13 14  1  0
 14 15  2  0
  8 16  1  0
 16 17  1  0
 17 18  1  0
 18 19  2  0
 19 20  1  0
 20 21  2  0
 21 22  1  0
 22 23  2  0
 17 24  2  0
 24 25  1  0
 25 26  3  0
 24  6  1  0
 15 10  1  0
 23 18  1  0
M  END
>  <Compound_ID>  (812) 
C03188701

>  <Active>  (812) 
0.0

>  <Smiles>  (812) 
CCN(CC)C1=N[P@@](=O)(c2ccccc2)NC(c2ccccc2)=C1C#N

>  <canonical_smi>  (812) 
CCN(CC)C1=N[P@@](=O)(c2ccccc2)NC(c2ccccc2)=C1C#N

>  <Set>  (812) 
G2 inactive

>  <Set_type>  (812) 
Train

>  <MW>  (812) 
364.39

>  <HBD>  (812) 
1

>  <HBA>  (812) 
4

>  <NRB>  (812) 
4

>  <NR>  (812) 
3

>  <NAR>  (812) 
2

>  <PSA>  (812) 
68.49

>  <Standard Type>  (812) 
nan

>  <Standard Relation>  (812) 
nan

>  <Standard Units>  (812) 
nan

>  <Standard Value>  (812) 
nan

>  <Assay ChEMBL ID>  (812) 
nan

>  <Assay Description>  (812) 
nan

>  <BAO Label>  (812) 
nan

$$$$

     RDKit          2D

 30 30  0  0  0  0  0  0  0  0999 V2000
    3.0000    0.0000    0.0000 C   0  0  0  0  0  0  0  0  0  0  0  0
    1.5000    0.0000    0.0000 C   0  0  0  0  0  0  0  0  0  0  0  0
    0.7500   -1.2990    0.0000 C   0  0  0  0  0  0  0  0  0  0  0  0
   -0.7500   -1.2990    0.0000 C   0  0  0  0  0  0  0  0  0  0  0  0
   -1.5000    0.0000    0.0000 C   0  0  0  0  0  0  0  0  0  0  0  0
   -0.7500    1.2990    0.0000 C   0  0  0  0  0  0  0  0  0  0  0  0
   -1.5000    2.5981    0.0000 C   0  0  0  0  0  0  0  0  0  0  0  0
    0.7500    1.2990    0.0000 C   0  0  0  0  0  0  0  0  0  0  0  0
    0.4895    2.7762    0.0000 C   0  0  0  0  0  0  0  0  0  0  0  0
    2.1595    1.8121    0.0000 C   0  0  0  0  0  0  0  0  0  0  0  0
    3.3086    0.8479    0.0000 C   0  0  0  0  0  0  0  0  0  0  0  0
    4.7181    1.3609    0.0000 C   0  0  0  0  0  0  0  0  0  0  0  0
    4.9786    2.8381    0.0000 C   0  0  0  0  0  0  0  0  0  0  0  0
    5.8672    0.3967    0.0000 C   0  0  0  0  0  0  0  0  0  0  0  0
    7.2768    0.9098    0.0000 C   0  0  0  0  0  0  0  0  0  0  0  0
    8.4258   -0.0544    0.0000 C   0  0  0  0  0  0  0  0  0  0  0  0
    9.8354    0.4586    0.0000 C   0  0  0  0  0  0  0  0  0  0  0  0
   10.9844   -0.5056    0.0000 C   0  0  0  0  0  0  0  0  0  0  0  0
   10.7240   -1.9828    0.0000 C   0  0  0  0  0  0  0  0  0  0  0  0
   11.8730   -2.9470    0.0000 S   0  0  0  0  0  0  0  0  0  0  0  0
   10.9088   -4.0960    0.0000 O   0  0  0  0  0  0  0  0  0  0  0  0
   12.8372   -1.7979    0.0000 O   0  0  0  0  0  0  0  0  0  0  0  0
   13.0221   -3.9111    0.0000 C   0  0  0  0  0  0  0  0  0  0  0  0
   14.4316   -3.3981    0.0000 C   0  0  0  0  0  0  0  0  0  0  0  0
   15.5807   -4.3623    0.0000 N   0  0  0  0  0  4  0  0  0  0  0  0
   16.9902   -3.8493    0.0000 C   0  0  0  0  0  0  0  0  0  0  0  0
   18.1393   -4.8134    0.0000 N   0  0  0  0  0  0  0  0  0  0  0  0
   17.2507   -2.3721    0.0000 N   0  0  0  0  0  0  0  0  0  0  0  0
   10.0958    1.9358    0.0000 C   0  0  0  0  0  0  0  0  0  0  0  0
   11.5054    2.4489    0.0000 O   0  0  0  0  0  0  0  0  0  0  0  0
  1  2  1  0
  2  3  2  0
  3  4  1  0
  4  5  1  0
  5  6  1  0
  6  7  1  1
  6  8  1  0
  8  9  1  1
  8 10  1  0
 10 11  1  0
 11 12  1  0
 12 13  1  0
 12 14  2  0
 14 15  1  0
 15 16  1  0
 16 17  1  0
 17 18  2  0
 18 19  1  0
 19 20  1  0
 20 21  2  0
 20 22  2  0
 20 23  1  0
 23 24  1  0
 24 25  1  0
 25 26  2  0
 26 27  1  0
 26 28  1  0
 17 29  1  0
 29 30  1  0
  8  2  1  0
M  CHG  1  25   1
M  END
>  <Compound_ID>  (813) 
C17218656

>  <Active>  (813) 
0.0

>  <Smiles>  (813) 
CC1=CCC[C@@H](C)[C@]1(C)CC/C(C)=C/CC/C(=C\CS(=O)(=O)CC[NH+]=C(N)N)CO

>  <canonical_smi>  (813) 
CC1=CCC[C@@H](C)[C@]1(C)CC/C(C)=C/CC/C(=C\CS(=O)(=O)CC[NH+]=C(N)N)CO

>  <Set>  (813) 
G2 inactive

>  <Set_type>  (813) 
Train

>  <MW>  (813) 
440.67

>  <HBD>  (813) 
4

>  <HBA>  (813) 
5

>  <NRB>  (813) 
12

>  <NR>  (813) 
1

>  <NAR>  (813) 
0

>  <PSA>  (813) 
120.38

>  <Standard Type>  (813) 
nan

>  <Standard Relation>  (813) 
nan

>  <Standard Units>  (813) 
nan

>  <Standard Value>  (813) 
nan

>  <Assay ChEMBL ID>  (813) 
nan

>  <Assay Description>  (813) 
nan

>  <BAO Label>  (813) 
nan

$$$$

     RDKit          2D

 29 31  0  0  0  0  0  0  0  0999 V2000
   10.5419   -9.1660    0.0000 C   0  0  0  0  0  0  0  0  0  0  0  0
    9.4272   -8.1623    0.0000 C   0  0  0  0  0  0  0  0  0  0  0  0
    8.3125   -7.1586    0.0000 C   0  0  0  0  0  0  0  0  0  0  0  0
    7.1978   -6.1549    0.0000 C   0  0  0  0  0  0  0  0  0  0  0  0
    7.5097   -4.6876    0.0000 C   0  0  0  0  0  0  0  0  0  0  0  0
    8.9362   -4.2241    0.0000 C   0  0  0  0  0  0  0  0  0  0  0  0
    6.3949   -3.6839    0.0000 C   0  0  0  0  0  0  0  0  0  0  0  0
    6.7068   -2.2167    0.0000 O   0  0  0  0  0  0  0  0  0  0  0  0
    4.9684   -4.1475    0.0000 C   0  0  0  0  0  0  0  0  0  0  0  0
    3.8536   -3.1438    0.0000 C   0  0  0  0  0  0  0  0  0  0  0  0
    2.4271   -3.6073    0.0000 C   0  0  0  0  0  0  0  0  0  0  0  0
    1.2135   -2.7256    0.0000 C   0  0  0  0  0  0  0  0  0  0  0  0
    0.7500   -1.2990    0.0000 C   0  0  0  0  0  0  0  0  0  0  0  0
    1.5000    0.0000    0.0000 C   0  0  0  0  0  0  0  0  0  0  0  0
    0.7500    1.2990    0.0000 C   0  0  0  0  0  0  0  0  0  0  0  0
   -0.7500    1.2990    0.0000 C   0  0  0  0  0  0  0  0  0  0  0  0
   -1.5000    0.0000    0.0000 C   0  0  0  0  0  0  0  0  0  0  0  0
   -3.0000    0.0000    0.0000 C   0  0  0  0  0  0  0  0  0  0  0  0
   -3.7500    1.2990    0.0000 C   0  0  0  0  0  0  0  0  0  0  0  0
   -5.2500    1.2990    0.0000 C   0  0  0  0  0  0  0  0  0  0  0  0
   -6.0000    2.5981    0.0000 C   0  0  0  0  0  0  0  0  0  0  0  0
   -5.2500    3.8971    0.0000 O   0  0  0  0  0  0  0  0  0  0  0  0
   -7.5000    2.5981    0.0000 O   0  0  0  0  0  1  0  0  0  0  0  0
   -0.7500   -1.2990    0.0000 C   0  0  0  0  0  0  0  0  0  0  0  0
   -1.2135   -2.7256    0.0000 O   0  0  0  0  0  0  0  0  0  0  0  0
    0.0000   -3.6073    0.0000 C   0  0  0  0  0  0  0  0  0  0  0  0
    0.4635   -5.0339    0.0000 C   0  0  0  0  0  0  0  0  0  0  0  0
    1.9635   -5.0339    0.0000 C   0  0  0  0  0  0  0  0  0  0  0  0
    2.8452   -6.2474    0.0000 O   0  0  0  0  0  0  0  0  0  0  0  0
  1  2  1  0
  2  3  3  0
  3  4  1  0
  4  5  1  0
  5  6  1  6
  5  7  1  0
  7  8  1  1
  7  9  1  0
  9 10  2  0
 11 10  1  6
 11 12  1  0
 12 13  1  6
 13 14  2  0
 14 15  1  0
 15 16  2  0
 16 17  1  0
 17 18  1  0
 18 19  1  0
 19 20  1  0
 20 21  1  0
 21 22  2  0
 21 23  1  0
 17 24  2  0
 24 25  1  0
 25 26  1  0
 26 27  1  6
 27 28  1  0
 28 29  1  6
 28 11  1  0
 26 12  1  0
 24 13  1  0
M  CHG  1  23  -1
M  END
>  <Compound_ID>  (814) 
C27642591

>  <Active>  (814) 
0.0

>  <Smiles>  (814) 
CC#CC[C@@H](C)[C@H](O)/C=C/[C@H]1[C@H]2c3cccc(CCCC(=O)[O-])c3O[C@H]2C[C@H]1O

>  <canonical_smi>  (814) 
CC#CC[C@@H](C)[C@H](O)/C=C/[C@H]1[C@H]2c3cccc(CCCC(=O)[O-])c3O[C@H]2C[C@H]1O

>  <Set>  (814) 
G2 inactive

>  <Set_type>  (814) 
Train

>  <MW>  (814) 
397.49

>  <HBD>  (814) 
2

>  <HBA>  (814) 
5

>  <NRB>  (814) 
8

>  <NR>  (814) 
3

>  <NAR>  (814) 
1

>  <PSA>  (814) 
89.82

>  <Standard Type>  (814) 
nan

>  <Standard Relation>  (814) 
nan

>  <Standard Units>  (814) 
nan

>  <Standard Value>  (814) 
nan

>  <Assay ChEMBL ID>  (814) 
nan

>  <Assay Description>  (814) 
nan

>  <BAO Label>  (814) 
nan

$$$$

     RDKit          2D

 25 26  0  0  0  0  0  0  0  0999 V2000
    3.0000    0.0000    0.0000 C   0  0  0  0  0  0  0  0  0  0  0  0
    1.5000    0.0000    0.0000 C   0  0  0  0  0  0  0  0  0  0  0  0
    0.7500   -1.2990    0.0000 C   0  0  0  0  0  0  0  0  0  0  0  0
   -0.7500   -1.2990    0.0000 C   0  0  0  0  0  0  0  0  0  0  0  0
   -1.5000    0.0000    0.0000 C   0  0  0  0  0  0  0  0  0  0  0  0
   -3.0000    0.0000    0.0000 C   0  0  0  0  0  0  0  0  0  0  0  0
   -3.8817   -1.2135    0.0000 N   0  0  0  0  0  0  0  0  0  0  0  0
   -5.3083   -0.7500    0.0000 C   0  0  0  0  0  0  0  0  0  0  0  0
   -5.3083    0.7500    0.0000 C   0  0  0  0  0  0  0  0  0  0  0  0
   -6.5218    1.6317    0.0000 C   0  0  0  0  0  0  0  0  0  0  0  0
   -7.8921    1.0216    0.0000 O   0  0  0  0  0  0  0  0  0  0  0  0
   -6.3650    3.1235    0.0000 N   0  0  0  0  0  0  0  0  0  0  0  0
   -7.5785    4.0051    0.0000 N   0  0  0  0  0  0  0  0  0  0  0  0
   -7.4217    5.4969    0.0000 C   0  0  0  0  0  0  0  0  0  0  0  0
   -8.6353    6.3786    0.0000 S   0  0  0  0  0  1  0  0  0  0  0  0
   -6.0514    6.1070    0.0000 N   0  0  0  0  0  0  0  0  0  0  0  0
   -5.8946    7.5988    0.0000 C   0  0  0  0  0  0  0  0  0  0  0  0
   -4.5243    8.2089    0.0000 C   0  0  0  0  0  0  0  0  0  0  0  0
   -3.1540    8.8190    0.0000 F   0  0  0  0  0  0  0  0  0  0  0  0
   -5.1344    9.5792    0.0000 F   0  0  0  0  0  0  0  0  0  0  0  0
   -3.9142    6.8386    0.0000 F   0  0  0  0  0  0  0  0  0  0  0  0
   -3.8817    1.2135    0.0000 S   0  0  0  0  0  0  0  0  0  0  0  0
   -0.7500    1.2990    0.0000 C   0  0  0  0  0  0  0  0  0  0  0  0
   -1.5000    2.5981    0.0000 C   0  0  0  0  0  0  0  0  0  0  0  0
    0.7500    1.2990    0.0000 C   0  0  0  0  0  0  0  0  0  0  0  0
  1  2  1  0
  2  3  2  0
  3  4  1  0
  4  5  2  0
  5  6  1  0
  6  7  2  0
  7  8  1  0
  8  9  2  0
  9 10  1  0
 10 11  2  0
 10 12  1  0
 12 13  1  0
 13 14  2  0
 14 15  1  0
 14 16  1  0
 16 17  1  0
 17 18  1  0
 18 19  1  0
 18 20  1  0
 18 21  1  0
  9 22  1  0
  5 23  1  0
 23 24  1  0
 23 25  2  0
 25  2  1  0
 22  6  1  0
M  CHG  1  15  -1
M  END
>  <Compound_ID>  (815) 
C61626862

>  <Active>  (815) 
0.0

>  <Smiles>  (815) 
Cc1ccc(-c2ncc(C(=O)N/N=C(/[S-])NCC(F)(F)F)s2)c(C)c1

>  <canonical_smi>  (815) 
Cc1ccc(-c2ncc(C(=O)N/N=C(/[S-])NCC(F)(F)F)s2)c(C)c1

>  <Set>  (815) 
G2 inactive

>  <Set_type>  (815) 
Train

>  <MW>  (815) 
387.43

>  <HBD>  (815) 
2

>  <HBA>  (815) 
4

>  <NRB>  (815) 
4

>  <NR>  (815) 
2

>  <NAR>  (815) 
2

>  <PSA>  (815) 
66.38

>  <Standard Type>  (815) 
nan

>  <Standard Relation>  (815) 
nan

>  <Standard Units>  (815) 
nan

>  <Standard Value>  (815) 
nan

>  <Assay ChEMBL ID>  (815) 
nan

>  <Assay Description>  (815) 
nan

>  <BAO Label>  (815) 
nan

$$$$

     RDKit          2D

 21 22  0  0  0  0  0  0  0  0999 V2000
    3.0000    0.0000    0.0000 O   0  0  0  0  0  0  0  0  0  0  0  0
    1.5000    0.0000    0.0000 C   0  0  0  0  0  0  0  0  0  0  0  0
    0.7500   -1.2990    0.0000 C   0  0  0  0  0  0  0  0  0  0  0  0
   -0.7500   -1.2990    0.0000 C   0  0  0  0  0  0  0  0  0  0  0  0
   -1.5000    0.0000    0.0000 C   0  0  0  0  0  0  0  0  0  0  0  0
   -3.0000    0.0000    0.0000 C   0  0  0  0  0  0  0  0  0  0  0  0
   -3.7500    1.2990    0.0000 N   0  0  0  0  0  0  0  0  0  0  0  0
   -5.2500    1.2990    0.0000 C   0  0  0  0  0  0  0  0  0  0  0  0
   -6.0000    2.5981    0.0000 C   0  0  0  0  0  0  0  0  0  0  0  0
   -7.5000    2.5981    0.0000 C   0  0  0  0  0  0  0  0  0  0  0  0
   -8.2500    1.2990    0.0000 C   0  0  0  0  0  0  0  0  0  0  0  0
   -9.7500    1.2990    0.0000 Br  0  0  0  0  0  0  0  0  0  0  0  0
   -7.5000    0.0000    0.0000 C   0  0  0  0  0  0  0  0  0  0  0  0
   -8.2500   -1.2990    0.0000 C   0  0  0  0  0  0  0  0  0  0  0  0
   -9.0000   -2.5981    0.0000 F   0  0  0  0  0  0  0  0  0  0  0  0
   -6.9510   -2.0490    0.0000 F   0  0  0  0  0  0  0  0  0  0  0  0
   -9.5490   -0.5490    0.0000 F   0  0  0  0  0  0  0  0  0  0  0  0
   -6.0000    0.0000    0.0000 C   0  0  0  0  0  0  0  0  0  0  0  0
   -0.7500    1.2990    0.0000 C   0  0  0  0  0  0  0  0  0  0  0  0
   -1.5000    2.5981    0.0000 O   0  0  0  0  0  0  0  0  0  0  0  0
    0.7500    1.2990    0.0000 C   0  0  0  0  0  0  0  0  0  0  0  0
  1  2  1  0
  2  3  2  0
  3  4  1  0
  4  5  2  0
  5  6  1  0
  6  7  1  0
  7  8  1  0
  8  9  2  0
  9 10  1  0
 10 11  2  0
 11 12  1  0
 11 13  1  0
 13 14  1  0
 14 15  1  0
 14 16  1  0
 14 17  1  0
 13 18  2  0
  5 19  1  0
 19 20  1  0
 19 21  2  0
 21  2  1  0
 18  8  1  0
M  END
>  <Compound_ID>  (816) 
C36952175

>  <Active>  (816) 
0.0

>  <Smiles>  (816) 
Oc1ccc(CNc2ccc(Br)c(C(F)(F)F)c2)c(O)c1

>  <canonical_smi>  (816) 
Oc1ccc(CNc2ccc(Br)c(C(F)(F)F)c2)c(O)c1

>  <Set>  (816) 
G2 inactive

>  <Set_type>  (816) 
Train

>  <MW>  (816) 
362.14

>  <HBD>  (816) 
3

>  <HBA>  (816) 
3

>  <NRB>  (816) 
3

>  <NR>  (816) 
2

>  <NAR>  (816) 
2

>  <PSA>  (816) 
52.49

>  <Standard Type>  (816) 
nan

>  <Standard Relation>  (816) 
nan

>  <Standard Units>  (816) 
nan

>  <Standard Value>  (816) 
nan

>  <Assay ChEMBL ID>  (816) 
nan

>  <Assay Description>  (816) 
nan

>  <BAO Label>  (816) 
nan

$$$$

     RDKit          2D

 22 23  0  0  0  0  0  0  0  0999 V2000
    0.7500   -6.4952    0.0000 C   0  0  0  0  0  0  0  0  0  0  0  0
    1.5000   -5.1962    0.0000 N   0  0  0  0  0  0  0  0  0  0  0  0
    3.0000   -5.1962    0.0000 C   0  0  0  0  0  0  0  0  0  0  0  0
    3.7500   -6.4952    0.0000 C   0  0  0  0  0  0  0  0  0  0  0  0
    5.2418   -6.6520    0.0000 C   0  0  0  0  0  0  0  0  0  0  0  0
    5.5537   -8.1192    0.0000 C   0  0  0  0  0  0  0  0  0  0  0  0
    4.2546   -8.8692    0.0000 C   0  0  0  0  0  0  0  0  0  0  0  0
    4.0978  -10.3610    0.0000 Cl  0  0  0  0  0  0  0  0  0  0  0  0
    3.1399   -7.8655    0.0000 S   0  0  0  0  0  0  0  0  0  0  0  0
    0.7500   -3.8971    0.0000 C   0  0  0  0  0  0  0  0  0  0  0  0
   -0.7500   -3.8971    0.0000 O   0  0  0  0  0  0  0  0  0  0  0  0
    1.5000   -2.5981    0.0000 N   0  0  0  0  0  0  0  0  0  0  0  0
    0.7500   -1.2990    0.0000 C   0  0  0  0  0  0  0  0  0  0  0  0
    1.5000    0.0000    0.0000 C   0  0  0  0  0  0  0  0  0  0  0  0
    0.7500    1.2990    0.0000 C   0  0  0  0  0  0  0  0  0  0  0  0
   -0.7500    1.2990    0.0000 C   0  0  0  0  0  0  0  0  0  0  0  0
   -1.5000    0.0000    0.0000 C   0  0  0  0  0  0  0  0  0  0  0  0
   -3.0000    0.0000    0.0000 C   0  0  0  0  0  0  0  0  0  0  0  0
   -4.5000    0.0000    0.0000 F   0  0  0  0  0  0  0  0  0  0  0  0
   -3.0000    1.5000    0.0000 F   0  0  0  0  0  0  0  0  0  0  0  0
   -3.0000   -1.5000    0.0000 F   0  0  0  0  0  0  0  0  0  0  0  0
   -0.7500   -1.2990    0.0000 C   0  0  0  0  0  0  0  0  0  0  0  0
  1  2  1  0
  2  3  1  0
  3  4  1  0
  4  5  2  0
  5  6  1  0
  6  7  2  0
  7  8  1  0
  7  9  1  0
  2 10  1  0
 10 11  2  0
 10 12  1  0
 13 12  1  6
 13 14  1  0
 14 15  1  0
 15 16  1  0
 16 17  1  0
 17 18  1  1
 18 19  1  0
 18 20  1  0
 18 21  1  0
 17 22  1  0
  9  4  1  0
 22 13  1  0
M  END
>  <Compound_ID>  (817) 
C26295086

>  <Active>  (817) 
0.0

>  <Smiles>  (817) 
CN(Cc1ccc(Cl)s1)C(=O)N[C@H]1CCC[C@H](C(F)(F)F)C1

>  <canonical_smi>  (817) 
CN(Cc1ccc(Cl)s1)C(=O)N[C@H]1CCC[C@H](C(F)(F)F)C1

>  <Set>  (817) 
G2 inactive

>  <Set_type>  (817) 
Train

>  <MW>  (817) 
354.83

>  <HBD>  (817) 
1

>  <HBA>  (817) 
1

>  <NRB>  (817) 
3

>  <NR>  (817) 
2

>  <NAR>  (817) 
1

>  <PSA>  (817) 
32.34

>  <Standard Type>  (817) 
nan

>  <Standard Relation>  (817) 
nan

>  <Standard Units>  (817) 
nan

>  <Standard Value>  (817) 
nan

>  <Assay ChEMBL ID>  (817) 
nan

>  <Assay Description>  (817) 
nan

>  <BAO Label>  (817) 
nan

$$$$

     RDKit          2D

 25 28  0  0  0  0  0  0  0  0999 V2000
   -1.5000   -5.1962    0.0000 O   0  0  0  0  0  0  0  0  0  0  0  0
   -0.7500   -3.8971    0.0000 C   0  0  0  0  0  0  0  0  0  0  0  0
    0.7500   -3.8971    0.0000 C   0  0  0  0  0  0  0  0  0  0  0  0
    1.5000   -2.5981    0.0000 C   0  0  0  0  0  0  0  0  0  0  0  0
    0.7500   -1.2990    0.0000 C   0  0  0  0  0  0  0  0  0  0  0  0
    1.5000    0.0000    0.0000 C   0  0  0  0  0  0  0  0  0  0  0  0
    0.7500    1.2990    0.0000 C   0  0  0  0  0  0  0  0  0  0  0  0
   -0.7500    1.2990    0.0000 C   0  0  0  0  0  0  0  0  0  0  0  0
   -1.5000    0.0000    0.0000 C   0  0  0  0  0  0  0  0  0  0  0  0
   -0.7500   -1.2990    0.0000 C   0  0  0  0  0  0  0  0  0  0  0  0
   -1.5000   -2.5981    0.0000 C   0  0  0  0  0  0  0  0  0  0  0  0
   -3.0000   -2.5981    0.0000 C   0  0  0  0  0  0  0  0  0  0  0  0
   -3.7500   -3.8971    0.0000 N   0  0  0  0  0  0  0  0  0  0  0  0
   -5.2500   -3.8971    0.0000 C   0  0  0  0  0  0  0  0  0  0  0  0
   -6.0000   -5.1962    0.0000 C   0  0  0  0  0  0  0  0  0  0  0  0
   -5.2500   -6.4952    0.0000 N   0  0  0  0  0  0  0  0  0  0  0  0
   -6.0000   -7.7942    0.0000 C   0  0  0  0  0  0  0  0  0  0  0  0
   -7.5000   -7.7942    0.0000 C   0  0  0  0  0  0  0  0  0  0  0  0
   -8.2500   -9.0933    0.0000 C   0  0  0  0  0  0  0  0  0  0  0  0
   -7.5000  -10.3923    0.0000 C   0  0  0  0  0  0  0  0  0  0  0  0
   -8.2500  -11.6913    0.0000 F   0  0  0  0  0  0  0  0  0  0  0  0
   -6.0000  -10.3923    0.0000 C   0  0  0  0  0  0  0  0  0  0  0  0
   -5.2500   -9.0933    0.0000 C   0  0  0  0  0  0  0  0  0  0  0  0
   -3.7500   -6.4952    0.0000 C   0  0  0  0  0  0  0  0  0  0  0  0
   -3.0000   -5.1962    0.0000 C   0  0  0  0  0  0  0  0  0  0  0  0
  1  2  1  0
  2  3  2  0
  3  4  1  0
  4  5  2  0
  5  6  1  0
  6  7  2  0
  7  8  1  0
  8  9  2  0
  9 10  1  0
 10 11  2  0
 11 12  1  0
 12 13  1  0
 13 14  1  0
 14 15  1  0
 15 16  1  0
 16 17  1  0
 17 18  2  0
 18 19  1  0
 19 20  2  0
 20 21  1  0
 20 22  1  0
 22 23  2  0
 16 24  1  0
 24 25  1  0
 11  2  1  0
 25 13  1  0
 10  5  1  0
 23 17  1  0
M  END
>  <Compound_ID>  (818) 
C23295819

>  <Active>  (818) 
0.0

>  <Smiles>  (818) 
Oc1ccc2ccccc2c1CN1CCN(c2ccc(F)cc2)CC1

>  <canonical_smi>  (818) 
Oc1ccc2ccccc2c1CN1CCN(c2ccc(F)cc2)CC1

>  <Set>  (818) 
G2 inactive

>  <Set_type>  (818) 
Train

>  <MW>  (818) 
336.41

>  <HBD>  (818) 
1

>  <HBA>  (818) 
3

>  <NRB>  (818) 
3

>  <NR>  (818) 
4

>  <NAR>  (818) 
3

>  <PSA>  (818) 
26.71

>  <Standard Type>  (818) 
nan

>  <Standard Relation>  (818) 
nan

>  <Standard Units>  (818) 
nan

>  <Standard Value>  (818) 
nan

>  <Assay ChEMBL ID>  (818) 
nan

>  <Assay Description>  (818) 
nan

>  <BAO Label>  (818) 
nan

$$$$

     RDKit          2D

 32 34  0  0  0  0  0  0  0  0999 V2000
    5.7888    1.6004    0.0000 C   0  0  0  0  0  0  0  0  0  0  0  0
    4.6741    2.6041    0.0000 C   0  0  0  0  0  0  0  0  0  0  0  0
    3.2475    2.1406    0.0000 C   0  0  0  0  0  0  0  0  0  0  0  0
    2.1328    3.1443    0.0000 C   0  0  0  0  0  0  0  0  0  0  0  0
    0.7062    2.6807    0.0000 N   0  0  0  0  0  0  0  0  0  0  0  0
   -0.4086    3.6844    0.0000 C   0  0  0  0  0  0  0  0  0  0  0  0
   -0.0967    5.1517    0.0000 O   0  0  0  0  0  0  0  0  0  0  0  0
   -1.8351    3.2209    0.0000 N   0  0  0  0  0  0  0  0  0  0  0  0
   -2.1470    1.7537    0.0000 C   0  0  0  0  0  0  0  0  0  0  0  0
   -3.5736    1.2902    0.0000 O   0  0  0  0  0  0  0  0  0  0  0  0
   -1.0323    0.7500    0.0000 C   0  0  0  0  0  0  0  0  0  0  0  0
    0.3943    1.2135    0.0000 C   0  0  0  0  0  0  0  0  0  0  0  0
    1.2760    0.0000    0.0000 N   0  0  0  0  0  0  0  0  0  0  0  0
    0.3943   -1.2135    0.0000 C   0  0  0  0  0  0  0  0  0  0  0  0
    0.8578   -2.6401    0.0000 C   0  0  0  0  0  0  0  0  0  0  0  0
   -0.1459   -3.7548    0.0000 C   0  0  0  0  0  0  0  0  0  0  0  0
    0.3177   -5.1814    0.0000 C   0  0  0  0  0  0  0  0  0  0  0  0
    1.7849   -5.4933    0.0000 O   0  0  0  0  0  0  0  0  0  0  0  0
   -0.6860   -6.2961    0.0000 N   0  0  0  0  0  0  0  0  0  0  0  0
   -0.2225   -7.7227    0.0000 C   0  0  0  0  0  0  0  0  0  0  0  0
    1.2041   -8.1862    0.0000 N   0  0  0  0  0  0  0  0  0  0  0  0
    1.2041   -9.6862    0.0000 C   0  0  0  0  0  0  0  0  0  0  0  0
    2.4176  -10.5679    0.0000 C   0  0  0  0  0  0  0  0  0  0  0  0
    2.2608  -12.0597    0.0000 C   0  0  0  0  0  0  0  0  0  0  0  0
    3.7879   -9.9578    0.0000 C   0  0  0  0  0  0  0  0  0  0  0  0
   -0.2225  -10.1498    0.0000 C   0  0  0  0  0  0  0  0  0  0  0  0
   -1.1042   -8.9362    0.0000 S   0  0  0  0  0  0  0  0  0  0  0  0
   -1.0323   -0.7500    0.0000 N   0  0  0  0  0  0  0  0  0  0  0  0
   -2.2458   -1.6317    0.0000 C   0  0  0  0  0  0  0  0  0  0  0  0
   -3.6161   -1.0216    0.0000 C   0  0  0  0  0  0  0  0  0  0  0  0
   -3.7729    0.4702    0.0000 C   0  0  0  0  0  0  0  0  0  0  0  0
   -4.8297   -1.9033    0.0000 C   0  0  0  0  0  0  0  0  0  0  0  0
  1  2  1  0
  2  3  1  0
  3  4  1  0
  4  5  1  0
  5  6  1  0
  6  7  2  0
  6  8  1  0
  8  9  1  0
  9 10  2  0
  9 11  1  0
 11 12  2  0
 12 13  1  0
 13 14  2  0
 14 15  1  0
 15 16  1  0
 16 17  1  0
 17 18  2  0
 17 19  1  0
 19 20  1  0
 20 21  2  0
 21 22  1  0
 22 23  1  0
 23 24  1  0
 23 25  1  0
 22 26  2  0
 26 27  1  0
 14 28  1  0
 28 29  1  0
 29 30  1  0
 30 31  1  0
 30 32  1  0
 12  5  1  0
 27 20  1  0
 28 11  1  0
M  END
>  <Compound_ID>  (819) 
C10556415

>  <Active>  (819) 
0.0

>  <Smiles>  (819) 
CCCCn1c(=O)[nH]c(=O)c2c1nc(CCC(=O)Nc1nc(C(C)C)cs1)n2CC(C)C

>  <canonical_smi>  (819) 
CCCCn1c(=O)[nH]c(=O)c2c1nc(CCC(=O)Nc1nc(C(C)C)cs1)n2CC(C)C

>  <Set>  (819) 
G2 inactive

>  <Set_type>  (819) 
Train

>  <MW>  (819) 
460.6

>  <HBD>  (819) 
2

>  <HBA>  (819) 
5

>  <NRB>  (819) 
10

>  <NR>  (819) 
3

>  <NAR>  (819) 
3

>  <PSA>  (819) 
114.67

>  <Standard Type>  (819) 
nan

>  <Standard Relation>  (819) 
nan

>  <Standard Units>  (819) 
nan

>  <Standard Value>  (819) 
nan

>  <Assay ChEMBL ID>  (819) 
nan

>  <Assay Description>  (819) 
nan

>  <BAO Label>  (819) 
nan

$$$$

     RDKit          2D

 26 27  0  0  0  0  0  0  0  0999 V2000
    9.7500    1.2990    0.0000 C   0  0  0  0  0  0  0  0  0  0  0  0
    9.0000   -0.0000    0.0000 N   0  0  0  0  0  0  0  0  0  0  0  0
    7.5000    0.0000    0.0000 C   0  0  0  0  0  0  0  0  0  0  0  0
    6.7500    1.2990    0.0000 O   0  0  0  0  0  0  0  0  0  0  0  0
    6.7500   -1.2990    0.0000 N   0  0  0  0  0  0  0  0  0  0  0  0
    5.2500   -1.2990    0.0000 C   0  0  0  0  0  0  0  0  0  0  0  0
    5.2500    0.2010    0.0000 C   0  0  0  0  0  0  0  0  0  0  0  0
    5.2500   -2.7990    0.0000 C   0  0  0  0  0  0  0  0  0  0  0  0
    3.7500   -1.2990    0.0000 C   0  0  0  0  0  0  0  0  0  0  0  0
    3.0000   -2.5981    0.0000 O   0  0  0  0  0  0  0  0  0  0  0  0
    3.0000    0.0000    0.0000 N   0  0  0  0  0  0  0  0  0  0  0  0
    1.5000    0.0000    0.0000 C   0  0  0  0  0  0  0  0  0  0  0  0
    0.7500   -1.2990    0.0000 C   0  0  0  0  0  0  0  0  0  0  0  0
   -0.7500   -1.2990    0.0000 C   0  0  0  0  0  0  0  0  0  0  0  0
   -1.5000    0.0000    0.0000 C   0  0  0  0  0  0  0  0  0  0  0  0
   -0.7500    1.2990    0.0000 C   0  0  0  0  0  0  0  0  0  0  0  0
   -1.5000    2.5981    0.0000 O   0  0  0  0  0  0  0  0  0  0  0  0
   -0.7500    3.8971    0.0000 C   0  0  0  0  0  0  0  0  0  0  0  0
   -1.5000    5.1962    0.0000 C   0  0  0  0  0  0  0  0  0  0  0  0
   -0.7500    6.4952    0.0000 C   0  0  0  0  0  0  0  0  0  0  0  0
   -1.5000    7.7942    0.0000 C   0  0  0  0  0  0  0  0  0  0  0  0
   -3.0000    7.7942    0.0000 C   0  0  0  0  0  0  0  0  0  0  0  0
   -3.7500    9.0933    0.0000 F   0  0  0  0  0  0  0  0  0  0  0  0
   -3.7500    6.4952    0.0000 C   0  0  0  0  0  0  0  0  0  0  0  0
   -3.0000    5.1962    0.0000 C   0  0  0  0  0  0  0  0  0  0  0  0
    0.7500    1.2990    0.0000 C   0  0  0  0  0  0  0  0  0  0  0  0
  1  2  1  0
  2  3  1  0
  3  4  2  0
  3  5  1  0
  5  6  1  0
  6  7  1  0
  6  8  1  0
  6  9  1  0
  9 10  2  0
  9 11  1  0
 11 12  1  0
 12 13  2  0
 13 14  1  0
 14 15  2  0
 15 16  1  0
 16 17  1  0
 17 18  1  0
 18 19  1  0
 19 20  2  0
 20 21  1  0
 21 22  2  0
 22 23  1  0
 22 24  1  0
 24 25  2  0
 16 26  2  0
 26 12  1  0
 25 19  1  0
M  END
>  <Compound_ID>  (820) 
C53447087

>  <Active>  (820) 
0.0

>  <Smiles>  (820) 
CNC(=O)NC(C)(C)C(=O)Nc1cccc(OCc2ccc(F)cc2)c1

>  <canonical_smi>  (820) 
CNC(=O)NC(C)(C)C(=O)Nc1cccc(OCc2ccc(F)cc2)c1

>  <Set>  (820) 
G2 inactive

>  <Set_type>  (820) 
Train

>  <MW>  (820) 
359.4

>  <HBD>  (820) 
3

>  <HBA>  (820) 
3

>  <NRB>  (820) 
6

>  <NR>  (820) 
2

>  <NAR>  (820) 
2

>  <PSA>  (820) 
79.46

>  <Standard Type>  (820) 
nan

>  <Standard Relation>  (820) 
nan

>  <Standard Units>  (820) 
nan

>  <Standard Value>  (820) 
nan

>  <Assay ChEMBL ID>  (820) 
nan

>  <Assay Description>  (820) 
nan

>  <BAO Label>  (820) 
nan

$$$$

     RDKit          2D

 26 29  0  0  0  0  0  0  0  0999 V2000
    2.4558   -8.7791    0.0000 C   0  0  0  0  0  0  0  0  0  0  0  0
    1.3411   -7.7755    0.0000 C   0  0  0  0  0  0  0  0  0  0  0  0
   -0.0855   -8.2390    0.0000 N   0  0  0  0  0  0  0  0  0  0  0  0
   -1.2990   -7.3573    0.0000 C   0  0  0  0  0  0  0  0  0  0  0  0
   -1.2990   -5.8573    0.0000 S   0  0  0  0  0  0  0  0  0  0  0  0
   -0.0000   -5.1073    0.0000 C   0  0  0  0  0  0  0  0  0  0  0  0
   -0.0000   -3.6073    0.0000 C   0  0  0  0  0  0  0  0  0  0  0  0
    1.2135   -2.7256    0.0000 N   0  0  0  0  0  0  0  0  0  0  0  0
    0.7500   -1.2990    0.0000 C   0  0  0  0  0  0  0  0  0  0  0  0
    1.5000    0.0000    0.0000 C   0  0  0  0  0  0  0  0  0  0  0  0
    0.7500    1.2990    0.0000 C   0  0  0  0  0  0  0  0  0  0  0  0
   -0.7500    1.2990    0.0000 C   0  0  0  0  0  0  0  0  0  0  0  0
   -1.5000    0.0000    0.0000 C   0  0  0  0  0  0  0  0  0  0  0  0
   -0.7500   -1.2990    0.0000 C   0  0  0  0  0  0  0  0  0  0  0  0
   -1.2135   -2.7256    0.0000 N   0  0  0  0  0  0  0  0  0  0  0  0
   -2.5126   -8.2390    0.0000 N   0  0  0  0  0  0  0  0  0  0  0  0
   -2.0490   -9.6656    0.0000 N   0  0  0  0  0  0  0  0  0  0  0  0
   -0.5490   -9.6656    0.0000 C   0  0  0  0  0  0  0  0  0  0  0  0
    0.3326  -10.8791    0.0000 C   0  0  0  0  0  0  0  0  0  0  0  0
   -0.2775  -12.2494    0.0000 C   0  0  0  0  0  0  0  0  0  0  0  0
    0.6042  -13.4629    0.0000 C   0  0  0  0  0  0  0  0  0  0  0  0
    2.0960  -13.3061    0.0000 C   0  0  0  0  0  0  0  0  0  0  0  0
    2.9777  -14.5197    0.0000 O   0  0  0  0  0  0  0  0  0  0  0  0
    2.3676  -15.8900    0.0000 C   0  0  0  0  0  0  0  0  0  0  0  0
    2.7061  -11.9358    0.0000 C   0  0  0  0  0  0  0  0  0  0  0  0
    1.8244  -10.7223    0.0000 C   0  0  0  0  0  0  0  0  0  0  0  0
  1  2  1  0
  2  3  1  0
  3  4  1  0
  4  5  1  6
  5  6  1  0
  6  7  1  0
  7  8  2  0
  8  9  1  0
  9 10  2  0
 10 11  1  0
 11 12  2  0
 12 13  1  0
 13 14  2  0
 14 15  1  0
  4 16  1  0
 16 17  1  0
 17 18  1  0
 18 19  1  1
 19 20  2  0
 20 21  1  0
 21 22  2  0
 22 23  1  0
 23 24  1  0
 22 25  1  0
 25 26  2  0
 18  3  1  0
 26 19  1  0
 15  7  1  0
 14  9  1  0
M  END
>  <Compound_ID>  (821) 
C39583691

>  <Active>  (821) 
0.0

>  <Smiles>  (821) 
CCN1[C@@H](SCc2nc3ccccc3[nH]2)NN[C@@H]1c1ccc(OC)cc1

>  <canonical_smi>  (821) 
CCN1[C@@H](SCc2nc3ccccc3[nH]2)NN[C@@H]1c1ccc(OC)cc1

>  <Set>  (821) 
G2 inactive

>  <Set_type>  (821) 
Train

>  <MW>  (821) 
369.49

>  <HBD>  (821) 
3

>  <HBA>  (821) 
6

>  <NRB>  (821) 
6

>  <NR>  (821) 
4

>  <NAR>  (821) 
3

>  <PSA>  (821) 
65.21

>  <Standard Type>  (821) 
nan

>  <Standard Relation>  (821) 
nan

>  <Standard Units>  (821) 
nan

>  <Standard Value>  (821) 
nan

>  <Assay ChEMBL ID>  (821) 
nan

>  <Assay Description>  (821) 
nan

>  <BAO Label>  (821) 
nan

$$$$

     RDKit          2D

 26 29  0  0  0  0  0  0  0  0999 V2000
    0.4022   -7.7629    0.0000 O   0  0  0  0  0  0  0  0  0  0  0  0
    0.2454   -6.2711    0.0000 C   0  0  0  0  0  0  0  0  0  0  0  0
    1.3601   -5.2674    0.0000 N   0  0  0  0  0  0  0  0  0  0  0  0
    0.7500   -3.8971    0.0000 C   0  0  0  0  0  0  0  0  0  0  0  0
    1.5000   -2.5981    0.0000 C   0  0  0  0  0  0  0  0  0  0  0  0
    0.7500   -1.2990    0.0000 C   0  0  0  0  0  0  0  0  0  0  0  0
    1.5000    0.0000    0.0000 C   0  0  0  0  0  0  0  0  0  0  0  0
    0.7500    1.2990    0.0000 C   0  0  0  0  0  0  0  0  0  0  0  0
   -0.7500    1.2990    0.0000 C   0  0  0  0  0  0  0  0  0  0  0  0
   -1.5000    0.0000    0.0000 C   0  0  0  0  0  0  0  0  0  0  0  0
   -0.7500   -1.2990    0.0000 C   0  0  0  0  0  0  0  0  0  0  0  0
   -0.7418   -4.0539    0.0000 C   0  0  0  0  0  0  0  0  0  0  0  0
   -1.7455   -2.9392    0.0000 O   0  0  0  0  0  0  0  0  0  0  0  0
   -1.0537   -5.5211    0.0000 N   0  0  0  0  0  0  0  0  0  0  0  0
   -2.4240   -6.1312    0.0000 C   0  0  0  0  0  0  0  0  0  0  0  0
   -3.6375   -5.2496    0.0000 C   0  0  0  0  0  0  0  0  0  0  0  0
   -5.0641   -5.7131    0.0000 C   0  0  0  0  0  0  0  0  0  0  0  0
   -5.9458   -4.4996    0.0000 O   0  0  0  0  0  0  0  0  0  0  0  0
   -5.0641   -3.2860    0.0000 C   0  0  0  0  0  0  0  0  0  0  0  0
   -5.5276   -1.8594    0.0000 C   0  0  0  0  0  0  0  0  0  0  0  0
   -4.5239   -0.7447    0.0000 C   0  0  0  0  0  0  0  0  0  0  0  0
   -4.9874    0.6819    0.0000 C   0  0  0  0  0  0  0  0  0  0  0  0
   -6.4547    0.9937    0.0000 C   0  0  0  0  0  0  0  0  0  0  0  0
   -7.4584   -0.1210    0.0000 C   0  0  0  0  0  0  0  0  0  0  0  0
   -6.9948   -1.5476    0.0000 C   0  0  0  0  0  0  0  0  0  0  0  0
   -3.6375   -3.7496    0.0000 N   0  0  0  0  0  0  0  0  0  0  0  0
  1  2  2  0
  2  3  1  0
  3  4  1  0
  4  5  1  1
  5  6  1  0
  6  7  2  0
  7  8  1  0
  8  9  2  0
  9 10  1  0
 10 11  2  0
  4 12  1  0
 12 13  2  0
 12 14  1  0
 14 15  1  0
 15 16  1  0
 16 17  2  0
 17 18  1  0
 18 19  1  0
 19 20  1  0
 20 21  2  0
 21 22  1  0
 22 23  2  0
 23 24  1  0
 24 25  2  0
 19 26  2  0
 14  2  1  0
 26 16  1  0
 11  6  1  0
 25 20  1  0
M  END
>  <Compound_ID>  (822) 
C21209963

>  <Active>  (822) 
0.0

>  <Smiles>  (822) 
O=C1N[C@H](Cc2ccccc2)C(=O)N1Cc1coc(-c2ccccc2)n1

>  <canonical_smi>  (822) 
O=C1N[C@H](Cc2ccccc2)C(=O)N1Cc1coc(-c2ccccc2)n1

>  <Set>  (822) 
G2 inactive

>  <Set_type>  (822) 
Train

>  <MW>  (822) 
347.37

>  <HBD>  (822) 
1

>  <HBA>  (822) 
4

>  <NRB>  (822) 
5

>  <NR>  (822) 
4

>  <NAR>  (822) 
3

>  <PSA>  (822) 
75.44

>  <Standard Type>  (822) 
nan

>  <Standard Relation>  (822) 
nan

>  <Standard Units>  (822) 
nan

>  <Standard Value>  (822) 
nan

>  <Assay ChEMBL ID>  (822) 
nan

>  <Assay Description>  (822) 
nan

>  <BAO Label>  (822) 
nan

$$$$

     RDKit          2D

 27 30  0  0  0  0  0  0  0  0999 V2000
    3.0000    0.0000    0.0000 C   0  0  0  0  0  0  0  0  0  0  0  0
    1.5000    0.0000    0.0000 C   0  0  0  0  0  0  0  0  0  0  0  0
    0.7500   -1.2990    0.0000 C   0  0  0  0  0  0  0  0  0  0  0  0
   -0.7500   -1.2990    0.0000 C   0  0  0  0  0  0  0  0  0  0  0  0
   -1.5000   -2.5981    0.0000 C   0  0  0  0  0  0  0  0  0  0  0  0
   -3.0000   -2.5981    0.0000 C   0  0  0  0  0  0  0  0  0  0  0  0
   -3.7500   -1.2990    0.0000 O   0  0  0  0  0  0  0  0  0  0  0  0
   -3.7500   -3.8971    0.0000 N   0  0  0  0  0  0  0  0  0  0  0  0
   -5.2500   -3.8971    0.0000 C   0  0  0  0  0  0  0  0  0  0  0  0
   -6.1317   -5.1106    0.0000 C   0  0  0  0  0  0  0  0  0  0  0  0
   -5.6682   -6.5372    0.0000 C   0  0  0  0  0  0  0  0  0  0  0  0
   -4.2416   -7.0008    0.0000 N   0  0  0  0  0  0  0  0  0  0  0  0
   -4.2416   -8.5008    0.0000 C   0  0  0  0  0  0  0  0  0  0  0  0
   -3.0280   -9.3824    0.0000 C   0  0  0  0  0  0  0  0  0  0  0  0
   -1.5363   -9.5392    0.0000 C   0  0  0  0  0  0  0  0  0  0  0  0
   -2.4179  -10.7527    0.0000 C   0  0  0  0  0  0  0  0  0  0  0  0
   -5.6682   -8.9643    0.0000 N   0  0  0  0  0  0  0  0  0  0  0  0
   -6.5498   -7.7508    0.0000 O   0  0  0  0  0  0  0  0  0  0  0  0
   -7.5583   -4.6471    0.0000 C   0  0  0  0  0  0  0  0  0  0  0  0
   -7.5583   -3.1471    0.0000 N   0  0  0  0  0  0  0  0  0  0  0  0
   -6.1317   -2.6836    0.0000 N   0  0  0  0  0  0  0  0  0  0  0  0
   -5.6682   -1.2570    0.0000 C   0  0  0  0  0  0  0  0  0  0  0  0
   -1.5000    0.0000    0.0000 C   0  0  0  0  0  0  0  0  0  0  0  0
   -0.7500    1.2990    0.0000 C   0  0  0  0  0  0  0  0  0  0  0  0
   -2.1595    1.8121    0.0000 C   0  0  0  0  0  0  0  0  0  0  0  0
   -0.4895    2.7762    0.0000 C   0  0  0  0  0  0  0  0  0  0  0  0
    0.7500    1.2990    0.0000 C   0  0  0  0  0  0  0  0  0  0  0  0
  2  1  1  1
  2  3  1  0
  3  4  1  0
  4  5  1  1
  5  6  1  0
  6  7  2  0
  6  8  1  0
  8  9  1  0
  9 10  2  0
 10 11  1  0
 11 12  2  0
 12 13  1  0
 13 14  1  0
 14 15  1  0
 15 16  1  0
 13 17  2  0
 17 18  1  0
 10 19  1  0
 19 20  2  0
 20 21  1  0
 21 22  1  0
  4 23  1  0
 23 24  1  0
 24 25  1  0
 24 26  1  0
 24 27  1  0
 27  2  1  0
 21  9  1  0
 18 11  1  0
 16 14  1  0
M  END
>  <Compound_ID>  (823) 
C66358670

>  <Active>  (823) 
0.0

>  <Smiles>  (823) 
C[C@H]1C[C@@H](CC(=O)Nc2c(-c3nc(C4CC4)no3)cnn2C)CC(C)(C)C1

>  <canonical_smi>  (823) 
C[C@H]1C[C@@H](CC(=O)Nc2c(-c3nc(C4CC4)no3)cnn2C)CC(C)(C)C1

>  <Set>  (823) 
G2 inactive

>  <Set_type>  (823) 
Train

>  <MW>  (823) 
371.49

>  <HBD>  (823) 
1

>  <HBA>  (823) 
5

>  <NRB>  (823) 
5

>  <NR>  (823) 
4

>  <NAR>  (823) 
2

>  <PSA>  (823) 
85.84

>  <Standard Type>  (823) 
nan

>  <Standard Relation>  (823) 
nan

>  <Standard Units>  (823) 
nan

>  <Standard Value>  (823) 
nan

>  <Assay ChEMBL ID>  (823) 
nan

>  <Assay Description>  (823) 
nan

>  <BAO Label>  (823) 
nan

$$$$

     RDKit          2D

 29 31  0  0  0  0  0  0  0  0999 V2000
   -3.2384  -13.0060    0.0000 O   0  0  0  0  0  0  0  0  0  0  0  0
   -1.8681  -13.6161    0.0000 C   0  0  0  0  0  0  0  0  0  0  0  0
   -0.6546  -12.7344    0.0000 C   0  0  0  0  0  0  0  0  0  0  0  0
   -0.8113  -11.2427    0.0000 C   0  0  0  0  0  0  0  0  0  0  0  0
    0.4022  -10.3610    0.0000 S   0  0  0  0  0  0  0  0  0  0  0  0
    0.2454   -8.8692    0.0000 C   0  0  0  0  0  0  0  0  0  0  0  0
   -1.0537   -8.1192    0.0000 N   0  0  0  0  0  0  0  0  0  0  0  0
   -0.7418   -6.6520    0.0000 N   0  0  0  0  0  0  0  0  0  0  0  0
    0.7500   -6.4952    0.0000 C   0  0  0  0  0  0  0  0  0  0  0  0
    1.5000   -5.1962    0.0000 N   0  0  0  0  0  0  0  0  0  0  0  0
    0.7500   -3.8971    0.0000 N   0  0  0  0  0  0  0  0  0  0  0  0
    1.5000   -2.5981    0.0000 C   0  0  0  0  0  0  0  0  0  0  0  0
    0.7500   -1.2990    0.0000 C   0  0  0  0  0  0  0  0  0  0  0  0
    1.5000    0.0000    0.0000 C   0  0  0  0  0  0  0  0  0  0  0  0
    0.7500    1.2990    0.0000 C   0  0  0  0  0  0  0  0  0  0  0  0
   -0.7500    1.2990    0.0000 C   0  0  0  0  0  0  0  0  0  0  0  0
   -1.5000    0.0000    0.0000 C   0  0  0  0  0  0  0  0  0  0  0  0
   -0.7500   -1.2990    0.0000 C   0  0  0  0  0  0  0  0  0  0  0  0
   -1.5000   -2.5981    0.0000 F   0  0  0  0  0  0  0  0  0  0  0  0
    1.3601   -7.8655    0.0000 N   0  0  0  0  0  0  0  0  0  0  0  0
   -1.7113  -15.1079    0.0000 N   0  0  0  0  0  0  0  0  0  0  0  0
   -2.9248  -15.9896    0.0000 C   0  0  0  0  0  0  0  0  0  0  0  0
   -4.2951  -15.3795    0.0000 C   0  0  0  0  0  0  0  0  0  0  0  0
   -5.5087  -16.2612    0.0000 C   0  0  0  0  0  0  0  0  0  0  0  0
   -5.3519  -17.7529    0.0000 C   0  0  0  0  0  0  0  0  0  0  0  0
   -6.5654  -18.6346    0.0000 Cl  0  0  0  0  0  0  0  0  0  0  0  0
   -3.9815  -18.3630    0.0000 C   0  0  0  0  0  0  0  0  0  0  0  0
   -2.7680  -17.4814    0.0000 C   0  0  0  0  0  0  0  0  0  0  0  0
   -1.3977  -18.0915    0.0000 Cl  0  0  0  0  0  0  0  0  0  0  0  0
  1  2  2  0
  2  3  1  0
  3  4  1  0
  4  5  1  0
  5  6  1  0
  6  7  2  0
  7  8  1  0
  8  9  1  0
  9 10  1  0
 10 11  1  0
 11 12  2  0
 12 13  1  0
 13 14  2  0
 14 15  1  0
 15 16  2  0
 16 17  1  0
 17 18  2  0
 18 19  1  0
  9 20  2  0
  2 21  1  0
 21 22  1  0
 22 23  2  0
 23 24  1  0
 24 25  2  0
 25 26  1  0
 25 27  1  0
 27 28  2  0
 28 29  1  0
 20  6  1  0
 28 22  1  0
 18 13  1  0
M  END
>  <Compound_ID>  (824) 
C21077545

>  <Active>  (824) 
0.0

>  <Smiles>  (824) 
O=C(CCSc1n[nH]c(N/N=C/c2ccccc2F)n1)Nc1ccc(Cl)cc1Cl

>  <canonical_smi>  (824) 
O=C(CCSc1n[nH]c(N/N=C/c2ccccc2F)n1)Nc1ccc(Cl)cc1Cl

>  <Set>  (824) 
G2 inactive

>  <Set_type>  (824) 
Train

>  <MW>  (824) 
453.33

>  <HBD>  (824) 
3

>  <HBA>  (824) 
5

>  <NRB>  (824) 
8

>  <NR>  (824) 
3

>  <NAR>  (824) 
3

>  <PSA>  (824) 
95.06

>  <Standard Type>  (824) 
nan

>  <Standard Relation>  (824) 
nan

>  <Standard Units>  (824) 
nan

>  <Standard Value>  (824) 
nan

>  <Assay ChEMBL ID>  (824) 
nan

>  <Assay Description>  (824) 
nan

>  <BAO Label>  (824) 
nan

$$$$

     RDKit          2D

 28 31  0  0  0  0  0  0  0  0999 V2000
   12.9129    2.6475    0.0000 C   0  0  0  0  0  0  0  0  0  0  0  0
   11.4505    2.9813    0.0000 C   0  0  0  0  0  0  0  0  0  0  0  0
   10.4302    1.8817    0.0000 O   0  0  0  0  0  0  0  0  0  0  0  0
   11.0084    4.4146    0.0000 N   0  0  0  0  0  4  0  0  0  0  0  0
    9.5460    4.7484    0.0000 C   0  0  0  0  0  0  0  0  0  0  0  0
    8.5257    3.6488    0.0000 C   0  0  0  0  0  0  0  0  0  0  0  0
    7.0633    3.9826    0.0000 C   0  0  0  0  0  0  0  0  0  0  0  0
    6.6212    5.4160    0.0000 C   0  0  0  0  0  0  0  0  0  0  0  0
    5.1588    5.7498    0.0000 C   0  0  0  0  0  0  0  0  0  0  0  0
    4.1385    4.6502    0.0000 C   0  0  0  0  0  0  0  0  0  0  0  0
    2.6761    4.9840    0.0000 S   0  0  0  0  0  0  0  0  0  0  0  0
    1.6559    3.8844    0.0000 C   0  0  0  0  0  0  0  0  0  0  0  0
    0.1935    4.2182    0.0000 C   0  0  0  0  0  0  0  0  0  0  0  0
   -0.8268    3.1186    0.0000 C   0  0  0  0  0  0  0  0  0  0  0  0
   -0.3846    1.6852    0.0000 C   0  0  0  0  0  0  0  0  0  0  0  0
    1.0777    1.3515    0.0000 C   0  0  0  0  0  0  0  0  0  0  0  0
    2.0980    2.4510    0.0000 C   0  0  0  0  0  0  0  0  0  0  0  0
    1.7286    0.0000    0.0000 O   0  0  0  0  0  0  0  0  0  0  0  0
    1.0777   -1.3515    0.0000 C   0  0  0  0  0  0  0  0  0  0  0  0
   -0.3846   -1.6852    0.0000 C   0  0  0  0  0  0  0  0  0  0  0  0
   -1.5574   -0.7500    0.0000 C   0  0  0  0  0  0  0  0  0  0  0  0
   -1.5574    0.7500    0.0000 O   0  0  0  0  0  0  0  0  0  0  0  0
    4.7167    7.1831    0.0000 C   0  0  0  0  0  0  0  0  0  0  0  0
    5.7369    8.2827    0.0000 C   0  0  0  0  0  0  0  0  0  0  0  0
    5.2948    9.7161    0.0000 O   0  0  0  0  0  0  0  0  0  0  0  0
    7.1993    7.9489    0.0000 O   0  0  0  0  0  0  0  0  0  0  0  0
    7.6414    6.5156    0.0000 C   0  0  0  0  0  0  0  0  0  0  0  0
    9.1038    6.1818    0.0000 C   0  0  0  0  0  0  0  0  0  0  0  0
  1  2  1  0
  2  3  2  0
  2  4  1  0
  4  5  2  3
  5  6  1  0
  6  7  2  0
  7  8  1  0
  8  9  2  0
  9 10  1  0
 10 11  1  0
 11 12  1  0
 12 13  2  0
 13 14  1  0
 14 15  2  0
 15 16  1  0
 16 17  2  0
 16 18  1  0
 18 19  1  0
 19 20  1  0
 20 21  1  0
 21 22  1  0
  9 23  1  0
 23 24  2  0
 24 25  1  0
 24 26  1  0
 26 27  1  0
 27 28  2  0
 28  5  1  0
 27  8  1  0
 17 12  1  0
 22 15  1  0
M  CHG  1   4   1
M  END
>  <Compound_ID>  (825) 
C24848059

>  <Active>  (825) 
0.0

>  <Smiles>  (825) 
CC(=O)[NH+]=c1ccc2c(CSc3ccc4c(c3)OCCCO4)cc(O)oc-2c1

>  <canonical_smi>  (825) 
CC(=O)[NH+]=c1ccc2c(CSc3ccc4c(c3)OCCCO4)cc(O)oc-2c1

>  <Set>  (825) 
G2 inactive

>  <Set_type>  (825) 
Train

>  <MW>  (825) 
398.46

>  <HBD>  (825) 
2

>  <HBA>  (825) 
6

>  <NRB>  (825) 
3

>  <NR>  (825) 
4

>  <NAR>  (825) 
3

>  <PSA>  (825) 
82.87

>  <Standard Type>  (825) 
nan

>  <Standard Relation>  (825) 
nan

>  <Standard Units>  (825) 
nan

>  <Standard Value>  (825) 
nan

>  <Assay ChEMBL ID>  (825) 
nan

>  <Assay Description>  (825) 
nan

>  <BAO Label>  (825) 
nan

$$$$

     RDKit          2D

 25 28  0  0  0  0  0  0  0  0999 V2000
    2.7760    0.0000    0.0000 C   0  0  0  0  0  0  0  0  0  0  0  0
    1.2760    0.0000    0.0000 C   0  0  0  0  0  0  0  0  0  0  0  0
    0.3943    1.2135    0.0000 C   0  0  0  0  0  0  0  0  0  0  0  0
   -1.0323    0.7500    0.0000 S   0  0  0  0  0  0  0  0  0  0  0  0
   -1.0323   -0.7500    0.0000 C   0  0  0  0  0  0  0  0  0  0  0  0
   -2.1470   -1.7537    0.0000 N   0  0  0  0  0  4  0  0  0  0  0  0
   -1.8351   -3.2209    0.0000 C   0  0  0  0  0  0  0  0  0  0  0  0
   -2.9499   -4.2246    0.0000 C   0  0  0  0  0  0  0  0  0  0  0  0
   -4.3764   -3.7611    0.0000 N   0  0  0  0  0  0  0  0  0  0  0  0
   -5.4912   -4.7648    0.0000 C   0  0  0  0  0  0  0  0  0  0  0  0
   -6.9177   -4.3013    0.0000 C   0  0  0  0  0  0  0  0  0  0  0  0
   -8.0325   -5.3050    0.0000 C   0  0  0  0  0  0  0  0  0  0  0  0
   -7.7206   -6.7722    0.0000 C   0  0  0  0  0  0  0  0  0  0  0  0
   -6.2940   -7.2357    0.0000 C   0  0  0  0  0  0  0  0  0  0  0  0
   -5.9821   -8.7029    0.0000 Cl  0  0  0  0  0  0  0  0  0  0  0  0
   -5.1793   -6.2320    0.0000 C   0  0  0  0  0  0  0  0  0  0  0  0
   -3.7527   -6.6955    0.0000 N   0  0  0  0  0  0  0  0  0  0  0  0
   -2.5392   -5.8139    0.0000 C   0  0  0  0  0  0  0  0  0  0  0  0
   -1.3257   -6.6955    0.0000 C   0  0  0  0  0  0  0  0  0  0  0  0
   -1.7892   -8.1221    0.0000 C   0  0  0  0  0  0  0  0  0  0  0  0
   -3.2892   -8.1221    0.0000 N   0  0  0  0  0  0  0  0  0  0  0  0
   -0.4086   -3.6844    0.0000 C   0  0  0  0  0  0  0  0  0  0  0  0
    0.7062   -2.6807    0.0000 C   0  0  0  0  0  0  0  0  0  0  0  0
    2.1328   -3.1443    0.0000 O   0  0  0  0  0  0  0  0  0  0  0  0
    0.3943   -1.2135    0.0000 N   0  0  0  0  0  0  0  0  0  0  0  0
  1  2  1  0
  2  3  2  0
  3  4  1  0
  4  5  1  0
  5  6  2  0
  6  7  1  0
  7  8  1  0
  8  9  1  0
  9 10  1  0
 10 11  2  0
 11 12  1  0
 12 13  2  0
 13 14  1  0
 14 15  1  0
 14 16  2  0
 16 17  1  0
 17 18  1  0
 18 19  2  0
 19 20  1  0
 20 21  2  0
  7 22  2  0
 22 23  1  0
 23 24  2  0
 23 25  1  0
 25  2  1  0
 25  5  1  0
 16 10  1  0
 21 17  1  0
M  CHG  1   6   1
M  END
>  <Compound_ID>  (826) 
C55874852

>  <Active>  (826) 
0.0

>  <Smiles>  (826) 
Cc1csc2[nH+]c(CNc3cccc(Cl)c3-n3cccn3)cc(=O)n12

>  <canonical_smi>  (826) 
Cc1csc2[nH+]c(CNc3cccc(Cl)c3-n3cccn3)cc(=O)n12

>  <Set>  (826) 
G2 inactive

>  <Set_type>  (826) 
Train

>  <MW>  (826) 
372.86

>  <HBD>  (826) 
1

>  <HBA>  (826) 
3

>  <NRB>  (826) 
4

>  <NR>  (826) 
4

>  <NAR>  (826) 
4

>  <PSA>  (826) 
65.47

>  <Standard Type>  (826) 
nan

>  <Standard Relation>  (826) 
nan

>  <Standard Units>  (826) 
nan

>  <Standard Value>  (826) 
nan

>  <Assay ChEMBL ID>  (826) 
nan

>  <Assay Description>  (826) 
nan

>  <BAO Label>  (826) 
nan

$$$$

     RDKit          2D

 21 21  0  0  0  0  0  0  0  0999 V2000
    3.0000   -1.5000    0.0000 C   0  0  0  0  0  0  0  0  0  0  0  0
    3.0000    0.0000    0.0000 C   0  0  0  0  0  0  0  0  0  0  0  0
    3.0000    1.5000    0.0000 C   0  0  0  0  0  0  0  0  0  0  0  0
    4.5000    0.0000    0.0000 C   0  0  0  0  0  0  0  0  0  0  0  0
    1.5000    0.0000    0.0000 C   0  0  0  0  0  0  0  0  0  0  0  0
    0.7500   -1.2990    0.0000 C   0  0  0  0  0  0  0  0  0  0  0  0
   -0.7500   -1.2990    0.0000 C   0  0  0  0  0  0  0  0  0  0  0  0
   -1.5000    0.0000    0.0000 C   0  0  0  0  0  0  0  0  0  0  0  0
   -3.0000    0.0000    0.0000 C   0  0  0  0  0  0  0  0  0  0  0  0
   -4.5000    0.0000    0.0000 N   0  0  0  0  0  0  0  0  0  0  0  0
   -0.7500    1.2990    0.0000 C   0  0  0  0  0  0  0  0  0  0  0  0
   -1.5000    2.5981    0.0000 N   0  0  0  0  0  4  0  0  0  0  0  0
   -0.7500    3.8971    0.0000 C   0  0  0  0  0  0  0  0  0  0  0  0
    0.7500    3.8971    0.0000 C   0  0  0  0  0  0  0  0  0  0  0  0
    1.5000    5.1962    0.0000 N   0  0  0  0  0  0  0  0  0  0  0  0
    1.5000    2.5981    0.0000 O   0  0  0  0  0  0  0  0  0  0  0  0
   -3.0000    2.5981    0.0000 C   0  0  0  0  0  0  0  0  0  0  0  0
   -3.7500    3.8971    0.0000 C   0  0  0  0  0  0  0  0  0  0  0  0
   -5.2500    3.8971    0.0000 N   0  0  0  0  0  0  0  0  0  0  0  0
   -3.0000    5.1962    0.0000 O   0  0  0  0  0  0  0  0  0  0  0  0
    0.7500    1.2990    0.0000 C   0  0  0  0  0  0  0  0  0  0  0  0
  1  2  1  0
  2  3  1  0
  2  4  1  0
  5  2  1  6
  5  6  1  0
  6  7  1  0
  7  8  1  0
  8  9  1  1
  9 10  3  0
  8 11  1  0
 11 12  1  6
 12 13  1  0
 13 14  1  0
 14 15  1  0
 14 16  2  0
 12 17  1  0
 17 18  1  0
 18 19  1  0
 18 20  2  0
 11 21  1  0
 21  5  1  0
M  CHG  1  12   1
M  END
>  <Compound_ID>  (827) 
C61806997

>  <Active>  (827) 
0.0

>  <Smiles>  (827) 
CC(C)(C)[C@@H]1CC[C@@H](C#N)[C@H]([NH+](CC(N)=O)CC(N)=O)C1

>  <canonical_smi>  (827) 
CC(C)(C)[C@@H]1CC[C@@H](C#N)[C@H]([NH+](CC(N)=O)CC(N)=O)C1

>  <Set>  (827) 
G2 inactive

>  <Set_type>  (827) 
Train

>  <MW>  (827) 
295.41

>  <HBD>  (827) 
3

>  <HBA>  (827) 
3

>  <NRB>  (827) 
5

>  <NR>  (827) 
1

>  <NAR>  (827) 
0

>  <PSA>  (827) 
114.41

>  <Standard Type>  (827) 
nan

>  <Standard Relation>  (827) 
nan

>  <Standard Units>  (827) 
nan

>  <Standard Value>  (827) 
nan

>  <Assay ChEMBL ID>  (827) 
nan

>  <Assay Description>  (827) 
nan

>  <BAO Label>  (827) 
nan

$$$$

     RDKit          2D

 19 19  0  0  0  0  0  0  0  0999 V2000
    3.7500   -1.2990    0.0000 C   0  0  0  0  0  0  0  0  0  0  0  0
    3.0000    0.0000    0.0000 O   0  0  0  0  0  0  0  0  0  0  0  0
    1.5000    0.0000    0.0000 C   0  0  0  0  0  0  0  0  0  0  0  0
    0.7500   -1.2990    0.0000 C   0  0  0  0  0  0  0  0  0  0  0  0
   -0.7500   -1.2990    0.0000 C   0  0  0  0  0  0  0  0  0  0  0  0
   -1.5000   -2.5981    0.0000 N   0  0  0  0  0  0  0  0  0  0  0  0
   -1.5000    0.0000    0.0000 C   0  0  0  0  0  0  0  0  0  0  0  0
   -3.0000    0.0000    0.0000 O   0  0  0  0  0  0  0  0  0  0  0  0
   -3.7500    1.2990    0.0000 C   0  0  0  0  0  0  0  0  0  0  0  0
   -0.7500    1.2990    0.0000 C   0  0  0  0  0  0  0  0  0  0  0  0
   -1.5000    2.5981    0.0000 S   0  0  0  0  0  0  0  0  0  0  0  0
   -0.2010    3.3481    0.0000 O   0  0  0  0  0  0  0  0  0  0  0  0
   -2.7990    1.8481    0.0000 O   0  0  0  0  0  0  0  0  0  0  0  0
   -2.2500    3.8971    0.0000 N   0  0  0  0  0  0  0  0  0  0  0  0
   -1.5000    5.1962    0.0000 C   0  0  0  0  0  0  0  0  0  0  0  0
   -2.7990    5.9462    0.0000 C   0  0  0  0  0  0  0  0  0  0  0  0
   -0.2010    4.4462    0.0000 C   0  0  0  0  0  0  0  0  0  0  0  0
   -0.7500    6.4952    0.0000 C   0  0  0  0  0  0  0  0  0  0  0  0
    0.7500    1.2990    0.0000 C   0  0  0  0  0  0  0  0  0  0  0  0
  1  2  1  0
  2  3  1  0
  3  4  2  0
  4  5  1  0
  5  6  1  0
  5  7  2  0
  7  8  1  0
  8  9  1  0
  7 10  1  0
 10 11  1  0
 11 12  2  0
 11 13  2  0
 11 14  1  0
 14 15  1  0
 15 16  1  0
 15 17  1  0
 15 18  1  0
 10 19  2  0
 19  3  1  0
M  END
>  <Compound_ID>  (828) 
C11737030

>  <Active>  (828) 
0.0

>  <Smiles>  (828) 
COc1cc(N)c(OC)c(S(=O)(=O)NC(C)(C)C)c1

>  <canonical_smi>  (828) 
COc1cc(N)c(OC)c(S(=O)(=O)NC(C)(C)C)c1

>  <Set>  (828) 
G2 inactive

>  <Set_type>  (828) 
Train

>  <MW>  (828) 
288.37

>  <HBD>  (828) 
2

>  <HBA>  (828) 
5

>  <NRB>  (828) 
4

>  <NR>  (828) 
1

>  <NAR>  (828) 
1

>  <PSA>  (828) 
90.65

>  <Standard Type>  (828) 
nan

>  <Standard Relation>  (828) 
nan

>  <Standard Units>  (828) 
nan

>  <Standard Value>  (828) 
nan

>  <Assay ChEMBL ID>  (828) 
nan

>  <Assay Description>  (828) 
nan

>  <BAO Label>  (828) 
nan

$$$$

     RDKit          2D

 21 22  0  0  0  0  0  0  0  0999 V2000
    2.7760    0.0000    0.0000 C   0  0  0  0  0  0  0  0  0  0  0  0
    1.2760    0.0000    0.0000 C   0  0  0  0  0  0  0  0  0  0  0  0
    0.3943    1.2135    0.0000 N   0  0  0  0  0  0  0  0  0  0  0  0
   -1.0323    0.7500    0.0000 N   0  0  0  0  0  0  0  0  0  0  0  0
   -2.2458    1.6317    0.0000 C   0  0  0  0  0  0  0  0  0  0  0  0
   -3.6161    1.0216    0.0000 O   0  0  0  0  0  0  0  0  0  0  0  0
   -2.0890    3.1235    0.0000 C   0  0  0  0  0  0  0  0  0  0  0  0
   -3.2037    4.1272    0.0000 N   0  0  0  0  0  0  0  0  0  0  0  0
   -2.5936    5.4975    0.0000 N   0  0  0  0  0  0  0  0  0  0  0  0
   -3.3436    6.7965    0.0000 C   0  0  0  0  0  0  0  0  0  0  0  0
   -1.1018    5.3407    0.0000 C   0  0  0  0  0  0  0  0  0  0  0  0
   -0.0982    6.4554    0.0000 C   0  0  0  0  0  0  0  0  0  0  0  0
   -0.7900    3.8735    0.0000 C   0  0  0  0  0  0  0  0  0  0  0  0
    0.5803    3.2634    0.0000 Br  0  0  0  0  0  0  0  0  0  0  0  0
   -1.0323   -0.7500    0.0000 C   0  0  0  0  0  0  0  0  0  0  0  0
   -2.5241   -0.5932    0.0000 O   0  0  0  0  0  0  0  0  0  0  0  0
   -1.3442   -2.2172    0.0000 C   0  0  0  0  0  0  0  0  0  0  0  0
   -1.6560   -3.6844    0.0000 F   0  0  0  0  0  0  0  0  0  0  0  0
   -2.8114   -1.9054    0.0000 F   0  0  0  0  0  0  0  0  0  0  0  0
    0.1231   -2.5291    0.0000 F   0  0  0  0  0  0  0  0  0  0  0  0
    0.3943   -1.2135    0.0000 C   0  0  0  0  0  0  0  0  0  0  0  0
  1  2  1  0
  2  3  2  0
  3  4  1  0
  4  5  1  0
  5  6  2  0
  5  7  1  0
  7  8  2  0
  8  9  1  0
  9 10  1  0
  9 11  1  0
 11 12  1  0
 11 13  2  0
 13 14  1  0
  4 15  1  0
 15 16  1  6
 15 17  1  0
 17 18  1  0
 17 19  1  0
 17 20  1  0
 15 21  1  0
 21  2  1  0
 13  7  1  0
M  END
>  <Compound_ID>  (829) 
C07077896

>  <Active>  (829) 
0.0

>  <Smiles>  (829) 
CC1=NN(C(=O)c2nn(C)c(C)c2Br)[C@](O)(C(F)(F)F)C1

>  <canonical_smi>  (829) 
CC1=NN(C(=O)c2nn(C)c(C)c2Br)[C@](O)(C(F)(F)F)C1

>  <Set>  (829) 
G2 inactive

>  <Set_type>  (829) 
Train

>  <MW>  (829) 
369.14

>  <HBD>  (829) 
1

>  <HBA>  (829) 
3

>  <NRB>  (829) 
1

>  <NR>  (829) 
2

>  <NAR>  (829) 
1

>  <PSA>  (829) 
70.72

>  <Standard Type>  (829) 
nan

>  <Standard Relation>  (829) 
nan

>  <Standard Units>  (829) 
nan

>  <Standard Value>  (829) 
nan

>  <Assay ChEMBL ID>  (829) 
nan

>  <Assay Description>  (829) 
nan

>  <BAO Label>  (829) 
nan

$$$$

     RDKit          2D

 22 24  0  0  0  0  0  0  0  0999 V2000
   -4.4242   -8.5946    0.0000 C   0  0  0  0  0  0  0  0  0  0  0  0
   -2.9753   -8.2064    0.0000 O   0  0  0  0  0  0  0  0  0  0  0  0
   -2.5871   -6.7575    0.0000 C   0  0  0  0  0  0  0  0  0  0  0  0
   -3.6478   -5.6968    0.0000 C   0  0  0  0  0  0  0  0  0  0  0  0
   -3.2595   -4.2479    0.0000 C   0  0  0  0  0  0  0  0  0  0  0  0
   -4.3202   -3.1873    0.0000 I   0  0  0  0  0  0  0  0  0  0  0  0
   -1.8107   -3.8597    0.0000 C   0  0  0  0  0  0  0  0  0  0  0  0
   -0.7500   -4.9204    0.0000 C   0  0  0  0  0  0  0  0  0  0  0  0
   -1.1382   -6.3692    0.0000 C   0  0  0  0  0  0  0  0  0  0  0  0
    0.7500   -4.9204    0.0000 C   0  0  0  0  0  0  0  0  0  0  0  0
    1.8107   -3.8597    0.0000 C   0  0  0  0  0  0  0  0  0  0  0  0
    3.1965   -4.4337    0.0000 O   0  0  0  0  0  0  0  0  0  0  0  0
    1.8107   -2.3597    0.0000 N   0  0  0  0  0  0  0  0  0  0  0  0
    0.7500   -1.2990    0.0000 C   0  0  0  0  0  0  0  0  0  0  0  0
    1.5000    0.0000    0.0000 C   0  0  0  0  0  0  0  0  0  0  0  0
    3.0000    0.0000    0.0000 Cl  0  0  0  0  0  0  0  0  0  0  0  0
    0.7500    1.2990    0.0000 N   0  0  0  0  0  0  0  0  0  0  0  0
   -0.7500    1.2990    0.0000 C   0  0  0  0  0  0  0  0  0  0  0  0
   -1.5000    0.0000    0.0000 N   0  0  0  0  0  0  0  0  0  0  0  0
   -0.7500   -1.2990    0.0000 C   0  0  0  0  0  0  0  0  0  0  0  0
   -1.8107   -2.3597    0.0000 N   0  0  0  0  0  0  0  0  0  0  0  0
   -3.1965   -1.7857    0.0000 C   0  0  0  0  0  0  0  0  0  0  0  0
  1  2  1  0
  2  3  1  0
  3  4  2  0
  4  5  1  0
  5  6  1  0
  5  7  2  0
  7  8  1  0
  8  9  2  0
  8 10  1  0
 10 11  1  0
 11 12  1  0
 11 13  2  0
 13 14  1  0
 14 15  2  0
 15 16  1  0
 15 17  1  0
 17 18  2  0
 18 19  1  0
 19 20  2  0
 20 21  1  0
 21 22  1  0
  9  3  1  0
 20 14  1  0
 21  7  1  0
M  END
>  <Compound_ID>  (830) 
C39479485

>  <Active>  (830) 
0.0

>  <Smiles>  (830) 
COc1cc(I)c2c(c1)C/C(O)=N/c1c(Cl)ncnc1N2C

>  <canonical_smi>  (830) 
COc1cc(I)c2c(c1)C/C(O)=N/c1c(Cl)ncnc1N2C

>  <Set>  (830) 
G2 inactive

>  <Set_type>  (830) 
Train

>  <MW>  (830) 
430.63

>  <HBD>  (830) 
1

>  <HBA>  (830) 
5

>  <NRB>  (830) 
1

>  <NR>  (830) 
3

>  <NAR>  (830) 
2

>  <PSA>  (830) 
70.84

>  <Standard Type>  (830) 
nan

>  <Standard Relation>  (830) 
nan

>  <Standard Units>  (830) 
nan

>  <Standard Value>  (830) 
nan

>  <Assay ChEMBL ID>  (830) 
nan

>  <Assay Description>  (830) 
nan

>  <BAO Label>  (830) 
nan

$$$$

     RDKit          2D

 25 29  0  0  0  0  0  0  0  0999 V2000
    0.7500   -6.4952    0.0000 C   0  0  0  0  0  0  0  0  0  0  0  0
    1.5000   -5.1962    0.0000 C   0  0  0  0  0  0  0  0  0  0  0  0
    0.7500   -3.8971    0.0000 N   0  0  0  0  0  0  0  0  0  0  0  0
    1.5000   -2.5981    0.0000 C   0  0  0  0  0  0  0  0  0  0  0  0
    0.7500   -1.2990    0.0000 N   0  0  0  0  0  0  0  0  0  0  0  0
    1.5000    0.0000    0.0000 C   0  0  0  0  0  0  0  0  0  0  0  0
    0.7500    1.2990    0.0000 C   0  0  0  0  0  0  0  0  0  0  0  0
   -0.7500    1.2990    0.0000 C   0  0  0  0  0  0  0  0  0  0  0  0
   -1.7537    2.4138    0.0000 N   0  0  0  0  0  0  0  0  0  0  0  0
   -3.1240    1.8037    0.0000 C   0  0  0  0  0  0  0  0  0  0  0  0
   -4.4943    2.4138    0.0000 C   0  0  0  0  0  0  0  0  0  0  0  0
   -4.6511    3.9055    0.0000 Br  0  0  0  0  0  0  0  0  0  0  0  0
   -5.7079    1.5321    0.0000 C   0  0  0  0  0  0  0  0  0  0  0  0
   -5.5511    0.0403    0.0000 C   0  0  0  0  0  0  0  0  0  0  0  0
   -4.1807   -0.5698    0.0000 C   0  0  0  0  0  0  0  0  0  0  0  0
   -2.9672    0.3119    0.0000 C   0  0  0  0  0  0  0  0  0  0  0  0
   -1.5000    0.0000    0.0000 C   0  0  0  0  0  0  0  0  0  0  0  0
   -0.7500   -1.2990    0.0000 C   0  0  0  0  0  0  0  0  0  0  0  0
    3.0000   -2.5981    0.0000 C   0  0  0  0  0  0  0  0  0  0  0  0
    4.0037   -1.4834    0.0000 C   0  0  0  0  0  0  0  0  0  0  0  0
    5.3740   -2.0935    0.0000 N   0  0  0  0  0  0  0  0  0  0  0  0
    5.2172   -3.5852    0.0000 N   0  0  0  0  0  0  0  0  0  0  0  0
    6.3319   -4.5889    0.0000 C   0  0  0  0  0  0  0  0  0  0  0  0
    3.7500   -3.8971    0.0000 C   0  0  0  0  0  0  0  0  0  0  0  0
    3.0000   -5.1962    0.0000 N   0  0  0  0  0  0  0  0  0  0  0  0
  1  2  1  0
  2  3  2  0
  3  4  1  0
  4  5  1  0
  5  6  1  0
  6  7  1  0
  7  8  1  0
  8  9  1  0
  9 10  1  0
 10 11  2  0
 11 12  1  0
 11 13  1  0
 13 14  2  0
 14 15  1  0
 15 16  2  0
 16 17  1  0
 17 18  1  0
  4 19  2  0
 19 20  1  0
 20 21  2  0
 21 22  1  0
 22 23  1  0
 22 24  1  0
 24 25  2  0
 25  2  1  0
 18  5  1  0
 24 19  1  0
 17  8  2  0
 16 10  1  0
M  END
>  <Compound_ID>  (831) 
C57147593

>  <Active>  (831) 
0.0

>  <Smiles>  (831) 
Cc1nc(N2CCc3[nH]c4c(Br)cccc4c3C2)c2cnn(C)c2n1

>  <canonical_smi>  (831) 
Cc1nc(N2CCc3[nH]c4c(Br)cccc4c3C2)c2cnn(C)c2n1

>  <Set>  (831) 
G2 inactive

>  <Set_type>  (831) 
Train

>  <MW>  (831) 
397.28

>  <HBD>  (831) 
1

>  <HBA>  (831) 
4

>  <NRB>  (831) 
1

>  <NR>  (831) 
5

>  <NAR>  (831) 
4

>  <PSA>  (831) 
62.63

>  <Standard Type>  (831) 
nan

>  <Standard Relation>  (831) 
nan

>  <Standard Units>  (831) 
nan

>  <Standard Value>  (831) 
nan

>  <Assay ChEMBL ID>  (831) 
nan

>  <Assay Description>  (831) 
nan

>  <BAO Label>  (831) 
nan

$$$$

     RDKit          2D

 37 40  0  0  0  0  0  0  0  0999 V2000
    9.1840    1.6134    0.0000 C   0  0  0  0  0  0  0  0  0  0  0  0
    9.0272    0.1216    0.0000 C   0  0  0  0  0  0  0  0  0  0  0  0
    7.6569   -0.4885    0.0000 C   0  0  0  0  0  0  0  0  0  0  0  0
    7.5001   -1.9803    0.0000 C   0  0  0  0  0  0  0  0  0  0  0  0
    6.1298   -2.5904    0.0000 C   0  0  0  0  0  0  0  0  0  0  0  0
    5.9730   -4.0822    0.0000 C   0  0  0  0  0  0  0  0  0  0  0  0
    4.6740   -4.8322    0.0000 C   0  0  0  0  0  0  0  0  0  0  0  0
    3.3037   -4.2221    0.0000 C   0  0  0  0  0  0  0  0  0  0  0  0
    2.0046   -4.9721    0.0000 C   0  0  0  0  0  0  0  0  0  0  0  0
    1.8478   -6.4639    0.0000 C   0  0  0  0  0  0  0  0  0  0  0  0
    0.8899   -3.9684    0.0000 N   0  0  0  0  0  0  0  0  0  0  0  0
   -0.5773   -4.2803    0.0000 C   0  0  0  0  0  0  0  0  0  0  0  0
    1.5000   -2.5981    0.0000 N   0  0  0  0  0  0  0  0  0  0  0  0
    0.7500   -1.2990    0.0000 C   0  0  0  0  0  0  0  0  0  0  0  0
    1.5000    0.0000    0.0000 C   0  0  0  0  0  0  0  0  0  0  0  0
    0.7500    1.2990    0.0000 C   0  0  0  0  0  0  0  0  0  0  0  0
   -0.7500    1.2990    0.0000 C   0  0  0  0  0  0  0  0  0  0  0  0
   -1.5000    0.0000    0.0000 C   0  0  0  0  0  0  0  0  0  0  0  0
   -0.7500   -1.2990    0.0000 C   0  0  0  0  0  0  0  0  0  0  0  0
    2.9918   -2.7549    0.0000 C   0  0  0  0  0  0  0  0  0  0  0  0
    3.9955   -1.6402    0.0000 O   0  0  0  0  0  0  0  0  0  0  0  0
    4.9858   -6.2994    0.0000 C   0  0  0  0  0  0  0  0  0  0  0  0
    3.9821   -7.4141    0.0000 C   0  0  0  0  0  0  0  0  0  0  0  0
    4.4457   -8.8407    0.0000 N   0  0  0  0  0  0  0  0  0  0  0  0
    2.5149   -7.1023    0.0000 O   0  0  0  0  0  0  0  0  0  0  0  0
    6.4776   -6.4562    0.0000 C   0  0  0  0  0  0  0  0  0  0  0  0
    7.2276   -7.7552    0.0000 C   0  0  0  0  0  0  0  0  0  0  0  0
    7.0877   -5.0859    0.0000 N   0  0  0  0  0  0  0  0  0  0  0  0
    8.5549   -4.7740    0.0000 C   0  0  0  0  0  0  0  0  0  0  0  0
    9.5586   -5.8887    0.0000 C   0  0  0  0  0  0  0  0  0  0  0  0
   11.0259   -5.5769    0.0000 C   0  0  0  0  0  0  0  0  0  0  0  0
   12.0296   -6.6916    0.0000 C   0  0  0  0  0  0  0  0  0  0  0  0
   13.4968   -6.3797    0.0000 C   0  0  0  0  0  0  0  0  0  0  0  0
   13.9603   -4.9531    0.0000 C   0  0  0  0  0  0  0  0  0  0  0  0
   15.4275   -4.6413    0.0000 O   0  0  0  0  0  0  0  0  0  0  0  0
   12.9566   -3.8384    0.0000 C   0  0  0  0  0  0  0  0  0  0  0  0
   11.4894   -4.1503    0.0000 C   0  0  0  0  0  0  0  0  0  0  0  0
  1  2  1  0
  2  3  1  0
  3  4  1  0
  4  5  1  0
  5  6  1  0
  6  7  2  0
  7  8  1  0
  8  9  2  0
  9 10  1  0
  9 11  1  0
 11 12  1  0
 11 13  1  0
 13 14  1  0
 14 15  2  0
 15 16  1  0
 16 17  2  0
 17 18  1  0
 18 19  2  0
 13 20  1  0
 20 21  2  0
  7 22  1  0
 22 23  1  0
 23 24  1  0
 23 25  2  0
 22 26  2  0
 26 27  1  0
 26 28  1  0
 28 29  1  0
 29 30  1  0
 30 31  1  0
 31 32  2  0
 32 33  1  0
 33 34  2  0
 34 35  1  0
 34 36  1  0
 36 37  2  0
 28  6  1  0
 37 31  1  0
 20  8  1  0
 19 14  1  0
M  END
>  <Compound_ID>  (832) 
C43225738

>  <Active>  (832) 
0.0

>  <Smiles>  (832) 
CCCCCc1c(-c2c(C)n(C)n(-c3ccccc3)c2=O)c(C(N)=O)c(C)n1CCc1ccc(O)cc1

>  <canonical_smi>  (832) 
CCCCCc1c(-c2c(C)n(C)n(-c3ccccc3)c2=O)c(C(N)=O)c(C)n1CCc1ccc(O)cc1

>  <Set>  (832) 
G2 inactive

>  <Set_type>  (832) 
Train

>  <MW>  (832) 
500.64

>  <HBD>  (832) 
2

>  <HBA>  (832) 
3

>  <NRB>  (832) 
10

>  <NR>  (832) 
4

>  <NAR>  (832) 
4

>  <PSA>  (832) 
95.18

>  <Standard Type>  (832) 
nan

>  <Standard Relation>  (832) 
nan

>  <Standard Units>  (832) 
nan

>  <Standard Value>  (832) 
nan

>  <Assay ChEMBL ID>  (832) 
nan

>  <Assay Description>  (832) 
nan

>  <BAO Label>  (832) 
nan

$$$$

     RDKit          2D

 33 36  0  0  0  0  0  0  0  0999 V2000
   -6.9204   -5.2665    0.0000 N   0  0  0  0  0  0  0  0  0  0  0  0
   -5.6213   -4.5165    0.0000 C   0  0  0  0  0  0  0  0  0  0  0  0
   -5.7859   -3.1765    0.0000 O   0  0  0  0  0  0  0  0  0  0  0  0
   -4.3223   -5.2665    0.0000 C   0  0  0  0  0  0  0  0  0  0  0  0
   -4.1655   -6.7583    0.0000 C   0  0  0  0  0  0  0  0  0  0  0  0
   -2.6983   -7.0701    0.0000 C   0  0  0  0  0  0  0  0  0  0  0  0
   -1.9483   -5.7711    0.0000 C   0  0  0  0  0  0  0  0  0  0  0  0
   -2.9520   -4.6564    0.0000 N   0  0  0  0  0  4  0  0  0  0  0  0
   -2.6401   -3.1891    0.0000 C   0  0  0  0  0  0  0  0  0  0  0  0
   -3.7548   -2.1855    0.0000 C   0  0  0  0  0  0  0  0  0  0  0  0
   -5.0800   -2.4430    0.0000 O   0  0  0  0  0  0  0  0  0  0  0  0
   -3.4430   -0.7182    0.0000 O   0  0  0  0  0  1  0  0  0  0  0  0
   -1.2135   -2.7256    0.0000 C   0  0  0  0  0  0  0  0  0  0  0  0
   -0.0000   -3.6073    0.0000 C   0  0  0  0  0  0  0  0  0  0  0  0
    1.2135   -2.7256    0.0000 N   0  0  0  0  0  0  0  0  0  0  0  0
    0.7500   -1.2990    0.0000 C   0  0  0  0  0  0  0  0  0  0  0  0
    1.5000    0.0000    0.0000 C   0  0  0  0  0  0  0  0  0  0  0  0
    0.7500    1.2990    0.0000 C   0  0  0  0  0  0  0  0  0  0  0  0
    1.5000    2.5981    0.0000 N   0  0  0  0  0  0  0  0  0  0  0  0
    3.0000    2.5981    0.0000 C   0  0  0  0  0  0  0  0  0  0  0  0
    3.7500    1.2990    0.0000 O   0  0  0  0  0  0  0  0  0  0  0  0
    3.7500    3.8971    0.0000 C   0  0  0  0  0  0  0  0  0  0  0  0
    5.2500    3.8971    0.0000 C   0  0  0  0  0  0  0  0  0  0  0  0
    6.0000    5.1962    0.0000 C   0  0  0  0  0  0  0  0  0  0  0  0
    5.2500    6.4952    0.0000 C   0  0  0  0  0  0  0  0  0  0  0  0
    3.7500    6.4952    0.0000 C   0  0  0  0  0  0  0  0  0  0  0  0
    3.0000    5.1962    0.0000 C   0  0  0  0  0  0  0  0  0  0  0  0
    1.5000    5.1962    0.0000 C   0  0  0  0  0  0  0  0  0  0  0  0
    0.7500    3.8971    0.0000 O   0  0  0  0  0  0  0  0  0  0  0  0
    0.7500    6.4952    0.0000 O   0  0  0  0  0  1  0  0  0  0  0  0
   -0.7500    1.2990    0.0000 C   0  0  0  0  0  0  0  0  0  0  0  0
   -1.5000    0.0000    0.0000 C   0  0  0  0  0  0  0  0  0  0  0  0
   -0.7500   -1.2990    0.0000 C   0  0  0  0  0  0  0  0  0  0  0  0
  1  2  1  0
  2  3  2  0
  4  2  1  1
  4  5  1  0
  5  6  1  0
  6  7  1  0
  7  8  1  0
  9  8  1  6
  9 10  1  0
 10 11  2  0
 10 12  1  0
  9 13  1  0
 13 14  2  0
 14 15  1  0
 15 16  1  0
 16 17  2  0
 17 18  1  0
 18 19  1  0
 19 20  1  0
 20 21  2  0
 22 20  1  6
 22 23  1  0
 23 24  1  0
 24 25  2  0
 25 26  1  0
 26 27  1  0
 27 28  1  6
 28 29  2  0
 28 30  1  0
 18 31  2  0
 31 32  1  0
 32 33  2  0
  8  4  1  0
 33 13  1  0
 33 16  1  0
 27 22  1  0
M  CHG  3   8   1  12  -1  30  -1
M  END
>  <Compound_ID>  (833) 
C36353958

>  <Active>  (833) 
0.0

>  <Smiles>  (833) 
NC(=O)[C@@H]1CCC[NH+]1[C@H](C(=O)[O-])c1c[nH]c2cc(NC(=O)[C@H]3CC=CC[C@H]3C(=O)[O-])ccc12

>  <canonical_smi>  (833) 
NC(=O)[C@@H]1CCC[NH+]1[C@H](C(=O)[O-])c1c[nH]c2cc(NC(=O)[C@H]3CC=CC[C@H]3C(=O)[O-])ccc12

>  <Set>  (833) 
G2 inactive

>  <Set_type>  (833) 
Train

>  <MW>  (833) 
453.48

>  <HBD>  (833) 
4

>  <HBA>  (833) 
6

>  <NRB>  (833) 
7

>  <NR>  (833) 
4

>  <NAR>  (833) 
2

>  <PSA>  (833) 
172.68

>  <Standard Type>  (833) 
nan

>  <Standard Relation>  (833) 
nan

>  <Standard Units>  (833) 
nan

>  <Standard Value>  (833) 
nan

>  <Assay ChEMBL ID>  (833) 
nan

>  <Assay Description>  (833) 
nan

>  <BAO Label>  (833) 
nan

$$$$

     RDKit          2D

 36 40  0  0  0  0  0  0  0  0999 V2000
   -9.2010   -8.5442    0.0000 O   0  0  0  0  0  0  0  0  0  0  0  0
  -10.5000   -7.7942    0.0000 P   0  0  0  0  0  5  0  0  0  0  0  0
  -11.7990   -7.0442    0.0000 O   0  0  0  0  0  1  0  0  0  0  0  0
   -9.7500   -6.4952    0.0000 O   0  0  0  0  0  0  0  0  0  0  0  0
   -8.2500   -6.4952    0.0000 C   0  0  0  0  0  0  0  0  0  0  0  0
   -7.5000   -5.1962    0.0000 C   0  0  0  0  0  0  0  0  0  0  0  0
   -6.0000   -5.1962    0.0000 C   0  0  0  0  0  0  0  0  0  0  0  0
   -5.2500   -3.8971    0.0000 C   0  0  0  0  0  0  0  0  0  0  0  0
   -3.7500   -3.8971    0.0000 C   0  0  0  0  0  0  0  0  0  0  0  0
   -3.0000   -5.1962    0.0000 C   0  0  0  0  0  0  0  0  0  0  0  0
   -1.5000   -5.1962    0.0000 C   0  0  0  0  0  0  0  0  0  0  0  0
   -0.7500   -3.8971    0.0000 C   0  0  0  0  0  0  0  0  0  0  0  0
    0.7500   -3.8971    0.0000 C   0  0  0  0  0  0  0  0  0  0  0  0
    1.5000   -2.5981    0.0000 C   0  0  0  0  0  0  0  0  0  0  0  0
    0.7500   -1.2990    0.0000 C   0  0  0  0  0  0  0  0  0  0  0  0
    1.5000    0.0000    0.0000 C   0  0  0  0  0  0  0  0  0  0  0  0
    0.7500    1.2990    0.0000 C   0  0  0  0  0  0  0  0  0  0  0  0
   -0.7500    1.2990    0.0000 C   0  0  0  0  0  0  0  0  0  0  0  0
   -1.5000    0.0000    0.0000 C   0  0  0  0  0  0  0  0  0  0  0  0
   -3.0000    0.0000    0.0000 C   0  0  0  0  0  0  0  0  0  0  0  0
   -3.7500   -1.2990    0.0000 C   0  0  0  0  0  0  0  0  0  0  0  0
   -3.0000   -2.5981    0.0000 C   0  0  0  0  0  0  0  0  0  0  0  0
   -1.5000   -2.5981    0.0000 C   0  0  0  0  0  0  0  0  0  0  0  0
   -0.7500   -1.2990    0.0000 C   0  0  0  0  0  0  0  0  0  0  0  0
  -11.2500   -9.0933    0.0000 O   0  0  0  0  0  0  0  0  0  0  0  0
  -10.5000  -10.3923    0.0000 C   0  0  0  0  0  0  0  0  0  0  0  0
  -11.2500  -11.6913    0.0000 C   0  0  0  0  0  0  0  0  0  0  0  0
  -12.7500  -11.6913    0.0000 O   0  0  0  0  0  0  0  0  0  0  0  0
  -10.5000  -12.9904    0.0000 C   0  0  0  0  0  0  0  0  0  0  0  0
  -11.2500  -14.2894    0.0000 O   0  0  0  0  0  0  0  0  0  0  0  0
   -9.0000  -12.9904    0.0000 C   0  0  0  0  0  0  0  0  0  0  0  0
   -8.2500  -14.2894    0.0000 O   0  0  0  0  0  0  0  0  0  0  0  0
   -8.2500  -11.6913    0.0000 C   0  0  0  0  0  0  0  0  0  0  0  0
   -6.7500  -11.6913    0.0000 O   0  0  0  0  0  0  0  0  0  0  0  0
   -9.0000  -10.3923    0.0000 C   0  0  0  0  0  0  0  0  0  0  0  0
   -8.2500   -9.0933    0.0000 O   0  0  0  0  0  0  0  0  0  0  0  0
  1  2  2  0
  2  3  1  1
  2  4  1  0
  4  5  1  0
  5  6  1  0
  6  7  1  0
  7  8  1  0
  8  9  1  0
  9 10  2  0
 10 11  1  0
 11 12  2  0
 12 13  1  0
 13 14  2  0
 14 15  1  0
 15 16  2  0
 16 17  1  0
 17 18  2  0
 18 19  1  0
 19 20  2  0
 20 21  1  0
 21 22  2  0
 22 23  1  0
 23 24  2  0
  2 25  1  0
 25 26  1  0
 26 27  1  0
 27 28  1  6
 27 29  1  0
 29 30  1  6
 29 31  1  0
 31 32  1  0
 31 33  1  0
 33 34  1  6
 33 35  1  0
 35 36  1  6
 22  9  1  0
 35 26  1  0
 23 12  1  0
 24 15  1  0
 24 19  1  0
M  CHG  1   3  -1
M  END
>  <Compound_ID>  (834) 
C35375784

>  <Active>  (834) 
0.0

>  <Smiles>  (834) 
O=[P@@]([O-])(OCCCCc1ccc2ccc3cccc4ccc1c2c34)OC1[C@@H](O)[C@@H](O)C(O)[C@@H](O)[C@H]1O

>  <canonical_smi>  (834) 
O=[P@@]([O-])(OCCCCc1ccc2ccc3cccc4ccc1c2c34)OC1[C@@H](O)[C@@H](O)C(O)[C@@H](O)[C@H]1O

>  <Set>  (834) 
G2 inactive

>  <Set_type>  (834) 
Train

>  <MW>  (834) 
515.48

>  <HBD>  (834) 
5

>  <HBA>  (834) 
9

>  <NRB>  (834) 
8

>  <NR>  (834) 
5

>  <NAR>  (834) 
4

>  <PSA>  (834) 
159.74

>  <Standard Type>  (834) 
nan

>  <Standard Relation>  (834) 
nan

>  <Standard Units>  (834) 
nan

>  <Standard Value>  (834) 
nan

>  <Assay ChEMBL ID>  (834) 
nan

>  <Assay Description>  (834) 
nan

>  <BAO Label>  (834) 
nan

$$$$

     RDKit          2D

 34 37  0  0  0  0  0  0  0  0999 V2000
    3.7500   -1.2990    0.0000 N   0  0  0  0  0  0  0  0  0  0  0  0
    3.0000    0.0000    0.0000 C   0  0  0  0  0  0  0  0  0  0  0  0
    3.7500    1.2990    0.0000 N   0  0  0  0  0  4  0  0  0  0  0  0
    1.5000    0.0000    0.0000 C   0  0  0  0  0  0  0  0  0  0  0  0
    0.7500   -1.2990    0.0000 C   0  0  0  0  0  0  0  0  0  0  0  0
   -0.7500   -1.2990    0.0000 C   0  0  0  0  0  0  0  0  0  0  0  0
   -1.5000    0.0000    0.0000 C   0  0  0  0  0  0  0  0  0  0  0  0
   -2.9672    0.3119    0.0000 N   0  0  0  0  0  0  0  0  0  0  0  0
   -3.1240    1.8037    0.0000 C   0  0  0  0  0  0  0  0  0  0  0  0
   -4.4231    2.5537    0.0000 C   0  0  0  0  0  0  0  0  0  0  0  0
   -4.4231    4.0537    0.0000 C   0  0  0  0  0  0  0  0  0  0  0  0
   -5.7221    4.8037    0.0000 C   0  0  0  0  0  0  0  0  0  0  0  0
   -5.7221    6.3037    0.0000 C   0  0  0  0  0  0  0  0  0  0  0  0
   -4.4231    7.0537    0.0000 C   0  0  0  0  0  0  0  0  0  0  0  0
   -4.4231    8.5537    0.0000 C   0  0  0  0  0  0  0  0  0  0  0  0
   -5.7221    9.3037    0.0000 O   0  0  0  0  0  0  0  0  0  0  0  0
   -3.1240    9.3037    0.0000 O   0  0  0  0  0  1  0  0  0  0  0  0
   -7.0211    7.0537    0.0000 C   0  0  0  0  0  0  0  0  0  0  0  0
   -8.3202    6.3037    0.0000 O   0  0  0  0  0  0  0  0  0  0  0  0
   -7.0211    8.5537    0.0000 O   0  0  0  0  0  1  0  0  0  0  0  0
   -7.0211    4.0537    0.0000 C   0  0  0  0  0  0  0  0  0  0  0  0
   -7.0211    2.5537    0.0000 C   0  0  0  0  0  0  0  0  0  0  0  0
   -8.3202    1.8037    0.0000 C   0  0  0  0  0  0  0  0  0  0  0  0
   -9.6192    2.5537    0.0000 C   0  0  0  0  0  0  0  0  0  0  0  0
  -10.9182    1.8037    0.0000 C   0  0  0  0  0  0  0  0  0  0  0  0
  -10.9182    0.3037    0.0000 C   0  0  0  0  0  0  0  0  0  0  0  0
   -9.6192   -0.4463    0.0000 C   0  0  0  0  0  0  0  0  0  0  0  0
   -8.3202    0.3037    0.0000 C   0  0  0  0  0  0  0  0  0  0  0  0
   -7.0211   -0.4463    0.0000 F   0  0  0  0  0  0  0  0  0  0  0  0
   -5.7221    1.8037    0.0000 C   0  0  0  0  0  0  0  0  0  0  0  0
   -5.7221    0.3037    0.0000 O   0  0  0  0  0  1  0  0  0  0  0  0
   -1.7537    2.4138    0.0000 N   0  0  0  0  0  4  0  0  0  0  0  0
   -0.7500    1.2990    0.0000 C   0  0  0  0  0  0  0  0  0  0  0  0
    0.7500    1.2990    0.0000 C   0  0  0  0  0  0  0  0  0  0  0  0
  1  2  1  0
  2  3  2  0
  2  4  1  0
  4  5  2  0
  5  6  1  0
  6  7  2  0
  7  8  1  0
  8  9  1  0
  9 10  1  0
 10 11  2  0
 11 12  1  0
 12 13  1  0
 13 14  1  6
 14 15  1  0
 15 16  2  0
 15 17  1  0
 13 18  1  0
 18 19  2  0
 18 20  1  0
 12 21  2  0
 21 22  1  0
 22 23  1  0
 23 24  2  0
 24 25  1  0
 25 26  2  0
 26 27  1  0
 27 28  2  0
 28 29  1  0
 22 30  2  0
 30 31  1  0
  9 32  2  0
 32 33  1  0
 33 34  2  0
 34  4  1  0
 33  7  1  0
 30 10  1  0
 28 23  1  0
M  CHG  5   3   1  17  -1  20  -1  31  -1  32   1
M  END
>  <Compound_ID>  (835) 
C12501044

>  <Active>  (835) 
0.0

>  <Smiles>  (835) 
NC(=[NH2+])c1ccc2[nH]c(-c3cc([C@@H](CC(=O)[O-])C(=O)[O-])cc(-c4ccccc4F)c3[O-])[nH+]c2c1

>  <canonical_smi>  (835) 
NC(=[NH2+])c1ccc2[nH]c(-c3cc([C@@H](CC(=O)[O-])C(=O)[O-])cc(-c4ccccc4F)c3[O-])[nH+]c2c1

>  <Set>  (835) 
G2 inactive

>  <Set_type>  (835) 
Train

>  <MW>  (835) 
461.43

>  <HBD>  (835) 
3

>  <HBA>  (835) 
6

>  <NRB>  (835) 
7

>  <NR>  (835) 
4

>  <NAR>  (835) 
4

>  <PSA>  (835) 
184.86

>  <Standard Type>  (835) 
nan

>  <Standard Relation>  (835) 
nan

>  <Standard Units>  (835) 
nan

>  <Standard Value>  (835) 
nan

>  <Assay ChEMBL ID>  (835) 
nan

>  <Assay Description>  (835) 
nan

>  <BAO Label>  (835) 
nan

$$$$

     RDKit          2D

 16 16  0  0  0  0  0  0  0  0999 V2000
    5.0260   -1.2990    0.0000 C   0  0  0  0  0  0  0  0  0  0  0  0
    3.5260   -1.2990    0.0000 N   0  0  0  0  0  0  0  0  0  0  0  0
    2.7760    0.0000    0.0000 C   0  0  0  0  0  0  0  0  0  0  0  0
    3.5260    1.2990    0.0000 O   0  0  0  0  0  0  0  0  0  0  0  0
    1.2760    0.0000    0.0000 C   0  0  0  0  0  0  0  0  0  0  0  0
    0.3943    1.2135    0.0000 N   0  0  0  0  0  0  0  0  0  0  0  0
   -1.0323    0.7500    0.0000 N   0  0  0  0  0  0  0  0  0  0  0  0
   -1.0323   -0.7500    0.0000 S   0  0  0  0  0  0  0  0  0  0  0  0
    0.3943   -1.2135    0.0000 C   0  0  0  0  0  0  0  0  0  0  0  0
    0.8578   -2.6401    0.0000 N   0  0  0  0  0  0  0  0  0  0  0  0
   -0.1459   -3.7548    0.0000 C   0  0  0  0  0  0  0  0  0  0  0  0
   -1.6131   -3.4430    0.0000 O   0  0  0  0  0  0  0  0  0  0  0  0
    0.3177   -5.1814    0.0000 C   0  0  0  0  0  0  0  0  0  0  0  0
    0.7812   -6.6080    0.0000 F   0  0  0  0  0  0  0  0  0  0  0  0
   -1.1089   -5.6449    0.0000 F   0  0  0  0  0  0  0  0  0  0  0  0
    1.7442   -4.7179    0.0000 F   0  0  0  0  0  0  0  0  0  0  0  0
  1  2  1  0
  2  3  1  0
  3  4  2  0
  3  5  1  0
  5  6  1  0
  6  7  2  0
  7  8  1  0
  8  9  1  0
  9 10  1  0
 10 11  1  0
 11 12  2  0
 11 13  1  0
 13 14  1  0
 13 15  1  0
 13 16  1  0
  9  5  2  0
M  END
>  <Compound_ID>  (836) 
C01417110

>  <Active>  (836) 
0.0

>  <Smiles>  (836) 
CNC(=O)c1nnsc1NC(=O)C(F)(F)F

>  <canonical_smi>  (836) 
CNC(=O)c1nnsc1NC(=O)C(F)(F)F

>  <Set>  (836) 
G2 inactive

>  <Set_type>  (836) 
Train

>  <MW>  (836) 
254.19

>  <HBD>  (836) 
2

>  <HBA>  (836) 
4

>  <NRB>  (836) 
2

>  <NR>  (836) 
1

>  <NAR>  (836) 
1

>  <PSA>  (836) 
83.98

>  <Standard Type>  (836) 
nan

>  <Standard Relation>  (836) 
nan

>  <Standard Units>  (836) 
nan

>  <Standard Value>  (836) 
nan

>  <Assay ChEMBL ID>  (836) 
nan

>  <Assay Description>  (836) 
nan

>  <BAO Label>  (836) 
nan

$$$$

     RDKit          2D

 15 16  0  0  0  0  0  0  0  0999 V2000
   -5.6640    3.2626    0.0000 C   0  0  0  0  0  0  0  0  0  0  0  0
   -4.1640    3.2626    0.0000 C   0  0  0  0  0  0  0  0  0  0  0  0
   -3.4140    1.9635    0.0000 C   0  0  0  0  0  0  0  0  0  0  0  0
   -4.1640    0.6645    0.0000 C   0  0  0  0  0  0  0  0  0  0  0  0
   -1.9140    1.9635    0.0000 N   0  0  0  0  0  0  0  0  0  0  0  0
   -1.0323    3.1771    0.0000 C   0  0  0  0  0  0  0  0  0  0  0  0
   -1.4958    4.6036    0.0000 O   0  0  0  0  0  0  0  0  0  0  0  0
    0.3943    2.7135    0.0000 N   0  0  0  0  0  0  0  0  0  0  0  0
    1.6078    3.5952    0.0000 C   0  0  0  0  0  0  0  0  0  0  0  0
    0.3943    1.2135    0.0000 C   0  0  0  0  0  0  0  0  0  0  0  0
    1.2760    0.0000    0.0000 N   0  0  0  0  0  0  0  0  0  0  0  0
    0.3943   -1.2135    0.0000 C   0  0  0  0  0  0  0  0  0  0  0  0
    0.8578   -2.6401    0.0000 O   0  0  0  0  0  0  0  0  0  0  0  0
   -1.0323   -0.7500    0.0000 N   0  0  0  0  0  0  0  0  0  0  0  0
   -1.0323    0.7500    0.0000 C   0  0  0  0  0  0  0  0  0  0  0  0
  1  2  1  0
  2  3  1  0
  3  4  1  6
  3  5  1  0
  5  6  1  0
  6  7  2  0
  6  8  1  0
  8  9  1  0
  8 10  1  0
 10 11  1  1
 11 12  1  0
 12 13  2  0
 12 14  1  0
 15 14  1  6
 15  5  1  0
 15 10  1  0
M  END
>  <Compound_ID>  (837) 
C13153632

>  <Active>  (837) 
0.0

>  <Smiles>  (837) 
CC[C@@H](C)N1C(=O)N(C)[C@H]2NC(=O)N[C@@H]21

>  <canonical_smi>  (837) 
CC[C@@H](C)N1C(=O)N(C)[C@H]2NC(=O)N[C@@H]21

>  <Set>  (837) 
G2 inactive

>  <Set_type>  (837) 
Train

>  <MW>  (837) 
212.25

>  <HBD>  (837) 
2

>  <HBA>  (837) 
2

>  <NRB>  (837) 
2

>  <NR>  (837) 
2

>  <NAR>  (837) 
0

>  <PSA>  (837) 
64.68

>  <Standard Type>  (837) 
nan

>  <Standard Relation>  (837) 
nan

>  <Standard Units>  (837) 
nan

>  <Standard Value>  (837) 
nan

>  <Assay ChEMBL ID>  (837) 
nan

>  <Assay Description>  (837) 
nan

>  <BAO Label>  (837) 
nan

$$$$

     RDKit          2D

 18 19  0  0  0  0  0  0  0  0999 V2000
    2.3907    1.0037    0.0000 C   0  0  0  0  0  0  0  0  0  0  0  0
    1.2760    0.0000    0.0000 C   0  0  0  0  0  0  0  0  0  0  0  0
    2.3907   -1.0037    0.0000 C   0  0  0  0  0  0  0  0  0  0  0  0
    0.3943    1.2135    0.0000 O   0  0  0  0  0  0  0  0  0  0  0  0
   -1.0323    0.7500    0.0000 C   0  0  0  0  0  0  0  0  0  0  0  0
   -1.0323   -0.7500    0.0000 C   0  0  0  0  0  0  0  0  0  0  0  0
   -2.2458   -1.6317    0.0000 C   0  0  0  0  0  0  0  0  0  0  0  0
   -2.0890   -3.1235    0.0000 O   0  0  0  0  0  0  0  0  0  0  0  0
   -3.6161   -1.0216    0.0000 C   0  0  0  0  0  0  0  0  0  0  0  0
   -4.9152   -1.7716    0.0000 O   0  0  0  0  0  0  0  0  0  0  0  0
   -6.0299   -0.7679    0.0000 C   0  0  0  0  0  0  0  0  0  0  0  0
   -6.9116   -1.9814    0.0000 C   0  0  0  0  0  0  0  0  0  0  0  0
   -7.3289   -0.0179    0.0000 C   0  0  0  0  0  0  0  0  0  0  0  0
   -5.4198    0.6024    0.0000 O   0  0  0  0  0  0  0  0  0  0  0  0
   -3.9280    0.4456    0.0000 C   0  0  0  0  0  0  0  0  0  0  0  0
   -2.9243    1.5604    0.0000 C   0  0  0  0  0  0  0  0  0  0  0  0
   -3.3878    2.9870    0.0000 O   0  0  0  0  0  0  0  0  0  0  0  0
    0.3943   -1.2135    0.0000 O   0  0  0  0  0  0  0  0  0  0  0  0
  1  2  1  0
  2  3  1  0
  2  4  1  0
  4  5  1  0
  6  5  1  6
  6  7  1  0
  7  8  1  1
  7  9  1  0
  9 10  1  6
 10 11  1  0
 11 12  1  0
 11 13  1  0
 11 14  1  0
 14 15  1  0
 15 16  1  6
 16 17  1  0
  6 18  1  0
 18  2  1  0
 15  9  1  0
M  END
>  <Compound_ID>  (838) 
C14586363

>  <Active>  (838) 
0.0

>  <Smiles>  (838) 
CC1(C)OC[C@@H]([C@@H](O)[C@@H]2OC(C)(C)O[C@@H]2CO)O1

>  <canonical_smi>  (838) 
CC1(C)OC[C@@H]([C@@H](O)[C@@H]2OC(C)(C)O[C@@H]2CO)O1

>  <Set>  (838) 
G2 inactive

>  <Set_type>  (838) 
Train

>  <MW>  (838) 
262.3

>  <HBD>  (838) 
2

>  <HBA>  (838) 
6

>  <NRB>  (838) 
3

>  <NR>  (838) 
2

>  <NAR>  (838) 
0

>  <PSA>  (838) 
77.38

>  <Standard Type>  (838) 
nan

>  <Standard Relation>  (838) 
nan

>  <Standard Units>  (838) 
nan

>  <Standard Value>  (838) 
nan

>  <Assay ChEMBL ID>  (838) 
nan

>  <Assay Description>  (838) 
nan

>  <BAO Label>  (838) 
nan

$$$$

     RDKit          2D

 14 16  0  0  0  0  0  0  0  0999 V2000
   -0.5484    6.3538    0.0000 O   0  0  0  0  0  0  0  0  0  0  0  0
    0.2016    5.0548    0.0000 N   0  0  0  0  0  0  0  0  0  0  0  0
    1.6933    4.8980    0.0000 C   0  0  0  0  0  0  0  0  0  0  0  0
    2.0052    3.4307    0.0000 C   0  0  0  0  0  0  0  0  0  0  0  0
    0.7062    2.6807    0.0000 C   0  0  0  0  0  0  0  0  0  0  0  0
    1.9197    1.7991    0.0000 O   0  0  0  0  0  0  0  0  0  0  0  0
    0.3943    1.2135    0.0000 C   0  0  0  0  0  0  0  0  0  0  0  0
    1.2760    0.0000    0.0000 N   0  0  0  0  0  0  0  0  0  0  0  0
    0.3943   -1.2135    0.0000 O   0  0  0  0  0  0  0  0  0  0  0  0
   -1.0323   -0.7500    0.0000 N   0  0  0  0  0  0  0  0  0  0  0  0
   -1.0323    0.7500    0.0000 C   0  0  0  0  0  0  0  0  0  0  0  0
   -2.1470    1.7537    0.0000 C   0  0  0  0  0  0  0  0  0  0  0  0
   -1.8351    3.2209    0.0000 C   0  0  0  0  0  0  0  0  0  0  0  0
   -0.4086    3.6844    0.0000 C   0  0  0  0  0  0  0  0  0  0  0  0
  1  2  1  0
  2  3  1  0
  3  4  1  0
  4  5  1  0
  5  6  1  6
  5  7  1  0
  7  8  2  0
  8  9  1  0
  9 10  1  0
 10 11  2  0
 11 12  1  0
 12 13  1  0
 14 13  1  6
 14  2  1  0
 14  5  1  0
 11  7  1  0
M  END
>  <Compound_ID>  (839) 
C00497841

>  <Active>  (839) 
0.0

>  <Smiles>  (839) 
ON1CC[C@@]2(O)c3nonc3CC[C@H]12

>  <canonical_smi>  (839) 
ON1CC[C@@]2(O)c3nonc3CC[C@H]12

>  <Set>  (839) 
G2 inactive

>  <Set_type>  (839) 
Train

>  <MW>  (839) 
197.19

>  <HBD>  (839) 
2

>  <HBA>  (839) 
6

>  <NRB>  (839) 
0

>  <NR>  (839) 
3

>  <NAR>  (839) 
1

>  <PSA>  (839) 
82.62

>  <Standard Type>  (839) 
nan

>  <Standard Relation>  (839) 
nan

>  <Standard Units>  (839) 
nan

>  <Standard Value>  (839) 
nan

>  <Assay ChEMBL ID>  (839) 
nan

>  <Assay Description>  (839) 
nan

>  <BAO Label>  (839) 
nan

$$$$

     RDKit          2D

 15 17  0  0  0  0  0  0  0  0999 V2000
    3.0000    0.0000    0.0000 C   0  0  0  0  0  0  0  0  0  0  0  0
    1.5000    0.0000    0.0000 C   0  0  0  0  0  0  0  0  0  0  0  0
    0.7500   -1.2990    0.0000 N   0  0  0  0  0  4  0  0  0  0  0  0
   -0.7500   -1.2990    0.0000 C   0  0  0  0  0  0  0  0  0  0  0  0
   -1.5000    0.0000    0.0000 C   0  0  0  0  0  0  0  0  0  0  0  0
   -0.7500    1.2990    0.0000 N   0  0  0  0  0  0  0  0  0  0  0  0
   -1.2135    2.7256    0.0000 C   0  0  0  0  0  0  0  0  0  0  0  0
   -2.6401    3.1891    0.0000 C   0  0  0  0  0  0  0  0  0  0  0  0
   -3.8536    2.3075    0.0000 N   0  0  0  0  0  0  0  0  0  0  0  0
   -5.0672    3.1891    0.0000 N   0  0  0  0  0  0  0  0  0  0  0  0
   -4.6036    4.6157    0.0000 N   0  0  0  0  0  0  0  0  0  0  0  0
   -3.1036    4.6157    0.0000 N   0  0  0  0  0  2  0  0  0  0  0  0
    0.0000    3.6073    0.0000 C   0  0  0  0  0  0  0  0  0  0  0  0
    1.2135    2.7256    0.0000 C   0  0  0  0  0  0  0  0  0  0  0  0
    0.7500    1.2990    0.0000 C   0  0  0  0  0  0  0  0  0  0  0  0
  2  1  1  1
  2  3  1  0
  3  4  1  0
  4  5  1  0
  5  6  1  0
  6  7  1  0
  7  8  1  0
  8  9  2  0
  9 10  1  0
 10 11  2  0
 11 12  1  0
  7 13  2  0
 13 14  1  0
 14 15  2  0
 15  2  1  0
 15  6  1  0
 12  8  1  0
M  CHG  2   3   1  12  -1
M  END
>  <Compound_ID>  (840) 
C12877936

>  <Active>  (840) 
0.0

>  <Smiles>  (840) 
C[C@H]1[NH2+]CCn2c(-c3nnn[n-]3)ccc21

>  <canonical_smi>  (840) 
C[C@H]1[NH2+]CCn2c(-c3nnn[n-]3)ccc21

>  <Set>  (840) 
G2 inactive

>  <Set_type>  (840) 
Train

>  <MW>  (840) 
204.24

>  <HBD>  (840) 
1

>  <HBA>  (840) 
4

>  <NRB>  (840) 
1

>  <NR>  (840) 
3

>  <NAR>  (840) 
2

>  <PSA>  (840) 
74.31

>  <Standard Type>  (840) 
nan

>  <Standard Relation>  (840) 
nan

>  <Standard Units>  (840) 
nan

>  <Standard Value>  (840) 
nan

>  <Assay ChEMBL ID>  (840) 
nan

>  <Assay Description>  (840) 
nan

>  <BAO Label>  (840) 
nan

$$$$

     RDKit          2D

 17 19  0  0  0  0  0  0  0  0999 V2000
    3.0000    0.0000    0.0000 N   0  0  0  0  0  0  0  0  0  0  0  0
    1.5000    0.0000    0.0000 C   0  0  0  0  0  0  0  0  0  0  0  0
    0.7500   -1.2990    0.0000 C   0  0  0  0  0  0  0  0  0  0  0  0
   -0.7500   -1.2990    0.0000 C   0  0  0  0  0  0  0  0  0  0  0  0
   -1.5000    0.0000    0.0000 C   0  0  0  0  0  0  0  0  0  0  0  0
   -0.7500    1.2990    0.0000 C   0  0  0  0  0  0  0  0  0  0  0  0
    0.7500    1.2990    0.0000 C   0  0  0  0  0  0  0  0  0  0  0  0
    1.2135    2.7256    0.0000 C   0  0  0  0  0  0  0  0  0  0  0  0
    2.6401    3.1891    0.0000 O   0  0  0  0  0  0  0  0  0  0  0  0
    0.0000    3.6073    0.0000 N   0  0  0  0  0  0  0  0  0  0  0  0
    0.0000    5.1073    0.0000 C   0  0  0  0  0  0  0  0  0  0  0  0
   -1.2135    5.9890    0.0000 C   0  0  0  0  0  0  0  0  0  0  0  0
   -0.7500    7.4156    0.0000 C   0  0  0  0  0  0  0  0  0  0  0  0
    0.7500    7.4156    0.0000 O   0  0  0  0  0  0  0  0  0  0  0  0
    1.2135    5.9890    0.0000 N   0  0  0  0  0  0  0  0  0  0  0  0
   -1.2135    2.7256    0.0000 C   0  0  0  0  0  0  0  0  0  0  0  0
   -2.6401    3.1891    0.0000 O   0  0  0  0  0  0  0  0  0  0  0  0
  1  2  1  0
  2  3  2  0
  3  4  1  0
  4  5  2  0
  5  6  1  0
  6  7  2  0
  7  8  1  0
  8  9  2  0
  8 10  1  0
 10 11  1  0
 11 12  1  0
 12 13  2  0
 13 14  1  0
 14 15  1  0
 10 16  1  0
 16 17  2  0
  7  2  1  0
 15 11  2  0
 16  6  1  0
M  END
>  <Compound_ID>  (841) 
C61685438

>  <Active>  (841) 
0.0

>  <Smiles>  (841) 
Nc1cccc2c1C(=O)N(c1ccon1)C2=O

>  <canonical_smi>  (841) 
Nc1cccc2c1C(=O)N(c1ccon1)C2=O

>  <Set>  (841) 
G2 inactive

>  <Set_type>  (841) 
Train

>  <MW>  (841) 
229.19

>  <HBD>  (841) 
1

>  <HBA>  (841) 
5

>  <NRB>  (841) 
1

>  <NR>  (841) 
3

>  <NAR>  (841) 
2

>  <PSA>  (841) 
89.43

>  <Standard Type>  (841) 
nan

>  <Standard Relation>  (841) 
nan

>  <Standard Units>  (841) 
nan

>  <Standard Value>  (841) 
nan

>  <Assay ChEMBL ID>  (841) 
nan

>  <Assay Description>  (841) 
nan

>  <BAO Label>  (841) 
nan

$$$$

     RDKit          2D

 22 22  0  0  0  0  0  0  0  0999 V2000
   12.0000   -5.1962    0.0000 C   0  0  0  0  0  0  0  0  0  0  0  0
   10.5000   -5.1962    0.0000 C   0  0  0  0  0  0  0  0  0  0  0  0
    9.7500   -6.4952    0.0000 C   0  0  0  0  0  0  0  0  0  0  0  0
    9.7500   -3.8971    0.0000 N   0  0  0  0  0  0  0  0  0  0  0  0
    8.2500   -3.8971    0.0000 C   0  0  0  0  0  0  0  0  0  0  0  0
    7.5000   -5.1962    0.0000 O   0  0  0  0  0  0  0  0  0  0  0  0
    7.5000   -2.5981    0.0000 N   0  0  0  0  0  0  0  0  0  0  0  0
    6.0000   -2.5981    0.0000 N   0  0  0  0  0  0  0  0  0  0  0  0
    5.2500   -1.2990    0.0000 C   0  0  0  0  0  0  0  0  0  0  0  0
    6.0000    0.0000    0.0000 O   0  0  0  0  0  0  0  0  0  0  0  0
    3.7500   -1.2990    0.0000 C   0  0  0  0  0  0  0  0  0  0  0  0
    3.0000    0.0000    0.0000 C   0  0  0  0  0  0  0  0  0  0  0  0
    1.5000    0.0000    0.0000 C   0  0  0  0  0  0  0  0  0  0  0  0
    0.7500   -1.2990    0.0000 C   0  0  0  0  0  0  0  0  0  0  0  0
   -0.7500   -1.2990    0.0000 C   0  0  0  0  0  0  0  0  0  0  0  0
   -1.5000    0.0000    0.0000 C   0  0  0  0  0  0  0  0  0  0  0  0
   -3.0000    0.0000    0.0000 Cl  0  0  0  0  0  0  0  0  0  0  0  0
   -0.7500    1.2990    0.0000 C   0  0  0  0  0  0  0  0  0  0  0  0
   -1.5000    2.5981    0.0000 N   0  0  0  0  0  4  0  0  0  0  0  0
   -3.0000    2.5981    0.0000 O   0  0  0  0  0  0  0  0  0  0  0  0
   -0.7500    3.8971    0.0000 O   0  0  0  0  0  1  0  0  0  0  0  0
    0.7500    1.2990    0.0000 C   0  0  0  0  0  0  0  0  0  0  0  0
  1  2  1  0
  2  3  1  0
  2  4  1  0
  4  5  1  0
  5  6  2  0
  5  7  1  0
  7  8  1  0
  8  9  1  0
  9 10  2  0
  9 11  1  0
 11 12  2  0
 12 13  1  0
 13 14  2  0
 14 15  1  0
 15 16  2  0
 16 17  1  0
 16 18  1  0
 18 19  1  0
 19 20  2  0
 19 21  1  0
 18 22  2  0
 22 13  1  0
M  CHG  2  19   1  21  -1
M  END
>  <Compound_ID>  (842) 
C63363496

>  <Active>  (842) 
0.0

>  <Smiles>  (842) 
CC(C)NC(=O)NNC(=O)/C=C/c1ccc(Cl)c([N+](=O)[O-])c1

>  <canonical_smi>  (842) 
CC(C)NC(=O)NNC(=O)/C=C/c1ccc(Cl)c([N+](=O)[O-])c1

>  <Set>  (842) 
G2 inactive

>  <Set_type>  (842) 
Train

>  <MW>  (842) 
326.74

>  <HBD>  (842) 
3

>  <HBA>  (842) 
4

>  <NRB>  (842) 
4

>  <NR>  (842) 
1

>  <NAR>  (842) 
1

>  <PSA>  (842) 
113.37

>  <Standard Type>  (842) 
nan

>  <Standard Relation>  (842) 
nan

>  <Standard Units>  (842) 
nan

>  <Standard Value>  (842) 
nan

>  <Assay ChEMBL ID>  (842) 
nan

>  <Assay Description>  (842) 
nan

>  <BAO Label>  (842) 
nan

$$$$

     RDKit          2D

 25 28  0  0  0  0  0  0  0  0999 V2000
   -3.5757   -7.5908    0.0000 O   0  0  0  0  0  0  0  0  0  0  0  0
   -4.6904   -6.5871    0.0000 C   0  0  0  0  0  0  0  0  0  0  0  0
   -4.3786   -5.1199    0.0000 N   0  0  0  0  0  0  0  0  0  0  0  0
   -2.9520   -4.6564    0.0000 N   0  0  0  0  0  0  0  0  0  0  0  0
   -2.6401   -3.1891    0.0000 C   0  0  0  0  0  0  0  0  0  0  0  0
   -1.2135   -2.7256    0.0000 C   0  0  0  0  0  0  0  0  0  0  0  0
   -0.0000   -3.6073    0.0000 C   0  0  0  0  0  0  0  0  0  0  0  0
    1.2135   -2.7256    0.0000 N   0  0  0  0  0  0  0  0  0  0  0  0
    0.7500   -1.2990    0.0000 C   0  0  0  0  0  0  0  0  0  0  0  0
    1.5000    0.0000    0.0000 C   0  0  0  0  0  0  0  0  0  0  0  0
    0.7500    1.2990    0.0000 C   0  0  0  0  0  0  0  0  0  0  0  0
   -0.7500    1.2990    0.0000 C   0  0  0  0  0  0  0  0  0  0  0  0
   -1.5000    0.0000    0.0000 C   0  0  0  0  0  0  0  0  0  0  0  0
   -0.7500   -1.2990    0.0000 C   0  0  0  0  0  0  0  0  0  0  0  0
   -6.1170   -7.0506    0.0000 C   0  0  0  0  0  0  0  0  0  0  0  0
   -6.5805   -8.4772    0.0000 C   0  0  0  0  0  0  0  0  0  0  0  0
   -8.0805   -8.4772    0.0000 C   0  0  0  0  0  0  0  0  0  0  0  0
   -8.9622   -9.6908    0.0000 C   0  0  0  0  0  0  0  0  0  0  0  0
   -8.4987  -11.1173    0.0000 C   0  0  0  0  0  0  0  0  0  0  0  0
   -9.7122  -11.9990    0.0000 C   0  0  0  0  0  0  0  0  0  0  0  0
  -10.9257  -11.1173    0.0000 C   0  0  0  0  0  0  0  0  0  0  0  0
  -12.3523  -11.5809    0.0000 Br  0  0  0  0  0  0  0  0  0  0  0  0
  -10.4622   -9.6908    0.0000 S   0  0  0  0  0  0  0  0  0  0  0  0
   -8.5441   -7.0506    0.0000 N   0  0  0  0  0  0  0  0  0  0  0  0
   -7.3305   -6.1690    0.0000 N   0  0  0  0  0  0  0  0  0  0  0  0
  1  2  2  0
  2  3  1  0
  3  4  1  0
  4  5  1  0
  5  6  2  0
  6  7  1  0
  7  8  2  0
  8  9  1  0
  9 10  2  0
 10 11  1  0
 11 12  2  0
 12 13  1  0
 13 14  2  0
  2 15  1  0
 15 16  1  0
 16 17  2  0
 17 18  1  0
 18 19  2  0
 19 20  1  0
 20 21  2  0
 21 22  1  0
 21 23  1  0
 17 24  1  0
 24 25  1  0
 14  6  1  0
 25 15  2  0
 14  9  1  0
 23 18  1  0
M  END
>  <Compound_ID>  (843) 
C01795602

>  <Active>  (843) 
0.0

>  <Smiles>  (843) 
O=C(NN/C=C1\C=Nc2ccccc21)c1cc(-c2ccc(Br)s2)[nH]n1

>  <canonical_smi>  (843) 
O=C(NN/C=C1\C=Nc2ccccc21)c1cc(-c2ccc(Br)s2)[nH]n1

>  <Set>  (843) 
G2 inactive

>  <Set_type>  (843) 
Train

>  <MW>  (843) 
414.29

>  <HBD>  (843) 
3

>  <HBA>  (843) 
3

>  <NRB>  (843) 
4

>  <NR>  (843) 
4

>  <NAR>  (843) 
3

>  <PSA>  (843) 
82.17

>  <Standard Type>  (843) 
nan

>  <Standard Relation>  (843) 
nan

>  <Standard Units>  (843) 
nan

>  <Standard Value>  (843) 
nan

>  <Assay ChEMBL ID>  (843) 
nan

>  <Assay Description>  (843) 
nan

>  <BAO Label>  (843) 
nan

$$$$

     RDKit          2D

 16 16  0  0  0  0  0  0  0  0999 V2000
    4.2990    2.2500    0.0000 O   0  0  0  0  0  0  0  0  0  0  0  0
    3.0000    1.5000    0.0000 C   0  0  0  0  0  0  0  0  0  0  0  0
    3.0000    0.0000    0.0000 C   0  0  0  0  0  0  0  0  0  0  0  0
    4.5000    0.0000    0.0000 Cl  0  0  0  0  0  0  0  0  0  0  0  0
    3.0000   -1.5000    0.0000 C   0  0  0  0  0  0  0  0  0  0  0  0
    4.2990   -2.2500    0.0000 O   0  0  0  0  0  0  0  0  0  0  0  0
    1.5000    0.0000    0.0000 C   0  0  0  0  0  0  0  0  0  0  0  0
    0.7500   -1.2990    0.0000 O   0  0  0  0  0  0  0  0  0  0  0  0
   -0.7500   -1.2990    0.0000 C   0  0  0  0  0  0  0  0  0  0  0  0
   -1.5000    0.0000    0.0000 C   0  0  0  0  0  0  0  0  0  0  0  0
   -2.6491    0.9642    0.0000 Cl  0  0  0  0  0  0  0  0  0  0  0  0
   -2.6491   -0.9642    0.0000 C   0  0  0  0  0  0  0  0  0  0  0  0
   -4.0586   -0.4512    0.0000 O   0  0  0  0  0  0  0  0  0  0  0  0
   -0.7500    1.2990    0.0000 C   0  0  0  0  0  0  0  0  0  0  0  0
   -1.5000    2.5981    0.0000 O   0  0  0  0  0  0  0  0  0  0  0  0
    0.7500    1.2990    0.0000 O   0  0  0  0  0  0  0  0  0  0  0  0
  1  2  1  0
  2  3  1  0
  3  4  1  0
  3  5  1  0
  5  6  1  0
  7  3  1  6
  7  8  1  0
  8  9  1  0
  9 10  1  0
 10 11  1  1
 10 12  1  0
 12 13  1  0
 10 14  1  0
 14 15  1  1
 14 16  1  0
 16  7  1  0
M  END
>  <Compound_ID>  (844) 
C37630185

>  <Active>  (844) 
0.0

>  <Smiles>  (844) 
OCC(Cl)(CO)[C@@H]1OC[C@](Cl)(CO)[C@@H](O)O1

>  <canonical_smi>  (844) 
OCC(Cl)(CO)[C@@H]1OC[C@](Cl)(CO)[C@@H](O)O1

>  <Set>  (844) 
G2 inactive

>  <Set_type>  (844) 
Train

>  <MW>  (844) 
277.1

>  <HBD>  (844) 
4

>  <HBA>  (844) 
6

>  <NRB>  (844) 
4

>  <NR>  (844) 
1

>  <NAR>  (844) 
0

>  <PSA>  (844) 
99.38

>  <Standard Type>  (844) 
nan

>  <Standard Relation>  (844) 
nan

>  <Standard Units>  (844) 
nan

>  <Standard Value>  (844) 
nan

>  <Assay ChEMBL ID>  (844) 
nan

>  <Assay Description>  (844) 
nan

>  <BAO Label>  (844) 
nan

$$$$

     RDKit          2D

 19 19  0  0  0  0  0  0  0  0999 V2000
    3.7500    1.2990    0.0000 C   0  0  0  0  0  0  0  0  0  0  0  0
    3.0000    0.0000    0.0000 O   0  0  0  0  0  0  0  0  0  0  0  0
    1.5000    0.0000    0.0000 C   0  0  0  0  0  0  0  0  0  0  0  0
    0.7500   -1.2990    0.0000 C   0  0  0  0  0  0  0  0  0  0  0  0
    1.5000   -2.5981    0.0000 O   0  0  0  0  0  0  0  0  0  0  0  0
   -0.7500   -1.2990    0.0000 C   0  0  0  0  0  0  0  0  0  0  0  0
   -1.5000   -2.5981    0.0000 N   0  0  0  0  0  0  0  0  0  0  0  0
   -3.0000   -2.5981    0.0000 C   0  0  0  0  0  0  0  0  0  0  0  0
   -3.7500   -1.2990    0.0000 O   0  0  0  0  0  0  0  0  0  0  0  0
   -3.7500   -3.8971    0.0000 C   0  0  0  0  0  0  0  0  0  0  0  0
   -5.2500   -3.8971    0.0000 C   0  0  0  0  0  0  0  0  0  0  0  0
   -5.2500   -2.3971    0.0000 C   0  0  0  0  0  0  0  0  0  0  0  0
   -5.2500   -5.3971    0.0000 C   0  0  0  0  0  0  0  0  0  0  0  0
   -6.7500   -3.8971    0.0000 O   0  0  0  0  0  0  0  0  0  0  0  0
   -1.5000    0.0000    0.0000 C   0  0  0  0  0  0  0  0  0  0  0  0
   -3.0000    0.0000    0.0000 C   0  0  0  0  0  0  0  0  0  0  0  0
   -0.7500    1.2990    0.0000 O   0  0  0  0  0  0  0  0  0  0  0  0
    0.7500    1.2990    0.0000 C   0  0  0  0  0  0  0  0  0  0  0  0
    1.5000    2.5981    0.0000 O   0  0  0  0  0  0  0  0  0  0  0  0
  1  2  1  0
  3  2  1  6
  3  4  1  0
  4  5  1  1
  4  6  1  0
  6  7  1  1
  7  8  1  0
  8  9  2  0
  8 10  1  0
 10 11  1  0
 11 12  1  0
 11 13  1  0
 11 14  1  0
  6 15  1  0
 15 16  1  6
 15 17  1  0
 17 18  1  0
 18 19  1  6
 18  3  1  0
M  END
>  <Compound_ID>  (845) 
C44608245

>  <Active>  (845) 
0.0

>  <Smiles>  (845) 
CO[C@@H]1[C@@H](O)[C@@H](NC(=O)CC(C)(C)O)[C@H](C)O[C@@H]1O

>  <canonical_smi>  (845) 
CO[C@H]1[C@@H](O)O[C@@H](C)[C@H](NC(=O)CC(C)(C)O)[C@@H]1O

>  <Set>  (845) 
G2 inactive

>  <Set_type>  (845) 
Train

>  <MW>  (845) 
277.32

>  <HBD>  (845) 
4

>  <HBA>  (845) 
6

>  <NRB>  (845) 
4

>  <NR>  (845) 
1

>  <NAR>  (845) 
0

>  <PSA>  (845) 
108.25

>  <Standard Type>  (845) 
nan

>  <Standard Relation>  (845) 
nan

>  <Standard Units>  (845) 
nan

>  <Standard Value>  (845) 
nan

>  <Assay ChEMBL ID>  (845) 
nan

>  <Assay Description>  (845) 
nan

>  <BAO Label>  (845) 
nan

$$$$

     RDKit          2D

 17 17  0  0  0  0  0  0  0  0999 V2000
    3.8173    0.5402    0.0000 C   0  0  0  0  0  0  0  0  0  0  0  0
    2.3907    1.0037    0.0000 C   0  0  0  0  0  0  0  0  0  0  0  0
    1.2760    0.0000    0.0000 C   0  0  0  0  0  0  0  0  0  0  0  0
    2.3907   -1.0037    0.0000 C   0  0  0  0  0  0  0  0  0  0  0  0
    3.8173   -0.5402    0.0000 O   0  0  0  0  0  0  0  0  0  0  0  0
    2.0788   -2.4709    0.0000 O   0  0  0  0  0  1  0  0  0  0  0  0
    0.3943    1.2135    0.0000 C   0  0  0  0  0  0  0  0  0  0  0  0
   -1.0323    0.7500    0.0000 C   0  0  0  0  0  0  0  0  0  0  0  0
   -1.0323   -0.7500    0.0000 N   0  0  0  0  0  4  0  0  0  0  0  0
   -2.2458   -1.6317    0.0000 C   0  0  0  0  0  0  0  0  0  0  0  0
   -3.6161   -1.0216    0.0000 C   0  0  0  0  0  0  0  0  0  0  0  0
   -3.7729    0.4702    0.0000 O   0  0  0  0  0  0  0  0  0  0  0  0
   -4.8297   -1.9033    0.0000 N   0  0  0  0  0  0  0  0  0  0  0  0
   -6.2000   -1.2931    0.0000 C   0  0  0  0  0  0  0  0  0  0  0  0
   -7.4135   -2.1748    0.0000 N   0  0  0  0  0  0  0  0  0  0  0  0
   -6.3568    0.1986    0.0000 O   0  0  0  0  0  0  0  0  0  0  0  0
    0.3943   -1.2135    0.0000 C   0  0  0  0  0  0  0  0  0  0  0  0
  1  2  1  0
  3  2  1  6
  3  4  1  0
  4  5  2  0
  4  6  1  0
  3  7  1  0
  7  8  1  0
  8  9  1  0
  9 10  1  0
 10 11  1  0
 11 12  2  0
 11 13  1  0
 13 14  1  0
 14 15  1  0
 14 16  2  0
  9 17  1  0
 17  3  1  0
M  CHG  2   6  -1   9   1
M  END
>  <Compound_ID>  (846) 
C62937200

>  <Active>  (846) 
0.0

>  <Smiles>  (846) 
CC[C@@]1(C(=O)[O-])CC[NH+](CC(=O)NC(N)=O)C1

>  <canonical_smi>  (846) 
CC[C@@]1(C(=O)[O-])CC[NH+](CC(=O)NC(N)=O)C1

>  <Set>  (846) 
G2 inactive

>  <Set_type>  (846) 
Train

>  <MW>  (846) 
243.26

>  <HBD>  (846) 
3

>  <HBA>  (846) 
4

>  <NRB>  (846) 
4

>  <NR>  (846) 
1

>  <NAR>  (846) 
0

>  <PSA>  (846) 
116.76

>  <Standard Type>  (846) 
nan

>  <Standard Relation>  (846) 
nan

>  <Standard Units>  (846) 
nan

>  <Standard Value>  (846) 
nan

>  <Assay ChEMBL ID>  (846) 
nan

>  <Assay Description>  (846) 
nan

>  <BAO Label>  (846) 
nan

$$$$

     RDKit          2D

 16 16  0  0  0  0  0  0  0  0999 V2000
    2.7760    2.5981    0.0000 C   0  0  0  0  0  0  0  0  0  0  0  0
    3.5260    1.2990    0.0000 C   0  0  0  0  0  0  0  0  0  0  0  0
    2.7760    0.0000    0.0000 C   0  0  0  0  0  0  0  0  0  0  0  0
    1.2760    0.0000    0.0000 C   0  0  0  0  0  0  0  0  0  0  0  0
    0.3943    1.2135    0.0000 C   0  0  0  0  0  0  0  0  0  0  0  0
    0.8578    2.6401    0.0000 Cl  0  0  0  0  0  0  0  0  0  0  0  0
   -1.0323    0.7500    0.0000 C   0  0  0  0  0  0  0  0  0  0  0  0
   -2.2458    1.6317    0.0000 O   0  0  0  0  0  0  0  0  0  0  0  0
   -1.0323   -0.7500    0.0000 C   0  0  0  0  0  0  0  0  0  0  0  0
   -2.2458   -1.6317    0.0000 Cl  0  0  0  0  0  0  0  0  0  0  0  0
    0.3943   -1.2135    0.0000 C   0  0  0  0  0  0  0  0  0  0  0  0
   -0.2158   -2.5838    0.0000 O   0  0  0  0  0  0  0  0  0  0  0  0
    1.6933   -1.9635    0.0000 C   0  0  0  0  0  0  0  0  0  0  0  0
    2.9924   -1.2135    0.0000 O   0  0  0  0  0  0  0  0  0  0  0  0
    1.6933   -3.4635    0.0000 O   0  0  0  0  0  0  0  0  0  0  0  0
    2.9924   -4.2135    0.0000 C   0  0  0  0  0  0  0  0  0  0  0  0
  1  2  1  0
  2  3  2  0
  3  4  1  0
  4  5  2  0
  5  6  1  0
  5  7  1  0
  7  8  2  0
  7  9  1  0
  9 10  1  1
  9 11  1  0
 11 12  1  1
 11 13  1  0
 13 14  2  0
 13 15  1  0
 15 16  1  0
 11  4  1  0
M  END
>  <Compound_ID>  (847) 
C16953599

>  <Active>  (847) 
0.0

>  <Smiles>  (847) 
C/C=C\C1=C(Cl)C(=O)[C@H](Cl)[C@@]1(O)C(=O)OC

>  <canonical_smi>  (847) 
C/C=C\C1=C(Cl)C(=O)[C@H](Cl)[C@@]1(O)C(=O)OC

>  <Set>  (847) 
G2 inactive

>  <Set_type>  (847) 
Train

>  <MW>  (847) 
265.09

>  <HBD>  (847) 
1

>  <HBA>  (847) 
4

>  <NRB>  (847) 
2

>  <NR>  (847) 
1

>  <NAR>  (847) 
0

>  <PSA>  (847) 
63.6

>  <Standard Type>  (847) 
nan

>  <Standard Relation>  (847) 
nan

>  <Standard Units>  (847) 
nan

>  <Standard Value>  (847) 
nan

>  <Assay ChEMBL ID>  (847) 
nan

>  <Assay Description>  (847) 
nan

>  <BAO Label>  (847) 
nan

$$$$

     RDKit          2D

 19 22  0  0  0  0  0  0  0  0999 V2000
   -2.9812   -3.7800    0.0000 S   0  0  0  0  0  0  0  0  0  0  0  0
   -2.6694   -5.2472    0.0000 C   0  0  0  0  0  0  0  0  0  0  0  0
   -3.6731   -6.3619    0.0000 N   0  0  0  0  0  0  0  0  0  0  0  0
   -2.9231   -7.6610    0.0000 N   0  0  0  0  0  0  0  0  0  0  0  0
   -1.4558   -7.3491    0.0000 C   0  0  0  0  0  0  0  0  0  0  0  0
   -0.3411   -8.3528    0.0000 C   0  0  0  0  0  0  0  0  0  0  0  0
    1.1261   -8.6646    0.0000 C   0  0  0  0  0  0  0  0  0  0  0  0
    0.1224   -9.7794    0.0000 C   0  0  0  0  0  0  0  0  0  0  0  0
   -1.2990   -5.8573    0.0000 N   0  0  0  0  0  0  0  0  0  0  0  0
   -0.0000   -5.1073    0.0000 C   0  0  0  0  0  0  0  0  0  0  0  0
   -0.0000   -3.6073    0.0000 C   0  0  0  0  0  0  0  0  0  0  0  0
    1.2135   -2.7256    0.0000 C   0  0  0  0  0  0  0  0  0  0  0  0
    0.7500   -1.2990    0.0000 C   0  0  0  0  0  0  0  0  0  0  0  0
    1.5000    0.0000    0.0000 C   0  0  0  0  0  0  0  0  0  0  0  0
    0.7500    1.2990    0.0000 C   0  0  0  0  0  0  0  0  0  0  0  0
   -0.7500    1.2990    0.0000 C   0  0  0  0  0  0  0  0  0  0  0  0
   -1.5000    0.0000    0.0000 C   0  0  0  0  0  0  0  0  0  0  0  0
   -0.7500   -1.2990    0.0000 C   0  0  0  0  0  0  0  0  0  0  0  0
   -1.2135   -2.7256    0.0000 O   0  0  0  0  0  0  0  0  0  0  0  0
  1  2  2  0
  2  3  1  0
  3  4  1  0
  4  5  2  0
  5  6  1  0
  6  7  1  0
  7  8  1  0
  5  9  1  0
  9 10  1  0
 11 10  1  6
 11 12  1  0
 12 13  1  0
 13 14  2  0
 14 15  1  0
 15 16  2  0
 16 17  1  0
 17 18  2  0
 18 19  1  0
  9  2  1  0
 19 11  1  0
  8  6  1  0
 18 13  1  0
M  END
>  <Compound_ID>  (848) 
C51086918

>  <Active>  (848) 
0.0

>  <Smiles>  (848) 
S=c1[nH]nc(C2CC2)n1C[C@H]1Cc2ccccc2O1

>  <canonical_smi>  (848) 
S=c1[nH]nc(C2CC2)n1C[C@H]1Cc2ccccc2O1

>  <Set>  (848) 
G2 inactive

>  <Set_type>  (848) 
Train

>  <MW>  (848) 
273.36

>  <HBD>  (848) 
1

>  <HBA>  (848) 
3

>  <NRB>  (848) 
3

>  <NR>  (848) 
4

>  <NAR>  (848) 
2

>  <PSA>  (848) 
42.84

>  <Standard Type>  (848) 
nan

>  <Standard Relation>  (848) 
nan

>  <Standard Units>  (848) 
nan

>  <Standard Value>  (848) 
nan

>  <Assay ChEMBL ID>  (848) 
nan

>  <Assay Description>  (848) 
nan

>  <BAO Label>  (848) 
nan

$$$$

     RDKit          2D

 21 22  0  0  0  0  0  0  0  0999 V2000
    6.7500   -3.8971    0.0000 C   0  0  0  0  0  0  0  0  0  0  0  0
    5.2500   -3.8971    0.0000 C   0  0  0  0  0  0  0  0  0  0  0  0
    4.5000   -2.5981    0.0000 O   0  0  0  0  0  0  0  0  0  0  0  0
    3.0000   -2.5981    0.0000 C   0  0  0  0  0  0  0  0  0  0  0  0
    2.2500   -3.8971    0.0000 C   0  0  0  0  0  0  0  0  0  0  0  0
    0.7500   -3.8971    0.0000 C   0  0  0  0  0  0  0  0  0  0  0  0
   -0.0000   -2.5981    0.0000 C   0  0  0  0  0  0  0  0  0  0  0  0
    0.7500   -1.2990    0.0000 C   0  0  0  0  0  0  0  0  0  0  0  0
    1.5000    0.0000    0.0000 C   0  0  0  0  0  0  0  0  0  0  0  0
    0.7500    1.2990    0.0000 C   0  0  0  0  0  0  0  0  0  0  0  0
   -0.7500    1.2990    0.0000 C   0  0  0  0  0  0  0  0  0  0  0  0
   -1.5000    0.0000    0.0000 C   0  0  0  0  0  0  0  0  0  0  0  0
   -3.0000    0.0000    0.0000 S   0  0  0  0  0  0  0  0  0  0  0  0
   -3.0000   -1.5000    0.0000 O   0  0  0  0  0  0  0  0  0  0  0  0
   -3.0000    1.5000    0.0000 O   0  0  0  0  0  0  0  0  0  0  0  0
   -4.5000    0.0000    0.0000 C   0  0  0  0  0  0  0  0  0  0  0  0
   -5.2500   -1.2990    0.0000 C   0  0  0  0  0  0  0  0  0  0  0  0
   -5.2500    1.2990    0.0000 C   0  0  0  0  0  0  0  0  0  0  0  0
   -0.7500   -1.2990    0.0000 C   0  0  0  0  0  0  0  0  0  0  0  0
    2.2500   -1.2990    0.0000 N   0  0  0  0  0  0  0  0  0  0  0  0
    3.0000   -0.0000    0.0000 O   0  0  0  0  0  0  0  0  0  0  0  0
  1  2  1  0
  2  3  1  0
  4  3  1  1
  4  5  1  0
  5  6  1  0
  6  7  1  0
  8  7  1  1
  8  9  1  0
  9 10  1  0
 10 11  1  0
 11 12  1  0
 12 13  1  1
 13 14  2  0
 13 15  2  0
 13 16  1  0
 16 17  1  0
 16 18  1  0
 12 19  1  0
  8 20  1  0
 20 21  1  0
 20  4  1  0
 19  8  1  0
M  END
>  <Compound_ID>  (849) 
C39523371

>  <Active>  (849) 
0.0

>  <Smiles>  (849) 
CCO[C@H]1CCC[C@@]2(CCC[C@H](S(=O)(=O)C(C)C)C2)N1O

>  <canonical_smi>  (849) 
CCO[C@H]1CCC[C@@]2(CCC[C@H](S(=O)(=O)C(C)C)C2)N1O

>  <Set>  (849) 
G2 inactive

>  <Set_type>  (849) 
Train

>  <MW>  (849) 
319.47

>  <HBD>  (849) 
1

>  <HBA>  (849) 
5

>  <NRB>  (849) 
4

>  <NR>  (849) 
2

>  <NAR>  (849) 
0

>  <PSA>  (849) 
66.84

>  <Standard Type>  (849) 
nan

>  <Standard Relation>  (849) 
nan

>  <Standard Units>  (849) 
nan

>  <Standard Value>  (849) 
nan

>  <Assay ChEMBL ID>  (849) 
nan

>  <Assay Description>  (849) 
nan

>  <BAO Label>  (849) 
nan

$$$$

     RDKit          2D

 22 23  0  0  0  0  0  0  0  0999 V2000
    3.5260    1.2990    0.0000 C   0  0  0  0  0  0  0  0  0  0  0  0
    2.7760    0.0000    0.0000 C   0  0  0  0  0  0  0  0  0  0  0  0
    3.5260   -1.2990    0.0000 C   0  0  0  0  0  0  0  0  0  0  0  0
    1.2760    0.0000    0.0000 C   0  0  0  0  0  0  0  0  0  0  0  0
    0.3943    1.2135    0.0000 N   0  0  0  0  0  0  0  0  0  0  0  0
   -1.0323    0.7500    0.0000 N   0  0  0  0  0  0  0  0  0  0  0  0
   -2.2458    1.6317    0.0000 C   0  0  0  0  0  0  0  0  0  0  0  0
   -1.0323   -0.7500    0.0000 C   0  0  0  0  0  0  0  0  0  0  0  0
   -2.2458   -1.6317    0.0000 Cl  0  0  0  0  0  0  0  0  0  0  0  0
    0.3943   -1.2135    0.0000 C   0  0  0  0  0  0  0  0  0  0  0  0
    0.8578   -2.6401    0.0000 C   0  0  0  0  0  0  0  0  0  0  0  0
   -0.1459   -3.7548    0.0000 C   0  0  0  0  0  0  0  0  0  0  0  0
   -1.6131   -3.4430    0.0000 C   0  0  0  0  0  0  0  0  0  0  0  0
   -3.0803   -3.1311    0.0000 N   0  0  0  0  0  0  0  0  0  0  0  0
    0.3177   -5.1814    0.0000 C   0  0  0  0  0  0  0  0  0  0  0  0
    1.7849   -5.4933    0.0000 O   0  0  0  0  0  0  0  0  0  0  0  0
   -0.6860   -6.2961    0.0000 N   0  0  0  0  0  0  0  0  0  0  0  0
   -0.2225   -7.7227    0.0000 C   0  0  0  0  0  0  0  0  0  0  0  0
    1.2041   -8.1862    0.0000 C   0  0  0  0  0  0  0  0  0  0  0  0
    1.2041   -9.6862    0.0000 C   0  0  0  0  0  0  0  0  0  0  0  0
   -0.2225  -10.1498    0.0000 C   0  0  0  0  0  0  0  0  0  0  0  0
   -1.1042   -8.9362    0.0000 C   0  0  0  0  0  0  0  0  0  0  0  0
  1  2  1  0
  2  3  1  0
  2  4  1  0
  4  5  2  0
  5  6  1  0
  6  7  1  0
  6  8  1  0
  8  9  1  0
  8 10  2  0
 10 11  1  0
 11 12  2  0
 12 13  1  0
 13 14  3  0
 12 15  1  0
 15 16  2  0
 15 17  1  0
 17 18  1  0
 18 19  1  0
 19 20  1  0
 20 21  1  0
 21 22  1  0
 10  4  1  0
 22 18  1  0
M  END
>  <Compound_ID>  (850) 
C44026529

>  <Active>  (850) 
0.0

>  <Smiles>  (850) 
CC(C)c1nn(C)c(Cl)c1/C=C(\C#N)C(=O)NC1CCCC1

>  <canonical_smi>  (850) 
CC(C)c1nn(C)c(Cl)c1/C=C(\C#N)C(=O)NC1CCCC1

>  <Set>  (850) 
G2 inactive

>  <Set_type>  (850) 
Train

>  <MW>  (850) 
320.82

>  <HBD>  (850) 
1

>  <HBA>  (850) 
3

>  <NRB>  (850) 
4

>  <NR>  (850) 
2

>  <NAR>  (850) 
1

>  <PSA>  (850) 
70.71

>  <Standard Type>  (850) 
nan

>  <Standard Relation>  (850) 
nan

>  <Standard Units>  (850) 
nan

>  <Standard Value>  (850) 
nan

>  <Assay ChEMBL ID>  (850) 
nan

>  <Assay Description>  (850) 
nan

>  <BAO Label>  (850) 
nan

$$$$

     RDKit          2D

 21 23  0  0  0  0  0  0  0  0999 V2000
   -0.0000   -5.1073    0.0000 C   0  0  0  0  0  0  0  0  0  0  0  0
   -0.0000   -3.6073    0.0000 C   0  0  0  0  0  0  0  0  0  0  0  0
    1.2135   -2.7256    0.0000 S   0  0  0  0  0  0  0  0  0  0  0  0
    0.7500   -1.2990    0.0000 C   0  0  0  0  0  0  0  0  0  0  0  0
    1.5000    0.0000    0.0000 N   0  0  0  0  0  0  0  0  0  0  0  0
    0.7500    1.2990    0.0000 C   0  0  0  0  0  0  0  0  0  0  0  0
    1.5000    2.5981    0.0000 C   0  0  0  0  0  0  0  0  0  0  0  0
    3.0000    2.5981    0.0000 O   0  0  0  0  0  0  0  0  0  0  0  0
    3.7500    3.8971    0.0000 C   0  0  0  0  0  0  0  0  0  0  0  0
    3.0000    5.1962    0.0000 O   0  0  0  0  0  0  0  0  0  0  0  0
    5.2500    3.8971    0.0000 C   0  0  0  0  0  0  0  0  0  0  0  0
    6.1317    5.1106    0.0000 C   0  0  0  0  0  0  0  0  0  0  0  0
    7.5583    4.6471    0.0000 C   0  0  0  0  0  0  0  0  0  0  0  0
    7.5583    3.1471    0.0000 C   0  0  0  0  0  0  0  0  0  0  0  0
    6.1317    2.6836    0.0000 S   0  0  0  0  0  0  0  0  0  0  0  0
   -0.7500    1.2990    0.0000 N   0  0  0  0  0  0  0  0  0  0  0  0
   -1.5000    0.0000    0.0000 C   0  0  0  0  0  0  0  0  0  0  0  0
   -3.0000    0.0000    0.0000 O   0  0  0  0  0  0  0  0  0  0  0  0
   -0.7500   -1.2990    0.0000 C   0  0  0  0  0  0  0  0  0  0  0  0
   -1.2135   -2.7256    0.0000 C   0  0  0  0  0  0  0  0  0  0  0  0
   -2.6401   -3.1891    0.0000 C   0  0  0  0  0  0  0  0  0  0  0  0
  1  2  1  0
  2  3  1  0
  3  4  1  0
  4  5  1  0
  5  6  2  0
  6  7  1  0
  7  8  1  0
  8  9  1  0
  9 10  2  0
  9 11  1  0
 11 12  2  0
 12 13  1  0
 13 14  2  0
 14 15  1  0
  6 16  1  0
 16 17  1  0
 17 18  2  0
 17 19  1  0
 19 20  1  0
 20 21  1  0
 20  2  2  0
 19  4  2  0
 15 11  1  0
M  END
>  <Compound_ID>  (851) 
C08458596

>  <Active>  (851) 
0.0

>  <Smiles>  (851) 
Cc1sc2nc(COC(=O)c3cccs3)[nH]c(=O)c2c1C

>  <canonical_smi>  (851) 
Cc1sc2nc(COC(=O)c3cccs3)[nH]c(=O)c2c1C

>  <Set>  (851) 
G2 inactive

>  <Set_type>  (851) 
Train

>  <MW>  (851) 
320.39

>  <HBD>  (851) 
1

>  <HBA>  (851) 
4

>  <NRB>  (851) 
3

>  <NR>  (851) 
3

>  <NAR>  (851) 
3

>  <PSA>  (851) 
72.05

>  <Standard Type>  (851) 
nan

>  <Standard Relation>  (851) 
nan

>  <Standard Units>  (851) 
nan

>  <Standard Value>  (851) 
nan

>  <Assay ChEMBL ID>  (851) 
nan

>  <Assay Description>  (851) 
nan

>  <BAO Label>  (851) 
nan

$$$$

     RDKit          2D

 24 27  0  0  0  0  0  0  0  0999 V2000
    2.4446    4.6115    0.0000 O   0  0  0  0  0  0  0  0  0  0  0  0
    1.3299    5.6152    0.0000 C   0  0  0  0  0  0  0  0  0  0  0  0
   -0.0967    5.1517    0.0000 O   0  0  0  0  0  0  0  0  0  0  0  0
   -0.4086    3.6844    0.0000 C   0  0  0  0  0  0  0  0  0  0  0  0
   -1.8351    3.2209    0.0000 C   0  0  0  0  0  0  0  0  0  0  0  0
   -2.1470    1.7537    0.0000 C   0  0  0  0  0  0  0  0  0  0  0  0
   -1.0323    0.7500    0.0000 C   0  0  0  0  0  0  0  0  0  0  0  0
    0.3943    1.2135    0.0000 C   0  0  0  0  0  0  0  0  0  0  0  0
    0.7062    2.6807    0.0000 C   0  0  0  0  0  0  0  0  0  0  0  0
    1.2760    0.0000    0.0000 C   0  0  0  0  0  0  0  0  0  0  0  0
    0.3943   -1.2135    0.0000 C   0  0  0  0  0  0  0  0  0  0  0  0
   -1.0323   -0.7500    0.0000 C   0  0  0  0  0  0  0  0  0  0  0  0
    1.6418    7.0824    0.0000 C   0  0  0  0  0  0  0  0  0  0  0  0
    3.0684    7.5459    0.0000 C   0  0  0  0  0  0  0  0  0  0  0  0
    3.3802    9.0132    0.0000 C   0  0  0  0  0  0  0  0  0  0  0  0
    2.2655   10.0169    0.0000 C   0  0  0  0  0  0  0  0  0  0  0  0
    2.5774   11.4841    0.0000 C   0  0  0  0  0  0  0  0  0  0  0  0
    1.5737   12.5988    0.0000 C   0  0  0  0  0  0  0  0  0  0  0  0
    2.3237   13.8978    0.0000 C   0  0  0  0  0  0  0  0  0  0  0  0
    3.7909   13.5860    0.0000 C   0  0  0  0  0  0  0  0  0  0  0  0
    3.9477   12.0942    0.0000 O   0  0  0  0  0  0  0  0  0  0  0  0
    0.8389    9.5533    0.0000 N   0  0  0  0  0  0  0  0  0  0  0  0
    0.5271    8.0861    0.0000 C   0  0  0  0  0  0  0  0  0  0  0  0
   -0.8995    7.6226    0.0000 O   0  0  0  0  0  0  0  0  0  0  0  0
  1  2  2  0
  2  3  1  0
  3  4  1  0
  4  5  2  0
  5  6  1  0
  6  7  2  0
  7  8  1  0
  8  9  2  0
  8 10  1  0
 10 11  1  0
 11 12  1  0
  2 13  1  0
 13 14  2  0
 14 15  1  0
 15 16  2  0
 16 17  1  0
 17 18  2  0
 18 19  1  0
 19 20  2  0
 20 21  1  0
 16 22  1  0
 22 23  1  0
 23 24  2  0
  9  4  1  0
 23 13  1  0
 12  7  1  0
 21 17  1  0
M  END
>  <Compound_ID>  (852) 
C65714893

>  <Active>  (852) 
0.0

>  <Smiles>  (852) 
O=C(Oc1ccc2c(c1)CCC2)c1ccc(-c2ccco2)[nH]c1=O

>  <canonical_smi>  (852) 
O=C(Oc1ccc2c(c1)CCC2)c1ccc(-c2ccco2)[nH]c1=O

>  <Set>  (852) 
G2 inactive

>  <Set_type>  (852) 
Train

>  <MW>  (852) 
321.33

>  <HBD>  (852) 
1

>  <HBA>  (852) 
4

>  <NRB>  (852) 
3

>  <NR>  (852) 
4

>  <NAR>  (852) 
3

>  <PSA>  (852) 
72.3

>  <Standard Type>  (852) 
nan

>  <Standard Relation>  (852) 
nan

>  <Standard Units>  (852) 
nan

>  <Standard Value>  (852) 
nan

>  <Assay ChEMBL ID>  (852) 
nan

>  <Assay Description>  (852) 
nan

>  <BAO Label>  (852) 
nan

$$$$

     RDKit          2D

 25 28  0  0  0  0  0  0  0  0999 V2000
   -1.0786   13.0279    0.0000 C   0  0  0  0  0  0  0  0  0  0  0  0
    0.0361   12.0242    0.0000 C   0  0  0  0  0  0  0  0  0  0  0  0
   -0.2758   10.5570    0.0000 C   0  0  0  0  0  0  0  0  0  0  0  0
    0.8389    9.5533    0.0000 C   0  0  0  0  0  0  0  0  0  0  0  0
    0.5271    8.0861    0.0000 O   0  0  0  0  0  0  0  0  0  0  0  0
    1.6418    7.0824    0.0000 C   0  0  0  0  0  0  0  0  0  0  0  0
    3.0684    7.5459    0.0000 C   0  0  0  0  0  0  0  0  0  0  0  0
    4.1831    6.5422    0.0000 C   0  0  0  0  0  0  0  0  0  0  0  0
    3.8712    5.0750    0.0000 C   0  0  0  0  0  0  0  0  0  0  0  0
    2.4446    4.6115    0.0000 C   0  0  0  0  0  0  0  0  0  0  0  0
    1.3299    5.6152    0.0000 C   0  0  0  0  0  0  0  0  0  0  0  0
   -0.0967    5.1517    0.0000 C   0  0  0  0  0  0  0  0  0  0  0  0
   -1.2114    6.1554    0.0000 C   0  0  0  0  0  0  0  0  0  0  0  0
   -2.6380    5.6918    0.0000 C   0  0  0  0  0  0  0  0  0  0  0  0
   -3.7527    6.6955    0.0000 O   0  0  0  0  0  0  0  0  0  0  0  0
   -2.9499    4.2246    0.0000 N   0  0  0  0  0  0  0  0  0  0  0  0
   -1.8351    3.2209    0.0000 C   0  0  0  0  0  0  0  0  0  0  0  0
   -2.1470    1.7537    0.0000 C   0  0  0  0  0  0  0  0  0  0  0  0
   -1.0323    0.7500    0.0000 C   0  0  0  0  0  0  0  0  0  0  0  0
    0.3943    1.2135    0.0000 C   0  0  0  0  0  0  0  0  0  0  0  0
    0.7062    2.6807    0.0000 C   0  0  0  0  0  0  0  0  0  0  0  0
   -0.4086    3.6844    0.0000 C   0  0  0  0  0  0  0  0  0  0  0  0
    1.2760    0.0000    0.0000 O   0  0  0  0  0  0  0  0  0  0  0  0
    0.3943   -1.2135    0.0000 C   0  0  0  0  0  0  0  0  0  0  0  0
   -1.0323   -0.7500    0.0000 O   0  0  0  0  0  0  0  0  0  0  0  0
  1  2  1  0
  2  3  1  0
  3  4  1  0
  4  5  1  0
  5  6  1  0
  6  7  2  0
  7  8  1  0
  8  9  2  0
  9 10  1  0
 10 11  2  0
 12 11  1  6
 12 13  1  0
 13 14  1  0
 14 15  2  0
 14 16  1  0
 16 17  1  0
 17 18  2  0
 18 19  1  0
 19 20  2  0
 20 21  1  0
 21 22  2  0
 20 23  1  0
 23 24  1  0
 24 25  1  0
 11  6  1  0
 22 12  1  0
 22 17  1  0
 25 19  1  0
M  END
>  <Compound_ID>  (853) 
C04910064

>  <Active>  (853) 
0.0

>  <Smiles>  (853) 
CCCCOc1ccccc1[C@H]1CC(=O)Nc2cc3c(cc21)OCO3

>  <canonical_smi>  (853) 
CCCCOc1ccccc1[C@H]1CC(=O)Nc2cc3c(cc21)OCO3

>  <Set>  (853) 
G2 inactive

>  <Set_type>  (853) 
Train

>  <MW>  (853) 
339.39

>  <HBD>  (853) 
1

>  <HBA>  (853) 
4

>  <NRB>  (853) 
5

>  <NR>  (853) 
4

>  <NAR>  (853) 
2

>  <PSA>  (853) 
56.79

>  <Standard Type>  (853) 
nan

>  <Standard Relation>  (853) 
nan

>  <Standard Units>  (853) 
nan

>  <Standard Value>  (853) 
nan

>  <Assay ChEMBL ID>  (853) 
nan

>  <Assay Description>  (853) 
nan

>  <BAO Label>  (853) 
nan

$$$$

     RDKit          2D

 26 29  0  0  0  0  0  0  0  0999 V2000
  -12.0031   -3.4068    0.0000 C   0  0  0  0  0  0  0  0  0  0  0  0
  -10.6327   -2.7967    0.0000 C   0  0  0  0  0  0  0  0  0  0  0  0
  -10.4760   -1.3049    0.0000 C   0  0  0  0  0  0  0  0  0  0  0  0
   -9.1056   -0.6948    0.0000 C   0  0  0  0  0  0  0  0  0  0  0  0
   -7.8921   -1.5765    0.0000 C   0  0  0  0  0  0  0  0  0  0  0  0
   -6.5218   -0.9664    0.0000 C   0  0  0  0  0  0  0  0  0  0  0  0
   -6.3650    0.5254    0.0000 C   0  0  0  0  0  0  0  0  0  0  0  0
   -7.5785    1.4071    0.0000 C   0  0  0  0  0  0  0  0  0  0  0  0
   -7.4217    2.8988    0.0000 O   0  0  0  0  0  0  0  0  0  0  0  0
   -5.3083   -1.8481    0.0000 N   0  0  0  0  0  0  0  0  0  0  0  0
   -3.8817   -1.3846    0.0000 C   0  0  0  0  0  0  0  0  0  0  0  0
   -3.0000   -2.5981    0.0000 C   0  0  0  0  0  0  0  0  0  0  0  0
   -1.5000   -2.5981    0.0000 C   0  0  0  0  0  0  0  0  0  0  0  0
   -0.7500   -3.8971    0.0000 C   0  0  0  0  0  0  0  0  0  0  0  0
    0.7500   -3.8971    0.0000 C   0  0  0  0  0  0  0  0  0  0  0  0
    1.5000   -2.5981    0.0000 N   0  0  0  0  0  0  0  0  0  0  0  0
    0.7500   -1.2990    0.0000 C   0  0  0  0  0  0  0  0  0  0  0  0
    1.5000    0.0000    0.0000 C   0  0  0  0  0  0  0  0  0  0  0  0
    0.7500    1.2990    0.0000 C   0  0  0  0  0  0  0  0  0  0  0  0
   -0.7500    1.2990    0.0000 C   0  0  0  0  0  0  0  0  0  0  0  0
   -1.5000    0.0000    0.0000 C   0  0  0  0  0  0  0  0  0  0  0  0
   -0.7500   -1.2990    0.0000 C   0  0  0  0  0  0  0  0  0  0  0  0
   -3.8817   -3.8116    0.0000 N   0  0  0  0  0  0  0  0  0  0  0  0
   -5.3083   -3.3481    0.0000 N   0  0  0  0  0  0  0  0  0  0  0  0
   -8.0489   -3.0683    0.0000 C   0  0  0  0  0  0  0  0  0  0  0  0
   -9.4192   -3.6784    0.0000 C   0  0  0  0  0  0  0  0  0  0  0  0
  1  2  1  0
  2  3  2  0
  3  4  1  0
  4  5  2  0
  5  6  1  0
  6  7  1  6
  7  8  1  0
  8  9  1  0
  6 10  1  0
 10 11  1  0
 11 12  2  0
 12 13  1  0
 13 14  2  0
 14 15  1  0
 15 16  2  0
 16 17  1  0
 17 18  2  0
 18 19  1  0
 19 20  2  0
 20 21  1  0
 21 22  2  0
 12 23  1  0
 23 24  2  0
  5 25  1  0
 25 26  2  0
 26  2  1  0
 24 10  1  0
 22 13  1  0
 22 17  1  0
M  END
>  <Compound_ID>  (854) 
C67514754

>  <Active>  (854) 
0.0

>  <Smiles>  (854) 
Cc1ccc([C@H](CCO)n2cc(-c3ccnc4ccccc34)nn2)cc1

>  <canonical_smi>  (854) 
Cc1ccc([C@H](CCO)n2cc(-c3ccnc4ccccc34)nn2)cc1

>  <Set>  (854) 
G2 inactive

>  <Set_type>  (854) 
Train

>  <MW>  (854) 
344.42

>  <HBD>  (854) 
1

>  <HBA>  (854) 
4

>  <NRB>  (854) 
5

>  <NR>  (854) 
4

>  <NAR>  (854) 
4

>  <PSA>  (854) 
63.83

>  <Standard Type>  (854) 
nan

>  <Standard Relation>  (854) 
nan

>  <Standard Units>  (854) 
nan

>  <Standard Value>  (854) 
nan

>  <Assay ChEMBL ID>  (854) 
nan

>  <Assay Description>  (854) 
nan

>  <BAO Label>  (854) 
nan

$$$$

     RDKit          2D

 22 23  0  0  0  0  0  0  0  0999 V2000
   -5.2500   -3.8971    0.0000 C   0  0  0  0  0  0  0  0  0  0  0  0
   -3.7500   -3.8971    0.0000 C   0  0  0  0  0  0  0  0  0  0  0  0
   -3.0000   -5.1962    0.0000 O   0  0  0  0  0  0  0  0  0  0  0  0
   -3.0000   -2.5981    0.0000 O   0  0  0  0  0  0  0  0  0  0  0  0
   -1.5000   -2.5981    0.0000 C   0  0  0  0  0  0  0  0  0  0  0  0
   -0.7500   -3.8971    0.0000 C   0  0  0  0  0  0  0  0  0  0  0  0
    0.7500   -3.8971    0.0000 C   0  0  0  0  0  0  0  0  0  0  0  0
    1.5000   -5.1962    0.0000 C   0  0  0  0  0  0  0  0  0  0  0  0
    0.7500   -6.4952    0.0000 O   0  0  0  0  0  0  0  0  0  0  0  0
    1.5000   -2.5981    0.0000 C   0  0  0  0  0  0  0  0  0  0  0  0
    2.7580   -1.7812    0.0000 O   0  0  0  0  0  0  0  0  0  0  0  0
    2.6491   -3.5623    0.0000 C   0  0  0  0  0  0  0  0  0  0  0  0
    4.0586   -3.0492    0.0000 O   0  0  0  0  0  0  0  0  0  0  0  0
    0.7500   -1.2990    0.0000 C   0  0  0  0  0  0  0  0  0  0  0  0
    2.2388   -1.1162    0.0000 C   0  0  0  0  0  0  0  0  0  0  0  0
    1.5000    0.0000    0.0000 C   0  0  0  0  0  0  0  0  0  0  0  0
    0.7500    1.2990    0.0000 C   0  0  0  0  0  0  0  0  0  0  0  0
   -0.7500    1.2990    0.0000 C   0  0  0  0  0  0  0  0  0  0  0  0
   -1.5000    0.0000    0.0000 C   0  0  0  0  0  0  0  0  0  0  0  0
   -2.6491   -0.9642    0.0000 C   0  0  0  0  0  0  0  0  0  0  0  0
   -2.6491    0.9642    0.0000 C   0  0  0  0  0  0  0  0  0  0  0  0
   -0.7500   -1.2990    0.0000 C   0  0  0  0  0  0  0  0  0  0  0  0
  1  2  1  0
  2  3  2  0
  2  4  1  0
  5  4  1  1
  5  6  1  0
  6  7  2  0
  7  8  1  0
  8  9  2  0
  7 10  1  0
 10 11  1  6
 10 12  1  0
 12 13  2  0
 10 14  1  0
 14 15  1  1
 14 16  1  0
 16 17  1  0
 17 18  1  0
 18 19  1  0
 19 20  1  0
 19 21  1  0
 22 19  1  6
 22  5  1  0
 22 14  1  0
M  END
>  <Compound_ID>  (855) 
C15053846

>  <Active>  (855) 
0.0

>  <Smiles>  (855) 
CC(=O)O[C@@H]1C=C(C=O)[C@](O)(C=O)[C@@]2(C)CCCC(C)(C)[C@@H]12

>  <canonical_smi>  (855) 
CC(=O)O[C@@H]1C=C(C=O)[C@](O)(C=O)[C@@]2(C)CCCC(C)(C)[C@@H]12

>  <Set>  (855) 
G2 inactive

>  <Set_type>  (855) 
Train

>  <MW>  (855) 
308.37

>  <HBD>  (855) 
1

>  <HBA>  (855) 
5

>  <NRB>  (855) 
3

>  <NR>  (855) 
2

>  <NAR>  (855) 
0

>  <PSA>  (855) 
80.67

>  <Standard Type>  (855) 
nan

>  <Standard Relation>  (855) 
nan

>  <Standard Units>  (855) 
nan

>  <Standard Value>  (855) 
nan

>  <Assay ChEMBL ID>  (855) 
nan

>  <Assay Description>  (855) 
nan

>  <BAO Label>  (855) 
nan

$$$$

     RDKit          2D

 27 30  0  0  0  0  0  0  0  0999 V2000
   -1.5000   -7.7942    0.0000 C   0  0  0  0  0  0  0  0  0  0  0  0
   -0.7500   -6.4952    0.0000 C   0  0  0  0  0  0  0  0  0  0  0  0
    0.7500   -6.4952    0.0000 O   0  0  0  0  0  0  0  0  0  0  0  0
    1.5000   -5.1962    0.0000 C   0  0  0  0  0  0  0  0  0  0  0  0
    0.7500   -3.8971    0.0000 C   0  0  0  0  0  0  0  0  0  0  0  0
    1.5000   -2.5981    0.0000 C   0  0  0  0  0  0  0  0  0  0  0  0
    0.7500   -1.2990    0.0000 C   0  0  0  0  0  0  0  0  0  0  0  0
    1.5000    0.0000    0.0000 N   0  0  0  0  0  0  0  0  0  0  0  0
    0.7500    1.2990    0.0000 C   0  0  0  0  0  0  0  0  0  0  0  0
    1.5000    2.5981    0.0000 O   0  0  0  0  0  0  0  0  0  0  0  0
   -0.7500    1.2990    0.0000 C   0  0  0  0  0  0  0  0  0  0  0  0
   -1.7537    2.4138    0.0000 S   0  0  0  0  0  0  0  0  0  0  0  0
   -3.1240    1.8037    0.0000 C   0  0  0  0  0  0  0  0  0  0  0  0
   -4.4231    2.5537    0.0000 S   0  0  0  0  0  0  0  0  0  0  0  0
   -2.9672    0.3119    0.0000 N   0  0  0  0  0  0  0  0  0  0  0  0
   -4.0819   -0.6918    0.0000 C   0  0  0  0  0  0  0  0  0  0  0  0
   -5.5085   -0.2283    0.0000 C   0  0  0  0  0  0  0  0  0  0  0  0
   -6.6232   -1.2320    0.0000 C   0  0  0  0  0  0  0  0  0  0  0  0
   -6.3114   -2.6992    0.0000 C   0  0  0  0  0  0  0  0  0  0  0  0
   -4.8848   -3.1627    0.0000 C   0  0  0  0  0  0  0  0  0  0  0  0
   -3.7701   -2.1590    0.0000 C   0  0  0  0  0  0  0  0  0  0  0  0
   -1.5000    0.0000    0.0000 C   0  0  0  0  0  0  0  0  0  0  0  0
   -0.7500   -1.2990    0.0000 N   0  0  0  0  0  0  0  0  0  0  0  0
    3.0000   -2.5981    0.0000 C   0  0  0  0  0  0  0  0  0  0  0  0
    3.7500   -3.8971    0.0000 C   0  0  0  0  0  0  0  0  0  0  0  0
    3.0000   -5.1962    0.0000 C   0  0  0  0  0  0  0  0  0  0  0  0
    3.7500   -6.4952    0.0000 O   0  0  0  0  0  0  0  0  0  0  0  0
  1  2  1  0
  2  3  1  0
  3  4  1  0
  4  5  2  0
  5  6  1  0
  7  6  1  6
  7  8  1  0
  8  9  1  0
  9 10  2  0
  9 11  1  0
 11 12  1  0
 12 13  1  0
 13 14  2  0
 13 15  1  0
 15 16  1  0
 16 17  2  0
 17 18  1  0
 18 19  2  0
 19 20  1  0
 20 21  2  0
 15 22  1  0
 22 23  1  0
  6 24  2  0
 24 25  1  0
 25 26  2  0
 26 27  1  0
 26  4  1  0
 23  7  1  0
 22 11  2  0
 21 16  1  0
M  END
>  <Compound_ID>  (856) 
C59459453

>  <Active>  (856) 
0.0

>  <Smiles>  (856) 
CCOc1cc([C@H]2NC(=O)c3sc(=S)n(-c4ccccc4)c3N2)ccc1O

>  <canonical_smi>  (856) 
CCOc1cc([C@H]2NC(=O)c3sc(=S)n(-c4ccccc4)c3N2)ccc1O

>  <Set>  (856) 
G2 inactive

>  <Set_type>  (856) 
Train

>  <MW>  (856) 
399.5

>  <HBD>  (856) 
3

>  <HBA>  (856) 
5

>  <NRB>  (856) 
4

>  <NR>  (856) 
4

>  <NAR>  (856) 
3

>  <PSA>  (856) 
75.52

>  <Standard Type>  (856) 
nan

>  <Standard Relation>  (856) 
nan

>  <Standard Units>  (856) 
nan

>  <Standard Value>  (856) 
nan

>  <Assay ChEMBL ID>  (856) 
nan

>  <Assay Description>  (856) 
nan

>  <BAO Label>  (856) 
nan

$$$$

     RDKit          2D

 23 25  0  0  0  0  0  0  0  0999 V2000
   -8.6562    2.3705    0.0000 C   0  0  0  0  0  0  0  0  0  0  0  0
   -7.2296    2.8340    0.0000 O   0  0  0  0  0  0  0  0  0  0  0  0
   -6.1149    1.8303    0.0000 C   0  0  0  0  0  0  0  0  0  0  0  0
   -4.6883    2.2939    0.0000 C   0  0  0  0  0  0  0  0  0  0  0  0
   -3.5736    1.2902    0.0000 C   0  0  0  0  0  0  0  0  0  0  0  0
   -2.1470    1.7537    0.0000 C   0  0  0  0  0  0  0  0  0  0  0  0
   -1.8351    3.2209    0.0000 C   0  0  0  0  0  0  0  0  0  0  0  0
   -2.9499    4.2246    0.0000 C   0  0  0  0  0  0  0  0  0  0  0  0
   -2.6380    5.6918    0.0000 C   0  0  0  0  0  0  0  0  0  0  0  0
   -4.3764    3.7611    0.0000 O   0  0  0  0  0  0  0  0  0  0  0  0
   -0.4086    3.6844    0.0000 C   0  0  0  0  0  0  0  0  0  0  0  0
   -0.0967    5.1517    0.0000 C   0  0  0  0  0  0  0  0  0  0  0  0
    0.7062    2.6807    0.0000 N   0  0  0  0  0  0  0  0  0  0  0  0
    0.3943    1.2135    0.0000 C   0  0  0  0  0  0  0  0  0  0  0  0
    1.2760    0.0000    0.0000 N   0  0  0  0  0  0  0  0  0  0  0  0
    0.3943   -1.2135    0.0000 C   0  0  0  0  0  0  0  0  0  0  0  0
   -1.0323   -0.7500    0.0000 N   0  0  0  0  0  0  0  0  0  0  0  0
   -1.0323    0.7500    0.0000 N   0  0  0  0  0  0  0  0  0  0  0  0
   -3.8855   -0.1771    0.0000 C   0  0  0  0  0  0  0  0  0  0  0  0
   -5.3120   -0.6406    0.0000 C   0  0  0  0  0  0  0  0  0  0  0  0
   -5.6239   -2.1078    0.0000 Br  0  0  0  0  0  0  0  0  0  0  0  0
   -6.4268    0.3631    0.0000 C   0  0  0  0  0  0  0  0  0  0  0  0
   -7.8533   -0.1004    0.0000 O   0  0  0  0  0  0  0  0  0  0  0  0
  1  2  1  0
  2  3  1  0
  3  4  2  0
  4  5  1  0
  6  5  1  6
  6  7  1  0
  7  8  1  0
  8  9  1  0
  8 10  2  0
  7 11  2  0
 11 12  1  0
 11 13  1  0
 13 14  1  0
 14 15  2  0
 15 16  1  0
 16 17  2  0
 17 18  1  0
  5 19  2  0
 19 20  1  0
 20 21  1  0
 20 22  2  0
 22 23  1  0
 22  3  1  0
 18  6  1  0
 18 14  1  0
M  END
>  <Compound_ID>  (857) 
C04342109

>  <Active>  (857) 
0.0

>  <Smiles>  (857) 
COc1cc([C@@H]2C(C(C)=O)=C(C)Nc3ncnn32)cc(Br)c1O

>  <canonical_smi>  (857) 
COc1cc([C@@H]2C(C(C)=O)=C(C)Nc3ncnn32)cc(Br)c1O

>  <Set>  (857) 
G2 inactive

>  <Set_type>  (857) 
Train

>  <MW>  (857) 
379.21

>  <HBD>  (857) 
2

>  <HBA>  (857) 
6

>  <NRB>  (857) 
3

>  <NR>  (857) 
3

>  <NAR>  (857) 
2

>  <PSA>  (857) 
89.27

>  <Standard Type>  (857) 
nan

>  <Standard Relation>  (857) 
nan

>  <Standard Units>  (857) 
nan

>  <Standard Value>  (857) 
nan

>  <Assay ChEMBL ID>  (857) 
nan

>  <Assay Description>  (857) 
nan

>  <BAO Label>  (857) 
nan

$$$$

     RDKit          2D

 26 30  0  0  0  0  0  0  0  0999 V2000
   -3.5424    8.2439    0.0000 C   0  0  0  0  0  0  0  0  0  0  0  0
   -2.4277    9.2476    0.0000 C   0  0  0  0  0  0  0  0  0  0  0  0
   -0.9605    8.9357    0.0000 C   0  0  0  0  0  0  0  0  0  0  0  0
   -0.3504    7.5654    0.0000 C   0  0  0  0  0  0  0  0  0  0  0  0
    1.1168    7.2536    0.0000 N   0  0  0  0  0  0  0  0  0  0  0  0
    1.2736    5.7618    0.0000 O   0  0  0  0  0  0  0  0  0  0  0  0
   -0.0967    5.1517    0.0000 C   0  0  0  0  0  0  0  0  0  0  0  0
   -0.4086    3.6844    0.0000 C   0  0  0  0  0  0  0  0  0  0  0  0
    0.7062    2.6807    0.0000 C   0  0  0  0  0  0  0  0  0  0  0  0
    0.3943    1.2135    0.0000 C   0  0  0  0  0  0  0  0  0  0  0  0
    1.2760    0.0000    0.0000 N   0  0  0  0  0  0  0  0  0  0  0  0
    0.3943   -1.2135    0.0000 C   0  0  0  0  0  0  0  0  0  0  0  0
   -1.0323   -0.7500    0.0000 C   0  0  0  0  0  0  0  0  0  0  0  0
   -1.0323    0.7500    0.0000 C   0  0  0  0  0  0  0  0  0  0  0  0
   -2.1470    1.7537    0.0000 C   0  0  0  0  0  0  0  0  0  0  0  0
   -1.8351    3.2209    0.0000 C   0  0  0  0  0  0  0  0  0  0  0  0
   -1.1004    6.2664    0.0000 N   0  0  0  0  0  0  0  0  0  0  0  0
   -0.2105   10.2348    0.0000 N   0  0  0  0  0  0  0  0  0  0  0  0
   -1.2142   11.3495    0.0000 N   0  0  0  0  0  0  0  0  0  0  0  0
   -2.5845   10.7394    0.0000 N   0  0  0  0  0  0  0  0  0  0  0  0
   -3.8835   11.4894    0.0000 C   0  0  0  0  0  0  0  0  0  0  0  0
   -3.8835   12.9894    0.0000 C   0  0  0  0  0  0  0  0  0  0  0  0
   -5.1826   13.7394    0.0000 C   0  0  0  0  0  0  0  0  0  0  0  0
   -6.4816   12.9894    0.0000 C   0  0  0  0  0  0  0  0  0  0  0  0
   -6.4816   11.4894    0.0000 C   0  0  0  0  0  0  0  0  0  0  0  0
   -5.1826   10.7394    0.0000 C   0  0  0  0  0  0  0  0  0  0  0  0
  1  2  1  0
  2  3  2  0
  3  4  1  0
  4  5  2  0
  5  6  1  0
  6  7  1  0
  7  8  1  0
  8  9  2  0
 10  9  1  1
 10 11  1  0
 11 12  2  0
 12 13  1  0
 13 14  2  0
 14 15  1  0
 15 16  2  0
  7 17  2  0
  3 18  1  0
 18 19  1  0
 19 20  1  0
 20 21  1  0
 21 22  2  0
 22 23  1  0
 23 24  2  0
 24 25  1  0
 25 26  2  0
 20  2  1  0
 26 21  1  0
 17  4  1  0
 16  8  1  0
 14 10  1  0
M  END
>  <Compound_ID>  (858) 
C65236368

>  <Active>  (858) 
0.0

>  <Smiles>  (858) 
CC1=C(c2noc(C3=C[C@H]4N=CC=C4C=C3)n2)NNN1c1ccccc1

>  <canonical_smi>  (858) 
CC1=C(c2noc(C3=C[C@H]4N=CC=C4C=C3)n2)NNN1c1ccccc1

>  <Set>  (858) 
G2 inactive

>  <Set_type>  (858) 
Train

>  <MW>  (858) 
344.38

>  <HBD>  (858) 
2

>  <HBA>  (858) 
6

>  <NRB>  (858) 
3

>  <NR>  (858) 
5

>  <NAR>  (858) 
2

>  <PSA>  (858) 
78.58

>  <Standard Type>  (858) 
nan

>  <Standard Relation>  (858) 
nan

>  <Standard Units>  (858) 
nan

>  <Standard Value>  (858) 
nan

>  <Assay ChEMBL ID>  (858) 
nan

>  <Assay Description>  (858) 
nan

>  <BAO Label>  (858) 
nan

$$$$

     RDKit          2D

 28 31  0  0  0  0  0  0  0  0999 V2000
   -2.0766    2.0164    0.0000 C   0  0  0  0  0  0  0  0  0  0  0  0
   -0.6094    2.3282    0.0000 C   0  0  0  0  0  0  0  0  0  0  0  0
   -0.1459    3.7548    0.0000 C   0  0  0  0  0  0  0  0  0  0  0  0
    1.3213    4.0667    0.0000 C   0  0  0  0  0  0  0  0  0  0  0  0
    2.3250    2.9520    0.0000 C   0  0  0  0  0  0  0  0  0  0  0  0
    3.7923    3.2638    0.0000 C   0  0  0  0  0  0  0  0  0  0  0  0
    2.7886    4.3786    0.0000 C   0  0  0  0  0  0  0  0  0  0  0  0
    4.2558    4.6904    0.0000 C   0  0  0  0  0  0  0  0  0  0  0  0
    5.7230    5.0023    0.0000 O   0  0  0  0  0  0  0  0  0  0  0  0
    6.7267    3.8876    0.0000 C   0  0  0  0  0  0  0  0  0  0  0  0
    8.0511    3.1834    0.0000 C   0  0  0  0  0  0  0  0  0  0  0  0
    7.6502    5.0696    0.0000 C   0  0  0  0  0  0  0  0  0  0  0  0
    6.2632    2.4610    0.0000 O   0  0  0  0  0  0  0  0  0  0  0  0
    4.7960    2.1491    0.0000 C   0  0  0  0  0  0  0  0  0  0  0  0
    4.3324    0.7225    0.0000 C   0  0  0  0  0  0  0  0  0  0  0  0
    2.8652    0.4107    0.0000 C   0  0  0  0  0  0  0  0  0  0  0  0
    1.8615    1.5254    0.0000 C   0  0  0  0  0  0  0  0  0  0  0  0
    3.3287    1.8373    0.0000 C   0  0  0  0  0  0  0  0  0  0  0  0
    0.3943    1.2135    0.0000 C   0  0  0  0  0  0  0  0  0  0  0  0
    1.2760    0.0000    0.0000 C   0  0  0  0  0  0  0  0  0  0  0  0
    0.3943   -1.2135    0.0000 C   0  0  0  0  0  0  0  0  0  0  0  0
   -1.0323   -0.7500    0.0000 C   0  0  0  0  0  0  0  0  0  0  0  0
   -2.5241   -0.5932    0.0000 C   0  0  0  0  0  0  0  0  0  0  0  0
   -3.4057   -1.8067    0.0000 O   0  0  0  0  0  0  0  0  0  0  0  0
   -1.3442   -2.2172    0.0000 C   0  0  0  0  0  0  0  0  0  0  0  0
   -2.7707   -2.6807    0.0000 C   0  0  0  0  0  0  0  0  0  0  0  0
   -3.0826   -4.1480    0.0000 O   0  0  0  0  0  0  0  0  0  0  0  0
   -1.0323    0.7500    0.0000 O   0  0  0  0  0  0  0  0  0  0  0  0
  2  1  1  6
  2  3  1  0
  3  4  1  0
  5  4  1  6
  5  6  1  0
  6  7  1  1
  6  8  1  0
  8  9  1  0
  9 10  1  0
 10 11  1  0
 10 12  1  0
 10 13  1  0
 13 14  1  0
 14 15  1  1
 15 16  1  0
 16 17  1  0
 17 18  1  6
 17 19  1  0
 19 20  1  1
 20 21  1  0
 21 22  1  0
 22 23  1  6
 23 24  1  0
 22 25  1  0
 25 26  1  0
 26 27  1  0
 22 28  1  0
 19  2  1  0
 17  5  1  0
 28 19  1  0
 14  6  1  0
M  END
>  <Compound_ID>  (859) 
C43735328

>  <Active>  (859) 
0.0

>  <Smiles>  (859) 
C[C@@H]1CC[C@@H]2[C@]3(C)COC(C)(C)O[C@H]3CC[C@@]2(C)[C@@]12CC[C@@](CO)(CCO)O2

>  <canonical_smi>  (859) 
C[C@@H]1CC[C@@H]2[C@]3(C)COC(C)(C)O[C@H]3CC[C@@]2(C)[C@@]12CC[C@@](CO)(CCO)O2

>  <Set>  (859) 
G2 inactive

>  <Set_type>  (859) 
Train

>  <MW>  (859) 
396.57

>  <HBD>  (859) 
2

>  <HBA>  (859) 
5

>  <NRB>  (859) 
3

>  <NR>  (859) 
4

>  <NAR>  (859) 
0

>  <PSA>  (859) 
68.15

>  <Standard Type>  (859) 
nan

>  <Standard Relation>  (859) 
nan

>  <Standard Units>  (859) 
nan

>  <Standard Value>  (859) 
nan

>  <Assay ChEMBL ID>  (859) 
nan

>  <Assay Description>  (859) 
nan

>  <BAO Label>  (859) 
nan

$$$$

     RDKit          2D

 34 38  0  0  0  0  0  0  0  0999 V2000
    6.6948   -5.1660    0.0000 C   0  0  0  0  0  0  0  0  0  0  0  0
    5.3245   -4.5559    0.0000 O   0  0  0  0  0  0  0  0  0  0  0  0
    4.1110   -5.4376    0.0000 C   0  0  0  0  0  0  0  0  0  0  0  0
    4.3836   -6.1867    0.0000 O   0  0  0  0  0  0  0  0  0  0  0  0
    2.7406   -4.8275    0.0000 C   0  0  0  0  0  0  0  0  0  0  0  0
    2.5838   -3.3357    0.0000 C   0  0  0  0  0  0  0  0  0  0  0  0
    1.2135   -2.7256    0.0000 C   0  0  0  0  0  0  0  0  0  0  0  0
    0.7500   -1.2990    0.0000 C   0  0  0  0  0  0  0  0  0  0  0  0
    1.5000    0.0000    0.0000 C   0  0  0  0  0  0  0  0  0  0  0  0
    0.7500    1.2990    0.0000 C   0  0  0  0  0  0  0  0  0  0  0  0
   -0.7500    1.2990    0.0000 C   0  0  0  0  0  0  0  0  0  0  0  0
   -1.5000    0.0000    0.0000 C   0  0  0  0  0  0  0  0  0  0  0  0
   -0.7500   -1.2990    0.0000 C   0  0  0  0  0  0  0  0  0  0  0  0
   -1.2135   -2.7256    0.0000 N   0  0  0  0  0  0  0  0  0  0  0  0
    0.0000   -3.6073    0.0000 C   0  0  0  0  0  0  0  0  0  0  0  0
    0.1568   -5.0991    0.0000 C   0  0  0  0  0  0  0  0  0  0  0  0
   -1.0567   -5.9808    0.0000 C   0  0  0  0  0  0  0  0  0  0  0  0
   -0.8999   -7.4725    0.0000 C   0  0  0  0  0  0  0  0  0  0  0  0
   -2.1135   -8.3542    0.0000 N   0  0  0  0  0  4  0  0  0  0  0  0
   -3.4838   -7.7441    0.0000 C   0  0  0  0  0  0  0  0  0  0  0  0
   -4.6973   -8.6258    0.0000 C   0  0  0  0  0  0  0  0  0  0  0  0
   -6.0676   -8.0157    0.0000 O   0  0  0  0  0  0  0  0  0  0  0  0
    0.4704   -8.0826    0.0000 C   0  0  0  0  0  0  0  0  0  0  0  0
    1.6839   -7.2010    0.0000 C   0  0  0  0  0  0  0  0  0  0  0  0
    3.0542   -7.8111    0.0000 C   0  0  0  0  0  0  0  0  0  0  0  0
    4.2677   -6.9294    0.0000 C   0  0  0  0  0  0  0  0  0  0  0  0
    5.6381   -7.5395    0.0000 C   0  0  0  0  0  0  0  0  0  0  0  0
    5.7949   -9.0313    0.0000 C   0  0  0  0  0  0  0  0  0  0  0  0
    7.1652   -9.6414    0.0000 C   0  0  0  0  0  0  0  0  0  0  0  0
    8.3787   -8.7597    0.0000 C   0  0  0  0  0  0  0  0  0  0  0  0
    7.3220  -11.1332    0.0000 C   0  0  0  0  0  0  0  0  0  0  0  0
    4.5813   -9.9130    0.0000 C   0  0  0  0  0  0  0  0  0  0  0  0
    3.2110   -9.3029    0.0000 C   0  0  0  0  0  0  0  0  0  0  0  0
    1.5271   -5.7092    0.0000 N   0  0  0  0  0  0  0  0  0  0  0  0
  1  2  1  0
  2  3  1  0
  3  4  2  0
  5  3  1  1
  5  6  1  0
  6  7  1  0
  7  8  2  0
  8  9  1  0
  9 10  1  0
 10 11  2  0
 11 12  1  0
 12 13  2  0
 13 14  1  0
 14 15  2  0
 15 16  1  0
 16 17  1  6
 17 18  1  0
 18 19  1  1
 19 20  1  0
 20 21  1  0
 21 22  1  0
 18 23  1  0
 23 24  1  0
 24 25  1  6
 25 26  2  0
 26 27  1  0
 27 28  2  0
 28 29  1  0
 29 30  1  0
 29 31  1  0
 28 32  1  0
 32 33  2  0
 24 34  1  0
 34  5  1  0
 15  7  1  0
 34 16  1  0
 13  8  1  0
 33 25  1  0
M  CHG  1  19   1
M  END
>  <Compound_ID>  (860) 
C39560910

>  <Active>  (860) 
0.0

>  <Smiles>  (860) 
COC(=O)[C@@H]1CC2=C3CC=CC=C3N=C2[C@H]2C[C@H]([NH2+]CCO)C[C@@H](c3ccc(C(C)C)cc3)N21

>  <canonical_smi>  (860) 
COC(=O)[C@@H]1CC2=C3CC=CC=C3N=C2[C@H]2C[C@H]([NH2+]CCO)C[C@@H](c3ccc(C(C)C)cc3)N12

>  <Set>  (860) 
G2 inactive

>  <Set_type>  (860) 
Train

>  <MW>  (860) 
462.61

>  <HBD>  (860) 
2

>  <HBA>  (860) 
4

>  <NRB>  (860) 
6

>  <NR>  (860) 
5

>  <NAR>  (860) 
1

>  <PSA>  (860) 
78.74

>  <Standard Type>  (860) 
nan

>  <Standard Relation>  (860) 
nan

>  <Standard Units>  (860) 
nan

>  <Standard Value>  (860) 
nan

>  <Assay ChEMBL ID>  (860) 
nan

>  <Assay Description>  (860) 
nan

>  <BAO Label>  (860) 
nan

$$$$

     RDKit          2D

 37 41  0  0  0  0  0  0  0  0999 V2000
    2.6491    0.9642    0.0000 C   0  0  0  0  0  0  0  0  0  0  0  0
    1.5000    0.0000    0.0000 C   0  0  0  0  0  0  0  0  0  0  0  0
    2.6491   -0.9642    0.0000 C   0  0  0  0  0  0  0  0  0  0  0  0
    0.7500   -1.2990    0.0000 C   0  0  0  0  0  0  0  0  0  0  0  0
    1.5000   -2.5981    0.0000 O   0  0  0  0  0  0  0  0  0  0  0  0
   -0.7500   -1.2990    0.0000 C   0  0  0  0  0  0  0  0  0  0  0  0
   -1.5000    0.0000    0.0000 C   0  0  0  0  0  0  0  0  0  0  0  0
   -0.7500    1.2990    0.0000 C   0  0  0  0  0  0  0  0  0  0  0  0
   -2.2500    1.2990    0.0000 C   0  0  0  0  0  0  0  0  0  0  0  0
    0.7500    1.2990    0.0000 C   0  0  0  0  0  0  0  0  0  0  0  0
    1.5000    2.5981    0.0000 C   0  0  0  0  0  0  0  0  0  0  0  0
    0.7500    3.8971    0.0000 C   0  0  0  0  0  0  0  0  0  0  0  0
   -0.7500    3.8971    0.0000 C   0  0  0  0  0  0  0  0  0  0  0  0
    0.0000    5.1962    0.0000 C   0  0  0  0  0  0  0  0  0  0  0  0
   -1.5000    2.5981    0.0000 C   0  0  0  0  0  0  0  0  0  0  0  0
   -3.0000    2.5981    0.0000 C   0  0  0  0  0  0  0  0  0  0  0  0
   -3.7500    3.8971    0.0000 C   0  0  0  0  0  0  0  0  0  0  0  0
   -3.0000    5.1962    0.0000 C   0  0  0  0  0  0  0  0  0  0  0  0
   -3.7500    6.4952    0.0000 C   0  0  0  0  0  0  0  0  0  0  0  0
   -5.2500    6.4952    0.0000 C   0  0  0  0  0  0  0  0  0  0  0  0
   -6.0000    7.7942    0.0000 C   0  0  0  0  0  0  0  0  0  0  0  0
   -7.1491    8.7584    0.0000 C   0  0  0  0  0  0  0  0  0  0  0  0
   -7.1491    6.8300    0.0000 C   0  0  0  0  0  0  0  0  0  0  0  0
   -6.8886    5.3528    0.0000 O   0  0  0  0  0  0  0  0  0  0  0  0
   -8.5586    7.3431    0.0000 O   0  0  0  0  0  0  0  0  0  0  0  0
   -9.7077    6.3789    0.0000 C   0  0  0  0  0  0  0  0  0  0  0  0
  -11.1172    6.8919    0.0000 C   0  0  0  0  0  0  0  0  0  0  0  0
  -12.2663    5.9277    0.0000 N   0  0  0  0  0  4  0  0  0  0  0  0
   -5.2500    9.0933    0.0000 C   0  0  0  0  0  0  0  0  0  0  0  0
   -3.7500    9.0933    0.0000 C   0  0  0  0  0  0  0  0  0  0  0  0
   -3.0000   10.3923    0.0000 O   0  0  0  0  0  0  0  0  0  0  0  0
   -3.0000    7.7942    0.0000 C   0  0  0  0  0  0  0  0  0  0  0  0
   -2.2500    9.0933    0.0000 C   0  0  0  0  0  0  0  0  0  0  0  0
   -1.5000    7.7942    0.0000 C   0  0  0  0  0  0  0  0  0  0  0  0
   -0.7500    6.4952    0.0000 C   0  0  0  0  0  0  0  0  0  0  0  0
   -1.5000    5.1962    0.0000 C   0  0  0  0  0  0  0  0  0  0  0  0
   -2.2500    3.8971    0.0000 C   0  0  0  0  0  0  0  0  0  0  0  0
  1  2  1  0
  2  3  1  0
  2  4  1  0
  4  5  1  1
  4  6  1  0
  6  7  1  0
  7  8  1  0
  8  9  1  1
  8 10  1  0
 10 11  1  1
 11 12  1  0
 12 13  1  0
 13 14  1  1
 13 15  1  0
 15 16  1  6
 16 17  2  0
 17 18  1  0
 18 19  2  0
 19 20  1  0
 20 21  1  0
 21 22  1  1
 21 23  1  0
 23 24  2  0
 23 25  1  0
 25 26  1  0
 26 27  1  0
 27 28  1  0
 21 29  1  0
 29 30  1  0
 30 31  2  0
 30 32  1  0
 32 33  1  1
 32 34  1  0
 34 35  1  0
 35 36  1  0
 36 37  1  6
 10  2  1  0
 36 13  1  0
 15  8  1  0
 36 18  1  0
 32 19  1  0
M  CHG  1  28   1
M  END
>  <Compound_ID>  (861) 
C12653410

>  <Active>  (861) 
0.0

>  <Smiles>  (861) 
CC1(C)[C@@H](O)CC[C@@]2(C)[C@H]1CC[C@]1(C)[C@H]2C=CC2=C3C[C@](C)(C(=O)OCC[NH3+])CC(=O)[C@]3(C)CC[C@]21C

>  <canonical_smi>  (861) 
CC1(C)[C@@H](O)CC[C@]2(C)[C@@H]3C=CC4=C5C[C@](C)(C(=O)OCC[NH3+])CC(=O)[C@]5(C)CC[C@@]4(C)[C@]3(C)CC[C@@H]12

>  <Set>  (861) 
G2 inactive

>  <Set_type>  (861) 
Train

>  <MW>  (861) 
512.76

>  <HBD>  (861) 
2

>  <HBA>  (861) 
4

>  <NRB>  (861) 
3

>  <NR>  (861) 
5

>  <NAR>  (861) 
0

>  <PSA>  (861) 
91.24

>  <Standard Type>  (861) 
nan

>  <Standard Relation>  (861) 
nan

>  <Standard Units>  (861) 
nan

>  <Standard Value>  (861) 
nan

>  <Assay ChEMBL ID>  (861) 
nan

>  <Assay Description>  (861) 
nan

>  <BAO Label>  (861) 
nan

$$$$

     RDKit          2D

 30 34  0  0  0  0  0  0  0  0999 V2000
    3.0000   -2.5981    0.0000 O   0  0  0  0  0  0  0  0  0  0  0  0
    1.5000   -2.5981    0.0000 C   0  0  0  0  0  0  0  0  0  0  0  0
    0.7500   -3.8971    0.0000 N   0  0  0  0  0  0  0  0  0  0  0  0
    1.5000   -5.1962    0.0000 C   0  0  0  0  0  0  0  0  0  0  0  0
    0.7500   -6.4952    0.0000 C   0  0  0  0  0  0  0  0  0  0  0  0
    1.5000   -7.7942    0.0000 C   0  0  0  0  0  0  0  0  0  0  0  0
    0.7500   -9.0933    0.0000 F   0  0  0  0  0  0  0  0  0  0  0  0
    3.0000   -7.7942    0.0000 C   0  0  0  0  0  0  0  0  0  0  0  0
    3.7500   -6.4952    0.0000 C   0  0  0  0  0  0  0  0  0  0  0  0
    3.0000   -5.1962    0.0000 C   0  0  0  0  0  0  0  0  0  0  0  0
    3.7500   -3.8971    0.0000 F   0  0  0  0  0  0  0  0  0  0  0  0
    0.7500   -1.2990    0.0000 N   0  0  0  0  0  0  0  0  0  0  0  0
    1.5000    0.0000    0.0000 C   0  0  0  0  0  0  0  0  0  0  0  0
    0.7500    1.2990    0.0000 C   0  0  0  0  0  0  0  0  0  0  0  0
   -0.7500    1.2990    0.0000 C   0  0  0  0  0  0  0  0  0  0  0  0
   -1.5000    0.0000    0.0000 C   0  0  0  0  0  0  0  0  0  0  0  0
   -0.7500   -1.2990    0.0000 C   0  0  0  0  0  0  0  0  0  0  0  0
    0.0000    2.5981    0.0000 N   0  0  0  0  0  0  0  0  0  0  0  0
   -0.7500    3.8971    0.0000 C   0  0  0  0  0  0  0  0  0  0  0  0
    0.0000    5.1962    0.0000 C   0  0  0  0  0  0  0  0  0  0  0  0
   -0.7500    6.4952    0.0000 C   0  0  0  0  0  0  0  0  0  0  0  0
    0.0000    7.7942    0.0000 F   0  0  0  0  0  0  0  0  0  0  0  0
   -2.2500    6.4952    0.0000 C   0  0  0  0  0  0  0  0  0  0  0  0
   -3.0000    5.1962    0.0000 C   0  0  0  0  0  0  0  0  0  0  0  0
   -2.2500    3.8971    0.0000 C   0  0  0  0  0  0  0  0  0  0  0  0
   -3.0000    2.5981    0.0000 N   0  0  0  0  0  0  0  0  0  0  0  0
   -4.4672    2.2862    0.0000 C   0  0  0  0  0  0  0  0  0  0  0  0
   -4.6240    0.7944    0.0000 C   0  0  0  0  0  0  0  0  0  0  0  0
   -3.2537    0.1843    0.0000 C   0  0  0  0  0  0  0  0  0  0  0  0
   -2.2500    1.2990    0.0000 C   0  0  0  0  0  0  0  0  0  0  0  0
  1  2  2  0
  2  3  1  0
  3  4  1  0
  4  5  2  0
  5  6  1  0
  6  7  1  0
  6  8  2  0
  8  9  1  0
  9 10  2  0
 10 11  1  0
  2 12  1  0
 12 13  1  0
 13 14  1  0
 14 15  1  0
 15 16  1  0
 16 17  1  0
 15 18  1  0
 18 19  1  0
 19 20  2  0
 20 21  1  0
 21 22  1  0
 21 23  2  0
 23 24  1  0
 24 25  2  0
 25 26  1  0
 26 27  1  0
 27 28  2  0
 28 29  1  0
 29 30  2  0
 10  4  1  0
 17 12  1  0
 25 19  1  0
 30 26  1  0
 30 15  1  0
M  END
>  <Compound_ID>  (862) 
C21944666

>  <Active>  (862) 
0.0

>  <Smiles>  (862) 
O=C(Nc1cc(F)ccc1F)N1CCC2(CC1)Nc1cc(F)ccc1-n1cccc12

>  <canonical_smi>  (862) 
O=C(Nc1cc(F)ccc1F)N1CCC2(CC1)Nc1cc(F)ccc1-n1cccc12

>  <Set>  (862) 
G2 inactive

>  <Set_type>  (862) 
Train

>  <MW>  (862) 
412.41

>  <HBD>  (862) 
2

>  <HBA>  (862) 
2

>  <NRB>  (862) 
1

>  <NR>  (862) 
5

>  <NAR>  (862) 
3

>  <PSA>  (862) 
49.3

>  <Standard Type>  (862) 
nan

>  <Standard Relation>  (862) 
nan

>  <Standard Units>  (862) 
nan

>  <Standard Value>  (862) 
nan

>  <Assay ChEMBL ID>  (862) 
nan

>  <Assay Description>  (862) 
nan

>  <BAO Label>  (862) 
nan

$$$$

     RDKit          2D

 29 33  0  0  0  0  0  0  0  0999 V2000
   -5.0109   -1.5724    0.0000 C   0  0  0  0  0  0  0  0  0  0  0  0
   -3.6406   -0.9623    0.0000 C   0  0  0  0  0  0  0  0  0  0  0  0
   -2.4271   -1.8439    0.0000 C   0  0  0  0  0  0  0  0  0  0  0  0
   -3.3087   -3.0575    0.0000 C   0  0  0  0  0  0  0  0  0  0  0  0
   -1.9214   -0.5922    0.0000 C   0  0  0  0  0  0  0  0  0  0  0  0
   -1.2135   -2.7256    0.0000 C   0  0  0  0  0  0  0  0  0  0  0  0
   -2.4271   -3.6073    0.0000 C   0  0  0  0  0  0  0  0  0  0  0  0
   -1.9635   -5.0339    0.0000 C   0  0  0  0  0  0  0  0  0  0  0  0
   -2.7135   -6.3329    0.0000 C   0  0  0  0  0  0  0  0  0  0  0  0
   -4.2135   -6.3329    0.0000 O   0  0  0  0  0  0  0  0  0  0  0  0
   -1.9635   -7.6320    0.0000 N   0  0  0  0  0  0  0  0  0  0  0  0
   -0.4635   -7.6320    0.0000 C   0  0  0  0  0  0  0  0  0  0  0  0
    0.2865   -8.9310    0.0000 C   0  0  0  0  0  0  0  0  0  0  0  0
   -0.4635  -10.2300    0.0000 C   0  0  0  0  0  0  0  0  0  0  0  0
    0.1466  -11.6004    0.0000 C   0  0  0  0  0  0  0  0  0  0  0  0
   -0.9681  -12.6041    0.0000 N   0  0  0  0  0  0  0  0  0  0  0  0
   -2.2672  -11.8541    0.0000 C   0  0  0  0  0  0  0  0  0  0  0  0
   -1.9553  -10.3868    0.0000 N   0  0  0  0  0  0  0  0  0  0  0  0
    0.2865   -6.3329    0.0000 C   0  0  0  0  0  0  0  0  0  0  0  0
    1.7865   -6.3329    0.0000 O   0  0  0  0  0  0  0  0  0  0  0  0
   -0.4635   -5.0339    0.0000 N   0  0  0  0  0  0  0  0  0  0  0  0
   -0.0000   -3.6073    0.0000 C   0  0  0  0  0  0  0  0  0  0  0  0
    1.2135   -2.7256    0.0000 N   0  0  0  0  0  0  0  0  0  0  0  0
    0.7500   -1.2990    0.0000 C   0  0  0  0  0  0  0  0  0  0  0  0
    1.5000    0.0000    0.0000 C   0  0  0  0  0  0  0  0  0  0  0  0
    0.7500    1.2990    0.0000 C   0  0  0  0  0  0  0  0  0  0  0  0
   -0.7500    1.2990    0.0000 C   0  0  0  0  0  0  0  0  0  0  0  0
   -1.5000    0.0000    0.0000 C   0  0  0  0  0  0  0  0  0  0  0  0
   -0.7500   -1.2990    0.0000 C   0  0  0  0  0  0  0  0  0  0  0  0
  1  2  2  0
  2  3  1  0
  3  4  1  0
  3  5  1  0
  6  3  1  6
  6  7  1  0
  8  7  1  1
  8  9  1  0
  9 10  2  0
  9 11  1  0
 11 12  1  0
 12 13  2  3
 13 14  1  0
 14 15  2  0
 15 16  1  0
 16 17  1  0
 17 18  2  0
 12 19  1  0
 19 20  2  0
 19 21  1  0
 21 22  1  0
 22 23  1  1
 23 24  1  0
 24 25  2  0
 25 26  1  0
 26 27  2  0
 27 28  1  0
 28 29  2  0
 22  6  1  0
 29 24  1  0
 29  6  1  0
 21  8  1  0
 18 14  1  0
M  END
>  <Compound_ID>  (863) 
C04523026

>  <Active>  (863) 
0.0

>  <Smiles>  (863) 
C=CC(C)(C)[C@@]12C[C@@H]3C(=O)NC(=Cc4c[nH]cn4)C(=O)N3[C@@H]1Nc1ccccc12

>  <canonical_smi>  (863) 
C=CC(C)(C)[C@@]12C[C@@H]3C(=O)NC(=Cc4c[nH]cn4)C(=O)N3[C@@H]1Nc1ccccc12

>  <Set>  (863) 
G2 inactive

>  <Set_type>  (863) 
Train

>  <MW>  (863) 
389.46

>  <HBD>  (863) 
3

>  <HBA>  (863) 
4

>  <NRB>  (863) 
3

>  <NR>  (863) 
5

>  <NAR>  (863) 
2

>  <PSA>  (863) 
90.12

>  <Standard Type>  (863) 
nan

>  <Standard Relation>  (863) 
nan

>  <Standard Units>  (863) 
nan

>  <Standard Value>  (863) 
nan

>  <Assay ChEMBL ID>  (863) 
nan

>  <Assay Description>  (863) 
nan

>  <BAO Label>  (863) 
nan

$$$$

     RDKit          2D

 28 31  0  0  0  0  0  0  0  0999 V2000
    0.9784    5.1574    0.0000 N   0  0  0  0  0  4  0  0  0  0  0  0
    0.1520    3.9056    0.0000 C   0  0  0  0  0  0  0  0  0  0  0  0
    0.9214    2.6179    0.0000 C   0  0  0  0  0  0  0  0  0  0  0  0
    0.3943    1.2135    0.0000 C   0  0  0  0  0  0  0  0  0  0  0  0
    1.2760    0.0000    0.0000 N   0  0  0  0  0  0  0  0  0  0  0  0
    0.3943   -1.2135    0.0000 C   0  0  0  0  0  0  0  0  0  0  0  0
   -1.0323   -0.7500    0.0000 N   0  0  0  0  0  0  0  0  0  0  0  0
   -1.0323    0.7500    0.0000 N   0  0  0  0  0  0  0  0  0  0  0  0
   -2.2841    1.5763    0.0000 C   0  0  0  0  0  0  0  0  0  0  0  0
   -3.5718    0.8070    0.0000 N   0  0  0  0  0  0  0  0  0  0  0  0
   -3.7063   -0.6870    0.0000 N   0  0  0  0  0  0  0  0  0  0  0  0
   -5.1687   -1.0207    0.0000 C   0  0  0  0  0  0  0  0  0  0  0  0
   -5.7582   -2.4000    0.0000 C   0  0  0  0  0  0  0  0  0  0  0  0
   -7.2475   -2.5791    0.0000 C   0  0  0  0  0  0  0  0  0  0  0  0
   -7.8370   -3.9584    0.0000 C   0  0  0  0  0  0  0  0  0  0  0  0
   -6.9373   -5.1586    0.0000 C   0  0  0  0  0  0  0  0  0  0  0  0
   -7.5268   -6.5379    0.0000 F   0  0  0  0  0  0  0  0  0  0  0  0
   -5.4480   -4.9795    0.0000 C   0  0  0  0  0  0  0  0  0  0  0  0
   -4.8585   -3.6002    0.0000 C   0  0  0  0  0  0  0  0  0  0  0  0
   -5.9380    0.2669    0.0000 C   0  0  0  0  0  0  0  0  0  0  0  0
   -4.9511    1.3965    0.0000 C   0  0  0  0  0  0  0  0  0  0  0  0
   -4.2206    2.7066    0.0000 O   0  0  0  0  0  0  0  0  0  0  0  0
   -6.1777    2.2600    0.0000 C   0  0  0  0  0  0  0  0  0  0  0  0
   -7.4043    3.1234    0.0000 F   0  0  0  0  0  0  0  0  0  0  0  0
   -5.3143    3.4865    0.0000 F   0  0  0  0  0  0  0  0  0  0  0  0
   -7.0411    1.0334    0.0000 F   0  0  0  0  0  0  0  0  0  0  0  0
   -2.4186    3.0703    0.0000 N   0  0  0  0  0  0  0  0  0  0  0  0
   -1.3344    4.1069    0.0000 N   0  0  0  0  0  0  0  0  0  0  0  0
  1  2  1  0
  2  3  2  0
  3  4  1  0
  4  5  2  0
  5  6  1  0
  6  7  2  0
  7  8  1  0
  8  9  1  0
  9 10  1  0
 10 11  1  0
 11 12  2  0
 12 13  1  0
 13 14  2  0
 14 15  1  0
 15 16  2  0
 16 17  1  0
 16 18  1  0
 18 19  2  0
 12 20  1  0
 20 21  1  0
 21 22  1  1
 21 23  1  0
 23 24  1  0
 23 25  1  0
 23 26  1  0
  9 27  2  0
 27 28  1  0
 28  2  1  0
  8  4  1  0
 21 10  1  0
 19 13  1  0
M  CHG  1   1   1
M  END
>  <Compound_ID>  (864) 
C06058533

>  <Active>  (864) 
0.0

>  <Smiles>  (864) 
[NH3+]C1=Cc2ncnn2C(N2N=C(c3ccc(F)cc3)C[C@]2(O)C(F)(F)F)=NN1

>  <canonical_smi>  (864) 
[NH3+]C1=Cc2ncnn2C(N2N=C(c3ccc(F)cc3)C[C@]2(O)C(F)(F)F)=NN1

>  <Set>  (864) 
G2 inactive

>  <Set_type>  (864) 
Train

>  <MW>  (864) 
397.32

>  <HBD>  (864) 
3

>  <HBA>  (864) 
5

>  <NRB>  (864) 
1

>  <NR>  (864) 
4

>  <NAR>  (864) 
2

>  <PSA>  (864) 
118.57

>  <Standard Type>  (864) 
nan

>  <Standard Relation>  (864) 
nan

>  <Standard Units>  (864) 
nan

>  <Standard Value>  (864) 
nan

>  <Assay ChEMBL ID>  (864) 
nan

>  <Assay Description>  (864) 
nan

>  <BAO Label>  (864) 
nan

$$$$

     RDKit          2D

 28 31  0  0  0  0  0  0  0  0999 V2000
   -5.0539   -8.7791    0.0000 N   0  0  0  0  0  0  0  0  0  0  0  0
   -3.9391   -7.7755    0.0000 C   0  0  0  0  0  0  0  0  0  0  0  0
   -4.2510   -6.3082    0.0000 O   0  0  0  0  0  0  0  0  0  0  0  0
   -2.5126   -8.2390    0.0000 C   0  0  0  0  0  0  0  0  0  0  0  0
   -2.0490   -9.6656    0.0000 N   0  0  0  0  0  0  0  0  0  0  0  0
   -0.5490   -9.6656    0.0000 C   0  0  0  0  0  0  0  0  0  0  0  0
    0.3326  -10.8791    0.0000 N   0  0  0  0  0  0  0  0  0  0  0  0
   -0.2775  -12.2494    0.0000 C   0  0  0  0  0  0  0  0  0  0  0  0
   -1.7692  -12.4062    0.0000 C   0  0  0  0  0  0  0  0  0  0  0  0
   -2.3794  -13.7765    0.0000 C   0  0  0  0  0  0  0  0  0  0  0  0
   -1.4977  -14.9900    0.0000 C   0  0  0  0  0  0  0  0  0  0  0  0
   -0.0059  -14.8333    0.0000 C   0  0  0  0  0  0  0  0  0  0  0  0
    0.6042  -13.4629    0.0000 C   0  0  0  0  0  0  0  0  0  0  0  0
   -0.0855   -8.2390    0.0000 S   0  0  0  0  0  0  0  0  0  0  0  0
   -1.2990   -7.3573    0.0000 C   0  0  0  0  0  0  0  0  0  0  0  0
   -1.2990   -5.8573    0.0000 N   0  0  0  0  0  0  0  0  0  0  0  0
   -0.0000   -5.1073    0.0000 C   0  0  0  0  0  0  0  0  0  0  0  0
    1.2990   -5.8573    0.0000 O   0  0  0  0  0  0  0  0  0  0  0  0
   -0.0000   -3.6073    0.0000 C   0  0  0  0  0  0  0  0  0  0  0  0
    1.2135   -2.7256    0.0000 C   0  0  0  0  0  0  0  0  0  0  0  0
    0.7500   -1.2990    0.0000 C   0  0  0  0  0  0  0  0  0  0  0  0
    1.5000    0.0000    0.0000 C   0  0  0  0  0  0  0  0  0  0  0  0
    0.7500    1.2990    0.0000 C   0  0  0  0  0  0  0  0  0  0  0  0
    1.5000    2.5981    0.0000 Cl  0  0  0  0  0  0  0  0  0  0  0  0
   -0.7500    1.2990    0.0000 C   0  0  0  0  0  0  0  0  0  0  0  0
   -1.5000    0.0000    0.0000 C   0  0  0  0  0  0  0  0  0  0  0  0
   -0.7500   -1.2990    0.0000 C   0  0  0  0  0  0  0  0  0  0  0  0
   -1.2135   -2.7256    0.0000 N   0  0  0  0  0  4  0  0  0  0  0  0
  1  2  1  0
  2  3  2  0
  4  2  1  6
  4  5  1  0
  5  6  1  0
  6  7  1  6
  7  8  1  0
  8  9  2  0
  9 10  1  0
 10 11  2  0
 11 12  1  0
 12 13  2  0
  6 14  1  0
 14 15  1  0
 15 16  1  6
 16 17  1  0
 17 18  2  0
 19 17  1  1
 19 20  1  0
 20 21  2  0
 21 22  1  0
 22 23  2  0
 23 24  1  0
 23 25  1  0
 25 26  2  0
 26 27  1  0
 27 28  2  0
 15  4  1  0
 28 19  1  0
 13  8  1  0
 27 21  1  0
M  CHG  1  28   1
M  END
>  <Compound_ID>  (865) 
C63686320

>  <Active>  (865) 
0.0

>  <Smiles>  (865) 
NC(=O)[C@H]1N[C@@H](Nc2ccccc2)S[C@H]1NC(=O)[C@@H]1C=c2cc(Cl)ccc2=[NH+]1

>  <canonical_smi>  (865) 
NC(=O)[C@H]1N[C@@H](Nc2ccccc2)S[C@H]1NC(=O)[C@@H]1C=c2cc(Cl)ccc2=[NH+]1

>  <Set>  (865) 
G2 inactive

>  <Set_type>  (865) 
Train

>  <MW>  (865) 
416.91

>  <HBD>  (865) 
5

>  <HBA>  (865) 
5

>  <NRB>  (865) 
5

>  <NR>  (865) 
4

>  <NAR>  (865) 
2

>  <PSA>  (865) 
110.22

>  <Standard Type>  (865) 
nan

>  <Standard Relation>  (865) 
nan

>  <Standard Units>  (865) 
nan

>  <Standard Value>  (865) 
nan

>  <Assay ChEMBL ID>  (865) 
nan

>  <Assay Description>  (865) 
nan

>  <BAO Label>  (865) 
nan

$$$$

     RDKit          2D

 26 29  0  0  0  0  0  0  0  0999 V2000
    2.5838   -2.1155    0.0000 O   0  0  0  0  0  0  0  0  0  0  0  0
    1.2135   -2.7256    0.0000 S   0  0  0  0  0  0  0  0  0  0  0  0
    1.9635   -4.0247    0.0000 O   0  0  0  0  0  0  0  0  0  0  0  0
    0.7500   -1.2990    0.0000 C   0  0  0  0  0  0  0  0  0  0  0  0
    1.5000    0.0000    0.0000 C   0  0  0  0  0  0  0  0  0  0  0  0
    0.7500    1.2990    0.0000 C   0  0  0  0  0  0  0  0  0  0  0  0
   -0.7500    1.2990    0.0000 C   0  0  0  0  0  0  0  0  0  0  0  0
   -1.5000    0.0000    0.0000 C   0  0  0  0  0  0  0  0  0  0  0  0
   -0.7500   -1.2990    0.0000 C   0  0  0  0  0  0  0  0  0  0  0  0
   -1.2135   -2.7256    0.0000 C   0  0  0  0  0  0  0  0  0  0  0  0
   -2.6401   -3.1891    0.0000 O   0  0  0  0  0  0  0  0  0  0  0  0
   -0.0000   -3.6073    0.0000 C   0  0  0  0  0  0  0  0  0  0  0  0
   -0.0000   -5.1073    0.0000 C   0  0  0  0  0  0  0  0  0  0  0  0
   -1.2990   -5.8573    0.0000 N   0  0  0  0  0  4  0  0  0  0  0  0
   -1.2990   -7.3573    0.0000 C   0  0  0  0  0  0  0  0  0  0  0  0
   -2.5981   -8.1073    0.0000 C   0  0  0  0  0  0  0  0  0  0  0  0
   -2.5981   -9.6073    0.0000 C   0  0  0  0  0  0  0  0  0  0  0  0
   -1.2990  -10.3573    0.0000 C   0  0  0  0  0  0  0  0  0  0  0  0
   -0.0000   -9.6073    0.0000 C   0  0  0  0  0  0  0  0  0  0  0  0
   -0.0000   -8.1073    0.0000 C   0  0  0  0  0  0  0  0  0  0  0  0
    1.2990   -5.8573    0.0000 C   0  0  0  0  0  0  0  0  0  0  0  0
    1.2990   -7.3573    0.0000 C   0  0  0  0  0  0  0  0  0  0  0  0
    2.5981   -8.1073    0.0000 C   0  0  0  0  0  0  0  0  0  0  0  0
    3.8971   -7.3573    0.0000 C   0  0  0  0  0  0  0  0  0  0  0  0
    3.8971   -5.8573    0.0000 C   0  0  0  0  0  0  0  0  0  0  0  0
    2.5981   -5.1073    0.0000 C   0  0  0  0  0  0  0  0  0  0  0  0
  1  2  2  0
  2  3  2  0
  2  4  1  0
  4  5  2  0
  5  6  1  0
  6  7  2  0
  7  8  1  0
  8  9  2  0
  9 10  1  0
 10 11  1  6
 10 12  1  0
 12 13  1  0
 13 14  1  1
 14 15  1  0
 15 16  1  0
 16 17  1  0
 17 18  1  0
 18 19  1  0
 19 20  1  0
 13 21  1  0
 21 22  1  0
 22 23  1  0
 23 24  1  0
 24 25  1  0
 25 26  1  0
 12  2  1  6
 20 15  1  0
 26 21  1  0
  9  4  1  0
M  CHG  1  14   1
M  END
>  <Compound_ID>  (866) 
C39295725

>  <Active>  (866) 
0.0

>  <Smiles>  (866) 
O=S1(=O)c2ccccc2[C@@H](O)[C@H]1[C@H]([NH2+]C1CCCCC1)C1CCCCC1

>  <canonical_smi>  (866) 
O=S1(=O)c2ccccc2[C@@H](O)[C@H]1[C@H]([NH2+]C1CCCCC1)C1CCCCC1

>  <Set>  (866) 
G2 inactive

>  <Set_type>  (866) 
Train

>  <MW>  (866) 
378.56

>  <HBD>  (866) 
2

>  <HBA>  (866) 
3

>  <NRB>  (866) 
4

>  <NR>  (866) 
4

>  <NAR>  (866) 
1

>  <PSA>  (866) 
70.98

>  <Standard Type>  (866) 
nan

>  <Standard Relation>  (866) 
nan

>  <Standard Units>  (866) 
nan

>  <Standard Value>  (866) 
nan

>  <Assay ChEMBL ID>  (866) 
nan

>  <Assay Description>  (866) 
nan

>  <BAO Label>  (866) 
nan

$$$$

     RDKit          2D

 25 28  0  0  0  0  0  0  0  0999 V2000
    3.0000   -7.7942    0.0000 C   0  0  0  0  0  0  0  0  0  0  0  0
    1.5000   -7.7942    0.0000 S   0  0  0  0  0  0  0  0  0  0  0  0
    0.7500   -6.4952    0.0000 C   0  0  0  0  0  0  0  0  0  0  0  0
    1.5000   -5.1962    0.0000 C   0  0  0  0  0  0  0  0  0  0  0  0
    0.7500   -3.8971    0.0000 C   0  0  0  0  0  0  0  0  0  0  0  0
    1.5000   -2.5981    0.0000 C   0  0  0  0  0  0  0  0  0  0  0  0
    0.7500   -1.2990    0.0000 C   0  0  0  0  0  0  0  0  0  0  0  0
    1.5000    0.0000    0.0000 C   0  0  0  0  0  0  0  0  0  0  0  0
    0.7500    1.2990    0.0000 O   0  0  0  0  0  0  0  0  0  0  0  0
   -0.7500    1.2990    0.0000 P   0  0  0  0  0  5  0  0  0  0  0  0
   -0.4895    2.7762    0.0000 O   0  0  0  0  0  0  0  0  0  0  0  0
   -2.1595    1.8121    0.0000 C   0  0  0  0  0  0  0  0  0  0  0  0
   -2.4200    3.2893    0.0000 C   0  0  0  0  0  0  0  0  0  0  0  0
   -1.2709    4.2535    0.0000 C   0  0  0  0  0  0  0  0  0  0  0  0
   -1.5314    5.7307    0.0000 C   0  0  0  0  0  0  0  0  0  0  0  0
   -2.9410    6.2437    0.0000 C   0  0  0  0  0  0  0  0  0  0  0  0
   -4.0900    5.2795    0.0000 C   0  0  0  0  0  0  0  0  0  0  0  0
   -3.8296    3.8023    0.0000 C   0  0  0  0  0  0  0  0  0  0  0  0
   -1.5000    0.0000    0.0000 N   0  0  0  0  0  0  0  0  0  0  0  0
   -0.7500   -1.2990    0.0000 N   0  0  0  0  0  4  0  0  0  0  0  0
   -1.5000   -2.5981    0.0000 C   0  0  0  0  0  0  0  0  0  0  0  0
   -0.7500   -3.8971    0.0000 C   0  0  0  0  0  0  0  0  0  0  0  0
   -1.5000   -5.1962    0.0000 C   0  0  0  0  0  0  0  0  0  0  0  0
   -0.7500   -6.4952    0.0000 C   0  0  0  0  0  0  0  0  0  0  0  0
   -1.5000   -7.7942    0.0000 O   0  0  0  0  0  0  0  0  0  0  0  0
  1  2  1  0
  2  3  1  0
  3  4  2  0
  4  5  1  0
  5  6  1  6
  7  6  1  1
  7  8  1  0
  8  9  1  0
  9 10  1  0
 10 11  2  0
 10 12  1  1
 12 13  1  0
 13 14  2  0
 14 15  1  0
 15 16  2  0
 16 17  1  0
 17 18  2  0
 10 19  1  0
 19 20  1  0
 20 21  1  0
 22 21  1  1
 22 23  1  0
 23 24  2  0
 24 25  1  0
 24  3  1  0
 22  5  1  0
 20  7  1  0
 18 13  1  0
M  CHG  1  20   1
M  END
>  <Compound_ID>  (867) 
C39466639

>  <Active>  (867) 
0.0

>  <Smiles>  (867) 
CSC1=C[C@H]2C[C@@H]3CO[P@](=O)(Cc4ccccc4)N[NH+]3C[C@@H]2C=C1O

>  <canonical_smi>  (867) 
CSC1=C[C@H]2C[C@@H]3CO[P@](=O)(Cc4ccccc4)N[NH+]3C[C@@H]2C=C1O

>  <Set>  (867) 
G2 inactive

>  <Set_type>  (867) 
Train

>  <MW>  (867) 
379.44

>  <HBD>  (867) 
3

>  <HBA>  (867) 
5

>  <NRB>  (867) 
3

>  <NR>  (867) 
4

>  <NAR>  (867) 
1

>  <PSA>  (867) 
63.0

>  <Standard Type>  (867) 
nan

>  <Standard Relation>  (867) 
nan

>  <Standard Units>  (867) 
nan

>  <Standard Value>  (867) 
nan

>  <Assay ChEMBL ID>  (867) 
nan

>  <Assay Description>  (867) 
nan

>  <BAO Label>  (867) 
nan

$$$$

     RDKit          2D

 18 19  0  0  0  0  0  0  0  0999 V2000
    3.7500   -1.2990    0.0000 C   0  0  0  0  0  0  0  0  0  0  0  0
    3.0000    0.0000    0.0000 C   0  0  0  0  0  0  0  0  0  0  0  0
    1.5000    0.0000    0.0000 C   0  0  0  0  0  0  0  0  0  0  0  0
    0.7500   -1.2990    0.0000 C   0  0  0  0  0  0  0  0  0  0  0  0
   -0.7500   -1.2990    0.0000 O   0  0  0  0  0  0  0  0  0  0  0  0
   -1.5000    0.0000    0.0000 C   0  0  0  0  0  0  0  0  0  0  0  0
   -0.7500    1.2990    0.0000 C   0  0  0  0  0  0  0  0  0  0  0  0
    0.7500    1.2990    0.0000 N   0  0  0  0  0  0  0  0  0  0  0  0
    1.5000    2.5981    0.0000 C   0  0  0  0  0  0  0  0  0  0  0  0
    0.7500    3.8971    0.0000 C   0  0  0  0  0  0  0  0  0  0  0  0
    1.5000    5.1962    0.0000 N   0  0  0  0  0  4  0  0  0  0  0  0
    3.0000    2.5981    0.0000 C   0  0  0  0  0  0  0  0  0  0  0  0
    3.8817    3.8116    0.0000 C   0  0  0  0  0  0  0  0  0  0  0  0
    5.3083    3.3481    0.0000 C   0  0  0  0  0  0  0  0  0  0  0  0
    6.5218    4.2298    0.0000 Br  0  0  0  0  0  0  0  0  0  0  0  0
    5.3083    1.8481    0.0000 C   0  0  0  0  0  0  0  0  0  0  0  0
    6.5218    0.9664    0.0000 Br  0  0  0  0  0  0  0  0  0  0  0  0
    3.8817    1.3846    0.0000 O   0  0  0  0  0  0  0  0  0  0  0  0
  1  2  1  0
  3  2  1  6
  3  4  1  0
  4  5  1  0
  5  6  1  0
  6  7  1  0
  7  8  1  0
  8  9  1  0
  9 10  1  1
 10 11  1  0
  9 12  1  0
 12 13  2  0
 13 14  1  0
 14 15  1  0
 14 16  2  0
 16 17  1  0
 16 18  1  0
  8  3  1  0
 18 12  1  0
M  CHG  1  11   1
M  END
>  <Compound_ID>  (868) 
C50361932

>  <Active>  (868) 
0.0

>  <Smiles>  (868) 
CC[C@@H]1COCCN1[C@@H](C[NH3+])c1cc(Br)c(Br)o1

>  <canonical_smi>  (868) 
CC[C@@H]1COCCN1[C@@H](C[NH3+])c1cc(Br)c(Br)o1

>  <Set>  (868) 
G2 inactive

>  <Set_type>  (868) 
Train

>  <MW>  (868) 
383.1

>  <HBD>  (868) 
1

>  <HBA>  (868) 
3

>  <NRB>  (868) 
4

>  <NR>  (868) 
2

>  <NAR>  (868) 
1

>  <PSA>  (868) 
53.25

>  <Standard Type>  (868) 
nan

>  <Standard Relation>  (868) 
nan

>  <Standard Units>  (868) 
nan

>  <Standard Value>  (868) 
nan

>  <Assay ChEMBL ID>  (868) 
nan

>  <Assay Description>  (868) 
nan

>  <BAO Label>  (868) 
nan

$$$$

     RDKit          2D

 34 38  0  0  0  0  0  0  0  0999 V2000
    2.7135   -1.7164    0.0000 C   0  0  0  0  0  0  0  0  0  0  0  0
    1.5000   -2.5981    0.0000 C   0  0  0  0  0  0  0  0  0  0  0  0
    0.7500   -1.2990    0.0000 C   0  0  0  0  0  0  0  0  0  0  0  0
    1.5000    0.0000    0.0000 C   0  0  0  0  0  0  0  0  0  0  0  0
    0.7500    1.2990    0.0000 C   0  0  0  0  0  0  0  0  0  0  0  0
   -0.7500    1.2990    0.0000 N   0  0  0  0  0  4  0  0  0  0  0  0
   -1.5000    2.5981    0.0000 C   0  0  0  0  0  0  0  0  0  0  0  0
   -0.7500    3.8971    0.0000 C   0  0  0  0  0  0  0  0  0  0  0  0
    0.7418    4.0539    0.0000 C   0  0  0  0  0  0  0  0  0  0  0  0
    1.0537    5.5211    0.0000 C   0  0  0  0  0  0  0  0  0  0  0  0
   -0.2454    6.2711    0.0000 C   0  0  0  0  0  0  0  0  0  0  0  0
   -1.3601    5.2674    0.0000 N   0  0  0  0  0  0  0  0  0  0  0  0
   -2.8273    5.5793    0.0000 C   0  0  0  0  0  0  0  0  0  0  0  0
   -3.8310    4.4646    0.0000 C   0  0  0  0  0  0  0  0  0  0  0  0
   -5.2982    4.7765    0.0000 C   0  0  0  0  0  0  0  0  0  0  0  0
   -5.7618    6.2030    0.0000 C   0  0  0  0  0  0  0  0  0  0  0  0
   -4.7581    7.3178    0.0000 C   0  0  0  0  0  0  0  0  0  0  0  0
   -3.2909    7.0059    0.0000 N   0  0  0  0  0  0  0  0  0  0  0  0
   -1.5000    0.0000    0.0000 C   0  0  0  0  0  0  0  0  0  0  0  0
   -0.7500   -1.2990    0.0000 C   0  0  0  0  0  0  0  0  0  0  0  0
    2.5037   -3.7128    0.0000 N   0  0  0  0  0  0  0  0  0  0  0  0
    1.7537   -5.0118    0.0000 C   0  0  0  0  0  0  0  0  0  0  0  0
    2.3638   -6.3821    0.0000 O   0  0  0  0  0  0  0  0  0  0  0  0
    0.2865   -4.7000    0.0000 N   0  0  0  0  0  0  0  0  0  0  0  0
   -0.8282   -5.7037    0.0000 C   0  0  0  0  0  0  0  0  0  0  0  0
   -2.2548   -5.2401    0.0000 C   0  0  0  0  0  0  0  0  0  0  0  0
   -2.5667   -3.7729    0.0000 C   0  0  0  0  0  0  0  0  0  0  0  0
   -3.9933   -3.3094    0.0000 C   0  0  0  0  0  0  0  0  0  0  0  0
   -5.1080   -4.3131    0.0000 C   0  0  0  0  0  0  0  0  0  0  0  0
   -6.5346   -3.8496    0.0000 F   0  0  0  0  0  0  0  0  0  0  0  0
   -4.7961   -5.7803    0.0000 C   0  0  0  0  0  0  0  0  0  0  0  0
   -3.3695   -6.2438    0.0000 C   0  0  0  0  0  0  0  0  0  0  0  0
    0.1297   -3.2082    0.0000 C   0  0  0  0  0  0  0  0  0  0  0  0
   -1.1694   -2.4582    0.0000 O   0  0  0  0  0  0  0  0  0  0  0  0
  2  1  1  1
  2  3  1  0
  3  4  1  0
  4  5  1  0
  5  6  1  0
  6  7  1  0
  7  8  1  0
  8  9  2  0
  9 10  1  0
 10 11  2  0
 11 12  1  0
 12 13  1  0
 13 14  2  0
 14 15  1  0
 15 16  2  0
 16 17  1  0
 17 18  2  0
  6 19  1  0
 19 20  1  0
  2 21  1  0
 21 22  1  0
 22 23  2  0
 22 24  1  0
 24 25  1  0
 25 26  1  0
 26 27  2  0
 27 28  1  0
 28 29  2  0
 29 30  1  0
 29 31  1  0
 31 32  2  0
 24 33  1  0
 33 34  2  0
 33  2  1  0
 20  3  1  0
 32 26  1  0
 12  8  1  0
 18 13  1  0
M  CHG  1   6   1
M  END
>  <Compound_ID>  (869) 
C12217807

>  <Active>  (869) 
0.0

>  <Smiles>  (869) 
C[C@@]1(C2CC[NH+](Cc3cccn3-c3ccccn3)CC2)NC(=O)N(Cc2ccc(F)cc2)C1=O

>  <canonical_smi>  (869) 
C[C@@]1(C2CC[NH+](Cc3cccn3-c3ccccn3)CC2)NC(=O)N(Cc2ccc(F)cc2)C1=O

>  <Set>  (869) 
G2 inactive

>  <Set_type>  (869) 
Train

>  <MW>  (869) 
462.55

>  <HBD>  (869) 
2

>  <HBA>  (869) 
3

>  <NRB>  (869) 
6

>  <NR>  (869) 
5

>  <NAR>  (869) 
3

>  <PSA>  (869) 
71.67

>  <Standard Type>  (869) 
nan

>  <Standard Relation>  (869) 
nan

>  <Standard Units>  (869) 
nan

>  <Standard Value>  (869) 
nan

>  <Assay ChEMBL ID>  (869) 
nan

>  <Assay Description>  (869) 
nan

>  <BAO Label>  (869) 
nan

$$$$

     RDKit          2D

 30 33  0  0  0  0  0  0  0  0999 V2000
    6.0000    0.0000    0.0000 C   0  0  0  0  0  0  0  0  0  0  0  0
    5.2500   -1.2990    0.0000 C   0  0  0  0  0  0  0  0  0  0  0  0
    6.0000   -2.5981    0.0000 C   0  0  0  0  0  0  0  0  0  0  0  0
    3.7500   -1.2990    0.0000 C   0  0  0  0  0  0  0  0  0  0  0  0
    3.0000    0.0000    0.0000 O   0  0  0  0  0  0  0  0  0  0  0  0
    1.5000    0.0000    0.0000 C   0  0  0  0  0  0  0  0  0  0  0  0
    0.7500   -1.2990    0.0000 C   0  0  0  0  0  0  0  0  0  0  0  0
   -0.7500   -1.2990    0.0000 C   0  0  0  0  0  0  0  0  0  0  0  0
   -1.5000   -2.5981    0.0000 O   0  0  0  0  0  0  0  0  0  0  0  0
   -3.0000   -2.5981    0.0000 C   0  0  0  0  0  0  0  0  0  0  0  0
   -3.7500   -3.8971    0.0000 O   0  0  0  0  0  0  0  0  0  0  0  0
   -3.7500   -1.2990    0.0000 C   0  0  0  0  0  0  0  0  0  0  0  0
   -5.2500   -1.2990    0.0000 C   0  0  0  0  0  0  0  0  0  0  0  0
   -6.0000   -2.5981    0.0000 C   0  0  0  0  0  0  0  0  0  0  0  0
   -5.2500   -3.8971    0.0000 O   0  0  0  0  0  0  0  0  0  0  0  0
   -7.5000   -2.5981    0.0000 N   0  0  0  0  0  0  0  0  0  0  0  0
   -8.2500   -1.2990    0.0000 C   0  0  0  0  0  0  0  0  0  0  0  0
   -9.7500   -1.2990    0.0000 C   0  0  0  0  0  0  0  0  0  0  0  0
  -10.5000   -2.5981    0.0000 C   0  0  0  0  0  0  0  0  0  0  0  0
  -11.9672   -2.9099    0.0000 N   0  0  0  0  0  4  0  0  0  0  0  0
  -12.1240   -4.4017    0.0000 C   0  0  0  0  0  0  0  0  0  0  0  0
  -10.7537   -5.0118    0.0000 N   0  0  0  0  0  0  0  0  0  0  0  0
   -9.7500   -3.8971    0.0000 C   0  0  0  0  0  0  0  0  0  0  0  0
   -8.2500   -3.8971    0.0000 C   0  0  0  0  0  0  0  0  0  0  0  0
   -3.0000    0.0000    0.0000 C   0  0  0  0  0  0  0  0  0  0  0  0
   -3.7500    1.2990    0.0000 C   0  0  0  0  0  0  0  0  0  0  0  0
   -1.5000    0.0000    0.0000 C   0  0  0  0  0  0  0  0  0  0  0  0
   -0.7500    1.2990    0.0000 C   0  0  0  0  0  0  0  0  0  0  0  0
    0.7500    1.2990    0.0000 C   0  0  0  0  0  0  0  0  0  0  0  0
    1.5000    2.5981    0.0000 Cl  0  0  0  0  0  0  0  0  0  0  0  0
  1  2  2  0
  2  3  1  0
  2  4  1  0
  4  5  1  0
  5  6  1  0
  6  7  2  0
  7  8  1  0
  8  9  1  0
  9 10  1  0
 10 11  2  0
 10 12  1  0
 12 13  1  0
 13 14  1  0
 14 15  2  0
 14 16  1  0
 16 17  1  0
 17 18  1  0
 18 19  1  0
 19 20  1  0
 20 21  2  0
 21 22  1  0
 22 23  1  0
 23 24  1  0
 12 25  2  0
 25 26  1  0
 25 27  1  0
 27 28  1  0
 28 29  2  0
 29 30  1  0
 29  6  1  0
 27  8  2  0
 24 16  1  0
 23 19  2  0
M  CHG  1  20   1
M  END
>  <Compound_ID>  (870) 
C13550346

>  <Active>  (870) 
0.0

>  <Smiles>  (870) 
C=C(C)COc1cc2oc(=O)c(CC(=O)N3CCc4[nH+]c[nH]c4C3)c(C)c2cc1Cl

>  <canonical_smi>  (870) 
C=C(C)COc1cc2oc(=O)c(CC(=O)N3CCc4[nH+]c[nH]c4C3)c(C)c2cc1Cl

>  <Set>  (870) 
G2 inactive

>  <Set_type>  (870) 
Train

>  <MW>  (870) 
428.9

>  <HBD>  (870) 
1

>  <HBA>  (870) 
4

>  <NRB>  (870) 
5

>  <NR>  (870) 
4

>  <NAR>  (870) 
3

>  <PSA>  (870) 
89.68

>  <Standard Type>  (870) 
nan

>  <Standard Relation>  (870) 
nan

>  <Standard Units>  (870) 
nan

>  <Standard Value>  (870) 
nan

>  <Assay ChEMBL ID>  (870) 
nan

>  <Assay Description>  (870) 
nan

>  <BAO Label>  (870) 
nan

$$$$

     RDKit          2D

 31 35  0  0  0  0  0  0  0  0999 V2000
    1.8478   -6.4639    0.0000 S   0  0  0  0  0  0  0  0  0  0  0  0
    2.0046   -4.9721    0.0000 C   0  0  0  0  0  0  0  0  0  0  0  0
    3.3037   -4.2221    0.0000 N   0  0  0  0  0  0  0  0  0  0  0  0
    2.9918   -2.7549    0.0000 N   0  0  0  0  0  4  0  0  0  0  0  0
    1.5000   -2.5981    0.0000 C   0  0  0  0  0  0  0  0  0  0  0  0
    0.7500   -1.2990    0.0000 C   0  0  0  0  0  0  0  0  0  0  0  0
    1.5000    0.0000    0.0000 C   0  0  0  0  0  0  0  0  0  0  0  0
    0.7500    1.2990    0.0000 C   0  0  0  0  0  0  0  0  0  0  0  0
   -0.7500    1.2990    0.0000 N   0  0  0  0  0  0  0  0  0  0  0  0
   -1.5000    0.0000    0.0000 C   0  0  0  0  0  0  0  0  0  0  0  0
   -0.7500   -1.2990    0.0000 C   0  0  0  0  0  0  0  0  0  0  0  0
    0.8899   -3.9684    0.0000 N   0  0  0  0  0  0  0  0  0  0  0  0
   -0.5773   -4.2803    0.0000 N   0  0  0  0  0  0  0  0  0  0  0  0
   -1.0409   -5.7068    0.0000 C   0  0  0  0  0  0  0  0  0  0  0  0
   -2.5081   -6.0187    0.0000 C   0  0  0  0  0  0  0  0  0  0  0  0
   -3.1182   -7.3890    0.0000 C   0  0  0  0  0  0  0  0  0  0  0  0
   -4.6100   -7.2322    0.0000 N   0  0  0  0  0  0  0  0  0  0  0  0
   -5.6137   -8.3470    0.0000 C   0  0  0  0  0  0  0  0  0  0  0  0
   -7.0809   -8.0351    0.0000 C   0  0  0  0  0  0  0  0  0  0  0  0
   -8.0846   -9.1498    0.0000 C   0  0  0  0  0  0  0  0  0  0  0  0
   -7.6210  -10.5764    0.0000 C   0  0  0  0  0  0  0  0  0  0  0  0
   -6.1538  -10.8883    0.0000 C   0  0  0  0  0  0  0  0  0  0  0  0
   -5.1501   -9.7735    0.0000 C   0  0  0  0  0  0  0  0  0  0  0  0
   -4.9218   -5.7650    0.0000 N   0  0  0  0  0  0  0  0  0  0  0  0
   -3.6228   -5.0150    0.0000 C   0  0  0  0  0  0  0  0  0  0  0  0
   -3.4660   -3.5232    0.0000 C   0  0  0  0  0  0  0  0  0  0  0  0
   -2.0957   -2.9131    0.0000 C   0  0  0  0  0  0  0  0  0  0  0  0
   -1.9389   -1.4213    0.0000 C   0  0  0  0  0  0  0  0  0  0  0  0
   -3.1524   -0.5397    0.0000 C   0  0  0  0  0  0  0  0  0  0  0  0
   -4.5227   -1.1498    0.0000 C   0  0  0  0  0  0  0  0  0  0  0  0
   -4.6795   -2.6416    0.0000 C   0  0  0  0  0  0  0  0  0  0  0  0
  1  2  2  0
  2  3  1  0
  3  4  2  0
  4  5  1  0
  5  6  1  6
  6  7  2  0
  7  8  1  0
  8  9  2  0
  9 10  1  0
 10 11  2  0
  5 12  1  0
 12 13  1  0
 13 14  2  0
 14 15  1  0
 15 16  2  0
 16 17  1  0
 17 18  1  0
 18 19  2  0
 19 20  1  0
 20 21  2  0
 21 22  1  0
 22 23  2  0
 17 24  1  0
 24 25  1  0
 25 26  1  6
 26 27  2  0
 27 28  1  0
 28 29  2  0
 29 30  1  0
 30 31  2  0
 12  2  1  0
 25 15  1  0
 31 26  1  0
 11  6  1  0
 23 18  1  0
M  CHG  1   4   1
M  END
>  <Compound_ID>  (871) 
C39336686

>  <Active>  (871) 
0.0

>  <Smiles>  (871) 
S=C1N=[NH+][C@@H](c2ccncc2)N1/N=C/C1=CN(c2ccccc2)N[C@@H]1c1ccccc1

>  <canonical_smi>  (871) 
S=C1N=[NH+][C@@H](c2ccncc2)N1/N=C/C1=CN(c2ccccc2)N[C@@H]1c1ccccc1

>  <Set>  (871) 
G2 inactive

>  <Set_type>  (871) 
Train

>  <MW>  (871) 
426.53

>  <HBD>  (871) 
2

>  <HBA>  (871) 
5

>  <NRB>  (871) 
5

>  <NR>  (871) 
5

>  <NAR>  (871) 
3

>  <PSA>  (871) 
70.09

>  <Standard Type>  (871) 
nan

>  <Standard Relation>  (871) 
nan

>  <Standard Units>  (871) 
nan

>  <Standard Value>  (871) 
nan

>  <Assay ChEMBL ID>  (871) 
nan

>  <Assay Description>  (871) 
nan

>  <BAO Label>  (871) 
nan

$$$$

     RDKit          2D

 31 34  0  0  0  0  0  0  0  0999 V2000
    6.4125    4.5348    0.0000 C   0  0  0  0  0  0  0  0  0  0  0  0
    4.9859    4.0713    0.0000 C   0  0  0  0  0  0  0  0  0  0  0  0
    3.8712    5.0750    0.0000 C   0  0  0  0  0  0  0  0  0  0  0  0
    2.4446    4.6115    0.0000 C   0  0  0  0  0  0  0  0  0  0  0  0
    1.3299    5.6152    0.0000 C   0  0  0  0  0  0  0  0  0  0  0  0
    2.1328    3.1443    0.0000 C   0  0  0  0  0  0  0  0  0  0  0  0
    0.7062    2.6807    0.0000 C   0  0  0  0  0  0  0  0  0  0  0  0
   -0.4086    3.6844    0.0000 N   0  0  0  0  0  0  0  0  0  0  0  0
   -1.8351    3.2209    0.0000 C   0  0  0  0  0  0  0  0  0  0  0  0
   -2.9499    4.2246    0.0000 O   0  0  0  0  0  0  0  0  0  0  0  0
   -2.1470    1.7537    0.0000 N   0  0  0  0  0  0  0  0  0  0  0  0
   -3.5736    1.2902    0.0000 C   0  0  0  0  0  0  0  0  0  0  0  0
   -1.0323    0.7500    0.0000 C   0  0  0  0  0  0  0  0  0  0  0  0
    0.3943    1.2135    0.0000 C   0  0  0  0  0  0  0  0  0  0  0  0
    1.2760    0.0000    0.0000 C   0  0  0  0  0  0  0  0  0  0  0  0
    2.7760    0.0000    0.0000 O   0  0  0  0  0  0  0  0  0  0  0  0
    0.3943   -1.2135    0.0000 N   0  0  0  0  0  0  0  0  0  0  0  0
    0.8578   -2.6401    0.0000 C   0  0  0  0  0  0  0  0  0  0  0  0
   -0.1459   -3.7548    0.0000 C   0  0  0  0  0  0  0  0  0  0  0  0
    0.3177   -5.1814    0.0000 C   0  0  0  0  0  0  0  0  0  0  0  0
   -0.6860   -6.2961    0.0000 N   0  0  0  0  0  4  0  0  0  0  0  0
   -2.1533   -5.9843    0.0000 C   0  0  0  0  0  0  0  0  0  0  0  0
   -3.1570   -7.0990    0.0000 C   0  0  0  0  0  0  0  0  0  0  0  0
   -2.6934   -8.5256    0.0000 C   0  0  0  0  0  0  0  0  0  0  0  0
   -1.2262   -8.8374    0.0000 C   0  0  0  0  0  0  0  0  0  0  0  0
   -0.2225   -7.7227    0.0000 C   0  0  0  0  0  0  0  0  0  0  0  0
    1.2447   -8.0346    0.0000 C   0  0  0  0  0  0  0  0  0  0  0  0
   -1.0323   -0.7500    0.0000 C   0  0  0  0  0  0  0  0  0  0  0  0
    3.2475    2.1406    0.0000 C   0  0  0  0  0  0  0  0  0  0  0  0
    4.6741    2.6041    0.0000 C   0  0  0  0  0  0  0  0  0  0  0  0
    5.7888    1.6004    0.0000 C   0  0  0  0  0  0  0  0  0  0  0  0
  1  2  1  0
  2  3  2  0
  3  4  1  0
  4  5  1  0
  4  6  2  0
  7  6  1  1
  7  8  1  0
  8  9  1  0
  9 10  2  0
  9 11  1  0
 11 12  1  0
 11 13  1  0
 13 14  2  0
 14 15  1  0
 15 16  2  0
 15 17  1  0
 17 18  1  0
 18 19  1  0
 19 20  1  0
 20 21  1  0
 21 22  1  0
 22 23  1  0
 23 24  1  0
 24 25  1  0
 25 26  1  0
 26 27  1  1
 17 28  1  0
  6 29  1  0
 29 30  2  0
 30 31  1  0
 30  2  1  0
 14  7  1  0
 26 21  1  0
 28 13  1  0
M  CHG  1  21   1
M  END
>  <Compound_ID>  (872) 
C04569227

>  <Active>  (872) 
0.0

>  <Smiles>  (872) 
Cc1cc(C)c([C@@H]2NC(=O)N(C)C3=C2C(=O)N(CCC[NH+]2CCCC[C@@H]2C)C3)cc1C

>  <canonical_smi>  (872) 
Cc1cc(C)c([C@@H]2NC(=O)N(C)C3=C2C(=O)N(CCC[NH+]2CCCC[C@@H]2C)C3)cc1C

>  <Set>  (872) 
G2 inactive

>  <Set_type>  (872) 
Train

>  <MW>  (872) 
425.6

>  <HBD>  (872) 
2

>  <HBA>  (872) 
2

>  <NRB>  (872) 
5

>  <NR>  (872) 
4

>  <NAR>  (872) 
1

>  <PSA>  (872) 
57.09

>  <Standard Type>  (872) 
nan

>  <Standard Relation>  (872) 
nan

>  <Standard Units>  (872) 
nan

>  <Standard Value>  (872) 
nan

>  <Assay ChEMBL ID>  (872) 
nan

>  <Assay Description>  (872) 
nan

>  <BAO Label>  (872) 
nan

$$$$

     RDKit          2D

 29 32  0  0  0  0  0  0  0  0999 V2000
    2.6401   -3.1891    0.0000 C   0  0  0  0  0  0  0  0  0  0  0  0
    1.2135   -2.7256    0.0000 C   0  0  0  0  0  0  0  0  0  0  0  0
    0.7500   -1.2990    0.0000 C   0  0  0  0  0  0  0  0  0  0  0  0
    1.5000    0.0000    0.0000 C   0  0  0  0  0  0  0  0  0  0  0  0
    0.7500    1.2990    0.0000 C   0  0  0  0  0  0  0  0  0  0  0  0
    1.5000    2.5981    0.0000 C   0  0  0  0  0  0  0  0  0  0  0  0
   -0.7500    1.2990    0.0000 C   0  0  0  0  0  0  0  0  0  0  0  0
   -1.5000    0.0000    0.0000 C   0  0  0  0  0  0  0  0  0  0  0  0
   -0.7500   -1.2990    0.0000 C   0  0  0  0  0  0  0  0  0  0  0  0
   -1.2135   -2.7256    0.0000 N   0  0  0  0  0  4  0  0  0  0  0  0
   -0.0000   -3.6073    0.0000 C   0  0  0  0  0  0  0  0  0  0  0  0
   -0.0000   -5.1073    0.0000 C   0  0  0  0  0  0  0  0  0  0  0  0
    1.2135   -5.9890    0.0000 N   0  0  0  0  0  0  0  0  0  0  0  0
    0.7500   -7.4156    0.0000 C   0  0  0  0  0  0  0  0  0  0  0  0
    1.6317   -8.6291    0.0000 C   0  0  0  0  0  0  0  0  0  0  0  0
    1.0216   -9.9994    0.0000 C   0  0  0  0  0  0  0  0  0  0  0  0
    1.9033  -11.2129    0.0000 N   0  0  0  0  0  0  0  0  0  0  0  0
    1.2931  -12.5833    0.0000 C   0  0  0  0  0  0  0  0  0  0  0  0
    3.3950  -11.0561    0.0000 C   0  0  0  0  0  0  0  0  0  0  0  0
    4.0051   -9.6858    0.0000 O   0  0  0  0  0  0  0  0  0  0  0  0
    4.2767  -12.2697    0.0000 C   0  0  0  0  0  0  0  0  0  0  0  0
    5.7685  -12.1129    0.0000 C   0  0  0  0  0  0  0  0  0  0  0  0
    6.6502  -13.3264    0.0000 C   0  0  0  0  0  0  0  0  0  0  0  0
    8.1420  -13.1696    0.0000 C   0  0  0  0  0  0  0  0  0  0  0  0
    8.7521  -11.7993    0.0000 C   0  0  0  0  0  0  0  0  0  0  0  0
    7.8704  -10.5858    0.0000 C   0  0  0  0  0  0  0  0  0  0  0  0
    6.3786  -10.7426    0.0000 C   0  0  0  0  0  0  0  0  0  0  0  0
   -0.7500   -7.4156    0.0000 N   0  0  0  0  0  0  0  0  0  0  0  0
   -1.2135   -5.9890    0.0000 O   0  0  0  0  0  0  0  0  0  0  0  0
  1  2  1  0
  2  3  2  0
  3  4  1  0
  4  5  2  0
  5  6  1  0
  5  7  1  0
  7  8  2  0
  8  9  1  0
  9 10  2  0
 11 10  1  6
 11 12  1  0
 12 13  1  1
 13 14  1  0
 14 15  1  0
 15 16  1  0
 16 17  1  0
 17 18  1  0
 17 19  1  0
 19 20  2  0
 19 21  1  0
 21 22  1  0
 22 23  1  0
 23 24  1  0
 24 25  1  0
 25 26  1  0
 26 27  1  0
 14 28  2  0
 28 29  1  0
 11  2  1  0
 29 12  1  0
  9  3  1  0
 27 22  1  0
M  CHG  1  10   1
M  END
>  <Compound_ID>  (873) 
C65182684

>  <Active>  (873) 
0.0

>  <Smiles>  (873) 
CC1=c2cc(C)ccc2=[NH+][C@H]1[C@H]1NC(CCN(C)C(=O)CC2CCCCC2)=NO1

>  <canonical_smi>  (873) 
CC1=c2cc(C)ccc2=[NH+][C@H]1[C@H]1NC(CCN(C)C(=O)CC2CCCCC2)=NO1

>  <Set>  (873) 
G2 inactive

>  <Set_type>  (873) 
Train

>  <MW>  (873) 
397.54

>  <HBD>  (873) 
2

>  <HBA>  (873) 
3

>  <NRB>  (873) 
6

>  <NR>  (873) 
4

>  <NAR>  (873) 
1

>  <PSA>  (873) 
67.9

>  <Standard Type>  (873) 
nan

>  <Standard Relation>  (873) 
nan

>  <Standard Units>  (873) 
nan

>  <Standard Value>  (873) 
nan

>  <Assay ChEMBL ID>  (873) 
nan

>  <Assay Description>  (873) 
nan

>  <BAO Label>  (873) 
nan

$$$$

     RDKit          2D

 38 42  0  0  0  0  0  0  0  0999 V2000
    4.7581   -7.3178    0.0000 C   0  0  0  0  0  0  0  0  0  0  0  0
    4.2945   -5.8912    0.0000 C   0  0  0  0  0  0  0  0  0  0  0  0
    2.8273   -5.5793    0.0000 C   0  0  0  0  0  0  0  0  0  0  0  0
    2.5155   -7.0465    0.0000 C   0  0  0  0  0  0  0  0  0  0  0  0
    3.3600   -4.4873    0.0000 C   0  0  0  0  0  0  0  0  0  0  0  0
    1.3601   -5.2674    0.0000 N   0  0  0  0  0  0  0  0  0  0  0  0
    0.2454   -6.2711    0.0000 N   0  0  0  0  0  0  0  0  0  0  0  0
   -1.0537   -5.5211    0.0000 N   0  0  0  0  0  0  0  0  0  0  0  0
   -0.7418   -4.0539    0.0000 N   0  0  0  0  0  0  0  0  0  0  0  0
    0.7500   -3.8971    0.0000 C   0  0  0  0  0  0  0  0  0  0  0  0
    1.5000   -2.5981    0.0000 C   0  0  0  0  0  0  0  0  0  0  0  0
    0.7500   -1.2990    0.0000 C   0  0  0  0  0  0  0  0  0  0  0  0
   -0.7500   -1.2990    0.0000 C   0  0  0  0  0  0  0  0  0  0  0  0
   -1.5000   -0.0000    0.0000 C   0  0  0  0  0  0  0  0  0  0  0  0
   -3.0000   -0.0000    0.0000 C   0  0  0  0  0  0  0  0  0  0  0  0
   -3.7500   -1.2990    0.0000 C   0  0  0  0  0  0  0  0  0  0  0  0
   -3.7500    1.2990    0.0000 C   0  0  0  0  0  0  0  0  0  0  0  0
   -3.0000    2.5981    0.0000 C   0  0  0  0  0  0  0  0  0  0  0  0
   -3.7500    3.8971    0.0000 C   0  0  0  0  0  0  0  0  0  0  0  0
   -1.5000    2.5981    0.0000 C   0  0  0  0  0  0  0  0  0  0  0  0
   -0.7500    1.2990    0.0000 C   0  0  0  0  0  0  0  0  0  0  0  0
    0.7500    1.2990    0.0000 N   0  0  0  0  0  0  0  0  0  0  0  0
    1.5000   -0.0000    0.0000 C   0  0  0  0  0  0  0  0  0  0  0  0
    3.0000   -0.0000    0.0000 O   0  0  0  0  0  0  0  0  0  0  0  0
    3.0000   -2.5981    0.0000 N   0  0  0  0  0  4  0  0  0  0  0  0
    3.7500   -1.2990    0.0000 C   0  0  0  0  0  0  0  0  0  0  0  0
    5.2500   -1.2990    0.0000 C   0  0  0  0  0  0  0  0  0  0  0  0
    6.0000    0.0000    0.0000 C   0  0  0  0  0  0  0  0  0  0  0  0
    7.5000    0.0000    0.0000 C   0  0  0  0  0  0  0  0  0  0  0  0
    8.2500   -1.2990    0.0000 C   0  0  0  0  0  0  0  0  0  0  0  0
    7.5000   -2.5981    0.0000 C   0  0  0  0  0  0  0  0  0  0  0  0
    6.0000   -2.5981    0.0000 C   0  0  0  0  0  0  0  0  0  0  0  0
    3.7500   -3.8971    0.0000 C   0  0  0  0  0  0  0  0  0  0  0  0
    5.2500   -3.8971    0.0000 C   0  0  0  0  0  0  0  0  0  0  0  0
    6.1317   -5.1106    0.0000 C   0  0  0  0  0  0  0  0  0  0  0  0
    7.5583   -4.6471    0.0000 C   0  0  0  0  0  0  0  0  0  0  0  0
    7.5583   -3.1471    0.0000 C   0  0  0  0  0  0  0  0  0  0  0  0
    6.1317   -2.6836    0.0000 S   0  0  0  0  0  0  0  0  0  0  0  0
  1  2  1  0
  2  3  1  0
  3  4  1  0
  3  5  1  0
  3  6  1  0
  6  7  1  0
  7  8  2  0
  8  9  1  0
  9 10  2  0
 10 11  1  0
 11 12  1  0
 12 13  2  0
 13 14  1  0
 14 15  2  0
 15 16  1  0
 15 17  1  0
 17 18  2  0
 18 19  1  0
 18 20  1  0
 20 21  2  0
 21 22  1  0
 22 23  1  0
 23 24  2  0
 11 25  1  1
 25 26  1  0
 26 27  1  0
 27 28  2  0
 28 29  1  0
 29 30  2  0
 30 31  1  0
 31 32  2  0
 25 33  1  0
 33 34  1  0
 34 35  2  0
 35 36  1  0
 36 37  2  0
 37 38  1  0
 10  6  1  0
 23 12  1  0
 32 27  1  0
 38 34  1  0
 21 14  1  0
M  CHG  1  25   1
M  END
>  <Compound_ID>  (874) 
C06149032

>  <Active>  (874) 
0.0

>  <Smiles>  (874) 
CCC(C)(C)n1nnnc1[C@@H](c1cc2c(C)cc(C)cc2[nH]c1=O)[NH+](Cc1ccccc1)Cc1cccs1

>  <canonical_smi>  (874) 
CCC(C)(C)n1nnnc1[C@@H](c1cc2c(C)cc(C)cc2[nH]c1=O)[NH+](Cc1ccccc1)Cc1cccs1

>  <Set>  (874) 
G2 inactive

>  <Set_type>  (874) 
Train

>  <MW>  (874) 
527.72

>  <HBD>  (874) 
2

>  <HBA>  (874) 
4

>  <NRB>  (874) 
9

>  <NR>  (874) 
5

>  <NAR>  (874) 
5

>  <PSA>  (874) 
80.9

>  <Standard Type>  (874) 
nan

>  <Standard Relation>  (874) 
nan

>  <Standard Units>  (874) 
nan

>  <Standard Value>  (874) 
nan

>  <Assay ChEMBL ID>  (874) 
nan

>  <Assay Description>  (874) 
nan

>  <BAO Label>  (874) 
nan

$$$$

     RDKit          2D

 40 45  0  0  0  0  0  0  0  0999 V2000
   -4.2892   -5.3245    0.0000 C   0  0  0  0  0  0  0  0  0  0  0  0
   -5.1709   -4.1110    0.0000 O   0  0  0  0  0  0  0  0  0  0  0  0
   -4.5608   -2.7406    0.0000 C   0  0  0  0  0  0  0  0  0  0  0  0
   -3.0690   -2.5838    0.0000 C   0  0  0  0  0  0  0  0  0  0  0  0
   -2.4589   -1.2135    0.0000 C   0  0  0  0  0  0  0  0  0  0  0  0
   -3.3405   -0.0000    0.0000 C   0  0  0  0  0  0  0  0  0  0  0  0
   -4.8323   -0.1568    0.0000 C   0  0  0  0  0  0  0  0  0  0  0  0
   -5.4424   -1.5271    0.0000 C   0  0  0  0  0  0  0  0  0  0  0  0
   -6.9342   -1.6839    0.0000 C   0  0  0  0  0  0  0  0  0  0  0  0
   -7.8159   -0.4704    0.0000 C   0  0  0  0  0  0  0  0  0  0  0  0
   -9.3077   -0.6272    0.0000 O   0  0  0  0  0  0  0  0  0  0  0  0
  -10.1894    0.5864    0.0000 C   0  0  0  0  0  0  0  0  0  0  0  0
  -11.6811    0.4296    0.0000 C   0  0  0  0  0  0  0  0  0  0  0  0
  -12.5628    1.6431    0.0000 C   0  0  0  0  0  0  0  0  0  0  0  0
  -14.0546    1.4863    0.0000 C   0  0  0  0  0  0  0  0  0  0  0  0
  -14.9363    2.6998    0.0000 C   0  0  0  0  0  0  0  0  0  0  0  0
  -16.4281    2.5430    0.0000 C   0  0  0  0  0  0  0  0  0  0  0  0
  -17.0382    1.1727    0.0000 C   0  0  0  0  0  0  0  0  0  0  0  0
  -16.1565   -0.0408    0.0000 C   0  0  0  0  0  0  0  0  0  0  0  0
  -16.7666   -1.4111    0.0000 C   0  0  0  0  0  0  0  0  0  0  0  0
  -14.6647    0.1160    0.0000 N   0  0  0  0  0  0  0  0  0  0  0  0
   -2.4589    1.2135    0.0000 C   0  0  0  0  0  0  0  0  0  0  0  0
   -1.0323    0.7500    0.0000 C   0  0  0  0  0  0  0  0  0  0  0  0
    0.3943    1.2135    0.0000 C   0  0  0  0  0  0  0  0  0  0  0  0
    0.8578    2.6401    0.0000 C   0  0  0  0  0  0  0  0  0  0  0  0
    2.3250    2.9520    0.0000 C   0  0  0  0  0  0  0  0  0  0  0  0
    2.7886    4.3786    0.0000 C   0  0  0  0  0  0  0  0  0  0  0  0
    1.7849    5.4933    0.0000 C   0  0  0  0  0  0  0  0  0  0  0  0
    2.2484    6.9199    0.0000 C   0  0  0  0  0  0  0  0  0  0  0  0
    3.7156    7.2317    0.0000 C   0  0  0  0  0  0  0  0  0  0  0  0
    4.1791    8.6583    0.0000 C   0  0  0  0  0  0  0  0  0  0  0  0
    3.1755    9.7730    0.0000 C   0  0  0  0  0  0  0  0  0  0  0  0
    3.6390   11.1996    0.0000 O   0  0  0  0  0  0  0  0  0  0  0  0
    1.7082    9.4612    0.0000 C   0  0  0  0  0  0  0  0  0  0  0  0
    1.2447    8.0346    0.0000 C   0  0  0  0  0  0  0  0  0  0  0  0
    0.3177    5.1814    0.0000 C   0  0  0  0  0  0  0  0  0  0  0  0
   -0.1459    3.7548    0.0000 C   0  0  0  0  0  0  0  0  0  0  0  0
    1.2760    0.0000    0.0000 N   0  0  0  0  0  0  0  0  0  0  0  0
    0.3943   -1.2135    0.0000 N   0  0  0  0  0  4  0  0  0  0  0  0
   -1.0323   -0.7500    0.0000 C   0  0  0  0  0  0  0  0  0  0  0  0
  1  2  1  0
  2  3  1  0
  3  4  2  0
  4  5  1  0
  5  6  2  0
  6  7  1  0
  7  8  2  0
  8  9  1  0
  9 10  1  0
 10 11  1  0
 11 12  1  0
 12 13  1  0
 13 14  1  0
 14 15  1  0
 15 16  2  0
 16 17  1  0
 17 18  2  0
 18 19  1  0
 19 20  1  0
 19 21  2  0
  6 22  1  0
 22 23  1  0
 23 24  2  0
 24 25  1  0
 25 26  2  0
 26 27  1  0
 27 28  2  0
 28 29  1  0
 29 30  2  0
 30 31  1  0
 31 32  2  0
 32 33  1  0
 32 34  1  0
 34 35  2  0
 28 36  1  0
 36 37  2  0
 24 38  1  0
 38 39  2  0
 40 39  1  6
  8  3  1  0
 21 15  1  0
 40 23  1  0
 40  5  1  0
 37 25  1  0
 35 29  1  0
M  CHG  1  39   1
M  END
>  <Compound_ID>  (875) 
C52636936

>  <Active>  (875) 
0.0

>  <Smiles>  (875) 
COc1cc2c(cc1CCOCCCc1cccc(C)n1)CC1=C(c3ccc(-c4ccc(O)cc4)cc3)N=[NH+][C@@H]12

>  <canonical_smi>  (875) 
COc1cc2c(cc1CCOCCCc1cccc(C)n1)CC1=C(c3ccc(-c4ccc(O)cc4)cc3)N=[NH+][C@@H]12

>  <Set>  (875) 
G2 inactive

>  <Set_type>  (875) 
Train

>  <MW>  (875) 
532.66

>  <HBD>  (875) 
2

>  <HBA>  (875) 
4

>  <NRB>  (875) 
10

>  <NR>  (875) 
6

>  <NAR>  (875) 
4

>  <PSA>  (875) 
77.91

>  <Standard Type>  (875) 
nan

>  <Standard Relation>  (875) 
nan

>  <Standard Units>  (875) 
nan

>  <Standard Value>  (875) 
nan

>  <Assay ChEMBL ID>  (875) 
nan

>  <Assay Description>  (875) 
nan

>  <BAO Label>  (875) 
nan

$$$$

     RDKit          2D

 37 42  0  0  0  0  0  0  0  0999 V2000
    5.2500   -6.4952    0.0000 C   0  0  0  0  0  0  0  0  0  0  0  0
    3.7500   -6.4952    0.0000 C   0  0  0  0  0  0  0  0  0  0  0  0
    3.0000   -5.1962    0.0000 O   0  0  0  0  0  0  0  0  0  0  0  0
    1.5000   -5.1962    0.0000 C   0  0  0  0  0  0  0  0  0  0  0  0
    0.7500   -6.4952    0.0000 C   0  0  0  0  0  0  0  0  0  0  0  0
   -0.7500   -6.4952    0.0000 C   0  0  0  0  0  0  0  0  0  0  0  0
   -1.5000   -5.1962    0.0000 C   0  0  0  0  0  0  0  0  0  0  0  0
   -3.0000   -5.1962    0.0000 C   0  0  0  0  0  0  0  0  0  0  0  0
   -3.7500   -6.4952    0.0000 N   0  0  0  0  0  0  0  0  0  0  0  0
   -5.2500   -6.4952    0.0000 N   0  0  0  0  0  0  0  0  0  0  0  0
   -6.0000   -7.7942    0.0000 C   0  0  0  0  0  0  0  0  0  0  0  0
   -5.2500   -9.0933    0.0000 O   0  0  0  0  0  0  0  0  0  0  0  0
   -7.5000   -7.7942    0.0000 C   0  0  0  0  0  0  0  0  0  0  0  0
   -8.3817   -6.5807    0.0000 N   0  0  0  0  0  0  0  0  0  0  0  0
   -9.8083   -7.0442    0.0000 N   0  0  0  0  0  0  0  0  0  0  0  0
   -9.8083   -8.5442    0.0000 C   0  0  0  0  0  0  0  0  0  0  0  0
   -8.3817   -9.0078    0.0000 C   0  0  0  0  0  0  0  0  0  0  0  0
   -8.3817  -10.5078    0.0000 C   0  0  0  0  0  0  0  0  0  0  0  0
   -9.8083  -10.9713    0.0000 C   0  0  0  0  0  0  0  0  0  0  0  0
  -10.6899   -9.7578    0.0000 C   0  0  0  0  0  0  0  0  0  0  0  0
   -0.7500   -3.8971    0.0000 C   0  0  0  0  0  0  0  0  0  0  0  0
    0.7500   -3.8971    0.0000 C   0  0  0  0  0  0  0  0  0  0  0  0
    1.5000   -2.5981    0.0000 C   0  0  0  0  0  0  0  0  0  0  0  0
    0.7500   -1.2990    0.0000 N   0  0  0  0  0  4  0  0  0  0  0  0
    1.5000    0.0000    0.0000 C   0  0  0  0  0  0  0  0  0  0  0  0
    0.7500    1.2990    0.0000 C   0  0  0  0  0  0  0  0  0  0  0  0
   -0.7500    1.2990    0.0000 C   0  0  0  0  0  0  0  0  0  0  0  0
   -1.5000    0.0000    0.0000 C   0  0  0  0  0  0  0  0  0  0  0  0
   -0.7500   -1.2990    0.0000 C   0  0  0  0  0  0  0  0  0  0  0  0
   -2.2500    1.2990    0.0000 C   0  0  0  0  0  0  0  0  0  0  0  0
   -3.7500    1.2990    0.0000 C   0  0  0  0  0  0  0  0  0  0  0  0
   -4.5000    2.5981    0.0000 C   0  0  0  0  0  0  0  0  0  0  0  0
   -3.7500    3.8971    0.0000 C   0  0  0  0  0  0  0  0  0  0  0  0
   -2.2500    3.8971    0.0000 C   0  0  0  0  0  0  0  0  0  0  0  0
   -1.5000    5.1962    0.0000 O   0  0  0  0  0  0  0  0  0  0  0  0
   -1.5000    2.5981    0.0000 N   0  0  0  0  0  0  0  0  0  0  0  0
   -0.0000    2.5981    0.0000 C   0  0  0  0  0  0  0  0  0  0  0  0
  1  2  1  0
  2  3  1  0
  3  4  1  0
  4  5  2  0
  5  6  1  0
  6  7  2  0
  7  8  1  0
  8  9  2  0
  9 10  1  0
 10 11  1  0
 11 12  2  0
 13 11  1  6
 13 14  1  0
 14 15  2  0
 15 16  1  0
 16 17  2  0
 17 18  1  0
 18 19  1  0
 19 20  1  0
  7 21  1  0
 21 22  2  0
 22 23  1  0
 23 24  1  0
 24 25  1  0
 26 25  1  1
 26 27  1  0
 27 28  1  0
 28 29  1  1
 28 30  1  0
 30 31  2  0
 31 32  1  0
 32 33  2  0
 33 34  1  0
 34 35  2  0
 34 36  1  0
 36 37  1  0
 22  4  1  0
 29 24  1  0
 36 30  1  0
 17 13  1  0
 37 26  1  0
 20 16  1  0
M  CHG  1  24   1
M  END
>  <Compound_ID>  (876) 
C63699231

>  <Active>  (876) 
0.0

>  <Smiles>  (876) 
CCOc1ccc(/C=N/NC(=O)[C@H]2N=NC3=C2CCC3)cc1C[NH+]1C[C@H]2C[C@@H](C1)c1cccc(=O)n1C2

>  <canonical_smi>  (876) 
CCOc1ccc(/C=N/NC(=O)[C@H]2N=NC3=C2CCC3)cc1C[NH+]1C[C@@H]2C[C@@H](Cn3c2cccc3=O)C1

>  <Set>  (876) 
G2 inactive

>  <Set_type>  (876) 
Train

>  <MW>  (876) 
501.61

>  <HBD>  (876) 
2

>  <HBA>  (876) 
3

>  <NRB>  (876) 
7

>  <NR>  (876) 
6

>  <NAR>  (876) 
2

>  <PSA>  (876) 
101.85

>  <Standard Type>  (876) 
nan

>  <Standard Relation>  (876) 
nan

>  <Standard Units>  (876) 
nan

>  <Standard Value>  (876) 
nan

>  <Assay ChEMBL ID>  (876) 
nan

>  <Assay Description>  (876) 
nan

>  <BAO Label>  (876) 
nan

$$$$

     RDKit          2D

 41 45  0  0  0  0  0  0  0  0999 V2000
   -2.4200  -11.0835    0.0000 C   0  0  0  0  0  0  0  0  0  0  0  0
   -2.1595   -9.6063    0.0000 C   0  0  0  0  0  0  0  0  0  0  0  0
   -0.7500   -9.0933    0.0000 C   0  0  0  0  0  0  0  0  0  0  0  0
   -0.4895  -10.5705    0.0000 O   0  0  0  0  0  0  0  0  0  0  0  0
    0.7500   -9.0933    0.0000 C   0  0  0  0  0  0  0  0  0  0  0  0
    1.5000   -7.7942    0.0000 C   0  0  0  0  0  0  0  0  0  0  0  0
    3.0000   -7.7942    0.0000 O   0  0  0  0  0  0  0  0  0  0  0  0
    3.7500   -9.0933    0.0000 C   0  0  0  0  0  0  0  0  0  0  0  0
    3.0000  -10.3923    0.0000 C   0  0  0  0  0  0  0  0  0  0  0  0
    3.7500  -11.6913    0.0000 C   0  0  0  0  0  0  0  0  0  0  0  0
    3.0000  -12.9904    0.0000 N   0  0  0  0  0  4  0  0  0  0  0  0
    1.5000  -12.9904    0.0000 C   0  0  0  0  0  0  0  0  0  0  0  0
    3.7500  -14.2894    0.0000 C   0  0  0  0  0  0  0  0  0  0  0  0
    5.2500  -11.6913    0.0000 C   0  0  0  0  0  0  0  0  0  0  0  0
    6.0000  -12.9904    0.0000 O   0  0  0  0  0  0  0  0  0  0  0  0
    6.0000  -10.3923    0.0000 C   0  0  0  0  0  0  0  0  0  0  0  0
    7.5000  -10.3923    0.0000 C   0  0  0  0  0  0  0  0  0  0  0  0
    5.2500   -9.0933    0.0000 O   0  0  0  0  0  0  0  0  0  0  0  0
    0.7500   -6.4952    0.0000 C   0  0  0  0  0  0  0  0  0  0  0  0
   -0.7500   -6.4952    0.0000 C   0  0  0  0  0  0  0  0  0  0  0  0
   -1.5000   -5.1962    0.0000 C   0  0  0  0  0  0  0  0  0  0  0  0
   -0.7500   -3.8971    0.0000 C   0  0  0  0  0  0  0  0  0  0  0  0
    0.7500   -3.8971    0.0000 C   0  0  0  0  0  0  0  0  0  0  0  0
    1.5000   -5.1962    0.0000 C   0  0  0  0  0  0  0  0  0  0  0  0
    3.0000   -5.1962    0.0000 O   0  0  0  0  0  0  0  0  0  0  0  0
    1.5000   -2.5981    0.0000 C   0  0  0  0  0  0  0  0  0  0  0  0
    3.0000   -2.5981    0.0000 O   0  0  0  0  0  0  0  0  0  0  0  0
    0.7500   -1.2990    0.0000 C   0  0  0  0  0  0  0  0  0  0  0  0
    1.5000    0.0000    0.0000 C   0  0  0  0  0  0  0  0  0  0  0  0
    3.0000    0.0000    0.0000 O   0  0  0  0  0  0  0  0  0  0  0  0
    0.7500    1.2990    0.0000 C   0  0  0  0  0  0  0  0  0  0  0  0
   -0.7500    1.2990    0.0000 C   0  0  0  0  0  0  0  0  0  0  0  0
   -1.5000    0.0000    0.0000 C   0  0  0  0  0  0  0  0  0  0  0  0
   -0.7500   -1.2990    0.0000 C   0  0  0  0  0  0  0  0  0  0  0  0
   -1.5000   -2.5981    0.0000 C   0  0  0  0  0  0  0  0  0  0  0  0
   -3.0000   -2.5981    0.0000 O   0  0  0  0  0  0  0  0  0  0  0  0
   -1.5000   -7.7942    0.0000 C   0  0  0  0  0  0  0  0  0  0  0  0
   -3.0000   -7.7942    0.0000 C   0  0  0  0  0  0  0  0  0  0  0  0
   -3.7500   -6.4952    0.0000 O   0  0  0  0  0  0  0  0  0  0  0  0
   -3.7500   -9.0933    0.0000 O   0  0  0  0  0  0  0  0  0  0  0  0
   -5.2500   -9.0933    0.0000 C   0  0  0  0  0  0  0  0  0  0  0  0
  1  2  1  0
  2  3  1  0
  3  4  1  1
  3  5  1  0
  5  6  1  0
  6  7  1  6
  8  7  1  6
  8  9  1  0
  9 10  1  0
 10 11  1  1
 11 12  1  0
 11 13  1  0
 10 14  1  0
 14 15  1  1
 14 16  1  0
 16 17  1  6
 16 18  1  0
  6 19  1  0
 19 20  2  0
 20 21  1  0
 21 22  2  0
 22 23  1  0
 23 24  2  0
 24 25  1  0
 23 26  1  0
 26 27  2  0
 26 28  1  0
 28 29  2  0
 29 30  1  0
 29 31  1  0
 31 32  2  0
 32 33  1  0
 33 34  2  0
 34 35  1  0
 35 36  2  0
 20 37  1  0
 37 38  1  6
 38 39  2  0
 38 40  1  0
 40 41  1  0
 37  3  1  0
 18  8  1  0
 24 19  1  0
 34 28  1  0
 35 22  1  0
M  CHG  1  11   1
M  END
>  <Compound_ID>  (877) 
C03978069

>  <Active>  (877) 
0.0

>  <Smiles>  (877) 
CC[C@@]1(O)C[C@@H](O[C@H]2C[C@H]([NH+](C)C)[C@H](O)[C@@H](C)O2)c2c(cc3c(c2O)C(=O)c2c(O)cccc2C3=O)[C@H]1C(=O)OC

>  <canonical_smi>  (877) 
CC[C@@]1(O)C[C@@H](O[C@H]2C[C@H]([NH+](C)C)[C@H](O)[C@@H](C)O2)c2c(cc3c(c2O)C(=O)c2c(O)cccc2C3=O)[C@H]1C(=O)OC

>  <Set>  (877) 
G2 inactive

>  <Set_type>  (877) 
Train

>  <MW>  (877) 
570.62

>  <HBD>  (877) 
5

>  <HBA>  (877) 
10

>  <NRB>  (877) 
5

>  <NR>  (877) 
5

>  <NAR>  (877) 
3

>  <PSA>  (877) 
164.26

>  <Standard Type>  (877) 
nan

>  <Standard Relation>  (877) 
nan

>  <Standard Units>  (877) 
nan

>  <Standard Value>  (877) 
nan

>  <Assay ChEMBL ID>  (877) 
nan

>  <Assay Description>  (877) 
nan

>  <BAO Label>  (877) 
nan

$$$$

     RDKit          2D

 23 24  0  0  0  0  0  0  0  0999 V2000
   -6.1149    1.8303    0.0000 C   0  0  0  0  0  0  0  0  0  0  0  0
   -4.6883    2.2939    0.0000 C   0  0  0  0  0  0  0  0  0  0  0  0
   -3.5736    1.2902    0.0000 N   0  0  0  0  0  4  0  0  0  0  0  0
   -2.1470    1.7537    0.0000 C   0  0  0  0  0  0  0  0  0  0  0  0
   -1.8351    3.2209    0.0000 C   0  0  0  0  0  0  0  0  0  0  0  0
   -0.4086    3.6844    0.0000 N   0  0  0  0  0  0  0  0  0  0  0  0
   -0.0967    5.1517    0.0000 C   0  0  0  0  0  0  0  0  0  0  0  0
    1.3299    5.6152    0.0000 C   0  0  0  0  0  0  0  0  0  0  0  0
    1.6418    7.0824    0.0000 C   0  0  0  0  0  0  0  0  0  0  0  0
    3.0684    7.5459    0.0000 O   0  0  0  0  0  0  0  0  0  0  0  0
    3.3802    9.0132    0.0000 C   0  0  0  0  0  0  0  0  0  0  0  0
    0.7062    2.6807    0.0000 S   0  0  0  0  0  0  0  0  0  0  0  0
    1.5010    3.9528    0.0000 O   0  0  0  0  0  0  0  0  0  0  0  0
    2.0969    2.1188    0.0000 O   0  0  0  0  0  0  0  0  0  0  0  0
    0.3943    1.2135    0.0000 C   0  0  0  0  0  0  0  0  0  0  0  0
    1.2760    0.0000    0.0000 S   0  0  0  0  0  0  0  0  0  0  0  0
    0.3943   -1.2135    0.0000 C   0  0  0  0  0  0  0  0  0  0  0  0
    0.8578   -2.6401    0.0000 S   0  0  0  0  0  0  0  0  0  0  0  0
    1.3213   -4.0667    0.0000 N   0  0  0  0  0  0  0  0  0  0  0  0
   -0.5688   -3.1036    0.0000 O   0  0  0  0  0  0  0  0  0  0  0  0
    2.2844   -2.1766    0.0000 O   0  0  0  0  0  0  0  0  0  0  0  0
   -1.0323   -0.7500    0.0000 C   0  0  0  0  0  0  0  0  0  0  0  0
   -1.0323    0.7500    0.0000 C   0  0  0  0  0  0  0  0  0  0  0  0
  1  2  1  0
  2  3  1  0
  4  3  1  1
  4  5  1  0
  5  6  1  0
  6  7  1  0
  7  8  1  0
  8  9  1  0
  9 10  1  0
 10 11  1  0
  6 12  1  0
 12 13  2  0
 12 14  2  0
 12 15  1  0
 15 16  1  0
 16 17  1  0
 17 18  1  0
 18 19  1  0
 18 20  2  0
 18 21  2  0
 17 22  2  0
 22 23  1  0
 23  4  1  0
 23 15  2  0
M  CHG  1   3   1
M  END
>  <Compound_ID>  (878) 
C03953037

>  <Active>  (878) 
0.0

>  <Smiles>  (878) 
CC[NH2+][C@H]1CN(CCCOC)S(=O)(=O)c2sc(S(N)(=O)=O)cc21

>  <canonical_smi>  (878) 
CC[NH2+][C@H]1CN(CCCOC)S(=O)(=O)c2sc(S(N)(=O)=O)cc21

>  <Set>  (878) 
G2 inactive

>  <Set_type>  (878) 
Train

>  <MW>  (878) 
384.53

>  <HBD>  (878) 
2

>  <HBA>  (878) 
5

>  <NRB>  (878) 
7

>  <NR>  (878) 
2

>  <NAR>  (878) 
1

>  <PSA>  (878) 
123.38

>  <Standard Type>  (878) 
nan

>  <Standard Relation>  (878) 
nan

>  <Standard Units>  (878) 
nan

>  <Standard Value>  (878) 
nan

>  <Assay ChEMBL ID>  (878) 
nan

>  <Assay Description>  (878) 
nan

>  <BAO Label>  (878) 
nan

$$$$

     RDKit          2D

 25 28  0  0  0  0  0  0  0  0999 V2000
    2.1328    3.1443    0.0000 C   0  0  0  0  0  0  0  0  0  0  0  0
    0.7062    2.6807    0.0000 C   0  0  0  0  0  0  0  0  0  0  0  0
    0.3943    1.2135    0.0000 C   0  0  0  0  0  0  0  0  0  0  0  0
    1.2760    0.0000    0.0000 C   0  0  0  0  0  0  0  0  0  0  0  0
    0.3943   -1.2135    0.0000 C   0  0  0  0  0  0  0  0  0  0  0  0
   -1.0323   -0.7500    0.0000 S   0  0  0  0  0  0  0  0  0  0  0  0
   -1.0323    0.7500    0.0000 C   0  0  0  0  0  0  0  0  0  0  0  0
   -2.1470    1.7537    0.0000 C   0  0  0  0  0  0  0  0  0  0  0  0
   -1.8351    3.2209    0.0000 C   0  0  0  0  0  0  0  0  0  0  0  0
   -0.4086    3.6844    0.0000 N   0  0  0  0  0  0  0  0  0  0  0  0
   -0.0967    5.1517    0.0000 C   0  0  0  0  0  0  0  0  0  0  0  0
   -1.2114    6.1554    0.0000 C   0  0  0  0  0  0  0  0  0  0  0  0
   -2.6380    5.6918    0.0000 O   0  0  0  0  0  0  0  0  0  0  0  0
   -0.8995    7.6226    0.0000 C   0  0  0  0  0  0  0  0  0  0  0  0
    0.5271    8.0861    0.0000 C   0  0  0  0  0  0  0  0  0  0  0  0
    1.6418    7.0824    0.0000 N   0  0  0  0  0  0  0  0  0  0  0  0
    0.8389    9.5533    0.0000 N   0  0  0  0  0  0  0  0  0  0  0  0
    2.2655   10.0169    0.0000 C   0  0  0  0  0  0  0  0  0  0  0  0
    3.2692   11.1316    0.0000 C   0  0  0  0  0  0  0  0  0  0  0  0
    3.7327    9.7050    0.0000 C   0  0  0  0  0  0  0  0  0  0  0  0
   -0.2758   10.5570    0.0000 C   0  0  0  0  0  0  0  0  0  0  0  0
    0.0361   12.0242    0.0000 O   0  0  0  0  0  0  0  0  0  0  0  0
   -1.7024   10.0935    0.0000 N   0  0  0  0  0  0  0  0  0  0  0  0
   -2.0143    8.6263    0.0000 C   0  0  0  0  0  0  0  0  0  0  0  0
   -3.4408    8.1628    0.0000 O   0  0  0  0  0  0  0  0  0  0  0  0
  2  1  1  1
  2  3  1  0
  3  4  1  0
  4  5  2  0
  5  6  1  0
  6  7  1  0
  7  8  1  0
  8  9  1  0
  9 10  1  0
 10 11  1  0
 11 12  1  0
 12 13  2  0
 12 14  1  0
 14 15  2  0
 15 16  1  0
 15 17  1  0
 17 18  1  0
 18 19  1  0
 19 20  1  0
 17 21  1  0
 21 22  2  0
 21 23  1  0
 23 24  1  0
 24 25  2  0
 10  2  1  0
 24 14  1  0
  7  3  2  0
 20 18  1  0
M  END
>  <Compound_ID>  (879) 
C27371807

>  <Active>  (879) 
0.0

>  <Smiles>  (879) 
C[C@H]1c2ccsc2CCN1CC(=O)c1c(N)n(C2CC2)c(=O)[nH]c1=O

>  <canonical_smi>  (879) 
C[C@H]1c2ccsc2CCN1CC(=O)c1c(N)n(C2CC2)c(=O)[nH]c1=O

>  <Set>  (879) 
G2 inactive

>  <Set_type>  (879) 
Train

>  <MW>  (879) 
360.44

>  <HBD>  (879) 
2

>  <HBA>  (879) 
5

>  <NRB>  (879) 
4

>  <NR>  (879) 
4

>  <NAR>  (879) 
2

>  <PSA>  (879) 
101.19

>  <Standard Type>  (879) 
nan

>  <Standard Relation>  (879) 
nan

>  <Standard Units>  (879) 
nan

>  <Standard Value>  (879) 
nan

>  <Assay ChEMBL ID>  (879) 
nan

>  <Assay Description>  (879) 
nan

>  <BAO Label>  (879) 
nan

$$$$

     RDKit          2D

 24 25  0  0  0  0  0  0  0  0999 V2000
   -0.7500   -3.8971    0.0000 O   0  0  0  0  0  0  0  0  0  0  0  0
    0.7500   -3.8971    0.0000 C   0  0  0  0  0  0  0  0  0  0  0  0
    1.5000   -5.1962    0.0000 N   0  0  0  0  0  0  0  0  0  0  0  0
    0.7500   -6.4952    0.0000 C   0  0  0  0  0  0  0  0  0  0  0  0
    1.5000   -7.7942    0.0000 C   0  0  0  0  0  0  0  0  0  0  0  0
    0.7500   -9.0933    0.0000 C   0  0  0  0  0  0  0  0  0  0  0  0
   -0.7500   -9.0933    0.0000 O   0  0  0  0  0  0  0  0  0  0  0  0
    1.5000  -10.3923    0.0000 N   0  0  0  0  0  0  0  0  0  0  0  0
    2.9918  -10.5491    0.0000 C   0  0  0  0  0  0  0  0  0  0  0  0
    3.3037  -12.0163    0.0000 C   0  0  0  0  0  0  0  0  0  0  0  0
    2.0046  -12.7663    0.0000 C   0  0  0  0  0  0  0  0  0  0  0  0
    0.8899  -11.7626    0.0000 C   0  0  0  0  0  0  0  0  0  0  0  0
    1.5000   -2.5981    0.0000 N   0  0  0  0  0  0  0  0  0  0  0  0
    0.7500   -1.2990    0.0000 C   0  0  0  0  0  0  0  0  0  0  0  0
    1.5000    0.0000    0.0000 C   0  0  0  0  0  0  0  0  0  0  0  0
    0.7500    1.2990    0.0000 C   0  0  0  0  0  0  0  0  0  0  0  0
    1.5000    2.5981    0.0000 C   0  0  0  0  0  0  0  0  0  0  0  0
    2.2500    3.8971    0.0000 F   0  0  0  0  0  0  0  0  0  0  0  0
    2.7990    1.8481    0.0000 F   0  0  0  0  0  0  0  0  0  0  0  0
    0.2010    3.3481    0.0000 F   0  0  0  0  0  0  0  0  0  0  0  0
   -0.7500    1.2990    0.0000 C   0  0  0  0  0  0  0  0  0  0  0  0
   -1.5000    0.0000    0.0000 N   0  0  0  0  0  0  0  0  0  0  0  0
   -0.7500   -1.2990    0.0000 C   0  0  0  0  0  0  0  0  0  0  0  0
   -1.5000   -2.5981    0.0000 O   0  0  0  0  0  0  0  0  0  0  0  0
  1  2  2  0
  2  3  1  0
  3  4  1  0
  4  5  1  0
  5  6  1  0
  6  7  2  0
  6  8  1  0
  8  9  1  0
  9 10  1  0
 10 11  1  0
 11 12  1  0
  2 13  1  0
 13 14  1  0
 14 15  2  0
 15 16  1  0
 16 17  1  0
 17 18  1  0
 17 19  1  0
 17 20  1  0
 16 21  2  0
 21 22  1  0
 22 23  1  0
 23 24  2  0
 12  8  1  0
 23 14  1  0
M  END
>  <Compound_ID>  (880) 
C63161978

>  <Active>  (880) 
0.0

>  <Smiles>  (880) 
O=C(NCCC(=O)N1CCCC1)Nc1cc(C(F)(F)F)c[nH]c1=O

>  <canonical_smi>  (880) 
O=C(NCCC(=O)N1CCCC1)Nc1cc(C(F)(F)F)c[nH]c1=O

>  <Set>  (880) 
G2 inactive

>  <Set_type>  (880) 
Train

>  <MW>  (880) 
346.31

>  <HBD>  (880) 
3

>  <HBA>  (880) 
3

>  <NRB>  (880) 
4

>  <NR>  (880) 
2

>  <NAR>  (880) 
1

>  <PSA>  (880) 
94.3

>  <Standard Type>  (880) 
nan

>  <Standard Relation>  (880) 
nan

>  <Standard Units>  (880) 
nan

>  <Standard Value>  (880) 
nan

>  <Assay ChEMBL ID>  (880) 
nan

>  <Assay Description>  (880) 
nan

>  <BAO Label>  (880) 
nan

$$$$

     RDKit          2D

 22 24  0  0  0  0  0  0  0  0999 V2000
    2.3886   -2.4414    0.0000 C   0  0  0  0  0  0  0  0  0  0  0  0
    2.6491   -0.9642    0.0000 C   0  0  0  0  0  0  0  0  0  0  0  0
    1.5000    0.0000    0.0000 C   0  0  0  0  0  0  0  0  0  0  0  0
    2.6491    0.9642    0.0000 C   0  0  0  0  0  0  0  0  0  0  0  0
    0.7500   -1.2990    0.0000 C   0  0  0  0  0  0  0  0  0  0  0  0
   -0.7500   -1.2990    0.0000 C   0  0  0  0  0  0  0  0  0  0  0  0
   -1.5000    0.0000    0.0000 C   0  0  0  0  0  0  0  0  0  0  0  0
   -2.9672   -0.3119    0.0000 S   0  0  0  0  0  0  0  0  0  0  0  0
   -3.1240   -1.8037    0.0000 C   0  0  0  0  0  0  0  0  0  0  0  0
   -4.3375   -2.6853    0.0000 N   0  0  0  0  0  0  0  0  0  0  0  0
   -4.1807   -4.1771    0.0000 C   0  0  0  0  0  0  0  0  0  0  0  0
   -5.3943   -5.0588    0.0000 S   0  0  0  0  0  0  0  0  0  0  0  0
   -6.7646   -4.4487    0.0000 C   0  0  0  0  0  0  0  0  0  0  0  0
   -2.8104   -4.7872    0.0000 N   0  0  0  0  0  0  0  0  0  0  0  0
   -1.5969   -3.9055    0.0000 C   0  0  0  0  0  0  0  0  0  0  0  0
   -0.2266   -4.5156    0.0000 N   0  0  0  0  0  0  0  0  0  0  0  0
   -0.0698   -6.0074    0.0000 C   0  0  0  0  0  0  0  0  0  0  0  0
    1.3005   -6.6175    0.0000 C   0  0  0  0  0  0  0  0  0  0  0  0
   -1.2833   -6.8891    0.0000 C   0  0  0  0  0  0  0  0  0  0  0  0
   -1.7537   -2.4138    0.0000 C   0  0  0  0  0  0  0  0  0  0  0  0
   -0.7500    1.2990    0.0000 C   0  0  0  0  0  0  0  0  0  0  0  0
    0.7500    1.2990    0.0000 O   0  0  0  0  0  0  0  0  0  0  0  0
  1  2  1  0
  2  3  1  0
  3  4  1  6
  3  5  1  0
  5  6  1  0
  6  7  2  0
  7  8  1  0
  8  9  1  0
  9 10  2  0
 10 11  1  0
 11 12  1  0
 12 13  1  0
 11 14  2  0
 14 15  1  0
 15 16  1  0
 16 17  1  0
 17 18  1  0
 17 19  1  0
 15 20  2  0
  7 21  1  0
 21 22  1  0
 22  3  1  0
 20  6  1  0
 20  9  1  0
M  END
>  <Compound_ID>  (881) 
C16844983

>  <Active>  (881) 
0.0

>  <Smiles>  (881) 
CC[C@@]1(C)Cc2c(sc3nc(SC)nc(NC(C)C)c23)CO1

>  <canonical_smi>  (881) 
CC[C@@]1(C)Cc2c(sc3nc(SC)nc(NC(C)C)c23)CO1

>  <Set>  (881) 
G2 inactive

>  <Set_type>  (881) 
Train

>  <MW>  (881) 
337.51

>  <HBD>  (881) 
1

>  <HBA>  (881) 
5

>  <NRB>  (881) 
4

>  <NR>  (881) 
3

>  <NAR>  (881) 
2

>  <PSA>  (881) 
47.04

>  <Standard Type>  (881) 
nan

>  <Standard Relation>  (881) 
nan

>  <Standard Units>  (881) 
nan

>  <Standard Value>  (881) 
nan

>  <Assay ChEMBL ID>  (881) 
nan

>  <Assay Description>  (881) 
nan

>  <BAO Label>  (881) 
nan

$$$$

     RDKit          2D

 24 27  0  0  0  0  0  0  0  0999 V2000
   -6.9199   -4.5797    0.0000 C   0  0  0  0  0  0  0  0  0  0  0  0
   -5.4933   -4.1162    0.0000 C   0  0  0  0  0  0  0  0  0  0  0  0
   -5.1814   -2.6490    0.0000 C   0  0  0  0  0  0  0  0  0  0  0  0
   -6.2961   -1.6453    0.0000 C   0  0  0  0  0  0  0  0  0  0  0  0
   -5.9843   -0.1781    0.0000 C   0  0  0  0  0  0  0  0  0  0  0  0
   -4.5577    0.2855    0.0000 C   0  0  0  0  0  0  0  0  0  0  0  0
   -3.4430   -0.7182    0.0000 C   0  0  0  0  0  0  0  0  0  0  0  0
   -2.2981   -0.0028    0.0000 C   0  0  0  0  0  0  0  0  0  0  0  0
   -3.7548   -2.1855    0.0000 C   0  0  0  0  0  0  0  0  0  0  0  0
   -2.6401   -3.1891    0.0000 N   0  0  0  0  0  0  0  0  0  0  0  0
   -1.2135   -2.7256    0.0000 C   0  0  0  0  0  0  0  0  0  0  0  0
   -0.0000   -3.6073    0.0000 C   0  0  0  0  0  0  0  0  0  0  0  0
   -0.0000   -5.1073    0.0000 C   0  0  0  0  0  0  0  0  0  0  0  0
    1.2135   -5.9890    0.0000 C   0  0  0  0  0  0  0  0  0  0  0  0
    0.7500   -7.4156    0.0000 C   0  0  0  0  0  0  0  0  0  0  0  0
   -0.7500   -7.4156    0.0000 C   0  0  0  0  0  0  0  0  0  0  0  0
   -1.2135   -5.9890    0.0000 S   0  0  0  0  0  0  0  0  0  0  0  0
    1.2135   -2.7256    0.0000 N   0  0  0  0  0  0  0  0  0  0  0  0
    0.7500   -1.2990    0.0000 C   0  0  0  0  0  0  0  0  0  0  0  0
    1.5000    0.0000    0.0000 N   0  0  0  0  0  0  0  0  0  0  0  0
    0.7500    1.2990    0.0000 C   0  0  0  0  0  0  0  0  0  0  0  0
   -0.7500    1.2990    0.0000 C   0  0  0  0  0  0  0  0  0  0  0  0
   -1.5000    0.0000    0.0000 C   0  0  0  0  0  0  0  0  0  0  0  0
   -0.7500   -1.2990    0.0000 N   0  0  0  0  0  0  0  0  0  0  0  0
  1  2  1  0
  2  3  1  0
  3  4  2  0
  4  5  1  0
  5  6  2  0
  6  7  1  0
  7  8  1  0
  7  9  2  0
  9 10  1  0
 10 11  1  0
 11 12  2  0
 12 13  1  0
 13 14  2  0
 14 15  1  0
 15 16  2  0
 16 17  1  0
 12 18  1  0
 18 19  2  0
 19 20  1  0
 20 21  2  0
 21 22  1  0
 22 23  2  0
 23 24  1  0
  9  3  1  0
 24 11  1  0
 17 13  1  0
 24 19  1  0
M  END
>  <Compound_ID>  (882) 
C04734142

>  <Active>  (882) 
0.0

>  <Smiles>  (882) 
CCc1cccc(C)c1Nc1c(-c2cccs2)nc2ncccn12

>  <canonical_smi>  (882) 
CCc1cccc(C)c1Nc1c(-c2cccs2)nc2ncccn12

>  <Set>  (882) 
G2 inactive

>  <Set_type>  (882) 
Train

>  <MW>  (882) 
334.45

>  <HBD>  (882) 
1

>  <HBA>  (882) 
3

>  <NRB>  (882) 
4

>  <NR>  (882) 
4

>  <NAR>  (882) 
4

>  <PSA>  (882) 
42.22

>  <Standard Type>  (882) 
nan

>  <Standard Relation>  (882) 
nan

>  <Standard Units>  (882) 
nan

>  <Standard Value>  (882) 
nan

>  <Assay ChEMBL ID>  (882) 
nan

>  <Assay Description>  (882) 
nan

>  <BAO Label>  (882) 
nan

$$$$

     RDKit          2D

 25 27  0  0  0  0  0  0  0  0999 V2000
    3.0000   -0.0000    0.0000 C   0  0  0  0  0  0  0  0  0  0  0  0
    3.7500   -1.2990    0.0000 C   0  0  0  0  0  0  0  0  0  0  0  0
    5.2500   -1.2990    0.0000 C   0  0  0  0  0  0  0  0  0  0  0  0
    6.0000   -2.5981    0.0000 C   0  0  0  0  0  0  0  0  0  0  0  0
    5.2500   -3.8971    0.0000 C   0  0  0  0  0  0  0  0  0  0  0  0
    6.0000   -5.1962    0.0000 Cl  0  0  0  0  0  0  0  0  0  0  0  0
    3.7500   -3.8971    0.0000 C   0  0  0  0  0  0  0  0  0  0  0  0
    3.0000   -2.5981    0.0000 C   0  0  0  0  0  0  0  0  0  0  0  0
    1.5000   -2.5981    0.0000 N   0  0  0  0  0  4  0  0  0  0  0  0
    0.7500   -1.2990    0.0000 C   0  0  0  0  0  0  0  0  0  0  0  0
    1.5000    0.0000    0.0000 O   0  0  0  0  0  0  0  0  0  0  0  0
    0.7500    1.2990    0.0000 C   0  0  0  0  0  0  0  0  0  0  0  0
    1.5000    2.5981    0.0000 C   0  0  0  0  0  0  0  0  0  0  0  0
    3.0000    2.5981    0.0000 C   0  0  0  0  0  0  0  0  0  0  0  0
    0.7500    3.8971    0.0000 N   0  0  0  0  0  0  0  0  0  0  0  0
   -0.7500    3.8971    0.0000 C   0  0  0  0  0  0  0  0  0  0  0  0
   -1.5000    2.5981    0.0000 C   0  0  0  0  0  0  0  0  0  0  0  0
   -3.0000    2.5981    0.0000 C   0  0  0  0  0  0  0  0  0  0  0  0
   -3.7500    3.8971    0.0000 O   0  0  0  0  0  0  0  0  0  0  0  0
   -0.7500    1.2990    0.0000 C   0  0  0  0  0  0  0  0  0  0  0  0
   -1.5000    0.0000    0.0000 C   0  0  0  0  0  0  0  0  0  0  0  0
   -0.7500   -1.2990    0.0000 C   0  0  0  0  0  0  0  0  0  0  0  0
   -1.5000   -2.5981    0.0000 C   0  0  0  0  0  0  0  0  0  0  0  0
   -3.0000   -2.5981    0.0000 N   0  0  0  0  0  0  0  0  0  0  0  0
   -0.7500   -3.8971    0.0000 S   0  0  0  0  0  0  0  0  0  0  0  0
  1  2  1  0
  2  3  2  0
  3  4  1  0
  4  5  2  0
  5  6  1  0
  5  7  1  0
  7  8  2  0
  8  9  1  0
  9 10  2  0
 10 11  1  0
 11 12  1  0
 12 13  2  0
 13 14  1  0
 13 15  1  0
 15 16  2  0
 16 17  1  0
 17 18  1  0
 18 19  1  0
 17 20  2  0
 20 21  1  0
 21 22  2  0
 22 23  1  0
 23 24  1  0
 23 25  2  0
  8  2  1  0
 22 10  1  0
 20 12  1  0
M  CHG  1   9   1
M  END
>  <Compound_ID>  (883) 
C20132021

>  <Active>  (883) 
0.0

>  <Smiles>  (883) 
Cc1ccc(Cl)cc1/[NH+]=c1\oc2c(C)ncc(CO)c2cc1C(N)=S

>  <canonical_smi>  (883) 
Cc1ccc(Cl)cc1/[NH+]=c1\oc2c(C)ncc(CO)c2cc1C(N)=S

>  <Set>  (883) 
G2 inactive

>  <Set_type>  (883) 
Train

>  <MW>  (883) 
374.87

>  <HBD>  (883) 
3

>  <HBA>  (883) 
5

>  <NRB>  (883) 
3

>  <NR>  (883) 
3

>  <NAR>  (883) 
3

>  <PSA>  (883) 
86.25

>  <Standard Type>  (883) 
nan

>  <Standard Relation>  (883) 
nan

>  <Standard Units>  (883) 
nan

>  <Standard Value>  (883) 
nan

>  <Assay ChEMBL ID>  (883) 
nan

>  <Assay Description>  (883) 
nan

>  <BAO Label>  (883) 
nan

$$$$

     RDKit          2D

 27 31  0  0  0  0  0  0  0  0999 V2000
   -1.4115    6.5715    0.0000 S   0  0  0  0  0  0  0  0  0  0  0  0
   -0.2294    5.6480    0.0000 P   0  0  0  0  0  5  0  0  0  0  0  0
    0.4748    6.9724    0.0000 N   0  0  0  0  0  0  0  0  0  0  0  0
   -0.3201    8.2445    0.0000 C   0  0  0  0  0  0  0  0  0  0  0  0
    0.3841    9.5689    0.0000 C   0  0  0  0  0  0  0  0  0  0  0  0
   -0.4108   10.8410    0.0000 C   0  0  0  0  0  0  0  0  0  0  0  0
   -1.9099   10.7886    0.0000 C   0  0  0  0  0  0  0  0  0  0  0  0
   -2.6141    9.4642    0.0000 C   0  0  0  0  0  0  0  0  0  0  0  0
   -1.8192    8.1921    0.0000 C   0  0  0  0  0  0  0  0  0  0  0  0
    1.1971    5.1844    0.0000 N   0  0  0  0  0  0  0  0  0  0  0  0
    1.5090    3.7172    0.0000 C   0  0  0  0  0  0  0  0  0  0  0  0
    2.9356    3.2537    0.0000 N   0  0  0  0  0  0  0  0  0  0  0  0
    4.0503    4.2574    0.0000 C   0  0  0  0  0  0  0  0  0  0  0  0
    5.4769    3.7939    0.0000 C   0  0  0  0  0  0  0  0  0  0  0  0
    6.5916    4.7976    0.0000 C   0  0  0  0  0  0  0  0  0  0  0  0
    6.2798    6.2648    0.0000 C   0  0  0  0  0  0  0  0  0  0  0  0
    4.8532    6.7283    0.0000 C   0  0  0  0  0  0  0  0  0  0  0  0
    3.7385    5.7246    0.0000 C   0  0  0  0  0  0  0  0  0  0  0  0
    0.3943    2.7135    0.0000 C   0  0  0  0  0  0  0  0  0  0  0  0
   -1.0323    3.1771    0.0000 C   0  0  0  0  0  0  0  0  0  0  0  0
   -1.9140    1.9635    0.0000 N   0  0  0  0  0  4  0  0  0  0  0  0
   -1.0323    0.7500    0.0000 C   0  0  0  0  0  0  0  0  0  0  0  0
    0.3943    1.2135    0.0000 N   0  0  0  0  0  0  0  0  0  0  0  0
    1.2760    0.0000    0.0000 C   0  0  0  0  0  0  0  0  0  0  0  0
    0.3943   -1.2135    0.0000 C   0  0  0  0  0  0  0  0  0  0  0  0
   -1.0323   -0.7500    0.0000 C   0  0  0  0  0  0  0  0  0  0  0  0
   -1.3442    4.6443    0.0000 N   0  0  0  0  0  0  0  0  0  0  0  0
  1  2  2  0
  2  3  1  1
  3  4  1  0
  4  5  2  0
  5  6  1  0
  6  7  2  0
  7  8  1  0
  8  9  2  0
  2 10  1  0
 10 11  1  0
 11 12  2  0
 12 13  1  0
 13 14  2  0
 14 15  1  0
 15 16  2  0
 16 17  1  0
 17 18  2  0
 11 19  1  0
 19 20  2  0
 20 21  1  0
 21 22  2  0
 22 23  1  0
 23 24  1  0
 24 25  1  0
 25 26  1  0
 20 27  1  0
 27  2  1  0
  9  4  1  0
 18 13  1  0
 23 19  1  0
 26 22  1  0
M  CHG  1  21   1
M  END
>  <Compound_ID>  (884) 
C04705423

>  <Active>  (884) 
0.0

>  <Smiles>  (884) 
S=[P@]1(Nc2ccccc2)N/C(=N\c2ccccc2)c2c([nH+]c3n2CCC3)N1

>  <canonical_smi>  (884) 
S=[P@]1(Nc2ccccc2)N/C(=N\c2ccccc2)c2c([nH+]c3n2CCC3)N1

>  <Set>  (884) 
G2 inactive

>  <Set_type>  (884) 
Train

>  <MW>  (884) 
395.45

>  <HBD>  (884) 
3

>  <HBA>  (884) 
4

>  <NRB>  (884) 
3

>  <NR>  (884) 
5

>  <NAR>  (884) 
3

>  <PSA>  (884) 
67.52

>  <Standard Type>  (884) 
nan

>  <Standard Relation>  (884) 
nan

>  <Standard Units>  (884) 
nan

>  <Standard Value>  (884) 
nan

>  <Assay ChEMBL ID>  (884) 
nan

>  <Assay Description>  (884) 
nan

>  <BAO Label>  (884) 
nan

$$$$

     RDKit          2D

 26 29  0  0  0  0  0  0  0  0999 V2000
    3.7500   -1.2990    0.0000 C   0  0  0  0  0  0  0  0  0  0  0  0
    3.0000    0.0000    0.0000 C   0  0  0  0  0  0  0  0  0  0  0  0
    1.5000    0.0000    0.0000 C   0  0  0  0  0  0  0  0  0  0  0  0
    0.7500   -1.2990    0.0000 C   0  0  0  0  0  0  0  0  0  0  0  0
   -0.7500   -1.2990    0.0000 C   0  0  0  0  0  0  0  0  0  0  0  0
   -1.5000    0.0000    0.0000 C   0  0  0  0  0  0  0  0  0  0  0  0
   -3.0000    0.0000    0.0000 N   0  0  0  0  0  4  0  0  0  0  0  0
   -3.7500    1.2990    0.0000 C   0  0  0  0  0  0  0  0  0  0  0  0
   -5.2172    1.6109    0.0000 S   0  0  0  0  0  0  0  0  0  0  0  0
   -5.3740    3.1027    0.0000 C   0  0  0  0  0  0  0  0  0  0  0  0
   -6.6731    3.8527    0.0000 C   0  0  0  0  0  0  0  0  0  0  0  0
   -6.6731    5.3527    0.0000 O   0  0  0  0  0  0  0  0  0  0  0  0
   -7.9721    3.1027    0.0000 N   0  0  0  0  0  0  0  0  0  0  0  0
   -9.2711    3.8527    0.0000 C   0  0  0  0  0  0  0  0  0  0  0  0
  -10.6414    3.2426    0.0000 N   0  0  0  0  0  0  0  0  0  0  0  0
  -11.6451    4.3573    0.0000 N   0  0  0  0  0  0  0  0  0  0  0  0
  -10.8951    5.6563    0.0000 C   0  0  0  0  0  0  0  0  0  0  0  0
  -11.5052    7.0267    0.0000 C   0  0  0  0  0  0  0  0  0  0  0  0
  -10.6236    8.2402    0.0000 C   0  0  0  0  0  0  0  0  0  0  0  0
   -9.4279    5.3445    0.0000 S   0  0  0  0  0  0  0  0  0  0  0  0
   -4.0037    3.7128    0.0000 C   0  0  0  0  0  0  0  0  0  0  0  0
   -3.6918    5.1800    0.0000 N   0  0  0  0  0  0  0  0  0  0  0  0
   -3.0000    2.5981    0.0000 C   0  0  0  0  0  0  0  0  0  0  0  0
   -1.5000    2.5981    0.0000 C   0  0  0  0  0  0  0  0  0  0  0  0
   -0.7500    1.2990    0.0000 C   0  0  0  0  0  0  0  0  0  0  0  0
    0.7500    1.2990    0.0000 C   0  0  0  0  0  0  0  0  0  0  0  0
  1  2  1  0
  2  3  1  0
  3  4  2  0
  4  5  1  0
  5  6  2  0
  6  7  1  0
  7  8  2  0
  8  9  1  0
  9 10  1  0
 10 11  1  0
 11 12  2  0
 11 13  1  0
 13 14  1  0
 14 15  2  0
 15 16  1  0
 16 17  2  0
 17 18  1  0
 18 19  1  0
 17 20  1  0
 10 21  2  0
 21 22  1  0
 21 23  1  0
 23 24  2  0
 24 25  1  0
 25 26  2  0
 26  3  1  0
 25  6  1  0
 23  8  1  0
 20 14  1  0
M  CHG  1   7   1
M  END
>  <Compound_ID>  (885) 
C04848755

>  <Active>  (885) 
0.0

>  <Smiles>  (885) 
CCc1ccc2[nH+]c3sc(C(=O)Nc4nnc(CC)s4)c(N)c3cc2c1

>  <canonical_smi>  (885) 
CCc1ccc2[nH+]c3sc(C(=O)Nc4nnc(CC)s4)c(N)c3cc2c1

>  <Set>  (885) 
G2 inactive

>  <Set_type>  (885) 
Train

>  <MW>  (885) 
384.51

>  <HBD>  (885) 
2

>  <HBA>  (885) 
4

>  <NRB>  (885) 
4

>  <NR>  (885) 
4

>  <NAR>  (885) 
4

>  <PSA>  (885) 
95.04

>  <Standard Type>  (885) 
nan

>  <Standard Relation>  (885) 
nan

>  <Standard Units>  (885) 
nan

>  <Standard Value>  (885) 
nan

>  <Assay ChEMBL ID>  (885) 
nan

>  <Assay Description>  (885) 
nan

>  <BAO Label>  (885) 
nan

$$$$

     RDKit          2D

 27 29  0  0  0  0  0  0  0  0999 V2000
    2.0490   -4.6471    0.0000 C   0  0  0  0  0  0  0  0  0  0  0  0
    0.7500   -3.8971    0.0000 C   0  0  0  0  0  0  0  0  0  0  0  0
   -0.5490   -3.1471    0.0000 C   0  0  0  0  0  0  0  0  0  0  0  0
   -0.0000   -5.1962    0.0000 C   0  0  0  0  0  0  0  0  0  0  0  0
    1.5000   -2.5981    0.0000 C   0  0  0  0  0  0  0  0  0  0  0  0
    3.0000   -2.5981    0.0000 N   0  0  0  0  0  0  0  0  0  0  0  0
    3.7500   -3.8971    0.0000 C   0  0  0  0  0  0  0  0  0  0  0  0
    3.0000   -5.1962    0.0000 O   0  0  0  0  0  0  0  0  0  0  0  0
    5.2500   -3.8971    0.0000 N   0  0  0  0  0  0  0  0  0  0  0  0
    6.0000   -5.1962    0.0000 C   0  0  0  0  0  0  0  0  0  0  0  0
    7.5000   -5.1962    0.0000 C   0  0  0  0  0  0  0  0  0  0  0  0
    8.2500   -6.4952    0.0000 C   0  0  0  0  0  0  0  0  0  0  0  0
    9.7418   -6.6520    0.0000 C   0  0  0  0  0  0  0  0  0  0  0  0
   10.0537   -8.1192    0.0000 C   0  0  0  0  0  0  0  0  0  0  0  0
    8.7546   -8.8692    0.0000 C   0  0  0  0  0  0  0  0  0  0  0  0
    7.6399   -7.8655    0.0000 O   0  0  0  0  0  0  0  0  0  0  0  0
    8.2500   -3.8971    0.0000 N   0  0  0  0  0  4  0  0  0  0  0  0
    7.6399   -2.5268    0.0000 C   0  0  0  0  0  0  0  0  0  0  0  0
    8.7546   -1.5231    0.0000 C   0  0  0  0  0  0  0  0  0  0  0  0
   10.0537   -2.2731    0.0000 C   0  0  0  0  0  0  0  0  0  0  0  0
    9.7418   -3.7403    0.0000 C   0  0  0  0  0  0  0  0  0  0  0  0
    0.7500   -1.2990    0.0000 C   0  0  0  0  0  0  0  0  0  0  0  0
    1.5000    0.0000    0.0000 C   0  0  0  0  0  0  0  0  0  0  0  0
    0.7500    1.2990    0.0000 C   0  0  0  0  0  0  0  0  0  0  0  0
   -0.7500    1.2990    0.0000 C   0  0  0  0  0  0  0  0  0  0  0  0
   -1.5000    0.0000    0.0000 C   0  0  0  0  0  0  0  0  0  0  0  0
   -0.7500   -1.2990    0.0000 C   0  0  0  0  0  0  0  0  0  0  0  0
  1  2  1  0
  2  3  1  0
  2  4  1  0
  2  5  1  0
  5  6  1  1
  6  7  1  0
  7  8  2  0
  7  9  1  0
  9 10  1  0
 11 10  1  1
 11 12  1  0
 12 13  2  0
 13 14  1  0
 14 15  2  0
 15 16  1  0
 11 17  1  0
 17 18  1  0
 18 19  1  0
 19 20  1  0
 20 21  1  0
  5 22  1  0
 22 23  2  0
 23 24  1  0
 24 25  2  0
 25 26  1  0
 26 27  2  0
 16 12  1  0
 21 17  1  0
 27 22  1  0
M  CHG  1  17   1
M  END
>  <Compound_ID>  (886) 
C59263924

>  <Active>  (886) 
0.0

>  <Smiles>  (886) 
CC(C)(C)[C@H](NC(=O)NC[C@H](c1ccco1)[NH+]1CCCC1)c1ccccc1

>  <canonical_smi>  (886) 
CC(C)(C)[C@H](NC(=O)NC[C@H](c1ccco1)[NH+]1CCCC1)c1ccccc1

>  <Set>  (886) 
G2 inactive

>  <Set_type>  (886) 
Train

>  <MW>  (886) 
370.52

>  <HBD>  (886) 
3

>  <HBA>  (886) 
2

>  <NRB>  (886) 
6

>  <NR>  (886) 
3

>  <NAR>  (886) 
2

>  <PSA>  (886) 
58.71

>  <Standard Type>  (886) 
nan

>  <Standard Relation>  (886) 
nan

>  <Standard Units>  (886) 
nan

>  <Standard Value>  (886) 
nan

>  <Assay ChEMBL ID>  (886) 
nan

>  <Assay Description>  (886) 
nan

>  <BAO Label>  (886) 
nan

$$$$

     RDKit          2D

 30 33  0  0  0  0  0  0  0  0999 V2000
    7.9336   -1.1492    0.0000 C   0  0  0  0  0  0  0  0  0  0  0  0
    6.4664   -0.8373    0.0000 C   0  0  0  0  0  0  0  0  0  0  0  0
    5.4627   -1.9520    0.0000 N   0  0  0  0  0  4  0  0  0  0  0  0
    3.9955   -1.6402    0.0000 C   0  0  0  0  0  0  0  0  0  0  0  0
    2.9918   -2.7549    0.0000 C   0  0  0  0  0  0  0  0  0  0  0  0
    3.3037   -4.2221    0.0000 C   0  0  0  0  0  0  0  0  0  0  0  0
    2.0046   -4.9721    0.0000 N   0  0  0  0  0  0  0  0  0  0  0  0
    0.8899   -3.9684    0.0000 N   0  0  0  0  0  0  0  0  0  0  0  0
    1.5000   -2.5981    0.0000 C   0  0  0  0  0  0  0  0  0  0  0  0
    0.7500   -1.2990    0.0000 C   0  0  0  0  0  0  0  0  0  0  0  0
    1.5000    0.0000    0.0000 C   0  0  0  0  0  0  0  0  0  0  0  0
    0.7500    1.2990    0.0000 C   0  0  0  0  0  0  0  0  0  0  0  0
   -0.7500    1.2990    0.0000 C   0  0  0  0  0  0  0  0  0  0  0  0
   -1.5000    0.0000    0.0000 C   0  0  0  0  0  0  0  0  0  0  0  0
   -3.0000    0.0000    0.0000 F   0  0  0  0  0  0  0  0  0  0  0  0
   -0.7500   -1.2990    0.0000 C   0  0  0  0  0  0  0  0  0  0  0  0
    6.0029    0.5893    0.0000 C   0  0  0  0  0  0  0  0  0  0  0  0
    4.5763    1.0528    0.0000 C   0  0  0  0  0  0  0  0  0  0  0  0
    4.5763    2.5528    0.0000 N   0  0  0  0  0  0  0  0  0  0  0  0
    6.0029    3.0163    0.0000 N   0  0  0  0  0  0  0  0  0  0  0  0
    6.4664    4.4429    0.0000 C   0  0  0  0  0  0  0  0  0  0  0  0
    7.9336    4.7548    0.0000 C   0  0  0  0  0  0  0  0  0  0  0  0
    8.3971    6.1814    0.0000 C   0  0  0  0  0  0  0  0  0  0  0  0
    7.3934    7.2961    0.0000 C   0  0  0  0  0  0  0  0  0  0  0  0
    7.8570    8.7227    0.0000 F   0  0  0  0  0  0  0  0  0  0  0  0
    5.9262    6.9842    0.0000 C   0  0  0  0  0  0  0  0  0  0  0  0
    5.4627    5.5576    0.0000 C   0  0  0  0  0  0  0  0  0  0  0  0
    3.9955    5.2458    0.0000 F   0  0  0  0  0  0  0  0  0  0  0  0
    6.8845    1.8028    0.0000 C   0  0  0  0  0  0  0  0  0  0  0  0
    8.3845    1.8028    0.0000 C   0  0  0  0  0  0  0  0  0  0  0  0
  2  1  1  1
  2  3  1  0
  3  4  1  0
  5  4  1  6
  5  6  1  0
  6  7  2  0
  7  8  1  0
  8  9  2  0
  9 10  1  0
 10 11  2  0
 11 12  1  0
 12 13  2  0
 13 14  1  0
 14 15  1  0
 14 16  2  0
  2 17  1  0
 17 18  1  6
 18 19  1  0
 19 20  1  0
 20 21  1  0
 21 22  2  0
 22 23  1  0
 23 24  2  0
 24 25  1  0
 24 26  1  0
 26 27  2  0
 27 28  1  0
 20 29  1  0
 29 30  1  1
  9  5  1  0
 16 10  1  0
 29 17  1  0
 27 21  1  0
M  CHG  1   3   1
M  END
>  <Compound_ID>  (887) 
C63883815

>  <Active>  (887) 
0.0

>  <Smiles>  (887) 
C[C@@H]([NH2+]C[C@@H]1C=NN=C1c1cccc(F)c1)[C@@H]1CNN(c2ccc(F)cc2F)[C@H]1C

>  <canonical_smi>  (887) 
C[C@H]1[C@H]([C@@H](C)[NH2+]C[C@@H]2C=NN=C2c2cccc(F)c2)CNN1c1ccc(F)cc1F

>  <Set>  (887) 
G2 inactive

>  <Set_type>  (887) 
Train

>  <MW>  (887) 
416.47

>  <HBD>  (887) 
2

>  <HBA>  (887) 
2

>  <NRB>  (887) 
6

>  <NR>  (887) 
4

>  <NAR>  (887) 
2

>  <PSA>  (887) 
56.6

>  <Standard Type>  (887) 
nan

>  <Standard Relation>  (887) 
nan

>  <Standard Units>  (887) 
nan

>  <Standard Value>  (887) 
nan

>  <Assay ChEMBL ID>  (887) 
nan

>  <Assay Description>  (887) 
nan

>  <BAO Label>  (887) 
nan

$$$$

     RDKit          2D

 21 22  0  0  0  0  0  0  0  0999 V2000
    8.2500   -3.8971    0.0000 C   0  0  0  0  0  0  0  0  0  0  0  0
    7.5000   -2.5981    0.0000 C   0  0  0  0  0  0  0  0  0  0  0  0
    8.2500   -1.2990    0.0000 C   0  0  0  0  0  0  0  0  0  0  0  0
    6.0000   -2.5981    0.0000 N   0  0  0  0  0  0  0  0  0  0  0  0
    5.2500   -1.2990    0.0000 C   0  0  0  0  0  0  0  0  0  0  0  0
    6.0000    0.0000    0.0000 O   0  0  0  0  0  0  0  0  0  0  0  0
    3.7500   -1.2990    0.0000 C   0  0  0  0  0  0  0  0  0  0  0  0
    3.0000    0.0000    0.0000 N   0  0  0  0  0  0  0  0  0  0  0  0
    1.5000    0.0000    0.0000 C   0  0  0  0  0  0  0  0  0  0  0  0
    0.7500   -1.2990    0.0000 C   0  0  0  0  0  0  0  0  0  0  0  0
   -0.7500   -1.2990    0.0000 C   0  0  0  0  0  0  0  0  0  0  0  0
   -1.5000    0.0000    0.0000 C   0  0  0  0  0  0  0  0  0  0  0  0
   -2.9672    0.3119    0.0000 N   0  0  0  0  0  0  0  0  0  0  0  0
   -3.1240    1.8037    0.0000 N   0  0  0  0  0  0  0  0  0  0  0  0
   -1.7537    2.4138    0.0000 C   0  0  0  0  0  0  0  0  0  0  0  0
   -1.4418    3.8810    0.0000 C   0  0  0  0  0  0  0  0  0  0  0  0
   -1.1300    5.3482    0.0000 F   0  0  0  0  0  0  0  0  0  0  0  0
   -2.9090    4.1928    0.0000 F   0  0  0  0  0  0  0  0  0  0  0  0
    0.0254    3.5691    0.0000 F   0  0  0  0  0  0  0  0  0  0  0  0
   -0.7500    1.2990    0.0000 N   0  0  0  0  0  0  0  0  0  0  0  0
    0.7500    1.2990    0.0000 N   0  0  0  0  0  0  0  0  0  0  0  0
  1  2  1  0
  2  3  1  0
  2  4  1  0
  4  5  1  0
  5  6  2  0
  5  7  1  0
  7  8  1  0
  8  9  1  0
  9 10  1  0
 10 11  2  0
 11 12  1  0
 12 13  2  0
 13 14  1  0
 14 15  2  0
 15 16  1  0
 16 17  1  0
 16 18  1  0
 16 19  1  0
 15 20  1  0
 20 21  1  0
 21  9  2  0
 20 12  1  0
M  END
>  <Compound_ID>  (888) 
C09953915

>  <Active>  (888) 
0.0

>  <Smiles>  (888) 
CC(C)NC(=O)CNc1ccc2nnc(C(F)(F)F)n2n1

>  <canonical_smi>  (888) 
CC(C)NC(=O)CNc1ccc2nnc(C(F)(F)F)n2n1

>  <Set>  (888) 
G2 inactive

>  <Set_type>  (888) 
Train

>  <MW>  (888) 
302.26

>  <HBD>  (888) 
2

>  <HBA>  (888) 
5

>  <NRB>  (888) 
4

>  <NR>  (888) 
2

>  <NAR>  (888) 
2

>  <PSA>  (888) 
84.21

>  <Standard Type>  (888) 
nan

>  <Standard Relation>  (888) 
nan

>  <Standard Units>  (888) 
nan

>  <Standard Value>  (888) 
nan

>  <Assay ChEMBL ID>  (888) 
nan

>  <Assay Description>  (888) 
nan

>  <BAO Label>  (888) 
nan

$$$$

     RDKit          2D

 19 20  0  0  0  0  0  0  0  0999 V2000
    5.2500   -1.2990    0.0000 C   0  0  0  0  0  0  0  0  0  0  0  0
    3.7500   -1.2990    0.0000 C   0  0  0  0  0  0  0  0  0  0  0  0
    3.0000   -2.5981    0.0000 C   0  0  0  0  0  0  0  0  0  0  0  0
    3.0000    0.0000    0.0000 O   0  0  0  0  0  0  0  0  0  0  0  0
    1.5000    0.0000    0.0000 C   0  0  0  0  0  0  0  0  0  0  0  0
    0.7500   -1.2990    0.0000 N   0  0  0  0  0  0  0  0  0  0  0  0
   -0.7500   -1.2990    0.0000 C   0  0  0  0  0  0  0  0  0  0  0  0
   -1.5000   -2.5981    0.0000 Cl  0  0  0  0  0  0  0  0  0  0  0  0
   -1.5000    0.0000    0.0000 N   0  0  0  0  0  0  0  0  0  0  0  0
   -0.7500    1.2990    0.0000 C   0  0  0  0  0  0  0  0  0  0  0  0
   -1.5000    2.5981    0.0000 N   0  0  0  0  0  0  0  0  0  0  0  0
   -0.7500    3.8971    0.0000 C   0  0  0  0  0  0  0  0  0  0  0  0
    0.7500    3.8971    0.0000 C   0  0  0  0  0  0  0  0  0  0  0  0
    1.5000    5.1962    0.0000 C   0  0  0  0  0  0  0  0  0  0  0  0
    0.7500    6.4952    0.0000 C   0  0  0  0  0  0  0  0  0  0  0  0
   -0.7500    6.4952    0.0000 N   0  0  0  0  0  0  0  0  0  0  0  0
   -1.5000    5.1962    0.0000 C   0  0  0  0  0  0  0  0  0  0  0  0
   -3.0000    5.1962    0.0000 O   0  0  0  0  0  0  0  0  0  0  0  0
    0.7500    1.2990    0.0000 N   0  0  0  0  0  0  0  0  0  0  0  0
  1  2  1  0
  2  3  1  0
  2  4  1  0
  4  5  1  0
  5  6  2  0
  6  7  1  0
  7  8  1  0
  7  9  2  0
  9 10  1  0
 10 11  1  0
 12 11  1  6
 12 13  1  0
 13 14  1  0
 14 15  1  0
 15 16  1  0
 16 17  1  0
 17 18  2  0
 10 19  2  0
 19  5  1  0
 17 12  1  0
M  END
>  <Compound_ID>  (889) 
C61541843

>  <Active>  (889) 
0.0

>  <Smiles>  (889) 
CC(C)Oc1nc(Cl)nc(N[C@H]2CCCNC2=O)n1

>  <canonical_smi>  (889) 
CC(C)Oc1nc(Cl)nc(N[C@H]2CCCNC2=O)n1

>  <Set>  (889) 
G2 inactive

>  <Set_type>  (889) 
Train

>  <MW>  (889) 
285.74

>  <HBD>  (889) 
2

>  <HBA>  (889) 
6

>  <NRB>  (889) 
4

>  <NR>  (889) 
2

>  <NAR>  (889) 
1

>  <PSA>  (889) 
89.03

>  <Standard Type>  (889) 
nan

>  <Standard Relation>  (889) 
nan

>  <Standard Units>  (889) 
nan

>  <Standard Value>  (889) 
nan

>  <Assay ChEMBL ID>  (889) 
nan

>  <Assay Description>  (889) 
nan

>  <BAO Label>  (889) 
nan

$$$$

     RDKit          2D

 21 23  0  0  0  0  0  0  0  0999 V2000
    0.7500   -3.8971    0.0000 N   0  0  0  0  0  0  0  0  0  0  0  0
    1.5000   -2.5981    0.0000 C   0  0  0  0  0  0  0  0  0  0  0  0
    3.0000   -2.5981    0.0000 N   0  0  0  0  0  0  0  0  0  0  0  0
    3.7500   -1.2990    0.0000 O   0  0  0  0  0  0  0  0  0  0  0  0
    5.2500   -1.2990    0.0000 C   0  0  0  0  0  0  0  0  0  0  0  0
    6.0000   -0.0000    0.0000 C   0  0  0  0  0  0  0  0  0  0  0  0
    5.3899    1.3703    0.0000 N   0  0  0  0  0  0  0  0  0  0  0  0
    6.5046    2.3740    0.0000 O   0  0  0  0  0  0  0  0  0  0  0  0
    7.8037    1.6240    0.0000 C   0  0  0  0  0  0  0  0  0  0  0  0
    9.1740    2.2341    0.0000 C   0  0  0  0  0  0  0  0  0  0  0  0
    9.4858    3.7013    0.0000 C   0  0  0  0  0  0  0  0  0  0  0  0
   10.9776    3.8581    0.0000 C   0  0  0  0  0  0  0  0  0  0  0  0
   11.5877    2.4878    0.0000 O   0  0  0  0  0  0  0  0  0  0  0  0
   10.4730    1.4841    0.0000 C   0  0  0  0  0  0  0  0  0  0  0  0
    7.4918    0.1568    0.0000 N   0  0  0  0  0  0  0  0  0  0  0  0
    0.7500   -1.2990    0.0000 C   0  0  0  0  0  0  0  0  0  0  0  0
    1.5000    0.0000    0.0000 C   0  0  0  0  0  0  0  0  0  0  0  0
    0.7500    1.2990    0.0000 C   0  0  0  0  0  0  0  0  0  0  0  0
   -0.7500    1.2990    0.0000 C   0  0  0  0  0  0  0  0  0  0  0  0
   -1.5000    0.0000    0.0000 C   0  0  0  0  0  0  0  0  0  0  0  0
   -0.7500   -1.2990    0.0000 C   0  0  0  0  0  0  0  0  0  0  0  0
  1  2  1  0
  2  3  2  0
  3  4  1  0
  4  5  1  0
  5  6  1  0
  6  7  2  0
  7  8  1  0
  8  9  1  0
  9 10  1  0
 10 11  1  0
 11 12  2  0
 12 13  1  0
 13 14  1  0
  9 15  2  0
  2 16  1  0
 16 17  1  0
 17 18  1  0
 18 19  1  0
 19 20  1  0
 20 21  1  0
 15  6  1  0
 21 16  1  0
 14 10  2  0
M  END
>  <Compound_ID>  (890) 
C67098791

>  <Active>  (890) 
0.0

>  <Smiles>  (890) 
N/C(=N/OCc1noc(-c2ccoc2)n1)C1CCCCC1

>  <canonical_smi>  (890) 
N/C(=N/OCc1noc(-c2ccoc2)n1)C1CCCCC1

>  <Set>  (890) 
G2 inactive

>  <Set_type>  (890) 
Train

>  <MW>  (890) 
290.32

>  <HBD>  (890) 
1

>  <HBA>  (890) 
6

>  <NRB>  (890) 
5

>  <NR>  (890) 
3

>  <NAR>  (890) 
2

>  <PSA>  (890) 
99.67

>  <Standard Type>  (890) 
nan

>  <Standard Relation>  (890) 
nan

>  <Standard Units>  (890) 
nan

>  <Standard Value>  (890) 
nan

>  <Assay ChEMBL ID>  (890) 
nan

>  <Assay Description>  (890) 
nan

>  <BAO Label>  (890) 
nan

$$$$

     RDKit          2D

 37 39  0  0  0  0  0  0  0  0999 V2000
    1.5000  -10.3923    0.0000 C   0  0  0  0  0  0  0  0  0  0  0  0
    0.7500   -9.0933    0.0000 C   0  0  0  0  0  0  0  0  0  0  0  0
   -0.7500   -9.0933    0.0000 C   0  0  0  0  0  0  0  0  0  0  0  0
    1.5000   -7.7942    0.0000 C   0  0  0  0  0  0  0  0  0  0  0  0
    0.7500   -6.4952    0.0000 C   0  0  0  0  0  0  0  0  0  0  0  0
    1.5000   -5.1962    0.0000 N   0  0  0  0  0  0  0  0  0  0  0  0
    0.7500   -3.8971    0.0000 C   0  0  0  0  0  0  0  0  0  0  0  0
   -0.7500   -3.8971    0.0000 O   0  0  0  0  0  0  0  0  0  0  0  0
    1.5000   -2.5981    0.0000 C   0  0  0  0  0  0  0  0  0  0  0  0
    0.7500   -1.2990    0.0000 C   0  0  0  0  0  0  0  0  0  0  0  0
    1.5000    0.0000    0.0000 C   0  0  0  0  0  0  0  0  0  0  0  0
    0.7500    1.2990    0.0000 C   0  0  0  0  0  0  0  0  0  0  0  0
   -0.7500    1.2990    0.0000 C   0  0  0  0  0  0  0  0  0  0  0  0
   -1.5000    2.5981    0.0000 N   0  0  0  0  0  0  0  0  0  0  0  0
   -0.7500    3.8971    0.0000 C   0  0  0  0  0  0  0  0  0  0  0  0
   -3.0000    2.5981    0.0000 C   0  0  0  0  0  0  0  0  0  0  0  0
   -1.5000    0.0000    0.0000 C   0  0  0  0  0  0  0  0  0  0  0  0
   -0.7500   -1.2990    0.0000 C   0  0  0  0  0  0  0  0  0  0  0  0
    3.0000   -2.5981    0.0000 N   0  0  0  0  0  0  0  0  0  0  0  0
    3.7500   -1.2990    0.0000 C   0  0  0  0  0  0  0  0  0  0  0  0
    3.0000   -0.0000    0.0000 O   0  0  0  0  0  0  0  0  0  0  0  0
    5.2500   -1.2990    0.0000 C   0  0  0  0  0  0  0  0  0  0  0  0
    6.1317   -2.5126    0.0000 S   0  0  0  0  0  0  0  0  0  0  0  0
    7.5583   -2.0490    0.0000 N   0  0  0  0  0  0  0  0  0  0  0  0
    7.5583   -0.5490    0.0000 C   0  0  0  0  0  0  0  0  0  0  0  0
    8.7718    0.3326    0.0000 C   0  0  0  0  0  0  0  0  0  0  0  0
   10.1421   -0.2775    0.0000 N   0  0  0  0  0  0  0  0  0  0  0  0
    8.6150    1.8244    0.0000 O   0  0  0  0  0  0  0  0  0  0  0  0
    6.1317   -0.0855    0.0000 C   0  0  0  0  0  0  0  0  0  0  0  0
    5.6682    1.3411    0.0000 N   0  0  0  0  0  0  0  0  0  0  0  0
    3.7500   -3.8971    0.0000 C   0  0  0  0  0  0  0  0  0  0  0  0
    5.2500   -3.8971    0.0000 C   0  0  0  0  0  0  0  0  0  0  0  0
    6.0000   -5.1962    0.0000 C   0  0  0  0  0  0  0  0  0  0  0  0
    5.2500   -6.4952    0.0000 C   0  0  0  0  0  0  0  0  0  0  0  0
    3.7500   -6.4952    0.0000 C   0  0  0  0  0  0  0  0  0  0  0  0
    3.0000   -7.7942    0.0000 F   0  0  0  0  0  0  0  0  0  0  0  0
    3.0000   -5.1962    0.0000 C   0  0  0  0  0  0  0  0  0  0  0  0
  1  2  1  0
  2  3  1  0
  2  4  1  0
  4  5  1  0
  5  6  1  0
  6  7  1  0
  7  8  2  0
  7  9  1  0
  9 10  1  0
 10 11  2  0
 11 12  1  0
 12 13  2  0
 13 14  1  0
 14 15  1  0
 14 16  1  0
 13 17  1  0
 17 18  2  0
  9 19  1  1
 19 20  1  0
 20 21  2  0
 20 22  1  0
 22 23  1  0
 23 24  1  0
 24 25  2  0
 25 26  1  0
 26 27  1  0
 26 28  2  0
 25 29  1  0
 29 30  1  0
 19 31  1  0
 31 32  2  0
 32 33  1  0
 33 34  2  0
 34 35  1  0
 35 36  1  0
 35 37  2  0
 18 10  1  0
 29 22  2  0
 37 31  1  0
M  END
>  <Compound_ID>  (891) 
C06076908

>  <Active>  (891) 
0.0

>  <Smiles>  (891) 
CC(C)CCNC(=O)[C@@H](c1ccc(N(C)C)cc1)N(C(=O)c1snc(C(N)=O)c1N)c1cccc(F)c1

>  <canonical_smi>  (891) 
CC(C)CCNC(=O)[C@@H](c1ccc(N(C)C)cc1)N(C(=O)c1snc(C(N)=O)c1N)c1cccc(F)c1

>  <Set>  (891) 
G2 inactive

>  <Set_type>  (891) 
Train

>  <MW>  (891) 
526.64

>  <HBD>  (891) 
3

>  <HBA>  (891) 
6

>  <NRB>  (891) 
10

>  <NR>  (891) 
3

>  <NAR>  (891) 
3

>  <PSA>  (891) 
134.65

>  <Standard Type>  (891) 
nan

>  <Standard Relation>  (891) 
nan

>  <Standard Units>  (891) 
nan

>  <Standard Value>  (891) 
nan

>  <Assay ChEMBL ID>  (891) 
nan

>  <Assay Description>  (891) 
nan

>  <BAO Label>  (891) 
nan

$$$$

     RDKit          2D

 20 21  0  0  0  0  0  0  0  0999 V2000
    3.0000    0.0000    0.0000 C   0  0  0  0  0  0  0  0  0  0  0  0
    1.5000    0.0000    0.0000 C   0  0  0  0  0  0  0  0  0  0  0  0
    0.7500   -1.2990    0.0000 C   0  0  0  0  0  0  0  0  0  0  0  0
    1.5000   -2.5981    0.0000 C   0  0  0  0  0  0  0  0  0  0  0  0
   -0.7500   -1.2990    0.0000 C   0  0  0  0  0  0  0  0  0  0  0  0
   -1.5000   -2.5981    0.0000 C   0  0  0  0  0  0  0  0  0  0  0  0
   -1.5000    0.0000    0.0000 C   0  0  0  0  0  0  0  0  0  0  0  0
   -3.0000    0.0000    0.0000 S   0  0  0  0  0  0  0  0  0  0  0  0
   -3.0000    1.5000    0.0000 O   0  0  0  0  0  0  0  0  0  0  0  0
   -3.0000   -1.5000    0.0000 O   0  0  0  0  0  0  0  0  0  0  0  0
   -4.5000    0.0000    0.0000 N   0  0  0  0  0  2  0  0  0  0  0  0
   -5.2500   -1.2990    0.0000 C   0  0  0  0  0  0  0  0  0  0  0  0
   -4.6399   -2.6694    0.0000 N   0  0  0  0  0  0  0  0  0  0  0  0
   -5.7546   -3.6731    0.0000 N   0  0  0  0  0  0  0  0  0  0  0  0
   -7.0537   -2.9231    0.0000 C   0  0  0  0  0  0  0  0  0  0  0  0
   -6.7418   -1.4558    0.0000 N   0  0  0  0  0  0  0  0  0  0  0  0
   -0.7500    1.2990    0.0000 C   0  0  0  0  0  0  0  0  0  0  0  0
   -1.5000    2.5981    0.0000 C   0  0  0  0  0  0  0  0  0  0  0  0
    0.7500    1.2990    0.0000 C   0  0  0  0  0  0  0  0  0  0  0  0
    1.5000    2.5981    0.0000 C   0  0  0  0  0  0  0  0  0  0  0  0
  1  2  1  0
  2  3  2  0
  3  4  1  0
  3  5  1  0
  5  6  1  0
  5  7  2  0
  7  8  1  0
  8  9  2  0
  8 10  2  0
  8 11  1  0
 11 12  1  0
 12 13  2  0
 13 14  1  0
 14 15  2  0
 15 16  1  0
  7 17  1  0
 17 18  1  0
 17 19  2  0
 19 20  1  0
 19  2  1  0
 16 12  1  0
M  CHG  1  11  -1
M  END
>  <Compound_ID>  (892) 
C61844929

>  <Active>  (892) 
0.0

>  <Smiles>  (892) 
Cc1c(C)c(C)c(S(=O)(=O)[N-]c2nnc[nH]2)c(C)c1C

>  <canonical_smi>  (892) 
Cc1c(C)c(C)c(S(=O)(=O)[N-]c2nnc[nH]2)c(C)c1C

>  <Set>  (892) 
G2 inactive

>  <Set_type>  (892) 
Train

>  <MW>  (892) 
293.37

>  <HBD>  (892) 
1

>  <HBA>  (892) 
4

>  <NRB>  (892) 
3

>  <NR>  (892) 
2

>  <NAR>  (892) 
2

>  <PSA>  (892) 
89.81

>  <Standard Type>  (892) 
nan

>  <Standard Relation>  (892) 
nan

>  <Standard Units>  (892) 
nan

>  <Standard Value>  (892) 
nan

>  <Assay ChEMBL ID>  (892) 
nan

>  <Assay Description>  (892) 
nan

>  <BAO Label>  (892) 
nan

$$$$

     RDKit          2D

 19 21  0  0  0  0  0  0  0  0999 V2000
    3.0000    0.0000    0.0000 Br  0  0  0  0  0  0  0  0  0  0  0  0
    1.5000    0.0000    0.0000 C   0  0  0  0  0  0  0  0  0  0  0  0
    0.7500   -1.2990    0.0000 C   0  0  0  0  0  0  0  0  0  0  0  0
   -0.7500   -1.2990    0.0000 C   0  0  0  0  0  0  0  0  0  0  0  0
   -1.5000    0.0000    0.0000 C   0  0  0  0  0  0  0  0  0  0  0  0
   -3.0000    0.0000    0.0000 N   0  0  0  0  0  0  0  0  0  0  0  0
   -3.8817   -1.2135    0.0000 N   0  0  0  0  0  0  0  0  0  0  0  0
   -5.3083   -0.7500    0.0000 N   0  0  0  0  0  4  0  0  0  0  0  0
   -5.3083    0.7500    0.0000 N   0  0  0  0  0  0  0  0  0  0  0  0
   -3.8817    1.2135    0.0000 C   0  0  0  0  0  0  0  0  0  0  0  0
   -3.4182    2.6401    0.0000 C   0  0  0  0  0  0  0  0  0  0  0  0
   -4.4218    3.7548    0.0000 S   0  0  0  0  0  0  0  0  0  0  0  0
   -3.9583    5.1814    0.0000 C   0  0  0  0  0  0  0  0  0  0  0  0
   -4.8400    6.3949    0.0000 N   0  0  0  0  0  0  0  0  0  0  0  0
   -3.9583    7.6085    0.0000 C   0  0  0  0  0  0  0  0  0  0  0  0
   -2.5317    7.1449    0.0000 N   0  0  0  0  0  0  0  0  0  0  0  0
   -2.5317    5.6449    0.0000 N   0  0  0  0  0  0  0  0  0  0  0  0
   -0.7500    1.2990    0.0000 C   0  0  0  0  0  0  0  0  0  0  0  0
    0.7500    1.2990    0.0000 C   0  0  0  0  0  0  0  0  0  0  0  0
  1  2  1  0
  2  3  2  0
  3  4  1  0
  4  5  2  0
  5  6  1  0
  6  7  1  0
  7  8  1  0
  8  9  1  0
  9 10  1  0
 10 11  1  6
 11 12  1  0
 12 13  1  0
 13 14  1  0
 14 15  2  0
 15 16  1  0
 16 17  1  0
  5 18  1  0
 18 19  2  0
 19  2  1  0
 10  6  1  0
 17 13  2  0
M  CHG  1   8   1
M  END
>  <Compound_ID>  (893) 
C39583039

>  <Active>  (893) 
0.0

>  <Smiles>  (893) 
Brc1ccc(N2N[NH2+]N[C@@H]2CSc2nc[nH]n2)cc1

>  <canonical_smi>  (893) 
Brc1ccc(N2N[NH2+]N[C@@H]2CSc2nc[nH]n2)cc1

>  <Set>  (893) 
G2 inactive

>  <Set_type>  (893) 
Train

>  <MW>  (893) 
343.23

>  <HBD>  (893) 
4

>  <HBA>  (893) 
6

>  <NRB>  (893) 
4

>  <NR>  (893) 
3

>  <NAR>  (893) 
2

>  <PSA>  (893) 
85.48

>  <Standard Type>  (893) 
nan

>  <Standard Relation>  (893) 
nan

>  <Standard Units>  (893) 
nan

>  <Standard Value>  (893) 
nan

>  <Assay ChEMBL ID>  (893) 
nan

>  <Assay Description>  (893) 
nan

>  <BAO Label>  (893) 
nan

$$$$

     RDKit          2D

 26 31  0  0  0  0  0  0  0  0999 V2000
   -1.7321   -3.0000    0.0000 O   0  0  0  0  0  0  0  0  0  0  0  0
   -1.7321   -1.5000    0.0000 C   0  0  0  0  0  0  0  0  0  0  0  0
   -3.0311   -0.7500    0.0000 C   0  0  0  0  0  0  0  0  0  0  0  0
   -3.0311    0.7500    0.0000 C   0  0  0  0  0  0  0  0  0  0  0  0
   -1.7321    1.5000    0.0000 C   0  0  0  0  0  0  0  0  0  0  0  0
   -0.4330    2.2500    0.0000 O   0  0  0  0  0  0  0  0  0  0  0  0
   -0.4330    3.7500    0.0000 C   0  0  0  0  0  0  0  0  0  0  0  0
    0.8660    4.5000    0.0000 C   0  0  0  0  0  0  0  0  0  0  0  0
    0.8660    6.0000    0.0000 C   0  0  0  0  0  0  0  0  0  0  0  0
   -0.4330    6.7500    0.0000 C   0  0  0  0  0  0  0  0  0  0  0  0
   -1.7321    6.0000    0.0000 C   0  0  0  0  0  0  0  0  0  0  0  0
   -3.0311    6.7500    0.0000 C   0  0  0  0  0  0  0  0  0  0  0  0
   -4.3301    6.0000    0.0000 C   0  0  0  0  0  0  0  0  0  0  0  0
   -4.3301    4.5000    0.0000 C   0  0  0  0  0  0  0  0  0  0  0  0
   -3.0311    3.7500    0.0000 C   0  0  0  0  0  0  0  0  0  0  0  0
   -1.7321    4.5000    0.0000 C   0  0  0  0  0  0  0  0  0  0  0  0
   -3.0311    2.2500    0.0000 O   0  0  0  0  0  0  0  0  0  0  0  0
   -0.4330    0.7500    0.0000 C   0  0  0  0  0  0  0  0  0  0  0  0
    0.8660    0.0000    0.0000 O   0  0  0  0  0  0  0  0  0  0  0  0
   -0.4330   -0.7500    0.0000 C   0  0  0  0  0  0  0  0  0  0  0  0
    0.8660   -1.5000    0.0000 C   0  0  0  0  0  0  0  0  0  0  0  0
    0.8660   -3.0000    0.0000 O   0  0  0  0  0  0  0  0  0  0  0  0
    2.1651   -0.7500    0.0000 C   0  0  0  0  0  0  0  0  0  0  0  0
    2.1651    0.7500    0.0000 C   0  0  0  0  0  0  0  0  0  0  0  0
    0.8660    1.5000    0.0000 C   0  0  0  0  0  0  0  0  0  0  0  0
    0.8660    3.0000    0.0000 O   0  0  0  0  0  0  0  0  0  0  0  0
  2  1  1  6
  2  3  1  0
  3  4  2  0
  4  5  1  0
  5  6  1  0
  6  7  1  0
  7  8  2  0
  8  9  1  0
  9 10  2  0
 10 11  1  0
 11 12  2  0
 12 13  1  0
 13 14  2  0
 14 15  1  0
 15 16  2  0
 15 17  1  0
  5 18  1  0
 18 19  1  1
 20 19  1  1
 20 21  1  0
 21 22  1  6
 21 23  1  0
 23 24  2  0
 24 25  1  0
 25 26  1  6
 20  2  1  0
 17  5  1  0
 20 18  1  0
 16  7  1  0
 25 18  1  0
 16 11  1  0
M  END
>  <Compound_ID>  (894) 
C35458081

>  <Active>  (894) 
0.0

>  <Smiles>  (894) 
O[C@@H]1C=CC2(Oc3cccc4cccc(c34)O2)[C@@]23O[C@@]12[C@@H](O)C=C[C@H]3O

>  <canonical_smi>  (894) 
O[C@H]1C=C[C@@H](O)[C@]23O[C@]12[C@H](O)C=CC31Oc2cccc3cccc(c23)O1

>  <Set>  (894) 
G2 inactive

>  <Set_type>  (894) 
Train

>  <MW>  (894) 
352.34

>  <HBD>  (894) 
3

>  <HBA>  (894) 
6

>  <NRB>  (894) 
0

>  <NR>  (894) 
6

>  <NAR>  (894) 
2

>  <PSA>  (894) 
91.68

>  <Standard Type>  (894) 
nan

>  <Standard Relation>  (894) 
nan

>  <Standard Units>  (894) 
nan

>  <Standard Value>  (894) 
nan

>  <Assay ChEMBL ID>  (894) 
nan

>  <Assay Description>  (894) 
nan

>  <BAO Label>  (894) 
nan

$$$$

     RDKit          2D

 22 24  0  0  0  0  0  0  0  0999 V2000
   -6.1170   -9.6487    0.0000 C   0  0  0  0  0  0  0  0  0  0  0  0
   -4.6904   -9.1852    0.0000 C   0  0  0  0  0  0  0  0  0  0  0  0
   -3.5757  -10.1889    0.0000 C   0  0  0  0  0  0  0  0  0  0  0  0
   -4.3786   -7.7180    0.0000 C   0  0  0  0  0  0  0  0  0  0  0  0
   -2.9520   -7.2544    0.0000 N   0  0  0  0  0  0  0  0  0  0  0  0
   -1.8373   -8.2581    0.0000 O   0  0  0  0  0  0  0  0  0  0  0  0
   -2.6401   -5.7872    0.0000 C   0  0  0  0  0  0  0  0  0  0  0  0
   -3.7548   -4.7835    0.0000 O   0  0  0  0  0  0  0  0  0  0  0  0
   -1.2135   -5.3237    0.0000 C   0  0  0  0  0  0  0  0  0  0  0  0
   -0.0000   -6.2054    0.0000 C   0  0  0  0  0  0  0  0  0  0  0  0
    1.2135   -5.3237    0.0000 C   0  0  0  0  0  0  0  0  0  0  0  0
    2.6401   -5.7872    0.0000 Br  0  0  0  0  0  0  0  0  0  0  0  0
    0.7500   -3.8971    0.0000 C   0  0  0  0  0  0  0  0  0  0  0  0
    1.5000   -2.5981    0.0000 N   0  0  0  0  0  0  0  0  0  0  0  0
    0.7500   -1.2990    0.0000 C   0  0  0  0  0  0  0  0  0  0  0  0
    1.5000    0.0000    0.0000 C   0  0  0  0  0  0  0  0  0  0  0  0
    0.7500    1.2990    0.0000 C   0  0  0  0  0  0  0  0  0  0  0  0
   -0.7500    1.2990    0.0000 C   0  0  0  0  0  0  0  0  0  0  0  0
   -1.5000    0.0000    0.0000 C   0  0  0  0  0  0  0  0  0  0  0  0
   -0.7500   -1.2990    0.0000 C   0  0  0  0  0  0  0  0  0  0  0  0
   -1.5000   -2.5981    0.0000 C   0  0  0  0  0  0  0  0  0  0  0  0
   -0.7500   -3.8971    0.0000 N   0  0  0  0  0  4  0  0  0  0  0  0
  1  2  1  0
  2  3  1  0
  2  4  1  0
  4  5  1  0
  5  6  1  0
  5  7  1  0
  7  8  2  0
  9  7  1  1
  9 10  1  0
 10 11  1  0
 11 12  1  0
 11 13  2  0
 13 14  1  0
 14 15  1  0
 15 16  2  0
 16 17  1  0
 17 18  2  0
 18 19  1  0
 19 20  2  0
 20 21  1  0
 21 22  1  0
 22  9  1  0
 22 13  1  0
 20 15  1  0
M  CHG  1  22   1
M  END
>  <Compound_ID>  (895) 
C39544882

>  <Active>  (895) 
0.0

>  <Smiles>  (895) 
CC(C)CN(O)C(=O)[C@@H]1CC(Br)=C2Nc3ccccc3C[NH+]21

>  <canonical_smi>  (895) 
CC(C)CN(O)C(=O)[C@@H]1CC(Br)=C2Nc3ccccc3C[NH+]21

>  <Set>  (895) 
G2 inactive

>  <Set_type>  (895) 
Train

>  <MW>  (895) 
367.27

>  <HBD>  (895) 
3

>  <HBA>  (895) 
3

>  <NRB>  (895) 
3

>  <NR>  (895) 
3

>  <NAR>  (895) 
1

>  <PSA>  (895) 
57.01

>  <Standard Type>  (895) 
nan

>  <Standard Relation>  (895) 
nan

>  <Standard Units>  (895) 
nan

>  <Standard Value>  (895) 
nan

>  <Assay ChEMBL ID>  (895) 
nan

>  <Assay Description>  (895) 
nan

>  <BAO Label>  (895) 
nan

$$$$

     RDKit          2D

 25 27  0  0  0  0  0  0  0  0999 V2000
    0.7500   -1.2990    0.0000 O   0  0  0  0  0  0  0  0  0  0  0  0
    1.5000   -2.5981    0.0000 C   0  0  0  0  0  0  0  0  0  0  0  0
    3.0000   -2.5981    0.0000 C   0  0  0  0  0  0  0  0  0  0  0  0
    3.7500   -3.8971    0.0000 C   0  0  0  0  0  0  0  0  0  0  0  0
    5.2500   -3.8971    0.0000 C   0  0  0  0  0  0  0  0  0  0  0  0
    6.0000   -2.5981    0.0000 C   0  0  0  0  0  0  0  0  0  0  0  0
    5.2500   -1.2990    0.0000 N   0  0  0  0  0  0  0  0  0  0  0  0
    3.7500   -1.2990    0.0000 C   0  0  0  0  0  0  0  0  0  0  0  0
    0.7500   -3.8971    0.0000 C   0  0  0  0  0  0  0  0  0  0  0  0
   -0.7500   -3.8971    0.0000 C   0  0  0  0  0  0  0  0  0  0  0  0
   -1.5000   -2.5981    0.0000 C   0  0  0  0  0  0  0  0  0  0  0  0
   -0.8899   -1.2278    0.0000 C   0  0  0  0  0  0  0  0  0  0  0  0
   -2.0046   -0.2241    0.0000 C   0  0  0  0  0  0  0  0  0  0  0  0
   -3.3037   -0.9741    0.0000 S   0  0  0  0  0  0  0  0  0  0  0  0
   -2.9918   -2.4413    0.0000 C   0  0  0  0  0  0  0  0  0  0  0  0
   -1.5000   -5.1962    0.0000 N   0  0  0  0  0  0  0  0  0  0  0  0
   -0.7500   -6.4952    0.0000 C   0  0  0  0  0  0  0  0  0  0  0  0
   -1.5000   -7.7942    0.0000 S   0  0  0  0  0  0  0  0  0  0  0  0
    0.7500   -6.4952    0.0000 N   0  0  0  0  0  0  0  0  0  0  0  0
    1.5000   -5.1962    0.0000 C   0  0  0  0  0  0  0  0  0  0  0  0
    2.6491   -6.1603    0.0000 O   0  0  0  0  0  0  0  0  0  0  0  0
    2.6491   -4.2320    0.0000 C   0  0  0  0  0  0  0  0  0  0  0  0
    3.3656   -3.8826    0.0000 F   0  0  0  0  0  0  0  0  0  0  0  0
    1.9916   -2.8837    0.0000 F   0  0  0  0  0  0  0  0  0  0  0  0
    3.6132   -5.3810    0.0000 F   0  0  0  0  0  0  0  0  0  0  0  0
  1  2  2  0
  2  3  1  0
  3  4  2  0
  4  5  1  0
  5  6  2  0
  6  7  1  0
  7  8  2  0
  9  2  1  1
  9 10  1  0
 10 11  1  6
 11 12  1  0
 12 13  2  0
 13 14  1  0
 14 15  1  0
 10 16  1  0
 16 17  1  0
 17 18  2  0
 17 19  1  0
 19 20  1  0
 20 21  1  6
 20 22  1  0
 22 23  1  0
 22 24  1  0
 22 25  1  0
  8  3  1  0
 20  9  1  0
 15 11  2  0
M  END
>  <Compound_ID>  (896) 
C56054058

>  <Active>  (896) 
0.0

>  <Smiles>  (896) 
O=C(c1cccnc1)[C@@H]1[C@@H](c2ccsc2)NC(=S)N[C@]1(O)C(F)(F)F

>  <canonical_smi>  (896) 
O=C(c1cccnc1)[C@@H]1[C@@H](c2ccsc2)NC(=S)N[C@]1(O)C(F)(F)F

>  <Set>  (896) 
G2 inactive

>  <Set_type>  (896) 
Train

>  <MW>  (896) 
387.41

>  <HBD>  (896) 
3

>  <HBA>  (896) 
6

>  <NRB>  (896) 
3

>  <NR>  (896) 
3

>  <NAR>  (896) 
2

>  <PSA>  (896) 
74.25

>  <Standard Type>  (896) 
nan

>  <Standard Relation>  (896) 
nan

>  <Standard Units>  (896) 
nan

>  <Standard Value>  (896) 
nan

>  <Assay ChEMBL ID>  (896) 
nan

>  <Assay Description>  (896) 
nan

>  <BAO Label>  (896) 
nan

$$$$

     RDKit          2D

 16 17  0  0  0  0  0  0  0  0999 V2000
   -3.7500   -6.4952    0.0000 C   0  0  0  0  0  0  0  0  0  0  0  0
   -3.0000   -5.1962    0.0000 O   0  0  0  0  0  0  0  0  0  0  0  0
   -1.5000   -5.1962    0.0000 C   0  0  0  0  0  0  0  0  0  0  0  0
   -0.7500   -3.8971    0.0000 C   0  0  0  0  0  0  0  0  0  0  0  0
    0.7500   -3.8971    0.0000 C   0  0  0  0  0  0  0  0  0  0  0  0
    1.5000   -2.5981    0.0000 C   0  0  0  0  0  0  0  0  0  0  0  0
    3.0000   -2.5981    0.0000 N   0  0  0  0  0  0  0  0  0  0  0  0
    3.7500   -3.8971    0.0000 N   0  0  0  0  0  0  0  0  0  0  0  0
    0.7500   -1.2990    0.0000 C   0  0  0  0  0  0  0  0  0  0  0  0
    1.5000    0.0000    0.0000 C   0  0  0  0  0  0  0  0  0  0  0  0
    0.7500    1.2990    0.0000 C   0  0  0  0  0  0  0  0  0  0  0  0
   -0.7500    1.2990    0.0000 C   0  0  0  0  0  0  0  0  0  0  0  0
   -1.5000    0.0000    0.0000 C   0  0  0  0  0  0  0  0  0  0  0  0
   -3.0000    0.0000    0.0000 I   0  0  0  0  0  0  0  0  0  0  0  0
   -0.7500   -1.2990    0.0000 C   0  0  0  0  0  0  0  0  0  0  0  0
   -1.5000   -2.5981    0.0000 N   0  0  0  0  0  4  0  0  0  0  0  0
  1  2  1  0
  2  3  1  0
  3  4  1  0
  4  5  2  0
  5  6  1  0
  6  7  1  0
  7  8  1  0
  6  9  2  0
  9 10  1  0
 10 11  2  0
 11 12  1  0
 12 13  2  0
 13 14  1  0
 13 15  1  0
 15 16  2  0
 16  4  1  0
 15  9  1  0
M  CHG  1  16   1
M  END
>  <Compound_ID>  (897) 
C51699844

>  <Active>  (897) 
0.0

>  <Smiles>  (897) 
COCc1cc(NN)c2cccc(I)c2[nH+]1

>  <canonical_smi>  (897) 
COCc1cc(NN)c2cccc(I)c2[nH+]1

>  <Set>  (897) 
G2 inactive

>  <Set_type>  (897) 
Train

>  <MW>  (897) 
330.15

>  <HBD>  (897) 
2

>  <HBA>  (897) 
3

>  <NRB>  (897) 
3

>  <NR>  (897) 
2

>  <NAR>  (897) 
2

>  <PSA>  (897) 
61.42

>  <Standard Type>  (897) 
nan

>  <Standard Relation>  (897) 
nan

>  <Standard Units>  (897) 
nan

>  <Standard Value>  (897) 
nan

>  <Assay ChEMBL ID>  (897) 
nan

>  <Assay Description>  (897) 
nan

>  <BAO Label>  (897) 
nan

$$$$

     RDKit          2D

 25 28  0  0  0  0  0  0  0  0999 V2000
    2.2500   -6.4952    0.0000 O   0  0  0  0  0  0  0  0  0  0  0  0
    0.7500   -6.4952    0.0000 C   0  0  0  0  0  0  0  0  0  0  0  0
   -0.0000   -7.7942    0.0000 C   0  0  0  0  0  0  0  0  0  0  0  0
   -1.5000   -7.7942    0.0000 C   0  0  0  0  0  0  0  0  0  0  0  0
   -2.2500   -6.4952    0.0000 C   0  0  0  0  0  0  0  0  0  0  0  0
   -3.7500   -6.4952    0.0000 Cl  0  0  0  0  0  0  0  0  0  0  0  0
   -1.5000   -5.1962    0.0000 C   0  0  0  0  0  0  0  0  0  0  0  0
   -0.0000   -5.1962    0.0000 C   0  0  0  0  0  0  0  0  0  0  0  0
    0.7500   -3.8971    0.0000 C   0  0  0  0  0  0  0  0  0  0  0  0
    2.2500   -3.8971    0.0000 C   0  0  0  0  0  0  0  0  0  0  0  0
    3.0000   -2.5981    0.0000 C   0  0  0  0  0  0  0  0  0  0  0  0
    4.5000   -2.5981    0.0000 C   0  0  0  0  0  0  0  0  0  0  0  0
    5.2500   -3.8971    0.0000 C   0  0  0  0  0  0  0  0  0  0  0  0
    6.7500   -3.8971    0.0000 C   0  0  0  0  0  0  0  0  0  0  0  0
    7.5000   -2.5981    0.0000 C   0  0  0  0  0  0  0  0  0  0  0  0
    6.7500   -1.2990    0.0000 C   0  0  0  0  0  0  0  0  0  0  0  0
    5.2500   -1.2990    0.0000 C   0  0  0  0  0  0  0  0  0  0  0  0
    2.2500   -1.2990    0.0000 N   0  0  0  0  0  0  0  0  0  0  0  0
    0.7500   -1.2990    0.0000 C   0  0  0  0  0  0  0  0  0  0  0  0
    1.5000    0.0000    0.0000 C   0  0  0  0  0  0  0  0  0  0  0  0
    0.7500    1.2990    0.0000 C   0  0  0  0  0  0  0  0  0  0  0  0
   -0.7500    1.2990    0.0000 N   0  0  0  0  0  4  0  0  0  0  0  0
   -1.5000    0.0000    0.0000 C   0  0  0  0  0  0  0  0  0  0  0  0
   -0.7500   -1.2990    0.0000 C   0  0  0  0  0  0  0  0  0  0  0  0
   -0.0000   -2.5981    0.0000 N   0  0  0  0  0  0  0  0  0  0  0  0
  1  2  1  0
  2  3  2  0
  3  4  1  0
  4  5  2  0
  5  6  1  0
  5  7  1  0
  7  8  2  0
  9  8  1  1
  9 10  1  0
 10 11  1  0
 11 12  1  0
 12 13  2  0
 13 14  1  0
 14 15  2  0
 15 16  1  0
 16 17  2  0
 11 18  2  0
 18 19  1  0
 19 20  1  0
 20 21  1  0
 21 22  1  0
 22 23  1  0
 23 24  1  0
 19 25  1  0
  8  2  1  0
 25  9  1  0
 17 12  1  0
 24 19  1  0
M  CHG  1  22   1
M  END
>  <Compound_ID>  (898) 
C65297969

>  <Active>  (898) 
0.0

>  <Smiles>  (898) 
Oc1ccc(Cl)cc1[C@@H]1CC(c2ccccc2)=NC2(CC[NH2+]CC2)N1

>  <canonical_smi>  (898) 
Oc1ccc(Cl)cc1[C@@H]1CC(c2ccccc2)=NC2(CC[NH2+]CC2)N1

>  <Set>  (898) 
G2 inactive

>  <Set_type>  (898) 
Train

>  <MW>  (898) 
356.88

>  <HBD>  (898) 
3

>  <HBA>  (898) 
2

>  <NRB>  (898) 
2

>  <NR>  (898) 
4

>  <NAR>  (898) 
2

>  <PSA>  (898) 
61.23

>  <Standard Type>  (898) 
nan

>  <Standard Relation>  (898) 
nan

>  <Standard Units>  (898) 
nan

>  <Standard Value>  (898) 
nan

>  <Assay ChEMBL ID>  (898) 
nan

>  <Assay Description>  (898) 
nan

>  <BAO Label>  (898) 
nan

$$$$

     RDKit          2D

 21 22  0  0  0  0  0  0  0  0999 V2000
    3.0000    0.0000    0.0000 C   0  0  0  0  0  0  0  0  0  0  0  0
    1.5000    0.0000    0.0000 C   0  0  0  0  0  0  0  0  0  0  0  0
    0.7500   -1.2990    0.0000 C   0  0  0  0  0  0  0  0  0  0  0  0
   -0.7500   -1.2990    0.0000 C   0  0  0  0  0  0  0  0  0  0  0  0
   -1.5000   -2.5981    0.0000 C   0  0  0  0  0  0  0  0  0  0  0  0
   -1.5000    0.0000    0.0000 C   0  0  0  0  0  0  0  0  0  0  0  0
   -3.0000    0.0000    0.0000 C   0  0  0  0  0  0  0  0  0  0  0  0
   -3.7500   -1.2990    0.0000 N   0  0  0  0  0  0  0  0  0  0  0  0
   -3.7500    1.2990    0.0000 N   0  0  0  0  0  0  0  0  0  0  0  0
   -5.2500    1.2990    0.0000 O   0  0  0  0  0  0  0  0  0  0  0  0
   -0.7500    1.2990    0.0000 C   0  0  0  0  0  0  0  0  0  0  0  0
   -1.5000    2.5981    0.0000 N   0  0  0  0  0  0  0  0  0  0  0  0
   -3.0000    2.5981    0.0000 C   0  0  0  0  0  0  0  0  0  0  0  0
   -3.7500    3.8971    0.0000 C   0  0  0  0  0  0  0  0  0  0  0  0
   -5.2500    3.8971    0.0000 O   0  0  0  0  0  0  0  0  0  0  0  0
   -0.7500    3.8971    0.0000 C   0  0  0  0  0  0  0  0  0  0  0  0
    0.7418    4.0539    0.0000 C   0  0  0  0  0  0  0  0  0  0  0  0
    1.0537    5.5211    0.0000 C   0  0  0  0  0  0  0  0  0  0  0  0
   -0.2454    6.2711    0.0000 C   0  0  0  0  0  0  0  0  0  0  0  0
   -1.3601    5.2674    0.0000 C   0  0  0  0  0  0  0  0  0  0  0  0
    0.7500    1.2990    0.0000 N   0  0  0  0  0  4  0  0  0  0  0  0
  1  2  1  0
  2  3  2  0
  3  4  1  0
  4  5  1  0
  4  6  2  0
  6  7  1  0
  7  8  1  0
  7  9  2  0
  9 10  1  0
  6 11  1  0
 11 12  1  0
 12 13  1  0
 13 14  1  0
 14 15  1  0
 12 16  1  0
 16 17  1  0
 17 18  1  0
 18 19  1  0
 19 20  1  0
 11 21  2  0
 21  2  1  0
 20 16  1  0
M  CHG  1  21   1
M  END
>  <Compound_ID>  (899) 
C42507299

>  <Active>  (899) 
0.0

>  <Smiles>  (899) 
Cc1cc(C)c(/C(N)=N/O)c(N(CCO)C2CCCC2)[nH+]1

>  <canonical_smi>  (899) 
Cc1cc(C)c(/C(N)=N/O)c(N(CCO)C2CCCC2)[nH+]1

>  <Set>  (899) 
G2 inactive

>  <Set_type>  (899) 
Train

>  <MW>  (899) 
293.39

>  <HBD>  (899) 
3

>  <HBA>  (899) 
4

>  <NRB>  (899) 
5

>  <NR>  (899) 
2

>  <NAR>  (899) 
1

>  <PSA>  (899) 
96.22

>  <Standard Type>  (899) 
nan

>  <Standard Relation>  (899) 
nan

>  <Standard Units>  (899) 
nan

>  <Standard Value>  (899) 
nan

>  <Assay ChEMBL ID>  (899) 
nan

>  <Assay Description>  (899) 
nan

>  <BAO Label>  (899) 
nan

$$$$

     RDKit          2D

 28 31  0  0  0  0  0  0  0  0999 V2000
    6.0000   -5.1962    0.0000 N   0  0  0  0  0  0  0  0  0  0  0  0
    5.2500   -3.8971    0.0000 C   0  0  0  0  0  0  0  0  0  0  0  0
    6.0000   -2.5981    0.0000 O   0  0  0  0  0  0  0  0  0  0  0  0
    3.7500   -3.8971    0.0000 C   0  0  0  0  0  0  0  0  0  0  0  0
    3.0000   -2.5981    0.0000 C   0  0  0  0  0  0  0  0  0  0  0  0
    3.7500   -1.2990    0.0000 N   0  0  0  0  0  4  0  0  0  0  0  0
    1.5000   -2.5981    0.0000 C   0  0  0  0  0  0  0  0  0  0  0  0
    0.7500   -1.2990    0.0000 C   0  0  0  0  0  0  0  0  0  0  0  0
    1.5000    0.0000    0.0000 C   0  0  0  0  0  0  0  0  0  0  0  0
    0.7500    1.2990    0.0000 C   0  0  0  0  0  0  0  0  0  0  0  0
   -0.7500    1.2990    0.0000 C   0  0  0  0  0  0  0  0  0  0  0  0
   -1.5000    0.0000    0.0000 C   0  0  0  0  0  0  0  0  0  0  0  0
   -0.7500   -1.2990    0.0000 C   0  0  0  0  0  0  0  0  0  0  0  0
   -1.5000   -2.5981    0.0000 C   0  0  0  0  0  0  0  0  0  0  0  0
   -3.0000   -2.5981    0.0000 S   0  0  0  0  0  0  0  0  0  0  0  0
   -3.7500   -1.2990    0.0000 C   0  0  0  0  0  0  0  0  0  0  0  0
   -3.0000    0.0000    0.0000 C   0  0  0  0  0  0  0  0  0  0  0  0
   -3.7500    1.2990    0.0000 C   0  0  0  0  0  0  0  0  0  0  0  0
   -5.2500    1.2990    0.0000 C   0  0  0  0  0  0  0  0  0  0  0  0
   -6.0000    0.0000    0.0000 C   0  0  0  0  0  0  0  0  0  0  0  0
   -5.2500   -1.2990    0.0000 N   0  0  0  0  0  4  0  0  0  0  0  0
   -6.0000   -2.5981    0.0000 O   0  0  0  0  0  1  0  0  0  0  0  0
   -0.7500   -3.8971    0.0000 C   0  0  0  0  0  0  0  0  0  0  0  0
   -1.5000   -5.1962    0.0000 C   0  0  0  0  0  0  0  0  0  0  0  0
   -0.7500   -6.4952    0.0000 C   0  0  0  0  0  0  0  0  0  0  0  0
    0.7500   -6.4952    0.0000 C   0  0  0  0  0  0  0  0  0  0  0  0
    1.5000   -5.1962    0.0000 C   0  0  0  0  0  0  0  0  0  0  0  0
    0.7500   -3.8971    0.0000 C   0  0  0  0  0  0  0  0  0  0  0  0
  1  2  1  0
  2  3  2  0
  2  4  1  0
  4  5  1  0
  5  6  1  1
  5  7  1  0
  7  8  2  0
  8  9  1  0
  9 10  2  0
 10 11  1  0
 11 12  2  0
 12 13  1  0
 13 14  2  0
 14 15  1  0
 15 16  1  0
 16 17  2  0
 17 18  1  0
 18 19  2  0
 19 20  1  0
 20 21  2  0
 21 22  1  0
 14 23  1  0
 23 24  2  0
 24 25  1  0
 25 26  2  0
 26 27  1  0
 27 28  2  0
 28  7  1  0
 13  8  1  0
 21 16  1  0
 28 23  1  0
M  CHG  3   6   1  21   1  22  -1
M  END
>  <Compound_ID>  (900) 
C44254313

>  <Active>  (900) 
0.0

>  <Smiles>  (900) 
NC(=O)C[C@H]([NH3+])c1c2ccccc2c(Sc2cccc[n+]2[O-])c2ccccc12

>  <canonical_smi>  (900) 
NC(=O)C[C@H]([NH3+])c1c2ccccc2c(Sc2cccc[n+]2[O-])c2ccccc12

>  <Set>  (900) 
G2 inactive

>  <Set_type>  (900) 
Train

>  <MW>  (900) 
390.49

>  <HBD>  (900) 
2

>  <HBA>  (900) 
3

>  <NRB>  (900) 
5

>  <NR>  (900) 
4

>  <NAR>  (900) 
4

>  <PSA>  (900) 
97.67

>  <Standard Type>  (900) 
nan

>  <Standard Relation>  (900) 
nan

>  <Standard Units>  (900) 
nan

>  <Standard Value>  (900) 
nan

>  <Assay ChEMBL ID>  (900) 
nan

>  <Assay Description>  (900) 
nan

>  <BAO Label>  (900) 
nan

$$$$

     RDKit          2D

 19 20  0  0  0  0  0  0  0  0999 V2000
    3.0000    0.0000    0.0000 N   0  0  0  0  0  0  0  0  0  0  0  0
    1.5000    0.0000    0.0000 C   0  0  0  0  0  0  0  0  0  0  0  0
    0.7500   -1.2990    0.0000 C   0  0  0  0  0  0  0  0  0  0  0  0
   -0.7500   -1.2990    0.0000 C   0  0  0  0  0  0  0  0  0  0  0  0
   -1.5000   -2.5981    0.0000 O   0  0  0  0  0  0  0  0  0  0  0  0
   -1.5000    0.0000    0.0000 N   0  0  0  0  0  0  0  0  0  0  0  0
   -0.7500    1.2990    0.0000 C   0  0  0  0  0  0  0  0  0  0  0  0
   -1.5000    2.5981    0.0000 S   0  0  0  0  0  0  0  0  0  0  0  0
   -0.7500    3.8971    0.0000 C   0  0  0  0  0  0  0  0  0  0  0  0
   -1.5000    5.1962    0.0000 C   0  0  0  0  0  0  0  0  0  0  0  0
   -2.9918    5.3529    0.0000 C   0  0  0  0  0  0  0  0  0  0  0  0
   -3.3037    6.8202    0.0000 C   0  0  0  0  0  0  0  0  0  0  0  0
   -4.6740    7.4303    0.0000 C   0  0  0  0  0  0  0  0  0  0  0  0
   -6.0443    8.0404    0.0000 C   0  0  0  0  0  0  0  0  0  0  0  0
   -7.4146    8.6505    0.0000 C   0  0  0  0  0  0  0  0  0  0  0  0
   -7.5714   10.1423    0.0000 N   0  0  0  0  0  4  0  0  0  0  0  0
   -2.0046    7.5702    0.0000 C   0  0  0  0  0  0  0  0  0  0  0  0
   -0.8899    6.5665    0.0000 S   0  0  0  0  0  0  0  0  0  0  0  0
    0.7500    1.2990    0.0000 N   0  0  0  0  0  0  0  0  0  0  0  0
  1  2  1  0
  2  3  2  0
  3  4  1  0
  4  5  2  0
  4  6  1  0
  6  7  1  0
  7  8  1  0
  8  9  1  0
  9 10  1  0
 10 11  2  0
 11 12  1  0
 12 13  1  0
 13 14  3  0
 14 15  1  0
 15 16  1  0
 12 17  2  0
 17 18  1  0
  7 19  2  0
 19  2  1  0
 18 10  1  0
M  CHG  1  16   1
M  END
>  <Compound_ID>  (901) 
C43691424

>  <Active>  (901) 
0.0

>  <Smiles>  (901) 
Nc1cc(=O)[nH]c(SCc2cc(C#CC[NH3+])cs2)n1

>  <canonical_smi>  (901) 
Nc1cc(=O)[nH]c(SCc2cc(C#CC[NH3+])cs2)n1

>  <Set>  (901) 
G2 inactive

>  <Set_type>  (901) 
Train

>  <MW>  (901) 
293.4

>  <HBD>  (901) 
3

>  <HBA>  (901) 
4

>  <NRB>  (901) 
3

>  <NR>  (901) 
2

>  <NAR>  (901) 
2

>  <PSA>  (901) 
99.41

>  <Standard Type>  (901) 
nan

>  <Standard Relation>  (901) 
nan

>  <Standard Units>  (901) 
nan

>  <Standard Value>  (901) 
nan

>  <Assay ChEMBL ID>  (901) 
nan

>  <Assay Description>  (901) 
nan

>  <BAO Label>  (901) 
nan

$$$$

     RDKit          2D

 36 38  0  0  0  0  0  0  0  0999 V2000
   13.5000   -0.0000    0.0000 C   0  0  0  0  0  0  0  0  0  0  0  0
   12.7500   -1.2990    0.0000 C   0  0  0  0  0  0  0  0  0  0  0  0
   11.2500   -1.2990    0.0000 C   0  0  0  0  0  0  0  0  0  0  0  0
   10.5000   -2.5981    0.0000 C   0  0  0  0  0  0  0  0  0  0  0  0
    9.0000   -2.5981    0.0000 C   0  0  0  0  0  0  0  0  0  0  0  0
    8.2500   -3.8971    0.0000 C   0  0  0  0  0  0  0  0  0  0  0  0
    6.7500   -3.8971    0.0000 N   0  0  0  0  0  0  0  0  0  0  0  0
    6.0000   -2.5981    0.0000 C   0  0  0  0  0  0  0  0  0  0  0  0
    4.5000   -2.5981    0.0000 O   0  0  0  0  0  0  0  0  0  0  0  0
    6.7500   -1.2990    0.0000 C   0  0  0  0  0  0  0  0  0  0  0  0
    6.1399    0.0713    0.0000 C   0  0  0  0  0  0  0  0  0  0  0  0
    7.2546    1.0750    0.0000 C   0  0  0  0  0  0  0  0  0  0  0  0
    8.5537    0.3250    0.0000 C   0  0  0  0  0  0  0  0  0  0  0  0
    8.2418   -1.1422    0.0000 O   0  0  0  0  0  0  0  0  0  0  0  0
    6.0000   -5.1962    0.0000 C   0  0  0  0  0  0  0  0  0  0  0  0
    4.5000   -5.1962    0.0000 C   0  0  0  0  0  0  0  0  0  0  0  0
    3.7500   -6.4952    0.0000 O   0  0  0  0  0  0  0  0  0  0  0  0
    3.7500   -3.8971    0.0000 N   0  0  0  0  0  0  0  0  0  0  0  0
    2.2500   -3.8971    0.0000 C   0  0  0  0  0  0  0  0  0  0  0  0
    1.5000   -2.5981    0.0000 S   0  0  0  0  0  0  0  0  0  0  0  0
    0.2010   -3.3481    0.0000 O   0  0  0  0  0  0  0  0  0  0  0  0
    2.7990   -1.8481    0.0000 O   0  0  0  0  0  0  0  0  0  0  0  0
    0.7500   -1.2990    0.0000 C   0  0  0  0  0  0  0  0  0  0  0  0
    1.5000    0.0000    0.0000 C   0  0  0  0  0  0  0  0  0  0  0  0
    0.7500    1.2990    0.0000 C   0  0  0  0  0  0  0  0  0  0  0  0
   -0.7500    1.2990    0.0000 C   0  0  0  0  0  0  0  0  0  0  0  0
   -1.5000    2.5981    0.0000 C   0  0  0  0  0  0  0  0  0  0  0  0
   -1.5000    0.0000    0.0000 C   0  0  0  0  0  0  0  0  0  0  0  0
   -0.7500   -1.2990    0.0000 C   0  0  0  0  0  0  0  0  0  0  0  0
    6.7500   -6.4952    0.0000 C   0  0  0  0  0  0  0  0  0  0  0  0
    6.0000   -7.7942    0.0000 C   0  0  0  0  0  0  0  0  0  0  0  0
    6.7500   -9.0933    0.0000 C   0  0  0  0  0  0  0  0  0  0  0  0
    8.2500   -9.0933    0.0000 C   0  0  0  0  0  0  0  0  0  0  0  0
    9.0000   -7.7942    0.0000 C   0  0  0  0  0  0  0  0  0  0  0  0
   10.5000   -7.7942    0.0000 O   0  0  0  0  0  0  0  0  0  0  0  0
    8.2500   -6.4952    0.0000 C   0  0  0  0  0  0  0  0  0  0  0  0
  1  2  1  0
  2  3  1  0
  3  4  1  0
  4  5  1  0
  5  6  1  0
  6  7  1  0
  7  8  1  0
  8  9  2  0
  8 10  1  0
 10 11  2  0
 11 12  1  0
 12 13  2  0
 13 14  1  0
 15  7  1  6
 15 16  1  0
 16 17  2  0
 16 18  1  0
 18 19  1  0
 19 20  1  0
 20 21  2  0
 20 22  2  0
 20 23  1  0
 23 24  2  0
 24 25  1  0
 25 26  2  0
 26 27  1  0
 26 28  1  0
 28 29  2  0
 15 30  1  0
 30 31  2  0
 31 32  1  0
 32 33  2  0
 33 34  1  0
 34 35  1  0
 34 36  2  0
 14 10  1  0
 29 23  1  0
 36 30  1  0
M  END
>  <Compound_ID>  (902) 
C36512934

>  <Active>  (902) 
0.0

>  <Smiles>  (902) 
CCCCCCN(C(=O)c1ccco1)[C@@H](C(=O)NCS(=O)(=O)c1ccc(C)cc1)c1cccc(O)c1

>  <canonical_smi>  (902) 
CCCCCCN(C(=O)c1ccco1)[C@@H](C(=O)NCS(=O)(=O)c1ccc(C)cc1)c1cccc(O)c1

>  <Set>  (902) 
G2 inactive

>  <Set_type>  (902) 
Train

>  <MW>  (902) 
512.63

>  <HBD>  (902) 
2

>  <HBA>  (902) 
6

>  <NRB>  (902) 
12

>  <NR>  (902) 
3

>  <NAR>  (902) 
3

>  <PSA>  (902) 
116.92

>  <Standard Type>  (902) 
nan

>  <Standard Relation>  (902) 
nan

>  <Standard Units>  (902) 
nan

>  <Standard Value>  (902) 
nan

>  <Assay ChEMBL ID>  (902) 
nan

>  <Assay Description>  (902) 
nan

>  <BAO Label>  (902) 
nan

$$$$

     RDKit          2D

 29 33  0  0  0  0  0  0  0  0999 V2000
   -0.0408  -16.4232    0.0000 C   0  0  0  0  0  0  0  0  0  0  0  0
    0.1160  -14.9315    0.0000 C   0  0  0  0  0  0  0  0  0  0  0  0
   -1.0975  -14.0498    0.0000 C   0  0  0  0  0  0  0  0  0  0  0  0
   -0.9408  -12.5580    0.0000 C   0  0  0  0  0  0  0  0  0  0  0  0
    0.4296  -11.9479    0.0000 C   0  0  0  0  0  0  0  0  0  0  0  0
    0.5864  -10.4561    0.0000 C   0  0  0  0  0  0  0  0  0  0  0  0
   -0.6272   -9.5744    0.0000 N   0  0  0  0  0  0  0  0  0  0  0  0
   -0.4704   -8.0826    0.0000 C   0  0  0  0  0  0  0  0  0  0  0  0
    0.8999   -7.4725    0.0000 O   0  0  0  0  0  0  0  0  0  0  0  0
   -1.6839   -7.2010    0.0000 C   0  0  0  0  0  0  0  0  0  0  0  0
   -3.0542   -7.8111    0.0000 C   0  0  0  0  0  0  0  0  0  0  0  0
   -4.2677   -6.9294    0.0000 C   0  0  0  0  0  0  0  0  0  0  0  0
   -4.1110   -5.4376    0.0000 C   0  0  0  0  0  0  0  0  0  0  0  0
   -2.7406   -4.8275    0.0000 N   0  0  0  0  0  0  0  0  0  0  0  0
   -2.5838   -3.3357    0.0000 C   0  0  0  0  0  0  0  0  0  0  0  0
   -3.7974   -2.4540    0.0000 O   0  0  0  0  0  0  0  0  0  0  0  0
   -1.2135   -2.7256    0.0000 C   0  0  0  0  0  0  0  0  0  0  0  0
   -0.7500   -1.2990    0.0000 C   0  0  0  0  0  0  0  0  0  0  0  0
    0.7500   -1.2990    0.0000 C   0  0  0  0  0  0  0  0  0  0  0  0
    1.2135   -2.7256    0.0000 S   0  0  0  0  0  0  0  0  0  0  0  0
   -0.0000   -3.6073    0.0000 C   0  0  0  0  0  0  0  0  0  0  0  0
   -0.1568   -5.0991    0.0000 N   0  0  0  0  0  0  0  0  0  0  0  0
   -1.5271   -5.7092    0.0000 C   0  0  0  0  0  0  0  0  0  0  0  0
    1.5000    0.0000    0.0000 C   0  0  0  0  0  0  0  0  0  0  0  0
    0.7500    1.2990    0.0000 C   0  0  0  0  0  0  0  0  0  0  0  0
   -0.7500    1.2990    0.0000 C   0  0  0  0  0  0  0  0  0  0  0  0
   -1.5000    0.0000    0.0000 C   0  0  0  0  0  0  0  0  0  0  0  0
    1.6431  -12.8296    0.0000 C   0  0  0  0  0  0  0  0  0  0  0  0
    1.4863  -14.3214    0.0000 C   0  0  0  0  0  0  0  0  0  0  0  0
  1  2  1  0
  2  3  2  0
  3  4  1  0
  4  5  2  0
  5  6  1  0
  6  7  1  0
  7  8  1  0
  8  9  2  0
  8 10  1  0
 10 11  2  0
 11 12  1  0
 12 13  2  0
 13 14  1  0
 14 15  1  0
 15 16  2  0
 15 17  1  0
 17 18  1  0
 18 19  2  0
 19 20  1  0
 20 21  1  0
 21 22  1  0
 22 23  2  0
 19 24  1  0
 24 25  1  0
 25 26  1  0
 26 27  1  0
  5 28  1  0
 28 29  2  0
 29  2  1  0
 23 10  1  0
 23 14  1  0
 21 17  2  0
 27 18  1  0
M  END
>  <Compound_ID>  (903) 
C04971760

>  <Active>  (903) 
0.0

>  <Smiles>  (903) 
Cc1ccc(CNC(=O)c2cccn3c(=O)c4c5c(sc4nc23)CCCC5)cc1

>  <canonical_smi>  (903) 
Cc1ccc(CNC(=O)c2cccn3c(=O)c4c5c(sc4nc23)CCCC5)cc1

>  <Set>  (903) 
G2 inactive

>  <Set_type>  (903) 
Train

>  <MW>  (903) 
403.51

>  <HBD>  (903) 
1

>  <HBA>  (903) 
3

>  <NRB>  (903) 
3

>  <NR>  (903) 
5

>  <NAR>  (903) 
4

>  <PSA>  (903) 
63.47

>  <Standard Type>  (903) 
nan

>  <Standard Relation>  (903) 
nan

>  <Standard Units>  (903) 
nan

>  <Standard Value>  (903) 
nan

>  <Assay ChEMBL ID>  (903) 
nan

>  <Assay Description>  (903) 
nan

>  <BAO Label>  (903) 
nan

$$$$

     RDKit          2D

 25 28  0  0  0  0  0  0  0  0999 V2000
   -4.6613    6.0728    0.0000 N   0  0  0  0  0  0  0  0  0  0  0  0
   -3.2910    5.4627    0.0000 C   0  0  0  0  0  0  0  0  0  0  0  0
   -2.0774    6.3444    0.0000 O   0  0  0  0  0  0  0  0  0  0  0  0
   -3.1342    3.9709    0.0000 C   0  0  0  0  0  0  0  0  0  0  0  0
   -4.2489    2.9672    0.0000 N   0  0  0  0  0  0  0  0  0  0  0  0
   -3.6388    1.5969    0.0000 N   0  0  0  0  0  0  0  0  0  0  0  0
   -4.3888    0.2979    0.0000 C   0  0  0  0  0  0  0  0  0  0  0  0
   -5.8888    0.2979    0.0000 C   0  0  0  0  0  0  0  0  0  0  0  0
   -6.6388   -1.0012    0.0000 C   0  0  0  0  0  0  0  0  0  0  0  0
   -5.8888   -2.3002    0.0000 C   0  0  0  0  0  0  0  0  0  0  0  0
   -6.6388   -3.5992    0.0000 S   0  0  0  0  0  0  0  0  0  0  0  0
   -7.3888   -4.8983    0.0000 N   0  0  0  0  0  0  0  0  0  0  0  0
   -7.9378   -2.8492    0.0000 O   0  0  0  0  0  0  0  0  0  0  0  0
   -5.3397   -4.3492    0.0000 O   0  0  0  0  0  0  0  0  0  0  0  0
   -4.3888   -2.3002    0.0000 C   0  0  0  0  0  0  0  0  0  0  0  0
   -3.6388   -1.0012    0.0000 C   0  0  0  0  0  0  0  0  0  0  0  0
   -2.1470    1.7537    0.0000 C   0  0  0  0  0  0  0  0  0  0  0  0
   -1.8351    3.2209    0.0000 C   0  0  0  0  0  0  0  0  0  0  0  0
   -0.4086    3.6844    0.0000 C   0  0  0  0  0  0  0  0  0  0  0  0
    0.7062    2.6807    0.0000 C   0  0  0  0  0  0  0  0  0  0  0  0
    0.3943    1.2135    0.0000 C   0  0  0  0  0  0  0  0  0  0  0  0
    1.2760    0.0000    0.0000 N   0  0  0  0  0  0  0  0  0  0  0  0
    0.3943   -1.2135    0.0000 N   0  0  0  0  0  0  0  0  0  0  0  0
   -1.0323   -0.7500    0.0000 C   0  0  0  0  0  0  0  0  0  0  0  0
   -1.0323    0.7500    0.0000 C   0  0  0  0  0  0  0  0  0  0  0  0
  1  2  1  0
  2  3  2  0
  2  4  1  0
  4  5  2  0
  5  6  1  0
  6  7  1  0
  7  8  2  0
  8  9  1  0
  9 10  2  0
 10 11  1  0
 11 12  1  0
 11 13  2  0
 11 14  2  0
 10 15  1  0
 15 16  2  0
  6 17  1  0
 17 18  2  0
 18 19  1  0
 19 20  2  0
 20 21  1  0
 21 22  1  0
 22 23  1  0
 23 24  2  0
 24 25  1  0
 18  4  1  0
 25 21  2  0
 16  7  1  0
 25 17  1  0
M  END
>  <Compound_ID>  (904) 
CHEMBL360520

>  <Active>  (904) 
1.0

>  <Smiles>  (904) 
NC(=O)c1nn(-c2ccc(S(N)(=O)=O)cc2)c2c1ccc1[nH]ncc12

>  <canonical_smi>  (904) 
NC(=O)c1nn(-c2ccc(S(N)(=O)=O)cc2)c2c1ccc1[nH]ncc12

>  <Set>  (904) 
G2 active

>  <Set_type>  (904) 
Test

>  <MW>  (904) 
356.37

>  <HBD>  (904) 
3

>  <HBA>  (904) 
5

>  <NRB>  (904) 
3

>  <NR>  (904) 
4

>  <NAR>  (904) 
4

>  <PSA>  (904) 
149.75

>  <Standard Type>  (904) 
nan

>  <Standard Relation>  (904) 
nan

>  <Standard Units>  (904) 
nan

>  <Standard Value>  (904) 
nan

>  <Assay ChEMBL ID>  (904) 
nan

>  <Assay Description>  (904) 
nan

>  <BAO Label>  (904) 
nan

$$$$

     RDKit          2D

 31 34  0  0  0  0  0  0  0  0999 V2000
  -10.1878   -4.1483    0.0000 O   0  0  0  0  0  0  0  0  0  0  0  0
   -8.8888   -4.8983    0.0000 S   0  0  0  0  0  0  0  0  0  0  0  0
   -7.5897   -5.6483    0.0000 O   0  0  0  0  0  0  0  0  0  0  0  0
   -9.6388   -6.1973    0.0000 N   0  0  0  0  0  0  0  0  0  0  0  0
   -8.8888   -7.4964    0.0000 C   0  0  0  0  0  0  0  0  0  0  0  0
   -9.6388   -8.7954    0.0000 C   0  0  0  0  0  0  0  0  0  0  0  0
   -8.8888  -10.0944    0.0000 O   0  0  0  0  0  0  0  0  0  0  0  0
   -9.6388  -11.3935    0.0000 C   0  0  0  0  0  0  0  0  0  0  0  0
   -8.8888  -12.6925    0.0000 C   0  0  0  0  0  0  0  0  0  0  0  0
   -9.6388  -13.9916    0.0000 O   0  0  0  0  0  0  0  0  0  0  0  0
   -8.1388   -3.5992    0.0000 C   0  0  0  0  0  0  0  0  0  0  0  0
   -8.8888   -2.3002    0.0000 C   0  0  0  0  0  0  0  0  0  0  0  0
   -8.1388   -1.0012    0.0000 C   0  0  0  0  0  0  0  0  0  0  0  0
   -6.6388   -1.0012    0.0000 C   0  0  0  0  0  0  0  0  0  0  0  0
   -5.8888    0.2979    0.0000 N   0  0  0  0  0  0  0  0  0  0  0  0
   -4.3888    0.2979    0.0000 C   0  0  0  0  0  0  0  0  0  0  0  0
   -3.6388    1.5969    0.0000 C   0  0  0  0  0  0  0  0  0  0  0  0
   -4.2489    2.9672    0.0000 C   0  0  0  0  0  0  0  0  0  0  0  0
   -5.7161    3.2791    0.0000 O   0  0  0  0  0  0  0  0  0  0  0  0
   -3.1342    3.9709    0.0000 N   0  0  0  0  0  0  0  0  0  0  0  0
   -1.8351    3.2209    0.0000 C   0  0  0  0  0  0  0  0  0  0  0  0
   -0.4086    3.6844    0.0000 C   0  0  0  0  0  0  0  0  0  0  0  0
    0.7062    2.6807    0.0000 C   0  0  0  0  0  0  0  0  0  0  0  0
    0.3943    1.2135    0.0000 C   0  0  0  0  0  0  0  0  0  0  0  0
    1.2760    0.0000    0.0000 N   0  0  0  0  0  0  0  0  0  0  0  0
    0.3943   -1.2135    0.0000 C   0  0  0  0  0  0  0  0  0  0  0  0
   -1.0323   -0.7500    0.0000 S   0  0  0  0  0  0  0  0  0  0  0  0
   -1.0323    0.7500    0.0000 C   0  0  0  0  0  0  0  0  0  0  0  0
   -2.1470    1.7537    0.0000 C   0  0  0  0  0  0  0  0  0  0  0  0
   -5.8888   -2.3002    0.0000 C   0  0  0  0  0  0  0  0  0  0  0  0
   -6.6388   -3.5992    0.0000 C   0  0  0  0  0  0  0  0  0  0  0  0
  1  2  2  0
  2  3  2  0
  2  4  1  0
  4  5  1  0
  5  6  1  0
  6  7  1  0
  7  8  1  0
  8  9  1  0
  9 10  1  0
  2 11  1  0
 11 12  2  0
 12 13  1  0
 13 14  2  0
 14 15  1  0
 15 16  2  0
 16 17  1  0
 17 18  2  0
 18 19  1  0
 18 20  1  0
 20 21  1  0
 21 22  2  0
 22 23  1  0
 23 24  2  0
 24 25  1  0
 25 26  2  0
 26 27  1  0
 27 28  1  0
 28 29  2  0
 14 30  1  0
 30 31  2  0
 31 11  1  0
 29 17  1  0
 29 21  1  0
 28 24  1  0
M  END
>  <Compound_ID>  (905) 
CHEMBL343996

>  <Active>  (905) 
1.0

>  <Smiles>  (905) 
O=S(=O)(NCCOCCO)c1ccc(/N=C/c2c(O)[nH]c3ccc4ncsc4c23)cc1

>  <canonical_smi>  (905) 
O=S(=O)(NCCOCCO)c1ccc(/N=C/c2c(O)[nH]c3ccc4ncsc4c23)cc1

>  <Set>  (905) 
G2 active

>  <Set_type>  (905) 
Test

>  <MW>  (905) 
460.54

>  <HBD>  (905) 
4

>  <HBA>  (905) 
6

>  <NRB>  (905) 
9

>  <NR>  (905) 
4

>  <NAR>  (905) 
4

>  <PSA>  (905) 
136.9

>  <Standard Type>  (905) 
nan

>  <Standard Relation>  (905) 
nan

>  <Standard Units>  (905) 
nan

>  <Standard Value>  (905) 
nan

>  <Assay ChEMBL ID>  (905) 
nan

>  <Assay Description>  (905) 
nan

>  <BAO Label>  (905) 
nan

$$$$

     RDKit          2D

 23 25  0  0  0  0  0  0  0  0999 V2000
   -3.2082  -13.0594    0.0000 C   0  0  0  0  0  0  0  0  0  0  0  0
   -1.9092  -13.8094    0.0000 C   0  0  0  0  0  0  0  0  0  0  0  0
   -0.6101  -14.5594    0.0000 C   0  0  0  0  0  0  0  0  0  0  0  0
   -2.6592  -15.1085    0.0000 C   0  0  0  0  0  0  0  0  0  0  0  0
   -1.1592  -12.5104    0.0000 C   0  0  0  0  0  0  0  0  0  0  0  0
    0.3326  -12.3536    0.0000 C   0  0  0  0  0  0  0  0  0  0  0  0
    0.6445  -10.8864    0.0000 N   0  0  0  0  0  0  0  0  0  0  0  0
   -0.6546  -10.1364    0.0000 C   0  0  0  0  0  0  0  0  0  0  0  0
   -0.8113   -8.6446    0.0000 C   0  0  0  0  0  0  0  0  0  0  0  0
    0.4022   -7.7629    0.0000 S   0  0  0  0  0  0  0  0  0  0  0  0
    0.2454   -6.2711    0.0000 C   0  0  0  0  0  0  0  0  0  0  0  0
   -1.0537   -5.5211    0.0000 C   0  0  0  0  0  0  0  0  0  0  0  0
   -0.7418   -4.0539    0.0000 N   0  0  0  0  0  0  0  0  0  0  0  0
    0.7500   -3.8971    0.0000 C   0  0  0  0  0  0  0  0  0  0  0  0
    1.5000   -2.5981    0.0000 N   0  0  0  0  0  0  0  0  0  0  0  0
    0.7500   -1.2990    0.0000 C   0  0  0  0  0  0  0  0  0  0  0  0
    1.5000    0.0000    0.0000 C   0  0  0  0  0  0  0  0  0  0  0  0
    0.7500    1.2990    0.0000 C   0  0  0  0  0  0  0  0  0  0  0  0
   -0.7500    1.2990    0.0000 N   0  0  0  0  0  0  0  0  0  0  0  0
   -1.5000    0.0000    0.0000 C   0  0  0  0  0  0  0  0  0  0  0  0
   -0.7500   -1.2990    0.0000 C   0  0  0  0  0  0  0  0  0  0  0  0
    1.3601   -5.2674    0.0000 S   0  0  0  0  0  0  0  0  0  0  0  0
   -1.7693  -11.1401    0.0000 O   0  0  0  0  0  0  0  0  0  0  0  0
  1  2  1  0
  2  3  1  0
  2  4  1  0
  2  5  1  0
  5  6  2  0
  6  7  1  0
  7  8  2  0
  8  9  1  0
  9 10  1  0
 10 11  1  0
 11 12  2  0
 12 13  1  0
 13 14  2  0
 14 15  1  0
 15 16  1  0
 16 17  2  0
 17 18  1  0
 18 19  2  0
 19 20  1  0
 20 21  2  0
 14 22  1  0
  8 23  1  0
 23  5  1  0
 22 11  1  0
 21 16  1  0
M  END
>  <Compound_ID>  (906) 
CHEMBL328406

>  <Active>  (906) 
1.0

>  <Smiles>  (906) 
CC(C)(C)c1cnc(CSc2cnc(Nc3ccncc3)s2)o1

>  <canonical_smi>  (906) 
CC(C)(C)c1cnc(CSc2cnc(Nc3ccncc3)s2)o1

>  <Set>  (906) 
G2 active

>  <Set_type>  (906) 
Test

>  <MW>  (906) 
346.48

>  <HBD>  (906) 
1

>  <HBA>  (906) 
6

>  <NRB>  (906) 
5

>  <NR>  (906) 
3

>  <NAR>  (906) 
3

>  <PSA>  (906) 
63.84

>  <Standard Type>  (906) 
nan

>  <Standard Relation>  (906) 
nan

>  <Standard Units>  (906) 
nan

>  <Standard Value>  (906) 
nan

>  <Assay ChEMBL ID>  (906) 
nan

>  <Assay Description>  (906) 
nan

>  <BAO Label>  (906) 
nan

$$$$

     RDKit          2D

 31 35  0  0  0  0  0  0  0  0999 V2000
   -7.5000   -5.1962    0.0000 C   0  0  0  0  0  0  0  0  0  0  0  0
   -6.0000   -5.1962    0.0000 N   0  0  0  0  0  0  0  0  0  0  0  0
   -5.2500   -3.8971    0.0000 C   0  0  0  0  0  0  0  0  0  0  0  0
   -3.7500   -3.8971    0.0000 C   0  0  0  0  0  0  0  0  0  0  0  0
   -3.0000   -5.1962    0.0000 N   0  0  0  0  0  0  0  0  0  0  0  0
   -1.5000   -5.1962    0.0000 C   0  0  0  0  0  0  0  0  0  0  0  0
   -0.7500   -6.4952    0.0000 C   0  0  0  0  0  0  0  0  0  0  0  0
    0.7500   -6.4952    0.0000 C   0  0  0  0  0  0  0  0  0  0  0  0
    1.5000   -5.1962    0.0000 C   0  0  0  0  0  0  0  0  0  0  0  0
    0.7500   -3.8971    0.0000 C   0  0  0  0  0  0  0  0  0  0  0  0
    1.5000   -2.5981    0.0000 N   0  0  0  0  0  0  0  0  0  0  0  0
    0.7500   -1.2990    0.0000 C   0  0  0  0  0  0  0  0  0  0  0  0
    1.5000    0.0000    0.0000 N   0  0  0  0  0  0  0  0  0  0  0  0
    0.7500    1.2990    0.0000 C   0  0  0  0  0  0  0  0  0  0  0  0
   -0.7500    1.2990    0.0000 C   0  0  0  0  0  0  0  0  0  0  0  0
   -1.5000    0.0000    0.0000 C   0  0  0  0  0  0  0  0  0  0  0  0
   -0.7500   -1.2990    0.0000 N   0  0  0  0  0  0  0  0  0  0  0  0
   -3.0000    0.0000    0.0000 C   0  0  0  0  0  0  0  0  0  0  0  0
   -3.7500    1.2990    0.0000 C   0  0  0  0  0  0  0  0  0  0  0  0
   -5.2172    0.9872    0.0000 C   0  0  0  0  0  0  0  0  0  0  0  0
   -6.3319    1.9909    0.0000 C   0  0  0  0  0  0  0  0  0  0  0  0
   -7.7585    1.5273    0.0000 N   0  0  0  0  0  0  0  0  0  0  0  0
   -6.0201    3.4581    0.0000 O   0  0  0  0  0  0  0  0  0  0  0  0
   -5.3740   -0.5046    0.0000 N   0  0  0  0  0  0  0  0  0  0  0  0
   -4.0037   -1.1147    0.0000 N   0  0  0  0  0  0  0  0  0  0  0  0
   -3.6918   -2.5819    0.0000 C   0  0  0  0  0  0  0  0  0  0  0  0
   -3.0000    2.5981    0.0000 C   0  0  0  0  0  0  0  0  0  0  0  0
   -1.5000    2.5981    0.0000 C   0  0  0  0  0  0  0  0  0  0  0  0
   -0.7500   -3.8971    0.0000 C   0  0  0  0  0  0  0  0  0  0  0  0
   -3.7500   -6.4952    0.0000 C   0  0  0  0  0  0  0  0  0  0  0  0
   -5.2500   -6.4952    0.0000 C   0  0  0  0  0  0  0  0  0  0  0  0
  1  2  1  0
  2  3  1  0
  3  4  1  0
  4  5  1  0
  5  6  1  0
  6  7  2  0
  7  8  1  0
  8  9  2  0
  9 10  1  0
 10 11  1  0
 11 12  1  0
 12 13  2  0
 13 14  1  0
 14 15  2  0
 15 16  1  0
 16 17  2  0
 16 18  1  0
 18 19  2  0
 19 20  1  0
 20 21  1  0
 21 22  1  0
 21 23  2  0
 20 24  2  0
 24 25  1  0
 25 26  1  0
 19 27  1  0
 27 28  1  0
 10 29  2  0
  5 30  1  0
 30 31  1  0
 31  2  1  0
 29  6  1  0
 17 12  1  0
 25 18  1  0
 28 15  1  0
M  END
>  <Compound_ID>  (907) 
CHEMBL559513

>  <Active>  (907) 
1.0

>  <Smiles>  (907) 
CN1CCN(c2cccc(Nc3ncc4c(n3)-c3c(c(C(N)=O)nn3C)CC4)c2)CC1

>  <canonical_smi>  (907) 
CN1CCN(c2cccc(Nc3ncc4c(n3)-c3c(c(C(N)=O)nn3C)CC4)c2)CC1

>  <Set>  (907) 
G2 active

>  <Set_type>  (907) 
Test

>  <MW>  (907) 
418.51

>  <HBD>  (907) 
2

>  <HBA>  (907) 
7

>  <NRB>  (907) 
4

>  <NR>  (907) 
5

>  <NAR>  (907) 
3

>  <PSA>  (907) 
105.2

>  <Standard Type>  (907) 
nan

>  <Standard Relation>  (907) 
nan

>  <Standard Units>  (907) 
nan

>  <Standard Value>  (907) 
nan

>  <Assay ChEMBL ID>  (907) 
nan

>  <Assay Description>  (907) 
nan

>  <BAO Label>  (907) 
nan

$$$$

     RDKit          2D

 27 30  0  0  0  0  0  0  0  0999 V2000
    8.0498   -1.8296    0.0000 N   0  0  0  0  0  0  0  0  0  0  0  0
    6.6232   -1.3661    0.0000 C   0  0  0  0  0  0  0  0  0  0  0  0
    5.5085   -2.3698    0.0000 C   0  0  0  0  0  0  0  0  0  0  0  0
    4.0819   -1.9062    0.0000 C   0  0  0  0  0  0  0  0  0  0  0  0
    2.9672   -2.9099    0.0000 N   0  0  0  0  0  0  0  0  0  0  0  0
    3.1240   -4.4017    0.0000 N   0  0  0  0  0  0  0  0  0  0  0  0
    1.7537   -5.0118    0.0000 C   0  0  0  0  0  0  0  0  0  0  0  0
    1.4418   -6.4791    0.0000 C   0  0  0  0  0  0  0  0  0  0  0  0
    2.5565   -7.4827    0.0000 N   0  0  0  0  0  0  0  0  0  0  0  0
    0.0152   -6.9426    0.0000 O   0  0  0  0  0  0  0  0  0  0  0  0
    0.7500   -3.8971    0.0000 C   0  0  0  0  0  0  0  0  0  0  0  0
    1.5000   -2.5981    0.0000 C   0  0  0  0  0  0  0  0  0  0  0  0
    0.7500   -1.2990    0.0000 C   0  0  0  0  0  0  0  0  0  0  0  0
    1.5000    0.0000    0.0000 N   0  0  0  0  0  0  0  0  0  0  0  0
    0.7500    1.2990    0.0000 C   0  0  0  0  0  0  0  0  0  0  0  0
    1.5000    2.5981    0.0000 N   0  0  0  0  0  0  0  0  0  0  0  0
    3.0000    2.5981    0.0000 C   0  0  0  0  0  0  0  0  0  0  0  0
    3.7500    1.2990    0.0000 C   0  0  0  0  0  0  0  0  0  0  0  0
    5.2500    1.2990    0.0000 C   0  0  0  0  0  0  0  0  0  0  0  0
    6.0000    2.5981    0.0000 C   0  0  0  0  0  0  0  0  0  0  0  0
    5.2500    3.8971    0.0000 C   0  0  0  0  0  0  0  0  0  0  0  0
    3.7500    3.8971    0.0000 C   0  0  0  0  0  0  0  0  0  0  0  0
   -0.7500    1.2990    0.0000 N   0  0  0  0  0  0  0  0  0  0  0  0
   -1.5000    0.0000    0.0000 C   0  0  0  0  0  0  0  0  0  0  0  0
   -0.7500   -1.2990    0.0000 C   0  0  0  0  0  0  0  0  0  0  0  0
   -1.5000   -2.5981    0.0000 C   0  0  0  0  0  0  0  0  0  0  0  0
   -0.7500   -3.8971    0.0000 C   0  0  0  0  0  0  0  0  0  0  0  0
  1  2  1  0
  2  3  1  0
  3  4  1  0
  4  5  1  0
  5  6  1  0
  6  7  2  0
  7  8  1  0
  8  9  1  0
  8 10  2  0
  7 11  1  0
 11 12  2  0
 12 13  1  0
 13 14  2  0
 14 15  1  0
 15 16  1  0
 16 17  1  0
 17 18  2  0
 18 19  1  0
 19 20  2  0
 20 21  1  0
 21 22  2  0
 15 23  2  0
 23 24  1  0
 24 25  2  0
 25 26  1  0
 26 27  1  0
 12  5  1  0
 25 13  1  0
 27 11  1  0
 22 17  1  0
M  END
>  <Compound_ID>  (908) 
CHEMBL1171950

>  <Active>  (908) 
1.0

>  <Smiles>  (908) 
NCCCn1nc(C(N)=O)c2c1-c1nc(Nc3ccccc3)ncc1CC2

>  <canonical_smi>  (908) 
NCCCn1nc(C(N)=O)c2c1-c1nc(Nc3ccccc3)ncc1CC2

>  <Set>  (908) 
G2 active

>  <Set_type>  (908) 
Test

>  <MW>  (908) 
363.43

>  <HBD>  (908) 
3

>  <HBA>  (908) 
6

>  <NRB>  (908) 
6

>  <NR>  (908) 
4

>  <NAR>  (908) 
3

>  <PSA>  (908) 
124.74

>  <Standard Type>  (908) 
nan

>  <Standard Relation>  (908) 
nan

>  <Standard Units>  (908) 
nan

>  <Standard Value>  (908) 
nan

>  <Assay ChEMBL ID>  (908) 
nan

>  <Assay Description>  (908) 
nan

>  <BAO Label>  (908) 
nan

$$$$

     RDKit          2D

 32 35  0  0  0  0  0  0  0  0999 V2000
  -10.0849   -6.9740    0.0000 N   0  0  0  0  0  0  0  0  0  0  0  0
   -8.6583   -6.5105    0.0000 S   0  0  0  0  0  0  0  0  0  0  0  0
   -9.1218   -5.0839    0.0000 O   0  0  0  0  0  0  0  0  0  0  0  0
   -8.1948   -7.9371    0.0000 O   0  0  0  0  0  0  0  0  0  0  0  0
   -7.2317   -6.0469    0.0000 C   0  0  0  0  0  0  0  0  0  0  0  0
   -6.9199   -4.5797    0.0000 C   0  0  0  0  0  0  0  0  0  0  0  0
   -5.4933   -4.1162    0.0000 C   0  0  0  0  0  0  0  0  0  0  0  0
   -4.3786   -5.1199    0.0000 C   0  0  0  0  0  0  0  0  0  0  0  0
   -2.9520   -4.6564    0.0000 N   0  0  0  0  0  0  0  0  0  0  0  0
   -2.6401   -3.1891    0.0000 N   0  0  0  0  0  0  0  0  0  0  0  0
   -1.2135   -2.7256    0.0000 C   0  0  0  0  0  0  0  0  0  0  0  0
   -0.0000   -3.6073    0.0000 C   0  0  0  0  0  0  0  0  0  0  0  0
    0.0000   -5.1073    0.0000 O   0  0  0  0  0  0  0  0  0  0  0  0
    1.2135   -2.7256    0.0000 N   0  0  0  0  0  0  0  0  0  0  0  0
    0.7500   -1.2990    0.0000 C   0  0  0  0  0  0  0  0  0  0  0  0
    1.5000    0.0000    0.0000 C   0  0  0  0  0  0  0  0  0  0  0  0
    0.7500    1.2990    0.0000 C   0  0  0  0  0  0  0  0  0  0  0  0
   -0.7500    1.2990    0.0000 C   0  0  0  0  0  0  0  0  0  0  0  0
   -1.5000    2.5981    0.0000 C   0  0  0  0  0  0  0  0  0  0  0  0
   -3.0000    2.5981    0.0000 O   0  0  0  0  0  0  0  0  0  0  0  0
   -0.7500    3.8971    0.0000 N   0  0  0  0  0  0  0  0  0  0  0  0
   -1.5000    5.1962    0.0000 C   0  0  0  0  0  0  0  0  0  0  0  0
   -0.7500    6.4952    0.0000 C   0  0  0  0  0  0  0  0  0  0  0  0
    0.7500    6.4952    0.0000 C   0  0  0  0  0  0  0  0  0  0  0  0
    1.5000    7.7942    0.0000 C   0  0  0  0  0  0  0  0  0  0  0  0
    0.7500    9.0933    0.0000 C   0  0  0  0  0  0  0  0  0  0  0  0
   -0.7500    9.0933    0.0000 N   0  0  0  0  0  0  0  0  0  0  0  0
   -1.5000    7.7942    0.0000 C   0  0  0  0  0  0  0  0  0  0  0  0
   -1.5000    0.0000    0.0000 C   0  0  0  0  0  0  0  0  0  0  0  0
   -0.7500   -1.2990    0.0000 C   0  0  0  0  0  0  0  0  0  0  0  0
   -4.6904   -6.5871    0.0000 C   0  0  0  0  0  0  0  0  0  0  0  0
   -6.1170   -7.0506    0.0000 C   0  0  0  0  0  0  0  0  0  0  0  0
  1  2  1  0
  2  3  2  0
  2  4  2  0
  2  5  1  0
  5  6  2  0
  6  7  1  0
  7  8  2  0
  8  9  1  0
  9 10  2  3
 10 11  1  0
 11 12  2  0
 12 13  1  0
 12 14  1  0
 14 15  1  0
 15 16  2  0
 16 17  1  0
 17 18  2  0
 18 19  1  0
 19 20  2  0
 19 21  1  0
 21 22  1  0
 22 23  1  0
 23 24  2  0
 24 25  1  0
 25 26  2  0
 26 27  1  0
 27 28  2  0
 18 29  1  0
 29 30  2  0
  8 31  1  0
 31 32  2  0
 32  5  1  0
 30 11  1  0
 30 15  1  0
 28 23  1  0
M  END
>  <Compound_ID>  (909) 
CHEMBL430434

>  <Active>  (909) 
1.0

>  <Smiles>  (909) 
NS(=O)(=O)c1ccc(N=Nc2c(O)[nH]c3ccc(C(=O)NCc4cccnc4)cc23)cc1

>  <canonical_smi>  (909) 
NS(=O)(=O)c1ccc(N=Nc2c(O)[nH]c3ccc(C(=O)NCc4cccnc4)cc23)cc1

>  <Set>  (909) 
G2 active

>  <Set_type>  (909) 
Test

>  <MW>  (909) 
450.48

>  <HBD>  (909) 
4

>  <HBA>  (909) 
5

>  <NRB>  (909) 
6

>  <NR>  (909) 
4

>  <NAR>  (909) 
4

>  <PSA>  (909) 
162.89

>  <Standard Type>  (909) 
nan

>  <Standard Relation>  (909) 
nan

>  <Standard Units>  (909) 
nan

>  <Standard Value>  (909) 
nan

>  <Assay ChEMBL ID>  (909) 
nan

>  <Assay Description>  (909) 
nan

>  <BAO Label>  (909) 
nan

$$$$

     RDKit          2D

 32 35  0  0  0  0  0  0  0  0999 V2000
  -10.0849   -6.9740    0.0000 N   0  0  0  0  0  0  0  0  0  0  0  0
   -8.6583   -6.5105    0.0000 S   0  0  0  0  0  0  0  0  0  0  0  0
   -9.1218   -5.0839    0.0000 O   0  0  0  0  0  0  0  0  0  0  0  0
   -8.1948   -7.9371    0.0000 O   0  0  0  0  0  0  0  0  0  0  0  0
   -7.2317   -6.0469    0.0000 C   0  0  0  0  0  0  0  0  0  0  0  0
   -6.9199   -4.5797    0.0000 C   0  0  0  0  0  0  0  0  0  0  0  0
   -5.4933   -4.1162    0.0000 C   0  0  0  0  0  0  0  0  0  0  0  0
   -4.3786   -5.1199    0.0000 C   0  0  0  0  0  0  0  0  0  0  0  0
   -2.9520   -4.6564    0.0000 N   0  0  0  0  0  0  0  0  0  0  0  0
   -2.6401   -3.1891    0.0000 N   0  0  0  0  0  0  0  0  0  0  0  0
   -1.2135   -2.7256    0.0000 C   0  0  0  0  0  0  0  0  0  0  0  0
   -0.0000   -3.6073    0.0000 C   0  0  0  0  0  0  0  0  0  0  0  0
    0.0000   -5.1073    0.0000 O   0  0  0  0  0  0  0  0  0  0  0  0
    1.2135   -2.7256    0.0000 N   0  0  0  0  0  0  0  0  0  0  0  0
    0.7500   -1.2990    0.0000 C   0  0  0  0  0  0  0  0  0  0  0  0
    1.5000    0.0000    0.0000 C   0  0  0  0  0  0  0  0  0  0  0  0
    0.7500    1.2990    0.0000 C   0  0  0  0  0  0  0  0  0  0  0  0
   -0.7500    1.2990    0.0000 C   0  0  0  0  0  0  0  0  0  0  0  0
   -1.5000    2.5981    0.0000 C   0  0  0  0  0  0  0  0  0  0  0  0
   -3.0000    2.5981    0.0000 O   0  0  0  0  0  0  0  0  0  0  0  0
   -0.7500    3.8971    0.0000 N   0  0  0  0  0  0  0  0  0  0  0  0
   -1.5000    5.1962    0.0000 C   0  0  0  0  0  0  0  0  0  0  0  0
   -0.7500    6.4952    0.0000 C   0  0  0  0  0  0  0  0  0  0  0  0
    0.7500    6.4952    0.0000 C   0  0  0  0  0  0  0  0  0  0  0  0
    1.5000    7.7942    0.0000 C   0  0  0  0  0  0  0  0  0  0  0  0
    0.7500    9.0933    0.0000 C   0  0  0  0  0  0  0  0  0  0  0  0
   -0.7500    9.0933    0.0000 N   0  0  0  0  0  0  0  0  0  0  0  0
   -1.5000    7.7942    0.0000 C   0  0  0  0  0  0  0  0  0  0  0  0
   -1.5000    0.0000    0.0000 C   0  0  0  0  0  0  0  0  0  0  0  0
   -0.7500   -1.2990    0.0000 C   0  0  0  0  0  0  0  0  0  0  0  0
   -4.6904   -6.5871    0.0000 C   0  0  0  0  0  0  0  0  0  0  0  0
   -6.1170   -7.0506    0.0000 C   0  0  0  0  0  0  0  0  0  0  0  0
  1  2  1  0
  2  3  2  0
  2  4  2  0
  2  5  1  0
  5  6  2  0
  6  7  1  0
  7  8  2  0
  8  9  1  0
  9 10  1  0
 10 11  2  0
 11 12  1  0
 12 13  2  0
 12 14  1  0
 14 15  1  0
 15 16  2  0
 16 17  1  0
 17 18  2  0
 18 19  1  0
 19 20  2  0
 19 21  1  0
 21 22  1  0
 22 23  1  0
 23 24  2  0
 24 25  1  0
 25 26  2  0
 26 27  1  0
 27 28  2  0
 18 29  1  0
 29 30  2  0
  8 31  1  0
 31 32  2  0
 32  5  1  0
 30 11  1  0
 30 15  1  0
 28 23  1  0
M  END
>  <Compound_ID>  (910) 
CHEMBL271953

>  <Active>  (910) 
1.0

>  <Smiles>  (910) 
NS(=O)(=O)c1ccc(N/N=C2\C(=O)Nc3ccc(C(=O)NCc4cccnc4)cc32)cc1

>  <canonical_smi>  (910) 
NS(=O)(=O)c1ccc(N/N=C2\C(=O)Nc3ccc(C(=O)NCc4cccnc4)cc32)cc1

>  <Set>  (910) 
G2 active

>  <Set_type>  (910) 
Test

>  <MW>  (910) 
450.48

>  <HBD>  (910) 
4

>  <HBA>  (910) 
6

>  <NRB>  (910) 
6

>  <NR>  (910) 
4

>  <NAR>  (910) 
3

>  <PSA>  (910) 
155.64

>  <Standard Type>  (910) 
nan

>  <Standard Relation>  (910) 
nan

>  <Standard Units>  (910) 
nan

>  <Standard Value>  (910) 
nan

>  <Assay ChEMBL ID>  (910) 
nan

>  <Assay Description>  (910) 
nan

>  <BAO Label>  (910) 
nan

$$$$

     RDKit          2D

 28 31  0  0  0  0  0  0  0  0999 V2000
   -6.9204   -5.2665    0.0000 C   0  0  0  0  0  0  0  0  0  0  0  0
   -5.6213   -4.5165    0.0000 O   0  0  0  0  0  0  0  0  0  0  0  0
   -4.3223   -5.2665    0.0000 C   0  0  0  0  0  0  0  0  0  0  0  0
   -4.1655   -6.7583    0.0000 C   0  0  0  0  0  0  0  0  0  0  0  0
   -2.6983   -7.0701    0.0000 C   0  0  0  0  0  0  0  0  0  0  0  0
   -1.9483   -5.7711    0.0000 N   0  0  0  0  0  0  0  0  0  0  0  0
   -2.9520   -4.6564    0.0000 C   0  0  0  0  0  0  0  0  0  0  0  0
   -2.6401   -3.1891    0.0000 C   0  0  0  0  0  0  0  0  0  0  0  0
   -1.2135   -2.7256    0.0000 C   0  0  0  0  0  0  0  0  0  0  0  0
   -0.0000   -3.6073    0.0000 C   0  0  0  0  0  0  0  0  0  0  0  0
    0.0000   -5.1073    0.0000 O   0  0  0  0  0  0  0  0  0  0  0  0
    1.2135   -2.7256    0.0000 N   0  0  0  0  0  0  0  0  0  0  0  0
    0.7500   -1.2990    0.0000 C   0  0  0  0  0  0  0  0  0  0  0  0
    1.5000    0.0000    0.0000 C   0  0  0  0  0  0  0  0  0  0  0  0
    0.7500    1.2990    0.0000 C   0  0  0  0  0  0  0  0  0  0  0  0
   -0.7500    1.2990    0.0000 C   0  0  0  0  0  0  0  0  0  0  0  0
   -1.5000    2.5981    0.0000 F   0  0  0  0  0  0  0  0  0  0  0  0
   -1.5000    0.0000    0.0000 C   0  0  0  0  0  0  0  0  0  0  0  0
   -3.0000    0.0000    0.0000 C   0  0  0  0  0  0  0  0  0  0  0  0
   -4.5000    0.0000    0.0000 C   0  0  0  0  0  0  0  0  0  0  0  0
   -6.0000    0.0000    0.0000 C   0  0  0  0  0  0  0  0  0  0  0  0
   -5.7395   -1.4772    0.0000 O   0  0  0  0  0  0  0  0  0  0  0  0
   -5.7395    1.4772    0.0000 C   0  0  0  0  0  0  0  0  0  0  0  0
   -6.8886    2.4414    0.0000 C   0  0  0  0  0  0  0  0  0  0  0  0
   -8.2981    1.9284    0.0000 O   0  0  0  0  0  0  0  0  0  0  0  0
   -8.5586    0.4512    0.0000 C   0  0  0  0  0  0  0  0  0  0  0  0
   -7.4095   -0.5130    0.0000 C   0  0  0  0  0  0  0  0  0  0  0  0
   -0.7500   -1.2990    0.0000 C   0  0  0  0  0  0  0  0  0  0  0  0
  1  2  1  0
  2  3  1  0
  3  4  1  0
  4  5  2  0
  5  6  1  0
  6  7  1  0
  7  8  1  0
  8  9  2  0
  9 10  1  0
 10 11  2  0
 10 12  1  0
 12 13  1  0
 13 14  2  0
 14 15  1  0
 15 16  2  0
 16 17  1  0
 16 18  1  0
 18 19  1  0
 19 20  3  0
 20 21  1  0
 21 22  1  0
 21 23  1  0
 23 24  1  0
 24 25  1  0
 25 26  1  0
 26 27  1  0
 18 28  2  0
  7  3  2  0
 28  9  1  0
 28 13  1  0
 27 21  1  0
M  END
>  <Compound_ID>  (911) 
CHEMBL412267

>  <Active>  (911) 
1.0

>  <Smiles>  (911) 
COc1cc[nH]c1/C=C1\C(=O)Nc2ccc(F)c(C#CC3(O)CCOCC3)c21

>  <canonical_smi>  (911) 
COc1cc[nH]c1/C=C1\C(=O)Nc2ccc(F)c(C#CC3(O)CCOCC3)c21

>  <Set>  (911) 
G2 active

>  <Set_type>  (911) 
Test

>  <MW>  (911) 
382.39

>  <HBD>  (911) 
3

>  <HBA>  (911) 
4

>  <NRB>  (911) 
2

>  <NR>  (911) 
4

>  <NAR>  (911) 
2

>  <PSA>  (911) 
83.58

>  <Standard Type>  (911) 
nan

>  <Standard Relation>  (911) 
nan

>  <Standard Units>  (911) 
nan

>  <Standard Value>  (911) 
nan

>  <Assay ChEMBL ID>  (911) 
nan

>  <Assay Description>  (911) 
nan

>  <BAO Label>  (911) 
nan

$$$$

     RDKit          2D

 38 44  0  0  0  0  0  0  0  0999 V2000
    3.7500   -1.2990    0.0000 C   0  0  0  0  0  0  0  0  0  0  0  0
    3.0000    0.0000    0.0000 O   0  0  0  0  0  0  0  0  0  0  0  0
    1.5000    0.0000    0.0000 C   0  0  0  0  0  0  0  0  0  0  0  0
    0.7500   -1.2990    0.0000 C   0  0  0  0  0  0  0  0  0  0  0  0
   -0.7500   -1.2990    0.0000 C   0  0  0  0  0  0  0  0  0  0  0  0
   -1.5000    0.0000    0.0000 C   0  0  0  0  0  0  0  0  0  0  0  0
   -2.9672    0.3119    0.0000 C   0  0  0  0  0  0  0  0  0  0  0  0
   -4.1807   -0.5698    0.0000 C   0  0  0  0  0  0  0  0  0  0  0  0
   -5.5511    0.0403    0.0000 C   0  0  0  0  0  0  0  0  0  0  0  0
   -5.7079    1.5321    0.0000 C   0  0  0  0  0  0  0  0  0  0  0  0
   -4.4943    2.4138    0.0000 C   0  0  0  0  0  0  0  0  0  0  0  0
   -4.6511    3.9055    0.0000 C   0  0  0  0  0  0  0  0  0  0  0  0
   -6.0214    4.5156    0.0000 C   0  0  0  0  0  0  0  0  0  0  0  0
   -7.2350    3.6340    0.0000 C   0  0  0  0  0  0  0  0  0  0  0  0
   -8.7022    3.9458    0.0000 C   0  0  0  0  0  0  0  0  0  0  0  0
   -9.4522    2.6468    0.0000 C   0  0  0  0  0  0  0  0  0  0  0  0
   -8.4485    1.5321    0.0000 N   0  0  0  0  0  0  0  0  0  0  0  0
   -8.7604    0.0649    0.0000 C   0  0  0  0  0  0  0  0  0  0  0  0
   -7.0782    2.1422    0.0000 C   0  0  0  0  0  0  0  0  0  0  0  0
   -3.1240    1.8037    0.0000 C   0  0  0  0  0  0  0  0  0  0  0  0
   -1.7537    2.4138    0.0000 N   0  0  0  0  0  0  0  0  0  0  0  0
   -1.4418    3.8810    0.0000 C   0  0  0  0  0  0  0  0  0  0  0  0
   -0.0152    4.3445    0.0000 C   0  0  0  0  0  0  0  0  0  0  0  0
    0.2966    5.8117    0.0000 C   0  0  0  0  0  0  0  0  0  0  0  0
    1.7232    6.2752    0.0000 N   0  0  0  0  0  0  0  0  0  0  0  0
    2.8379    5.2716    0.0000 C   0  0  0  0  0  0  0  0  0  0  0  0
    4.2645    5.7351    0.0000 C   0  0  0  0  0  0  0  0  0  0  0  0
    4.5764    7.2023    0.0000 C   0  0  0  0  0  0  0  0  0  0  0  0
    6.0030    7.6658    0.0000 O   0  0  0  0  0  0  0  0  0  0  0  0
    3.4617    8.2060    0.0000 C   0  0  0  0  0  0  0  0  0  0  0  0
    2.0351    7.7425    0.0000 C   0  0  0  0  0  0  0  0  0  0  0  0
   -0.7500    1.2990    0.0000 C   0  0  0  0  0  0  0  0  0  0  0  0
    0.7500    1.2990    0.0000 C   0  0  0  0  0  0  0  0  0  0  0  0
   -6.5548   -1.0744    0.0000 C   0  0  0  0  0  0  0  0  0  0  0  0
   -8.0465   -0.9176    0.0000 O   0  0  0  0  0  0  0  0  0  0  0  0
   -5.8048   -2.3735    0.0000 N   0  0  0  0  0  0  0  0  0  0  0  0
   -4.3375   -2.0616    0.0000 C   0  0  0  0  0  0  0  0  0  0  0  0
   -3.2228   -3.0653    0.0000 O   0  0  0  0  0  0  0  0  0  0  0  0
  1  2  1  0
  2  3  1  0
  3  4  2  0
  4  5  1  0
  5  6  2  0
  6  7  1  0
  7  8  2  0
  8  9  1  0
  9 10  2  0
 10 11  1  0
 11 12  1  0
 12 13  2  0
 13 14  1  0
 14 15  1  0
 15 16  2  0
 16 17  1  0
 17 18  1  0
 17 19  1  0
 11 20  2  0
 20 21  1  0
 21 22  1  0
 22 23  1  0
 23 24  1  0
 24 25  1  0
 25 26  1  0
 26 27  1  0
 27 28  1  0
 28 29  1  0
 28 30  1  0
 30 31  1  0
 21 32  1  0
 32 33  2  0
  9 34  1  0
 34 35  2  0
 34 36  1  0
 36 37  1  0
 37 38  2  0
 33  3  1  0
 32  6  1  0
 20  7  1  0
 31 25  1  0
 37  8  1  0
 19 10  1  0
 19 14  2  0
M  END
>  <Compound_ID>  (912) 
CHEMBL306856

>  <Active>  (912) 
1.0

>  <Smiles>  (912) 
COc1ccc2c3c4c(c5c(ccc6ccn(C)c65)c3n(CCCN3CCC(O)CC3)c2c1)C(=O)NC4=O

>  <canonical_smi>  (912) 
COc1ccc2c3c4c(c5c(ccc6ccn(C)c65)c3n(CCCN3CCC(O)CC3)c2c1)C(=O)NC4=O

>  <Set>  (912) 
G2 active

>  <Set_type>  (912) 
Test

>  <MW>  (912) 
510.59

>  <HBD>  (912) 
2

>  <HBA>  (912) 
5

>  <NRB>  (912) 
5

>  <NR>  (912) 
7

>  <NAR>  (912) 
5

>  <PSA>  (912) 
88.73

>  <Standard Type>  (912) 
nan

>  <Standard Relation>  (912) 
nan

>  <Standard Units>  (912) 
nan

>  <Standard Value>  (912) 
nan

>  <Assay ChEMBL ID>  (912) 
nan

>  <Assay Description>  (912) 
nan

>  <BAO Label>  (912) 
nan

$$$$

     RDKit          2D

 26 29  0  0  0  0  0  0  0  0999 V2000
    5.2500    1.2990    0.0000 C   0  0  0  0  0  0  0  0  0  0  0  0
    4.5000    0.0000    0.0000 N   0  0  0  0  0  0  0  0  0  0  0  0
    3.0000    0.0000    0.0000 S   0  0  0  0  0  0  0  0  0  0  0  0
    3.0000   -1.5000    0.0000 O   0  0  0  0  0  0  0  0  0  0  0  0
    3.0000    1.5000    0.0000 O   0  0  0  0  0  0  0  0  0  0  0  0
    1.5000    0.0000    0.0000 C   0  0  0  0  0  0  0  0  0  0  0  0
    0.7500   -1.2990    0.0000 C   0  0  0  0  0  0  0  0  0  0  0  0
   -0.7500   -1.2990    0.0000 C   0  0  0  0  0  0  0  0  0  0  0  0
   -1.5000    0.0000    0.0000 C   0  0  0  0  0  0  0  0  0  0  0  0
   -0.7500    1.2990    0.0000 C   0  0  0  0  0  0  0  0  0  0  0  0
    0.7500    1.2990    0.0000 C   0  0  0  0  0  0  0  0  0  0  0  0
   -1.7537    2.4138    0.0000 C   0  0  0  0  0  0  0  0  0  0  0  0
   -1.4418    3.8810    0.0000 C   0  0  0  0  0  0  0  0  0  0  0  0
   -2.5565    4.8847    0.0000 C   0  0  0  0  0  0  0  0  0  0  0  0
   -4.0238    4.5728    0.0000 N   0  0  0  0  0  0  0  0  0  0  0  0
   -4.7738    5.8718    0.0000 C   0  0  0  0  0  0  0  0  0  0  0  0
   -3.7701    6.9866    0.0000 C   0  0  0  0  0  0  0  0  0  0  0  0
   -2.3998    6.3765    0.0000 C   0  0  0  0  0  0  0  0  0  0  0  0
   -1.1862    7.2581    0.0000 C   0  0  0  0  0  0  0  0  0  0  0  0
   -1.3430    8.7499    0.0000 C   0  0  0  0  0  0  0  0  0  0  0  0
   -2.7133    9.3600    0.0000 O   0  0  0  0  0  0  0  0  0  0  0  0
   -3.9269    8.4783    0.0000 C   0  0  0  0  0  0  0  0  0  0  0  0
   -5.2972    9.0884    0.0000 O   0  0  0  0  0  0  0  0  0  0  0  0
   -3.1240    1.8037    0.0000 C   0  0  0  0  0  0  0  0  0  0  0  0
   -4.4231    2.5537    0.0000 O   0  0  0  0  0  0  0  0  0  0  0  0
   -2.9672    0.3119    0.0000 N   0  0  0  0  0  0  0  0  0  0  0  0
  1  2  1  0
  2  3  1  0
  3  4  2  0
  3  5  2  0
  3  6  1  0
  6  7  2  0
  7  8  1  0
  8  9  2  0
  9 10  1  0
 10 11  2  0
 10 12  1  0
 12 13  2  0
 13 14  1  0
 14 15  1  0
 15 16  1  0
 16 17  2  0
 17 18  1  0
 18 19  1  0
 19 20  1  0
 20 21  1  0
 21 22  1  0
 22 23  2  0
 12 24  1  0
 24 25  2  0
 24 26  1  0
 11  6  1  0
 18 14  2  0
 26  9  1  0
 22 17  1  0
M  END
>  <Compound_ID>  (913) 
CHEMBL60541

>  <Active>  (913) 
1.0

>  <Smiles>  (913) 
CNS(=O)(=O)c1ccc2c(c1)/C(=C/c1[nH]cc3c1CCOC3=O)C(=O)N2

>  <canonical_smi>  (913) 
CNS(=O)(=O)c1ccc2c(c1)/C(=C/c1[nH]cc3c1CCOC3=O)C(=O)N2

>  <Set>  (913) 
G2 active

>  <Set_type>  (913) 
Test

>  <MW>  (913) 
373.39

>  <HBD>  (913) 
3

>  <HBA>  (913) 
5

>  <NRB>  (913) 
3

>  <NR>  (913) 
4

>  <NAR>  (913) 
2

>  <PSA>  (913) 
117.36

>  <Standard Type>  (913) 
nan

>  <Standard Relation>  (913) 
nan

>  <Standard Units>  (913) 
nan

>  <Standard Value>  (913) 
nan

>  <Assay ChEMBL ID>  (913) 
nan

>  <Assay Description>  (913) 
nan

>  <BAO Label>  (913) 
nan

$$$$

     RDKit          2D

 31 35  0  0  0  0  0  0  0  0999 V2000
  -10.1878   -4.1483    0.0000 O   0  0  0  0  0  0  0  0  0  0  0  0
   -8.8888   -4.8983    0.0000 S   0  0  0  0  0  0  0  0  0  0  0  0
   -7.5897   -5.6483    0.0000 O   0  0  0  0  0  0  0  0  0  0  0  0
   -9.6388   -6.1973    0.0000 N   0  0  0  0  0  0  0  0  0  0  0  0
   -8.8888   -7.4964    0.0000 C   0  0  0  0  0  0  0  0  0  0  0  0
   -9.6388   -8.7954    0.0000 C   0  0  0  0  0  0  0  0  0  0  0  0
   -8.8888  -10.0944    0.0000 C   0  0  0  0  0  0  0  0  0  0  0  0
   -7.3888  -10.0944    0.0000 C   0  0  0  0  0  0  0  0  0  0  0  0
   -6.6388   -8.7954    0.0000 C   0  0  0  0  0  0  0  0  0  0  0  0
   -7.3888   -7.4964    0.0000 C   0  0  0  0  0  0  0  0  0  0  0  0
   -8.1388   -3.5992    0.0000 C   0  0  0  0  0  0  0  0  0  0  0  0
   -6.6388   -3.5992    0.0000 C   0  0  0  0  0  0  0  0  0  0  0  0
   -5.8888   -2.3002    0.0000 C   0  0  0  0  0  0  0  0  0  0  0  0
   -6.6388   -1.0012    0.0000 C   0  0  0  0  0  0  0  0  0  0  0  0
   -5.8888    0.2979    0.0000 N   0  0  0  0  0  0  0  0  0  0  0  0
   -4.3888    0.2979    0.0000 C   0  0  0  0  0  0  0  0  0  0  0  0
   -3.6388    1.5969    0.0000 C   0  0  0  0  0  0  0  0  0  0  0  0
   -4.2489    2.9672    0.0000 C   0  0  0  0  0  0  0  0  0  0  0  0
   -5.7161    3.2791    0.0000 O   0  0  0  0  0  0  0  0  0  0  0  0
   -3.1342    3.9709    0.0000 N   0  0  0  0  0  0  0  0  0  0  0  0
   -1.8351    3.2209    0.0000 C   0  0  0  0  0  0  0  0  0  0  0  0
   -0.4086    3.6844    0.0000 C   0  0  0  0  0  0  0  0  0  0  0  0
    0.7062    2.6807    0.0000 C   0  0  0  0  0  0  0  0  0  0  0  0
    0.3943    1.2135    0.0000 C   0  0  0  0  0  0  0  0  0  0  0  0
    1.2760    0.0000    0.0000 N   0  0  0  0  0  0  0  0  0  0  0  0
    0.3943   -1.2135    0.0000 C   0  0  0  0  0  0  0  0  0  0  0  0
   -1.0323   -0.7500    0.0000 S   0  0  0  0  0  0  0  0  0  0  0  0
   -1.0323    0.7500    0.0000 C   0  0  0  0  0  0  0  0  0  0  0  0
   -2.1470    1.7537    0.0000 C   0  0  0  0  0  0  0  0  0  0  0  0
   -8.1388   -1.0012    0.0000 C   0  0  0  0  0  0  0  0  0  0  0  0
   -8.8888   -2.3002    0.0000 C   0  0  0  0  0  0  0  0  0  0  0  0
  1  2  2  0
  2  3  2  0
  2  4  1  0
  4  5  1  0
  5  6  2  0
  6  7  1  0
  7  8  2  0
  8  9  1  0
  9 10  2  0
  2 11  1  0
 11 12  2  0
 12 13  1  0
 13 14  2  0
 14 15  1  0
 15 16  2  0
 16 17  1  0
 17 18  2  0
 18 19  1  0
 18 20  1  0
 20 21  1  0
 21 22  2  0
 22 23  1  0
 23 24  2  0
 24 25  1  0
 25 26  2  0
 26 27  1  0
 27 28  1  0
 28 29  2  0
 14 30  1  0
 30 31  2  0
 10  5  1  0
 31 11  1  0
 29 17  1  0
 29 21  1  0
 28 24  1  0
M  END
>  <Compound_ID>  (914) 
CHEMBL85667

>  <Active>  (914) 
1.0

>  <Smiles>  (914) 
O=S(=O)(Nc1ccccc1)c1ccc(/N=C/c2c(O)[nH]c3ccc4ncsc4c23)cc1

>  <canonical_smi>  (914) 
O=S(=O)(Nc1ccccc1)c1ccc(/N=C/c2c(O)[nH]c3ccc4ncsc4c23)cc1

>  <Set>  (914) 
G2 active

>  <Set_type>  (914) 
Test

>  <MW>  (914) 
448.53

>  <HBD>  (914) 
3

>  <HBA>  (914) 
4

>  <NRB>  (914) 
5

>  <NR>  (914) 
5

>  <NAR>  (914) 
5

>  <PSA>  (914) 
107.44

>  <Standard Type>  (914) 
nan

>  <Standard Relation>  (914) 
nan

>  <Standard Units>  (914) 
nan

>  <Standard Value>  (914) 
nan

>  <Assay ChEMBL ID>  (914) 
nan

>  <Assay Description>  (914) 
nan

>  <BAO Label>  (914) 
nan

$$$$

     RDKit          2D

 20 21  0  0  0  0  0  0  0  0999 V2000
    5.0260   -1.2990    0.0000 C   0  0  0  0  0  0  0  0  0  0  0  0
    3.5260   -1.2990    0.0000 C   0  0  0  0  0  0  0  0  0  0  0  0
    2.7760   -2.5981    0.0000 O   0  0  0  0  0  0  0  0  0  0  0  0
    2.7760    0.0000    0.0000 N   0  0  0  0  0  0  0  0  0  0  0  0
    1.2760    0.0000    0.0000 C   0  0  0  0  0  0  0  0  0  0  0  0
    0.3943    1.2135    0.0000 N   0  0  0  0  0  0  0  0  0  0  0  0
   -1.0323    0.7500    0.0000 C   0  0  0  0  0  0  0  0  0  0  0  0
   -1.0323   -0.7500    0.0000 C   0  0  0  0  0  0  0  0  0  0  0  0
   -2.2458   -1.6317    0.0000 S   0  0  0  0  0  0  0  0  0  0  0  0
   -3.6161   -1.0216    0.0000 C   0  0  0  0  0  0  0  0  0  0  0  0
   -4.8297   -1.9033    0.0000 C   0  0  0  0  0  0  0  0  0  0  0  0
   -4.8297   -3.4033    0.0000 N   0  0  0  0  0  0  0  0  0  0  0  0
   -6.2562   -3.8668    0.0000 C   0  0  0  0  0  0  0  0  0  0  0  0
   -7.1379   -2.6533    0.0000 C   0  0  0  0  0  0  0  0  0  0  0  0
   -8.6379   -2.6533    0.0000 C   0  0  0  0  0  0  0  0  0  0  0  0
   -8.6379   -1.1533    0.0000 C   0  0  0  0  0  0  0  0  0  0  0  0
   -8.6379   -4.1533    0.0000 C   0  0  0  0  0  0  0  0  0  0  0  0
  -10.1379   -2.6533    0.0000 C   0  0  0  0  0  0  0  0  0  0  0  0
   -6.2562   -1.4397    0.0000 O   0  0  0  0  0  0  0  0  0  0  0  0
    0.3943   -1.2135    0.0000 S   0  0  0  0  0  0  0  0  0  0  0  0
  1  2  1  0
  2  3  2  0
  2  4  1  0
  4  5  1  0
  5  6  2  0
  6  7  1  0
  7  8  2  0
  8  9  1  0
  9 10  1  0
 10 11  1  0
 11 12  2  0
 12 13  1  0
 13 14  2  0
 14 15  1  0
 15 16  1  0
 15 17  1  0
 15 18  1  0
 14 19  1  0
  8 20  1  0
 20  5  1  0
 19 11  1  0
M  END
>  <Compound_ID>  (915) 
CHEMBL295136

>  <Active>  (915) 
1.0

>  <Smiles>  (915) 
CC(=O)Nc1ncc(SCc2ncc(C(C)(C)C)o2)s1

>  <canonical_smi>  (915) 
CC(=O)Nc1ncc(SCc2ncc(C(C)(C)C)o2)s1

>  <Set>  (915) 
G2 active

>  <Set_type>  (915) 
Test

>  <MW>  (915) 
311.43

>  <HBD>  (915) 
1

>  <HBA>  (915) 
5

>  <NRB>  (915) 
4

>  <NR>  (915) 
2

>  <NAR>  (915) 
2

>  <PSA>  (915) 
68.02

>  <Standard Type>  (915) 
nan

>  <Standard Relation>  (915) 
nan

>  <Standard Units>  (915) 
nan

>  <Standard Value>  (915) 
nan

>  <Assay ChEMBL ID>  (915) 
nan

>  <Assay Description>  (915) 
nan

>  <BAO Label>  (915) 
nan

$$$$

     RDKit          2D

 28 31  0  0  0  0  0  0  0  0999 V2000
    2.4531  -11.2583    0.0000 C   0  0  0  0  0  0  0  0  0  0  0  0
    3.0632   -9.8880    0.0000 O   0  0  0  0  0  0  0  0  0  0  0  0
    2.1815   -8.6745    0.0000 C   0  0  0  0  0  0  0  0  0  0  0  0
    0.6897   -8.8313    0.0000 C   0  0  0  0  0  0  0  0  0  0  0  0
   -0.1920   -7.6177    0.0000 C   0  0  0  0  0  0  0  0  0  0  0  0
    0.4182   -6.2474    0.0000 C   0  0  0  0  0  0  0  0  0  0  0  0
   -0.4635   -5.0339    0.0000 C   0  0  0  0  0  0  0  0  0  0  0  0
   -1.9635   -5.0339    0.0000 N   0  0  0  0  0  0  0  0  0  0  0  0
   -2.4271   -3.6073    0.0000 N   0  0  0  0  0  0  0  0  0  0  0  0
   -1.2135   -2.7256    0.0000 C   0  0  0  0  0  0  0  0  0  0  0  0
   -0.0000   -3.6073    0.0000 C   0  0  0  0  0  0  0  0  0  0  0  0
    1.2135   -2.7256    0.0000 C   0  0  0  0  0  0  0  0  0  0  0  0
    2.6401   -3.1891    0.0000 O   0  0  0  0  0  0  0  0  0  0  0  0
    0.7500   -1.2990    0.0000 C   0  0  0  0  0  0  0  0  0  0  0  0
    1.5000    0.0000    0.0000 C   0  0  0  0  0  0  0  0  0  0  0  0
    3.0000    0.0000    0.0000 N   0  0  0  0  0  0  0  0  0  0  0  0
    3.7500    1.2990    0.0000 C   0  0  0  0  0  0  0  0  0  0  0  0
    3.0000    2.5981    0.0000 O   0  0  0  0  0  0  0  0  0  0  0  0
    5.2500    1.2990    0.0000 N   0  0  0  0  0  0  0  0  0  0  0  0
    6.0000    2.5981    0.0000 N   0  0  0  0  0  0  0  0  0  0  0  0
    7.5000    2.5981    0.0000 C   0  0  0  0  0  0  0  0  0  0  0  0
    5.2500    3.8971    0.0000 C   0  0  0  0  0  0  0  0  0  0  0  0
    0.7500    1.2990    0.0000 C   0  0  0  0  0  0  0  0  0  0  0  0
   -0.7500    1.2990    0.0000 C   0  0  0  0  0  0  0  0  0  0  0  0
   -1.5000    0.0000    0.0000 C   0  0  0  0  0  0  0  0  0  0  0  0
   -0.7500   -1.2990    0.0000 C   0  0  0  0  0  0  0  0  0  0  0  0
    1.9099   -6.0906    0.0000 C   0  0  0  0  0  0  0  0  0  0  0  0
    2.7916   -7.3041    0.0000 C   0  0  0  0  0  0  0  0  0  0  0  0
  1  2  1  0
  2  3  1  0
  3  4  2  0
  4  5  1  0
  5  6  2  0
  6  7  1  0
  7  8  1  0
  8  9  1  0
  9 10  2  0
 10 11  1  0
 11 12  1  0
 12 13  2  0
 12 14  1  0
 14 15  2  0
 15 16  1  0
 16 17  1  0
 17 18  2  0
 17 19  1  0
 19 20  1  0
 20 21  1  0
 20 22  1  0
 15 23  1  0
 23 24  2  0
 24 25  1  0
 25 26  2  0
  6 27  1  0
 27 28  2  0
 28  3  1  0
 11  7  2  0
 26 14  1  0
 26 10  1  0
M  END
>  <Compound_ID>  (916) 
CHEMBL358102

>  <Active>  (916) 
1.0

>  <Smiles>  (916) 
COc1ccc(-c2[nH]nc3c2C(=O)c2c(NC(=O)NN(C)C)cccc2-3)cc1

>  <canonical_smi>  (916) 
COc1ccc(-c2[nH]nc3c2C(=O)c2c(NC(=O)NN(C)C)cccc2-3)cc1

>  <Set>  (916) 
G2 active

>  <Set_type>  (916) 
Test

>  <MW>  (916) 
377.4

>  <HBD>  (916) 
3

>  <HBA>  (916) 
5

>  <NRB>  (916) 
4

>  <NR>  (916) 
4

>  <NAR>  (916) 
4

>  <PSA>  (916) 
99.35

>  <Standard Type>  (916) 
nan

>  <Standard Relation>  (916) 
nan

>  <Standard Units>  (916) 
nan

>  <Standard Value>  (916) 
nan

>  <Assay ChEMBL ID>  (916) 
nan

>  <Assay Description>  (916) 
nan

>  <BAO Label>  (916) 
nan

$$$$

     RDKit          2D

 26 30  0  0  0  0  0  0  0  0999 V2000
   -4.6845  -11.4787    0.0000 C   0  0  0  0  0  0  0  0  0  0  0  0
   -6.1111  -11.0151    0.0000 C   0  0  0  0  0  0  0  0  0  0  0  0
   -6.4230   -9.5479    0.0000 N   0  0  0  0  0  0  0  0  0  0  0  0
   -5.3083   -8.5442    0.0000 N   0  0  0  0  0  0  0  0  0  0  0  0
   -5.3083   -7.0442    0.0000 N   0  0  0  0  0  0  0  0  0  0  0  0
   -3.8817   -6.5807    0.0000 C   0  0  0  0  0  0  0  0  0  0  0  0
   -3.0000   -7.7942    0.0000 C   0  0  0  0  0  0  0  0  0  0  0  0
   -1.5000   -7.7942    0.0000 C   0  0  0  0  0  0  0  0  0  0  0  0
   -0.7500   -9.0933    0.0000 C   0  0  0  0  0  0  0  0  0  0  0  0
    0.7500   -9.0933    0.0000 C   0  0  0  0  0  0  0  0  0  0  0  0
    1.5000   -7.7942    0.0000 N   0  0  0  0  0  0  0  0  0  0  0  0
    0.7500   -6.4952    0.0000 C   0  0  0  0  0  0  0  0  0  0  0  0
    1.5000   -5.1962    0.0000 N   0  0  0  0  0  0  0  0  0  0  0  0
    0.7500   -3.8971    0.0000 C   0  0  0  0  0  0  0  0  0  0  0  0
   -0.7500   -3.8971    0.0000 C   0  0  0  0  0  0  0  0  0  0  0  0
   -1.5000   -2.5981    0.0000 C   0  0  0  0  0  0  0  0  0  0  0  0
   -0.7500   -1.2990    0.0000 C   0  0  0  0  0  0  0  0  0  0  0  0
    0.7500   -1.2990    0.0000 C   0  0  0  0  0  0  0  0  0  0  0  0
    1.5000   -2.5981    0.0000 C   0  0  0  0  0  0  0  0  0  0  0  0
    1.5000    0.0000    0.0000 O   0  0  0  0  0  0  0  0  0  0  0  0
    0.7500    1.2990    0.0000 C   0  0  0  0  0  0  0  0  0  0  0  0
   -0.7500    1.2990    0.0000 C   0  0  0  0  0  0  0  0  0  0  0  0
   -1.5000    0.0000    0.0000 O   0  0  0  0  0  0  0  0  0  0  0  0
   -0.7500   -6.4952    0.0000 N   0  0  0  0  0  0  0  0  0  0  0  0
   -3.8817   -9.0078    0.0000 C   0  0  0  0  0  0  0  0  0  0  0  0
   -3.5698  -10.4750    0.0000 C   0  0  0  0  0  0  0  0  0  0  0  0
  1  2  1  0
  2  3  2  0
  3  4  1  0
  4  5  1  0
  5  6  2  0
  6  7  1  0
  7  8  1  0
  8  9  2  0
  9 10  1  0
 10 11  2  0
 11 12  1  0
 12 13  1  0
 13 14  1  0
 14 15  2  0
 15 16  1  0
 16 17  2  0
 17 18  1  0
 18 19  2  0
 18 20  1  0
 20 21  1  0
 21 22  1  0
 22 23  1  0
 12 24  2  0
  7 25  2  0
 25 26  1  0
 26  1  2  0
 25  4  1  0
 24  8  1  0
 19 14  1  0
 23 17  1  0
M  END
>  <Compound_ID>  (917) 
CHEMBL361894

>  <Active>  (917) 
1.0

>  <Smiles>  (917) 
c1cnn2ncc(-c3ccnc(Nc4ccc5c(c4)OCCO5)n3)c2c1

>  <canonical_smi>  (917) 
c1cnn2ncc(-c3ccnc(Nc4ccc5c(c4)OCCO5)n3)c2c1

>  <Set>  (917) 
G2 active

>  <Set_type>  (917) 
Test

>  <MW>  (917) 
346.35

>  <HBD>  (917) 
1

>  <HBA>  (917) 
7

>  <NRB>  (917) 
3

>  <NR>  (917) 
5

>  <NAR>  (917) 
4

>  <PSA>  (917) 
86.46

>  <Standard Type>  (917) 
nan

>  <Standard Relation>  (917) 
nan

>  <Standard Units>  (917) 
nan

>  <Standard Value>  (917) 
nan

>  <Assay ChEMBL ID>  (917) 
nan

>  <Assay Description>  (917) 
nan

>  <BAO Label>  (917) 
nan

$$$$

     RDKit          2D

 27 31  0  0  0  0  0  0  0  0999 V2000
   10.5025    0.9260    0.0000 C   0  0  0  0  0  0  0  0  0  0  0  0
   10.4800   -0.5738    0.0000 C   0  0  0  0  0  0  0  0  0  0  0  0
    9.1699   -1.3043    0.0000 N   0  0  0  0  0  0  0  0  0  0  0  0
    7.8822   -0.5350    0.0000 N   0  0  0  0  0  0  0  0  0  0  0  0
    6.4489   -0.9771    0.0000 N   0  0  0  0  0  0  0  0  0  0  0  0
    5.5854    0.2495    0.0000 C   0  0  0  0  0  0  0  0  0  0  0  0
    6.4852    1.4497    0.0000 C   0  0  0  0  0  0  0  0  0  0  0  0
    6.0430    2.8830    0.0000 C   0  0  0  0  0  0  0  0  0  0  0  0
    7.0633    3.9826    0.0000 C   0  0  0  0  0  0  0  0  0  0  0  0
    6.6212    5.4160    0.0000 C   0  0  0  0  0  0  0  0  0  0  0  0
    5.1588    5.7498    0.0000 N   0  0  0  0  0  0  0  0  0  0  0  0
    4.1385    4.6502    0.0000 C   0  0  0  0  0  0  0  0  0  0  0  0
    2.6761    4.9840    0.0000 N   0  0  0  0  0  0  0  0  0  0  0  0
    1.6559    3.8844    0.0000 C   0  0  0  0  0  0  0  0  0  0  0  0
    0.1935    4.2182    0.0000 C   0  0  0  0  0  0  0  0  0  0  0  0
   -0.8268    3.1186    0.0000 C   0  0  0  0  0  0  0  0  0  0  0  0
   -0.3846    1.6852    0.0000 C   0  0  0  0  0  0  0  0  0  0  0  0
    1.0777    1.3515    0.0000 C   0  0  0  0  0  0  0  0  0  0  0  0
    2.0980    2.4510    0.0000 C   0  0  0  0  0  0  0  0  0  0  0  0
    1.7286    0.0000    0.0000 O   0  0  0  0  0  0  0  0  0  0  0  0
    1.0777   -1.3515    0.0000 C   0  0  0  0  0  0  0  0  0  0  0  0
   -0.3846   -1.6852    0.0000 C   0  0  0  0  0  0  0  0  0  0  0  0
   -1.5574   -0.7500    0.0000 C   0  0  0  0  0  0  0  0  0  0  0  0
   -1.5574    0.7500    0.0000 O   0  0  0  0  0  0  0  0  0  0  0  0
    4.5807    3.2168    0.0000 N   0  0  0  0  0  0  0  0  0  0  0  0
    7.9047    0.9649    0.0000 C   0  0  0  0  0  0  0  0  0  0  0  0
    9.2148    1.6954    0.0000 C   0  0  0  0  0  0  0  0  0  0  0  0
  1  2  1  0
  2  3  2  0
  3  4  1  0
  4  5  1  0
  5  6  2  0
  6  7  1  0
  7  8  1  0
  8  9  2  0
  9 10  1  0
 10 11  2  0
 11 12  1  0
 12 13  1  0
 13 14  1  0
 14 15  2  0
 15 16  1  0
 16 17  2  0
 17 18  1  0
 18 19  2  0
 18 20  1  0
 20 21  1  0
 21 22  1  0
 22 23  1  0
 23 24  1  0
 12 25  2  0
  7 26  2  0
 26 27  1  0
 27  1  2  0
 26  4  1  0
 25  8  1  0
 19 14  1  0
 24 17  1  0
M  END
>  <Compound_ID>  (918) 
CHEMBL186708

>  <Active>  (918) 
1.0

>  <Smiles>  (918) 
c1cnn2ncc(-c3ccnc(Nc4ccc5c(c4)OCCCO5)n3)c2c1

>  <canonical_smi>  (918) 
c1cnn2ncc(-c3ccnc(Nc4ccc5c(c4)OCCCO5)n3)c2c1

>  <Set>  (918) 
G2 active

>  <Set_type>  (918) 
Test

>  <MW>  (918) 
360.38

>  <HBD>  (918) 
1

>  <HBA>  (918) 
7

>  <NRB>  (918) 
3

>  <NR>  (918) 
5

>  <NAR>  (918) 
4

>  <PSA>  (918) 
86.46

>  <Standard Type>  (918) 
nan

>  <Standard Relation>  (918) 
nan

>  <Standard Units>  (918) 
nan

>  <Standard Value>  (918) 
nan

>  <Assay ChEMBL ID>  (918) 
nan

>  <Assay Description>  (918) 
nan

>  <BAO Label>  (918) 
nan

$$$$

     RDKit          2D

 34 38  0  0  0  0  0  0  0  0999 V2000
   -8.5234   -7.7536    0.0000 C   0  0  0  0  0  0  0  0  0  0  0  0
   -7.0317   -7.5968    0.0000 O   0  0  0  0  0  0  0  0  0  0  0  0
   -6.4216   -6.2265    0.0000 C   0  0  0  0  0  0  0  0  0  0  0  0
   -7.3032   -5.0129    0.0000 C   0  0  0  0  0  0  0  0  0  0  0  0
   -6.6931   -3.6426    0.0000 C   0  0  0  0  0  0  0  0  0  0  0  0
   -5.2013   -3.4858    0.0000 C   0  0  0  0  0  0  0  0  0  0  0  0
   -4.5912   -2.1155    0.0000 C   0  0  0  0  0  0  0  0  0  0  0  0
   -5.3412   -0.8165    0.0000 N   0  0  0  0  0  0  0  0  0  0  0  0
   -4.3375    0.2982    0.0000 N   0  0  0  0  0  0  0  0  0  0  0  0
   -2.9672   -0.3119    0.0000 C   0  0  0  0  0  0  0  0  0  0  0  0
   -3.1240   -1.8037    0.0000 C   0  0  0  0  0  0  0  0  0  0  0  0
   -1.7537   -2.4138    0.0000 C   0  0  0  0  0  0  0  0  0  0  0  0
   -1.4418   -3.8810    0.0000 O   0  0  0  0  0  0  0  0  0  0  0  0
   -0.7500   -1.2990    0.0000 C   0  0  0  0  0  0  0  0  0  0  0  0
    0.7500   -1.2990    0.0000 C   0  0  0  0  0  0  0  0  0  0  0  0
    1.5000   -2.5981    0.0000 N   0  0  0  0  0  0  0  0  0  0  0  0
    3.0000   -2.5981    0.0000 C   0  0  0  0  0  0  0  0  0  0  0  0
    3.7500   -1.2990    0.0000 O   0  0  0  0  0  0  0  0  0  0  0  0
    3.7500   -3.8971    0.0000 C   0  0  0  0  0  0  0  0  0  0  0  0
    5.2500   -3.8971    0.0000 N   0  0  0  0  0  0  0  0  0  0  0  0
    6.0000   -5.1962    0.0000 C   0  0  0  0  0  0  0  0  0  0  0  0
    7.5000   -5.1962    0.0000 C   0  0  0  0  0  0  0  0  0  0  0  0
    8.2500   -3.8971    0.0000 N   0  0  0  0  0  0  0  0  0  0  0  0
    9.7500   -3.8971    0.0000 C   0  0  0  0  0  0  0  0  0  0  0  0
   10.5000   -2.5981    0.0000 N   0  0  0  0  0  0  0  0  0  0  0  0
   10.5000   -5.1962    0.0000 N   0  0  0  0  0  0  0  0  0  0  0  0
    7.5000   -2.5981    0.0000 C   0  0  0  0  0  0  0  0  0  0  0  0
    6.0000   -2.5981    0.0000 C   0  0  0  0  0  0  0  0  0  0  0  0
    1.5000    0.0000    0.0000 C   0  0  0  0  0  0  0  0  0  0  0  0
    0.7500    1.2990    0.0000 C   0  0  0  0  0  0  0  0  0  0  0  0
   -0.7500    1.2990    0.0000 C   0  0  0  0  0  0  0  0  0  0  0  0
   -1.5000    0.0000    0.0000 C   0  0  0  0  0  0  0  0  0  0  0  0
   -4.3197   -4.6994    0.0000 C   0  0  0  0  0  0  0  0  0  0  0  0
   -4.9298   -6.0697    0.0000 C   0  0  0  0  0  0  0  0  0  0  0  0
  1  2  1  0
  2  3  1  0
  3  4  2  0
  4  5  1  0
  5  6  2  0
  6  7  1  0
  7  8  1  0
  8  9  1  0
  9 10  2  0
 10 11  1  0
 11 12  1  0
 12 13  2  0
 12 14  1  0
 14 15  2  0
 15 16  1  0
 16 17  1  0
 17 18  2  0
 17 19  1  0
 19 20  1  0
 20 21  1  0
 21 22  1  0
 22 23  1  0
 23 24  1  0
 24 25  2  0
 24 26  1  0
 23 27  1  0
 27 28  1  0
 15 29  1  0
 29 30  2  0
 30 31  1  0
 31 32  2  0
  6 33  1  0
 33 34  2  0
 34  3  1  0
 11  7  2  0
 32 14  1  0
 32 10  1  0
 28 20  1  0
M  END
>  <Compound_ID>  (919) 
CHEMBL148580

>  <Active>  (919) 
1.0

>  <Smiles>  (919) 
COc1ccc(-c2[nH]nc3c2C(=O)c2c(NC(=O)CN4CCN(C(=N)N)CC4)cccc2-3)cc1

>  <canonical_smi>  (919) 
COc1ccc(-c2[nH]nc3c2C(=O)c2c(NC(=O)CN4CCN(C(=N)N)CC4)cccc2-3)cc1

>  <Set>  (919) 
G2 active

>  <Set_type>  (919) 
Test

>  <MW>  (919) 
459.51

>  <HBD>  (919) 
4

>  <HBA>  (919) 
7

>  <NRB>  (919) 
5

>  <NR>  (919) 
5

>  <NAR>  (919) 
4

>  <PSA>  (919) 
140.43

>  <Standard Type>  (919) 
nan

>  <Standard Relation>  (919) 
nan

>  <Standard Units>  (919) 
nan

>  <Standard Value>  (919) 
nan

>  <Assay ChEMBL ID>  (919) 
nan

>  <Assay Description>  (919) 
nan

>  <BAO Label>  (919) 
nan

$$$$

     RDKit          2D

 24 26  0  0  0  0  0  0  0  0999 V2000
   -3.2082  -13.0594    0.0000 C   0  0  0  0  0  0  0  0  0  0  0  0
   -1.9092  -13.8094    0.0000 C   0  0  0  0  0  0  0  0  0  0  0  0
   -0.6101  -14.5594    0.0000 C   0  0  0  0  0  0  0  0  0  0  0  0
   -2.6592  -15.1085    0.0000 C   0  0  0  0  0  0  0  0  0  0  0  0
   -1.1592  -12.5104    0.0000 C   0  0  0  0  0  0  0  0  0  0  0  0
    0.3326  -12.3536    0.0000 C   0  0  0  0  0  0  0  0  0  0  0  0
    0.6445  -10.8864    0.0000 N   0  0  0  0  0  0  0  0  0  0  0  0
   -0.6546  -10.1364    0.0000 C   0  0  0  0  0  0  0  0  0  0  0  0
   -0.8113   -8.6446    0.0000 C   0  0  0  0  0  0  0  0  0  0  0  0
    0.4022   -7.7629    0.0000 S   0  0  0  0  0  0  0  0  0  0  0  0
    0.2454   -6.2711    0.0000 C   0  0  0  0  0  0  0  0  0  0  0  0
   -1.0537   -5.5211    0.0000 C   0  0  0  0  0  0  0  0  0  0  0  0
   -0.7418   -4.0539    0.0000 N   0  0  0  0  0  0  0  0  0  0  0  0
    0.7500   -3.8971    0.0000 C   0  0  0  0  0  0  0  0  0  0  0  0
    1.5000   -2.5981    0.0000 N   0  0  0  0  0  0  0  0  0  0  0  0
    0.7500   -1.2990    0.0000 C   0  0  0  0  0  0  0  0  0  0  0  0
    1.5000    0.0000    0.0000 C   0  0  0  0  0  0  0  0  0  0  0  0
    0.7500    1.2990    0.0000 C   0  0  0  0  0  0  0  0  0  0  0  0
   -0.7500    1.2990    0.0000 C   0  0  0  0  0  0  0  0  0  0  0  0
   -1.5000    2.5981    0.0000 O   0  0  0  0  0  0  0  0  0  0  0  0
   -1.5000    0.0000    0.0000 C   0  0  0  0  0  0  0  0  0  0  0  0
   -0.7500   -1.2990    0.0000 C   0  0  0  0  0  0  0  0  0  0  0  0
    1.3601   -5.2674    0.0000 S   0  0  0  0  0  0  0  0  0  0  0  0
   -1.7693  -11.1401    0.0000 O   0  0  0  0  0  0  0  0  0  0  0  0
  1  2  1  0
  2  3  1  0
  2  4  1  0
  2  5  1  0
  5  6  2  0
  6  7  1  0
  7  8  2  0
  8  9  1  0
  9 10  1  0
 10 11  1  0
 11 12  2  0
 12 13  1  0
 13 14  2  0
 14 15  1  0
 15 16  1  0
 16 17  1  0
 17 18  1  0
 18 19  1  0
 19 20  1  0
 19 21  1  0
 21 22  1  0
 14 23  1  0
  8 24  1  0
 24  5  1  0
 23 11  1  0
 22 16  1  0
M  END
>  <Compound_ID>  (920) 
CHEMBL495557

>  <Active>  (920) 
1.0

>  <Smiles>  (920) 
CC(C)(C)c1cnc(CSc2cnc(NC3CCC(O)CC3)s2)o1

>  <canonical_smi>  (920) 
CC(C)(C)c1cnc(CSc2cnc(NC3CCC(O)CC3)s2)o1

>  <Set>  (920) 
G2 active

>  <Set_type>  (920) 
Test

>  <MW>  (920) 
367.54

>  <HBD>  (920) 
2

>  <HBA>  (920) 
6

>  <NRB>  (920) 
5

>  <NR>  (920) 
3

>  <NAR>  (920) 
2

>  <PSA>  (920) 
71.18

>  <Standard Type>  (920) 
nan

>  <Standard Relation>  (920) 
nan

>  <Standard Units>  (920) 
nan

>  <Standard Value>  (920) 
nan

>  <Assay ChEMBL ID>  (920) 
nan

>  <Assay Description>  (920) 
nan

>  <BAO Label>  (920) 
nan

$$$$

     RDKit          2D

 29 33  0  0  0  0  0  0  0  0999 V2000
   -2.5565   -7.4827    0.0000 N   0  0  0  0  0  0  0  0  0  0  0  0
   -1.4418   -6.4791    0.0000 C   0  0  0  0  0  0  0  0  0  0  0  0
   -0.0152   -6.9426    0.0000 O   0  0  0  0  0  0  0  0  0  0  0  0
   -1.7537   -5.0118    0.0000 C   0  0  0  0  0  0  0  0  0  0  0  0
   -3.1240   -4.4017    0.0000 N   0  0  0  0  0  0  0  0  0  0  0  0
   -2.9672   -2.9099    0.0000 N   0  0  0  0  0  0  0  0  0  0  0  0
   -4.0819   -1.9062    0.0000 C   0  0  0  0  0  0  0  0  0  0  0  0
   -3.7701   -0.4390    0.0000 C   0  0  0  0  0  0  0  0  0  0  0  0
   -4.8848    0.5647    0.0000 C   0  0  0  0  0  0  0  0  0  0  0  0
   -6.3114    0.1011    0.0000 C   0  0  0  0  0  0  0  0  0  0  0  0
   -6.6232   -1.3661    0.0000 C   0  0  0  0  0  0  0  0  0  0  0  0
   -5.5085   -2.3698    0.0000 C   0  0  0  0  0  0  0  0  0  0  0  0
   -1.5000   -2.5981    0.0000 C   0  0  0  0  0  0  0  0  0  0  0  0
   -0.7500   -3.8971    0.0000 C   0  0  0  0  0  0  0  0  0  0  0  0
    0.7500   -3.8971    0.0000 C   0  0  0  0  0  0  0  0  0  0  0  0
    1.5000   -2.5981    0.0000 C   0  0  0  0  0  0  0  0  0  0  0  0
    0.7500   -1.2990    0.0000 C   0  0  0  0  0  0  0  0  0  0  0  0
    1.5000    0.0000    0.0000 C   0  0  0  0  0  0  0  0  0  0  0  0
    0.7500    1.2990    0.0000 N   0  0  0  0  0  0  0  0  0  0  0  0
   -0.7500    1.2990    0.0000 C   0  0  0  0  0  0  0  0  0  0  0  0
   -1.5000    2.5981    0.0000 N   0  0  0  0  0  0  0  0  0  0  0  0
   -0.7500    3.8971    0.0000 C   0  0  0  0  0  0  0  0  0  0  0  0
    0.7500    3.8971    0.0000 C   0  0  0  0  0  0  0  0  0  0  0  0
    1.5000    5.1962    0.0000 C   0  0  0  0  0  0  0  0  0  0  0  0
    0.7500    6.4952    0.0000 C   0  0  0  0  0  0  0  0  0  0  0  0
   -0.7500    6.4952    0.0000 C   0  0  0  0  0  0  0  0  0  0  0  0
   -1.5000    5.1962    0.0000 C   0  0  0  0  0  0  0  0  0  0  0  0
   -1.5000    0.0000    0.0000 N   0  0  0  0  0  0  0  0  0  0  0  0
   -0.7500   -1.2990    0.0000 C   0  0  0  0  0  0  0  0  0  0  0  0
  1  2  1  0
  2  3  2  0
  2  4  1  0
  4  5  2  0
  5  6  1  0
  6  7  1  0
  7  8  1  0
  8  9  1  0
  9 10  1  0
 10 11  1  0
 11 12  1  0
  6 13  1  0
 13 14  2  0
 14 15  1  0
 15 16  1  0
 16 17  1  0
 17 18  2  0
 18 19  1  0
 19 20  2  0
 20 21  1  0
 21 22  1  0
 22 23  2  0
 23 24  1  0
 24 25  2  0
 25 26  1  0
 26 27  2  0
 20 28  1  0
 28 29  2  0
 14  4  1  0
 29 17  1  0
 12  7  1  0
 29 13  1  0
 27 22  1  0
M  END
>  <Compound_ID>  (921) 
CHEMBL1094402

>  <Active>  (921) 
1.0

>  <Smiles>  (921) 
NC(=O)c1nn(C2CCCCC2)c2c1CCc1cnc(Nc3ccccc3)nc1-2

>  <canonical_smi>  (921) 
NC(=O)c1nn(C2CCCCC2)c2c1CCc1cnc(Nc3ccccc3)nc1-2

>  <Set>  (921) 
G2 active

>  <Set_type>  (921) 
Test

>  <MW>  (921) 
388.48

>  <HBD>  (921) 
2

>  <HBA>  (921) 
5

>  <NRB>  (921) 
4

>  <NR>  (921) 
5

>  <NAR>  (921) 
3

>  <PSA>  (921) 
98.72

>  <Standard Type>  (921) 
nan

>  <Standard Relation>  (921) 
nan

>  <Standard Units>  (921) 
nan

>  <Standard Value>  (921) 
nan

>  <Assay ChEMBL ID>  (921) 
nan

>  <Assay Description>  (921) 
nan

>  <BAO Label>  (921) 
nan

$$$$

     RDKit          2D

 27 30  0  0  0  0  0  0  0  0999 V2000
   -5.6260  -10.9888    0.0000 C   0  0  0  0  0  0  0  0  0  0  0  0
   -5.3142   -9.5216    0.0000 C   0  0  0  0  0  0  0  0  0  0  0  0
   -6.4289   -8.5179    0.0000 C   0  0  0  0  0  0  0  0  0  0  0  0
   -6.1170   -7.0506    0.0000 C   0  0  0  0  0  0  0  0  0  0  0  0
   -4.6904   -6.5871    0.0000 C   0  0  0  0  0  0  0  0  0  0  0  0
   -4.3786   -5.1199    0.0000 C   0  0  0  0  0  0  0  0  0  0  0  0
   -2.9520   -4.6564    0.0000 C   0  0  0  0  0  0  0  0  0  0  0  0
   -1.8373   -5.6601    0.0000 O   0  0  0  0  0  0  0  0  0  0  0  0
   -2.6401   -3.1891    0.0000 N   0  0  0  0  0  0  0  0  0  0  0  0
   -1.2135   -2.7256    0.0000 C   0  0  0  0  0  0  0  0  0  0  0  0
   -0.0000   -3.6073    0.0000 N   0  0  0  0  0  0  0  0  0  0  0  0
    1.2135   -2.7256    0.0000 N   0  0  0  0  0  0  0  0  0  0  0  0
    0.7500   -1.2990    0.0000 C   0  0  0  0  0  0  0  0  0  0  0  0
    1.5000    0.0000    0.0000 C   0  0  0  0  0  0  0  0  0  0  0  0
    0.7500    1.2990    0.0000 C   0  0  0  0  0  0  0  0  0  0  0  0
   -0.7500    1.2990    0.0000 C   0  0  0  0  0  0  0  0  0  0  0  0
   -1.5000    2.5981    0.0000 N   0  0  0  0  0  0  0  0  0  0  0  0
   -2.9918    2.7549    0.0000 C   0  0  0  0  0  0  0  0  0  0  0  0
   -3.3037    4.2221    0.0000 C   0  0  0  0  0  0  0  0  0  0  0  0
   -2.0046    4.9721    0.0000 C   0  0  0  0  0  0  0  0  0  0  0  0
   -0.8899    3.9684    0.0000 S   0  0  0  0  0  0  0  0  0  0  0  0
   -0.0082    5.1819    0.0000 O   0  0  0  0  0  0  0  0  0  0  0  0
    0.4091    3.2184    0.0000 O   0  0  0  0  0  0  0  0  0  0  0  0
   -1.5000    0.0000    0.0000 C   0  0  0  0  0  0  0  0  0  0  0  0
   -0.7500   -1.2990    0.0000 C   0  0  0  0  0  0  0  0  0  0  0  0
   -3.5757   -7.5908    0.0000 C   0  0  0  0  0  0  0  0  0  0  0  0
   -3.8876   -9.0580    0.0000 C   0  0  0  0  0  0  0  0  0  0  0  0
  1  2  1  0
  2  3  2  0
  3  4  1  0
  4  5  2  0
  5  6  1  0
  6  7  1  0
  7  8  2  0
  7  9  1  0
  9 10  1  0
 10 11  2  0
 11 12  1  0
 12 13  1  0
 13 14  2  0
 14 15  1  0
 15 16  2  0
 16 17  1  0
 17 18  1  0
 18 19  1  0
 19 20  1  0
 20 21  1  0
 21 22  2  0
 21 23  2  0
 16 24  1  0
 24 25  2  0
  5 26  1  0
 26 27  2  0
 27  2  1  0
 25 10  1  0
 25 13  1  0
 21 17  1  0
M  END
>  <Compound_ID>  (922) 
CHEMBL256558

>  <Active>  (922) 
1.0

>  <Smiles>  (922) 
Cc1ccc(CC(=O)Nc2n[nH]c3ccc(N4CCCS4(=O)=O)cc23)cc1

>  <canonical_smi>  (922) 
Cc1ccc(CC(=O)Nc2n[nH]c3ccc(N4CCCS4(=O)=O)cc23)cc1

>  <Set>  (922) 
G2 active

>  <Set_type>  (922) 
Test

>  <MW>  (922) 
384.46

>  <HBD>  (922) 
2

>  <HBA>  (922) 
4

>  <NRB>  (922) 
4

>  <NR>  (922) 
4

>  <NAR>  (922) 
3

>  <PSA>  (922) 
95.16

>  <Standard Type>  (922) 
nan

>  <Standard Relation>  (922) 
nan

>  <Standard Units>  (922) 
nan

>  <Standard Value>  (922) 
nan

>  <Assay ChEMBL ID>  (922) 
nan

>  <Assay Description>  (922) 
nan

>  <BAO Label>  (922) 
nan

$$$$

     RDKit          2D

 34 38  0  0  0  0  0  0  0  0999 V2000
   -8.5234   -7.7536    0.0000 C   0  0  0  0  0  0  0  0  0  0  0  0
   -7.0317   -7.5968    0.0000 O   0  0  0  0  0  0  0  0  0  0  0  0
   -6.4216   -6.2265    0.0000 C   0  0  0  0  0  0  0  0  0  0  0  0
   -7.3032   -5.0129    0.0000 C   0  0  0  0  0  0  0  0  0  0  0  0
   -6.6931   -3.6426    0.0000 C   0  0  0  0  0  0  0  0  0  0  0  0
   -5.2013   -3.4858    0.0000 C   0  0  0  0  0  0  0  0  0  0  0  0
   -4.5912   -2.1155    0.0000 C   0  0  0  0  0  0  0  0  0  0  0  0
   -5.3412   -0.8165    0.0000 N   0  0  0  0  0  0  0  0  0  0  0  0
   -4.3375    0.2982    0.0000 N   0  0  0  0  0  0  0  0  0  0  0  0
   -2.9672   -0.3119    0.0000 C   0  0  0  0  0  0  0  0  0  0  0  0
   -3.1240   -1.8037    0.0000 C   0  0  0  0  0  0  0  0  0  0  0  0
   -1.7537   -2.4138    0.0000 C   0  0  0  0  0  0  0  0  0  0  0  0
   -1.4418   -3.8810    0.0000 O   0  0  0  0  0  0  0  0  0  0  0  0
   -0.7500   -1.2990    0.0000 C   0  0  0  0  0  0  0  0  0  0  0  0
    0.7500   -1.2990    0.0000 C   0  0  0  0  0  0  0  0  0  0  0  0
    1.5000   -2.5981    0.0000 N   0  0  0  0  0  0  0  0  0  0  0  0
    3.0000   -2.5981    0.0000 C   0  0  0  0  0  0  0  0  0  0  0  0
    3.7500   -1.2990    0.0000 O   0  0  0  0  0  0  0  0  0  0  0  0
    3.7500   -3.8971    0.0000 C   0  0  0  0  0  0  0  0  0  0  0  0
    5.2500   -3.8971    0.0000 N   0  0  0  0  0  0  0  0  0  0  0  0
    6.0000   -5.1962    0.0000 C   0  0  0  0  0  0  0  0  0  0  0  0
    7.5000   -5.1962    0.0000 C   0  0  0  0  0  0  0  0  0  0  0  0
    8.2500   -3.8971    0.0000 C   0  0  0  0  0  0  0  0  0  0  0  0
    9.7500   -3.8971    0.0000 C   0  0  0  0  0  0  0  0  0  0  0  0
   10.5000   -5.1962    0.0000 N   0  0  0  0  0  0  0  0  0  0  0  0
   10.5000   -2.5981    0.0000 O   0  0  0  0  0  0  0  0  0  0  0  0
    7.5000   -2.5981    0.0000 C   0  0  0  0  0  0  0  0  0  0  0  0
    6.0000   -2.5981    0.0000 C   0  0  0  0  0  0  0  0  0  0  0  0
    1.5000    0.0000    0.0000 C   0  0  0  0  0  0  0  0  0  0  0  0
    0.7500    1.2990    0.0000 C   0  0  0  0  0  0  0  0  0  0  0  0
   -0.7500    1.2990    0.0000 C   0  0  0  0  0  0  0  0  0  0  0  0
   -1.5000    0.0000    0.0000 C   0  0  0  0  0  0  0  0  0  0  0  0
   -4.3197   -4.6994    0.0000 C   0  0  0  0  0  0  0  0  0  0  0  0
   -4.9298   -6.0697    0.0000 C   0  0  0  0  0  0  0  0  0  0  0  0
  1  2  1  0
  2  3  1  0
  3  4  2  0
  4  5  1  0
  5  6  2  0
  6  7  1  0
  7  8  1  0
  8  9  1  0
  9 10  2  0
 10 11  1  0
 11 12  1  0
 12 13  2  0
 12 14  1  0
 14 15  2  0
 15 16  1  0
 16 17  1  0
 17 18  2  0
 17 19  1  0
 19 20  1  0
 20 21  1  0
 21 22  1  0
 22 23  1  0
 23 24  1  0
 24 25  1  0
 24 26  2  0
 23 27  1  0
 27 28  1  0
 15 29  1  0
 29 30  2  0
 30 31  1  0
 31 32  2  0
  6 33  1  0
 33 34  2  0
 34  3  1  0
 11  7  2  0
 32 14  1  0
 32 10  1  0
 28 20  1  0
M  END
>  <Compound_ID>  (923) 
CHEMBL346184

>  <Active>  (923) 
1.0

>  <Smiles>  (923) 
COc1ccc(-c2[nH]nc3c2C(=O)c2c(NC(=O)CN4CCC(C(N)=O)CC4)cccc2-3)cc1

>  <canonical_smi>  (923) 
COc1ccc(-c2[nH]nc3c2C(=O)c2c(NC(=O)CN4CCC(C(N)=O)CC4)cccc2-3)cc1

>  <Set>  (923) 
G2 active

>  <Set_type>  (923) 
Test

>  <MW>  (923) 
459.51

>  <HBD>  (923) 
3

>  <HBA>  (923) 
6

>  <NRB>  (923) 
6

>  <NR>  (923) 
5

>  <NAR>  (923) 
4

>  <PSA>  (923) 
130.41

>  <Standard Type>  (923) 
nan

>  <Standard Relation>  (923) 
nan

>  <Standard Units>  (923) 
nan

>  <Standard Value>  (923) 
nan

>  <Assay ChEMBL ID>  (923) 
nan

>  <Assay Description>  (923) 
nan

>  <BAO Label>  (923) 
nan

$$$$

     RDKit          2D

 35 39  0  0  0  0  0  0  0  0999 V2000
   -8.5234   -7.7536    0.0000 C   0  0  0  0  0  0  0  0  0  0  0  0
   -7.0317   -7.5968    0.0000 O   0  0  0  0  0  0  0  0  0  0  0  0
   -6.4216   -6.2265    0.0000 C   0  0  0  0  0  0  0  0  0  0  0  0
   -7.3032   -5.0129    0.0000 C   0  0  0  0  0  0  0  0  0  0  0  0
   -6.6931   -3.6426    0.0000 C   0  0  0  0  0  0  0  0  0  0  0  0
   -5.2013   -3.4858    0.0000 C   0  0  0  0  0  0  0  0  0  0  0  0
   -4.5912   -2.1155    0.0000 C   0  0  0  0  0  0  0  0  0  0  0  0
   -5.3412   -0.8165    0.0000 N   0  0  0  0  0  0  0  0  0  0  0  0
   -4.3375    0.2982    0.0000 N   0  0  0  0  0  0  0  0  0  0  0  0
   -2.9672   -0.3119    0.0000 C   0  0  0  0  0  0  0  0  0  0  0  0
   -3.1240   -1.8037    0.0000 C   0  0  0  0  0  0  0  0  0  0  0  0
   -1.7537   -2.4138    0.0000 C   0  0  0  0  0  0  0  0  0  0  0  0
   -1.4418   -3.8810    0.0000 O   0  0  0  0  0  0  0  0  0  0  0  0
   -0.7500   -1.2990    0.0000 C   0  0  0  0  0  0  0  0  0  0  0  0
    0.7500   -1.2990    0.0000 C   0  0  0  0  0  0  0  0  0  0  0  0
    1.5000   -2.5981    0.0000 N   0  0  0  0  0  0  0  0  0  0  0  0
    3.0000   -2.5981    0.0000 C   0  0  0  0  0  0  0  0  0  0  0  0
    3.7500   -1.2990    0.0000 O   0  0  0  0  0  0  0  0  0  0  0  0
    3.7500   -3.8971    0.0000 N   0  0  0  0  0  0  0  0  0  0  0  0
    5.2500   -3.8971    0.0000 N   0  0  0  0  0  0  0  0  0  0  0  0
    6.0000   -5.1962    0.0000 C   0  0  0  0  0  0  0  0  0  0  0  0
    5.2500   -6.4952    0.0000 O   0  0  0  0  0  0  0  0  0  0  0  0
    7.5000   -5.1962    0.0000 C   0  0  0  0  0  0  0  0  0  0  0  0
    8.2500   -6.4952    0.0000 C   0  0  0  0  0  0  0  0  0  0  0  0
    9.7500   -6.4952    0.0000 C   0  0  0  0  0  0  0  0  0  0  0  0
   10.5000   -5.1962    0.0000 C   0  0  0  0  0  0  0  0  0  0  0  0
    9.7500   -3.8971    0.0000 C   0  0  0  0  0  0  0  0  0  0  0  0
    8.2500   -3.8971    0.0000 C   0  0  0  0  0  0  0  0  0  0  0  0
    7.5000   -2.5981    0.0000 O   0  0  0  0  0  0  0  0  0  0  0  0
    1.5000    0.0000    0.0000 C   0  0  0  0  0  0  0  0  0  0  0  0
    0.7500    1.2990    0.0000 C   0  0  0  0  0  0  0  0  0  0  0  0
   -0.7500    1.2990    0.0000 C   0  0  0  0  0  0  0  0  0  0  0  0
   -1.5000    0.0000    0.0000 C   0  0  0  0  0  0  0  0  0  0  0  0
   -4.3197   -4.6994    0.0000 C   0  0  0  0  0  0  0  0  0  0  0  0
   -4.9298   -6.0697    0.0000 C   0  0  0  0  0  0  0  0  0  0  0  0
  1  2  1  0
  2  3  1  0
  3  4  2  0
  4  5  1  0
  5  6  2  0
  6  7  1  0
  7  8  1  0
  8  9  1  0
  9 10  2  0
 10 11  1  0
 11 12  1  0
 12 13  2  0
 12 14  1  0
 14 15  2  0
 15 16  1  0
 16 17  1  0
 17 18  2  0
 17 19  1  0
 19 20  1  0
 20 21  1  0
 21 22  2  0
 21 23  1  0
 23 24  2  0
 24 25  1  0
 25 26  2  0
 26 27  1  0
 27 28  2  0
 28 29  1  0
 15 30  1  0
 30 31  2  0
 31 32  1  0
 32 33  2  0
  6 34  1  0
 34 35  2  0
 35  3  1  0
 11  7  2  0
 33 14  1  0
 33 10  1  0
 28 23  1  0
M  END
>  <Compound_ID>  (924) 
CHEMBL185255

>  <Active>  (924) 
1.0

>  <Smiles>  (924) 
COc1ccc(-c2[nH]nc3c2C(=O)c2c(NC(=O)NNC(=O)c4ccccc4O)cccc2-3)cc1

>  <canonical_smi>  (924) 
COc1ccc(-c2[nH]nc3c2C(=O)c2c(NC(=O)NNC(=O)c4ccccc4O)cccc2-3)cc1

>  <Set>  (924) 
G2 active

>  <Set_type>  (924) 
Test

>  <MW>  (924) 
469.46

>  <HBD>  (924) 
5

>  <HBA>  (924) 
6

>  <NRB>  (924) 
4

>  <NR>  (924) 
5

>  <NAR>  (924) 
5

>  <PSA>  (924) 
145.44

>  <Standard Type>  (924) 
nan

>  <Standard Relation>  (924) 
nan

>  <Standard Units>  (924) 
nan

>  <Standard Value>  (924) 
nan

>  <Assay ChEMBL ID>  (924) 
nan

>  <Assay Description>  (924) 
nan

>  <BAO Label>  (924) 
nan

$$$$

     RDKit          2D

 32 35  0  0  0  0  0  0  0  0999 V2000
   -2.9520   -4.6564    0.0000 C   0  0  0  0  0  0  0  0  0  0  0  0
   -2.6401   -3.1891    0.0000 C   0  0  0  0  0  0  0  0  0  0  0  0
   -1.2135   -2.7256    0.0000 C   0  0  0  0  0  0  0  0  0  0  0  0
   -0.0000   -3.6073    0.0000 N   0  0  0  0  0  0  0  0  0  0  0  0
    1.2135   -2.7256    0.0000 N   0  0  0  0  0  0  0  0  0  0  0  0
    2.6401   -3.1891    0.0000 C   0  0  0  0  0  0  0  0  0  0  0  0
    2.9520   -4.6564    0.0000 C   0  0  0  0  0  0  0  0  0  0  0  0
    1.8373   -5.6601    0.0000 Cl  0  0  0  0  0  0  0  0  0  0  0  0
    4.3786   -5.1199    0.0000 C   0  0  0  0  0  0  0  0  0  0  0  0
    5.4933   -4.1162    0.0000 C   0  0  0  0  0  0  0  0  0  0  0  0
    6.9199   -4.5797    0.0000 Cl  0  0  0  0  0  0  0  0  0  0  0  0
    5.1814   -2.6490    0.0000 C   0  0  0  0  0  0  0  0  0  0  0  0
    3.7548   -2.1855    0.0000 C   0  0  0  0  0  0  0  0  0  0  0  0
    3.4430   -0.7182    0.0000 Cl  0  0  0  0  0  0  0  0  0  0  0  0
    0.7500   -1.2990    0.0000 C   0  0  0  0  0  0  0  0  0  0  0  0
    1.5000    0.0000    0.0000 N   0  0  0  0  0  0  0  0  0  0  0  0
    0.7500    1.2990    0.0000 C   0  0  0  0  0  0  0  0  0  0  0  0
    1.5000    2.5981    0.0000 C   0  0  0  0  0  0  0  0  0  0  0  0
    3.0000    2.5981    0.0000 C   0  0  0  0  0  0  0  0  0  0  0  0
    3.7500    1.2990    0.0000 C   0  0  0  0  0  0  0  0  0  0  0  0
    5.2500    1.2990    0.0000 C   0  0  0  0  0  0  0  0  0  0  0  0
    6.0000    2.5981    0.0000 C   0  0  0  0  0  0  0  0  0  0  0  0
    7.5000    2.5981    0.0000 N   0  0  0  0  0  0  0  0  0  0  0  0
    8.2500    1.2990    0.0000 C   0  0  0  0  0  0  0  0  0  0  0  0
    9.7500    1.2990    0.0000 C   0  0  0  0  0  0  0  0  0  0  0  0
    7.5000   -0.0000    0.0000 O   0  0  0  0  0  0  0  0  0  0  0  0
    5.2500    3.8971    0.0000 C   0  0  0  0  0  0  0  0  0  0  0  0
    3.7500    3.8971    0.0000 C   0  0  0  0  0  0  0  0  0  0  0  0
   -0.7500    1.2990    0.0000 N   0  0  0  0  0  0  0  0  0  0  0  0
   -1.5000    0.0000    0.0000 C   0  0  0  0  0  0  0  0  0  0  0  0
   -3.0000    0.0000    0.0000 O   0  0  0  0  0  0  0  0  0  0  0  0
   -0.7500   -1.2990    0.0000 C   0  0  0  0  0  0  0  0  0  0  0  0
  1  2  1  0
  2  3  1  0
  3  4  2  0
  4  5  1  0
  5  6  1  0
  6  7  2  0
  7  8  1  0
  7  9  1  0
  9 10  2  0
 10 11  1  0
 10 12  1  0
 12 13  2  0
 13 14  1  0
  5 15  1  0
 15 16  2  0
 16 17  1  0
 17 18  1  0
 18 19  1  0
 19 20  2  0
 20 21  1  0
 21 22  2  0
 22 23  1  0
 23 24  1  0
 24 25  1  0
 24 26  2  0
 22 27  1  0
 27 28  2  0
 17 29  2  0
 29 30  1  0
 30 31  1  0
 30 32  2  0
 32  3  1  0
 13  6  1  0
 32 15  1  0
 28 19  1  0
M  END
>  <Compound_ID>  (925) 
CHEMBL188587

>  <Active>  (925) 
1.0

>  <Smiles>  (925) 
CCc1nn(-c2c(Cl)cc(Cl)cc2Cl)c2nc(Cc3ccc(NC(C)=O)cc3)nc(O)c12

>  <canonical_smi>  (925) 
CCc1nn(-c2c(Cl)cc(Cl)cc2Cl)c2nc(Cc3ccc(NC(C)=O)cc3)nc(O)c12

>  <Set>  (925) 
G2 active

>  <Set_type>  (925) 
Test

>  <MW>  (925) 
490.78

>  <HBD>  (925) 
2

>  <HBA>  (925) 
5

>  <NRB>  (925) 
5

>  <NR>  (925) 
4

>  <NAR>  (925) 
4

>  <PSA>  (925) 
92.93

>  <Standard Type>  (925) 
nan

>  <Standard Relation>  (925) 
nan

>  <Standard Units>  (925) 
nan

>  <Standard Value>  (925) 
nan

>  <Assay ChEMBL ID>  (925) 
nan

>  <Assay Description>  (925) 
nan

>  <BAO Label>  (925) 
nan

$$$$

     RDKit          2D

 27 31  0  0  0  0  0  0  0  0999 V2000
   -0.0000   -5.1073    0.0000 O   0  0  0  0  0  0  0  0  0  0  0  0
   -0.0000   -3.6073    0.0000 C   0  0  0  0  0  0  0  0  0  0  0  0
    1.2135   -2.7256    0.0000 N   0  0  0  0  0  0  0  0  0  0  0  0
    0.7500   -1.2990    0.0000 C   0  0  0  0  0  0  0  0  0  0  0  0
    1.5000    0.0000    0.0000 C   0  0  0  0  0  0  0  0  0  0  0  0
    0.7500    1.2990    0.0000 C   0  0  0  0  0  0  0  0  0  0  0  0
   -0.7500    1.2990    0.0000 C   0  0  0  0  0  0  0  0  0  0  0  0
   -1.5000    0.0000    0.0000 C   0  0  0  0  0  0  0  0  0  0  0  0
   -3.0000    0.0000    0.0000 C   0  0  0  0  0  0  0  0  0  0  0  0
   -3.7500    1.2990    0.0000 C   0  0  0  0  0  0  0  0  0  0  0  0
   -5.2500    1.2990    0.0000 C   0  0  0  0  0  0  0  0  0  0  0  0
   -6.0000    0.0000    0.0000 N   0  0  0  0  0  0  0  0  0  0  0  0
   -5.2500   -1.2990    0.0000 C   0  0  0  0  0  0  0  0  0  0  0  0
   -3.7500   -1.2990    0.0000 C   0  0  0  0  0  0  0  0  0  0  0  0
   -0.7500   -1.2990    0.0000 C   0  0  0  0  0  0  0  0  0  0  0  0
   -1.2135   -2.7256    0.0000 C   0  0  0  0  0  0  0  0  0  0  0  0
   -2.6401   -3.1891    0.0000 C   0  0  0  0  0  0  0  0  0  0  0  0
   -2.9520   -4.6564    0.0000 C   0  0  0  0  0  0  0  0  0  0  0  0
   -1.9483   -5.7711    0.0000 N   0  0  0  0  0  0  0  0  0  0  0  0
   -2.6983   -7.0701    0.0000 C   0  0  0  0  0  0  0  0  0  0  0  0
   -4.1655   -6.7583    0.0000 C   0  0  0  0  0  0  0  0  0  0  0  0
   -4.3223   -5.2665    0.0000 C   0  0  0  0  0  0  0  0  0  0  0  0
   -5.6926   -4.6564    0.0000 C   0  0  0  0  0  0  0  0  0  0  0  0
   -6.9061   -5.5380    0.0000 C   0  0  0  0  0  0  0  0  0  0  0  0
   -6.7493   -7.0298    0.0000 O   0  0  0  0  0  0  0  0  0  0  0  0
   -5.3790   -7.6399    0.0000 C   0  0  0  0  0  0  0  0  0  0  0  0
   -5.2222   -9.1317    0.0000 O   0  0  0  0  0  0  0  0  0  0  0  0
  1  2  2  0
  2  3  1  0
  3  4  1  0
  4  5  2  0
  5  6  1  0
  6  7  2  0
  7  8  1  0
  8  9  1  0
  9 10  1  0
 10 11  1  0
 11 12  1  0
 12 13  1  0
 13 14  1  0
  8 15  2  0
 15 16  1  0
 16 17  2  0
 17 18  1  0
 18 19  1  0
 19 20  1  0
 20 21  2  0
 21 22  1  0
 22 23  1  0
 23 24  1  0
 24 25  1  0
 25 26  1  0
 26 27  2  0
 16  2  1  0
 22 18  2  0
 15  4  1  0
 26 21  1  0
 14  9  1  0
M  END
>  <Compound_ID>  (926) 
CHEMBL58224

>  <Active>  (926) 
1.0

>  <Smiles>  (926) 
O=C1Nc2cccc(C3CCNCC3)c2/C1=C/c1[nH]cc2c1CCOC2=O

>  <canonical_smi>  (926) 
O=C1Nc2cccc(C3CCNCC3)c2/C1=C/c1[nH]cc2c1CCOC2=O

>  <Set>  (926) 
G2 active

>  <Set_type>  (926) 
Test

>  <MW>  (926) 
363.42

>  <HBD>  (926) 
3

>  <HBA>  (926) 
4

>  <NRB>  (926) 
2

>  <NR>  (926) 
5

>  <NAR>  (926) 
2

>  <PSA>  (926) 
83.22

>  <Standard Type>  (926) 
nan

>  <Standard Relation>  (926) 
nan

>  <Standard Units>  (926) 
nan

>  <Standard Value>  (926) 
nan

>  <Assay ChEMBL ID>  (926) 
nan

>  <Assay Description>  (926) 
nan

>  <BAO Label>  (926) 
nan

$$$$

     RDKit          2D

 30 34  0  0  0  0  0  0  0  0999 V2000
   -3.7500   -3.8971    0.0000 O   0  0  0  0  0  0  0  0  0  0  0  0
   -3.0000   -5.1962    0.0000 C   0  0  0  0  0  0  0  0  0  0  0  0
   -1.5000   -5.1962    0.0000 C   0  0  0  0  0  0  0  0  0  0  0  0
   -0.7500   -3.8971    0.0000 C   0  0  0  0  0  0  0  0  0  0  0  0
    0.7500   -3.8971    0.0000 C   0  0  0  0  0  0  0  0  0  0  0  0
    1.5000   -2.5981    0.0000 C   0  0  0  0  0  0  0  0  0  0  0  0
    0.7500   -1.2990    0.0000 C   0  0  0  0  0  0  0  0  0  0  0  0
    1.5000    0.0000    0.0000 C   0  0  0  0  0  0  0  0  0  0  0  0
    0.7500    1.2990    0.0000 C   0  0  0  0  0  0  0  0  0  0  0  0
   -0.7500    1.2990    0.0000 C   0  0  0  0  0  0  0  0  0  0  0  0
   -1.5000    0.0000    0.0000 C   0  0  0  0  0  0  0  0  0  0  0  0
   -0.7500   -1.2990    0.0000 C   0  0  0  0  0  0  0  0  0  0  0  0
   -1.5000   -2.5981    0.0000 C   0  0  0  0  0  0  0  0  0  0  0  0
   -3.7500   -6.4952    0.0000 N   0  0  0  0  0  0  0  0  0  0  0  0
   -5.2500   -6.4952    0.0000 C   0  0  0  0  0  0  0  0  0  0  0  0
   -6.1317   -5.2817    0.0000 N   0  0  0  0  0  0  0  0  0  0  0  0
   -7.5583   -5.7452    0.0000 N   0  0  0  0  0  0  0  0  0  0  0  0
   -7.5583   -7.2452    0.0000 C   0  0  0  0  0  0  0  0  0  0  0  0
   -8.6730   -8.2489    0.0000 C   0  0  0  0  0  0  0  0  0  0  0  0
   -8.3611   -9.7161    0.0000 C   0  0  0  0  0  0  0  0  0  0  0  0
   -6.9345  -10.1796    0.0000 C   0  0  0  0  0  0  0  0  0  0  0  0
   -6.6227  -11.6469    0.0000 N   0  0  0  0  0  0  0  0  0  0  0  0
   -5.2523  -12.2570    0.0000 C   0  0  0  0  0  0  0  0  0  0  0  0
   -5.4091  -13.7487    0.0000 C   0  0  0  0  0  0  0  0  0  0  0  0
   -6.8764  -14.0606    0.0000 C   0  0  0  0  0  0  0  0  0  0  0  0
   -7.6264  -12.7616    0.0000 S   0  0  0  0  0  0  0  0  0  0  0  0
   -8.8399  -13.6432    0.0000 O   0  0  0  0  0  0  0  0  0  0  0  0
   -8.6301  -11.6469    0.0000 O   0  0  0  0  0  0  0  0  0  0  0  0
   -5.8198   -9.1759    0.0000 C   0  0  0  0  0  0  0  0  0  0  0  0
   -6.1317   -7.7087    0.0000 C   0  0  0  0  0  0  0  0  0  0  0  0
  1  2  2  0
  2  3  1  0
  3  4  1  0
  4  5  2  0
  5  6  1  0
  6  7  2  0
  7  8  1  0
  8  9  2  0
  9 10  1  0
 10 11  2  0
 11 12  1  0
 12 13  2  0
  2 14  1  0
 14 15  1  0
 15 16  2  0
 16 17  1  0
 17 18  1  0
 18 19  2  0
 19 20  1  0
 20 21  2  0
 21 22  1  0
 22 23  1  0
 23 24  1  0
 24 25  1  0
 25 26  1  0
 26 27  2  0
 26 28  2  0
 21 29  1  0
 29 30  2  0
 13  4  1  0
 30 15  1  0
 12  7  1  0
 30 18  1  0
 26 22  1  0
M  END
>  <Compound_ID>  (927) 
CHEMBL254979

>  <Active>  (927) 
1.0

>  <Smiles>  (927) 
O=C(Cc1ccc2ccccc2c1)Nc1n[nH]c2ccc(N3CCCS3(=O)=O)cc12

>  <canonical_smi>  (927) 
O=C(Cc1ccc2ccccc2c1)Nc1n[nH]c2ccc(N3CCCS3(=O)=O)cc12

>  <Set>  (927) 
G2 active

>  <Set_type>  (927) 
Test

>  <MW>  (927) 
420.49

>  <HBD>  (927) 
2

>  <HBA>  (927) 
4

>  <NRB>  (927) 
4

>  <NR>  (927) 
5

>  <NAR>  (927) 
4

>  <PSA>  (927) 
95.16

>  <Standard Type>  (927) 
nan

>  <Standard Relation>  (927) 
nan

>  <Standard Units>  (927) 
nan

>  <Standard Value>  (927) 
nan

>  <Assay ChEMBL ID>  (927) 
nan

>  <Assay Description>  (927) 
nan

>  <BAO Label>  (927) 
nan

$$$$

     RDKit          2D

 36 40  0  0  0  0  0  0  0  0999 V2000
   12.7500   -6.4952    0.0000 C   0  0  0  0  0  0  0  0  0  0  0  0
   12.0000   -5.1962    0.0000 O   0  0  0  0  0  0  0  0  0  0  0  0
   10.5000   -5.1962    0.0000 C   0  0  0  0  0  0  0  0  0  0  0  0
    9.7500   -6.4952    0.0000 C   0  0  0  0  0  0  0  0  0  0  0  0
    8.2500   -6.4952    0.0000 C   0  0  0  0  0  0  0  0  0  0  0  0
    7.5000   -5.1962    0.0000 C   0  0  0  0  0  0  0  0  0  0  0  0
    6.0000   -5.1962    0.0000 C   0  0  0  0  0  0  0  0  0  0  0  0
    5.2500   -6.4952    0.0000 O   0  0  0  0  0  0  0  0  0  0  0  0
    5.2500   -3.8971    0.0000 N   0  0  0  0  0  0  0  0  0  0  0  0
    3.7500   -3.8971    0.0000 N   0  0  0  0  0  0  0  0  0  0  0  0
    3.0000   -2.5981    0.0000 C   0  0  0  0  0  0  0  0  0  0  0  0
    3.7500   -1.2990    0.0000 O   0  0  0  0  0  0  0  0  0  0  0  0
    1.5000   -2.5981    0.0000 N   0  0  0  0  0  0  0  0  0  0  0  0
    0.7500   -1.2990    0.0000 C   0  0  0  0  0  0  0  0  0  0  0  0
    1.5000    0.0000    0.0000 C   0  0  0  0  0  0  0  0  0  0  0  0
    0.7500    1.2990    0.0000 C   0  0  0  0  0  0  0  0  0  0  0  0
   -0.7500    1.2990    0.0000 C   0  0  0  0  0  0  0  0  0  0  0  0
   -1.5000    0.0000    0.0000 C   0  0  0  0  0  0  0  0  0  0  0  0
   -0.7500   -1.2990    0.0000 C   0  0  0  0  0  0  0  0  0  0  0  0
   -1.7537   -2.4138    0.0000 C   0  0  0  0  0  0  0  0  0  0  0  0
   -1.4418   -3.8810    0.0000 O   0  0  0  0  0  0  0  0  0  0  0  0
   -3.1240   -1.8037    0.0000 C   0  0  0  0  0  0  0  0  0  0  0  0
   -4.5912   -2.1155    0.0000 C   0  0  0  0  0  0  0  0  0  0  0  0
   -5.2013   -3.4858    0.0000 C   0  0  0  0  0  0  0  0  0  0  0  0
   -6.6931   -3.6426    0.0000 C   0  0  0  0  0  0  0  0  0  0  0  0
   -7.3032   -5.0129    0.0000 C   0  0  0  0  0  0  0  0  0  0  0  0
   -6.4216   -6.2265    0.0000 C   0  0  0  0  0  0  0  0  0  0  0  0
   -7.0317   -7.5968    0.0000 O   0  0  0  0  0  0  0  0  0  0  0  0
   -8.5234   -7.7536    0.0000 C   0  0  0  0  0  0  0  0  0  0  0  0
   -4.9298   -6.0697    0.0000 C   0  0  0  0  0  0  0  0  0  0  0  0
   -4.3197   -4.6994    0.0000 C   0  0  0  0  0  0  0  0  0  0  0  0
   -5.3412   -0.8165    0.0000 N   0  0  0  0  0  0  0  0  0  0  0  0
   -4.3375    0.2982    0.0000 N   0  0  0  0  0  0  0  0  0  0  0  0
   -2.9672   -0.3119    0.0000 C   0  0  0  0  0  0  0  0  0  0  0  0
    8.2500   -3.8971    0.0000 C   0  0  0  0  0  0  0  0  0  0  0  0
    9.7500   -3.8971    0.0000 C   0  0  0  0  0  0  0  0  0  0  0  0
  1  2  1  0
  2  3  1  0
  3  4  2  0
  4  5  1  0
  5  6  2  0
  6  7  1  0
  7  8  2  0
  7  9  1  0
  9 10  1  0
 10 11  1  0
 11 12  2  0
 11 13  1  0
 13 14  1  0
 14 15  2  0
 15 16  1  0
 16 17  2  0
 17 18  1  0
 18 19  2  0
 19 20  1  0
 20 21  2  0
 20 22  1  0
 22 23  1  0
 23 24  1  0
 24 25  2  0
 25 26  1  0
 26 27  2  0
 27 28  1  0
 28 29  1  0
 27 30  1  0
 30 31  2  0
 23 32  2  0
 32 33  1  0
 33 34  1  0
  6 35  1  0
 35 36  2  0
 36  3  1  0
 19 14  1  0
 34 22  2  0
 34 18  1  0
 31 24  1  0
M  END
>  <Compound_ID>  (928) 
CHEMBL186661

>  <Active>  (928) 
1.0

>  <Smiles>  (928) 
COc1ccc(C(=O)NNC(=O)Nc2cccc3c2C(=O)c2c(-c4ccc(OC)cc4)n[nH]c2-3)cc1

>  <canonical_smi>  (928) 
COc1ccc(C(=O)NNC(=O)Nc2cccc3c2C(=O)c2c(-c4ccc(OC)cc4)n[nH]c2-3)cc1

>  <Set>  (928) 
G2 active

>  <Set_type>  (928) 
Test

>  <MW>  (928) 
483.48

>  <HBD>  (928) 
4

>  <HBA>  (928) 
6

>  <NRB>  (928) 
5

>  <NR>  (928) 
5

>  <NAR>  (928) 
5

>  <PSA>  (928) 
134.44

>  <Standard Type>  (928) 
nan

>  <Standard Relation>  (928) 
nan

>  <Standard Units>  (928) 
nan

>  <Standard Value>  (928) 
nan

>  <Assay ChEMBL ID>  (928) 
nan

>  <Assay Description>  (928) 
nan

>  <BAO Label>  (928) 
nan

$$$$

     RDKit          2D

 34 38  0  0  0  0  0  0  0  0999 V2000
   -8.5234   -7.7536    0.0000 C   0  0  0  0  0  0  0  0  0  0  0  0
   -7.0317   -7.5968    0.0000 O   0  0  0  0  0  0  0  0  0  0  0  0
   -6.4216   -6.2265    0.0000 C   0  0  0  0  0  0  0  0  0  0  0  0
   -7.3032   -5.0129    0.0000 C   0  0  0  0  0  0  0  0  0  0  0  0
   -6.6931   -3.6426    0.0000 C   0  0  0  0  0  0  0  0  0  0  0  0
   -5.2013   -3.4858    0.0000 C   0  0  0  0  0  0  0  0  0  0  0  0
   -4.5912   -2.1155    0.0000 C   0  0  0  0  0  0  0  0  0  0  0  0
   -5.3412   -0.8165    0.0000 N   0  0  0  0  0  0  0  0  0  0  0  0
   -4.3375    0.2982    0.0000 N   0  0  0  0  0  0  0  0  0  0  0  0
   -2.9672   -0.3119    0.0000 C   0  0  0  0  0  0  0  0  0  0  0  0
   -3.1240   -1.8037    0.0000 C   0  0  0  0  0  0  0  0  0  0  0  0
   -1.7537   -2.4138    0.0000 C   0  0  0  0  0  0  0  0  0  0  0  0
   -1.4418   -3.8810    0.0000 O   0  0  0  0  0  0  0  0  0  0  0  0
   -0.7500   -1.2990    0.0000 C   0  0  0  0  0  0  0  0  0  0  0  0
    0.7500   -1.2990    0.0000 C   0  0  0  0  0  0  0  0  0  0  0  0
    1.5000   -2.5981    0.0000 N   0  0  0  0  0  0  0  0  0  0  0  0
    3.0000   -2.5981    0.0000 C   0  0  0  0  0  0  0  0  0  0  0  0
    3.7500   -1.2990    0.0000 O   0  0  0  0  0  0  0  0  0  0  0  0
    3.7500   -3.8971    0.0000 N   0  0  0  0  0  0  0  0  0  0  0  0
    5.2500   -3.8971    0.0000 N   0  0  0  0  0  0  0  0  0  0  0  0
    6.0000   -5.1962    0.0000 C   0  0  0  0  0  0  0  0  0  0  0  0
    5.2500   -6.4952    0.0000 O   0  0  0  0  0  0  0  0  0  0  0  0
    7.5000   -5.1962    0.0000 C   0  0  0  0  0  0  0  0  0  0  0  0
    8.2500   -6.4952    0.0000 C   0  0  0  0  0  0  0  0  0  0  0  0
    9.7500   -6.4952    0.0000 C   0  0  0  0  0  0  0  0  0  0  0  0
   10.5000   -5.1962    0.0000 N   0  0  0  0  0  0  0  0  0  0  0  0
    9.7500   -3.8971    0.0000 C   0  0  0  0  0  0  0  0  0  0  0  0
    8.2500   -3.8971    0.0000 C   0  0  0  0  0  0  0  0  0  0  0  0
    1.5000    0.0000    0.0000 C   0  0  0  0  0  0  0  0  0  0  0  0
    0.7500    1.2990    0.0000 C   0  0  0  0  0  0  0  0  0  0  0  0
   -0.7500    1.2990    0.0000 C   0  0  0  0  0  0  0  0  0  0  0  0
   -1.5000    0.0000    0.0000 C   0  0  0  0  0  0  0  0  0  0  0  0
   -4.3197   -4.6994    0.0000 C   0  0  0  0  0  0  0  0  0  0  0  0
   -4.9298   -6.0697    0.0000 C   0  0  0  0  0  0  0  0  0  0  0  0
  1  2  1  0
  2  3  1  0
  3  4  2  0
  4  5  1  0
  5  6  2  0
  6  7  1  0
  7  8  1  0
  8  9  1  0
  9 10  2  0
 10 11  1  0
 11 12  1  0
 12 13  2  0
 12 14  1  0
 14 15  2  0
 15 16  1  0
 16 17  1  0
 17 18  2  0
 17 19  1  0
 19 20  1  0
 20 21  1  0
 21 22  2  0
 21 23  1  0
 23 24  2  0
 24 25  1  0
 25 26  2  0
 26 27  1  0
 27 28  2  0
 15 29  1  0
 29 30  2  0
 30 31  1  0
 31 32  2  0
  6 33  1  0
 33 34  2  0
 34  3  1  0
 11  7  2  0
 32 14  1  0
 32 10  1  0
 28 23  1  0
M  END
>  <Compound_ID>  (929) 
CHEMBL188010

>  <Active>  (929) 
1.0

>  <Smiles>  (929) 
COc1ccc(-c2[nH]nc3c2C(=O)c2c(NC(=O)NNC(=O)c4ccncc4)cccc2-3)cc1

>  <canonical_smi>  (929) 
COc1ccc(-c2[nH]nc3c2C(=O)c2c(NC(=O)NNC(=O)c4ccncc4)cccc2-3)cc1

>  <Set>  (929) 
G2 active

>  <Set_type>  (929) 
Test

>  <MW>  (929) 
454.45

>  <HBD>  (929) 
4

>  <HBA>  (929) 
6

>  <NRB>  (929) 
4

>  <NR>  (929) 
5

>  <NAR>  (929) 
5

>  <PSA>  (929) 
138.1

>  <Standard Type>  (929) 
nan

>  <Standard Relation>  (929) 
nan

>  <Standard Units>  (929) 
nan

>  <Standard Value>  (929) 
nan

>  <Assay ChEMBL ID>  (929) 
nan

>  <Assay Description>  (929) 
nan

>  <BAO Label>  (929) 
nan

$$$$

     RDKit          2D

 28 31  0  0  0  0  0  0  0  0999 V2000
   -2.9520   -4.6564    0.0000 C   0  0  0  0  0  0  0  0  0  0  0  0
   -2.6401   -3.1891    0.0000 C   0  0  0  0  0  0  0  0  0  0  0  0
   -1.2135   -2.7256    0.0000 C   0  0  0  0  0  0  0  0  0  0  0  0
   -0.0000   -3.6073    0.0000 N   0  0  0  0  0  0  0  0  0  0  0  0
    1.2135   -2.7256    0.0000 N   0  0  0  0  0  0  0  0  0  0  0  0
    2.6401   -3.1891    0.0000 C   0  0  0  0  0  0  0  0  0  0  0  0
    2.9520   -4.6564    0.0000 C   0  0  0  0  0  0  0  0  0  0  0  0
    1.8373   -5.6601    0.0000 Cl  0  0  0  0  0  0  0  0  0  0  0  0
    4.3786   -5.1199    0.0000 C   0  0  0  0  0  0  0  0  0  0  0  0
    5.4933   -4.1162    0.0000 C   0  0  0  0  0  0  0  0  0  0  0  0
    6.9199   -4.5797    0.0000 Cl  0  0  0  0  0  0  0  0  0  0  0  0
    5.1814   -2.6490    0.0000 C   0  0  0  0  0  0  0  0  0  0  0  0
    3.7548   -2.1855    0.0000 C   0  0  0  0  0  0  0  0  0  0  0  0
    3.4430   -0.7182    0.0000 Cl  0  0  0  0  0  0  0  0  0  0  0  0
    0.7500   -1.2990    0.0000 C   0  0  0  0  0  0  0  0  0  0  0  0
    1.5000    0.0000    0.0000 N   0  0  0  0  0  0  0  0  0  0  0  0
    0.7500    1.2990    0.0000 C   0  0  0  0  0  0  0  0  0  0  0  0
    1.5000    2.5981    0.0000 C   0  0  0  0  0  0  0  0  0  0  0  0
    3.0000    2.5981    0.0000 C   0  0  0  0  0  0  0  0  0  0  0  0
    3.7500    1.2990    0.0000 C   0  0  0  0  0  0  0  0  0  0  0  0
    5.2500    1.2990    0.0000 C   0  0  0  0  0  0  0  0  0  0  0  0
    6.0000    2.5981    0.0000 C   0  0  0  0  0  0  0  0  0  0  0  0
    5.2500    3.8971    0.0000 N   0  0  0  0  0  0  0  0  0  0  0  0
    3.7500    3.8971    0.0000 C   0  0  0  0  0  0  0  0  0  0  0  0
   -0.7500    1.2990    0.0000 N   0  0  0  0  0  0  0  0  0  0  0  0
   -1.5000    0.0000    0.0000 C   0  0  0  0  0  0  0  0  0  0  0  0
   -3.0000    0.0000    0.0000 O   0  0  0  0  0  0  0  0  0  0  0  0
   -0.7500   -1.2990    0.0000 C   0  0  0  0  0  0  0  0  0  0  0  0
  1  2  1  0
  2  3  1  0
  3  4  2  0
  4  5  1  0
  5  6  1  0
  6  7  2  0
  7  8  1  0
  7  9  1  0
  9 10  2  0
 10 11  1  0
 10 12  1  0
 12 13  2  0
 13 14  1  0
  5 15  1  0
 15 16  2  0
 16 17  1  0
 17 18  1  0
 18 19  1  0
 19 20  2  0
 20 21  1  0
 21 22  2  0
 22 23  1  0
 23 24  2  0
 17 25  2  0
 25 26  1  0
 26 27  1  0
 26 28  2  0
 28  3  1  0
 13  6  1  0
 28 15  1  0
 24 19  1  0
M  END
>  <Compound_ID>  (930) 
CHEMBL365713

>  <Active>  (930) 
1.0

>  <Smiles>  (930) 
CCc1nn(-c2c(Cl)cc(Cl)cc2Cl)c2nc(Cc3cccnc3)nc(O)c12

>  <canonical_smi>  (930) 
CCc1nn(-c2c(Cl)cc(Cl)cc2Cl)c2nc(Cc3cccnc3)nc(O)c12

>  <Set>  (930) 
G2 active

>  <Set_type>  (930) 
Test

>  <MW>  (930) 
434.71

>  <HBD>  (930) 
1

>  <HBA>  (930) 
5

>  <NRB>  (930) 
4

>  <NR>  (930) 
4

>  <NAR>  (930) 
4

>  <PSA>  (930) 
76.72

>  <Standard Type>  (930) 
nan

>  <Standard Relation>  (930) 
nan

>  <Standard Units>  (930) 
nan

>  <Standard Value>  (930) 
nan

>  <Assay ChEMBL ID>  (930) 
nan

>  <Assay Description>  (930) 
nan

>  <BAO Label>  (930) 
nan

$$$$

     RDKit          2D

 25 28  0  0  0  0  0  0  0  0999 V2000
    0.7500   -3.8971    0.0000 C   0  0  0  0  0  0  0  0  0  0  0  0
    1.5000   -2.5981    0.0000 C   0  0  0  0  0  0  0  0  0  0  0  0
    3.0000   -2.5981    0.0000 C   0  0  0  0  0  0  0  0  0  0  0  0
    3.7500   -1.2990    0.0000 O   0  0  0  0  0  0  0  0  0  0  0  0
    3.7500   -3.8971    0.0000 N   0  0  0  0  0  0  0  0  0  0  0  0
    5.2500   -3.8971    0.0000 C   0  0  0  0  0  0  0  0  0  0  0  0
    6.1317   -2.6836    0.0000 C   0  0  0  0  0  0  0  0  0  0  0  0
    7.5583   -3.1471    0.0000 C   0  0  0  0  0  0  0  0  0  0  0  0
    8.7718   -2.2654    0.0000 C   0  0  0  0  0  0  0  0  0  0  0  0
    9.3819   -0.8951    0.0000 C   0  0  0  0  0  0  0  0  0  0  0  0
   10.2636   -2.1086    0.0000 C   0  0  0  0  0  0  0  0  0  0  0  0
    7.5583   -4.6471    0.0000 N   0  0  0  0  0  0  0  0  0  0  0  0
    6.1317   -5.1106    0.0000 N   0  0  0  0  0  0  0  0  0  0  0  0
    0.7500   -1.2990    0.0000 C   0  0  0  0  0  0  0  0  0  0  0  0
    1.5000    0.0000    0.0000 C   0  0  0  0  0  0  0  0  0  0  0  0
    0.7500    1.2990    0.0000 C   0  0  0  0  0  0  0  0  0  0  0  0
   -0.7500    1.2990    0.0000 C   0  0  0  0  0  0  0  0  0  0  0  0
   -1.5000    2.5981    0.0000 N   0  0  0  0  0  0  0  0  0  0  0  0
   -2.9918    2.7549    0.0000 C   0  0  0  0  0  0  0  0  0  0  0  0
   -3.3037    4.2221    0.0000 C   0  0  0  0  0  0  0  0  0  0  0  0
   -2.0046    4.9721    0.0000 N   0  0  0  0  0  0  0  0  0  0  0  0
   -0.8899    3.9684    0.0000 C   0  0  0  0  0  0  0  0  0  0  0  0
    0.5773    4.2803    0.0000 O   0  0  0  0  0  0  0  0  0  0  0  0
   -1.5000    0.0000    0.0000 C   0  0  0  0  0  0  0  0  0  0  0  0
   -0.7500   -1.2990    0.0000 C   0  0  0  0  0  0  0  0  0  0  0  0
  1  2  1  0
  2  3  1  0
  3  4  2  0
  3  5  1  0
  5  6  1  0
  6  7  1  0
  7  8  2  0
  8  9  1  0
  9 10  1  0
 10 11  1  0
  8 12  1  0
 12 13  1  0
  2 14  1  0
 14 15  2  0
 15 16  1  0
 16 17  2  0
 17 18  1  0
 18 19  1  0
 19 20  2  0
 20 21  1  0
 21 22  2  0
 22 23  1  0
 17 24  1  0
 24 25  2  0
 13  6  2  0
 25 14  1  0
 11  9  1  0
 22 18  1  0
M  END
>  <Compound_ID>  (931) 
CHEMBL193210

>  <Active>  (931) 
1.0

>  <Smiles>  (931) 
CC(C(=O)Nc1cc(C2CC2)[nH]n1)c1ccc(-n2ccnc2O)cc1

>  <canonical_smi>  (931) 
CC(C(=O)Nc1cc(C2CC2)[nH]n1)c1ccc(-n2ccnc2O)cc1

>  <Set>  (931) 
G2 active

>  <Set_type>  (931) 
Test

>  <MW>  (931) 
337.38

>  <HBD>  (931) 
3

>  <HBA>  (931) 
4

>  <NRB>  (931) 
5

>  <NR>  (931) 
4

>  <NAR>  (931) 
3

>  <PSA>  (931) 
95.83

>  <Standard Type>  (931) 
nan

>  <Standard Relation>  (931) 
nan

>  <Standard Units>  (931) 
nan

>  <Standard Value>  (931) 
nan

>  <Assay ChEMBL ID>  (931) 
nan

>  <Assay Description>  (931) 
nan

>  <BAO Label>  (931) 
nan

$$$$

     RDKit          2D

 32 36  0  0  0  0  0  0  0  0999 V2000
   -8.5234   -7.7536    0.0000 C   0  0  0  0  0  0  0  0  0  0  0  0
   -7.0317   -7.5968    0.0000 O   0  0  0  0  0  0  0  0  0  0  0  0
   -6.4216   -6.2265    0.0000 C   0  0  0  0  0  0  0  0  0  0  0  0
   -7.3032   -5.0129    0.0000 C   0  0  0  0  0  0  0  0  0  0  0  0
   -6.6931   -3.6426    0.0000 C   0  0  0  0  0  0  0  0  0  0  0  0
   -5.2013   -3.4858    0.0000 C   0  0  0  0  0  0  0  0  0  0  0  0
   -4.5912   -2.1155    0.0000 C   0  0  0  0  0  0  0  0  0  0  0  0
   -5.3412   -0.8165    0.0000 N   0  0  0  0  0  0  0  0  0  0  0  0
   -4.3375    0.2982    0.0000 N   0  0  0  0  0  0  0  0  0  0  0  0
   -2.9672   -0.3119    0.0000 C   0  0  0  0  0  0  0  0  0  0  0  0
   -3.1240   -1.8037    0.0000 C   0  0  0  0  0  0  0  0  0  0  0  0
   -1.7537   -2.4138    0.0000 C   0  0  0  0  0  0  0  0  0  0  0  0
   -1.4418   -3.8810    0.0000 O   0  0  0  0  0  0  0  0  0  0  0  0
   -0.7500   -1.2990    0.0000 C   0  0  0  0  0  0  0  0  0  0  0  0
    0.7500   -1.2990    0.0000 C   0  0  0  0  0  0  0  0  0  0  0  0
    1.5000   -2.5981    0.0000 N   0  0  0  0  0  0  0  0  0  0  0  0
    3.0000   -2.5981    0.0000 C   0  0  0  0  0  0  0  0  0  0  0  0
    3.7500   -1.2990    0.0000 O   0  0  0  0  0  0  0  0  0  0  0  0
    3.7500   -3.8971    0.0000 N   0  0  0  0  0  0  0  0  0  0  0  0
    5.2500   -3.8971    0.0000 N   0  0  0  0  0  0  0  0  0  0  0  0
    6.0000   -5.1962    0.0000 C   0  0  0  0  0  0  0  0  0  0  0  0
    7.5000   -5.1962    0.0000 C   0  0  0  0  0  0  0  0  0  0  0  0
    8.2500   -3.8971    0.0000 N   0  0  0  0  0  0  0  0  0  0  0  0
    9.7500   -3.8971    0.0000 C   0  0  0  0  0  0  0  0  0  0  0  0
    7.5000   -2.5981    0.0000 C   0  0  0  0  0  0  0  0  0  0  0  0
    6.0000   -2.5981    0.0000 C   0  0  0  0  0  0  0  0  0  0  0  0
    1.5000    0.0000    0.0000 C   0  0  0  0  0  0  0  0  0  0  0  0
    0.7500    1.2990    0.0000 C   0  0  0  0  0  0  0  0  0  0  0  0
   -0.7500    1.2990    0.0000 C   0  0  0  0  0  0  0  0  0  0  0  0
   -1.5000    0.0000    0.0000 C   0  0  0  0  0  0  0  0  0  0  0  0
   -4.3197   -4.6994    0.0000 C   0  0  0  0  0  0  0  0  0  0  0  0
   -4.9298   -6.0697    0.0000 C   0  0  0  0  0  0  0  0  0  0  0  0
  1  2  1  0
  2  3  1  0
  3  4  2  0
  4  5  1  0
  5  6  2  0
  6  7  1  0
  7  8  1  0
  8  9  1  0
  9 10  2  0
 10 11  1  0
 11 12  1  0
 12 13  2  0
 12 14  1  0
 14 15  2  0
 15 16  1  0
 16 17  1  0
 17 18  2  0
 17 19  1  0
 19 20  1  0
 20 21  1  0
 21 22  1  0
 22 23  1  0
 23 24  1  0
 23 25  1  0
 25 26  1  0
 15 27  1  0
 27 28  2  0
 28 29  1  0
 29 30  2  0
  6 31  1  0
 31 32  2  0
 32  3  1  0
 11  7  2  0
 30 14  1  0
 30 10  1  0
 26 20  1  0
M  END
>  <Compound_ID>  (932) 
CHEMBL345525

>  <Active>  (932) 
1.0

>  <Smiles>  (932) 
COc1ccc(-c2[nH]nc3c2C(=O)c2c(NC(=O)NN4CCN(C)CC4)cccc2-3)cc1

>  <canonical_smi>  (932) 
COc1ccc(-c2[nH]nc3c2C(=O)c2c(NC(=O)NN4CCN(C)CC4)cccc2-3)cc1

>  <Set>  (932) 
G2 active

>  <Set_type>  (932) 
Test

>  <MW>  (932) 
432.48

>  <HBD>  (932) 
3

>  <HBA>  (932) 
6

>  <NRB>  (932) 
4

>  <NR>  (932) 
5

>  <NAR>  (932) 
4

>  <PSA>  (932) 
102.59

>  <Standard Type>  (932) 
nan

>  <Standard Relation>  (932) 
nan

>  <Standard Units>  (932) 
nan

>  <Standard Value>  (932) 
nan

>  <Assay ChEMBL ID>  (932) 
nan

>  <Assay Description>  (932) 
nan

>  <BAO Label>  (932) 
nan

$$$$

     RDKit          2D

 31 34  0  0  0  0  0  0  0  0999 V2000
  -10.0849   -6.9740    0.0000 N   0  0  0  0  0  0  0  0  0  0  0  0
   -8.6583   -6.5105    0.0000 S   0  0  0  0  0  0  0  0  0  0  0  0
   -9.1218   -5.0839    0.0000 O   0  0  0  0  0  0  0  0  0  0  0  0
   -8.1948   -7.9371    0.0000 O   0  0  0  0  0  0  0  0  0  0  0  0
   -7.2317   -6.0469    0.0000 C   0  0  0  0  0  0  0  0  0  0  0  0
   -6.9199   -4.5797    0.0000 C   0  0  0  0  0  0  0  0  0  0  0  0
   -5.4933   -4.1162    0.0000 C   0  0  0  0  0  0  0  0  0  0  0  0
   -4.3786   -5.1199    0.0000 C   0  0  0  0  0  0  0  0  0  0  0  0
   -2.9520   -4.6564    0.0000 N   0  0  0  0  0  0  0  0  0  0  0  0
   -2.6401   -3.1891    0.0000 N   0  0  0  0  0  0  0  0  0  0  0  0
   -1.2135   -2.7256    0.0000 C   0  0  0  0  0  0  0  0  0  0  0  0
   -0.0000   -3.6073    0.0000 C   0  0  0  0  0  0  0  0  0  0  0  0
    0.0000   -5.1073    0.0000 O   0  0  0  0  0  0  0  0  0  0  0  0
    1.2135   -2.7256    0.0000 N   0  0  0  0  0  0  0  0  0  0  0  0
    0.7500   -1.2990    0.0000 C   0  0  0  0  0  0  0  0  0  0  0  0
    1.5000    0.0000    0.0000 C   0  0  0  0  0  0  0  0  0  0  0  0
    0.7500    1.2990    0.0000 C   0  0  0  0  0  0  0  0  0  0  0  0
   -0.7500    1.2990    0.0000 C   0  0  0  0  0  0  0  0  0  0  0  0
   -1.5000    0.0000    0.0000 C   0  0  0  0  0  0  0  0  0  0  0  0
   -3.0000    0.0000    0.0000 C   0  0  0  0  0  0  0  0  0  0  0  0
   -3.7500    1.2990    0.0000 C   0  0  0  0  0  0  0  0  0  0  0  0
   -5.2500    1.2990    0.0000 C   0  0  0  0  0  0  0  0  0  0  0  0
   -6.0000    2.5981    0.0000 C   0  0  0  0  0  0  0  0  0  0  0  0
   -7.5000    2.5981    0.0000 C   0  0  0  0  0  0  0  0  0  0  0  0
   -8.2500    1.2990    0.0000 C   0  0  0  0  0  0  0  0  0  0  0  0
   -9.7500    1.2990    0.0000 O   0  0  0  0  0  0  0  0  0  0  0  0
   -7.5000    0.0000    0.0000 C   0  0  0  0  0  0  0  0  0  0  0  0
   -6.0000    0.0000    0.0000 C   0  0  0  0  0  0  0  0  0  0  0  0
   -0.7500   -1.2990    0.0000 C   0  0  0  0  0  0  0  0  0  0  0  0
   -4.6904   -6.5871    0.0000 C   0  0  0  0  0  0  0  0  0  0  0  0
   -6.1170   -7.0506    0.0000 C   0  0  0  0  0  0  0  0  0  0  0  0
  1  2  1  0
  2  3  2  0
  2  4  2  0
  2  5  1  0
  5  6  2  0
  6  7  1  0
  7  8  2  0
  8  9  1  0
  9 10  2  3
 10 11  1  0
 11 12  2  0
 12 13  1  0
 12 14  1  0
 14 15  1  0
 15 16  2  0
 16 17  1  0
 17 18  2  0
 18 19  1  0
 19 20  1  0
 20 21  1  0
 21 22  1  0
 22 23  2  0
 23 24  1  0
 24 25  2  0
 25 26  1  0
 25 27  1  0
 27 28  2  0
 19 29  2  0
  8 30  1  0
 30 31  2  0
 31  5  1  0
 29 11  1  0
 29 15  1  0
 28 22  1  0
M  END
>  <Compound_ID>  (933) 
CHEMBL313682

>  <Active>  (933) 
1.0

>  <Smiles>  (933) 
NS(=O)(=O)c1ccc(N=Nc2c(O)[nH]c3cccc(CCc4ccc(O)cc4)c23)cc1

>  <canonical_smi>  (933) 
NS(=O)(=O)c1ccc(N=Nc2c(O)[nH]c3cccc(CCc4ccc(O)cc4)c23)cc1

>  <Set>  (933) 
G2 active

>  <Set_type>  (933) 
Test

>  <MW>  (933) 
436.49

>  <HBD>  (933) 
4

>  <HBA>  (933) 
4

>  <NRB>  (933) 
6

>  <NR>  (933) 
4

>  <NAR>  (933) 
4

>  <PSA>  (933) 
141.13

>  <Standard Type>  (933) 
nan

>  <Standard Relation>  (933) 
nan

>  <Standard Units>  (933) 
nan

>  <Standard Value>  (933) 
nan

>  <Assay ChEMBL ID>  (933) 
nan

>  <Assay Description>  (933) 
nan

>  <BAO Label>  (933) 
nan

$$$$

     RDKit          2D

 30 34  0  0  0  0  0  0  0  0999 V2000
   -3.7500  -11.6913    0.0000 C   0  0  0  0  0  0  0  0  0  0  0  0
   -3.0000  -10.3923    0.0000 N   0  0  0  0  0  0  0  0  0  0  0  0
   -3.7500   -9.0933    0.0000 C   0  0  0  0  0  0  0  0  0  0  0  0
   -3.0000   -7.7942    0.0000 C   0  0  0  0  0  0  0  0  0  0  0  0
   -1.5000   -7.7942    0.0000 N   0  0  0  0  0  0  0  0  0  0  0  0
   -0.7500   -6.4952    0.0000 C   0  0  0  0  0  0  0  0  0  0  0  0
    0.7500   -6.4952    0.0000 C   0  0  0  0  0  0  0  0  0  0  0  0
    1.5000   -5.1962    0.0000 C   0  0  0  0  0  0  0  0  0  0  0  0
    0.7500   -3.8971    0.0000 C   0  0  0  0  0  0  0  0  0  0  0  0
    1.5000   -2.5981    0.0000 N   0  0  0  0  0  0  0  0  0  0  0  0
    0.7500   -1.2990    0.0000 C   0  0  0  0  0  0  0  0  0  0  0  0
    1.5000    0.0000    0.0000 N   0  0  0  0  0  0  0  0  0  0  0  0
    0.7500    1.2990    0.0000 C   0  0  0  0  0  0  0  0  0  0  0  0
   -0.7500    1.2990    0.0000 C   0  0  0  0  0  0  0  0  0  0  0  0
   -1.5000    2.5981    0.0000 C   0  0  0  0  0  0  0  0  0  0  0  0
   -3.0000    2.5981    0.0000 C   0  0  0  0  0  0  0  0  0  0  0  0
   -3.7500    1.2990    0.0000 C   0  0  0  0  0  0  0  0  0  0  0  0
   -5.2500    1.2990    0.0000 O   0  0  0  0  0  0  0  0  0  0  0  0
   -3.0000    0.0000    0.0000 N   0  0  0  0  0  0  0  0  0  0  0  0
   -3.7500   -1.2990    0.0000 C   0  0  0  0  0  0  0  0  0  0  0  0
   -3.1399   -2.6694    0.0000 C   0  0  0  0  0  0  0  0  0  0  0  0
   -4.2546   -3.6731    0.0000 C   0  0  0  0  0  0  0  0  0  0  0  0
   -5.5537   -2.9231    0.0000 C   0  0  0  0  0  0  0  0  0  0  0  0
   -5.2418   -1.4558    0.0000 C   0  0  0  0  0  0  0  0  0  0  0  0
   -1.5000    0.0000    0.0000 C   0  0  0  0  0  0  0  0  0  0  0  0
   -0.7500   -1.2990    0.0000 N   0  0  0  0  0  0  0  0  0  0  0  0
   -0.7500   -3.8971    0.0000 C   0  0  0  0  0  0  0  0  0  0  0  0
   -1.5000   -5.1962    0.0000 C   0  0  0  0  0  0  0  0  0  0  0  0
   -0.7500   -9.0933    0.0000 C   0  0  0  0  0  0  0  0  0  0  0  0
   -1.5000  -10.3923    0.0000 C   0  0  0  0  0  0  0  0  0  0  0  0
  1  2  1  0
  2  3  1  0
  3  4  1  0
  4  5  1  0
  5  6  1  0
  6  7  2  0
  7  8  1  0
  8  9  2  0
  9 10  1  0
 10 11  1  0
 11 12  2  0
 12 13  1  0
 13 14  2  0
 14 15  1  0
 15 16  2  0
 16 17  1  0
 17 18  2  0
 17 19  1  0
 19 20  1  0
 20 21  1  0
 21 22  1  0
 22 23  1  0
 23 24  1  0
 19 25  1  0
 25 26  2  0
  9 27  1  0
 27 28  2  0
  5 29  1  0
 29 30  1  0
 30  2  1  0
 28  6  1  0
 26 11  1  0
 25 14  1  0
 24 20  1  0
M  END
>  <Compound_ID>  (934) 
CHEMBL358057

>  <Active>  (934) 
1.0

>  <Smiles>  (934) 
CN1CCN(c2ccc(Nc3ncc4ccc(=O)n(C5CCCC5)c4n3)cc2)CC1

>  <canonical_smi>  (934) 
CN1CCN(c2ccc(Nc3ncc4ccc(=O)n(C5CCCC5)c4n3)cc2)CC1

>  <Set>  (934) 
G2 active

>  <Set_type>  (934) 
Test

>  <MW>  (934) 
404.52

>  <HBD>  (934) 
1

>  <HBA>  (934) 
6

>  <NRB>  (934) 
4

>  <NR>  (934) 
5

>  <NAR>  (934) 
3

>  <PSA>  (934) 
66.29

>  <Standard Type>  (934) 
nan

>  <Standard Relation>  (934) 
nan

>  <Standard Units>  (934) 
nan

>  <Standard Value>  (934) 
nan

>  <Assay ChEMBL ID>  (934) 
nan

>  <Assay Description>  (934) 
nan

>  <BAO Label>  (934) 
nan

$$$$

     RDKit          2D

 30 34  0  0  0  0  0  0  0  0999 V2000
    4.0819   -1.9062    0.0000 C   0  0  0  0  0  0  0  0  0  0  0  0
    2.9672   -2.9099    0.0000 N   0  0  0  0  0  0  0  0  0  0  0  0
    3.1240   -4.4017    0.0000 N   0  0  0  0  0  0  0  0  0  0  0  0
    1.7537   -5.0118    0.0000 C   0  0  0  0  0  0  0  0  0  0  0  0
    1.4418   -6.4791    0.0000 C   0  0  0  0  0  0  0  0  0  0  0  0
    2.5565   -7.4827    0.0000 N   0  0  0  0  0  0  0  0  0  0  0  0
    0.0152   -6.9426    0.0000 O   0  0  0  0  0  0  0  0  0  0  0  0
    0.7500   -3.8971    0.0000 C   0  0  0  0  0  0  0  0  0  0  0  0
    1.5000   -2.5981    0.0000 C   0  0  0  0  0  0  0  0  0  0  0  0
    0.7500   -1.2990    0.0000 C   0  0  0  0  0  0  0  0  0  0  0  0
    1.5000    0.0000    0.0000 N   0  0  0  0  0  0  0  0  0  0  0  0
    0.7500    1.2990    0.0000 C   0  0  0  0  0  0  0  0  0  0  0  0
    1.5000    2.5981    0.0000 N   0  0  0  0  0  0  0  0  0  0  0  0
    3.0000    2.5981    0.0000 C   0  0  0  0  0  0  0  0  0  0  0  0
    3.7500    1.2990    0.0000 C   0  0  0  0  0  0  0  0  0  0  0  0
    5.2500    1.2990    0.0000 C   0  0  0  0  0  0  0  0  0  0  0  0
    6.0000    2.5981    0.0000 C   0  0  0  0  0  0  0  0  0  0  0  0
    7.5000    2.5981    0.0000 N   0  0  0  0  0  0  0  0  0  0  0  0
    8.2500    1.2990    0.0000 C   0  0  0  0  0  0  0  0  0  0  0  0
    9.7500    1.2990    0.0000 C   0  0  0  0  0  0  0  0  0  0  0  0
   10.5000    2.5981    0.0000 O   0  0  0  0  0  0  0  0  0  0  0  0
    9.7500    3.8971    0.0000 C   0  0  0  0  0  0  0  0  0  0  0  0
    8.2500    3.8971    0.0000 C   0  0  0  0  0  0  0  0  0  0  0  0
    5.2500    3.8971    0.0000 C   0  0  0  0  0  0  0  0  0  0  0  0
    3.7500    3.8971    0.0000 C   0  0  0  0  0  0  0  0  0  0  0  0
   -0.7500    1.2990    0.0000 N   0  0  0  0  0  0  0  0  0  0  0  0
   -1.5000    0.0000    0.0000 C   0  0  0  0  0  0  0  0  0  0  0  0
   -0.7500   -1.2990    0.0000 C   0  0  0  0  0  0  0  0  0  0  0  0
   -1.5000   -2.5981    0.0000 C   0  0  0  0  0  0  0  0  0  0  0  0
   -0.7500   -3.8971    0.0000 C   0  0  0  0  0  0  0  0  0  0  0  0
  1  2  1  0
  2  3  1  0
  3  4  2  0
  4  5  1  0
  5  6  1  0
  5  7  2  0
  4  8  1  0
  8  9  2  0
  9 10  1  0
 10 11  2  0
 11 12  1  0
 12 13  1  0
 13 14  1  0
 14 15  2  0
 15 16  1  0
 16 17  2  0
 17 18  1  0
 18 19  1  0
 19 20  1  0
 20 21  1  0
 21 22  1  0
 22 23  1  0
 17 24  1  0
 24 25  2  0
 12 26  2  0
 26 27  1  0
 27 28  2  0
 28 29  1  0
 29 30  1  0
  9  2  1  0
 28 10  1  0
 30  8  1  0
 25 14  1  0
 23 18  1  0
M  END
>  <Compound_ID>  (935) 
CHEMBL556881

>  <Active>  (935) 
1.0

>  <Smiles>  (935) 
Cn1nc(C(N)=O)c2c1-c1nc(Nc3ccc(N4CCOCC4)cc3)ncc1CC2

>  <canonical_smi>  (935) 
Cn1nc(C(N)=O)c2c1-c1nc(Nc3ccc(N4CCOCC4)cc3)ncc1CC2

>  <Set>  (935) 
G2 active

>  <Set_type>  (935) 
Test

>  <MW>  (935) 
405.46

>  <HBD>  (935) 
2

>  <HBA>  (935) 
7

>  <NRB>  (935) 
4

>  <NR>  (935) 
5

>  <NAR>  (935) 
3

>  <PSA>  (935) 
111.19

>  <Standard Type>  (935) 
nan

>  <Standard Relation>  (935) 
nan

>  <Standard Units>  (935) 
nan

>  <Standard Value>  (935) 
nan

>  <Assay ChEMBL ID>  (935) 
nan

>  <Assay Description>  (935) 
nan

>  <BAO Label>  (935) 
nan

$$$$

     RDKit          2D

 30 34  0  0  0  0  0  0  0  0999 V2000
   -8.5234   -7.7536    0.0000 C   0  0  0  0  0  0  0  0  0  0  0  0
   -7.0317   -7.5968    0.0000 O   0  0  0  0  0  0  0  0  0  0  0  0
   -6.4216   -6.2265    0.0000 C   0  0  0  0  0  0  0  0  0  0  0  0
   -7.3032   -5.0129    0.0000 C   0  0  0  0  0  0  0  0  0  0  0  0
   -6.6931   -3.6426    0.0000 C   0  0  0  0  0  0  0  0  0  0  0  0
   -5.2013   -3.4858    0.0000 C   0  0  0  0  0  0  0  0  0  0  0  0
   -4.5912   -2.1155    0.0000 C   0  0  0  0  0  0  0  0  0  0  0  0
   -5.3412   -0.8165    0.0000 N   0  0  0  0  0  0  0  0  0  0  0  0
   -4.3375    0.2982    0.0000 N   0  0  0  0  0  0  0  0  0  0  0  0
   -2.9672   -0.3119    0.0000 C   0  0  0  0  0  0  0  0  0  0  0  0
   -3.1240   -1.8037    0.0000 C   0  0  0  0  0  0  0  0  0  0  0  0
   -1.7537   -2.4138    0.0000 C   0  0  0  0  0  0  0  0  0  0  0  0
   -1.4418   -3.8810    0.0000 O   0  0  0  0  0  0  0  0  0  0  0  0
   -0.7500   -1.2990    0.0000 C   0  0  0  0  0  0  0  0  0  0  0  0
    0.7500   -1.2990    0.0000 C   0  0  0  0  0  0  0  0  0  0  0  0
    1.5000   -2.5981    0.0000 N   0  0  0  0  0  0  0  0  0  0  0  0
    3.0000   -2.5981    0.0000 C   0  0  0  0  0  0  0  0  0  0  0  0
    3.7500   -1.2990    0.0000 O   0  0  0  0  0  0  0  0  0  0  0  0
    3.7500   -3.8971    0.0000 N   0  0  0  0  0  0  0  0  0  0  0  0
    5.2500   -3.8971    0.0000 N   0  0  0  0  0  0  0  0  0  0  0  0
    6.1317   -2.6836    0.0000 C   0  0  0  0  0  0  0  0  0  0  0  0
    7.5583   -3.1471    0.0000 C   0  0  0  0  0  0  0  0  0  0  0  0
    7.5583   -4.6471    0.0000 C   0  0  0  0  0  0  0  0  0  0  0  0
    6.1317   -5.1106    0.0000 C   0  0  0  0  0  0  0  0  0  0  0  0
    1.5000    0.0000    0.0000 C   0  0  0  0  0  0  0  0  0  0  0  0
    0.7500    1.2990    0.0000 C   0  0  0  0  0  0  0  0  0  0  0  0
   -0.7500    1.2990    0.0000 C   0  0  0  0  0  0  0  0  0  0  0  0
   -1.5000    0.0000    0.0000 C   0  0  0  0  0  0  0  0  0  0  0  0
   -4.3197   -4.6994    0.0000 C   0  0  0  0  0  0  0  0  0  0  0  0
   -4.9298   -6.0697    0.0000 C   0  0  0  0  0  0  0  0  0  0  0  0
  1  2  1  0
  2  3  1  0
  3  4  2  0
  4  5  1  0
  5  6  2  0
  6  7  1  0
  7  8  1  0
  8  9  1  0
  9 10  2  0
 10 11  1  0
 11 12  1  0
 12 13  2  0
 12 14  1  0
 14 15  2  0
 15 16  1  0
 16 17  1  0
 17 18  2  0
 17 19  1  0
 19 20  1  0
 20 21  1  0
 21 22  1  0
 22 23  1  0
 23 24  1  0
 15 25  1  0
 25 26  2  0
 26 27  1  0
 27 28  2  0
  6 29  1  0
 29 30  2  0
 30  3  1  0
 11  7  2  0
 28 14  1  0
 28 10  1  0
 24 20  1  0
M  END
>  <Compound_ID>  (936) 
CHEMBL147012

>  <Active>  (936) 
1.0

>  <Smiles>  (936) 
COc1ccc(-c2[nH]nc3c2C(=O)c2c(NC(=O)NN4CCCC4)cccc2-3)cc1

>  <canonical_smi>  (936) 
COc1ccc(-c2[nH]nc3c2C(=O)c2c(NC(=O)NN4CCCC4)cccc2-3)cc1

>  <Set>  (936) 
G2 active

>  <Set_type>  (936) 
Test

>  <MW>  (936) 
403.44

>  <HBD>  (936) 
3

>  <HBA>  (936) 
5

>  <NRB>  (936) 
4

>  <NR>  (936) 
5

>  <NAR>  (936) 
4

>  <PSA>  (936) 
99.35

>  <Standard Type>  (936) 
nan

>  <Standard Relation>  (936) 
nan

>  <Standard Units>  (936) 
nan

>  <Standard Value>  (936) 
nan

>  <Assay ChEMBL ID>  (936) 
nan

>  <Assay Description>  (936) 
nan

>  <BAO Label>  (936) 
nan

$$$$

     RDKit          2D

 31 35  0  0  0  0  0  0  0  0999 V2000
   -3.7500  -11.6913    0.0000 C   0  0  0  0  0  0  0  0  0  0  0  0
   -3.0000  -10.3923    0.0000 N   0  0  0  0  0  0  0  0  0  0  0  0
   -3.7500   -9.0933    0.0000 C   0  0  0  0  0  0  0  0  0  0  0  0
   -3.0000   -7.7942    0.0000 C   0  0  0  0  0  0  0  0  0  0  0  0
   -1.5000   -7.7942    0.0000 N   0  0  0  0  0  0  0  0  0  0  0  0
   -0.7500   -6.4952    0.0000 C   0  0  0  0  0  0  0  0  0  0  0  0
    0.7500   -6.4952    0.0000 C   0  0  0  0  0  0  0  0  0  0  0  0
    1.5000   -5.1962    0.0000 C   0  0  0  0  0  0  0  0  0  0  0  0
    0.7500   -3.8971    0.0000 C   0  0  0  0  0  0  0  0  0  0  0  0
    1.5000   -2.5981    0.0000 N   0  0  0  0  0  0  0  0  0  0  0  0
    0.7500   -1.2990    0.0000 C   0  0  0  0  0  0  0  0  0  0  0  0
    1.5000    0.0000    0.0000 N   0  0  0  0  0  0  0  0  0  0  0  0
    0.7500    1.2990    0.0000 C   0  0  0  0  0  0  0  0  0  0  0  0
   -0.7500    1.2990    0.0000 C   0  0  0  0  0  0  0  0  0  0  0  0
   -1.5000    2.5981    0.0000 C   0  0  0  0  0  0  0  0  0  0  0  0
   -3.0000    2.5981    0.0000 C   0  0  0  0  0  0  0  0  0  0  0  0
   -3.7500    1.2990    0.0000 C   0  0  0  0  0  0  0  0  0  0  0  0
   -5.2500    1.2990    0.0000 O   0  0  0  0  0  0  0  0  0  0  0  0
   -3.0000    0.0000    0.0000 N   0  0  0  0  0  0  0  0  0  0  0  0
   -3.7500   -1.2990    0.0000 C   0  0  0  0  0  0  0  0  0  0  0  0
   -5.2500   -1.2990    0.0000 C   0  0  0  0  0  0  0  0  0  0  0  0
   -6.0000   -2.5981    0.0000 C   0  0  0  0  0  0  0  0  0  0  0  0
   -5.2500   -3.8971    0.0000 C   0  0  0  0  0  0  0  0  0  0  0  0
   -3.7500   -3.8971    0.0000 C   0  0  0  0  0  0  0  0  0  0  0  0
   -3.0000   -2.5981    0.0000 C   0  0  0  0  0  0  0  0  0  0  0  0
   -1.5000    0.0000    0.0000 C   0  0  0  0  0  0  0  0  0  0  0  0
   -0.7500   -1.2990    0.0000 N   0  0  0  0  0  0  0  0  0  0  0  0
   -0.7500   -3.8971    0.0000 C   0  0  0  0  0  0  0  0  0  0  0  0
   -1.5000   -5.1962    0.0000 C   0  0  0  0  0  0  0  0  0  0  0  0
   -0.7500   -9.0933    0.0000 C   0  0  0  0  0  0  0  0  0  0  0  0
   -1.5000  -10.3923    0.0000 C   0  0  0  0  0  0  0  0  0  0  0  0
  1  2  1  0
  2  3  1  0
  3  4  1  0
  4  5  1  0
  5  6  1  0
  6  7  2  0
  7  8  1  0
  8  9  2  0
  9 10  1  0
 10 11  1  0
 11 12  2  0
 12 13  1  0
 13 14  2  0
 14 15  1  0
 15 16  2  0
 16 17  1  0
 17 18  2  0
 17 19  1  0
 19 20  1  0
 20 21  1  0
 21 22  1  0
 22 23  1  0
 23 24  1  0
 24 25  1  0
 19 26  1  0
 26 27  2  0
  9 28  1  0
 28 29  2  0
  5 30  1  0
 30 31  1  0
 31  2  1  0
 29  6  1  0
 27 11  1  0
 26 14  1  0
 25 20  1  0
M  END
>  <Compound_ID>  (937) 
CHEMBL140808

>  <Active>  (937) 
1.0

>  <Smiles>  (937) 
CN1CCN(c2ccc(Nc3ncc4ccc(=O)n(C5CCCCC5)c4n3)cc2)CC1

>  <canonical_smi>  (937) 
CN1CCN(c2ccc(Nc3ncc4ccc(=O)n(C5CCCCC5)c4n3)cc2)CC1

>  <Set>  (937) 
G2 active

>  <Set_type>  (937) 
Test

>  <MW>  (937) 
418.55

>  <HBD>  (937) 
1

>  <HBA>  (937) 
6

>  <NRB>  (937) 
4

>  <NR>  (937) 
5

>  <NAR>  (937) 
3

>  <PSA>  (937) 
66.29

>  <Standard Type>  (937) 
nan

>  <Standard Relation>  (937) 
nan

>  <Standard Units>  (937) 
nan

>  <Standard Value>  (937) 
nan

>  <Assay ChEMBL ID>  (937) 
nan

>  <Assay Description>  (937) 
nan

>  <BAO Label>  (937) 
nan

$$$$

     RDKit          2D

 26 29  0  0  0  0  0  0  0  0999 V2000
    0.7500   -3.8971    0.0000 C   0  0  0  0  0  0  0  0  0  0  0  0
    1.5000   -2.5981    0.0000 C   0  0  0  0  0  0  0  0  0  0  0  0
    3.0000   -2.5981    0.0000 C   0  0  0  0  0  0  0  0  0  0  0  0
    3.7500   -1.2990    0.0000 O   0  0  0  0  0  0  0  0  0  0  0  0
    3.7500   -3.8971    0.0000 N   0  0  0  0  0  0  0  0  0  0  0  0
    5.2500   -3.8971    0.0000 C   0  0  0  0  0  0  0  0  0  0  0  0
    6.1317   -2.6836    0.0000 C   0  0  0  0  0  0  0  0  0  0  0  0
    7.5583   -3.1471    0.0000 C   0  0  0  0  0  0  0  0  0  0  0  0
    8.7718   -2.2654    0.0000 C   0  0  0  0  0  0  0  0  0  0  0  0
    9.3819   -0.8951    0.0000 C   0  0  0  0  0  0  0  0  0  0  0  0
   10.2636   -2.1086    0.0000 C   0  0  0  0  0  0  0  0  0  0  0  0
    7.5583   -4.6471    0.0000 N   0  0  0  0  0  0  0  0  0  0  0  0
    6.1317   -5.1106    0.0000 N   0  0  0  0  0  0  0  0  0  0  0  0
    0.7500   -1.2990    0.0000 C   0  0  0  0  0  0  0  0  0  0  0  0
    1.5000    0.0000    0.0000 C   0  0  0  0  0  0  0  0  0  0  0  0
    0.7500    1.2990    0.0000 C   0  0  0  0  0  0  0  0  0  0  0  0
   -0.7500    1.2990    0.0000 C   0  0  0  0  0  0  0  0  0  0  0  0
   -1.5000    2.5981    0.0000 N   0  0  0  0  0  0  0  0  0  0  0  0
   -2.9918    2.7549    0.0000 C   0  0  0  0  0  0  0  0  0  0  0  0
   -3.3037    4.2221    0.0000 C   0  0  0  0  0  0  0  0  0  0  0  0
   -4.6740    4.8322    0.0000 O   0  0  0  0  0  0  0  0  0  0  0  0
   -2.0046    4.9721    0.0000 N   0  0  0  0  0  0  0  0  0  0  0  0
   -0.8899    3.9684    0.0000 C   0  0  0  0  0  0  0  0  0  0  0  0
    0.5773    4.2803    0.0000 O   0  0  0  0  0  0  0  0  0  0  0  0
   -1.5000    0.0000    0.0000 C   0  0  0  0  0  0  0  0  0  0  0  0
   -0.7500   -1.2990    0.0000 C   0  0  0  0  0  0  0  0  0  0  0  0
  1  2  1  0
  2  3  1  0
  3  4  2  0
  3  5  1  0
  5  6  1  0
  6  7  1  0
  7  8  2  0
  8  9  1  0
  9 10  1  0
 10 11  1  0
  8 12  1  0
 12 13  1  0
  2 14  1  0
 14 15  2  0
 15 16  1  0
 16 17  2  0
 17 18  1  0
 18 19  1  0
 19 20  1  0
 20 21  2  0
 20 22  1  0
 22 23  1  0
 23 24  2  0
 17 25  1  0
 25 26  2  0
 13  6  2  0
 26 14  1  0
 11  9  1  0
 23 18  1  0
M  END
>  <Compound_ID>  (938) 
CHEMBL193288

>  <Active>  (938) 
1.0

>  <Smiles>  (938) 
CC(C(=O)Nc1cc(C2CC2)[nH]n1)c1ccc(N2CC(=O)NC2=O)cc1

>  <canonical_smi>  (938) 
CC(C(=O)Nc1cc(C2CC2)[nH]n1)c1ccc(N2CC(=O)NC2=O)cc1

>  <Set>  (938) 
G2 active

>  <Set_type>  (938) 
Test

>  <MW>  (938) 
353.38

>  <HBD>  (938) 
3

>  <HBA>  (938) 
4

>  <NRB>  (938) 
5

>  <NR>  (938) 
4

>  <NAR>  (938) 
2

>  <PSA>  (938) 
107.19

>  <Standard Type>  (938) 
nan

>  <Standard Relation>  (938) 
nan

>  <Standard Units>  (938) 
nan

>  <Standard Value>  (938) 
nan

>  <Assay ChEMBL ID>  (938) 
nan

>  <Assay Description>  (938) 
nan

>  <BAO Label>  (938) 
nan

$$$$

     RDKit          2D

 31 35  0  0  0  0  0  0  0  0999 V2000
   -8.5234   -7.7536    0.0000 C   0  0  0  0  0  0  0  0  0  0  0  0
   -7.0317   -7.5968    0.0000 O   0  0  0  0  0  0  0  0  0  0  0  0
   -6.4216   -6.2265    0.0000 C   0  0  0  0  0  0  0  0  0  0  0  0
   -7.3032   -5.0129    0.0000 C   0  0  0  0  0  0  0  0  0  0  0  0
   -6.6931   -3.6426    0.0000 C   0  0  0  0  0  0  0  0  0  0  0  0
   -5.2013   -3.4858    0.0000 C   0  0  0  0  0  0  0  0  0  0  0  0
   -4.5912   -2.1155    0.0000 C   0  0  0  0  0  0  0  0  0  0  0  0
   -5.3412   -0.8165    0.0000 N   0  0  0  0  0  0  0  0  0  0  0  0
   -4.3375    0.2982    0.0000 N   0  0  0  0  0  0  0  0  0  0  0  0
   -2.9672   -0.3119    0.0000 C   0  0  0  0  0  0  0  0  0  0  0  0
   -3.1240   -1.8037    0.0000 C   0  0  0  0  0  0  0  0  0  0  0  0
   -1.7537   -2.4138    0.0000 C   0  0  0  0  0  0  0  0  0  0  0  0
   -1.4418   -3.8810    0.0000 O   0  0  0  0  0  0  0  0  0  0  0  0
   -0.7500   -1.2990    0.0000 C   0  0  0  0  0  0  0  0  0  0  0  0
    0.7500   -1.2990    0.0000 C   0  0  0  0  0  0  0  0  0  0  0  0
    1.5000   -2.5981    0.0000 N   0  0  0  0  0  0  0  0  0  0  0  0
    3.0000   -2.5981    0.0000 C   0  0  0  0  0  0  0  0  0  0  0  0
    3.7500   -1.2990    0.0000 O   0  0  0  0  0  0  0  0  0  0  0  0
    3.7500   -3.8971    0.0000 N   0  0  0  0  0  0  0  0  0  0  0  0
    5.2500   -3.8971    0.0000 N   0  0  0  0  0  0  0  0  0  0  0  0
    6.0000   -5.1962    0.0000 C   0  0  0  0  0  0  0  0  0  0  0  0
    7.5000   -5.1962    0.0000 C   0  0  0  0  0  0  0  0  0  0  0  0
    8.2500   -3.8971    0.0000 O   0  0  0  0  0  0  0  0  0  0  0  0
    7.5000   -2.5981    0.0000 C   0  0  0  0  0  0  0  0  0  0  0  0
    6.0000   -2.5981    0.0000 C   0  0  0  0  0  0  0  0  0  0  0  0
    1.5000    0.0000    0.0000 C   0  0  0  0  0  0  0  0  0  0  0  0
    0.7500    1.2990    0.0000 C   0  0  0  0  0  0  0  0  0  0  0  0
   -0.7500    1.2990    0.0000 C   0  0  0  0  0  0  0  0  0  0  0  0
   -1.5000    0.0000    0.0000 C   0  0  0  0  0  0  0  0  0  0  0  0
   -4.3197   -4.6994    0.0000 C   0  0  0  0  0  0  0  0  0  0  0  0
   -4.9298   -6.0697    0.0000 C   0  0  0  0  0  0  0  0  0  0  0  0
  1  2  1  0
  2  3  1  0
  3  4  2  0
  4  5  1  0
  5  6  2  0
  6  7  1  0
  7  8  1  0
  8  9  1  0
  9 10  2  0
 10 11  1  0
 11 12  1  0
 12 13  2  0
 12 14  1  0
 14 15  2  0
 15 16  1  0
 16 17  1  0
 17 18  2  0
 17 19  1  0
 19 20  1  0
 20 21  1  0
 21 22  1  0
 22 23  1  0
 23 24  1  0
 24 25  1  0
 15 26  1  0
 26 27  2  0
 27 28  1  0
 28 29  2  0
  6 30  1  0
 30 31  2  0
 31  3  1  0
 11  7  2  0
 29 14  1  0
 29 10  1  0
 25 20  1  0
M  END
>  <Compound_ID>  (939) 
CHEMBL357770

>  <Active>  (939) 
1.0

>  <Smiles>  (939) 
COc1ccc(-c2[nH]nc3c2C(=O)c2c(NC(=O)NN4CCOCC4)cccc2-3)cc1

>  <canonical_smi>  (939) 
COc1ccc(-c2[nH]nc3c2C(=O)c2c(NC(=O)NN4CCOCC4)cccc2-3)cc1

>  <Set>  (939) 
G2 active

>  <Set_type>  (939) 
Test

>  <MW>  (939) 
419.44

>  <HBD>  (939) 
3

>  <HBA>  (939) 
6

>  <NRB>  (939) 
4

>  <NR>  (939) 
5

>  <NAR>  (939) 
4

>  <PSA>  (939) 
108.58

>  <Standard Type>  (939) 
nan

>  <Standard Relation>  (939) 
nan

>  <Standard Units>  (939) 
nan

>  <Standard Value>  (939) 
nan

>  <Assay ChEMBL ID>  (939) 
nan

>  <Assay Description>  (939) 
nan

>  <BAO Label>  (939) 
nan

$$$$

     RDKit          2D

 29 32  0  0  0  0  0  0  0  0999 V2000
   -6.6931   -3.6426    0.0000 C   0  0  0  0  0  0  0  0  0  0  0  0
   -5.2013   -3.4858    0.0000 C   0  0  0  0  0  0  0  0  0  0  0  0
   -4.3197   -4.6994    0.0000 C   0  0  0  0  0  0  0  0  0  0  0  0
   -4.5912   -2.1155    0.0000 C   0  0  0  0  0  0  0  0  0  0  0  0
   -5.3412   -0.8165    0.0000 N   0  0  0  0  0  0  0  0  0  0  0  0
   -4.3375    0.2982    0.0000 N   0  0  0  0  0  0  0  0  0  0  0  0
   -2.9672   -0.3119    0.0000 C   0  0  0  0  0  0  0  0  0  0  0  0
   -3.1240   -1.8037    0.0000 C   0  0  0  0  0  0  0  0  0  0  0  0
   -1.7537   -2.4138    0.0000 C   0  0  0  0  0  0  0  0  0  0  0  0
   -1.4418   -3.8810    0.0000 O   0  0  0  0  0  0  0  0  0  0  0  0
   -0.7500   -1.2990    0.0000 C   0  0  0  0  0  0  0  0  0  0  0  0
    0.7500   -1.2990    0.0000 C   0  0  0  0  0  0  0  0  0  0  0  0
    1.5000   -2.5981    0.0000 N   0  0  0  0  0  0  0  0  0  0  0  0
    3.0000   -2.5981    0.0000 C   0  0  0  0  0  0  0  0  0  0  0  0
    3.7500   -1.2990    0.0000 O   0  0  0  0  0  0  0  0  0  0  0  0
    3.7500   -3.8971    0.0000 C   0  0  0  0  0  0  0  0  0  0  0  0
    5.2500   -3.8971    0.0000 N   0  0  0  0  0  0  0  0  0  0  0  0
    6.0000   -5.1962    0.0000 C   0  0  0  0  0  0  0  0  0  0  0  0
    7.5000   -5.1962    0.0000 C   0  0  0  0  0  0  0  0  0  0  0  0
    8.2500   -3.8971    0.0000 C   0  0  0  0  0  0  0  0  0  0  0  0
    9.7500   -3.8971    0.0000 C   0  0  0  0  0  0  0  0  0  0  0  0
   10.5000   -5.1962    0.0000 N   0  0  0  0  0  0  0  0  0  0  0  0
   10.5000   -2.5981    0.0000 O   0  0  0  0  0  0  0  0  0  0  0  0
    7.5000   -2.5981    0.0000 C   0  0  0  0  0  0  0  0  0  0  0  0
    6.0000   -2.5981    0.0000 C   0  0  0  0  0  0  0  0  0  0  0  0
    1.5000    0.0000    0.0000 C   0  0  0  0  0  0  0  0  0  0  0  0
    0.7500    1.2990    0.0000 C   0  0  0  0  0  0  0  0  0  0  0  0
   -0.7500    1.2990    0.0000 C   0  0  0  0  0  0  0  0  0  0  0  0
   -1.5000    0.0000    0.0000 C   0  0  0  0  0  0  0  0  0  0  0  0
  1  2  1  0
  2  3  1  0
  2  4  1  0
  4  5  2  0
  5  6  1  0
  6  7  1  0
  7  8  2  0
  8  9  1  0
  9 10  2  0
  9 11  1  0
 11 12  2  0
 12 13  1  0
 13 14  1  0
 14 15  2  0
 14 16  1  0
 16 17  1  0
 17 18  1  0
 18 19  1  0
 19 20  1  0
 20 21  1  0
 21 22  1  0
 21 23  2  0
 20 24  1  0
 24 25  1  0
 12 26  1  0
 26 27  2  0
 27 28  1  0
 28 29  2  0
  8  4  1  0
 29 11  1  0
 29  7  1  0
 25 17  1  0
M  END
>  <Compound_ID>  (940) 
CHEMBL359200

>  <Active>  (940) 
1.0

>  <Smiles>  (940) 
CC(C)c1n[nH]c2c1C(=O)c1c(NC(=O)CN3CCC(C(N)=O)CC3)cccc1-2

>  <canonical_smi>  (940) 
CC(C)c1n[nH]c2c1C(=O)c1c(NC(=O)CN3CCC(C(N)=O)CC3)cccc1-2

>  <Set>  (940) 
G2 active

>  <Set_type>  (940) 
Test

>  <MW>  (940) 
395.46

>  <HBD>  (940) 
3

>  <HBA>  (940) 
5

>  <NRB>  (940) 
5

>  <NR>  (940) 
4

>  <NAR>  (940) 
3

>  <PSA>  (940) 
121.18

>  <Standard Type>  (940) 
nan

>  <Standard Relation>  (940) 
nan

>  <Standard Units>  (940) 
nan

>  <Standard Value>  (940) 
nan

>  <Assay ChEMBL ID>  (940) 
nan

>  <Assay Description>  (940) 
nan

>  <BAO Label>  (940) 
nan

$$$$

     RDKit          2D

 27 31  0  0  0  0  0  0  0  0999 V2000
   -1.7024   10.0935    0.0000 N   0  0  0  0  0  0  0  0  0  0  0  0
   -2.0143    8.6263    0.0000 C   0  0  0  0  0  0  0  0  0  0  0  0
   -0.8995    7.6226    0.0000 C   0  0  0  0  0  0  0  0  0  0  0  0
   -1.2114    6.1554    0.0000 C   0  0  0  0  0  0  0  0  0  0  0  0
   -2.6380    5.6918    0.0000 C   0  0  0  0  0  0  0  0  0  0  0  0
   -2.9499    4.2246    0.0000 N   0  0  0  0  0  0  0  0  0  0  0  0
   -1.8351    3.2209    0.0000 C   0  0  0  0  0  0  0  0  0  0  0  0
   -0.4086    3.6844    0.0000 N   0  0  0  0  0  0  0  0  0  0  0  0
    0.7062    2.6807    0.0000 C   0  0  0  0  0  0  0  0  0  0  0  0
    2.1328    3.1443    0.0000 N   0  0  0  0  0  0  0  0  0  0  0  0
    2.4446    4.6115    0.0000 C   0  0  0  0  0  0  0  0  0  0  0  0
    3.8712    5.0750    0.0000 C   0  0  0  0  0  0  0  0  0  0  0  0
    4.8749    6.1897    0.0000 C   0  0  0  0  0  0  0  0  0  0  0  0
    5.3384    4.7632    0.0000 C   0  0  0  0  0  0  0  0  0  0  0  0
    0.3943    1.2135    0.0000 C   0  0  0  0  0  0  0  0  0  0  0  0
    1.2760    0.0000    0.0000 N   0  0  0  0  0  0  0  0  0  0  0  0
    0.3943   -1.2135    0.0000 C   0  0  0  0  0  0  0  0  0  0  0  0
   -1.0323   -0.7500    0.0000 N   0  0  0  0  0  0  0  0  0  0  0  0
   -2.2458   -1.6317    0.0000 C   0  0  0  0  0  0  0  0  0  0  0  0
   -2.2458   -3.1317    0.0000 C   0  0  0  0  0  0  0  0  0  0  0  0
   -3.6724   -3.5952    0.0000 C   0  0  0  0  0  0  0  0  0  0  0  0
   -4.5541   -2.3817    0.0000 C   0  0  0  0  0  0  0  0  0  0  0  0
   -3.6724   -1.1682    0.0000 C   0  0  0  0  0  0  0  0  0  0  0  0
   -1.0323    0.7500    0.0000 C   0  0  0  0  0  0  0  0  0  0  0  0
   -2.1470    1.7537    0.0000 N   0  0  0  0  0  0  0  0  0  0  0  0
   -3.7527    6.6955    0.0000 C   0  0  0  0  0  0  0  0  0  0  0  0
   -3.4408    8.1628    0.0000 C   0  0  0  0  0  0  0  0  0  0  0  0
  1  2  1  0
  2  3  1  0
  3  4  1  0
  4  5  1  0
  5  6  1  0
  6  7  1  0
  7  8  2  0
  8  9  1  0
  9 10  1  0
 10 11  1  0
 11 12  1  0
 12 13  1  0
 13 14  1  0
  9 15  2  0
 15 16  1  0
 16 17  2  0
 17 18  1  0
 18 19  1  0
 19 20  1  0
 20 21  1  0
 21 22  1  0
 22 23  1  0
 18 24  1  0
 24 25  2  0
  5 26  1  0
 26 27  1  0
 27  2  1  0
 25  7  1  0
 14 12  1  0
 24 15  1  0
 23 19  1  0
M  END
>  <Compound_ID>  (941) 
CHEMBL356034

>  <Active>  (941) 
1.0

>  <Smiles>  (941) 
NC1CCC(Nc2nc(NCC3CC3)c3ncn(C4CCCC4)c3n2)CC1

>  <canonical_smi>  (941) 
NC1CCC(Nc2nc(NCC3CC3)c3ncn(C4CCCC4)c3n2)CC1

>  <Set>  (941) 
G2 active

>  <Set_type>  (941) 
Test

>  <MW>  (941) 
369.52

>  <HBD>  (941) 
3

>  <HBA>  (941) 
6

>  <NRB>  (941) 
6

>  <NR>  (941) 
5

>  <NAR>  (941) 
2

>  <PSA>  (941) 
93.68

>  <Standard Type>  (941) 
nan

>  <Standard Relation>  (941) 
nan

>  <Standard Units>  (941) 
nan

>  <Standard Value>  (941) 
nan

>  <Assay ChEMBL ID>  (941) 
nan

>  <Assay Description>  (941) 
nan

>  <BAO Label>  (941) 
nan

$$$$

     RDKit          2D

 30 34  0  0  0  0  0  0  0  0999 V2000
   -0.7500   -6.4952    0.0000 C   0  0  0  0  0  0  0  0  0  0  0  0
   -1.5000   -5.1962    0.0000 O   0  0  0  0  0  0  0  0  0  0  0  0
   -0.7500   -3.8971    0.0000 C   0  0  0  0  0  0  0  0  0  0  0  0
    0.7500   -3.8971    0.0000 C   0  0  0  0  0  0  0  0  0  0  0  0
    1.5000   -2.5981    0.0000 C   0  0  0  0  0  0  0  0  0  0  0  0
    0.7500   -1.2990    0.0000 C   0  0  0  0  0  0  0  0  0  0  0  0
    1.5000    0.0000    0.0000 C   0  0  0  0  0  0  0  0  0  0  0  0
    0.7500    1.2990    0.0000 N   0  0  0  0  0  0  0  0  0  0  0  0
   -0.7500    1.2990    0.0000 C   0  0  0  0  0  0  0  0  0  0  0  0
   -1.5000    2.5981    0.0000 N   0  0  0  0  0  0  0  0  0  0  0  0
   -0.7500    3.8971    0.0000 C   0  0  0  0  0  0  0  0  0  0  0  0
    0.7500    3.8971    0.0000 C   0  0  0  0  0  0  0  0  0  0  0  0
    1.5000    5.1962    0.0000 C   0  0  0  0  0  0  0  0  0  0  0  0
    0.7500    6.4952    0.0000 C   0  0  0  0  0  0  0  0  0  0  0  0
    1.5000    7.7942    0.0000 N   0  0  0  0  0  0  0  0  0  0  0  0
    3.0000    7.7942    0.0000 C   0  0  0  0  0  0  0  0  0  0  0  0
    3.7500    9.0933    0.0000 C   0  0  0  0  0  0  0  0  0  0  0  0
    3.0000   10.3923    0.0000 N   0  0  0  0  0  0  0  0  0  0  0  0
    1.5000   10.3923    0.0000 C   0  0  0  0  0  0  0  0  0  0  0  0
    0.7500    9.0933    0.0000 C   0  0  0  0  0  0  0  0  0  0  0  0
   -0.7500    6.4952    0.0000 C   0  0  0  0  0  0  0  0  0  0  0  0
   -1.5000    5.1962    0.0000 C   0  0  0  0  0  0  0  0  0  0  0  0
   -1.5000    0.0000    0.0000 N   0  0  0  0  0  0  0  0  0  0  0  0
   -0.7500   -1.2990    0.0000 C   0  0  0  0  0  0  0  0  0  0  0  0
   -1.5000   -2.5981    0.0000 C   0  0  0  0  0  0  0  0  0  0  0  0
   -3.0000   -2.5981    0.0000 C   0  0  0  0  0  0  0  0  0  0  0  0
   -3.8817   -3.8116    0.0000 C   0  0  0  0  0  0  0  0  0  0  0  0
   -5.3083   -3.3481    0.0000 C   0  0  0  0  0  0  0  0  0  0  0  0
   -5.3083   -1.8481    0.0000 C   0  0  0  0  0  0  0  0  0  0  0  0
   -3.8817   -1.3846    0.0000 C   0  0  0  0  0  0  0  0  0  0  0  0
  1  2  1  0
  2  3  1  0
  3  4  2  0
  4  5  1  0
  5  6  2  0
  6  7  1  0
  7  8  2  0
  8  9  1  0
  9 10  1  0
 10 11  1  0
 11 12  2  0
 12 13  1  0
 13 14  2  0
 14 15  1  0
 15 16  1  0
 16 17  1  0
 17 18  1  0
 18 19  1  0
 19 20  1  0
 14 21  1  0
 21 22  2  0
  9 23  2  0
 23 24  1  0
 24 25  2  0
 25 26  1  0
 26 27  1  0
 27 28  1  0
 28 29  1  0
 29 30  1  0
 25  3  1  0
 30 26  1  0
 24  6  1  0
 22 11  1  0
 20 15  1  0
M  END
>  <Compound_ID>  (942) 
CHEMBL180431

>  <Active>  (942) 
1.0

>  <Smiles>  (942) 
COc1ccc2cnc(Nc3ccc(N4CCNCC4)cc3)nc2c1C1CCCC1

>  <canonical_smi>  (942) 
COc1ccc2cnc(Nc3ccc(N4CCNCC4)cc3)nc2c1C1CCCC1

>  <Set>  (942) 
G2 active

>  <Set_type>  (942) 
Test

>  <MW>  (942) 
403.53

>  <HBD>  (942) 
2

>  <HBA>  (942) 
6

>  <NRB>  (942) 
5

>  <NR>  (942) 
5

>  <NAR>  (942) 
3

>  <PSA>  (942) 
62.31

>  <Standard Type>  (942) 
nan

>  <Standard Relation>  (942) 
nan

>  <Standard Units>  (942) 
nan

>  <Standard Value>  (942) 
nan

>  <Assay ChEMBL ID>  (942) 
nan

>  <Assay Description>  (942) 
nan

>  <BAO Label>  (942) 
nan

$$$$

     RDKit          2D

 29 33  0  0  0  0  0  0  0  0999 V2000
   -1.5000   -5.1962    0.0000 O   0  0  0  0  0  0  0  0  0  0  0  0
   -0.7500   -3.8971    0.0000 C   0  0  0  0  0  0  0  0  0  0  0  0
    0.7500   -3.8971    0.0000 C   0  0  0  0  0  0  0  0  0  0  0  0
    1.5000   -2.5981    0.0000 C   0  0  0  0  0  0  0  0  0  0  0  0
    0.7500   -1.2990    0.0000 C   0  0  0  0  0  0  0  0  0  0  0  0
    1.5000    0.0000    0.0000 C   0  0  0  0  0  0  0  0  0  0  0  0
    0.7500    1.2990    0.0000 N   0  0  0  0  0  0  0  0  0  0  0  0
   -0.7500    1.2990    0.0000 C   0  0  0  0  0  0  0  0  0  0  0  0
   -1.5000    2.5981    0.0000 N   0  0  0  0  0  0  0  0  0  0  0  0
   -0.7500    3.8971    0.0000 C   0  0  0  0  0  0  0  0  0  0  0  0
    0.7500    3.8971    0.0000 C   0  0  0  0  0  0  0  0  0  0  0  0
    1.5000    5.1962    0.0000 C   0  0  0  0  0  0  0  0  0  0  0  0
    0.7500    6.4952    0.0000 C   0  0  0  0  0  0  0  0  0  0  0  0
    1.5000    7.7942    0.0000 N   0  0  0  0  0  0  0  0  0  0  0  0
    3.0000    7.7942    0.0000 C   0  0  0  0  0  0  0  0  0  0  0  0
    3.7500    9.0933    0.0000 C   0  0  0  0  0  0  0  0  0  0  0  0
    3.0000   10.3923    0.0000 O   0  0  0  0  0  0  0  0  0  0  0  0
    1.5000   10.3923    0.0000 C   0  0  0  0  0  0  0  0  0  0  0  0
    0.7500    9.0933    0.0000 C   0  0  0  0  0  0  0  0  0  0  0  0
   -0.7500    6.4952    0.0000 C   0  0  0  0  0  0  0  0  0  0  0  0
   -1.5000    5.1962    0.0000 C   0  0  0  0  0  0  0  0  0  0  0  0
   -1.5000    0.0000    0.0000 N   0  0  0  0  0  0  0  0  0  0  0  0
   -0.7500   -1.2990    0.0000 C   0  0  0  0  0  0  0  0  0  0  0  0
   -1.5000   -2.5981    0.0000 N   0  0  0  0  0  0  0  0  0  0  0  0
   -3.0000   -2.5981    0.0000 C   0  0  0  0  0  0  0  0  0  0  0  0
   -3.8817   -3.8116    0.0000 C   0  0  0  0  0  0  0  0  0  0  0  0
   -5.3083   -3.3481    0.0000 C   0  0  0  0  0  0  0  0  0  0  0  0
   -5.3083   -1.8481    0.0000 C   0  0  0  0  0  0  0  0  0  0  0  0
   -3.8817   -1.3846    0.0000 C   0  0  0  0  0  0  0  0  0  0  0  0
  1  2  2  0
  2  3  1  0
  3  4  2  0
  4  5  1  0
  5  6  2  0
  6  7  1  0
  7  8  2  0
  8  9  1  0
  9 10  1  0
 10 11  2  0
 11 12  1  0
 12 13  2  0
 13 14  1  0
 14 15  1  0
 15 16  1  0
 16 17  1  0
 17 18  1  0
 18 19  1  0
 13 20  1  0
 20 21  2  0
  8 22  1  0
 22 23  2  0
 23 24  1  0
 24 25  1  0
 25 26  1  0
 26 27  1  0
 27 28  1  0
 28 29  1  0
 24  2  1  0
 29 25  1  0
 23  5  1  0
 21 10  1  0
 19 14  1  0
M  END
>  <Compound_ID>  (943) 
CHEMBL191046

>  <Active>  (943) 
1.0

>  <Smiles>  (943) 
O=c1ccc2cnc(Nc3ccc(N4CCOCC4)cc3)nc2n1C1CCCC1

>  <canonical_smi>  (943) 
O=c1ccc2cnc(Nc3ccc(N4CCOCC4)cc3)nc2n1C1CCCC1

>  <Set>  (943) 
G2 active

>  <Set_type>  (943) 
Test

>  <MW>  (943) 
391.48

>  <HBD>  (943) 
1

>  <HBA>  (943) 
6

>  <NRB>  (943) 
4

>  <NR>  (943) 
5

>  <NAR>  (943) 
3

>  <PSA>  (943) 
72.28

>  <Standard Type>  (943) 
nan

>  <Standard Relation>  (943) 
nan

>  <Standard Units>  (943) 
nan

>  <Standard Value>  (943) 
nan

>  <Assay ChEMBL ID>  (943) 
nan

>  <Assay Description>  (943) 
nan

>  <BAO Label>  (943) 
nan

$$$$

     RDKit          2D

 32 36  0  0  0  0  0  0  0  0999 V2000
   -8.5234   -7.7536    0.0000 C   0  0  0  0  0  0  0  0  0  0  0  0
   -7.0317   -7.5968    0.0000 O   0  0  0  0  0  0  0  0  0  0  0  0
   -6.4216   -6.2265    0.0000 C   0  0  0  0  0  0  0  0  0  0  0  0
   -7.3032   -5.0129    0.0000 C   0  0  0  0  0  0  0  0  0  0  0  0
   -6.6931   -3.6426    0.0000 C   0  0  0  0  0  0  0  0  0  0  0  0
   -5.2013   -3.4858    0.0000 C   0  0  0  0  0  0  0  0  0  0  0  0
   -4.5912   -2.1155    0.0000 C   0  0  0  0  0  0  0  0  0  0  0  0
   -5.3412   -0.8165    0.0000 N   0  0  0  0  0  0  0  0  0  0  0  0
   -4.3375    0.2982    0.0000 N   0  0  0  0  0  0  0  0  0  0  0  0
   -2.9672   -0.3119    0.0000 C   0  0  0  0  0  0  0  0  0  0  0  0
   -3.1240   -1.8037    0.0000 C   0  0  0  0  0  0  0  0  0  0  0  0
   -1.7537   -2.4138    0.0000 C   0  0  0  0  0  0  0  0  0  0  0  0
   -1.4418   -3.8810    0.0000 O   0  0  0  0  0  0  0  0  0  0  0  0
   -0.7500   -1.2990    0.0000 C   0  0  0  0  0  0  0  0  0  0  0  0
    0.7500   -1.2990    0.0000 C   0  0  0  0  0  0  0  0  0  0  0  0
    1.5000   -2.5981    0.0000 N   0  0  0  0  0  0  0  0  0  0  0  0
    3.0000   -2.5981    0.0000 C   0  0  0  0  0  0  0  0  0  0  0  0
    3.7500   -1.2990    0.0000 O   0  0  0  0  0  0  0  0  0  0  0  0
    3.7500   -3.8971    0.0000 N   0  0  0  0  0  0  0  0  0  0  0  0
    5.2500   -3.8971    0.0000 C   0  0  0  0  0  0  0  0  0  0  0  0
    6.0000   -5.1962    0.0000 C   0  0  0  0  0  0  0  0  0  0  0  0
    5.2500   -6.4952    0.0000 C   0  0  0  0  0  0  0  0  0  0  0  0
    6.0000   -7.7942    0.0000 C   0  0  0  0  0  0  0  0  0  0  0  0
    7.5000   -7.7942    0.0000 N   0  0  0  0  0  0  0  0  0  0  0  0
    8.2500   -6.4952    0.0000 C   0  0  0  0  0  0  0  0  0  0  0  0
    7.5000   -5.1962    0.0000 C   0  0  0  0  0  0  0  0  0  0  0  0
    1.5000    0.0000    0.0000 C   0  0  0  0  0  0  0  0  0  0  0  0
    0.7500    1.2990    0.0000 C   0  0  0  0  0  0  0  0  0  0  0  0
   -0.7500    1.2990    0.0000 C   0  0  0  0  0  0  0  0  0  0  0  0
   -1.5000    0.0000    0.0000 C   0  0  0  0  0  0  0  0  0  0  0  0
   -4.3197   -4.6994    0.0000 C   0  0  0  0  0  0  0  0  0  0  0  0
   -4.9298   -6.0697    0.0000 C   0  0  0  0  0  0  0  0  0  0  0  0
  1  2  1  0
  2  3  1  0
  3  4  2  0
  4  5  1  0
  5  6  2  0
  6  7  1  0
  7  8  1  0
  8  9  1  0
  9 10  2  0
 10 11  1  0
 11 12  1  0
 12 13  2  0
 12 14  1  0
 14 15  2  0
 15 16  1  0
 16 17  1  0
 17 18  2  0
 17 19  1  0
 19 20  1  0
 20 21  1  0
 21 22  2  0
 22 23  1  0
 23 24  2  0
 24 25  1  0
 25 26  2  0
 15 27  1  0
 27 28  2  0
 28 29  1  0
 29 30  2  0
  6 31  1  0
 31 32  2  0
 32  3  1  0
 11  7  2  0
 30 14  1  0
 30 10  1  0
 26 21  1  0
M  END
>  <Compound_ID>  (944) 
CHEMBL147290

>  <Active>  (944) 
1.0

>  <Smiles>  (944) 
COc1ccc(-c2[nH]nc3c2C(=O)c2c(NC(=O)NCc4ccncc4)cccc2-3)cc1

>  <canonical_smi>  (944) 
COc1ccc(-c2[nH]nc3c2C(=O)c2c(NC(=O)NCc4ccncc4)cccc2-3)cc1

>  <Set>  (944) 
G2 active

>  <Set_type>  (944) 
Test

>  <MW>  (944) 
425.45

>  <HBD>  (944) 
3

>  <HBA>  (944) 
5

>  <NRB>  (944) 
5

>  <NR>  (944) 
5

>  <NAR>  (944) 
5

>  <PSA>  (944) 
109.0

>  <Standard Type>  (944) 
nan

>  <Standard Relation>  (944) 
nan

>  <Standard Units>  (944) 
nan

>  <Standard Value>  (944) 
nan

>  <Assay ChEMBL ID>  (944) 
nan

>  <Assay Description>  (944) 
nan

>  <BAO Label>  (944) 
nan

$$$$

     RDKit          2D

 35 39  0  0  0  0  0  0  0  0999 V2000
   -2.2447   -8.9500    0.0000 C   0  0  0  0  0  0  0  0  0  0  0  0
   -2.5565   -7.4827    0.0000 N   0  0  0  0  0  0  0  0  0  0  0  0
   -1.4418   -6.4791    0.0000 C   0  0  0  0  0  0  0  0  0  0  0  0
   -0.0152   -6.9426    0.0000 O   0  0  0  0  0  0  0  0  0  0  0  0
   -1.7537   -5.0118    0.0000 C   0  0  0  0  0  0  0  0  0  0  0  0
   -3.1240   -4.4017    0.0000 N   0  0  0  0  0  0  0  0  0  0  0  0
   -2.9672   -2.9099    0.0000 N   0  0  0  0  0  0  0  0  0  0  0  0
   -4.0819   -1.9062    0.0000 C   0  0  0  0  0  0  0  0  0  0  0  0
   -1.5000   -2.5981    0.0000 C   0  0  0  0  0  0  0  0  0  0  0  0
   -0.7500   -3.8971    0.0000 C   0  0  0  0  0  0  0  0  0  0  0  0
    0.7500   -3.8971    0.0000 C   0  0  0  0  0  0  0  0  0  0  0  0
    2.1595   -4.4101    0.0000 C   0  0  0  0  0  0  0  0  0  0  0  0
    0.4895   -5.3743    0.0000 C   0  0  0  0  0  0  0  0  0  0  0  0
    1.5000   -2.5981    0.0000 C   0  0  0  0  0  0  0  0  0  0  0  0
    0.7500   -1.2990    0.0000 C   0  0  0  0  0  0  0  0  0  0  0  0
    1.5000    0.0000    0.0000 C   0  0  0  0  0  0  0  0  0  0  0  0
    0.7500    1.2990    0.0000 N   0  0  0  0  0  0  0  0  0  0  0  0
   -0.7500    1.2990    0.0000 C   0  0  0  0  0  0  0  0  0  0  0  0
   -1.5000    2.5981    0.0000 N   0  0  0  0  0  0  0  0  0  0  0  0
   -0.7500    3.8971    0.0000 C   0  0  0  0  0  0  0  0  0  0  0  0
    0.7500    3.8971    0.0000 C   0  0  0  0  0  0  0  0  0  0  0  0
    1.5000    5.1962    0.0000 C   0  0  0  0  0  0  0  0  0  0  0  0
    0.7500    6.4952    0.0000 C   0  0  0  0  0  0  0  0  0  0  0  0
    1.5000    7.7942    0.0000 O   0  0  0  0  0  0  0  0  0  0  0  0
    3.0000    7.7942    0.0000 C   0  0  0  0  0  0  0  0  0  0  0  0
    3.7500    6.4952    0.0000 C   0  0  0  0  0  0  0  0  0  0  0  0
    5.2500    6.4952    0.0000 C   0  0  0  0  0  0  0  0  0  0  0  0
    6.0000    7.7942    0.0000 N   0  0  0  0  0  0  0  0  0  0  0  0
    7.5000    7.7942    0.0000 C   0  0  0  0  0  0  0  0  0  0  0  0
    5.2500    9.0933    0.0000 C   0  0  0  0  0  0  0  0  0  0  0  0
    3.7500    9.0933    0.0000 C   0  0  0  0  0  0  0  0  0  0  0  0
   -0.7500    6.4952    0.0000 C   0  0  0  0  0  0  0  0  0  0  0  0
   -1.5000    5.1962    0.0000 C   0  0  0  0  0  0  0  0  0  0  0  0
   -1.5000    0.0000    0.0000 N   0  0  0  0  0  0  0  0  0  0  0  0
   -0.7500   -1.2990    0.0000 C   0  0  0  0  0  0  0  0  0  0  0  0
  1  2  1  0
  2  3  1  0
  3  4  2  0
  3  5  1  0
  5  6  2  0
  6  7  1  0
  7  8  1  0
  7  9  1  0
  9 10  2  0
 10 11  1  0
 11 12  1  0
 11 13  1  0
 11 14  1  0
 14 15  1  0
 15 16  2  0
 16 17  1  0
 17 18  2  0
 18 19  1  0
 19 20  1  0
 20 21  2  0
 21 22  1  0
 22 23  2  0
 23 24  1  0
 24 25  1  0
 25 26  1  0
 26 27  1  0
 27 28  1  0
 28 29  1  0
 28 30  1  0
 30 31  1  0
 23 32  1  0
 32 33  2  0
 18 34  1  0
 34 35  2  0
 10  5  1  0
 35 15  1  0
 35  9  1  0
 33 20  1  0
 31 25  1  0
M  END
>  <Compound_ID>  (945) 
CHEMBL565137

>  <Active>  (945) 
1.0

>  <Smiles>  (945) 
CNC(=O)c1nn(C)c2c1C(C)(C)Cc1cnc(Nc3ccc(OC4CCN(C)CC4)cc3)nc1-2

>  <canonical_smi>  (945) 
CNC(=O)c1nn(C)c2c1C(C)(C)Cc1cnc(Nc3ccc(OC4CCN(C)CC4)cc3)nc1-2

>  <Set>  (945) 
G2 active

>  <Set_type>  (945) 
Test

>  <MW>  (945) 
475.6

>  <HBD>  (945) 
2

>  <HBA>  (945) 
7

>  <NRB>  (945) 
5

>  <NR>  (945) 
5

>  <NAR>  (945) 
3

>  <PSA>  (945) 
97.2

>  <Standard Type>  (945) 
nan

>  <Standard Relation>  (945) 
nan

>  <Standard Units>  (945) 
nan

>  <Standard Value>  (945) 
nan

>  <Assay ChEMBL ID>  (945) 
nan

>  <Assay Description>  (945) 
nan

>  <BAO Label>  (945) 
nan

$$$$

     RDKit          2D

 38 43  0  0  0  0  0  0  0  0999 V2000
   -8.5234   -7.7536    0.0000 C   0  0  0  0  0  0  0  0  0  0  0  0
   -7.0317   -7.5968    0.0000 O   0  0  0  0  0  0  0  0  0  0  0  0
   -6.4216   -6.2265    0.0000 C   0  0  0  0  0  0  0  0  0  0  0  0
   -7.3032   -5.0129    0.0000 C   0  0  0  0  0  0  0  0  0  0  0  0
   -6.6931   -3.6426    0.0000 C   0  0  0  0  0  0  0  0  0  0  0  0
   -5.2013   -3.4858    0.0000 C   0  0  0  0  0  0  0  0  0  0  0  0
   -4.5912   -2.1155    0.0000 C   0  0  0  0  0  0  0  0  0  0  0  0
   -5.3412   -0.8165    0.0000 N   0  0  0  0  0  0  0  0  0  0  0  0
   -4.3375    0.2982    0.0000 N   0  0  0  0  0  0  0  0  0  0  0  0
   -2.9672   -0.3119    0.0000 C   0  0  0  0  0  0  0  0  0  0  0  0
   -3.1240   -1.8037    0.0000 C   0  0  0  0  0  0  0  0  0  0  0  0
   -1.7537   -2.4138    0.0000 C   0  0  0  0  0  0  0  0  0  0  0  0
   -1.4418   -3.8810    0.0000 O   0  0  0  0  0  0  0  0  0  0  0  0
   -0.7500   -1.2990    0.0000 C   0  0  0  0  0  0  0  0  0  0  0  0
    0.7500   -1.2990    0.0000 C   0  0  0  0  0  0  0  0  0  0  0  0
    1.5000   -2.5981    0.0000 N   0  0  0  0  0  0  0  0  0  0  0  0
    3.0000   -2.5981    0.0000 C   0  0  0  0  0  0  0  0  0  0  0  0
    3.7500   -1.2990    0.0000 O   0  0  0  0  0  0  0  0  0  0  0  0
    3.7500   -3.8971    0.0000 N   0  0  0  0  0  0  0  0  0  0  0  0
    5.2500   -3.8971    0.0000 N   0  0  0  0  0  0  0  0  0  0  0  0
    6.0000   -5.1962    0.0000 C   0  0  0  0  0  0  0  0  0  0  0  0
    5.2500   -6.4952    0.0000 O   0  0  0  0  0  0  0  0  0  0  0  0
    7.5000   -5.1962    0.0000 C   0  0  0  0  0  0  0  0  0  0  0  0
    8.2500   -3.8971    0.0000 C   0  0  0  0  0  0  0  0  0  0  0  0
    9.7500   -3.8971    0.0000 C   0  0  0  0  0  0  0  0  0  0  0  0
   10.5000   -5.1962    0.0000 C   0  0  0  0  0  0  0  0  0  0  0  0
   12.0000   -5.1962    0.0000 C   0  0  0  0  0  0  0  0  0  0  0  0
   12.7500   -6.4952    0.0000 C   0  0  0  0  0  0  0  0  0  0  0  0
   12.0000   -7.7942    0.0000 C   0  0  0  0  0  0  0  0  0  0  0  0
   10.5000   -7.7942    0.0000 C   0  0  0  0  0  0  0  0  0  0  0  0
    9.7500   -6.4952    0.0000 C   0  0  0  0  0  0  0  0  0  0  0  0
    8.2500   -6.4952    0.0000 C   0  0  0  0  0  0  0  0  0  0  0  0
    1.5000    0.0000    0.0000 C   0  0  0  0  0  0  0  0  0  0  0  0
    0.7500    1.2990    0.0000 C   0  0  0  0  0  0  0  0  0  0  0  0
   -0.7500    1.2990    0.0000 C   0  0  0  0  0  0  0  0  0  0  0  0
   -1.5000    0.0000    0.0000 C   0  0  0  0  0  0  0  0  0  0  0  0
   -4.3197   -4.6994    0.0000 C   0  0  0  0  0  0  0  0  0  0  0  0
   -4.9298   -6.0697    0.0000 C   0  0  0  0  0  0  0  0  0  0  0  0
  1  2  1  0
  2  3  1  0
  3  4  2  0
  4  5  1  0
  5  6  2  0
  6  7  1  0
  7  8  1  0
  8  9  1  0
  9 10  2  0
 10 11  1  0
 11 12  1  0
 12 13  2  0
 12 14  1  0
 14 15  2  0
 15 16  1  0
 16 17  1  0
 17 18  2  0
 17 19  1  0
 19 20  1  0
 20 21  1  0
 21 22  2  0
 21 23  1  0
 23 24  2  0
 24 25  1  0
 25 26  2  0
 26 27  1  0
 27 28  2  0
 28 29  1  0
 29 30  2  0
 30 31  1  0
 31 32  2  0
 15 33  1  0
 33 34  2  0
 34 35  1  0
 35 36  2  0
  6 37  1  0
 37 38  2  0
 38  3  1  0
 11  7  2  0
 36 14  1  0
 36 10  1  0
 32 23  1  0
 31 26  1  0
M  END
>  <Compound_ID>  (946) 
CHEMBL185781

>  <Active>  (946) 
1.0

>  <Smiles>  (946) 
COc1ccc(-c2[nH]nc3c2C(=O)c2c(NC(=O)NNC(=O)c4ccc5ccccc5c4)cccc2-3)cc1

>  <canonical_smi>  (946) 
COc1ccc(-c2[nH]nc3c2C(=O)c2c(NC(=O)NNC(=O)c4ccc5ccccc5c4)cccc2-3)cc1

>  <Set>  (946) 
G2 active

>  <Set_type>  (946) 
Test

>  <MW>  (946) 
503.52

>  <HBD>  (946) 
4

>  <HBA>  (946) 
5

>  <NRB>  (946) 
4

>  <NR>  (946) 
6

>  <NAR>  (946) 
6

>  <PSA>  (946) 
125.21

>  <Standard Type>  (946) 
nan

>  <Standard Relation>  (946) 
nan

>  <Standard Units>  (946) 
nan

>  <Standard Value>  (946) 
nan

>  <Assay ChEMBL ID>  (946) 
nan

>  <Assay Description>  (946) 
nan

>  <BAO Label>  (946) 
nan

$$$$

     RDKit          2D

 35 39  0  0  0  0  0  0  0  0999 V2000
   -8.5234   -7.7536    0.0000 C   0  0  0  0  0  0  0  0  0  0  0  0
   -7.0317   -7.5968    0.0000 O   0  0  0  0  0  0  0  0  0  0  0  0
   -6.4216   -6.2265    0.0000 C   0  0  0  0  0  0  0  0  0  0  0  0
   -7.3032   -5.0129    0.0000 C   0  0  0  0  0  0  0  0  0  0  0  0
   -6.6931   -3.6426    0.0000 C   0  0  0  0  0  0  0  0  0  0  0  0
   -5.2013   -3.4858    0.0000 C   0  0  0  0  0  0  0  0  0  0  0  0
   -4.5912   -2.1155    0.0000 C   0  0  0  0  0  0  0  0  0  0  0  0
   -5.3412   -0.8165    0.0000 N   0  0  0  0  0  0  0  0  0  0  0  0
   -4.3375    0.2982    0.0000 N   0  0  0  0  0  0  0  0  0  0  0  0
   -2.9672   -0.3119    0.0000 C   0  0  0  0  0  0  0  0  0  0  0  0
   -3.1240   -1.8037    0.0000 C   0  0  0  0  0  0  0  0  0  0  0  0
   -1.7537   -2.4138    0.0000 C   0  0  0  0  0  0  0  0  0  0  0  0
   -1.4418   -3.8810    0.0000 O   0  0  0  0  0  0  0  0  0  0  0  0
   -0.7500   -1.2990    0.0000 C   0  0  0  0  0  0  0  0  0  0  0  0
    0.7500   -1.2990    0.0000 C   0  0  0  0  0  0  0  0  0  0  0  0
    1.5000   -2.5981    0.0000 N   0  0  0  0  0  0  0  0  0  0  0  0
    3.0000   -2.5981    0.0000 C   0  0  0  0  0  0  0  0  0  0  0  0
    3.7500   -1.2990    0.0000 O   0  0  0  0  0  0  0  0  0  0  0  0
    3.7500   -3.8971    0.0000 N   0  0  0  0  0  0  0  0  0  0  0  0
    5.2500   -3.8971    0.0000 N   0  0  0  0  0  0  0  0  0  0  0  0
    6.0000   -5.1962    0.0000 C   0  0  0  0  0  0  0  0  0  0  0  0
    5.2500   -6.4952    0.0000 O   0  0  0  0  0  0  0  0  0  0  0  0
    7.5000   -5.1962    0.0000 C   0  0  0  0  0  0  0  0  0  0  0  0
    8.2500   -6.4952    0.0000 C   0  0  0  0  0  0  0  0  0  0  0  0
    7.5000   -7.7942    0.0000 C   0  0  0  0  0  0  0  0  0  0  0  0
    8.2500   -9.0933    0.0000 C   0  0  0  0  0  0  0  0  0  0  0  0
    9.7500   -9.0933    0.0000 C   0  0  0  0  0  0  0  0  0  0  0  0
   10.5000   -7.7942    0.0000 C   0  0  0  0  0  0  0  0  0  0  0  0
    9.7500   -6.4952    0.0000 C   0  0  0  0  0  0  0  0  0  0  0  0
    1.5000    0.0000    0.0000 C   0  0  0  0  0  0  0  0  0  0  0  0
    0.7500    1.2990    0.0000 C   0  0  0  0  0  0  0  0  0  0  0  0
   -0.7500    1.2990    0.0000 C   0  0  0  0  0  0  0  0  0  0  0  0
   -1.5000    0.0000    0.0000 C   0  0  0  0  0  0  0  0  0  0  0  0
   -4.3197   -4.6994    0.0000 C   0  0  0  0  0  0  0  0  0  0  0  0
   -4.9298   -6.0697    0.0000 C   0  0  0  0  0  0  0  0  0  0  0  0
  1  2  1  0
  2  3  1  0
  3  4  2  0
  4  5  1  0
  5  6  2  0
  6  7  1  0
  7  8  1  0
  8  9  1  0
  9 10  2  0
 10 11  1  0
 11 12  1  0
 12 13  2  0
 12 14  1  0
 14 15  2  0
 15 16  1  0
 16 17  1  0
 17 18  2  0
 17 19  1  0
 19 20  1  0
 20 21  1  0
 21 22  2  0
 21 23  1  0
 23 24  1  0
 24 25  2  0
 25 26  1  0
 26 27  2  0
 27 28  1  0
 28 29  2  0
 15 30  1  0
 30 31  2  0
 31 32  1  0
 32 33  2  0
  6 34  1  0
 34 35  2  0
 35  3  1  0
 11  7  2  0
 33 14  1  0
 33 10  1  0
 29 24  1  0
M  END
>  <Compound_ID>  (947) 
CHEMBL187913

>  <Active>  (947) 
1.0

>  <Smiles>  (947) 
COc1ccc(-c2[nH]nc3c2C(=O)c2c(NC(=O)NNC(=O)Cc4ccccc4)cccc2-3)cc1

>  <canonical_smi>  (947) 
COc1ccc(-c2[nH]nc3c2C(=O)c2c(NC(=O)NNC(=O)Cc4ccccc4)cccc2-3)cc1

>  <Set>  (947) 
G2 active

>  <Set_type>  (947) 
Test

>  <MW>  (947) 
467.49

>  <HBD>  (947) 
4

>  <HBA>  (947) 
5

>  <NRB>  (947) 
5

>  <NR>  (947) 
5

>  <NAR>  (947) 
5

>  <PSA>  (947) 
125.21

>  <Standard Type>  (947) 
nan

>  <Standard Relation>  (947) 
nan

>  <Standard Units>  (947) 
nan

>  <Standard Value>  (947) 
nan

>  <Assay ChEMBL ID>  (947) 
nan

>  <Assay Description>  (947) 
nan

>  <BAO Label>  (947) 
nan

$$$$

     RDKit          2D

 21 23  0  0  0  0  0  0  0  0999 V2000
    3.5260   -1.2990    0.0000 N   0  0  0  0  0  0  0  0  0  0  0  0
    2.7760    0.0000    0.0000 C   0  0  0  0  0  0  0  0  0  0  0  0
    3.5260    1.2990    0.0000 O   0  0  0  0  0  0  0  0  0  0  0  0
    1.2760    0.0000    0.0000 N   0  0  0  0  0  0  0  0  0  0  0  0
    0.3943    1.2135    0.0000 C   0  0  0  0  0  0  0  0  0  0  0  0
   -1.0323    0.7500    0.0000 C   0  0  0  0  0  0  0  0  0  0  0  0
   -2.4589    1.2135    0.0000 N   0  0  0  0  0  0  0  0  0  0  0  0
   -3.3405    0.0000    0.0000 N   0  0  0  0  0  0  0  0  0  0  0  0
   -2.4589   -1.2135    0.0000 C   0  0  0  0  0  0  0  0  0  0  0  0
   -2.9224   -2.6401    0.0000 N   0  0  0  0  0  0  0  0  0  0  0  0
   -4.3896   -2.9520    0.0000 C   0  0  0  0  0  0  0  0  0  0  0  0
   -5.3933   -1.8373    0.0000 O   0  0  0  0  0  0  0  0  0  0  0  0
   -4.8531   -4.3786    0.0000 C   0  0  0  0  0  0  0  0  0  0  0  0
   -6.3204   -4.6904    0.0000 C   0  0  0  0  0  0  0  0  0  0  0  0
   -7.3241   -3.5757    0.0000 C   0  0  0  0  0  0  0  0  0  0  0  0
   -8.7913   -3.8876    0.0000 C   0  0  0  0  0  0  0  0  0  0  0  0
   -9.2548   -5.3142    0.0000 C   0  0  0  0  0  0  0  0  0  0  0  0
   -8.2511   -6.4289    0.0000 C   0  0  0  0  0  0  0  0  0  0  0  0
   -6.7839   -6.1170    0.0000 C   0  0  0  0  0  0  0  0  0  0  0  0
   -1.0323   -0.7500    0.0000 C   0  0  0  0  0  0  0  0  0  0  0  0
    0.3943   -1.2135    0.0000 C   0  0  0  0  0  0  0  0  0  0  0  0
  1  2  1  0
  2  3  2  0
  2  4  1  0
  4  5  1  0
  5  6  1  0
  6  7  2  0
  7  8  1  0
  8  9  1  0
  9 10  1  0
 10 11  1  0
 11 12  2  0
 11 13  1  0
 13 14  1  0
 14 15  2  0
 15 16  1  0
 16 17  2  0
 17 18  1  0
 18 19  2  0
  9 20  2  0
 20 21  1  0
 21  4  1  0
 20  6  1  0
 19 14  1  0
M  END
>  <Compound_ID>  (948) 
CHEMBL378584

>  <Active>  (948) 
1.0

>  <Smiles>  (948) 
NC(=O)N1Cc2n[nH]c(NC(=O)Cc3ccccc3)c2C1

>  <canonical_smi>  (948) 
NC(=O)N1Cc2n[nH]c(NC(=O)Cc3ccccc3)c2C1

>  <Set>  (948) 
G2 active

>  <Set_type>  (948) 
Test

>  <MW>  (948) 
285.31

>  <HBD>  (948) 
3

>  <HBA>  (948) 
3

>  <NRB>  (948) 
3

>  <NR>  (948) 
3

>  <NAR>  (948) 
2

>  <PSA>  (948) 
104.11

>  <Standard Type>  (948) 
nan

>  <Standard Relation>  (948) 
nan

>  <Standard Units>  (948) 
nan

>  <Standard Value>  (948) 
nan

>  <Assay ChEMBL ID>  (948) 
nan

>  <Assay Description>  (948) 
nan

>  <BAO Label>  (948) 
nan

$$$$

     RDKit          2D

 32 36  0  0  0  0  0  0  0  0999 V2000
   -1.8373   -5.6601    0.0000 O   0  0  0  0  0  0  0  0  0  0  0  0
   -2.9520   -4.6564    0.0000 C   0  0  0  0  0  0  0  0  0  0  0  0
   -4.3786   -5.1199    0.0000 C   0  0  0  0  0  0  0  0  0  0  0  0
   -4.6904   -6.5871    0.0000 C   0  0  0  0  0  0  0  0  0  0  0  0
   -6.1170   -7.0506    0.0000 C   0  0  0  0  0  0  0  0  0  0  0  0
   -6.4289   -8.5179    0.0000 C   0  0  0  0  0  0  0  0  0  0  0  0
   -5.3142   -9.5216    0.0000 C   0  0  0  0  0  0  0  0  0  0  0  0
   -5.6260  -10.9888    0.0000 C   0  0  0  0  0  0  0  0  0  0  0  0
   -7.0526  -11.4523    0.0000 C   0  0  0  0  0  0  0  0  0  0  0  0
   -7.3645  -12.9195    0.0000 C   0  0  0  0  0  0  0  0  0  0  0  0
   -6.2498  -13.9232    0.0000 N   0  0  0  0  0  0  0  0  0  0  0  0
   -4.8232  -13.4597    0.0000 C   0  0  0  0  0  0  0  0  0  0  0  0
   -4.5113  -11.9925    0.0000 C   0  0  0  0  0  0  0  0  0  0  0  0
   -3.8876   -9.0580    0.0000 C   0  0  0  0  0  0  0  0  0  0  0  0
   -3.5757   -7.5908    0.0000 C   0  0  0  0  0  0  0  0  0  0  0  0
   -2.6401   -3.1891    0.0000 N   0  0  0  0  0  0  0  0  0  0  0  0
   -1.2135   -2.7256    0.0000 C   0  0  0  0  0  0  0  0  0  0  0  0
   -0.0000   -3.6073    0.0000 N   0  0  0  0  0  0  0  0  0  0  0  0
    1.2135   -2.7256    0.0000 N   0  0  0  0  0  0  0  0  0  0  0  0
    0.7500   -1.2990    0.0000 C   0  0  0  0  0  0  0  0  0  0  0  0
    1.5000    0.0000    0.0000 C   0  0  0  0  0  0  0  0  0  0  0  0
    0.7500    1.2990    0.0000 C   0  0  0  0  0  0  0  0  0  0  0  0
   -0.7500    1.2990    0.0000 C   0  0  0  0  0  0  0  0  0  0  0  0
   -1.5000    2.5981    0.0000 N   0  0  0  0  0  0  0  0  0  0  0  0
   -2.9918    2.7549    0.0000 C   0  0  0  0  0  0  0  0  0  0  0  0
   -3.3037    4.2221    0.0000 C   0  0  0  0  0  0  0  0  0  0  0  0
   -2.0046    4.9721    0.0000 C   0  0  0  0  0  0  0  0  0  0  0  0
   -0.8899    3.9684    0.0000 S   0  0  0  0  0  0  0  0  0  0  0  0
   -0.0082    5.1819    0.0000 O   0  0  0  0  0  0  0  0  0  0  0  0
    0.4091    3.2184    0.0000 O   0  0  0  0  0  0  0  0  0  0  0  0
   -1.5000    0.0000    0.0000 C   0  0  0  0  0  0  0  0  0  0  0  0
   -0.7500   -1.2990    0.0000 C   0  0  0  0  0  0  0  0  0  0  0  0
  1  2  2  0
  2  3  1  0
  3  4  1  0
  4  5  2  0
  5  6  1  0
  6  7  2  0
  7  8  1  0
  8  9  2  0
  9 10  1  0
 10 11  2  0
 11 12  1  0
 12 13  2  0
  7 14  1  0
 14 15  2  0
  2 16  1  0
 16 17  1  0
 17 18  2  0
 18 19  1  0
 19 20  1  0
 20 21  2  0
 21 22  1  0
 22 23  2  0
 23 24  1  0
 24 25  1  0
 25 26  1  0
 26 27  1  0
 27 28  1  0
 28 29  2  0
 28 30  2  0
 23 31  1  0
 31 32  2  0
 15  4  1  0
 32 17  1  0
 13  8  1  0
 32 20  1  0
 28 24  1  0
M  END
>  <Compound_ID>  (949) 
CHEMBL254171

>  <Active>  (949) 
1.0

>  <Smiles>  (949) 
O=C(Cc1ccc(-c2ccncc2)cc1)Nc1n[nH]c2ccc(N3CCCS3(=O)=O)cc12

>  <canonical_smi>  (949) 
O=C(Cc1ccc(-c2ccncc2)cc1)Nc1n[nH]c2ccc(N3CCCS3(=O)=O)cc12

>  <Set>  (949) 
G2 active

>  <Set_type>  (949) 
Test

>  <MW>  (949) 
447.52

>  <HBD>  (949) 
2

>  <HBA>  (949) 
5

>  <NRB>  (949) 
5

>  <NR>  (949) 
5

>  <NAR>  (949) 
4

>  <PSA>  (949) 
108.05

>  <Standard Type>  (949) 
nan

>  <Standard Relation>  (949) 
nan

>  <Standard Units>  (949) 
nan

>  <Standard Value>  (949) 
nan

>  <Assay ChEMBL ID>  (949) 
nan

>  <Assay Description>  (949) 
nan

>  <BAO Label>  (949) 
nan

$$$$

     RDKit          2D

 32 36  0  0  0  0  0  0  0  0999 V2000
   -1.8373   -5.6601    0.0000 O   0  0  0  0  0  0  0  0  0  0  0  0
   -2.9520   -4.6564    0.0000 C   0  0  0  0  0  0  0  0  0  0  0  0
   -4.3786   -5.1199    0.0000 C   0  0  0  0  0  0  0  0  0  0  0  0
   -4.6904   -6.5871    0.0000 C   0  0  0  0  0  0  0  0  0  0  0  0
   -6.1170   -7.0506    0.0000 C   0  0  0  0  0  0  0  0  0  0  0  0
   -6.4289   -8.5179    0.0000 C   0  0  0  0  0  0  0  0  0  0  0  0
   -5.3142   -9.5216    0.0000 C   0  0  0  0  0  0  0  0  0  0  0  0
   -5.6260  -10.9888    0.0000 N   0  0  0  0  0  0  0  0  0  0  0  0
   -7.0526  -11.4523    0.0000 C   0  0  0  0  0  0  0  0  0  0  0  0
   -7.3645  -12.9195    0.0000 C   0  0  0  0  0  0  0  0  0  0  0  0
   -6.2498  -13.9232    0.0000 C   0  0  0  0  0  0  0  0  0  0  0  0
   -4.8232  -13.4597    0.0000 C   0  0  0  0  0  0  0  0  0  0  0  0
   -4.5113  -11.9925    0.0000 C   0  0  0  0  0  0  0  0  0  0  0  0
   -3.8876   -9.0580    0.0000 C   0  0  0  0  0  0  0  0  0  0  0  0
   -3.5757   -7.5908    0.0000 C   0  0  0  0  0  0  0  0  0  0  0  0
   -2.6401   -3.1891    0.0000 N   0  0  0  0  0  0  0  0  0  0  0  0
   -1.2135   -2.7256    0.0000 C   0  0  0  0  0  0  0  0  0  0  0  0
   -0.0000   -3.6073    0.0000 N   0  0  0  0  0  0  0  0  0  0  0  0
    1.2135   -2.7256    0.0000 N   0  0  0  0  0  0  0  0  0  0  0  0
    0.7500   -1.2990    0.0000 C   0  0  0  0  0  0  0  0  0  0  0  0
    1.5000    0.0000    0.0000 C   0  0  0  0  0  0  0  0  0  0  0  0
    0.7500    1.2990    0.0000 C   0  0  0  0  0  0  0  0  0  0  0  0
   -0.7500    1.2990    0.0000 C   0  0  0  0  0  0  0  0  0  0  0  0
   -1.5000    2.5981    0.0000 N   0  0  0  0  0  0  0  0  0  0  0  0
   -2.9918    2.7549    0.0000 C   0  0  0  0  0  0  0  0  0  0  0  0
   -3.3037    4.2221    0.0000 C   0  0  0  0  0  0  0  0  0  0  0  0
   -2.0046    4.9721    0.0000 C   0  0  0  0  0  0  0  0  0  0  0  0
   -0.8899    3.9684    0.0000 S   0  0  0  0  0  0  0  0  0  0  0  0
   -0.0082    5.1819    0.0000 O   0  0  0  0  0  0  0  0  0  0  0  0
    0.4091    3.2184    0.0000 O   0  0  0  0  0  0  0  0  0  0  0  0
   -1.5000    0.0000    0.0000 C   0  0  0  0  0  0  0  0  0  0  0  0
   -0.7500   -1.2990    0.0000 C   0  0  0  0  0  0  0  0  0  0  0  0
  1  2  2  0
  2  3  1  0
  3  4  1  0
  4  5  2  0
  5  6  1  0
  6  7  2  0
  7  8  1  0
  8  9  1  0
  9 10  1  0
 10 11  1  0
 11 12  1  0
 12 13  1  0
  7 14  1  0
 14 15  2  0
  2 16  1  0
 16 17  1  0
 17 18  2  0
 18 19  1  0
 19 20  1  0
 20 21  2  0
 21 22  1  0
 22 23  2  0
 23 24  1  0
 24 25  1  0
 25 26  1  0
 26 27  1  0
 27 28  1  0
 28 29  2  0
 28 30  2  0
 23 31  1  0
 31 32  2  0
 15  4  1  0
 32 17  1  0
 13  8  1  0
 32 20  1  0
 28 24  1  0
M  END
>  <Compound_ID>  (950) 
CHEMBL258040

>  <Active>  (950) 
1.0

>  <Smiles>  (950) 
O=C(Cc1ccc(N2CCCCC2)cc1)Nc1n[nH]c2ccc(N3CCCS3(=O)=O)cc12

>  <canonical_smi>  (950) 
O=C(Cc1ccc(N2CCCCC2)cc1)Nc1n[nH]c2ccc(N3CCCS3(=O)=O)cc12

>  <Set>  (950) 
G2 active

>  <Set_type>  (950) 
Test

>  <MW>  (950) 
453.57

>  <HBD>  (950) 
2

>  <HBA>  (950) 
5

>  <NRB>  (950) 
5

>  <NR>  (950) 
5

>  <NAR>  (950) 
3

>  <PSA>  (950) 
98.4

>  <Standard Type>  (950) 
nan

>  <Standard Relation>  (950) 
nan

>  <Standard Units>  (950) 
nan

>  <Standard Value>  (950) 
nan

>  <Assay ChEMBL ID>  (950) 
nan

>  <Assay Description>  (950) 
nan

>  <BAO Label>  (950) 
nan

$$$$

     RDKit          2D

 31 35  0  0  0  0  0  0  0  0999 V2000
   -8.5234   -7.7536    0.0000 C   0  0  0  0  0  0  0  0  0  0  0  0
   -7.0317   -7.5968    0.0000 O   0  0  0  0  0  0  0  0  0  0  0  0
   -6.4216   -6.2265    0.0000 C   0  0  0  0  0  0  0  0  0  0  0  0
   -7.3032   -5.0129    0.0000 C   0  0  0  0  0  0  0  0  0  0  0  0
   -6.6931   -3.6426    0.0000 C   0  0  0  0  0  0  0  0  0  0  0  0
   -5.2013   -3.4858    0.0000 C   0  0  0  0  0  0  0  0  0  0  0  0
   -4.5912   -2.1155    0.0000 C   0  0  0  0  0  0  0  0  0  0  0  0
   -5.3412   -0.8165    0.0000 N   0  0  0  0  0  0  0  0  0  0  0  0
   -4.3375    0.2982    0.0000 N   0  0  0  0  0  0  0  0  0  0  0  0
   -2.9672   -0.3119    0.0000 C   0  0  0  0  0  0  0  0  0  0  0  0
   -3.1240   -1.8037    0.0000 C   0  0  0  0  0  0  0  0  0  0  0  0
   -1.7537   -2.4138    0.0000 C   0  0  0  0  0  0  0  0  0  0  0  0
   -1.4418   -3.8810    0.0000 O   0  0  0  0  0  0  0  0  0  0  0  0
   -0.7500   -1.2990    0.0000 C   0  0  0  0  0  0  0  0  0  0  0  0
    0.7500   -1.2990    0.0000 C   0  0  0  0  0  0  0  0  0  0  0  0
    1.5000   -2.5981    0.0000 N   0  0  0  0  0  0  0  0  0  0  0  0
    3.0000   -2.5981    0.0000 C   0  0  0  0  0  0  0  0  0  0  0  0
    3.7500   -1.2990    0.0000 O   0  0  0  0  0  0  0  0  0  0  0  0
    3.7500   -3.8971    0.0000 N   0  0  0  0  0  0  0  0  0  0  0  0
    5.2500   -3.8971    0.0000 C   0  0  0  0  0  0  0  0  0  0  0  0
    6.0000   -5.1962    0.0000 C   0  0  0  0  0  0  0  0  0  0  0  0
    7.5000   -5.1962    0.0000 C   0  0  0  0  0  0  0  0  0  0  0  0
    8.2500   -3.8971    0.0000 C   0  0  0  0  0  0  0  0  0  0  0  0
    7.5000   -2.5981    0.0000 C   0  0  0  0  0  0  0  0  0  0  0  0
    6.0000   -2.5981    0.0000 C   0  0  0  0  0  0  0  0  0  0  0  0
    1.5000    0.0000    0.0000 C   0  0  0  0  0  0  0  0  0  0  0  0
    0.7500    1.2990    0.0000 C   0  0  0  0  0  0  0  0  0  0  0  0
   -0.7500    1.2990    0.0000 C   0  0  0  0  0  0  0  0  0  0  0  0
   -1.5000    0.0000    0.0000 C   0  0  0  0  0  0  0  0  0  0  0  0
   -4.3197   -4.6994    0.0000 C   0  0  0  0  0  0  0  0  0  0  0  0
   -4.9298   -6.0697    0.0000 C   0  0  0  0  0  0  0  0  0  0  0  0
  1  2  1  0
  2  3  1  0
  3  4  2  0
  4  5  1  0
  5  6  2  0
  6  7  1  0
  7  8  1  0
  8  9  1  0
  9 10  2  0
 10 11  1  0
 11 12  1  0
 12 13  2  0
 12 14  1  0
 14 15  2  0
 15 16  1  0
 16 17  1  0
 17 18  2  0
 17 19  1  0
 19 20  1  0
 20 21  2  0
 21 22  1  0
 22 23  2  0
 23 24  1  0
 24 25  2  0
 15 26  1  0
 26 27  2  0
 27 28  1  0
 28 29  2  0
  6 30  1  0
 30 31  2  0
 31  3  1  0
 11  7  2  0
 29 14  1  0
 29 10  1  0
 25 20  1  0
M  END
>  <Compound_ID>  (951) 
CHEMBL436078

>  <Active>  (951) 
1.0

>  <Smiles>  (951) 
COc1ccc(-c2[nH]nc3c2C(=O)c2c(NC(=O)Nc4ccccc4)cccc2-3)cc1

>  <canonical_smi>  (951) 
COc1ccc(-c2[nH]nc3c2C(=O)c2c(NC(=O)Nc4ccccc4)cccc2-3)cc1

>  <Set>  (951) 
G2 active

>  <Set_type>  (951) 
Test

>  <MW>  (951) 
410.43

>  <HBD>  (951) 
3

>  <HBA>  (951) 
4

>  <NRB>  (951) 
4

>  <NR>  (951) 
5

>  <NAR>  (951) 
5

>  <PSA>  (951) 
96.11

>  <Standard Type>  (951) 
nan

>  <Standard Relation>  (951) 
nan

>  <Standard Units>  (951) 
nan

>  <Standard Value>  (951) 
nan

>  <Assay ChEMBL ID>  (951) 
nan

>  <Assay Description>  (951) 
nan

>  <BAO Label>  (951) 
nan

$$$$

     RDKit          2D

 30 33  0  0  0  0  0  0  0  0999 V2000
    8.0260   -3.8971    0.0000 C   0  0  0  0  0  0  0  0  0  0  0  0
    7.2760   -2.5981    0.0000 C   0  0  0  0  0  0  0  0  0  0  0  0
    5.7760   -2.5981    0.0000 C   0  0  0  0  0  0  0  0  0  0  0  0
    5.0260   -1.2990    0.0000 C   0  0  0  0  0  0  0  0  0  0  0  0
    3.5260   -1.2990    0.0000 N   0  0  0  0  0  0  0  0  0  0  0  0
    2.7760    0.0000    0.0000 C   0  0  0  0  0  0  0  0  0  0  0  0
    3.5260    1.2990    0.0000 O   0  0  0  0  0  0  0  0  0  0  0  0
    1.2760    0.0000    0.0000 N   0  0  0  0  0  0  0  0  0  0  0  0
    0.3943    1.2135    0.0000 C   0  0  0  0  0  0  0  0  0  0  0  0
   -1.0323    0.7500    0.0000 C   0  0  0  0  0  0  0  0  0  0  0  0
   -2.4589    1.2135    0.0000 N   0  0  0  0  0  0  0  0  0  0  0  0
   -3.3405    0.0000    0.0000 N   0  0  0  0  0  0  0  0  0  0  0  0
   -2.4589   -1.2135    0.0000 C   0  0  0  0  0  0  0  0  0  0  0  0
   -2.9224   -2.6401    0.0000 N   0  0  0  0  0  0  0  0  0  0  0  0
   -4.3896   -2.9520    0.0000 C   0  0  0  0  0  0  0  0  0  0  0  0
   -5.3933   -1.8373    0.0000 O   0  0  0  0  0  0  0  0  0  0  0  0
   -4.8531   -4.3786    0.0000 C   0  0  0  0  0  0  0  0  0  0  0  0
   -6.3204   -4.6904    0.0000 C   0  0  0  0  0  0  0  0  0  0  0  0
   -7.3241   -3.5757    0.0000 C   0  0  0  0  0  0  0  0  0  0  0  0
   -8.7913   -3.8876    0.0000 C   0  0  0  0  0  0  0  0  0  0  0  0
   -9.2548   -5.3142    0.0000 C   0  0  0  0  0  0  0  0  0  0  0  0
  -10.7220   -5.6260    0.0000 N   0  0  0  0  0  0  0  0  0  0  0  0
  -11.3321   -6.9964    0.0000 C   0  0  0  0  0  0  0  0  0  0  0  0
  -12.8239   -6.8396    0.0000 C   0  0  0  0  0  0  0  0  0  0  0  0
  -13.1358   -5.3723    0.0000 C   0  0  0  0  0  0  0  0  0  0  0  0
  -11.8367   -4.6223    0.0000 C   0  0  0  0  0  0  0  0  0  0  0  0
   -8.2511   -6.4289    0.0000 C   0  0  0  0  0  0  0  0  0  0  0  0
   -6.7839   -6.1170    0.0000 C   0  0  0  0  0  0  0  0  0  0  0  0
   -1.0323   -0.7500    0.0000 C   0  0  0  0  0  0  0  0  0  0  0  0
    0.3943   -1.2135    0.0000 C   0  0  0  0  0  0  0  0  0  0  0  0
  1  2  1  0
  2  3  1  0
  3  4  1  0
  4  5  1  0
  5  6  1  0
  6  7  2  0
  6  8  1  0
  8  9  1  0
  9 10  1  0
 10 11  2  0
 11 12  1  0
 12 13  1  0
 13 14  1  0
 14 15  1  0
 15 16  2  0
 15 17  1  0
 17 18  1  0
 18 19  2  0
 19 20  1  0
 20 21  2  0
 21 22  1  0
 22 23  1  0
 23 24  1  0
 24 25  1  0
 25 26  1  0
 21 27  1  0
 27 28  2  0
 13 29  2  0
 29 30  1  0
 30  8  1  0
 29 10  1  0
 28 18  1  0
 26 22  1  0
M  END
>  <Compound_ID>  (952) 
CHEMBL383104

>  <Active>  (952) 
1.0

>  <Smiles>  (952) 
CCCCNC(=O)N1Cc2n[nH]c(NC(=O)Cc3ccc(N4CCCC4)cc3)c2C1

>  <canonical_smi>  (952) 
CCCCNC(=O)N1Cc2n[nH]c(NC(=O)Cc3ccc(N4CCCC4)cc3)c2C1

>  <Set>  (952) 
G2 active

>  <Set_type>  (952) 
Test

>  <MW>  (952) 
410.52

>  <HBD>  (952) 
3

>  <HBA>  (952) 
4

>  <NRB>  (952) 
7

>  <NR>  (952) 
4

>  <NAR>  (952) 
2

>  <PSA>  (952) 
93.36

>  <Standard Type>  (952) 
nan

>  <Standard Relation>  (952) 
nan

>  <Standard Units>  (952) 
nan

>  <Standard Value>  (952) 
nan

>  <Assay ChEMBL ID>  (952) 
nan

>  <Assay Description>  (952) 
nan

>  <BAO Label>  (952) 
nan

$$$$

     RDKit          2D

 18 20  0  0  0  0  0  0  0  0999 V2000
    3.0000   -2.5981    0.0000 O   0  0  0  0  0  0  0  0  0  0  0  0
    1.5000   -2.5981    0.0000 C   0  0  0  0  0  0  0  0  0  0  0  0
    0.7500   -3.8971    0.0000 N   0  0  0  0  0  0  0  0  0  0  0  0
    1.5000   -5.1962    0.0000 C   0  0  0  0  0  0  0  0  0  0  0  0
    2.9918   -5.3529    0.0000 C   0  0  0  0  0  0  0  0  0  0  0  0
    3.3037   -6.8202    0.0000 C   0  0  0  0  0  0  0  0  0  0  0  0
    4.6740   -7.4303    0.0000 C   0  0  0  0  0  0  0  0  0  0  0  0
    6.1658   -7.2735    0.0000 C   0  0  0  0  0  0  0  0  0  0  0  0
    5.5556   -8.6438    0.0000 C   0  0  0  0  0  0  0  0  0  0  0  0
    2.0046   -7.5702    0.0000 N   0  0  0  0  0  0  0  0  0  0  0  0
    0.8899   -6.5665    0.0000 N   0  0  0  0  0  0  0  0  0  0  0  0
    0.7500   -1.2990    0.0000 C   0  0  0  0  0  0  0  0  0  0  0  0
    1.5000    0.0000    0.0000 C   0  0  0  0  0  0  0  0  0  0  0  0
    0.7500    1.2990    0.0000 C   0  0  0  0  0  0  0  0  0  0  0  0
   -0.7500    1.2990    0.0000 C   0  0  0  0  0  0  0  0  0  0  0  0
   -1.5000    2.5981    0.0000 Br  0  0  0  0  0  0  0  0  0  0  0  0
   -1.5000    0.0000    0.0000 C   0  0  0  0  0  0  0  0  0  0  0  0
   -0.7500   -1.2990    0.0000 C   0  0  0  0  0  0  0  0  0  0  0  0
  1  2  2  0
  2  3  1  0
  3  4  1  0
  4  5  1  0
  5  6  2  0
  6  7  1  0
  7  8  1  0
  8  9  1  0
  6 10  1  0
 10 11  1  0
  2 12  1  0
 12 13  2  0
 13 14  1  0
 14 15  2  0
 15 16  1  0
 15 17  1  0
 17 18  2  0
 11  4  2  0
 18 12  1  0
  9  7  1  0
M  END
>  <Compound_ID>  (953) 
CHEMBL115319

>  <Active>  (953) 
1.0

>  <Smiles>  (953) 
O=C(Nc1cc(C2CC2)[nH]n1)c1ccc(Br)cc1

>  <canonical_smi>  (953) 
O=C(Nc1cc(C2CC2)[nH]n1)c1ccc(Br)cc1

>  <Set>  (953) 
G2 active

>  <Set_type>  (953) 
Test

>  <MW>  (953) 
306.16

>  <HBD>  (953) 
2

>  <HBA>  (953) 
2

>  <NRB>  (953) 
3

>  <NR>  (953) 
3

>  <NAR>  (953) 
2

>  <PSA>  (953) 
57.78

>  <Standard Type>  (953) 
nan

>  <Standard Relation>  (953) 
nan

>  <Standard Units>  (953) 
nan

>  <Standard Value>  (953) 
nan

>  <Assay ChEMBL ID>  (953) 
nan

>  <Assay Description>  (953) 
nan

>  <BAO Label>  (953) 
nan

$$$$

     RDKit          2D

 32 36  0  0  0  0  0  0  0  0999 V2000
   10.5000   -5.1962    0.0000 N   0  0  0  0  0  0  0  0  0  0  0  0
    9.7500   -3.8971    0.0000 C   0  0  0  0  0  0  0  0  0  0  0  0
   10.5000   -2.5981    0.0000 O   0  0  0  0  0  0  0  0  0  0  0  0
    8.2500   -3.8971    0.0000 C   0  0  0  0  0  0  0  0  0  0  0  0
    7.5000   -5.1962    0.0000 C   0  0  0  0  0  0  0  0  0  0  0  0
    6.0000   -5.1962    0.0000 C   0  0  0  0  0  0  0  0  0  0  0  0
    5.2500   -3.8971    0.0000 N   0  0  0  0  0  0  0  0  0  0  0  0
    3.7500   -3.8971    0.0000 C   0  0  0  0  0  0  0  0  0  0  0  0
    3.0000   -2.5981    0.0000 C   0  0  0  0  0  0  0  0  0  0  0  0
    3.7500   -1.2990    0.0000 O   0  0  0  0  0  0  0  0  0  0  0  0
    1.5000   -2.5981    0.0000 N   0  0  0  0  0  0  0  0  0  0  0  0
    0.7500   -1.2990    0.0000 C   0  0  0  0  0  0  0  0  0  0  0  0
    1.5000    0.0000    0.0000 C   0  0  0  0  0  0  0  0  0  0  0  0
    0.7500    1.2990    0.0000 C   0  0  0  0  0  0  0  0  0  0  0  0
   -0.7500    1.2990    0.0000 C   0  0  0  0  0  0  0  0  0  0  0  0
   -1.5000    0.0000    0.0000 C   0  0  0  0  0  0  0  0  0  0  0  0
   -0.7500   -1.2990    0.0000 C   0  0  0  0  0  0  0  0  0  0  0  0
   -1.7537   -2.4138    0.0000 C   0  0  0  0  0  0  0  0  0  0  0  0
   -1.4418   -3.8810    0.0000 O   0  0  0  0  0  0  0  0  0  0  0  0
   -3.1240   -1.8037    0.0000 C   0  0  0  0  0  0  0  0  0  0  0  0
   -4.5912   -2.1155    0.0000 C   0  0  0  0  0  0  0  0  0  0  0  0
   -5.2013   -3.4858    0.0000 C   0  0  0  0  0  0  0  0  0  0  0  0
   -6.6931   -3.6426    0.0000 C   0  0  0  0  0  0  0  0  0  0  0  0
   -7.3032   -5.0129    0.0000 C   0  0  0  0  0  0  0  0  0  0  0  0
   -6.4216   -6.2265    0.0000 C   0  0  0  0  0  0  0  0  0  0  0  0
   -4.9298   -6.0697    0.0000 C   0  0  0  0  0  0  0  0  0  0  0  0
   -4.3197   -4.6994    0.0000 C   0  0  0  0  0  0  0  0  0  0  0  0
   -5.3412   -0.8165    0.0000 N   0  0  0  0  0  0  0  0  0  0  0  0
   -4.3375    0.2982    0.0000 N   0  0  0  0  0  0  0  0  0  0  0  0
   -2.9672   -0.3119    0.0000 C   0  0  0  0  0  0  0  0  0  0  0  0
    6.0000   -2.5981    0.0000 C   0  0  0  0  0  0  0  0  0  0  0  0
    7.5000   -2.5981    0.0000 C   0  0  0  0  0  0  0  0  0  0  0  0
  1  2  1  0
  2  3  2  0
  2  4  1  0
  4  5  1  0
  5  6  1  0
  6  7  1  0
  7  8  1  0
  8  9  1  0
  9 10  2  0
  9 11  1  0
 11 12  1  0
 12 13  2  0
 13 14  1  0
 14 15  2  0
 15 16  1  0
 16 17  2  0
 17 18  1  0
 18 19  2  0
 18 20  1  0
 20 21  1  0
 21 22  1  0
 22 23  1  0
 23 24  1  0
 24 25  1  0
 25 26  1  0
 26 27  1  0
 21 28  2  0
 28 29  1  0
 29 30  1  0
  7 31  1  0
 31 32  1  0
 32  4  1  0
 17 12  1  0
 30 20  2  0
 30 16  1  0
 27 22  1  0
M  END
>  <Compound_ID>  (954) 
CHEMBL147232

>  <Active>  (954) 
1.0

>  <Smiles>  (954) 
NC(=O)C1CCN(CC(=O)Nc2cccc3c2C(=O)c2c(C4CCCCC4)n[nH]c2-3)CC1

>  <canonical_smi>  (954) 
NC(=O)C1CCN(CC(=O)Nc2cccc3c2C(=O)c2c(C4CCCCC4)n[nH]c2-3)CC1

>  <Set>  (954) 
G2 active

>  <Set_type>  (954) 
Test

>  <MW>  (954) 
435.53

>  <HBD>  (954) 
3

>  <HBA>  (954) 
5

>  <NRB>  (954) 
5

>  <NR>  (954) 
5

>  <NAR>  (954) 
3

>  <PSA>  (954) 
121.18

>  <Standard Type>  (954) 
nan

>  <Standard Relation>  (954) 
nan

>  <Standard Units>  (954) 
nan

>  <Standard Value>  (954) 
nan

>  <Assay ChEMBL ID>  (954) 
nan

>  <Assay Description>  (954) 
nan

>  <BAO Label>  (954) 
nan

$$$$

     RDKit          2D

 34 38  0  0  0  0  0  0  0  0999 V2000
   -2.2447   -8.9500    0.0000 C   0  0  0  0  0  0  0  0  0  0  0  0
   -2.5565   -7.4827    0.0000 N   0  0  0  0  0  0  0  0  0  0  0  0
   -1.4418   -6.4791    0.0000 C   0  0  0  0  0  0  0  0  0  0  0  0
   -0.0152   -6.9426    0.0000 O   0  0  0  0  0  0  0  0  0  0  0  0
   -1.7537   -5.0118    0.0000 C   0  0  0  0  0  0  0  0  0  0  0  0
   -3.1240   -4.4017    0.0000 N   0  0  0  0  0  0  0  0  0  0  0  0
   -2.9672   -2.9099    0.0000 N   0  0  0  0  0  0  0  0  0  0  0  0
   -4.0819   -1.9062    0.0000 C   0  0  0  0  0  0  0  0  0  0  0  0
   -1.5000   -2.5981    0.0000 C   0  0  0  0  0  0  0  0  0  0  0  0
   -0.7500   -3.8971    0.0000 C   0  0  0  0  0  0  0  0  0  0  0  0
    0.7500   -3.8971    0.0000 C   0  0  0  0  0  0  0  0  0  0  0  0
    2.1595   -4.4101    0.0000 C   0  0  0  0  0  0  0  0  0  0  0  0
    0.4895   -5.3743    0.0000 C   0  0  0  0  0  0  0  0  0  0  0  0
    1.5000   -2.5981    0.0000 C   0  0  0  0  0  0  0  0  0  0  0  0
    0.7500   -1.2990    0.0000 C   0  0  0  0  0  0  0  0  0  0  0  0
    1.5000    0.0000    0.0000 C   0  0  0  0  0  0  0  0  0  0  0  0
    0.7500    1.2990    0.0000 N   0  0  0  0  0  0  0  0  0  0  0  0
   -0.7500    1.2990    0.0000 C   0  0  0  0  0  0  0  0  0  0  0  0
   -1.5000    2.5981    0.0000 N   0  0  0  0  0  0  0  0  0  0  0  0
   -0.7500    3.8971    0.0000 C   0  0  0  0  0  0  0  0  0  0  0  0
    0.7500    3.8971    0.0000 C   0  0  0  0  0  0  0  0  0  0  0  0
    1.5000    5.1962    0.0000 C   0  0  0  0  0  0  0  0  0  0  0  0
    0.7500    6.4952    0.0000 C   0  0  0  0  0  0  0  0  0  0  0  0
    1.5000    7.7942    0.0000 C   0  0  0  0  0  0  0  0  0  0  0  0
    3.0000    7.7942    0.0000 N   0  0  0  0  0  0  0  0  0  0  0  0
    3.7500    6.4952    0.0000 C   0  0  0  0  0  0  0  0  0  0  0  0
    5.2500    6.4952    0.0000 C   0  0  0  0  0  0  0  0  0  0  0  0
    6.0000    7.7942    0.0000 O   0  0  0  0  0  0  0  0  0  0  0  0
    5.2500    9.0933    0.0000 C   0  0  0  0  0  0  0  0  0  0  0  0
    3.7500    9.0933    0.0000 C   0  0  0  0  0  0  0  0  0  0  0  0
   -0.7500    6.4952    0.0000 C   0  0  0  0  0  0  0  0  0  0  0  0
   -1.5000    5.1962    0.0000 C   0  0  0  0  0  0  0  0  0  0  0  0
   -1.5000    0.0000    0.0000 N   0  0  0  0  0  0  0  0  0  0  0  0
   -0.7500   -1.2990    0.0000 C   0  0  0  0  0  0  0  0  0  0  0  0
  1  2  1  0
  2  3  1  0
  3  4  2  0
  3  5  1  0
  5  6  2  0
  6  7  1  0
  7  8  1  0
  7  9  1  0
  9 10  2  0
 10 11  1  0
 11 12  1  0
 11 13  1  0
 11 14  1  0
 14 15  1  0
 15 16  2  0
 16 17  1  0
 17 18  2  0
 18 19  1  0
 19 20  1  0
 20 21  2  0
 21 22  1  0
 22 23  2  0
 23 24  1  0
 24 25  1  0
 25 26  1  0
 26 27  1  0
 27 28  1  0
 28 29  1  0
 29 30  1  0
 23 31  1  0
 31 32  2  0
 18 33  1  0
 33 34  2  0
 10  5  1  0
 34 15  1  0
 34  9  1  0
 32 20  1  0
 30 25  1  0
M  END
>  <Compound_ID>  (955) 
CHEMBL550959

>  <Active>  (955) 
1.0

>  <Smiles>  (955) 
CNC(=O)c1nn(C)c2c1C(C)(C)Cc1cnc(Nc3ccc(CN4CCOCC4)cc3)nc1-2

>  <canonical_smi>  (955) 
CNC(=O)c1nn(C)c2c1C(C)(C)Cc1cnc(Nc3ccc(CN4CCOCC4)cc3)nc1-2

>  <Set>  (955) 
G2 active

>  <Set_type>  (955) 
Test

>  <MW>  (955) 
461.57

>  <HBD>  (955) 
2

>  <HBA>  (955) 
7

>  <NRB>  (955) 
5

>  <NR>  (955) 
5

>  <NAR>  (955) 
3

>  <PSA>  (955) 
97.2

>  <Standard Type>  (955) 
nan

>  <Standard Relation>  (955) 
nan

>  <Standard Units>  (955) 
nan

>  <Standard Value>  (955) 
nan

>  <Assay ChEMBL ID>  (955) 
nan

>  <Assay Description>  (955) 
nan

>  <BAO Label>  (955) 
nan

$$$$

     RDKit          2D

 35 40  0  0  0  0  0  0  0  0999 V2000
    3.7500   -1.2990    0.0000 O   0  0  0  0  0  0  0  0  0  0  0  0
    3.0000   -2.5981    0.0000 C   0  0  0  0  0  0  0  0  0  0  0  0
    3.7500   -3.8971    0.0000 C   0  0  0  0  0  0  0  0  0  0  0  0
    5.2500   -3.8971    0.0000 N   0  0  0  0  0  0  0  0  0  0  0  0
    6.0000   -5.1962    0.0000 C   0  0  0  0  0  0  0  0  0  0  0  0
    7.5000   -5.1962    0.0000 C   0  0  0  0  0  0  0  0  0  0  0  0
    8.2500   -3.8971    0.0000 O   0  0  0  0  0  0  0  0  0  0  0  0
    7.5000   -2.5981    0.0000 C   0  0  0  0  0  0  0  0  0  0  0  0
    6.0000   -2.5981    0.0000 C   0  0  0  0  0  0  0  0  0  0  0  0
    1.5000   -2.5981    0.0000 N   0  0  0  0  0  0  0  0  0  0  0  0
    0.7500   -1.2990    0.0000 C   0  0  0  0  0  0  0  0  0  0  0  0
    1.5000    0.0000    0.0000 C   0  0  0  0  0  0  0  0  0  0  0  0
    0.7500    1.2990    0.0000 C   0  0  0  0  0  0  0  0  0  0  0  0
   -0.7500    1.2990    0.0000 C   0  0  0  0  0  0  0  0  0  0  0  0
   -1.5000    0.0000    0.0000 C   0  0  0  0  0  0  0  0  0  0  0  0
   -0.7500   -1.2990    0.0000 C   0  0  0  0  0  0  0  0  0  0  0  0
   -1.7537   -2.4138    0.0000 C   0  0  0  0  0  0  0  0  0  0  0  0
   -1.4418   -3.8810    0.0000 O   0  0  0  0  0  0  0  0  0  0  0  0
   -3.1240   -1.8037    0.0000 C   0  0  0  0  0  0  0  0  0  0  0  0
   -4.5912   -2.1155    0.0000 C   0  0  0  0  0  0  0  0  0  0  0  0
   -5.2013   -3.4858    0.0000 C   0  0  0  0  0  0  0  0  0  0  0  0
   -6.6931   -3.6426    0.0000 C   0  0  0  0  0  0  0  0  0  0  0  0
   -7.3032   -5.0129    0.0000 C   0  0  0  0  0  0  0  0  0  0  0  0
   -6.4216   -6.2265    0.0000 C   0  0  0  0  0  0  0  0  0  0  0  0
   -7.0317   -7.5968    0.0000 N   0  0  0  0  0  0  0  0  0  0  0  0
   -8.5234   -7.7536    0.0000 C   0  0  0  0  0  0  0  0  0  0  0  0
   -9.1335   -9.1239    0.0000 C   0  0  0  0  0  0  0  0  0  0  0  0
   -8.2519  -10.3374    0.0000 O   0  0  0  0  0  0  0  0  0  0  0  0
   -6.7601  -10.1806    0.0000 C   0  0  0  0  0  0  0  0  0  0  0  0
   -6.1500   -8.8103    0.0000 C   0  0  0  0  0  0  0  0  0  0  0  0
   -4.9298   -6.0697    0.0000 C   0  0  0  0  0  0  0  0  0  0  0  0
   -4.3197   -4.6994    0.0000 C   0  0  0  0  0  0  0  0  0  0  0  0
   -5.3412   -0.8165    0.0000 N   0  0  0  0  0  0  0  0  0  0  0  0
   -4.3375    0.2982    0.0000 N   0  0  0  0  0  0  0  0  0  0  0  0
   -2.9672   -0.3119    0.0000 C   0  0  0  0  0  0  0  0  0  0  0  0
  1  2  2  0
  2  3  1  0
  3  4  1  0
  4  5  1  0
  5  6  1  0
  6  7  1  0
  7  8  1  0
  8  9  1  0
  2 10  1  0
 10 11  1  0
 11 12  2  0
 12 13  1  0
 13 14  2  0
 14 15  1  0
 15 16  2  0
 16 17  1  0
 17 18  2  0
 17 19  1  0
 19 20  1  0
 20 21  1  0
 21 22  2  0
 22 23  1  0
 23 24  2  0
 24 25  1  0
 25 26  1  0
 26 27  1  0
 27 28  1  0
 28 29  1  0
 29 30  1  0
 24 31  1  0
 31 32  2  0
 20 33  2  0
 33 34  1  0
 34 35  1  0
  9  4  1  0
 16 11  1  0
 35 19  2  0
 35 15  1  0
 32 21  1  0
 30 25  1  0
M  END
>  <Compound_ID>  (956) 
CHEMBL149015

>  <Active>  (956) 
1.0

>  <Smiles>  (956) 
O=C(CN1CCOCC1)Nc1cccc2c1C(=O)c1c(-c3ccc(N4CCOCC4)cc3)n[nH]c1-2

>  <canonical_smi>  (956) 
O=C(CN1CCOCC1)Nc1cccc2c1C(=O)c1c(-c3ccc(N4CCOCC4)cc3)n[nH]c1-2

>  <Set>  (956) 
G2 active

>  <Set_type>  (956) 
Test

>  <MW>  (956) 
473.53

>  <HBD>  (956) 
2

>  <HBA>  (956) 
7

>  <NRB>  (956) 
5

>  <NR>  (956) 
6

>  <NAR>  (956) 
4

>  <PSA>  (956) 
99.79

>  <Standard Type>  (956) 
nan

>  <Standard Relation>  (956) 
nan

>  <Standard Units>  (956) 
nan

>  <Standard Value>  (956) 
nan

>  <Assay ChEMBL ID>  (956) 
nan

>  <Assay Description>  (956) 
nan

>  <BAO Label>  (956) 
nan

$$$$

     RDKit          2D

 20 22  0  0  0  0  0  0  0  0999 V2000
    3.0000   -2.5981    0.0000 O   0  0  0  0  0  0  0  0  0  0  0  0
    1.5000   -2.5981    0.0000 C   0  0  0  0  0  0  0  0  0  0  0  0
    0.7500   -3.8971    0.0000 N   0  0  0  0  0  0  0  0  0  0  0  0
    1.5000   -5.1962    0.0000 C   0  0  0  0  0  0  0  0  0  0  0  0
    2.9918   -5.3529    0.0000 C   0  0  0  0  0  0  0  0  0  0  0  0
    3.3037   -6.8202    0.0000 C   0  0  0  0  0  0  0  0  0  0  0  0
    4.6740   -7.4303    0.0000 C   0  0  0  0  0  0  0  0  0  0  0  0
    5.9730   -6.6803    0.0000 C   0  0  0  0  0  0  0  0  0  0  0  0
    7.0877   -7.6840    0.0000 C   0  0  0  0  0  0  0  0  0  0  0  0
    6.4776   -9.0543    0.0000 C   0  0  0  0  0  0  0  0  0  0  0  0
    4.9858   -8.8975    0.0000 C   0  0  0  0  0  0  0  0  0  0  0  0
    2.0046   -7.5702    0.0000 N   0  0  0  0  0  0  0  0  0  0  0  0
    0.8899   -6.5665    0.0000 N   0  0  0  0  0  0  0  0  0  0  0  0
    0.7500   -1.2990    0.0000 C   0  0  0  0  0  0  0  0  0  0  0  0
    1.5000    0.0000    0.0000 C   0  0  0  0  0  0  0  0  0  0  0  0
    0.7500    1.2990    0.0000 C   0  0  0  0  0  0  0  0  0  0  0  0
   -0.7500    1.2990    0.0000 C   0  0  0  0  0  0  0  0  0  0  0  0
   -1.5000    2.5981    0.0000 Br  0  0  0  0  0  0  0  0  0  0  0  0
   -1.5000    0.0000    0.0000 C   0  0  0  0  0  0  0  0  0  0  0  0
   -0.7500   -1.2990    0.0000 C   0  0  0  0  0  0  0  0  0  0  0  0
  1  2  2  0
  2  3  1  0
  3  4  1  0
  4  5  1  0
  5  6  2  0
  6  7  1  0
  7  8  1  0
  8  9  1  0
  9 10  1  0
 10 11  1  0
  6 12  1  0
 12 13  1  0
  2 14  1  0
 14 15  2  0
 15 16  1  0
 16 17  2  0
 17 18  1  0
 17 19  1  0
 19 20  2  0
 13  4  2  0
 20 14  1  0
 11  7  1  0
M  END
>  <Compound_ID>  (957) 
CHEMBL419753

>  <Active>  (957) 
1.0

>  <Smiles>  (957) 
O=C(Nc1cc(C2CCCC2)[nH]n1)c1ccc(Br)cc1

>  <canonical_smi>  (957) 
O=C(Nc1cc(C2CCCC2)[nH]n1)c1ccc(Br)cc1

>  <Set>  (957) 
G2 active

>  <Set_type>  (957) 
Test

>  <MW>  (957) 
334.22

>  <HBD>  (957) 
2

>  <HBA>  (957) 
2

>  <NRB>  (957) 
3

>  <NR>  (957) 
3

>  <NAR>  (957) 
2

>  <PSA>  (957) 
57.78

>  <Standard Type>  (957) 
nan

>  <Standard Relation>  (957) 
nan

>  <Standard Units>  (957) 
nan

>  <Standard Value>  (957) 
nan

>  <Assay ChEMBL ID>  (957) 
nan

>  <Assay Description>  (957) 
nan

>  <BAO Label>  (957) 
nan

$$$$

     RDKit          2D

 31 35  0  0  0  0  0  0  0  0999 V2000
   -8.5234   -7.7536    0.0000 C   0  0  0  0  0  0  0  0  0  0  0  0
   -7.0317   -7.5968    0.0000 O   0  0  0  0  0  0  0  0  0  0  0  0
   -6.4216   -6.2265    0.0000 C   0  0  0  0  0  0  0  0  0  0  0  0
   -7.3032   -5.0129    0.0000 C   0  0  0  0  0  0  0  0  0  0  0  0
   -6.6931   -3.6426    0.0000 C   0  0  0  0  0  0  0  0  0  0  0  0
   -5.2013   -3.4858    0.0000 C   0  0  0  0  0  0  0  0  0  0  0  0
   -4.5912   -2.1155    0.0000 C   0  0  0  0  0  0  0  0  0  0  0  0
   -5.3412   -0.8165    0.0000 N   0  0  0  0  0  0  0  0  0  0  0  0
   -4.3375    0.2982    0.0000 N   0  0  0  0  0  0  0  0  0  0  0  0
   -2.9672   -0.3119    0.0000 C   0  0  0  0  0  0  0  0  0  0  0  0
   -3.1240   -1.8037    0.0000 C   0  0  0  0  0  0  0  0  0  0  0  0
   -1.7537   -2.4138    0.0000 C   0  0  0  0  0  0  0  0  0  0  0  0
   -1.4418   -3.8810    0.0000 O   0  0  0  0  0  0  0  0  0  0  0  0
   -0.7500   -1.2990    0.0000 C   0  0  0  0  0  0  0  0  0  0  0  0
    0.7500   -1.2990    0.0000 C   0  0  0  0  0  0  0  0  0  0  0  0
    1.5000   -2.5981    0.0000 N   0  0  0  0  0  0  0  0  0  0  0  0
    3.0000   -2.5981    0.0000 C   0  0  0  0  0  0  0  0  0  0  0  0
    3.7500   -1.2990    0.0000 O   0  0  0  0  0  0  0  0  0  0  0  0
    3.7500   -3.8971    0.0000 C   0  0  0  0  0  0  0  0  0  0  0  0
    5.2500   -3.8971    0.0000 N   0  0  0  0  0  0  0  0  0  0  0  0
    6.0000   -5.1962    0.0000 C   0  0  0  0  0  0  0  0  0  0  0  0
    7.5000   -5.1962    0.0000 C   0  0  0  0  0  0  0  0  0  0  0  0
    8.2500   -3.8971    0.0000 S   0  0  0  0  0  0  0  0  0  0  0  0
    7.5000   -2.5981    0.0000 C   0  0  0  0  0  0  0  0  0  0  0  0
    6.0000   -2.5981    0.0000 C   0  0  0  0  0  0  0  0  0  0  0  0
    1.5000    0.0000    0.0000 C   0  0  0  0  0  0  0  0  0  0  0  0
    0.7500    1.2990    0.0000 C   0  0  0  0  0  0  0  0  0  0  0  0
   -0.7500    1.2990    0.0000 C   0  0  0  0  0  0  0  0  0  0  0  0
   -1.5000    0.0000    0.0000 C   0  0  0  0  0  0  0  0  0  0  0  0
   -4.3197   -4.6994    0.0000 C   0  0  0  0  0  0  0  0  0  0  0  0
   -4.9298   -6.0697    0.0000 C   0  0  0  0  0  0  0  0  0  0  0  0
  1  2  1  0
  2  3  1  0
  3  4  2  0
  4  5  1  0
  5  6  2  0
  6  7  1  0
  7  8  1  0
  8  9  1  0
  9 10  2  0
 10 11  1  0
 11 12  1  0
 12 13  2  0
 12 14  1  0
 14 15  2  0
 15 16  1  0
 16 17  1  0
 17 18  2  0
 17 19  1  0
 19 20  1  0
 20 21  1  0
 21 22  1  0
 22 23  1  0
 23 24  1  0
 24 25  1  0
 15 26  1  0
 26 27  2  0
 27 28  1  0
 28 29  2  0
  6 30  1  0
 30 31  2  0
 31  3  1  0
 11  7  2  0
 29 14  1  0
 29 10  1  0
 25 20  1  0
M  END
>  <Compound_ID>  (958) 
CHEMBL151551

>  <Active>  (958) 
1.0

>  <Smiles>  (958) 
COc1ccc(-c2[nH]nc3c2C(=O)c2c(NC(=O)CN4CCSCC4)cccc2-3)cc1

>  <canonical_smi>  (958) 
COc1ccc(-c2[nH]nc3c2C(=O)c2c(NC(=O)CN4CCSCC4)cccc2-3)cc1

>  <Set>  (958) 
G2 active

>  <Set_type>  (958) 
Test

>  <MW>  (958) 
434.52

>  <HBD>  (958) 
2

>  <HBA>  (958) 
6

>  <NRB>  (958) 
5

>  <NR>  (958) 
5

>  <NAR>  (958) 
4

>  <PSA>  (958) 
87.32

>  <Standard Type>  (958) 
nan

>  <Standard Relation>  (958) 
nan

>  <Standard Units>  (958) 
nan

>  <Standard Value>  (958) 
nan

>  <Assay ChEMBL ID>  (958) 
nan

>  <Assay Description>  (958) 
nan

>  <BAO Label>  (958) 
nan

$$$$

     RDKit          2D

 23 26  0  0  0  0  0  0  0  0999 V2000
   -3.0000   -5.1962    0.0000 O   0  0  0  0  0  0  0  0  0  0  0  0
   -3.7500   -3.8971    0.0000 C   0  0  0  0  0  0  0  0  0  0  0  0
   -5.2500   -3.8971    0.0000 N   0  0  0  0  0  0  0  0  0  0  0  0
   -6.0000   -5.1962    0.0000 C   0  0  0  0  0  0  0  0  0  0  0  0
   -5.3899   -6.5665    0.0000 N   0  0  0  0  0  0  0  0  0  0  0  0
   -6.5046   -7.5702    0.0000 C   0  0  0  0  0  0  0  0  0  0  0  0
   -7.8037   -6.8202    0.0000 C   0  0  0  0  0  0  0  0  0  0  0  0
   -9.1740   -7.4303    0.0000 C   0  0  0  0  0  0  0  0  0  0  0  0
  -10.5743   -6.8927    0.0000 C   0  0  0  0  0  0  0  0  0  0  0  0
  -11.1119   -8.2931    0.0000 C   0  0  0  0  0  0  0  0  0  0  0  0
   -9.7115   -8.8306    0.0000 C   0  0  0  0  0  0  0  0  0  0  0  0
   -7.4918   -5.3529    0.0000 S   0  0  0  0  0  0  0  0  0  0  0  0
   -3.0000   -2.5981    0.0000 N   0  0  0  0  0  0  0  0  0  0  0  0
   -1.5000   -2.5981    0.0000 C   0  0  0  0  0  0  0  0  0  0  0  0
   -0.7500   -3.8971    0.0000 C   0  0  0  0  0  0  0  0  0  0  0  0
    0.7500   -3.8971    0.0000 C   0  0  0  0  0  0  0  0  0  0  0  0
    1.5000   -2.5981    0.0000 C   0  0  0  0  0  0  0  0  0  0  0  0
    0.7500   -1.2990    0.0000 C   0  0  0  0  0  0  0  0  0  0  0  0
    1.5000    0.0000    0.0000 C   0  0  0  0  0  0  0  0  0  0  0  0
    0.7500    1.2990    0.0000 C   0  0  0  0  0  0  0  0  0  0  0  0
   -0.7500    1.2990    0.0000 N   0  0  0  0  0  0  0  0  0  0  0  0
   -1.5000    0.0000    0.0000 C   0  0  0  0  0  0  0  0  0  0  0  0
   -0.7500   -1.2990    0.0000 C   0  0  0  0  0  0  0  0  0  0  0  0
  1  2  2  0
  2  3  1  0
  3  4  1  0
  4  5  2  0
  5  6  1  0
  6  7  2  0
  7  8  1  0
  8  9  1  0
  9 10  1  0
 10 11  1  0
  7 12  1  0
  2 13  1  0
 13 14  1  0
 14 15  2  0
 15 16  1  0
 16 17  2  0
 17 18  1  0
 18 19  2  0
 19 20  1  0
 20 21  2  0
 21 22  1  0
 22 23  2  0
 12  4  1  0
 23 14  1  0
 11  8  1  0
 23 18  1  0
M  END
>  <Compound_ID>  (959) 
CHEMBL186342

>  <Active>  (959) 
1.0

>  <Smiles>  (959) 
O=C(Nc1ncc(C2CCC2)s1)Nc1cccc2ccncc12

>  <canonical_smi>  (959) 
O=C(Nc1ncc(C2CCC2)s1)Nc1cccc2ccncc12

>  <Set>  (959) 
G2 active

>  <Set_type>  (959) 
Test

>  <MW>  (959) 
324.41

>  <HBD>  (959) 
2

>  <HBA>  (959) 
3

>  <NRB>  (959) 
3

>  <NR>  (959) 
4

>  <NAR>  (959) 
3

>  <PSA>  (959) 
66.91

>  <Standard Type>  (959) 
nan

>  <Standard Relation>  (959) 
nan

>  <Standard Units>  (959) 
nan

>  <Standard Value>  (959) 
nan

>  <Assay ChEMBL ID>  (959) 
nan

>  <Assay Description>  (959) 
nan

>  <BAO Label>  (959) 
nan

$$$$

     RDKit          2D

 35 39  0  0  0  0  0  0  0  0999 V2000
   -2.2447   -8.9500    0.0000 C   0  0  0  0  0  0  0  0  0  0  0  0
   -2.5565   -7.4827    0.0000 N   0  0  0  0  0  0  0  0  0  0  0  0
   -1.4418   -6.4791    0.0000 C   0  0  0  0  0  0  0  0  0  0  0  0
   -0.0152   -6.9426    0.0000 O   0  0  0  0  0  0  0  0  0  0  0  0
   -1.7537   -5.0118    0.0000 C   0  0  0  0  0  0  0  0  0  0  0  0
   -3.1240   -4.4017    0.0000 N   0  0  0  0  0  0  0  0  0  0  0  0
   -2.9672   -2.9099    0.0000 N   0  0  0  0  0  0  0  0  0  0  0  0
   -4.0819   -1.9062    0.0000 C   0  0  0  0  0  0  0  0  0  0  0  0
   -1.5000   -2.5981    0.0000 C   0  0  0  0  0  0  0  0  0  0  0  0
   -0.7500   -3.8971    0.0000 C   0  0  0  0  0  0  0  0  0  0  0  0
    0.7500   -3.8971    0.0000 C   0  0  0  0  0  0  0  0  0  0  0  0
    2.1595   -4.4101    0.0000 C   0  0  0  0  0  0  0  0  0  0  0  0
    0.4895   -5.3743    0.0000 C   0  0  0  0  0  0  0  0  0  0  0  0
    1.5000   -2.5981    0.0000 C   0  0  0  0  0  0  0  0  0  0  0  0
    0.7500   -1.2990    0.0000 C   0  0  0  0  0  0  0  0  0  0  0  0
    1.5000    0.0000    0.0000 C   0  0  0  0  0  0  0  0  0  0  0  0
    0.7500    1.2990    0.0000 N   0  0  0  0  0  0  0  0  0  0  0  0
   -0.7500    1.2990    0.0000 C   0  0  0  0  0  0  0  0  0  0  0  0
   -1.5000    2.5981    0.0000 N   0  0  0  0  0  0  0  0  0  0  0  0
   -0.7500    3.8971    0.0000 C   0  0  0  0  0  0  0  0  0  0  0  0
    0.7500    3.8971    0.0000 C   0  0  0  0  0  0  0  0  0  0  0  0
    1.5000    5.1962    0.0000 C   0  0  0  0  0  0  0  0  0  0  0  0
    0.7500    6.4952    0.0000 C   0  0  0  0  0  0  0  0  0  0  0  0
   -0.7500    6.4952    0.0000 C   0  0  0  0  0  0  0  0  0  0  0  0
   -1.5000    7.7942    0.0000 C   0  0  0  0  0  0  0  0  0  0  0  0
   -0.7500    9.0933    0.0000 N   0  0  0  0  0  0  0  0  0  0  0  0
    0.7500    9.0933    0.0000 C   0  0  0  0  0  0  0  0  0  0  0  0
    1.5000   10.3923    0.0000 C   0  0  0  0  0  0  0  0  0  0  0  0
    0.7500   11.6913    0.0000 N   0  0  0  0  0  0  0  0  0  0  0  0
    1.5000   12.9904    0.0000 C   0  0  0  0  0  0  0  0  0  0  0  0
   -0.7500   11.6913    0.0000 C   0  0  0  0  0  0  0  0  0  0  0  0
   -1.5000   10.3923    0.0000 C   0  0  0  0  0  0  0  0  0  0  0  0
   -1.5000    5.1962    0.0000 C   0  0  0  0  0  0  0  0  0  0  0  0
   -1.5000    0.0000    0.0000 N   0  0  0  0  0  0  0  0  0  0  0  0
   -0.7500   -1.2990    0.0000 C   0  0  0  0  0  0  0  0  0  0  0  0
  1  2  1  0
  2  3  1  0
  3  4  2  0
  3  5  1  0
  5  6  2  0
  6  7  1  0
  7  8  1  0
  7  9  1  0
  9 10  2  0
 10 11  1  0
 11 12  1  0
 11 13  1  0
 11 14  1  0
 14 15  1  0
 15 16  2  0
 16 17  1  0
 17 18  2  0
 18 19  1  0
 19 20  1  0
 20 21  2  0
 21 22  1  0
 22 23  2  0
 23 24  1  0
 24 25  1  0
 25 26  1  0
 26 27  1  0
 27 28  1  0
 28 29  1  0
 29 30  1  0
 29 31  1  0
 31 32  1  0
 24 33  2  0
 18 34  1  0
 34 35  2  0
 10  5  1  0
 35 15  1  0
 35  9  1  0
 33 20  1  0
 32 26  1  0
M  END
>  <Compound_ID>  (960) 
CHEMBL564470

>  <Active>  (960) 
1.0

>  <Smiles>  (960) 
CNC(=O)c1nn(C)c2c1C(C)(C)Cc1cnc(Nc3cccc(CN4CCN(C)CC4)c3)nc1-2

>  <canonical_smi>  (960) 
CNC(=O)c1nn(C)c2c1C(C)(C)Cc1cnc(Nc3cccc(CN4CCN(C)CC4)c3)nc1-2

>  <Set>  (960) 
G2 active

>  <Set_type>  (960) 
Test

>  <MW>  (960) 
474.61

>  <HBD>  (960) 
2

>  <HBA>  (960) 
7

>  <NRB>  (960) 
5

>  <NR>  (960) 
5

>  <NAR>  (960) 
3

>  <PSA>  (960) 
91.21

>  <Standard Type>  (960) 
nan

>  <Standard Relation>  (960) 
nan

>  <Standard Units>  (960) 
nan

>  <Standard Value>  (960) 
nan

>  <Assay ChEMBL ID>  (960) 
nan

>  <Assay Description>  (960) 
nan

>  <BAO Label>  (960) 
nan

$$$$

     RDKit          2D

 19 21  0  0  0  0  0  0  0  0999 V2000
   -0.7500   -3.8971    0.0000 O   0  0  0  0  0  0  0  0  0  0  0  0
    0.7500   -3.8971    0.0000 C   0  0  0  0  0  0  0  0  0  0  0  0
    1.5000   -2.5981    0.0000 C   0  0  0  0  0  0  0  0  0  0  0  0
    0.7500   -1.2990    0.0000 C   0  0  0  0  0  0  0  0  0  0  0  0
    1.5000    0.0000    0.0000 C   0  0  0  0  0  0  0  0  0  0  0  0
    0.7500    1.2990    0.0000 C   0  0  0  0  0  0  0  0  0  0  0  0
   -0.7500    1.2990    0.0000 C   0  0  0  0  0  0  0  0  0  0  0  0
   -1.5000    0.0000    0.0000 C   0  0  0  0  0  0  0  0  0  0  0  0
   -0.7500   -1.2990    0.0000 C   0  0  0  0  0  0  0  0  0  0  0  0
    1.5000   -5.1962    0.0000 N   0  0  0  0  0  0  0  0  0  0  0  0
    0.7500   -6.4952    0.0000 C   0  0  0  0  0  0  0  0  0  0  0  0
    1.3601   -7.8655    0.0000 N   0  0  0  0  0  0  0  0  0  0  0  0
    0.2454   -8.8692    0.0000 C   0  0  0  0  0  0  0  0  0  0  0  0
   -1.0537   -8.1192    0.0000 C   0  0  0  0  0  0  0  0  0  0  0  0
   -2.4240   -8.7293    0.0000 C   0  0  0  0  0  0  0  0  0  0  0  0
   -3.8243   -8.1918    0.0000 C   0  0  0  0  0  0  0  0  0  0  0  0
   -4.3619   -9.5921    0.0000 C   0  0  0  0  0  0  0  0  0  0  0  0
   -2.9615  -10.1297    0.0000 C   0  0  0  0  0  0  0  0  0  0  0  0
   -0.7418   -6.6520    0.0000 S   0  0  0  0  0  0  0  0  0  0  0  0
  1  2  2  0
  2  3  1  0
  3  4  1  0
  4  5  2  0
  5  6  1  0
  6  7  2  0
  7  8  1  0
  8  9  2  0
  2 10  1  0
 10 11  1  0
 11 12  2  0
 12 13  1  0
 13 14  2  0
 14 15  1  0
 15 16  1  0
 16 17  1  0
 17 18  1  0
 14 19  1  0
  9  4  1  0
 19 11  1  0
 18 15  1  0
M  END
>  <Compound_ID>  (961) 
CHEMBL365855

>  <Active>  (961) 
1.0

>  <Smiles>  (961) 
O=C(Cc1ccccc1)Nc1ncc(C2CCC2)s1

>  <canonical_smi>  (961) 
O=C(Cc1ccccc1)Nc1ncc(C2CCC2)s1

>  <Set>  (961) 
G2 active

>  <Set_type>  (961) 
Test

>  <MW>  (961) 
272.37

>  <HBD>  (961) 
1

>  <HBA>  (961) 
2

>  <NRB>  (961) 
4

>  <NR>  (961) 
3

>  <NAR>  (961) 
2

>  <PSA>  (961) 
41.99

>  <Standard Type>  (961) 
nan

>  <Standard Relation>  (961) 
nan

>  <Standard Units>  (961) 
nan

>  <Standard Value>  (961) 
nan

>  <Assay ChEMBL ID>  (961) 
nan

>  <Assay Description>  (961) 
nan

>  <BAO Label>  (961) 
nan

$$$$

     RDKit          2D

 23 26  0  0  0  0  0  0  0  0999 V2000
    5.2500   -1.2990    0.0000 C   0  0  0  0  0  0  0  0  0  0  0  0
    3.7500   -1.2990    0.0000 C   0  0  0  0  0  0  0  0  0  0  0  0
    3.0000   -2.5981    0.0000 O   0  0  0  0  0  0  0  0  0  0  0  0
    3.0000    0.0000    0.0000 N   0  0  0  0  0  0  0  0  0  0  0  0
    1.5000    0.0000    0.0000 C   0  0  0  0  0  0  0  0  0  0  0  0
    0.7500   -1.2990    0.0000 C   0  0  0  0  0  0  0  0  0  0  0  0
   -0.7500   -1.2990    0.0000 C   0  0  0  0  0  0  0  0  0  0  0  0
   -1.5000    0.0000    0.0000 C   0  0  0  0  0  0  0  0  0  0  0  0
   -0.7500    1.2990    0.0000 C   0  0  0  0  0  0  0  0  0  0  0  0
    0.7500    1.2990    0.0000 C   0  0  0  0  0  0  0  0  0  0  0  0
    1.2135    2.7256    0.0000 C   0  0  0  0  0  0  0  0  0  0  0  0
    2.6401    3.1891    0.0000 O   0  0  0  0  0  0  0  0  0  0  0  0
    0.0000    3.6073    0.0000 C   0  0  0  0  0  0  0  0  0  0  0  0
   -0.4635    5.0339    0.0000 C   0  0  0  0  0  0  0  0  0  0  0  0
    0.4182    6.2474    0.0000 C   0  0  0  0  0  0  0  0  0  0  0  0
    1.9099    6.0906    0.0000 C   0  0  0  0  0  0  0  0  0  0  0  0
    2.7916    7.3041    0.0000 C   0  0  0  0  0  0  0  0  0  0  0  0
    2.1815    8.6745    0.0000 N   0  0  0  0  0  0  0  0  0  0  0  0
    0.6897    8.8313    0.0000 C   0  0  0  0  0  0  0  0  0  0  0  0
   -0.1920    7.6177    0.0000 C   0  0  0  0  0  0  0  0  0  0  0  0
   -1.9635    5.0339    0.0000 N   0  0  0  0  0  0  0  0  0  0  0  0
   -2.4271    3.6073    0.0000 N   0  0  0  0  0  0  0  0  0  0  0  0
   -1.2135    2.7256    0.0000 C   0  0  0  0  0  0  0  0  0  0  0  0
  1  2  1  0
  2  3  2  0
  2  4  1  0
  4  5  1  0
  5  6  2  0
  6  7  1  0
  7  8  2  0
  8  9  1  0
  9 10  2  0
 10 11  1  0
 11 12  2  0
 11 13  1  0
 13 14  1  0
 14 15  1  0
 15 16  2  0
 16 17  1  0
 17 18  2  0
 18 19  1  0
 19 20  2  0
 14 21  2  0
 21 22  1  0
 22 23  1  0
 10  5  1  0
 23 13  2  0
 23  9  1  0
 20 15  1  0
M  END
>  <Compound_ID>  (962) 
CHEMBL346831

>  <Active>  (962) 
1.0

>  <Smiles>  (962) 
CC(=O)Nc1cccc2c1C(=O)c1c(-c3ccncc3)n[nH]c1-2

>  <canonical_smi>  (962) 
CC(=O)Nc1cccc2c1C(=O)c1c(-c3ccncc3)n[nH]c1-2

>  <Set>  (962) 
G2 active

>  <Set_type>  (962) 
Test

>  <MW>  (962) 
304.31

>  <HBD>  (962) 
2

>  <HBA>  (962) 
4

>  <NRB>  (962) 
2

>  <NR>  (962) 
4

>  <NAR>  (962) 
4

>  <PSA>  (962) 
87.74

>  <Standard Type>  (962) 
nan

>  <Standard Relation>  (962) 
nan

>  <Standard Units>  (962) 
nan

>  <Standard Value>  (962) 
nan

>  <Assay ChEMBL ID>  (962) 
nan

>  <Assay Description>  (962) 
nan

>  <BAO Label>  (962) 
nan

$$$$

     RDKit          2D

 26 29  0  0  0  0  0  0  0  0999 V2000
   -0.5773   -4.2803    0.0000 C   0  0  0  0  0  0  0  0  0  0  0  0
    0.8899   -3.9684    0.0000 C   0  0  0  0  0  0  0  0  0  0  0  0
    2.0046   -4.9721    0.0000 C   0  0  0  0  0  0  0  0  0  0  0  0
    3.3037   -4.2221    0.0000 C   0  0  0  0  0  0  0  0  0  0  0  0
    2.9918   -2.7549    0.0000 C   0  0  0  0  0  0  0  0  0  0  0  0
    3.9955   -1.6402    0.0000 O   0  0  0  0  0  0  0  0  0  0  0  0
    1.5000   -2.5981    0.0000 N   0  0  0  0  0  0  0  0  0  0  0  0
    0.7500   -1.2990    0.0000 C   0  0  0  0  0  0  0  0  0  0  0  0
    1.5000    0.0000    0.0000 C   0  0  0  0  0  0  0  0  0  0  0  0
    0.7500    1.2990    0.0000 C   0  0  0  0  0  0  0  0  0  0  0  0
   -0.7500    1.2990    0.0000 C   0  0  0  0  0  0  0  0  0  0  0  0
   -1.5000    2.5981    0.0000 C   0  0  0  0  0  0  0  0  0  0  0  0
   -0.7500    3.8971    0.0000 C   0  0  0  0  0  0  0  0  0  0  0  0
   -3.0000    2.5981    0.0000 C   0  0  0  0  0  0  0  0  0  0  0  0
   -3.7500    1.2990    0.0000 O   0  0  0  0  0  0  0  0  0  0  0  0
   -3.7500    3.8971    0.0000 N   0  0  0  0  0  0  0  0  0  0  0  0
   -5.2500    3.8971    0.0000 C   0  0  0  0  0  0  0  0  0  0  0  0
   -6.1317    2.6836    0.0000 C   0  0  0  0  0  0  0  0  0  0  0  0
   -7.5583    3.1471    0.0000 C   0  0  0  0  0  0  0  0  0  0  0  0
   -8.7718    2.2654    0.0000 C   0  0  0  0  0  0  0  0  0  0  0  0
   -9.3819    0.8951    0.0000 C   0  0  0  0  0  0  0  0  0  0  0  0
  -10.2636    2.1086    0.0000 C   0  0  0  0  0  0  0  0  0  0  0  0
   -7.5583    4.6471    0.0000 N   0  0  0  0  0  0  0  0  0  0  0  0
   -6.1317    5.1106    0.0000 N   0  0  0  0  0  0  0  0  0  0  0  0
   -1.5000    0.0000    0.0000 C   0  0  0  0  0  0  0  0  0  0  0  0
   -0.7500   -1.2990    0.0000 C   0  0  0  0  0  0  0  0  0  0  0  0
  1  2  2  0
  2  3  1  0
  3  4  1  0
  4  5  1  0
  5  6  2  0
  5  7  1  0
  7  8  1  0
  8  9  2  0
  9 10  1  0
 10 11  2  0
 11 12  1  0
 12 13  1  0
 12 14  1  0
 14 15  2  0
 14 16  1  0
 16 17  1  0
 17 18  1  0
 18 19  2  0
 19 20  1  0
 20 21  1  0
 21 22  1  0
 19 23  1  0
 23 24  1  0
 11 25  1  0
 25 26  2  0
  7  2  1  0
 26  8  1  0
 24 17  2  0
 22 20  1  0
M  END
>  <Compound_ID>  (963) 
CHEMBL373346

>  <Active>  (963) 
1.0

>  <Smiles>  (963) 
C=C1CCC(=O)N1c1ccc(C(C)C(=O)Nc2cc(C3CC3)[nH]n2)cc1

>  <canonical_smi>  (963) 
C=C1CCC(=O)N1c1ccc(C(C)C(=O)Nc2cc(C3CC3)[nH]n2)cc1

>  <Set>  (963) 
G2 active

>  <Set_type>  (963) 
Test

>  <MW>  (963) 
350.42

>  <HBD>  (963) 
2

>  <HBA>  (963) 
3

>  <NRB>  (963) 
5

>  <NR>  (963) 
4

>  <NAR>  (963) 
2

>  <PSA>  (963) 
78.09

>  <Standard Type>  (963) 
nan

>  <Standard Relation>  (963) 
nan

>  <Standard Units>  (963) 
nan

>  <Standard Value>  (963) 
nan

>  <Assay ChEMBL ID>  (963) 
nan

>  <Assay Description>  (963) 
nan

>  <BAO Label>  (963) 
nan

$$$$

     RDKit          2D

 27 31  0  0  0  0  0  0  0  0999 V2000
    4.0819   -1.9062    0.0000 C   0  0  0  0  0  0  0  0  0  0  0  0
    2.9672   -2.9099    0.0000 N   0  0  0  0  0  0  0  0  0  0  0  0
    3.1240   -4.4017    0.0000 N   0  0  0  0  0  0  0  0  0  0  0  0
    1.7537   -5.0118    0.0000 C   0  0  0  0  0  0  0  0  0  0  0  0
    1.4418   -6.4791    0.0000 C   0  0  0  0  0  0  0  0  0  0  0  0
    0.0152   -6.9426    0.0000 O   0  0  0  0  0  0  0  0  0  0  0  0
    2.5565   -7.4827    0.0000 N   0  0  0  0  0  0  0  0  0  0  0  0
    2.2447   -8.9500    0.0000 C   0  0  0  0  0  0  0  0  0  0  0  0
    2.7082  -10.3766    0.0000 C   0  0  0  0  0  0  0  0  0  0  0  0
    1.2410  -10.0647    0.0000 C   0  0  0  0  0  0  0  0  0  0  0  0
    0.7500   -3.8971    0.0000 C   0  0  0  0  0  0  0  0  0  0  0  0
    1.5000   -2.5981    0.0000 C   0  0  0  0  0  0  0  0  0  0  0  0
    0.7500   -1.2990    0.0000 C   0  0  0  0  0  0  0  0  0  0  0  0
    1.5000    0.0000    0.0000 N   0  0  0  0  0  0  0  0  0  0  0  0
    0.7500    1.2990    0.0000 C   0  0  0  0  0  0  0  0  0  0  0  0
    1.5000    2.5981    0.0000 N   0  0  0  0  0  0  0  0  0  0  0  0
    3.0000    2.5981    0.0000 C   0  0  0  0  0  0  0  0  0  0  0  0
    3.7500    1.2990    0.0000 C   0  0  0  0  0  0  0  0  0  0  0  0
    5.2500    1.2990    0.0000 C   0  0  0  0  0  0  0  0  0  0  0  0
    6.0000    2.5981    0.0000 C   0  0  0  0  0  0  0  0  0  0  0  0
    5.2500    3.8971    0.0000 C   0  0  0  0  0  0  0  0  0  0  0  0
    3.7500    3.8971    0.0000 C   0  0  0  0  0  0  0  0  0  0  0  0
   -0.7500    1.2990    0.0000 N   0  0  0  0  0  0  0  0  0  0  0  0
   -1.5000    0.0000    0.0000 C   0  0  0  0  0  0  0  0  0  0  0  0
   -0.7500   -1.2990    0.0000 C   0  0  0  0  0  0  0  0  0  0  0  0
   -1.5000   -2.5981    0.0000 C   0  0  0  0  0  0  0  0  0  0  0  0
   -0.7500   -3.8971    0.0000 C   0  0  0  0  0  0  0  0  0  0  0  0
  1  2  1  0
  2  3  1  0
  3  4  2  0
  4  5  1  0
  5  6  2  0
  5  7  1  0
  7  8  1  0
  8  9  1  0
  9 10  1  0
  4 11  1  0
 11 12  2  0
 12 13  1  0
 13 14  2  0
 14 15  1  0
 15 16  1  0
 16 17  1  0
 17 18  2  0
 18 19  1  0
 19 20  2  0
 20 21  1  0
 21 22  2  0
 15 23  2  0
 23 24  1  0
 24 25  2  0
 25 26  1  0
 26 27  1  0
 12  2  1  0
 25 13  1  0
 10  8  1  0
 27 11  1  0
 22 17  1  0
M  END
>  <Compound_ID>  (964) 
CHEMBL559639

>  <Active>  (964) 
1.0

>  <Smiles>  (964) 
Cn1nc(C(=O)NC2CC2)c2c1-c1nc(Nc3ccccc3)ncc1CC2

>  <canonical_smi>  (964) 
Cn1nc(C(=O)NC2CC2)c2c1-c1nc(Nc3ccccc3)ncc1CC2

>  <Set>  (964) 
G2 active

>  <Set_type>  (964) 
Test

>  <MW>  (964) 
360.42

>  <HBD>  (964) 
2

>  <HBA>  (964) 
5

>  <NRB>  (964) 
4

>  <NR>  (964) 
5

>  <NAR>  (964) 
3

>  <PSA>  (964) 
84.73

>  <Standard Type>  (964) 
nan

>  <Standard Relation>  (964) 
nan

>  <Standard Units>  (964) 
nan

>  <Standard Value>  (964) 
nan

>  <Assay ChEMBL ID>  (964) 
nan

>  <Assay Description>  (964) 
nan

>  <BAO Label>  (964) 
nan

$$$$

     RDKit          2D

 23 25  0  0  0  0  0  0  0  0999 V2000
    3.7500   -1.2990    0.0000 C   0  0  0  0  0  0  0  0  0  0  0  0
    3.0000    0.0000    0.0000 C   0  0  0  0  0  0  0  0  0  0  0  0
    1.5000    0.0000    0.0000 C   0  0  0  0  0  0  0  0  0  0  0  0
    0.7500   -1.2990    0.0000 N   0  0  0  0  0  0  0  0  0  0  0  0
   -0.7500   -1.2990    0.0000 C   0  0  0  0  0  0  0  0  0  0  0  0
   -1.5000   -2.5981    0.0000 O   0  0  0  0  0  0  0  0  0  0  0  0
   -1.5000    0.0000    0.0000 C   0  0  0  0  0  0  0  0  0  0  0  0
   -2.9672    0.3119    0.0000 C   0  0  0  0  0  0  0  0  0  0  0  0
   -4.0819   -0.6918    0.0000 C   0  0  0  0  0  0  0  0  0  0  0  0
   -5.5085   -0.2283    0.0000 C   0  0  0  0  0  0  0  0  0  0  0  0
   -3.1240    1.8037    0.0000 N   0  0  0  0  0  0  0  0  0  0  0  0
   -1.7537    2.4138    0.0000 N   0  0  0  0  0  0  0  0  0  0  0  0
   -1.4418    3.8810    0.0000 C   0  0  0  0  0  0  0  0  0  0  0  0
   -0.0152    4.3445    0.0000 C   0  0  0  0  0  0  0  0  0  0  0  0
    1.0995    3.3408    0.0000 Cl  0  0  0  0  0  0  0  0  0  0  0  0
    0.2966    5.8117    0.0000 C   0  0  0  0  0  0  0  0  0  0  0  0
   -0.8181    6.8154    0.0000 C   0  0  0  0  0  0  0  0  0  0  0  0
   -0.5062    8.2826    0.0000 Cl  0  0  0  0  0  0  0  0  0  0  0  0
   -2.2447    6.3519    0.0000 C   0  0  0  0  0  0  0  0  0  0  0  0
   -2.5565    4.8847    0.0000 C   0  0  0  0  0  0  0  0  0  0  0  0
   -3.9831    4.4211    0.0000 Cl  0  0  0  0  0  0  0  0  0  0  0  0
   -0.7500    1.2990    0.0000 C   0  0  0  0  0  0  0  0  0  0  0  0
    0.7500    1.2990    0.0000 N   0  0  0  0  0  0  0  0  0  0  0  0
  1  2  1  0
  2  3  1  0
  3  4  2  0
  4  5  1  0
  5  6  1  0
  5  7  2  0
  7  8  1  0
  8  9  1  0
  9 10  1  0
  8 11  2  0
 11 12  1  0
 12 13  1  0
 13 14  2  0
 14 15  1  0
 14 16  1  0
 16 17  2  0
 17 18  1  0
 17 19  1  0
 19 20  2  0
 20 21  1  0
 12 22  1  0
 22 23  2  0
 23  3  1  0
 22  7  1  0
 20 13  1  0
M  END
>  <Compound_ID>  (965) 
CHEMBL363172

>  <Active>  (965) 
1.0

>  <Smiles>  (965) 
CCc1nc(O)c2c(CC)nn(-c3c(Cl)cc(Cl)cc3Cl)c2n1

>  <canonical_smi>  (965) 
CCc1nc(O)c2c(CC)nn(-c3c(Cl)cc(Cl)cc3Cl)c2n1

>  <Set>  (965) 
G2 active

>  <Set_type>  (965) 
Test

>  <MW>  (965) 
371.66

>  <HBD>  (965) 
1

>  <HBA>  (965) 
4

>  <NRB>  (965) 
3

>  <NR>  (965) 
3

>  <NAR>  (965) 
3

>  <PSA>  (965) 
63.83

>  <Standard Type>  (965) 
nan

>  <Standard Relation>  (965) 
nan

>  <Standard Units>  (965) 
nan

>  <Standard Value>  (965) 
nan

>  <Assay ChEMBL ID>  (965) 
nan

>  <Assay Description>  (965) 
nan

>  <BAO Label>  (965) 
nan

$$$$

     RDKit          2D

 37 40  0  0  0  0  0  0  0  0999 V2000
    0.4022   -7.7629    0.0000 N   0  0  0  0  0  0  0  0  0  0  0  0
    0.2454   -6.2711    0.0000 C   0  0  0  0  0  0  0  0  0  0  0  0
    1.3601   -5.2674    0.0000 N   0  0  0  0  0  0  0  0  0  0  0  0
    0.7500   -3.8971    0.0000 C   0  0  0  0  0  0  0  0  0  0  0  0
    1.5000   -2.5981    0.0000 N   0  0  0  0  0  0  0  0  0  0  0  0
    0.7500   -1.2990    0.0000 C   0  0  0  0  0  0  0  0  0  0  0  0
    1.5000    0.0000    0.0000 C   0  0  0  0  0  0  0  0  0  0  0  0
    0.7500    1.2990    0.0000 C   0  0  0  0  0  0  0  0  0  0  0  0
   -0.7500    1.2990    0.0000 C   0  0  0  0  0  0  0  0  0  0  0  0
   -1.5000    2.5981    0.0000 S   0  0  0  0  0  0  0  0  0  0  0  0
   -0.2010    3.3481    0.0000 O   0  0  0  0  0  0  0  0  0  0  0  0
   -2.7990    1.8481    0.0000 O   0  0  0  0  0  0  0  0  0  0  0  0
   -2.2500    3.8971    0.0000 N   0  0  0  0  0  0  0  0  0  0  0  0
   -3.7500    3.8971    0.0000 C   0  0  0  0  0  0  0  0  0  0  0  0
   -4.5000    2.5981    0.0000 O   0  0  0  0  0  0  0  0  0  0  0  0
   -4.5000    5.1962    0.0000 C   0  0  0  0  0  0  0  0  0  0  0  0
   -6.0000    5.1962    0.0000 C   0  0  0  0  0  0  0  0  0  0  0  0
   -6.7500    6.4952    0.0000 N   0  0  0  0  0  0  0  0  0  0  0  0
   -6.0000    7.7942    0.0000 C   0  0  0  0  0  0  0  0  0  0  0  0
   -6.7500    9.0933    0.0000 C   0  0  0  0  0  0  0  0  0  0  0  0
   -8.2500    9.0933    0.0000 O   0  0  0  0  0  0  0  0  0  0  0  0
   -9.0000    7.7942    0.0000 C   0  0  0  0  0  0  0  0  0  0  0  0
   -8.2500    6.4952    0.0000 C   0  0  0  0  0  0  0  0  0  0  0  0
   -1.5000    0.0000    0.0000 C   0  0  0  0  0  0  0  0  0  0  0  0
   -0.7500   -1.2990    0.0000 C   0  0  0  0  0  0  0  0  0  0  0  0
   -0.7418   -4.0539    0.0000 N   0  0  0  0  0  0  0  0  0  0  0  0
   -1.0537   -5.5211    0.0000 N   0  0  0  0  0  0  0  0  0  0  0  0
   -2.4240   -6.1312    0.0000 C   0  0  0  0  0  0  0  0  0  0  0  0
   -2.5808   -7.6230    0.0000 O   0  0  0  0  0  0  0  0  0  0  0  0
   -3.6375   -5.2496    0.0000 C   0  0  0  0  0  0  0  0  0  0  0  0
   -3.4807   -3.7578    0.0000 C   0  0  0  0  0  0  0  0  0  0  0  0
   -2.1104   -3.1477    0.0000 F   0  0  0  0  0  0  0  0  0  0  0  0
   -4.6942   -2.8761    0.0000 C   0  0  0  0  0  0  0  0  0  0  0  0
   -6.0645   -3.4862    0.0000 C   0  0  0  0  0  0  0  0  0  0  0  0
   -6.2213   -4.9780    0.0000 C   0  0  0  0  0  0  0  0  0  0  0  0
   -5.0078   -5.8597    0.0000 C   0  0  0  0  0  0  0  0  0  0  0  0
   -5.1646   -7.3514    0.0000 F   0  0  0  0  0  0  0  0  0  0  0  0
  1  2  1  0
  2  3  2  0
  3  4  1  0
  4  5  1  0
  5  6  1  0
  6  7  2  0
  7  8  1  0
  8  9  2  0
  9 10  1  0
 10 11  2  0
 10 12  2  0
 10 13  1  0
 13 14  1  0
 14 15  2  0
 14 16  1  0
 16 17  1  0
 17 18  1  0
 18 19  1  0
 19 20  1  0
 20 21  1  0
 21 22  1  0
 22 23  1  0
  9 24  1  0
 24 25  2  0
  4 26  2  0
 26 27  1  0
 27 28  1  0
 28 29  2  0
 28 30  1  0
 30 31  2  0
 31 32  1  0
 31 33  1  0
 33 34  2  0
 34 35  1  0
 35 36  2  0
 36 37  1  0
 27  2  1  0
 36 30  1  0
 25  6  1  0
 23 18  1  0
M  END
>  <Compound_ID>  (966) 
CHEMBL378420

>  <Active>  (966) 
1.0

>  <Smiles>  (966) 
Nc1nc(Nc2ccc(S(=O)(=O)NC(=O)CCN3CCOCC3)cc2)nn1C(=O)c1c(F)cccc1F

>  <canonical_smi>  (966) 
Nc1nc(Nc2ccc(S(=O)(=O)NC(=O)CCN3CCOCC3)cc2)nn1C(=O)c1c(F)cccc1F

>  <Set>  (966) 
G2 active

>  <Set_type>  (966) 
Test

>  <MW>  (966) 
535.53

>  <HBD>  (966) 
3

>  <HBA>  (966) 
10

>  <NRB>  (966) 
8

>  <NR>  (966) 
4

>  <NAR>  (966) 
3

>  <PSA>  (966) 
161.54

>  <Standard Type>  (966) 
nan

>  <Standard Relation>  (966) 
nan

>  <Standard Units>  (966) 
nan

>  <Standard Value>  (966) 
nan

>  <Assay ChEMBL ID>  (966) 
nan

>  <Assay Description>  (966) 
nan

>  <BAO Label>  (966) 
nan

$$$$

     RDKit          2D

 30 33  0  0  0  0  0  0  0  0999 V2000
  -10.5738    5.8451    0.0000 C   0  0  0  0  0  0  0  0  0  0  0  0
   -9.1472    6.3086    0.0000 N   0  0  0  0  0  0  0  0  0  0  0  0
   -8.8353    7.7759    0.0000 C   0  0  0  0  0  0  0  0  0  0  0  0
   -8.0325    5.3050    0.0000 S   0  0  0  0  0  0  0  0  0  0  0  0
   -7.0288    6.4197    0.0000 O   0  0  0  0  0  0  0  0  0  0  0  0
   -9.0362    4.1902    0.0000 O   0  0  0  0  0  0  0  0  0  0  0  0
   -6.9177    4.3013    0.0000 C   0  0  0  0  0  0  0  0  0  0  0  0
   -5.4912    4.7648    0.0000 C   0  0  0  0  0  0  0  0  0  0  0  0
   -4.3764    3.7611    0.0000 C   0  0  0  0  0  0  0  0  0  0  0  0
   -4.6883    2.2939    0.0000 C   0  0  0  0  0  0  0  0  0  0  0  0
   -3.5736    1.2902    0.0000 N   0  0  0  0  0  0  0  0  0  0  0  0
   -2.1470    1.7537    0.0000 C   0  0  0  0  0  0  0  0  0  0  0  0
   -1.8351    3.2209    0.0000 C   0  0  0  0  0  0  0  0  0  0  0  0
   -0.4086    3.6844    0.0000 C   0  0  0  0  0  0  0  0  0  0  0  0
   -0.0967    5.1517    0.0000 N   0  0  0  0  0  0  0  0  0  0  0  0
    1.3299    5.6152    0.0000 C   0  0  0  0  0  0  0  0  0  0  0  0
    2.4446    4.6115    0.0000 C   0  0  0  0  0  0  0  0  0  0  0  0
    3.8712    5.0750    0.0000 C   0  0  0  0  0  0  0  0  0  0  0  0
    4.1831    6.5422    0.0000 C   0  0  0  0  0  0  0  0  0  0  0  0
    5.6097    7.0058    0.0000 N   0  0  0  0  0  0  0  0  0  0  0  0
    3.0684    7.5459    0.0000 C   0  0  0  0  0  0  0  0  0  0  0  0
    1.6418    7.0824    0.0000 C   0  0  0  0  0  0  0  0  0  0  0  0
    0.7062    2.6807    0.0000 N   0  0  0  0  0  0  0  0  0  0  0  0
    0.3943    1.2135    0.0000 C   0  0  0  0  0  0  0  0  0  0  0  0
    1.2760    0.0000    0.0000 N   0  0  0  0  0  0  0  0  0  0  0  0
    0.3943   -1.2135    0.0000 C   0  0  0  0  0  0  0  0  0  0  0  0
   -1.0323   -0.7500    0.0000 N   0  0  0  0  0  0  0  0  0  0  0  0
   -1.0323    0.7500    0.0000 N   0  0  0  0  0  0  0  0  0  0  0  0
   -6.1149    1.8303    0.0000 C   0  0  0  0  0  0  0  0  0  0  0  0
   -7.2296    2.8340    0.0000 C   0  0  0  0  0  0  0  0  0  0  0  0
  1  2  1  0
  2  3  1  0
  2  4  1  0
  4  5  2  0
  4  6  2  0
  4  7  1  0
  7  8  2  0
  8  9  1  0
  9 10  2  0
 10 11  1  0
 11 12  1  0
 12 13  2  0
 13 14  1  0
 14 15  1  0
 15 16  1  0
 16 17  1  0
 17 18  1  0
 18 19  1  0
 19 20  1  0
 19 21  1  0
 21 22  1  0
 14 23  2  0
 23 24  1  0
 24 25  2  0
 25 26  1  0
 26 27  2  0
 27 28  1  0
 10 29  1  0
 29 30  2  0
 30  7  1  0
 28 12  1  0
 22 16  1  0
 28 24  1  0
M  END
>  <Compound_ID>  (967) 
CHEMBL202695

>  <Active>  (967) 
1.0

>  <Smiles>  (967) 
CN(C)S(=O)(=O)c1ccc(Nc2cc(NC3CCC(N)CC3)nc3ncnn23)cc1

>  <canonical_smi>  (967) 
CN(C)S(=O)(=O)c1ccc(Nc2cc(NC3CCC(N)CC3)nc3ncnn23)cc1

>  <Set>  (967) 
G2 active

>  <Set_type>  (967) 
Test

>  <MW>  (967) 
430.54

>  <HBD>  (967) 
3

>  <HBA>  (967) 
8

>  <NRB>  (967) 
6

>  <NR>  (967) 
4

>  <NAR>  (967) 
3

>  <PSA>  (967) 
130.54

>  <Standard Type>  (967) 
nan

>  <Standard Relation>  (967) 
nan

>  <Standard Units>  (967) 
nan

>  <Standard Value>  (967) 
nan

>  <Assay ChEMBL ID>  (967) 
nan

>  <Assay Description>  (967) 
nan

>  <BAO Label>  (967) 
nan

$$$$

     RDKit          2D

 36 40  0  0  0  0  0  0  0  0999 V2000
    6.0000   -7.7942    0.0000 C   0  0  0  0  0  0  0  0  0  0  0  0
    5.2500   -6.4952    0.0000 C   0  0  0  0  0  0  0  0  0  0  0  0
    3.7500   -6.4952    0.0000 C   0  0  0  0  0  0  0  0  0  0  0  0
    3.0000   -5.1962    0.0000 N   0  0  0  0  0  0  0  0  0  0  0  0
    3.7500   -3.8971    0.0000 C   0  0  0  0  0  0  0  0  0  0  0  0
    3.0000   -2.5981    0.0000 N   0  0  0  0  0  0  0  0  0  0  0  0
    1.5000   -2.5981    0.0000 C   0  0  0  0  0  0  0  0  0  0  0  0
    0.7500   -3.8971    0.0000 C   0  0  0  0  0  0  0  0  0  0  0  0
   -0.7500   -3.8971    0.0000 C   0  0  0  0  0  0  0  0  0  0  0  0
   -1.5000   -2.5981    0.0000 C   0  0  0  0  0  0  0  0  0  0  0  0
   -0.7500   -1.2990    0.0000 C   0  0  0  0  0  0  0  0  0  0  0  0
    0.7500   -1.2990    0.0000 C   0  0  0  0  0  0  0  0  0  0  0  0
    1.5000    0.0000    0.0000 O   0  0  0  0  0  0  0  0  0  0  0  0
    0.7500    1.2990    0.0000 C   0  0  0  0  0  0  0  0  0  0  0  0
   -0.7500    1.2990    0.0000 C   0  0  0  0  0  0  0  0  0  0  0  0
   -1.5000    0.0000    0.0000 O   0  0  0  0  0  0  0  0  0  0  0  0
    5.2500   -3.8971    0.0000 N   0  0  0  0  0  0  0  0  0  0  0  0
    6.0000   -5.1962    0.0000 C   0  0  0  0  0  0  0  0  0  0  0  0
    7.5000   -5.1962    0.0000 C   0  0  0  0  0  0  0  0  0  0  0  0
    8.3817   -3.9826    0.0000 C   0  0  0  0  0  0  0  0  0  0  0  0
    9.8083   -4.4462    0.0000 N   0  0  0  0  0  0  0  0  0  0  0  0
    9.8083   -5.9462    0.0000 C   0  0  0  0  0  0  0  0  0  0  0  0
   11.0218   -6.8278    0.0000 C   0  0  0  0  0  0  0  0  0  0  0  0
   12.3921   -6.2177    0.0000 O   0  0  0  0  0  0  0  0  0  0  0  0
   10.8650   -8.3196    0.0000 N   0  0  0  0  0  0  0  0  0  0  0  0
   12.0785   -9.2013    0.0000 C   0  0  0  0  0  0  0  0  0  0  0  0
   13.4488   -8.5912    0.0000 C   0  0  0  0  0  0  0  0  0  0  0  0
   14.6624   -9.4729    0.0000 O   0  0  0  0  0  0  0  0  0  0  0  0
   11.9217  -10.6931    0.0000 C   0  0  0  0  0  0  0  0  0  0  0  0
   10.5514  -11.3032    0.0000 C   0  0  0  0  0  0  0  0  0  0  0  0
   10.3946  -12.7950    0.0000 C   0  0  0  0  0  0  0  0  0  0  0  0
   11.6081  -13.6766    0.0000 C   0  0  0  0  0  0  0  0  0  0  0  0
   12.9785  -13.0665    0.0000 C   0  0  0  0  0  0  0  0  0  0  0  0
   14.1920  -13.9482    0.0000 Cl  0  0  0  0  0  0  0  0  0  0  0  0
   13.1353  -11.5748    0.0000 C   0  0  0  0  0  0  0  0  0  0  0  0
    8.3817   -6.4097    0.0000 C   0  0  0  0  0  0  0  0  0  0  0  0
  1  2  1  0
  2  3  2  0
  3  4  1  0
  4  5  2  0
  5  6  1  0
  6  7  1  0
  7  8  2  0
  8  9  1  0
  9 10  2  0
 10 11  1  0
 11 12  2  0
 12 13  1  0
 13 14  1  0
 14 15  1  0
 15 16  1  0
  5 17  1  0
 17 18  2  0
 18 19  1  0
 19 20  2  0
 20 21  1  0
 21 22  1  0
 22 23  1  0
 23 24  2  0
 23 25  1  0
 25 26  1  0
 26 27  1  6
 27 28  1  0
 26 29  1  0
 29 30  2  0
 30 31  1  0
 31 32  2  0
 32 33  1  0
 33 34  1  0
 33 35  2  0
 22 36  2  0
 18  2  1  0
 36 19  1  0
 12  7  1  0
 35 29  1  0
 16 11  1  0
M  END
>  <Compound_ID>  (968) 
CHEMBL571722

>  <Active>  (968) 
1.0

>  <Smiles>  (968) 
Cc1cnc(Nc2cccc3c2OCCO3)nc1-c1c[nH]c(C(=O)N[C@H](CO)c2cccc(Cl)c2)c1

>  <canonical_smi>  (968) 
Cc1cnc(Nc2cccc3c2OCCO3)nc1-c1c[nH]c(C(=O)N[C@H](CO)c2cccc(Cl)c2)c1

>  <Set>  (968) 
G2 active

>  <Set_type>  (968) 
Test

>  <MW>  (968) 
505.96

>  <HBD>  (968) 
4

>  <HBA>  (968) 
7

>  <NRB>  (968) 
7

>  <NR>  (968) 
5

>  <NAR>  (968) 
4

>  <PSA>  (968) 
121.39

>  <Standard Type>  (968) 
nan

>  <Standard Relation>  (968) 
nan

>  <Standard Units>  (968) 
nan

>  <Standard Value>  (968) 
nan

>  <Assay ChEMBL ID>  (968) 
nan

>  <Assay Description>  (968) 
nan

>  <BAO Label>  (968) 
nan

$$$$

     RDKit          2D

 23 26  0  0  0  0  0  0  0  0999 V2000
    5.2500   -1.2990    0.0000 N   0  0  0  0  0  0  0  0  0  0  0  0
    3.7500   -1.2990    0.0000 C   0  0  0  0  0  0  0  0  0  0  0  0
    3.0000   -2.5981    0.0000 O   0  0  0  0  0  0  0  0  0  0  0  0
    3.0000    0.0000    0.0000 N   0  0  0  0  0  0  0  0  0  0  0  0
    1.5000    0.0000    0.0000 C   0  0  0  0  0  0  0  0  0  0  0  0
    0.7500   -1.2990    0.0000 C   0  0  0  0  0  0  0  0  0  0  0  0
   -0.7500   -1.2990    0.0000 C   0  0  0  0  0  0  0  0  0  0  0  0
   -1.5000    0.0000    0.0000 C   0  0  0  0  0  0  0  0  0  0  0  0
   -0.7500    1.2990    0.0000 C   0  0  0  0  0  0  0  0  0  0  0  0
    0.7500    1.2990    0.0000 C   0  0  0  0  0  0  0  0  0  0  0  0
    1.2135    2.7256    0.0000 C   0  0  0  0  0  0  0  0  0  0  0  0
    2.6401    3.1891    0.0000 O   0  0  0  0  0  0  0  0  0  0  0  0
    0.0000    3.6073    0.0000 C   0  0  0  0  0  0  0  0  0  0  0  0
   -0.4635    5.0339    0.0000 C   0  0  0  0  0  0  0  0  0  0  0  0
    0.4182    6.2474    0.0000 C   0  0  0  0  0  0  0  0  0  0  0  0
    1.9099    6.0906    0.0000 C   0  0  0  0  0  0  0  0  0  0  0  0
    2.7916    7.3041    0.0000 C   0  0  0  0  0  0  0  0  0  0  0  0
    2.1815    8.6745    0.0000 C   0  0  0  0  0  0  0  0  0  0  0  0
    0.6897    8.8313    0.0000 C   0  0  0  0  0  0  0  0  0  0  0  0
   -0.1920    7.6177    0.0000 C   0  0  0  0  0  0  0  0  0  0  0  0
   -1.9635    5.0339    0.0000 N   0  0  0  0  0  0  0  0  0  0  0  0
   -2.4271    3.6073    0.0000 N   0  0  0  0  0  0  0  0  0  0  0  0
   -1.2135    2.7256    0.0000 C   0  0  0  0  0  0  0  0  0  0  0  0
  1  2  1  0
  2  3  2  0
  2  4  1  0
  4  5  1  0
  5  6  2  0
  6  7  1  0
  7  8  2  0
  8  9  1  0
  9 10  2  0
 10 11  1  0
 11 12  2  0
 11 13  1  0
 13 14  1  0
 14 15  1  0
 15 16  1  0
 16 17  1  0
 17 18  1  0
 18 19  1  0
 19 20  1  0
 14 21  2  0
 21 22  1  0
 22 23  1  0
 10  5  1  0
 23 13  2  0
 23  9  1  0
 20 15  1  0
M  END
>  <Compound_ID>  (969) 
CHEMBL147018

>  <Active>  (969) 
1.0

>  <Smiles>  (969) 
NC(=O)Nc1cccc2c1C(=O)c1c(C3CCCCC3)n[nH]c1-2

>  <canonical_smi>  (969) 
NC(=O)Nc1cccc2c1C(=O)c1c(C3CCCCC3)n[nH]c1-2

>  <Set>  (969) 
G2 active

>  <Set_type>  (969) 
Test

>  <MW>  (969) 
310.36

>  <HBD>  (969) 
3

>  <HBA>  (969) 
3

>  <NRB>  (969) 
2

>  <NR>  (969) 
4

>  <NAR>  (969) 
3

>  <PSA>  (969) 
100.87

>  <Standard Type>  (969) 
nan

>  <Standard Relation>  (969) 
nan

>  <Standard Units>  (969) 
nan

>  <Standard Value>  (969) 
nan

>  <Assay ChEMBL ID>  (969) 
nan

>  <Assay Description>  (969) 
nan

>  <BAO Label>  (969) 
nan

$$$$

     RDKit          2D

 20 22  0  0  0  0  0  0  0  0999 V2000
   -0.7500   -3.8971    0.0000 O   0  0  0  0  0  0  0  0  0  0  0  0
    0.7500   -3.8971    0.0000 C   0  0  0  0  0  0  0  0  0  0  0  0
    1.5000   -2.5981    0.0000 C   0  0  0  0  0  0  0  0  0  0  0  0
    0.7500   -1.2990    0.0000 C   0  0  0  0  0  0  0  0  0  0  0  0
    1.5000    0.0000    0.0000 C   0  0  0  0  0  0  0  0  0  0  0  0
    0.7500    1.2990    0.0000 C   0  0  0  0  0  0  0  0  0  0  0  0
   -0.7500    1.2990    0.0000 C   0  0  0  0  0  0  0  0  0  0  0  0
   -1.5000    0.0000    0.0000 C   0  0  0  0  0  0  0  0  0  0  0  0
   -0.7500   -1.2990    0.0000 C   0  0  0  0  0  0  0  0  0  0  0  0
    1.5000   -5.1962    0.0000 N   0  0  0  0  0  0  0  0  0  0  0  0
    0.7500   -6.4952    0.0000 C   0  0  0  0  0  0  0  0  0  0  0  0
    1.3601   -7.8655    0.0000 N   0  0  0  0  0  0  0  0  0  0  0  0
    0.2454   -8.8692    0.0000 C   0  0  0  0  0  0  0  0  0  0  0  0
   -1.0537   -8.1192    0.0000 C   0  0  0  0  0  0  0  0  0  0  0  0
   -2.4240   -8.7293    0.0000 C   0  0  0  0  0  0  0  0  0  0  0  0
   -2.7358  -10.1965    0.0000 C   0  0  0  0  0  0  0  0  0  0  0  0
   -4.2276  -10.3533    0.0000 C   0  0  0  0  0  0  0  0  0  0  0  0
   -4.8377   -8.9830    0.0000 C   0  0  0  0  0  0  0  0  0  0  0  0
   -3.7230   -7.9793    0.0000 C   0  0  0  0  0  0  0  0  0  0  0  0
   -0.7418   -6.6520    0.0000 S   0  0  0  0  0  0  0  0  0  0  0  0
  1  2  2  0
  2  3  1  0
  3  4  1  0
  4  5  2  0
  5  6  1  0
  6  7  2  0
  7  8  1  0
  8  9  2  0
  2 10  1  0
 10 11  1  0
 11 12  2  0
 12 13  1  0
 13 14  2  0
 14 15  1  0
 15 16  1  0
 16 17  1  0
 17 18  1  0
 18 19  1  0
 14 20  1  0
  9  4  1  0
 20 11  1  0
 19 15  1  0
M  END
>  <Compound_ID>  (970) 
CHEMBL186511

>  <Active>  (970) 
1.0

>  <Smiles>  (970) 
O=C(Cc1ccccc1)Nc1ncc(C2CCCC2)s1

>  <canonical_smi>  (970) 
O=C(Cc1ccccc1)Nc1ncc(C2CCCC2)s1

>  <Set>  (970) 
G2 active

>  <Set_type>  (970) 
Test

>  <MW>  (970) 
286.4

>  <HBD>  (970) 
1

>  <HBA>  (970) 
2

>  <NRB>  (970) 
4

>  <NR>  (970) 
3

>  <NAR>  (970) 
2

>  <PSA>  (970) 
41.99

>  <Standard Type>  (970) 
nan

>  <Standard Relation>  (970) 
nan

>  <Standard Units>  (970) 
nan

>  <Standard Value>  (970) 
nan

>  <Assay ChEMBL ID>  (970) 
nan

>  <Assay Description>  (970) 
nan

>  <BAO Label>  (970) 
nan

$$$$

     RDKit          2D

 33 37  0  0  0  0  0  0  0  0999 V2000
    3.4430   -7.9964    0.0000 O   0  0  0  0  0  0  0  0  0  0  0  0
    3.7548   -6.5291    0.0000 C   0  0  0  0  0  0  0  0  0  0  0  0
    2.6401   -5.5255    0.0000 N   0  0  0  0  0  0  0  0  0  0  0  0
    1.2135   -5.9890    0.0000 C   0  0  0  0  0  0  0  0  0  0  0  0
    0.7500   -7.4156    0.0000 C   0  0  0  0  0  0  0  0  0  0  0  0
   -0.7500   -7.4156    0.0000 N   0  0  0  0  0  0  0  0  0  0  0  0
   -1.2135   -5.9890    0.0000 N   0  0  0  0  0  0  0  0  0  0  0  0
   -0.0000   -5.1073    0.0000 C   0  0  0  0  0  0  0  0  0  0  0  0
   -0.0000   -3.6073    0.0000 C   0  0  0  0  0  0  0  0  0  0  0  0
    1.2135   -2.7256    0.0000 N   0  0  0  0  0  0  0  0  0  0  0  0
    0.7500   -1.2990    0.0000 C   0  0  0  0  0  0  0  0  0  0  0  0
    1.5000    0.0000    0.0000 C   0  0  0  0  0  0  0  0  0  0  0  0
    0.7500    1.2990    0.0000 C   0  0  0  0  0  0  0  0  0  0  0  0
    1.5000    2.5981    0.0000 C   0  0  0  0  0  0  0  0  0  0  0  0
    3.0000    2.5981    0.0000 N   0  0  0  0  0  0  0  0  0  0  0  0
    3.7500    1.2990    0.0000 C   0  0  0  0  0  0  0  0  0  0  0  0
    5.2500    1.2990    0.0000 C   0  0  0  0  0  0  0  0  0  0  0  0
    6.0000    2.5981    0.0000 O   0  0  0  0  0  0  0  0  0  0  0  0
    5.2500    3.8971    0.0000 C   0  0  0  0  0  0  0  0  0  0  0  0
    3.7500    3.8971    0.0000 C   0  0  0  0  0  0  0  0  0  0  0  0
   -0.7500    1.2990    0.0000 C   0  0  0  0  0  0  0  0  0  0  0  0
   -1.5000    0.0000    0.0000 C   0  0  0  0  0  0  0  0  0  0  0  0
   -0.7500   -1.2990    0.0000 C   0  0  0  0  0  0  0  0  0  0  0  0
   -1.2135   -2.7256    0.0000 N   0  0  0  0  0  0  0  0  0  0  0  0
    5.1814   -6.0656    0.0000 N   0  0  0  0  0  0  0  0  0  0  0  0
    6.2961   -7.0693    0.0000 C   0  0  0  0  0  0  0  0  0  0  0  0
    5.9843   -8.5365    0.0000 C   0  0  0  0  0  0  0  0  0  0  0  0
    4.5577   -9.0001    0.0000 F   0  0  0  0  0  0  0  0  0  0  0  0
    7.0990   -9.5402    0.0000 C   0  0  0  0  0  0  0  0  0  0  0  0
    8.5256   -9.0767    0.0000 C   0  0  0  0  0  0  0  0  0  0  0  0
    8.8374   -7.6095    0.0000 C   0  0  0  0  0  0  0  0  0  0  0  0
    7.7227   -6.6058    0.0000 C   0  0  0  0  0  0  0  0  0  0  0  0
    8.0346   -5.1386    0.0000 F   0  0  0  0  0  0  0  0  0  0  0  0
  1  2  2  0
  2  3  1  0
  3  4  1  0
  4  5  2  0
  5  6  1  0
  6  7  1  0
  7  8  2  0
  8  9  1  0
  9 10  2  0
 10 11  1  0
 11 12  2  0
 12 13  1  0
 13 14  1  0
 14 15  1  0
 15 16  1  0
 16 17  1  0
 17 18  1  0
 18 19  1  0
 19 20  1  0
 13 21  2  0
 21 22  1  0
 22 23  2  0
 23 24  1  0
  2 25  1  0
 25 26  1  0
 26 27  2  0
 27 28  1  0
 27 29  1  0
 29 30  2  0
 30 31  1  0
 31 32  2  0
 32 33  1  0
  8  4  1  0
 24  9  1  0
 32 26  1  0
 23 11  1  0
 20 15  1  0
M  END
>  <Compound_ID>  (971) 
CHEMBL458421

>  <Active>  (971) 
1.0

>  <Smiles>  (971) 
O=C(Nc1c[nH]nc1-c1nc2cc(CN3CCOCC3)ccc2[nH]1)Nc1c(F)cccc1F

>  <canonical_smi>  (971) 
O=C(Nc1c[nH]nc1-c1nc2cc(CN3CCOCC3)ccc2[nH]1)Nc1c(F)cccc1F

>  <Set>  (971) 
G2 active

>  <Set_type>  (971) 
Test

>  <MW>  (971) 
453.45

>  <HBD>  (971) 
4

>  <HBA>  (971) 
5

>  <NRB>  (971) 
5

>  <NR>  (971) 
5

>  <NAR>  (971) 
4

>  <PSA>  (971) 
110.96

>  <Standard Type>  (971) 
nan

>  <Standard Relation>  (971) 
nan

>  <Standard Units>  (971) 
nan

>  <Standard Value>  (971) 
nan

>  <Assay ChEMBL ID>  (971) 
nan

>  <Assay Description>  (971) 
nan

>  <BAO Label>  (971) 
nan

$$$$

     RDKit          2D

 24 26  0  0  0  0  0  0  0  0999 V2000
    7.4557  -13.2052    0.0000 C   0  0  0  0  0  0  0  0  0  0  0  0
    8.7547  -12.4552    0.0000 C   0  0  0  0  0  0  0  0  0  0  0  0
   10.0538  -11.7052    0.0000 C   0  0  0  0  0  0  0  0  0  0  0  0
    9.5047  -13.7542    0.0000 C   0  0  0  0  0  0  0  0  0  0  0  0
    8.0047  -11.1562    0.0000 C   0  0  0  0  0  0  0  0  0  0  0  0
    8.6148   -9.7859    0.0000 C   0  0  0  0  0  0  0  0  0  0  0  0
    7.5001   -8.7822    0.0000 N   0  0  0  0  0  0  0  0  0  0  0  0
    6.2011   -9.5322    0.0000 C   0  0  0  0  0  0  0  0  0  0  0  0
    4.8308   -8.9221    0.0000 C   0  0  0  0  0  0  0  0  0  0  0  0
    4.6740   -7.4303    0.0000 S   0  0  0  0  0  0  0  0  0  0  0  0
    3.3037   -6.8202    0.0000 C   0  0  0  0  0  0  0  0  0  0  0  0
    2.0046   -7.5702    0.0000 C   0  0  0  0  0  0  0  0  0  0  0  0
    0.8899   -6.5665    0.0000 N   0  0  0  0  0  0  0  0  0  0  0  0
    1.5000   -5.1962    0.0000 C   0  0  0  0  0  0  0  0  0  0  0  0
    0.7500   -3.8971    0.0000 N   0  0  0  0  0  0  0  0  0  0  0  0
    1.5000   -2.5981    0.0000 C   0  0  0  0  0  0  0  0  0  0  0  0
    0.7500   -1.2990    0.0000 C   0  0  0  0  0  0  0  0  0  0  0  0
    1.5000    0.0000    0.0000 C   0  0  0  0  0  0  0  0  0  0  0  0
    0.7500    1.2990    0.0000 C   0  0  0  0  0  0  0  0  0  0  0  0
   -0.7500    1.2990    0.0000 C   0  0  0  0  0  0  0  0  0  0  0  0
   -1.5000    0.0000    0.0000 C   0  0  0  0  0  0  0  0  0  0  0  0
   -0.7500   -1.2990    0.0000 C   0  0  0  0  0  0  0  0  0  0  0  0
    2.9918   -5.3529    0.0000 S   0  0  0  0  0  0  0  0  0  0  0  0
    6.5129  -10.9994    0.0000 O   0  0  0  0  0  0  0  0  0  0  0  0
  1  2  1  0
  2  3  1  0
  2  4  1  0
  2  5  1  0
  5  6  2  0
  6  7  1  0
  7  8  2  0
  8  9  1  0
  9 10  1  0
 10 11  1  0
 11 12  2  0
 12 13  1  0
 13 14  2  0
 14 15  1  0
 15 16  1  0
 16 17  1  0
 17 18  1  0
 18 19  1  0
 19 20  1  0
 20 21  1  0
 21 22  1  0
 14 23  1  0
  8 24  1  0
 24  5  1  0
 23 11  1  0
 22 17  1  0
M  END
>  <Compound_ID>  (972) 
CHEMBL495754

>  <Active>  (972) 
1.0

>  <Smiles>  (972) 
CC(C)(C)c1cnc(CSc2cnc(NCC3CCCCC3)s2)o1

>  <canonical_smi>  (972) 
CC(C)(C)c1cnc(CSc2cnc(NCC3CCCCC3)s2)o1

>  <Set>  (972) 
G2 active

>  <Set_type>  (972) 
Test

>  <MW>  (972) 
365.57

>  <HBD>  (972) 
1

>  <HBA>  (972) 
5

>  <NRB>  (972) 
6

>  <NR>  (972) 
3

>  <NAR>  (972) 
2

>  <PSA>  (972) 
50.95

>  <Standard Type>  (972) 
nan

>  <Standard Relation>  (972) 
nan

>  <Standard Units>  (972) 
nan

>  <Standard Value>  (972) 
nan

>  <Assay ChEMBL ID>  (972) 
nan

>  <Assay Description>  (972) 
nan

>  <BAO Label>  (972) 
nan

$$$$

     RDKit          2D

 34 38  0  0  0  0  0  0  0  0999 V2000
    7.5000  -10.3923    0.0000 C   0  0  0  0  0  0  0  0  0  0  0  0
    8.2500   -9.0933    0.0000 O   0  0  0  0  0  0  0  0  0  0  0  0
    7.5000   -7.7942    0.0000 C   0  0  0  0  0  0  0  0  0  0  0  0
    6.0000   -7.7942    0.0000 C   0  0  0  0  0  0  0  0  0  0  0  0
    5.2500   -6.4952    0.0000 C   0  0  0  0  0  0  0  0  0  0  0  0
    6.0000   -5.1962    0.0000 C   0  0  0  0  0  0  0  0  0  0  0  0
    5.2500   -3.8971    0.0000 C   0  0  0  0  0  0  0  0  0  0  0  0
    3.7500   -3.8971    0.0000 N   0  0  0  0  0  0  0  0  0  0  0  0
    3.0000   -2.5981    0.0000 C   0  0  0  0  0  0  0  0  0  0  0  0
    3.7500   -1.2990    0.0000 O   0  0  0  0  0  0  0  0  0  0  0  0
    1.5000   -2.5981    0.0000 N   0  0  0  0  0  0  0  0  0  0  0  0
    0.7500   -1.2990    0.0000 C   0  0  0  0  0  0  0  0  0  0  0  0
    1.5000    0.0000    0.0000 C   0  0  0  0  0  0  0  0  0  0  0  0
    0.7500    1.2990    0.0000 C   0  0  0  0  0  0  0  0  0  0  0  0
   -0.7500    1.2990    0.0000 C   0  0  0  0  0  0  0  0  0  0  0  0
   -1.5000    0.0000    0.0000 C   0  0  0  0  0  0  0  0  0  0  0  0
   -0.7500   -1.2990    0.0000 C   0  0  0  0  0  0  0  0  0  0  0  0
   -1.7537   -2.4138    0.0000 C   0  0  0  0  0  0  0  0  0  0  0  0
   -1.4418   -3.8810    0.0000 O   0  0  0  0  0  0  0  0  0  0  0  0
   -3.1240   -1.8037    0.0000 C   0  0  0  0  0  0  0  0  0  0  0  0
   -4.5912   -2.1155    0.0000 C   0  0  0  0  0  0  0  0  0  0  0  0
   -5.2013   -3.4858    0.0000 C   0  0  0  0  0  0  0  0  0  0  0  0
   -6.6931   -3.6426    0.0000 C   0  0  0  0  0  0  0  0  0  0  0  0
   -7.3032   -5.0129    0.0000 C   0  0  0  0  0  0  0  0  0  0  0  0
   -6.4216   -6.2265    0.0000 C   0  0  0  0  0  0  0  0  0  0  0  0
   -7.0317   -7.5968    0.0000 O   0  0  0  0  0  0  0  0  0  0  0  0
   -8.5234   -7.7536    0.0000 C   0  0  0  0  0  0  0  0  0  0  0  0
   -4.9298   -6.0697    0.0000 C   0  0  0  0  0  0  0  0  0  0  0  0
   -4.3197   -4.6994    0.0000 C   0  0  0  0  0  0  0  0  0  0  0  0
   -5.3412   -0.8165    0.0000 N   0  0  0  0  0  0  0  0  0  0  0  0
   -4.3375    0.2982    0.0000 N   0  0  0  0  0  0  0  0  0  0  0  0
   -2.9672   -0.3119    0.0000 C   0  0  0  0  0  0  0  0  0  0  0  0
    7.5000   -5.1962    0.0000 C   0  0  0  0  0  0  0  0  0  0  0  0
    8.2500   -6.4952    0.0000 C   0  0  0  0  0  0  0  0  0  0  0  0
  1  2  1  0
  2  3  1  0
  3  4  2  0
  4  5  1  0
  5  6  2  0
  6  7  1  0
  7  8  1  0
  8  9  1  0
  9 10  2  0
  9 11  1  0
 11 12  1  0
 12 13  2  0
 13 14  1  0
 14 15  2  0
 15 16  1  0
 16 17  2  0
 17 18  1  0
 18 19  2  0
 18 20  1  0
 20 21  1  0
 21 22  1  0
 22 23  2  0
 23 24  1  0
 24 25  2  0
 25 26  1  0
 26 27  1  0
 25 28  1  0
 28 29  2  0
 21 30  2  0
 30 31  1  0
 31 32  1  0
  6 33  1  0
 33 34  2  0
 34  3  1  0
 17 12  1  0
 32 20  2  0
 32 16  1  0
 29 22  1  0
M  END
>  <Compound_ID>  (973) 
CHEMBL358390

>  <Active>  (973) 
1.0

>  <Smiles>  (973) 
COc1ccc(CNC(=O)Nc2cccc3c2C(=O)c2c(-c4ccc(OC)cc4)n[nH]c2-3)cc1

>  <canonical_smi>  (973) 
COc1ccc(CNC(=O)Nc2cccc3c2C(=O)c2c(-c4ccc(OC)cc4)n[nH]c2-3)cc1

>  <Set>  (973) 
G2 active

>  <Set_type>  (973) 
Test

>  <MW>  (973) 
454.49

>  <HBD>  (973) 
3

>  <HBA>  (973) 
5

>  <NRB>  (973) 
6

>  <NR>  (973) 
5

>  <NAR>  (973) 
5

>  <PSA>  (973) 
105.34

>  <Standard Type>  (973) 
nan

>  <Standard Relation>  (973) 
nan

>  <Standard Units>  (973) 
nan

>  <Standard Value>  (973) 
nan

>  <Assay ChEMBL ID>  (973) 
nan

>  <Assay Description>  (973) 
nan

>  <BAO Label>  (973) 
nan

$$$$

     RDKit          2D

 21 23  0  0  0  0  0  0  0  0999 V2000
   -8.6562    2.3705    0.0000 C   0  0  0  0  0  0  0  0  0  0  0  0
   -7.2296    2.8340    0.0000 C   0  0  0  0  0  0  0  0  0  0  0  0
   -6.1149    1.8303    0.0000 C   0  0  0  0  0  0  0  0  0  0  0  0
   -4.6883    2.2939    0.0000 C   0  0  0  0  0  0  0  0  0  0  0  0
   -3.5736    1.2902    0.0000 O   0  0  0  0  0  0  0  0  0  0  0  0
   -2.1470    1.7537    0.0000 C   0  0  0  0  0  0  0  0  0  0  0  0
   -1.8351    3.2209    0.0000 C   0  0  0  0  0  0  0  0  0  0  0  0
   -2.9499    4.2246    0.0000 C   0  0  0  0  0  0  0  0  0  0  0  0
   -4.3764    3.7611    0.0000 O   0  0  0  0  0  0  0  0  0  0  0  0
   -2.6380    5.6918    0.0000 C   0  0  0  0  0  0  0  0  0  0  0  0
   -3.6417    6.8066    0.0000 C   0  0  0  0  0  0  0  0  0  0  0  0
   -2.8917    8.1056    0.0000 C   0  0  0  0  0  0  0  0  0  0  0  0
   -1.4245    7.7937    0.0000 C   0  0  0  0  0  0  0  0  0  0  0  0
   -1.2677    6.3019    0.0000 O   0  0  0  0  0  0  0  0  0  0  0  0
   -0.4086    3.6844    0.0000 C   0  0  0  0  0  0  0  0  0  0  0  0
    0.7062    2.6807    0.0000 N   0  0  0  0  0  0  0  0  0  0  0  0
    0.3943    1.2135    0.0000 C   0  0  0  0  0  0  0  0  0  0  0  0
    1.2760    0.0000    0.0000 N   0  0  0  0  0  0  0  0  0  0  0  0
    0.3943   -1.2135    0.0000 N   0  0  0  0  0  0  0  0  0  0  0  0
   -1.0323   -0.7500    0.0000 C   0  0  0  0  0  0  0  0  0  0  0  0
   -1.0323    0.7500    0.0000 C   0  0  0  0  0  0  0  0  0  0  0  0
  1  2  1  0
  2  3  1  0
  3  4  1  0
  4  5  1  0
  5  6  1  0
  6  7  1  0
  7  8  1  0
  8  9  2  0
  8 10  1  0
 10 11  2  0
 11 12  1  0
 12 13  2  0
 13 14  1  0
  7 15  2  0
 15 16  1  0
 16 17  1  0
 17 18  2  0
 18 19  1  0
 19 20  2  0
 20 21  1  0
 21  6  2  0
 14 10  1  0
 21 17  1  0
M  END
>  <Compound_ID>  (974) 
CHEMBL312657

>  <Active>  (974) 
1.0

>  <Smiles>  (974) 
CCCCOc1c(C(=O)c2ccco2)c[nH]c2nncc1-2

>  <canonical_smi>  (974) 
CCCCOc1c(C(=O)c2ccco2)c[nH]c2nncc1-2

>  <Set>  (974) 
G2 active

>  <Set_type>  (974) 
Test

>  <MW>  (974) 
285.3

>  <HBD>  (974) 
1

>  <HBA>  (974) 
5

>  <NRB>  (974) 
6

>  <NR>  (974) 
3

>  <NAR>  (974) 
3

>  <PSA>  (974) 
81.01

>  <Standard Type>  (974) 
nan

>  <Standard Relation>  (974) 
nan

>  <Standard Units>  (974) 
nan

>  <Standard Value>  (974) 
nan

>  <Assay ChEMBL ID>  (974) 
nan

>  <Assay Description>  (974) 
nan

>  <BAO Label>  (974) 
nan

$$$$

     RDKit          2D

 30 34  0  0  0  0  0  0  0  0999 V2000
   -0.7500   -6.4952    0.0000 C   0  0  0  0  0  0  0  0  0  0  0  0
   -1.5000   -5.1962    0.0000 O   0  0  0  0  0  0  0  0  0  0  0  0
   -0.7500   -3.8971    0.0000 C   0  0  0  0  0  0  0  0  0  0  0  0
    0.7500   -3.8971    0.0000 C   0  0  0  0  0  0  0  0  0  0  0  0
    1.5000   -2.5981    0.0000 C   0  0  0  0  0  0  0  0  0  0  0  0
    0.7500   -1.2990    0.0000 C   0  0  0  0  0  0  0  0  0  0  0  0
    1.5000    0.0000    0.0000 C   0  0  0  0  0  0  0  0  0  0  0  0
    0.7500    1.2990    0.0000 N   0  0  0  0  0  0  0  0  0  0  0  0
   -0.7500    1.2990    0.0000 C   0  0  0  0  0  0  0  0  0  0  0  0
   -1.5000    2.5981    0.0000 N   0  0  0  0  0  0  0  0  0  0  0  0
   -0.7500    3.8971    0.0000 C   0  0  0  0  0  0  0  0  0  0  0  0
    0.7500    3.8971    0.0000 C   0  0  0  0  0  0  0  0  0  0  0  0
    1.5000    5.1962    0.0000 C   0  0  0  0  0  0  0  0  0  0  0  0
    0.7500    6.4952    0.0000 C   0  0  0  0  0  0  0  0  0  0  0  0
    1.5000    7.7942    0.0000 N   0  0  0  0  0  0  0  0  0  0  0  0
    0.8899    9.1645    0.0000 C   0  0  0  0  0  0  0  0  0  0  0  0
    2.0046   10.1682    0.0000 C   0  0  0  0  0  0  0  0  0  0  0  0
    3.3037    9.4182    0.0000 C   0  0  0  0  0  0  0  0  0  0  0  0
    4.6740   10.0283    0.0000 N   0  0  0  0  0  0  0  0  0  0  0  0
    2.9918    7.9510    0.0000 C   0  0  0  0  0  0  0  0  0  0  0  0
   -0.7500    6.4952    0.0000 C   0  0  0  0  0  0  0  0  0  0  0  0
   -1.5000    5.1962    0.0000 C   0  0  0  0  0  0  0  0  0  0  0  0
   -1.5000    0.0000    0.0000 N   0  0  0  0  0  0  0  0  0  0  0  0
   -0.7500   -1.2990    0.0000 C   0  0  0  0  0  0  0  0  0  0  0  0
   -1.5000   -2.5981    0.0000 C   0  0  0  0  0  0  0  0  0  0  0  0
   -3.0000   -2.5981    0.0000 C   0  0  0  0  0  0  0  0  0  0  0  0
   -3.8817   -3.8116    0.0000 C   0  0  0  0  0  0  0  0  0  0  0  0
   -5.3083   -3.3481    0.0000 C   0  0  0  0  0  0  0  0  0  0  0  0
   -5.3083   -1.8481    0.0000 C   0  0  0  0  0  0  0  0  0  0  0  0
   -3.8817   -1.3846    0.0000 C   0  0  0  0  0  0  0  0  0  0  0  0
  1  2  1  0
  2  3  1  0
  3  4  2  0
  4  5  1  0
  5  6  2  0
  6  7  1  0
  7  8  2  0
  8  9  1  0
  9 10  1  0
 10 11  1  0
 11 12  2  0
 12 13  1  0
 13 14  2  0
 14 15  1  0
 15 16  1  0
 16 17  1  0
 17 18  1  0
 18 19  1  0
 18 20  1  0
 14 21  1  0
 21 22  2  0
  9 23  2  0
 23 24  1  0
 24 25  2  0
 25 26  1  0
 26 27  1  0
 27 28  1  0
 28 29  1  0
 29 30  1  0
 25  3  1  0
 30 26  1  0
 24  6  1  0
 22 11  1  0
 20 15  1  0
M  END
>  <Compound_ID>  (975) 
CHEMBL181416

>  <Active>  (975) 
1.0

>  <Smiles>  (975) 
COc1ccc2cnc(Nc3ccc(N4CCC(N)C4)cc3)nc2c1C1CCCC1

>  <canonical_smi>  (975) 
COc1ccc2cnc(Nc3ccc(N4CCC(N)C4)cc3)nc2c1C1CCCC1

>  <Set>  (975) 
G2 active

>  <Set_type>  (975) 
Test

>  <MW>  (975) 
403.53

>  <HBD>  (975) 
2

>  <HBA>  (975) 
6

>  <NRB>  (975) 
5

>  <NR>  (975) 
5

>  <NAR>  (975) 
3

>  <PSA>  (975) 
76.3

>  <Standard Type>  (975) 
nan

>  <Standard Relation>  (975) 
nan

>  <Standard Units>  (975) 
nan

>  <Standard Value>  (975) 
nan

>  <Assay ChEMBL ID>  (975) 
nan

>  <Assay Description>  (975) 
nan

>  <BAO Label>  (975) 
nan

$$$$

     RDKit          2D

 28 31  0  0  0  0  0  0  0  0999 V2000
   -2.9520   -4.6564    0.0000 C   0  0  0  0  0  0  0  0  0  0  0  0
   -2.6401   -3.1891    0.0000 C   0  0  0  0  0  0  0  0  0  0  0  0
   -1.2135   -2.7256    0.0000 C   0  0  0  0  0  0  0  0  0  0  0  0
   -0.0000   -3.6073    0.0000 N   0  0  0  0  0  0  0  0  0  0  0  0
    1.2135   -2.7256    0.0000 N   0  0  0  0  0  0  0  0  0  0  0  0
    2.6401   -3.1891    0.0000 C   0  0  0  0  0  0  0  0  0  0  0  0
    2.9520   -4.6564    0.0000 C   0  0  0  0  0  0  0  0  0  0  0  0
    1.8373   -5.6601    0.0000 Cl  0  0  0  0  0  0  0  0  0  0  0  0
    4.3786   -5.1199    0.0000 C   0  0  0  0  0  0  0  0  0  0  0  0
    5.4933   -4.1162    0.0000 C   0  0  0  0  0  0  0  0  0  0  0  0
    6.9199   -4.5797    0.0000 Cl  0  0  0  0  0  0  0  0  0  0  0  0
    5.1814   -2.6490    0.0000 C   0  0  0  0  0  0  0  0  0  0  0  0
    3.7548   -2.1855    0.0000 C   0  0  0  0  0  0  0  0  0  0  0  0
    3.4430   -0.7182    0.0000 Cl  0  0  0  0  0  0  0  0  0  0  0  0
    0.7500   -1.2990    0.0000 C   0  0  0  0  0  0  0  0  0  0  0  0
    1.5000    0.0000    0.0000 N   0  0  0  0  0  0  0  0  0  0  0  0
    0.7500    1.2990    0.0000 C   0  0  0  0  0  0  0  0  0  0  0  0
    1.5000    2.5981    0.0000 C   0  0  0  0  0  0  0  0  0  0  0  0
    3.0000    2.5981    0.0000 C   0  0  0  0  0  0  0  0  0  0  0  0
    3.7500    1.2990    0.0000 C   0  0  0  0  0  0  0  0  0  0  0  0
    5.2500    1.2990    0.0000 C   0  0  0  0  0  0  0  0  0  0  0  0
    6.0000    2.5981    0.0000 C   0  0  0  0  0  0  0  0  0  0  0  0
    5.2500    3.8971    0.0000 C   0  0  0  0  0  0  0  0  0  0  0  0
    3.7500    3.8971    0.0000 N   0  0  0  0  0  0  0  0  0  0  0  0
   -0.7500    1.2990    0.0000 N   0  0  0  0  0  0  0  0  0  0  0  0
   -1.5000    0.0000    0.0000 C   0  0  0  0  0  0  0  0  0  0  0  0
   -3.0000    0.0000    0.0000 O   0  0  0  0  0  0  0  0  0  0  0  0
   -0.7500   -1.2990    0.0000 C   0  0  0  0  0  0  0  0  0  0  0  0
  1  2  1  0
  2  3  1  0
  3  4  2  0
  4  5  1  0
  5  6  1  0
  6  7  2  0
  7  8  1  0
  7  9  1  0
  9 10  2  0
 10 11  1  0
 10 12  1  0
 12 13  2  0
 13 14  1  0
  5 15  1  0
 15 16  2  0
 16 17  1  0
 17 18  1  0
 18 19  1  0
 19 20  2  0
 20 21  1  0
 21 22  2  0
 22 23  1  0
 23 24  2  0
 17 25  2  0
 25 26  1  0
 26 27  1  0
 26 28  2  0
 28  3  1  0
 13  6  1  0
 28 15  1  0
 24 19  1  0
M  END
>  <Compound_ID>  (976) 
CHEMBL190091

>  <Active>  (976) 
1.0

>  <Smiles>  (976) 
CCc1nn(-c2c(Cl)cc(Cl)cc2Cl)c2nc(Cc3ccccn3)nc(O)c12

>  <canonical_smi>  (976) 
CCc1nn(-c2c(Cl)cc(Cl)cc2Cl)c2nc(Cc3ccccn3)nc(O)c12

>  <Set>  (976) 
G2 active

>  <Set_type>  (976) 
Test

>  <MW>  (976) 
434.71

>  <HBD>  (976) 
1

>  <HBA>  (976) 
5

>  <NRB>  (976) 
4

>  <NR>  (976) 
4

>  <NAR>  (976) 
4

>  <PSA>  (976) 
76.72

>  <Standard Type>  (976) 
nan

>  <Standard Relation>  (976) 
nan

>  <Standard Units>  (976) 
nan

>  <Standard Value>  (976) 
nan

>  <Assay ChEMBL ID>  (976) 
nan

>  <Assay Description>  (976) 
nan

>  <BAO Label>  (976) 
nan

$$$$

     RDKit          2D

 33 37  0  0  0  0  0  0  0  0999 V2000
   -2.2447   -8.9500    0.0000 C   0  0  0  0  0  0  0  0  0  0  0  0
   -2.5565   -7.4827    0.0000 N   0  0  0  0  0  0  0  0  0  0  0  0
   -1.4418   -6.4791    0.0000 C   0  0  0  0  0  0  0  0  0  0  0  0
   -0.0152   -6.9426    0.0000 O   0  0  0  0  0  0  0  0  0  0  0  0
   -1.7537   -5.0118    0.0000 C   0  0  0  0  0  0  0  0  0  0  0  0
   -3.1240   -4.4017    0.0000 N   0  0  0  0  0  0  0  0  0  0  0  0
   -2.9672   -2.9099    0.0000 N   0  0  0  0  0  0  0  0  0  0  0  0
   -4.0819   -1.9062    0.0000 C   0  0  0  0  0  0  0  0  0  0  0  0
   -1.5000   -2.5981    0.0000 C   0  0  0  0  0  0  0  0  0  0  0  0
   -0.7500   -3.8971    0.0000 C   0  0  0  0  0  0  0  0  0  0  0  0
    0.7500   -3.8971    0.0000 C   0  0  0  0  0  0  0  0  0  0  0  0
    2.1595   -4.4101    0.0000 C   0  0  0  0  0  0  0  0  0  0  0  0
    0.4895   -5.3743    0.0000 C   0  0  0  0  0  0  0  0  0  0  0  0
    1.5000   -2.5981    0.0000 C   0  0  0  0  0  0  0  0  0  0  0  0
    0.7500   -1.2990    0.0000 C   0  0  0  0  0  0  0  0  0  0  0  0
    1.5000    0.0000    0.0000 C   0  0  0  0  0  0  0  0  0  0  0  0
    0.7500    1.2990    0.0000 N   0  0  0  0  0  0  0  0  0  0  0  0
   -0.7500    1.2990    0.0000 C   0  0  0  0  0  0  0  0  0  0  0  0
   -1.5000    2.5981    0.0000 N   0  0  0  0  0  0  0  0  0  0  0  0
   -0.7500    3.8971    0.0000 C   0  0  0  0  0  0  0  0  0  0  0  0
    0.7500    3.8971    0.0000 C   0  0  0  0  0  0  0  0  0  0  0  0
    1.5000    5.1962    0.0000 C   0  0  0  0  0  0  0  0  0  0  0  0
    0.7500    6.4952    0.0000 C   0  0  0  0  0  0  0  0  0  0  0  0
   -0.7500    6.4952    0.0000 C   0  0  0  0  0  0  0  0  0  0  0  0
   -1.5000    7.7942    0.0000 N   0  0  0  0  0  0  0  0  0  0  0  0
   -0.7500    9.0933    0.0000 C   0  0  0  0  0  0  0  0  0  0  0  0
   -1.5000   10.3923    0.0000 C   0  0  0  0  0  0  0  0  0  0  0  0
   -3.0000   10.3923    0.0000 O   0  0  0  0  0  0  0  0  0  0  0  0
   -3.7500    9.0933    0.0000 C   0  0  0  0  0  0  0  0  0  0  0  0
   -3.0000    7.7942    0.0000 C   0  0  0  0  0  0  0  0  0  0  0  0
   -1.5000    5.1962    0.0000 C   0  0  0  0  0  0  0  0  0  0  0  0
   -1.5000    0.0000    0.0000 N   0  0  0  0  0  0  0  0  0  0  0  0
   -0.7500   -1.2990    0.0000 C   0  0  0  0  0  0  0  0  0  0  0  0
  1  2  1  0
  2  3  1  0
  3  4  2  0
  3  5  1  0
  5  6  2  0
  6  7  1  0
  7  8  1  0
  7  9  1  0
  9 10  2  0
 10 11  1  0
 11 12  1  0
 11 13  1  0
 11 14  1  0
 14 15  1  0
 15 16  2  0
 16 17  1  0
 17 18  2  0
 18 19  1  0
 19 20  1  0
 20 21  2  0
 21 22  1  0
 22 23  2  0
 23 24  1  0
 24 25  1  0
 25 26  1  0
 26 27  1  0
 27 28  1  0
 28 29  1  0
 29 30  1  0
 24 31  2  0
 18 32  1  0
 32 33  2  0
 10  5  1  0
 33 15  1  0
 33  9  1  0
 31 20  1  0
 30 25  1  0
M  END
>  <Compound_ID>  (977) 
CHEMBL560839

>  <Active>  (977) 
1.0

>  <Smiles>  (977) 
CNC(=O)c1nn(C)c2c1C(C)(C)Cc1cnc(Nc3cccc(N4CCOCC4)c3)nc1-2

>  <canonical_smi>  (977) 
CNC(=O)c1nn(C)c2c1C(C)(C)Cc1cnc(Nc3cccc(N4CCOCC4)c3)nc1-2

>  <Set>  (977) 
G2 active

>  <Set_type>  (977) 
Test

>  <MW>  (977) 
447.54

>  <HBD>  (977) 
2

>  <HBA>  (977) 
7

>  <NRB>  (977) 
4

>  <NR>  (977) 
5

>  <NAR>  (977) 
3

>  <PSA>  (977) 
97.2

>  <Standard Type>  (977) 
nan

>  <Standard Relation>  (977) 
nan

>  <Standard Units>  (977) 
nan

>  <Standard Value>  (977) 
nan

>  <Assay ChEMBL ID>  (977) 
nan

>  <Assay Description>  (977) 
nan

>  <BAO Label>  (977) 
nan

$$$$

     RDKit          2D

 33 36  0  0  0  0  0  0  0  0999 V2000
   -5.1962  -11.1073    0.0000 N   0  0  0  0  0  0  0  0  0  0  0  0
   -6.4952  -10.3573    0.0000 C   0  0  0  0  0  0  0  0  0  0  0  0
   -7.7942  -11.1073    0.0000 N   0  0  0  0  0  0  0  0  0  0  0  0
   -6.4952   -8.8573    0.0000 N   0  0  0  0  0  0  0  0  0  0  0  0
   -5.1962   -8.1073    0.0000 S   0  0  0  0  0  0  0  0  0  0  0  0
   -5.9462   -6.8083    0.0000 O   0  0  0  0  0  0  0  0  0  0  0  0
   -4.4462   -9.4063    0.0000 O   0  0  0  0  0  0  0  0  0  0  0  0
   -3.8971   -7.3573    0.0000 C   0  0  0  0  0  0  0  0  0  0  0  0
   -3.8971   -5.8573    0.0000 C   0  0  0  0  0  0  0  0  0  0  0  0
   -2.5981   -5.1073    0.0000 C   0  0  0  0  0  0  0  0  0  0  0  0
   -1.2990   -5.8573    0.0000 C   0  0  0  0  0  0  0  0  0  0  0  0
   -0.0000   -5.1073    0.0000 N   0  0  0  0  0  0  0  0  0  0  0  0
   -0.0000   -3.6073    0.0000 C   0  0  0  0  0  0  0  0  0  0  0  0
    1.2135   -2.7256    0.0000 C   0  0  0  0  0  0  0  0  0  0  0  0
    0.7500   -1.2990    0.0000 N   0  0  0  0  0  0  0  0  0  0  0  0
    1.5000    0.0000    0.0000 C   0  0  0  0  0  0  0  0  0  0  0  0
    0.7500    1.2990    0.0000 C   0  0  0  0  0  0  0  0  0  0  0  0
    1.5000    2.5981    0.0000 C   0  0  0  0  0  0  0  0  0  0  0  0
    0.7500    3.8971    0.0000 O   0  0  0  0  0  0  0  0  0  0  0  0
    3.0000    2.5981    0.0000 C   0  0  0  0  0  0  0  0  0  0  0  0
    3.7500    1.2990    0.0000 C   0  0  0  0  0  0  0  0  0  0  0  0
    3.0000   -0.0000    0.0000 Cl  0  0  0  0  0  0  0  0  0  0  0  0
    5.2500    1.2990    0.0000 C   0  0  0  0  0  0  0  0  0  0  0  0
    6.0000    2.5981    0.0000 C   0  0  0  0  0  0  0  0  0  0  0  0
    5.2500    3.8971    0.0000 C   0  0  0  0  0  0  0  0  0  0  0  0
    3.7500    3.8971    0.0000 C   0  0  0  0  0  0  0  0  0  0  0  0
    3.0000    5.1962    0.0000 Cl  0  0  0  0  0  0  0  0  0  0  0  0
   -0.7500    1.2990    0.0000 C   0  0  0  0  0  0  0  0  0  0  0  0
   -1.5000    0.0000    0.0000 C   0  0  0  0  0  0  0  0  0  0  0  0
   -0.7500   -1.2990    0.0000 C   0  0  0  0  0  0  0  0  0  0  0  0
   -1.2135   -2.7256    0.0000 N   0  0  0  0  0  0  0  0  0  0  0  0
   -1.2990   -7.3573    0.0000 C   0  0  0  0  0  0  0  0  0  0  0  0
   -2.5981   -8.1073    0.0000 C   0  0  0  0  0  0  0  0  0  0  0  0
  1  2  2  0
  2  3  1  0
  2  4  1  0
  4  5  1  0
  5  6  2  0
  5  7  2  0
  5  8  1  0
  8  9  2  0
  9 10  1  0
 10 11  2  0
 11 12  1  0
 12 13  1  0
 13 14  2  0
 14 15  1  0
 15 16  1  0
 16 17  2  0
 17 18  1  0
 18 19  2  0
 18 20  1  0
 20 21  2  0
 21 22  1  0
 21 23  1  0
 23 24  2  0
 24 25  1  0
 25 26  2  0
 26 27  1  0
 17 28  1  0
 28 29  2  0
 29 30  1  0
 30 31  2  0
 11 32  1  0
 32 33  2  0
 33  8  1  0
 31 13  1  0
 30 15  1  0
 26 20  1  0
M  END
>  <Compound_ID>  (978) 
CHEMBL181289

>  <Active>  (978) 
1.0

>  <Smiles>  (978) 
N=C(N)NS(=O)(=O)c1ccc(Nc2cn3cc(C(=O)c4c(Cl)cccc4Cl)ccc3n2)cc1

>  <canonical_smi>  (978) 
N=C(N)NS(=O)(=O)c1ccc(Nc2cn3cc(C(=O)c4c(Cl)cccc4Cl)ccc3n2)cc1

>  <Set>  (978) 
G2 active

>  <Set_type>  (978) 
Test

>  <MW>  (978) 
503.37

>  <HBD>  (978) 
4

>  <HBA>  (978) 
6

>  <NRB>  (978) 
6

>  <NR>  (978) 
4

>  <NAR>  (978) 
4

>  <PSA>  (978) 
142.44

>  <Standard Type>  (978) 
nan

>  <Standard Relation>  (978) 
nan

>  <Standard Units>  (978) 
nan

>  <Standard Value>  (978) 
nan

>  <Assay ChEMBL ID>  (978) 
nan

>  <Assay Description>  (978) 
nan

>  <BAO Label>  (978) 
nan

$$$$

     RDKit          2D

 36 40  0  0  0  0  0  0  0  0999 V2000
    6.0000   -7.7942    0.0000 C   0  0  0  0  0  0  0  0  0  0  0  0
    5.2500   -6.4952    0.0000 C   0  0  0  0  0  0  0  0  0  0  0  0
    3.7500   -6.4952    0.0000 C   0  0  0  0  0  0  0  0  0  0  0  0
    3.0000   -5.1962    0.0000 N   0  0  0  0  0  0  0  0  0  0  0  0
    3.7500   -3.8971    0.0000 C   0  0  0  0  0  0  0  0  0  0  0  0
    3.0000   -2.5981    0.0000 N   0  0  0  0  0  0  0  0  0  0  0  0
    1.5000   -2.5981    0.0000 C   0  0  0  0  0  0  0  0  0  0  0  0
    0.7500   -3.8971    0.0000 C   0  0  0  0  0  0  0  0  0  0  0  0
   -0.7500   -3.8971    0.0000 C   0  0  0  0  0  0  0  0  0  0  0  0
   -1.5000   -2.5981    0.0000 C   0  0  0  0  0  0  0  0  0  0  0  0
   -0.7500   -1.2990    0.0000 C   0  0  0  0  0  0  0  0  0  0  0  0
    0.7500   -1.2990    0.0000 C   0  0  0  0  0  0  0  0  0  0  0  0
    1.5000    0.0000    0.0000 C   0  0  0  0  0  0  0  0  0  0  0  0
    0.7500    1.2990    0.0000 C   0  0  0  0  0  0  0  0  0  0  0  0
   -0.7500    1.2990    0.0000 C   0  0  0  0  0  0  0  0  0  0  0  0
   -1.5000    0.0000    0.0000 C   0  0  0  0  0  0  0  0  0  0  0  0
    5.2500   -3.8971    0.0000 N   0  0  0  0  0  0  0  0  0  0  0  0
    6.0000   -5.1962    0.0000 C   0  0  0  0  0  0  0  0  0  0  0  0
    7.5000   -5.1962    0.0000 C   0  0  0  0  0  0  0  0  0  0  0  0
    8.3817   -3.9826    0.0000 C   0  0  0  0  0  0  0  0  0  0  0  0
    9.8083   -4.4462    0.0000 N   0  0  0  0  0  0  0  0  0  0  0  0
    9.8083   -5.9462    0.0000 C   0  0  0  0  0  0  0  0  0  0  0  0
   11.0218   -6.8278    0.0000 C   0  0  0  0  0  0  0  0  0  0  0  0
   12.3921   -6.2177    0.0000 O   0  0  0  0  0  0  0  0  0  0  0  0
   10.8650   -8.3196    0.0000 N   0  0  0  0  0  0  0  0  0  0  0  0
   12.0785   -9.2013    0.0000 C   0  0  0  0  0  0  0  0  0  0  0  0
   13.4488   -8.5912    0.0000 C   0  0  0  0  0  0  0  0  0  0  0  0
   14.6624   -9.4729    0.0000 O   0  0  0  0  0  0  0  0  0  0  0  0
   11.9217  -10.6931    0.0000 C   0  0  0  0  0  0  0  0  0  0  0  0
   10.5514  -11.3032    0.0000 C   0  0  0  0  0  0  0  0  0  0  0  0
   10.3946  -12.7950    0.0000 C   0  0  0  0  0  0  0  0  0  0  0  0
   11.6081  -13.6766    0.0000 C   0  0  0  0  0  0  0  0  0  0  0  0
   12.9785  -13.0665    0.0000 C   0  0  0  0  0  0  0  0  0  0  0  0
   14.1920  -13.9482    0.0000 Cl  0  0  0  0  0  0  0  0  0  0  0  0
   13.1353  -11.5748    0.0000 C   0  0  0  0  0  0  0  0  0  0  0  0
    8.3817   -6.4097    0.0000 C   0  0  0  0  0  0  0  0  0  0  0  0
  1  2  1  0
  2  3  2  0
  3  4  1  0
  4  5  2  0
  5  6  1  0
  6  7  1  0
  7  8  2  0
  8  9  1  0
  9 10  2  0
 10 11  1  0
 11 12  2  0
 12 13  1  0
 13 14  1  0
 14 15  1  0
 15 16  1  0
  5 17  1  0
 17 18  2  0
 18 19  1  0
 19 20  2  0
 20 21  1  0
 21 22  1  0
 22 23  1  0
 23 24  2  0
 23 25  1  0
 25 26  1  0
 26 27  1  6
 27 28  1  0
 26 29  1  0
 29 30  2  0
 30 31  1  0
 31 32  2  0
 32 33  1  0
 33 34  1  0
 33 35  2  0
 22 36  2  0
 18  2  1  0
 36 19  1  0
 12  7  1  0
 35 29  1  0
 16 11  1  0
M  END
>  <Compound_ID>  (979) 
CHEMBL570111

>  <Active>  (979) 
1.0

>  <Smiles>  (979) 
Cc1cnc(Nc2cccc3c2CCCC3)nc1-c1c[nH]c(C(=O)N[C@H](CO)c2cccc(Cl)c2)c1

>  <canonical_smi>  (979) 
Cc1cnc(Nc2cccc3c2CCCC3)nc1-c1c[nH]c(C(=O)N[C@H](CO)c2cccc(Cl)c2)c1

>  <Set>  (979) 
G2 active

>  <Set_type>  (979) 
Test

>  <MW>  (979) 
502.02

>  <HBD>  (979) 
4

>  <HBA>  (979) 
5

>  <NRB>  (979) 
7

>  <NR>  (979) 
5

>  <NAR>  (979) 
4

>  <PSA>  (979) 
102.93

>  <Standard Type>  (979) 
nan

>  <Standard Relation>  (979) 
nan

>  <Standard Units>  (979) 
nan

>  <Standard Value>  (979) 
nan

>  <Assay ChEMBL ID>  (979) 
nan

>  <Assay Description>  (979) 
nan

>  <BAO Label>  (979) 
nan

$$$$

     RDKit          2D

 28 31  0  0  0  0  0  0  0  0999 V2000
   -0.7500   -6.4952    0.0000 C   0  0  0  0  0  0  0  0  0  0  0  0
   -1.5000   -5.1962    0.0000 O   0  0  0  0  0  0  0  0  0  0  0  0
   -0.7500   -3.8971    0.0000 C   0  0  0  0  0  0  0  0  0  0  0  0
    0.7500   -3.8971    0.0000 C   0  0  0  0  0  0  0  0  0  0  0  0
    1.5000   -2.5981    0.0000 C   0  0  0  0  0  0  0  0  0  0  0  0
    0.7500   -1.2990    0.0000 C   0  0  0  0  0  0  0  0  0  0  0  0
    1.5000    0.0000    0.0000 C   0  0  0  0  0  0  0  0  0  0  0  0
    0.7500    1.2990    0.0000 N   0  0  0  0  0  0  0  0  0  0  0  0
   -0.7500    1.2990    0.0000 C   0  0  0  0  0  0  0  0  0  0  0  0
   -1.5000    2.5981    0.0000 N   0  0  0  0  0  0  0  0  0  0  0  0
   -0.7500    3.8971    0.0000 C   0  0  0  0  0  0  0  0  0  0  0  0
    0.7500    3.8971    0.0000 C   0  0  0  0  0  0  0  0  0  0  0  0
    1.5000    5.1962    0.0000 C   0  0  0  0  0  0  0  0  0  0  0  0
    0.7500    6.4952    0.0000 C   0  0  0  0  0  0  0  0  0  0  0  0
    1.5000    7.7942    0.0000 N   0  0  0  0  0  0  0  0  0  0  0  0
    0.8899    9.1645    0.0000 C   0  0  0  0  0  0  0  0  0  0  0  0
    2.0046   10.1682    0.0000 C   0  0  0  0  0  0  0  0  0  0  0  0
    3.3037    9.4182    0.0000 C   0  0  0  0  0  0  0  0  0  0  0  0
    4.6740   10.0283    0.0000 N   0  0  0  0  0  0  0  0  0  0  0  0
    2.9918    7.9510    0.0000 C   0  0  0  0  0  0  0  0  0  0  0  0
   -0.7500    6.4952    0.0000 C   0  0  0  0  0  0  0  0  0  0  0  0
   -1.5000    5.1962    0.0000 C   0  0  0  0  0  0  0  0  0  0  0  0
   -1.5000    0.0000    0.0000 N   0  0  0  0  0  0  0  0  0  0  0  0
   -0.7500   -1.2990    0.0000 C   0  0  0  0  0  0  0  0  0  0  0  0
   -1.5000   -2.5981    0.0000 C   0  0  0  0  0  0  0  0  0  0  0  0
   -3.0000   -2.5981    0.0000 C   0  0  0  0  0  0  0  0  0  0  0  0
   -3.7500   -3.8971    0.0000 C   0  0  0  0  0  0  0  0  0  0  0  0
   -3.7500   -1.2990    0.0000 C   0  0  0  0  0  0  0  0  0  0  0  0
  1  2  1  0
  2  3  1  0
  3  4  2  0
  4  5  1  0
  5  6  2  0
  6  7  1  0
  7  8  2  0
  8  9  1  0
  9 10  1  0
 10 11  1  0
 11 12  2  0
 12 13  1  0
 13 14  2  0
 14 15  1  0
 15 16  1  0
 16 17  1  0
 17 18  1  0
 18 19  1  0
 18 20  1  0
 14 21  1  0
 21 22  2  0
  9 23  2  0
 23 24  1  0
 24 25  2  0
 25 26  1  0
 26 27  1  0
 26 28  1  0
 25  3  1  0
 24  6  1  0
 22 11  1  0
 20 15  1  0
M  END
>  <Compound_ID>  (980) 
CHEMBL183511

>  <Active>  (980) 
1.0

>  <Smiles>  (980) 
COc1ccc2cnc(Nc3ccc(N4CCC(N)C4)cc3)nc2c1C(C)C

>  <canonical_smi>  (980) 
COc1ccc2cnc(Nc3ccc(N4CCC(N)C4)cc3)nc2c1C(C)C

>  <Set>  (980) 
G2 active

>  <Set_type>  (980) 
Test

>  <MW>  (980) 
377.49

>  <HBD>  (980) 
2

>  <HBA>  (980) 
6

>  <NRB>  (980) 
5

>  <NR>  (980) 
4

>  <NAR>  (980) 
3

>  <PSA>  (980) 
76.3

>  <Standard Type>  (980) 
nan

>  <Standard Relation>  (980) 
nan

>  <Standard Units>  (980) 
nan

>  <Standard Value>  (980) 
nan

>  <Assay ChEMBL ID>  (980) 
nan

>  <Assay Description>  (980) 
nan

>  <BAO Label>  (980) 
nan

$$$$

     RDKit          2D

 30 34  0  0  0  0  0  0  0  0999 V2000
   -1.7455   -5.5373    0.0000 C   0  0  0  0  0  0  0  0  0  0  0  0
   -0.7418   -6.6520    0.0000 C   0  0  0  0  0  0  0  0  0  0  0  0
   -1.0537   -8.1192    0.0000 O   0  0  0  0  0  0  0  0  0  0  0  0
    0.2454   -8.8692    0.0000 N   0  0  0  0  0  0  0  0  0  0  0  0
    1.3601   -7.8655    0.0000 C   0  0  0  0  0  0  0  0  0  0  0  0
    0.7500   -6.4952    0.0000 C   0  0  0  0  0  0  0  0  0  0  0  0
    1.5000   -5.1962    0.0000 C   0  0  0  0  0  0  0  0  0  0  0  0
    0.7500   -3.8971    0.0000 N   0  0  0  0  0  0  0  0  0  0  0  0
    1.5000   -2.5981    0.0000 C   0  0  0  0  0  0  0  0  0  0  0  0
    3.0000   -2.5981    0.0000 O   0  0  0  0  0  0  0  0  0  0  0  0
    0.7500   -1.2990    0.0000 C   0  0  0  0  0  0  0  0  0  0  0  0
    1.5000    0.0000    0.0000 C   0  0  0  0  0  0  0  0  0  0  0  0
    0.7500    1.2990    0.0000 C   0  0  0  0  0  0  0  0  0  0  0  0
   -0.7500    1.2990    0.0000 C   0  0  0  0  0  0  0  0  0  0  0  0
   -1.7537    2.4138    0.0000 C   0  0  0  0  0  0  0  0  0  0  0  0
   -3.1240    1.8037    0.0000 C   0  0  0  0  0  0  0  0  0  0  0  0
   -4.4231    2.5537    0.0000 C   0  0  0  0  0  0  0  0  0  0  0  0
   -5.7934    1.9435    0.0000 N   0  0  0  0  0  0  0  0  0  0  0  0
   -6.7971    3.0583    0.0000 N   0  0  0  0  0  0  0  0  0  0  0  0
   -6.0471    4.3573    0.0000 C   0  0  0  0  0  0  0  0  0  0  0  0
   -4.5798    4.0454    0.0000 C   0  0  0  0  0  0  0  0  0  0  0  0
   -3.4651    5.0491    0.0000 C   0  0  0  0  0  0  0  0  0  0  0  0
   -2.0385    4.5856    0.0000 C   0  0  0  0  0  0  0  0  0  0  0  0
   -0.9238    5.5893    0.0000 C   0  0  0  0  0  0  0  0  0  0  0  0
   -1.2357    7.0565    0.0000 C   0  0  0  0  0  0  0  0  0  0  0  0
   -2.6623    7.5200    0.0000 C   0  0  0  0  0  0  0  0  0  0  0  0
   -3.7770    6.5164    0.0000 C   0  0  0  0  0  0  0  0  0  0  0  0
   -2.9672    0.3119    0.0000 N   0  0  0  0  0  0  0  0  0  0  0  0
   -1.5000    0.0000    0.0000 C   0  0  0  0  0  0  0  0  0  0  0  0
   -0.7500   -1.2990    0.0000 C   0  0  0  0  0  0  0  0  0  0  0  0
  1  2  1  0
  2  3  1  0
  3  4  1  0
  4  5  2  0
  5  6  1  0
  6  7  1  0
  7  8  1  0
  8  9  1  0
  9 10  2  0
  9 11  1  0
 11 12  2  0
 12 13  1  0
 13 14  2  0
 14 15  1  0
 15 16  2  0
 16 17  1  0
 17 18  2  0
 18 19  1  0
 19 20  1  0
 20 21  2  0
 21 22  1  0
 22 23  2  0
 23 24  1  0
 24 25  2  0
 25 26  1  0
 26 27  2  0
 16 28  1  0
 28 29  1  0
 29 30  2  0
  6  2  2  0
 30 11  1  0
 29 14  1  0
 21 17  1  0
 27 22  1  0
M  END
>  <Compound_ID>  (981) 
CHEMBL1164264

>  <Active>  (981) 
1.0

>  <Smiles>  (981) 
Cc1oncc1CNC(=O)c1ccc2cc(-c3n[nH]cc3-c3ccccc3)[nH]c2c1

>  <canonical_smi>  (981) 
Cc1oncc1CNC(=O)c1ccc2cc(-c3n[nH]cc3-c3ccccc3)[nH]c2c1

>  <Set>  (981) 
G2 active

>  <Set_type>  (981) 
Test

>  <MW>  (981) 
397.44

>  <HBD>  (981) 
3

>  <HBA>  (981) 
4

>  <NRB>  (981) 
5

>  <NR>  (981) 
5

>  <NAR>  (981) 
5

>  <PSA>  (981) 
99.6

>  <Standard Type>  (981) 
nan

>  <Standard Relation>  (981) 
nan

>  <Standard Units>  (981) 
nan

>  <Standard Value>  (981) 
nan

>  <Assay ChEMBL ID>  (981) 
nan

>  <Assay Description>  (981) 
nan

>  <BAO Label>  (981) 
nan

$$$$

     RDKit          2D

 28 31  0  0  0  0  0  0  0  0999 V2000
   -0.7500   -6.4952    0.0000 C   0  0  0  0  0  0  0  0  0  0  0  0
   -1.5000   -5.1962    0.0000 O   0  0  0  0  0  0  0  0  0  0  0  0
   -0.7500   -3.8971    0.0000 C   0  0  0  0  0  0  0  0  0  0  0  0
    0.7500   -3.8971    0.0000 C   0  0  0  0  0  0  0  0  0  0  0  0
    1.5000   -2.5981    0.0000 C   0  0  0  0  0  0  0  0  0  0  0  0
    0.7500   -1.2990    0.0000 C   0  0  0  0  0  0  0  0  0  0  0  0
    1.5000    0.0000    0.0000 C   0  0  0  0  0  0  0  0  0  0  0  0
    0.7500    1.2990    0.0000 N   0  0  0  0  0  0  0  0  0  0  0  0
   -0.7500    1.2990    0.0000 C   0  0  0  0  0  0  0  0  0  0  0  0
   -1.5000    2.5981    0.0000 N   0  0  0  0  0  0  0  0  0  0  0  0
   -0.7500    3.8971    0.0000 C   0  0  0  0  0  0  0  0  0  0  0  0
    0.7500    3.8971    0.0000 C   0  0  0  0  0  0  0  0  0  0  0  0
    1.5000    5.1962    0.0000 C   0  0  0  0  0  0  0  0  0  0  0  0
    0.7500    6.4952    0.0000 C   0  0  0  0  0  0  0  0  0  0  0  0
    1.5000    7.7942    0.0000 N   0  0  0  0  0  0  0  0  0  0  0  0
    3.0000    7.7942    0.0000 C   0  0  0  0  0  0  0  0  0  0  0  0
    3.7500    9.0933    0.0000 C   0  0  0  0  0  0  0  0  0  0  0  0
    3.0000   10.3923    0.0000 C   0  0  0  0  0  0  0  0  0  0  0  0
    1.5000   10.3923    0.0000 C   0  0  0  0  0  0  0  0  0  0  0  0
    0.7500    9.0933    0.0000 C   0  0  0  0  0  0  0  0  0  0  0  0
   -0.7500    6.4952    0.0000 C   0  0  0  0  0  0  0  0  0  0  0  0
   -1.5000    5.1962    0.0000 C   0  0  0  0  0  0  0  0  0  0  0  0
   -1.5000    0.0000    0.0000 N   0  0  0  0  0  0  0  0  0  0  0  0
   -0.7500   -1.2990    0.0000 C   0  0  0  0  0  0  0  0  0  0  0  0
   -1.5000   -2.5981    0.0000 C   0  0  0  0  0  0  0  0  0  0  0  0
   -3.0000   -2.5981    0.0000 C   0  0  0  0  0  0  0  0  0  0  0  0
   -3.7500   -3.8971    0.0000 C   0  0  0  0  0  0  0  0  0  0  0  0
   -3.7500   -1.2990    0.0000 C   0  0  0  0  0  0  0  0  0  0  0  0
  1  2  1  0
  2  3  1  0
  3  4  2  0
  4  5  1  0
  5  6  2  0
  6  7  1  0
  7  8  2  0
  8  9  1  0
  9 10  1  0
 10 11  1  0
 11 12  2  0
 12 13  1  0
 13 14  2  0
 14 15  1  0
 15 16  1  0
 16 17  1  0
 17 18  1  0
 18 19  1  0
 19 20  1  0
 14 21  1  0
 21 22  2  0
  9 23  2  0
 23 24  1  0
 24 25  2  0
 25 26  1  0
 26 27  1  0
 26 28  1  0
 25  3  1  0
 24  6  1  0
 22 11  1  0
 20 15  1  0
M  END
>  <Compound_ID>  (982) 
CHEMBL361621

>  <Active>  (982) 
1.0

>  <Smiles>  (982) 
COc1ccc2cnc(Nc3ccc(N4CCCCC4)cc3)nc2c1C(C)C

>  <canonical_smi>  (982) 
COc1ccc2cnc(Nc3ccc(N4CCCCC4)cc3)nc2c1C(C)C

>  <Set>  (982) 
G2 active

>  <Set_type>  (982) 
Test

>  <MW>  (982) 
376.5

>  <HBD>  (982) 
1

>  <HBA>  (982) 
5

>  <NRB>  (982) 
5

>  <NR>  (982) 
4

>  <NAR>  (982) 
3

>  <PSA>  (982) 
50.28

>  <Standard Type>  (982) 
nan

>  <Standard Relation>  (982) 
nan

>  <Standard Units>  (982) 
nan

>  <Standard Value>  (982) 
nan

>  <Assay ChEMBL ID>  (982) 
nan

>  <Assay Description>  (982) 
nan

>  <BAO Label>  (982) 
nan

$$$$

     RDKit          2D

 21 24  0  0  0  0  0  0  0  0999 V2000
    3.7500   -1.2990    0.0000 O   0  0  0  0  0  0  0  0  0  0  0  0
    3.0000   -2.5981    0.0000 C   0  0  0  0  0  0  0  0  0  0  0  0
    1.5000   -2.5981    0.0000 N   0  0  0  0  0  0  0  0  0  0  0  0
    0.7500   -1.2990    0.0000 C   0  0  0  0  0  0  0  0  0  0  0  0
    1.5000    0.0000    0.0000 N   0  0  0  0  0  0  0  0  0  0  0  0
    0.7500    1.2990    0.0000 C   0  0  0  0  0  0  0  0  0  0  0  0
   -0.7500    1.2990    0.0000 N   0  0  0  0  0  0  0  0  0  0  0  0
   -1.5000    0.0000    0.0000 C   0  0  0  0  0  0  0  0  0  0  0  0
   -2.9672   -0.3119    0.0000 O   0  0  0  0  0  0  0  0  0  0  0  0
   -3.1240   -1.8037    0.0000 C   0  0  0  0  0  0  0  0  0  0  0  0
   -4.4231   -2.5537    0.0000 C   0  0  0  0  0  0  0  0  0  0  0  0
   -5.7221   -1.8037    0.0000 C   0  0  0  0  0  0  0  0  0  0  0  0
   -7.0211   -2.5537    0.0000 C   0  0  0  0  0  0  0  0  0  0  0  0
   -7.0211   -4.0537    0.0000 C   0  0  0  0  0  0  0  0  0  0  0  0
   -5.7221   -4.8037    0.0000 N   0  0  0  0  0  0  0  0  0  0  0  0
   -4.4231   -4.0537    0.0000 C   0  0  0  0  0  0  0  0  0  0  0  0
   -1.7537   -2.4138    0.0000 C   0  0  0  0  0  0  0  0  0  0  0  0
   -0.7500   -1.2990    0.0000 C   0  0  0  0  0  0  0  0  0  0  0  0
    3.7500   -3.8971    0.0000 C   0  0  0  0  0  0  0  0  0  0  0  0
    5.0490   -4.6471    0.0000 C   0  0  0  0  0  0  0  0  0  0  0  0
    3.7500   -5.3971    0.0000 C   0  0  0  0  0  0  0  0  0  0  0  0
  1  2  2  0
  2  3  1  0
  3  4  1  0
  4  5  2  0
  5  6  1  0
  6  7  2  0
  7  8  1  0
  8  9  1  0
  9 10  1  0
 10 11  1  0
 11 12  2  0
 12 13  1  0
 13 14  2  0
 14 15  1  0
 15 16  2  0
 10 17  2  0
 17 18  1  0
  2 19  1  0
 19 20  1  0
 20 21  1  0
 18  4  1  0
 21 19  1  0
 18  8  2  0
 16 11  1  0
M  END
>  <Compound_ID>  (983) 
CHEMBL361196

>  <Active>  (983) 
1.0

>  <Smiles>  (983) 
O=C(Nc1ncnc2oc(-c3cccnc3)cc12)C1CC1

>  <canonical_smi>  (983) 
O=C(Nc1ncnc2oc(-c3cccnc3)cc12)C1CC1

>  <Set>  (983) 
G2 active

>  <Set_type>  (983) 
Test

>  <MW>  (983) 
280.29

>  <HBD>  (983) 
1

>  <HBA>  (983) 
5

>  <NRB>  (983) 
3

>  <NR>  (983) 
4

>  <NAR>  (983) 
3

>  <PSA>  (983) 
80.91

>  <Standard Type>  (983) 
nan

>  <Standard Relation>  (983) 
nan

>  <Standard Units>  (983) 
nan

>  <Standard Value>  (983) 
nan

>  <Assay ChEMBL ID>  (983) 
nan

>  <Assay Description>  (983) 
nan

>  <BAO Label>  (983) 
nan

$$$$

     RDKit          2D

 38 41  0  0  0  0  0  0  0  0999 V2000
    7.3618  -19.9914    0.0000 C   0  0  0  0  0  0  0  0  0  0  0  0
    6.3581  -18.8767    0.0000 C   0  0  0  0  0  0  0  0  0  0  0  0
    4.8909  -19.1886    0.0000 O   0  0  0  0  0  0  0  0  0  0  0  0
    6.8216  -17.4501    0.0000 N   0  0  0  0  0  0  0  0  0  0  0  0
    5.8179  -16.3354    0.0000 C   0  0  0  0  0  0  0  0  0  0  0  0
    6.1298  -14.8682    0.0000 N   0  0  0  0  0  0  0  0  0  0  0  0
    4.8308  -14.1182    0.0000 C   0  0  0  0  0  0  0  0  0  0  0  0
    4.6740  -12.6264    0.0000 C   0  0  0  0  0  0  0  0  0  0  0  0
    3.3037  -12.0163    0.0000 C   0  0  0  0  0  0  0  0  0  0  0  0
    2.0046  -12.7663    0.0000 N   0  0  0  0  0  0  0  0  0  0  0  0
    0.8899  -11.7626    0.0000 N   0  0  0  0  0  0  0  0  0  0  0  0
    1.5000  -10.3923    0.0000 C   0  0  0  0  0  0  0  0  0  0  0  0
    0.7500   -9.0933    0.0000 S   0  0  0  0  0  0  0  0  0  0  0  0
    1.5000   -7.7942    0.0000 C   0  0  0  0  0  0  0  0  0  0  0  0
    0.7500   -6.4952    0.0000 C   0  0  0  0  0  0  0  0  0  0  0  0
   -0.7500   -6.4952    0.0000 O   0  0  0  0  0  0  0  0  0  0  0  0
    1.5000   -5.1962    0.0000 N   0  0  0  0  0  0  0  0  0  0  0  0
    0.7500   -3.8971    0.0000 N   0  0  0  0  0  0  0  0  0  0  0  0
    1.5000   -2.5981    0.0000 C   0  0  0  0  0  0  0  0  0  0  0  0
    0.7500   -1.2990    0.0000 C   0  0  0  0  0  0  0  0  0  0  0  0
    1.5000    0.0000    0.0000 C   0  0  0  0  0  0  0  0  0  0  0  0
    0.7500    1.2990    0.0000 C   0  0  0  0  0  0  0  0  0  0  0  0
   -0.7500    1.2990    0.0000 C   0  0  0  0  0  0  0  0  0  0  0  0
   -1.5000    0.0000    0.0000 C   0  0  0  0  0  0  0  0  0  0  0  0
   -0.7500   -1.2990    0.0000 C   0  0  0  0  0  0  0  0  0  0  0  0
    2.9918  -10.5491    0.0000 N   0  0  0  0  0  0  0  0  0  0  0  0
    3.9955   -9.4344    0.0000 N   0  0  0  0  0  0  0  0  0  0  0  0
    5.4627   -9.7462    0.0000 C   0  0  0  0  0  0  0  0  0  0  0  0
    5.9262  -11.1728    0.0000 O   0  0  0  0  0  0  0  0  0  0  0  0
    6.4664   -8.6315    0.0000 C   0  0  0  0  0  0  0  0  0  0  0  0
    7.9336   -8.9434    0.0000 C   0  0  0  0  0  0  0  0  0  0  0  0
    8.9373   -7.8287    0.0000 C   0  0  0  0  0  0  0  0  0  0  0  0
    8.4738   -6.4021    0.0000 C   0  0  0  0  0  0  0  0  0  0  0  0
    9.4775   -5.2874    0.0000 Cl  0  0  0  0  0  0  0  0  0  0  0  0
    7.0066   -6.0902    0.0000 C   0  0  0  0  0  0  0  0  0  0  0  0
    6.0029   -7.2049    0.0000 C   0  0  0  0  0  0  0  0  0  0  0  0
    3.7160  -15.1219    0.0000 C   0  0  0  0  0  0  0  0  0  0  0  0
    4.3261  -16.4922    0.0000 S   0  0  0  0  0  0  0  0  0  0  0  0
  1  2  1  0
  2  3  2  0
  2  4  1  0
  4  5  1  0
  5  6  2  0
  6  7  1  0
  7  8  1  0
  8  9  1  0
  9 10  2  0
 10 11  1  0
 11 12  2  0
 12 13  1  0
 13 14  1  0
 14 15  1  0
 15 16  2  0
 15 17  1  0
 17 18  1  0
 18 19  2  0
 19 20  1  0
 20 21  2  0
 21 22  1  0
 22 23  2  0
 23 24  1  0
 24 25  2  0
 12 26  1  0
 26 27  1  0
 27 28  1  0
 28 29  2  0
 28 30  1  0
 30 31  2  0
 31 32  1  0
 32 33  2  0
 33 34  1  0
 33 35  1  0
 35 36  2  0
  7 37  2  0
 37 38  1  0
 38  5  1  0
 26  9  1  0
 36 30  1  0
 25 20  1  0
M  END
>  <Compound_ID>  (984) 
CHEMBL232864

>  <Active>  (984) 
1.0

>  <Smiles>  (984) 
CC(=O)Nc1nc(Cc2nnc(SCC(=O)N/N=C/c3ccccc3)n2NC(=O)c2ccc(Cl)cc2)cs1

>  <canonical_smi>  (984) 
CC(=O)Nc1nc(Cc2nnc(SCC(=O)N/N=C/c3ccccc3)n2NC(=O)c2ccc(Cl)cc2)cs1

>  <Set>  (984) 
G2 active

>  <Set_type>  (984) 
Test

>  <MW>  (984) 
569.07

>  <HBD>  (984) 
3

>  <HBA>  (984) 
7

>  <NRB>  (984) 
10

>  <NR>  (984) 
4

>  <NAR>  (984) 
4

>  <PSA>  (984) 
143.26

>  <Standard Type>  (984) 
nan

>  <Standard Relation>  (984) 
nan

>  <Standard Units>  (984) 
nan

>  <Standard Value>  (984) 
nan

>  <Assay ChEMBL ID>  (984) 
nan

>  <Assay Description>  (984) 
nan

>  <BAO Label>  (984) 
nan

$$$$

     RDKit          2D

 30 34  0  0  0  0  0  0  0  0999 V2000
   -1.7455   -5.5373    0.0000 C   0  0  0  0  0  0  0  0  0  0  0  0
   -0.7418   -6.6520    0.0000 N   0  0  0  0  0  0  0  0  0  0  0  0
   -1.0537   -8.1192    0.0000 C   0  0  0  0  0  0  0  0  0  0  0  0
    0.2454   -8.8692    0.0000 N   0  0  0  0  0  0  0  0  0  0  0  0
    1.3601   -7.8655    0.0000 C   0  0  0  0  0  0  0  0  0  0  0  0
    0.7500   -6.4952    0.0000 C   0  0  0  0  0  0  0  0  0  0  0  0
    1.5000   -5.1962    0.0000 C   0  0  0  0  0  0  0  0  0  0  0  0
    0.7500   -3.8971    0.0000 N   0  0  0  0  0  0  0  0  0  0  0  0
    1.5000   -2.5981    0.0000 C   0  0  0  0  0  0  0  0  0  0  0  0
    3.0000   -2.5981    0.0000 O   0  0  0  0  0  0  0  0  0  0  0  0
    0.7500   -1.2990    0.0000 C   0  0  0  0  0  0  0  0  0  0  0  0
    1.5000    0.0000    0.0000 C   0  0  0  0  0  0  0  0  0  0  0  0
    0.7500    1.2990    0.0000 C   0  0  0  0  0  0  0  0  0  0  0  0
   -0.7500    1.2990    0.0000 C   0  0  0  0  0  0  0  0  0  0  0  0
   -1.7537    2.4138    0.0000 C   0  0  0  0  0  0  0  0  0  0  0  0
   -3.1240    1.8037    0.0000 C   0  0  0  0  0  0  0  0  0  0  0  0
   -4.4231    2.5537    0.0000 C   0  0  0  0  0  0  0  0  0  0  0  0
   -5.7934    1.9435    0.0000 N   0  0  0  0  0  0  0  0  0  0  0  0
   -6.7971    3.0583    0.0000 N   0  0  0  0  0  0  0  0  0  0  0  0
   -6.0471    4.3573    0.0000 C   0  0  0  0  0  0  0  0  0  0  0  0
   -4.5798    4.0454    0.0000 C   0  0  0  0  0  0  0  0  0  0  0  0
   -3.4651    5.0491    0.0000 C   0  0  0  0  0  0  0  0  0  0  0  0
   -2.0385    4.5856    0.0000 C   0  0  0  0  0  0  0  0  0  0  0  0
   -0.9238    5.5893    0.0000 C   0  0  0  0  0  0  0  0  0  0  0  0
   -1.2357    7.0565    0.0000 C   0  0  0  0  0  0  0  0  0  0  0  0
   -2.6623    7.5200    0.0000 C   0  0  0  0  0  0  0  0  0  0  0  0
   -3.7770    6.5164    0.0000 C   0  0  0  0  0  0  0  0  0  0  0  0
   -2.9672    0.3119    0.0000 N   0  0  0  0  0  0  0  0  0  0  0  0
   -1.5000    0.0000    0.0000 C   0  0  0  0  0  0  0  0  0  0  0  0
   -0.7500   -1.2990    0.0000 C   0  0  0  0  0  0  0  0  0  0  0  0
  1  2  1  0
  2  3  1  0
  3  4  2  0
  4  5  1  0
  5  6  2  0
  6  7  1  0
  7  8  1  0
  8  9  1  0
  9 10  2  0
  9 11  1  0
 11 12  2  0
 12 13  1  0
 13 14  2  0
 14 15  1  0
 15 16  2  0
 16 17  1  0
 17 18  2  0
 18 19  1  0
 19 20  1  0
 20 21  2  0
 21 22  1  0
 22 23  2  0
 23 24  1  0
 24 25  2  0
 25 26  1  0
 26 27  2  0
 16 28  1  0
 28 29  1  0
 29 30  2  0
  6  2  1  0
 30 11  1  0
 29 14  1  0
 21 17  1  0
 27 22  1  0
M  END
>  <Compound_ID>  (985) 
CHEMBL1164177

>  <Active>  (985) 
1.0

>  <Smiles>  (985) 
Cn1cncc1CNC(=O)c1ccc2cc(-c3n[nH]cc3-c3ccccc3)[nH]c2c1

>  <canonical_smi>  (985) 
Cn1cncc1CNC(=O)c1ccc2cc(-c3n[nH]cc3-c3ccccc3)[nH]c2c1

>  <Set>  (985) 
G2 active

>  <Set_type>  (985) 
Test

>  <MW>  (985) 
396.45

>  <HBD>  (985) 
3

>  <HBA>  (985) 
3

>  <NRB>  (985) 
5

>  <NR>  (985) 
5

>  <NAR>  (985) 
5

>  <PSA>  (985) 
91.39

>  <Standard Type>  (985) 
nan

>  <Standard Relation>  (985) 
nan

>  <Standard Units>  (985) 
nan

>  <Standard Value>  (985) 
nan

>  <Assay ChEMBL ID>  (985) 
nan

>  <Assay Description>  (985) 
nan

>  <BAO Label>  (985) 
nan

$$$$

     RDKit          2D

 37 43  0  0  0  0  0  0  0  0999 V2000
    3.7500   -1.2990    0.0000 C   0  0  0  0  0  0  0  0  0  0  0  0
    3.0000    0.0000    0.0000 O   0  0  0  0  0  0  0  0  0  0  0  0
    1.5000    0.0000    0.0000 C   0  0  0  0  0  0  0  0  0  0  0  0
    0.7500   -1.2990    0.0000 C   0  0  0  0  0  0  0  0  0  0  0  0
   -0.7500   -1.2990    0.0000 C   0  0  0  0  0  0  0  0  0  0  0  0
   -1.5000    0.0000    0.0000 C   0  0  0  0  0  0  0  0  0  0  0  0
   -2.9672    0.3119    0.0000 C   0  0  0  0  0  0  0  0  0  0  0  0
   -4.1807   -0.5698    0.0000 C   0  0  0  0  0  0  0  0  0  0  0  0
   -5.5511    0.0403    0.0000 C   0  0  0  0  0  0  0  0  0  0  0  0
   -5.7079    1.5321    0.0000 C   0  0  0  0  0  0  0  0  0  0  0  0
   -4.4943    2.4138    0.0000 C   0  0  0  0  0  0  0  0  0  0  0  0
   -4.6511    3.9055    0.0000 C   0  0  0  0  0  0  0  0  0  0  0  0
   -6.0214    4.5156    0.0000 C   0  0  0  0  0  0  0  0  0  0  0  0
   -7.2350    3.6340    0.0000 C   0  0  0  0  0  0  0  0  0  0  0  0
   -8.7022    3.9458    0.0000 C   0  0  0  0  0  0  0  0  0  0  0  0
   -9.4522    2.6468    0.0000 C   0  0  0  0  0  0  0  0  0  0  0  0
   -8.4485    1.5321    0.0000 N   0  0  0  0  0  0  0  0  0  0  0  0
   -8.7604    0.0649    0.0000 C   0  0  0  0  0  0  0  0  0  0  0  0
   -7.0782    2.1422    0.0000 C   0  0  0  0  0  0  0  0  0  0  0  0
   -3.1240    1.8037    0.0000 C   0  0  0  0  0  0  0  0  0  0  0  0
   -1.7537    2.4138    0.0000 N   0  0  0  0  0  0  0  0  0  0  0  0
   -1.4418    3.8810    0.0000 C   0  0  0  0  0  0  0  0  0  0  0  0
   -0.0152    4.3445    0.0000 C   0  0  0  0  0  0  0  0  0  0  0  0
    0.2966    5.8117    0.0000 C   0  0  0  0  0  0  0  0  0  0  0  0
    1.7232    6.2752    0.0000 N   0  0  0  0  0  0  0  0  0  0  0  0
    2.8379    5.2716    0.0000 C   0  0  0  0  0  0  0  0  0  0  0  0
    4.2645    5.7351    0.0000 C   0  0  0  0  0  0  0  0  0  0  0  0
    4.5764    7.2023    0.0000 O   0  0  0  0  0  0  0  0  0  0  0  0
    3.4617    8.2060    0.0000 C   0  0  0  0  0  0  0  0  0  0  0  0
    2.0351    7.7425    0.0000 C   0  0  0  0  0  0  0  0  0  0  0  0
   -0.7500    1.2990    0.0000 C   0  0  0  0  0  0  0  0  0  0  0  0
    0.7500    1.2990    0.0000 C   0  0  0  0  0  0  0  0  0  0  0  0
   -6.5548   -1.0744    0.0000 C   0  0  0  0  0  0  0  0  0  0  0  0
   -8.0465   -0.9176    0.0000 O   0  0  0  0  0  0  0  0  0  0  0  0
   -5.8048   -2.3735    0.0000 N   0  0  0  0  0  0  0  0  0  0  0  0
   -4.3375   -2.0616    0.0000 C   0  0  0  0  0  0  0  0  0  0  0  0
   -3.2228   -3.0653    0.0000 O   0  0  0  0  0  0  0  0  0  0  0  0
  1  2  1  0
  2  3  1  0
  3  4  2  0
  4  5  1  0
  5  6  2  0
  6  7  1  0
  7  8  2  0
  8  9  1  0
  9 10  2  0
 10 11  1  0
 11 12  1  0
 12 13  2  0
 13 14  1  0
 14 15  1  0
 15 16  2  0
 16 17  1  0
 17 18  1  0
 17 19  1  0
 11 20  2  0
 20 21  1  0
 21 22  1  0
 22 23  1  0
 23 24  1  0
 24 25  1  0
 25 26  1  0
 26 27  1  0
 27 28  1  0
 28 29  1  0
 29 30  1  0
 21 31  1  0
 31 32  2  0
  9 33  1  0
 33 34  2  0
 33 35  1  0
 35 36  1  0
 36 37  2  0
 32  3  1  0
 31  6  1  0
 20  7  1  0
 30 25  1  0
 36  8  1  0
 19 10  1  0
 19 14  2  0
M  END
>  <Compound_ID>  (986) 
CHEMBL72077

>  <Active>  (986) 
1.0

>  <Smiles>  (986) 
COc1ccc2c3c4c(c5c(ccc6ccn(C)c65)c3n(CCCN3CCOCC3)c2c1)C(=O)NC4=O

>  <canonical_smi>  (986) 
COc1ccc2c3c4c(c5c(ccc6ccn(C)c65)c3n(CCCN3CCOCC3)c2c1)C(=O)NC4=O

>  <Set>  (986) 
G2 active

>  <Set_type>  (986) 
Test

>  <MW>  (986) 
496.57

>  <HBD>  (986) 
1

>  <HBA>  (986) 
5

>  <NRB>  (986) 
5

>  <NR>  (986) 
7

>  <NAR>  (986) 
5

>  <PSA>  (986) 
77.73

>  <Standard Type>  (986) 
nan

>  <Standard Relation>  (986) 
nan

>  <Standard Units>  (986) 
nan

>  <Standard Value>  (986) 
nan

>  <Assay ChEMBL ID>  (986) 
nan

>  <Assay Description>  (986) 
nan

>  <BAO Label>  (986) 
nan

$$$$

     RDKit          2D

 29 33  0  0  0  0  0  0  0  0999 V2000
    5.2500   -1.2990    0.0000 C   0  0  0  0  0  0  0  0  0  0  0  0
    3.7500   -1.2990    0.0000 C   0  0  0  0  0  0  0  0  0  0  0  0
    3.0000   -2.5981    0.0000 O   0  0  0  0  0  0  0  0  0  0  0  0
    3.0000    0.0000    0.0000 N   0  0  0  0  0  0  0  0  0  0  0  0
    1.5000    0.0000    0.0000 C   0  0  0  0  0  0  0  0  0  0  0  0
    0.7500   -1.2990    0.0000 C   0  0  0  0  0  0  0  0  0  0  0  0
   -0.7500   -1.2990    0.0000 C   0  0  0  0  0  0  0  0  0  0  0  0
   -1.5000    0.0000    0.0000 C   0  0  0  0  0  0  0  0  0  0  0  0
   -0.7500    1.2990    0.0000 C   0  0  0  0  0  0  0  0  0  0  0  0
    0.7500    1.2990    0.0000 C   0  0  0  0  0  0  0  0  0  0  0  0
    1.2135    2.7256    0.0000 C   0  0  0  0  0  0  0  0  0  0  0  0
    2.6401    3.1891    0.0000 O   0  0  0  0  0  0  0  0  0  0  0  0
    0.0000    3.6073    0.0000 C   0  0  0  0  0  0  0  0  0  0  0  0
   -0.4635    5.0339    0.0000 C   0  0  0  0  0  0  0  0  0  0  0  0
    0.4182    6.2474    0.0000 C   0  0  0  0  0  0  0  0  0  0  0  0
    1.9099    6.0906    0.0000 C   0  0  0  0  0  0  0  0  0  0  0  0
    2.7916    7.3041    0.0000 C   0  0  0  0  0  0  0  0  0  0  0  0
    2.1815    8.6745    0.0000 C   0  0  0  0  0  0  0  0  0  0  0  0
    3.0632    9.8880    0.0000 N   0  0  0  0  0  0  0  0  0  0  0  0
    4.5550    9.7312    0.0000 C   0  0  0  0  0  0  0  0  0  0  0  0
    5.4366   10.9447    0.0000 C   0  0  0  0  0  0  0  0  0  0  0  0
    4.8265   12.3150    0.0000 C   0  0  0  0  0  0  0  0  0  0  0  0
    3.3348   12.4718    0.0000 C   0  0  0  0  0  0  0  0  0  0  0  0
    2.4531   11.2583    0.0000 C   0  0  0  0  0  0  0  0  0  0  0  0
    0.6897    8.8313    0.0000 C   0  0  0  0  0  0  0  0  0  0  0  0
   -0.1920    7.6177    0.0000 C   0  0  0  0  0  0  0  0  0  0  0  0
   -1.9635    5.0339    0.0000 N   0  0  0  0  0  0  0  0  0  0  0  0
   -2.4271    3.6073    0.0000 N   0  0  0  0  0  0  0  0  0  0  0  0
   -1.2135    2.7256    0.0000 C   0  0  0  0  0  0  0  0  0  0  0  0
  1  2  1  0
  2  3  2  0
  2  4  1  0
  4  5  1  0
  5  6  2  0
  6  7  1  0
  7  8  2  0
  8  9  1  0
  9 10  2  0
 10 11  1  0
 11 12  2  0
 11 13  1  0
 13 14  1  0
 14 15  1  0
 15 16  2  0
 16 17  1  0
 17 18  2  0
 18 19  1  0
 19 20  1  0
 20 21  1  0
 21 22  1  0
 22 23  1  0
 23 24  1  0
 18 25  1  0
 25 26  2  0
 14 27  2  0
 27 28  1  0
 28 29  1  0
 10  5  1  0
 29 13  2  0
 29  9  1  0
 26 15  1  0
 24 19  1  0
M  END
>  <Compound_ID>  (987) 
CHEMBL149168

>  <Active>  (987) 
1.0

>  <Smiles>  (987) 
CC(=O)Nc1cccc2c1C(=O)c1c(-c3ccc(N4CCCCC4)cc3)n[nH]c1-2

>  <canonical_smi>  (987) 
CC(=O)Nc1cccc2c1C(=O)c1c(-c3ccc(N4CCCCC4)cc3)n[nH]c1-2

>  <Set>  (987) 
G2 active

>  <Set_type>  (987) 
Test

>  <MW>  (987) 
386.46

>  <HBD>  (987) 
2

>  <HBA>  (987) 
4

>  <NRB>  (987) 
3

>  <NR>  (987) 
5

>  <NAR>  (987) 
4

>  <PSA>  (987) 
78.09

>  <Standard Type>  (987) 
nan

>  <Standard Relation>  (987) 
nan

>  <Standard Units>  (987) 
nan

>  <Standard Value>  (987) 
nan

>  <Assay ChEMBL ID>  (987) 
nan

>  <Assay Description>  (987) 
nan

>  <BAO Label>  (987) 
nan

$$$$

     RDKit          2D

 37 43  0  0  0  0  0  0  0  0999 V2000
    3.7500   -1.2990    0.0000 C   0  0  0  0  0  0  0  0  0  0  0  0
    3.0000    0.0000    0.0000 O   0  0  0  0  0  0  0  0  0  0  0  0
    1.5000    0.0000    0.0000 C   0  0  0  0  0  0  0  0  0  0  0  0
    0.7500   -1.2990    0.0000 C   0  0  0  0  0  0  0  0  0  0  0  0
   -0.7500   -1.2990    0.0000 C   0  0  0  0  0  0  0  0  0  0  0  0
   -1.5000    0.0000    0.0000 C   0  0  0  0  0  0  0  0  0  0  0  0
   -2.9672    0.3119    0.0000 C   0  0  0  0  0  0  0  0  0  0  0  0
   -4.1807   -0.5698    0.0000 C   0  0  0  0  0  0  0  0  0  0  0  0
   -5.5511    0.0403    0.0000 C   0  0  0  0  0  0  0  0  0  0  0  0
   -5.7079    1.5321    0.0000 C   0  0  0  0  0  0  0  0  0  0  0  0
   -4.4943    2.4138    0.0000 C   0  0  0  0  0  0  0  0  0  0  0  0
   -4.6511    3.9055    0.0000 C   0  0  0  0  0  0  0  0  0  0  0  0
   -6.0214    4.5156    0.0000 C   0  0  0  0  0  0  0  0  0  0  0  0
   -7.2350    3.6340    0.0000 C   0  0  0  0  0  0  0  0  0  0  0  0
   -8.7022    3.9458    0.0000 C   0  0  0  0  0  0  0  0  0  0  0  0
   -9.4522    2.6468    0.0000 C   0  0  0  0  0  0  0  0  0  0  0  0
   -8.4485    1.5321    0.0000 N   0  0  0  0  0  0  0  0  0  0  0  0
   -8.7604    0.0649    0.0000 C   0  0  0  0  0  0  0  0  0  0  0  0
   -7.0782    2.1422    0.0000 C   0  0  0  0  0  0  0  0  0  0  0  0
   -3.1240    1.8037    0.0000 C   0  0  0  0  0  0  0  0  0  0  0  0
   -1.7537    2.4138    0.0000 N   0  0  0  0  0  0  0  0  0  0  0  0
   -1.4418    3.8810    0.0000 C   0  0  0  0  0  0  0  0  0  0  0  0
   -0.0152    4.3445    0.0000 C   0  0  0  0  0  0  0  0  0  0  0  0
    0.2966    5.8117    0.0000 N   0  0  0  0  0  0  0  0  0  0  0  0
   -0.7071    6.9264    0.0000 C   0  0  0  0  0  0  0  0  0  0  0  0
    0.0429    8.2255    0.0000 C   0  0  0  0  0  0  0  0  0  0  0  0
    1.5101    7.9136    0.0000 C   0  0  0  0  0  0  0  0  0  0  0  0
    1.6669    6.4218    0.0000 C   0  0  0  0  0  0  0  0  0  0  0  0
    2.9660    5.6718    0.0000 C   0  0  0  0  0  0  0  0  0  0  0  0
    4.2650    6.4218    0.0000 O   0  0  0  0  0  0  0  0  0  0  0  0
   -0.7500    1.2990    0.0000 C   0  0  0  0  0  0  0  0  0  0  0  0
    0.7500    1.2990    0.0000 C   0  0  0  0  0  0  0  0  0  0  0  0
   -6.5548   -1.0744    0.0000 C   0  0  0  0  0  0  0  0  0  0  0  0
   -8.0465   -0.9176    0.0000 O   0  0  0  0  0  0  0  0  0  0  0  0
   -5.8048   -2.3735    0.0000 N   0  0  0  0  0  0  0  0  0  0  0  0
   -4.3375   -2.0616    0.0000 C   0  0  0  0  0  0  0  0  0  0  0  0
   -3.2228   -3.0653    0.0000 O   0  0  0  0  0  0  0  0  0  0  0  0
  1  2  1  0
  2  3  1  0
  3  4  2  0
  4  5  1  0
  5  6  2  0
  6  7  1  0
  7  8  2  0
  8  9  1  0
  9 10  2  0
 10 11  1  0
 11 12  1  0
 12 13  2  0
 13 14  1  0
 14 15  1  0
 15 16  2  0
 16 17  1  0
 17 18  1  0
 17 19  1  0
 11 20  2  0
 20 21  1  0
 21 22  1  0
 22 23  1  0
 23 24  1  0
 24 25  1  0
 25 26  1  0
 26 27  1  0
 27 28  1  0
 28 29  1  1
 29 30  1  0
 21 31  1  0
 31 32  2  0
  9 33  1  0
 33 34  2  0
 33 35  1  0
 35 36  1  0
 36 37  2  0
 32  3  1  0
 31  6  1  0
 20  7  1  0
 28 24  1  0
 36  8  1  0
 19 10  1  0
 19 14  2  0
M  END
>  <Compound_ID>  (988) 
CHEMBL75952

>  <Active>  (988) 
1.0

>  <Smiles>  (988) 
COc1ccc2c3c4c(c5c(ccc6ccn(C)c65)c3n(CCN3CCC[C@H]3CO)c2c1)C(=O)NC4=O

>  <canonical_smi>  (988) 
COc1ccc2c3c4c(c5c(ccc6ccn(C)c65)c3n(CCN3CCC[C@H]3CO)c2c1)C(=O)NC4=O

>  <Set>  (988) 
G2 active

>  <Set_type>  (988) 
Test

>  <MW>  (988) 
496.57

>  <HBD>  (988) 
2

>  <HBA>  (988) 
5

>  <NRB>  (988) 
5

>  <NR>  (988) 
7

>  <NAR>  (988) 
5

>  <PSA>  (988) 
88.73

>  <Standard Type>  (988) 
nan

>  <Standard Relation>  (988) 
nan

>  <Standard Units>  (988) 
nan

>  <Standard Value>  (988) 
nan

>  <Assay ChEMBL ID>  (988) 
nan

>  <Assay Description>  (988) 
nan

>  <BAO Label>  (988) 
nan

$$$$

     RDKit          2D

 21 22  0  0  0  0  0  0  0  0999 V2000
    1.5000   -5.1962    0.0000 C   0  0  0  0  0  0  0  0  0  0  0  0
    0.7500   -3.8971    0.0000 N   0  0  0  0  0  0  0  0  0  0  0  0
    1.5000   -2.5981    0.0000 C   0  0  0  0  0  0  0  0  0  0  0  0
    0.7500   -1.2990    0.0000 C   0  0  0  0  0  0  0  0  0  0  0  0
    1.5000    0.0000    0.0000 C   0  0  0  0  0  0  0  0  0  0  0  0
    0.7500    1.2990    0.0000 C   0  0  0  0  0  0  0  0  0  0  0  0
   -0.7500    1.2990    0.0000 N   0  0  0  0  0  0  0  0  0  0  0  0
   -1.5000    0.0000    0.0000 C   0  0  0  0  0  0  0  0  0  0  0  0
   -0.7500   -1.2990    0.0000 C   0  0  0  0  0  0  0  0  0  0  0  0
   -0.7500   -3.8971    0.0000 C   0  0  0  0  0  0  0  0  0  0  0  0
   -1.3361   -2.5163    0.0000 O   0  0  0  0  0  0  0  0  0  0  0  0
   -1.5000   -5.1962    0.0000 C   0  0  0  0  0  0  0  0  0  0  0  0
   -2.6491   -4.2320    0.0000 C   0  0  0  0  0  0  0  0  0  0  0  0
   -2.5706   -2.7340    0.0000 N   0  0  0  0  0  0  0  0  0  0  0  0
   -4.0586   -4.7450    0.0000 N   0  0  0  0  0  0  0  0  0  0  0  0
   -5.2077   -3.7808    0.0000 O   0  0  0  0  0  0  0  0  0  0  0  0
   -0.0905   -5.7092    0.0000 C   0  0  0  0  0  0  0  0  0  0  0  0
    0.1700   -7.1864    0.0000 C   0  0  0  0  0  0  0  0  0  0  0  0
   -0.9791   -8.1506    0.0000 C   0  0  0  0  0  0  0  0  0  0  0  0
   -2.3886   -7.6375    0.0000 C   0  0  0  0  0  0  0  0  0  0  0  0
   -2.6491   -6.1603    0.0000 C   0  0  0  0  0  0  0  0  0  0  0  0
  1  2  1  0
  2  3  1  0
  3  4  1  0
  4  5  2  0
  5  6  1  0
  6  7  2  0
  7  8  1  0
  8  9  2  0
  2 10  1  0
 10 11  2  0
 10 12  1  0
 12 13  1  0
 13 14  1  0
 13 15  2  0
 15 16  1  0
 12 17  1  0
 17 18  1  0
 18 19  1  0
 19 20  1  0
 20 21  1  0
  9  4  1  0
 21 12  1  0
M  END
>  <Compound_ID>  (989) 
C44785286

>  <Active>  (989) 
0.0

>  <Smiles>  (989) 
CN(Cc1ccncc1)C(=O)C1(/C(N)=N/O)CCCCC1

>  <canonical_smi>  (989) 
CN(Cc1ccncc1)C(=O)C1(/C(N)=N/O)CCCCC1

>  <Set>  (989) 
G2 inactive

>  <Set_type>  (989) 
Test

>  <MW>  (989) 
290.37

>  <HBD>  (989) 
2

>  <HBA>  (989) 
4

>  <NRB>  (989) 
4

>  <NR>  (989) 
2

>  <NAR>  (989) 
1

>  <PSA>  (989) 
91.81

>  <Standard Type>  (989) 
nan

>  <Standard Relation>  (989) 
nan

>  <Standard Units>  (989) 
nan

>  <Standard Value>  (989) 
nan

>  <Assay ChEMBL ID>  (989) 
nan

>  <Assay Description>  (989) 
nan

>  <BAO Label>  (989) 
nan

$$$$

     RDKit          2D

 30 32  0  0  0  0  0  0  0  0999 V2000
    3.0000    0.0000    0.0000 C   0  0  0  0  0  0  0  0  0  0  0  0
    1.5000    0.0000    0.0000 C   0  0  0  0  0  0  0  0  0  0  0  0
    0.7500   -1.2990    0.0000 C   0  0  0  0  0  0  0  0  0  0  0  0
    1.5000   -2.5981    0.0000 C   0  0  0  0  0  0  0  0  0  0  0  0
    3.0000   -2.5981    0.0000 N   0  0  0  0  0  0  0  0  0  0  0  0
    0.7500   -3.8971    0.0000 O   0  0  0  0  0  0  0  0  0  0  0  0
   -0.7500   -1.2990    0.0000 C   0  0  0  0  0  0  0  0  0  0  0  0
   -1.5000   -2.5981    0.0000 C   0  0  0  0  0  0  0  0  0  0  0  0
   -0.8899   -3.9684    0.0000 C   0  0  0  0  0  0  0  0  0  0  0  0
   -2.0046   -4.9721    0.0000 C   0  0  0  0  0  0  0  0  0  0  0  0
   -3.3037   -4.2221    0.0000 C   0  0  0  0  0  0  0  0  0  0  0  0
   -2.9918   -2.7549    0.0000 O   0  0  0  0  0  0  0  0  0  0  0  0
   -1.5000    0.0000    0.0000 C   0  0  0  0  0  0  0  0  0  0  0  0
   -3.0000    0.0000    0.0000 C   0  0  0  0  0  0  0  0  0  0  0  0
   -4.5000    0.0000    0.0000 N   0  0  0  0  0  0  0  0  0  0  0  0
   -0.7500    1.2990    0.0000 C   0  0  0  0  0  0  0  0  0  0  0  0
   -1.5000    2.5981    0.0000 S   0  0  0  0  0  0  0  0  0  0  0  0
   -0.7500    3.8971    0.0000 C   0  0  0  0  0  0  0  0  0  0  0  0
   -1.5000    5.1962    0.0000 C   0  0  0  0  0  0  0  0  0  0  0  0
   -3.0000    5.1962    0.0000 O   0  0  0  0  0  0  0  0  0  0  0  0
   -0.7500    6.4952    0.0000 N   0  0  0  0  0  0  0  0  0  0  0  0
   -1.5000    7.7942    0.0000 C   0  0  0  0  0  0  0  0  0  0  0  0
   -0.7500    9.0933    0.0000 C   0  0  0  0  0  0  0  0  0  0  0  0
   -1.5000   10.3923    0.0000 C   0  0  0  0  0  0  0  0  0  0  0  0
   -3.0000   10.3923    0.0000 C   0  0  0  0  0  0  0  0  0  0  0  0
   -3.7500    9.0933    0.0000 C   0  0  0  0  0  0  0  0  0  0  0  0
   -5.2500    9.0933    0.0000 Cl  0  0  0  0  0  0  0  0  0  0  0  0
   -3.0000    7.7942    0.0000 C   0  0  0  0  0  0  0  0  0  0  0  0
   -3.7500    6.4952    0.0000 C   0  0  0  0  0  0  0  0  0  0  0  0
    0.7500    1.2990    0.0000 N   0  0  0  0  0  0  0  0  0  0  0  0
  1  2  1  0
  2  3  2  0
  3  4  1  0
  4  5  1  0
  4  6  2  0
  3  7  1  0
  7  8  1  1
  8  9  2  0
  9 10  1  0
 10 11  2  0
 11 12  1  0
  7 13  1  0
 13 14  1  0
 14 15  3  0
 13 16  2  0
 16 17  1  0
 17 18  1  0
 18 19  1  0
 19 20  2  0
 19 21  1  0
 21 22  1  0
 22 23  2  0
 23 24  1  0
 24 25  2  0
 25 26  1  0
 26 27  1  0
 26 28  2  0
 28 29  1  0
 16 30  1  0
 30  2  1  0
 12  8  1  0
 28 22  1  0
M  END
>  <Compound_ID>  (990) 
C19882976

>  <Active>  (990) 
0.0

>  <Smiles>  (990) 
CC1=C(C(N)=O)[C@@H](c2ccco2)C(C#N)=C(SCC(=O)Nc2cccc(Cl)c2C)N1

>  <canonical_smi>  (990) 
CC1=C(C(N)=O)[C@@H](c2ccco2)C(C#N)=C(SCC(=O)Nc2cccc(Cl)c2C)N1

>  <Set>  (990) 
G2 inactive

>  <Set_type>  (990) 
Test

>  <MW>  (990) 
442.93

>  <HBD>  (990) 
3

>  <HBA>  (990) 
6

>  <NRB>  (990) 
6

>  <NR>  (990) 
3

>  <NAR>  (990) 
2

>  <PSA>  (990) 
121.15

>  <Standard Type>  (990) 
nan

>  <Standard Relation>  (990) 
nan

>  <Standard Units>  (990) 
nan

>  <Standard Value>  (990) 
nan

>  <Assay ChEMBL ID>  (990) 
nan

>  <Assay Description>  (990) 
nan

>  <BAO Label>  (990) 
nan

$$$$

     RDKit          2D

 20 21  0  0  0  0  0  0  0  0999 V2000
    3.0000    0.0000    0.0000 C   0  0  0  0  0  0  0  0  0  0  0  0
    1.5000    0.0000    0.0000 C   0  0  0  0  0  0  0  0  0  0  0  0
    0.7500   -1.2990    0.0000 C   0  0  0  0  0  0  0  0  0  0  0  0
   -0.7500   -1.2990    0.0000 C   0  0  0  0  0  0  0  0  0  0  0  0
   -1.5000    0.0000    0.0000 C   0  0  0  0  0  0  0  0  0  0  0  0
   -3.0000    0.0000    0.0000 C   0  0  0  0  0  0  0  0  0  0  0  0
   -3.7500   -1.2990    0.0000 O   0  0  0  0  0  0  0  0  0  0  0  0
   -3.7500    1.2990    0.0000 C   0  0  0  0  0  0  0  0  0  0  0  0
   -5.2500    1.2990    0.0000 S   0  0  0  0  0  0  0  0  0  0  0  0
   -6.0000    2.5981    0.0000 C   0  0  0  0  0  0  0  0  0  0  0  0
   -5.2500    3.8971    0.0000 N   0  0  0  0  0  0  0  0  0  0  0  0
   -6.0000    5.1962    0.0000 C   0  0  0  0  0  0  0  0  0  0  0  0
   -5.2500    6.4952    0.0000 N   0  0  0  0  0  0  0  0  0  0  0  0
   -7.5000    5.1962    0.0000 C   0  0  0  0  0  0  0  0  0  0  0  0
   -8.2500    3.8971    0.0000 C   0  0  0  0  0  0  0  0  0  0  0  0
   -9.7500    3.8971    0.0000 N   0  0  0  0  0  0  0  0  0  0  0  0
   -7.5000    2.5981    0.0000 N   0  0  0  0  0  0  0  0  0  0  0  0
   -0.7500    1.2990    0.0000 C   0  0  0  0  0  0  0  0  0  0  0  0
    0.7500    1.2990    0.0000 C   0  0  0  0  0  0  0  0  0  0  0  0
    1.5000    2.5981    0.0000 C   0  0  0  0  0  0  0  0  0  0  0  0
  1  2  1  0
  2  3  2  0
  3  4  1  0
  4  5  2  0
  5  6  1  0
  6  7  2  0
  6  8  1  0
  8  9  1  0
  9 10  1  0
 10 11  2  0
 11 12  1  0
 12 13  1  0
 12 14  2  0
 14 15  1  0
 15 16  1  0
 15 17  2  0
  5 18  1  0
 18 19  2  0
 19 20  1  0
 19  2  1  0
 17 10  1  0
M  END
>  <Compound_ID>  (991) 
C08488050

>  <Active>  (991) 
0.0

>  <Smiles>  (991) 
Cc1ccc(C(=O)CSc2nc(N)cc(N)n2)cc1C

>  <canonical_smi>  (991) 
Cc1ccc(C(=O)CSc2nc(N)cc(N)n2)cc1C

>  <Set>  (991) 
G2 inactive

>  <Set_type>  (991) 
Test

>  <MW>  (991) 
288.38

>  <HBD>  (991) 
2

>  <HBA>  (991) 
6

>  <NRB>  (991) 
4

>  <NR>  (991) 
2

>  <NAR>  (991) 
2

>  <PSA>  (991) 
94.89

>  <Standard Type>  (991) 
nan

>  <Standard Relation>  (991) 
nan

>  <Standard Units>  (991) 
nan

>  <Standard Value>  (991) 
nan

>  <Assay ChEMBL ID>  (991) 
nan

>  <Assay Description>  (991) 
nan

>  <BAO Label>  (991) 
nan

$$$$

     RDKit          2D

 19 20  0  0  0  0  0  0  0  0999 V2000
    3.0000    0.0000    0.0000 C   0  0  0  0  0  0  0  0  0  0  0  0
    1.5000    0.0000    0.0000 C   0  0  0  0  0  0  0  0  0  0  0  0
    0.7500   -1.2990    0.0000 N   0  0  0  0  0  0  0  0  0  0  0  0
   -0.7500   -1.2990    0.0000 N   0  0  0  0  0  0  0  0  0  0  0  0
   -1.5000    0.0000    0.0000 C   0  0  0  0  0  0  0  0  0  0  0  0
   -3.0000    0.0000    0.0000 N   0  0  0  0  0  0  0  0  0  0  0  0
   -3.7500   -1.2990    0.0000 C   0  0  0  0  0  0  0  0  0  0  0  0
   -5.2500   -1.2990    0.0000 C   0  0  0  0  0  0  0  0  0  0  0  0
   -6.0000   -2.5981    0.0000 C   0  0  0  0  0  0  0  0  0  0  0  0
   -5.2500   -3.8971    0.0000 C   0  0  0  0  0  0  0  0  0  0  0  0
   -3.7500   -3.8971    0.0000 C   0  0  0  0  0  0  0  0  0  0  0  0
   -3.0000   -2.5981    0.0000 C   0  0  0  0  0  0  0  0  0  0  0  0
   -1.5000   -2.5981    0.0000 O   0  0  0  0  0  0  0  0  0  0  0  0
   -0.7500    1.2990    0.0000 C   0  0  0  0  0  0  0  0  0  0  0  0
   -1.5000    2.5981    0.0000 C   0  0  0  0  0  0  0  0  0  0  0  0
   -3.0000    2.5981    0.0000 N   0  0  0  0  0  0  0  0  0  0  0  0
   -0.7500    3.8971    0.0000 S   0  0  0  0  0  0  0  0  0  0  0  0
    0.7500    1.2990    0.0000 C   0  0  0  0  0  0  0  0  0  0  0  0
    1.5000    2.5981    0.0000 C   0  0  0  0  0  0  0  0  0  0  0  0
  1  2  1  0
  2  3  2  0
  3  4  1  0
  4  5  2  0
  5  6  1  0
  7  6  1  1
  7  8  1  0
  8  9  1  0
  9 10  1  0
 10 11  1  0
 11 12  1  0
 12 13  1  1
  5 14  1  0
 14 15  1  0
 15 16  1  0
 15 17  2  0
 14 18  2  0
 18 19  1  0
 18  2  1  0
 12  7  1  0
M  END
>  <Compound_ID>  (992) 
C52010582

>  <Active>  (992) 
0.0

>  <Smiles>  (992) 
Cc1nnc(N[C@@H]2CCCC[C@@H]2O)c(C(N)=S)c1C

>  <canonical_smi>  (992) 
Cc1nnc(N[C@@H]2CCCC[C@@H]2O)c(C(N)=S)c1C

>  <Set>  (992) 
G2 inactive

>  <Set_type>  (992) 
Test

>  <MW>  (992) 
280.4

>  <HBD>  (992) 
3

>  <HBA>  (992) 
6

>  <NRB>  (992) 
3

>  <NR>  (992) 
2

>  <NAR>  (992) 
1

>  <PSA>  (992) 
84.06

>  <Standard Type>  (992) 
nan

>  <Standard Relation>  (992) 
nan

>  <Standard Units>  (992) 
nan

>  <Standard Value>  (992) 
nan

>  <Assay ChEMBL ID>  (992) 
nan

>  <Assay Description>  (992) 
nan

>  <BAO Label>  (992) 
nan

$$$$

     RDKit          2D

 19 20  0  0  0  0  0  0  0  0999 V2000
   -0.7360   -6.1923    0.0000 C   0  0  0  0  0  0  0  0  0  0  0  0
    0.4775   -7.0740    0.0000 C   0  0  0  0  0  0  0  0  0  0  0  0
    1.8478   -6.4639    0.0000 S   0  0  0  0  0  0  0  0  0  0  0  0
    2.0046   -4.9721    0.0000 C   0  0  0  0  0  0  0  0  0  0  0  0
    3.3037   -4.2221    0.0000 N   0  0  0  0  0  0  0  0  0  0  0  0
    2.9918   -2.7549    0.0000 N   0  0  0  0  0  0  0  0  0  0  0  0
    1.5000   -2.5981    0.0000 C   0  0  0  0  0  0  0  0  0  0  0  0
    0.7500   -1.2990    0.0000 C   0  0  0  0  0  0  0  0  0  0  0  0
    1.5000    0.0000    0.0000 C   0  0  0  0  0  0  0  0  0  0  0  0
    0.7500    1.2990    0.0000 C   0  0  0  0  0  0  0  0  0  0  0  0
   -0.7500    1.2990    0.0000 C   0  0  0  0  0  0  0  0  0  0  0  0
   -1.5000    0.0000    0.0000 C   0  0  0  0  0  0  0  0  0  0  0  0
   -0.7500   -1.2990    0.0000 C   0  0  0  0  0  0  0  0  0  0  0  0
   -1.5000   -2.5981    0.0000 Br  0  0  0  0  0  0  0  0  0  0  0  0
    0.8899   -3.9684    0.0000 N   0  0  0  0  0  0  0  0  0  0  0  0
   -0.5773   -4.2803    0.0000 N   0  0  0  0  0  0  0  0  0  0  0  0
    0.3207   -8.5658    0.0000 C   0  0  0  0  0  0  0  0  0  0  0  0
    1.5342   -9.4474    0.0000 N   0  0  0  0  0  0  0  0  0  0  0  0
   -1.0496   -9.1759    0.0000 O   0  0  0  0  0  0  0  0  0  0  0  0
  2  1  1  1
  2  3  1  0
  3  4  1  0
  4  5  2  0
  5  6  1  0
  6  7  2  0
  7  8  1  0
  8  9  2  0
  9 10  1  0
 10 11  2  0
 11 12  1  0
 12 13  2  0
 13 14  1  0
  7 15  1  0
 15 16  1  0
  2 17  1  0
 17 18  1  0
 17 19  2  0
 15  4  1  0
 13  8  1  0
M  END
>  <Compound_ID>  (993) 
C05449963

>  <Active>  (993) 
0.0

>  <Smiles>  (993) 
C[C@@H](Sc1nnc(-c2ccccc2Br)n1N)C(N)=O

>  <canonical_smi>  (993) 
C[C@@H](Sc1nnc(-c2ccccc2Br)n1N)C(N)=O

>  <Set>  (993) 
G2 inactive

>  <Set_type>  (993) 
Test

>  <MW>  (993) 
342.22

>  <HBD>  (993) 
2

>  <HBA>  (993) 
5

>  <NRB>  (993) 
4

>  <NR>  (993) 
2

>  <NAR>  (993) 
2

>  <PSA>  (993) 
99.82

>  <Standard Type>  (993) 
nan

>  <Standard Relation>  (993) 
nan

>  <Standard Units>  (993) 
nan

>  <Standard Value>  (993) 
nan

>  <Assay ChEMBL ID>  (993) 
nan

>  <Assay Description>  (993) 
nan

>  <BAO Label>  (993) 
nan

$$$$

     RDKit          2D

 21 23  0  0  0  0  0  0  0  0999 V2000
    3.7500   -1.2990    0.0000 N   0  0  0  0  0  4  0  0  0  0  0  0
    3.0000    0.0000    0.0000 C   0  0  0  0  0  0  0  0  0  0  0  0
    1.5000    0.0000    0.0000 C   0  0  0  0  0  0  0  0  0  0  0  0
    0.7500   -1.2990    0.0000 C   0  0  0  0  0  0  0  0  0  0  0  0
   -0.7500   -1.2990    0.0000 C   0  0  0  0  0  0  0  0  0  0  0  0
   -1.5000    0.0000    0.0000 C   0  0  0  0  0  0  0  0  0  0  0  0
   -0.7500    1.2990    0.0000 N   0  0  0  0  0  0  0  0  0  0  0  0
    0.7500    1.2990    0.0000 C   0  0  0  0  0  0  0  0  0  0  0  0
    1.5000    2.5981    0.0000 N   0  0  0  0  0  0  0  0  0  0  0  0
    3.0000    2.5981    0.0000 C   0  0  0  0  0  0  0  0  0  0  0  0
    3.7500    3.8971    0.0000 C   0  0  0  0  0  0  0  0  0  0  0  0
    3.0000    5.1962    0.0000 N   0  0  0  0  0  0  0  0  0  0  0  0
    3.7500    6.4952    0.0000 C   0  0  0  0  0  0  0  0  0  0  0  0
    5.2500    6.4952    0.0000 C   0  0  0  0  0  0  0  0  0  0  0  0
    6.0000    7.7942    0.0000 C   0  0  0  0  0  0  0  0  0  0  0  0
    5.2500    9.0933    0.0000 C   0  0  0  0  0  0  0  0  0  0  0  0
    3.7500    9.0933    0.0000 C   0  0  0  0  0  0  0  0  0  0  0  0
    3.0000    7.7942    0.0000 C   0  0  0  0  0  0  0  0  0  0  0  0
    1.5000    7.7942    0.0000 Cl  0  0  0  0  0  0  0  0  0  0  0  0
    1.5000    5.1962    0.0000 C   0  0  0  0  0  0  0  0  0  0  0  0
    0.7500    3.8971    0.0000 C   0  0  0  0  0  0  0  0  0  0  0  0
  1  2  1  0
  2  3  1  0
  3  4  2  0
  4  5  1  0
  5  6  2  0
  6  7  1  0
  7  8  2  0
  8  9  1  0
  9 10  1  0
 10 11  1  0
 11 12  1  0
 12 13  1  0
 13 14  2  0
 14 15  1  0
 15 16  2  0
 16 17  1  0
 17 18  2  0
 18 19  1  0
 12 20  1  0
 20 21  1  0
  8  3  1  0
 21  9  1  0
 18 13  1  0
M  CHG  1   1   1
M  END
>  <Compound_ID>  (994) 
C35719738

>  <Active>  (994) 
0.0

>  <Smiles>  (994) 
[NH3+]Cc1cccnc1N1CCN(c2ccccc2Cl)CC1

>  <canonical_smi>  (994) 
[NH3+]Cc1cccnc1N1CCN(c2ccccc2Cl)CC1

>  <Set>  (994) 
G2 inactive

>  <Set_type>  (994) 
Test

>  <MW>  (994) 
303.82

>  <HBD>  (994) 
1

>  <HBA>  (994) 
3

>  <NRB>  (994) 
3

>  <NR>  (994) 
3

>  <NAR>  (994) 
2

>  <PSA>  (994) 
47.01

>  <Standard Type>  (994) 
nan

>  <Standard Relation>  (994) 
nan

>  <Standard Units>  (994) 
nan

>  <Standard Value>  (994) 
nan

>  <Assay ChEMBL ID>  (994) 
nan

>  <Assay Description>  (994) 
nan

>  <BAO Label>  (994) 
nan

$$$$

     RDKit          2D

 22 23  0  0  0  0  0  0  0  0999 V2000
    5.2500   -2.7990    0.0000 C   0  0  0  0  0  0  0  0  0  0  0  0
    5.2500   -1.2990    0.0000 C   0  0  0  0  0  0  0  0  0  0  0  0
    5.2500    0.2010    0.0000 C   0  0  0  0  0  0  0  0  0  0  0  0
    6.7500   -1.2990    0.0000 C   0  0  0  0  0  0  0  0  0  0  0  0
    3.7500   -1.2990    0.0000 O   0  0  0  0  0  0  0  0  0  0  0  0
    3.0000    0.0000    0.0000 C   0  0  0  0  0  0  0  0  0  0  0  0
    3.7500    1.2990    0.0000 O   0  0  0  0  0  0  0  0  0  0  0  0
    1.5000    0.0000    0.0000 N   0  0  0  0  0  0  0  0  0  0  0  0
    0.7500   -1.2990    0.0000 C   0  0  0  0  0  0  0  0  0  0  0  0
   -0.7500   -1.2990    0.0000 C   0  0  0  0  0  0  0  0  0  0  0  0
   -1.5000    0.0000    0.0000 C   0  0  0  0  0  0  0  0  0  0  0  0
   -3.0000    0.0000    0.0000 N   0  0  0  0  0  4  0  0  0  0  0  0
   -0.7500    1.2990    0.0000 C   0  0  0  0  0  0  0  0  0  0  0  0
   -1.5000    2.5981    0.0000 C   0  0  0  0  0  0  0  0  0  0  0  0
   -0.7500    3.8971    0.0000 C   0  0  0  0  0  0  0  0  0  0  0  0
   -1.5000    5.1962    0.0000 C   0  0  0  0  0  0  0  0  0  0  0  0
   -0.7500    6.4952    0.0000 F   0  0  0  0  0  0  0  0  0  0  0  0
   -3.0000    5.1962    0.0000 C   0  0  0  0  0  0  0  0  0  0  0  0
   -3.7500    3.8971    0.0000 C   0  0  0  0  0  0  0  0  0  0  0  0
   -5.2500    3.8971    0.0000 F   0  0  0  0  0  0  0  0  0  0  0  0
   -3.0000    2.5981    0.0000 C   0  0  0  0  0  0  0  0  0  0  0  0
    0.7500    1.2990    0.0000 C   0  0  0  0  0  0  0  0  0  0  0  0
  1  2  1  0
  2  3  1  0
  2  4  1  0
  2  5  1  0
  5  6  1  0
  6  7  2  0
  6  8  1  0
  8  9  1  0
  9 10  1  0
 10 11  1  0
 11 12  1  1
 11 13  1  0
 13 14  1  1
 14 15  2  0
 15 16  1  0
 16 17  1  0
 16 18  2  0
 18 19  1  0
 19 20  1  0
 19 21  2  0
 13 22  1  0
 22  8  1  0
 21 14  1  0
M  CHG  1  12   1
M  END
>  <Compound_ID>  (995) 
C44136342

>  <Active>  (995) 
0.0

>  <Smiles>  (995) 
CC(C)(C)OC(=O)N1CC[C@@H]([NH3+])[C@@H](c2cc(F)cc(F)c2)C1

>  <canonical_smi>  (995) 
CC(C)(C)OC(=O)N1CC[C@@H]([NH3+])[C@@H](c2cc(F)cc(F)c2)C1

>  <Set>  (995) 
G2 inactive

>  <Set_type>  (995) 
Test

>  <MW>  (995) 
313.37

>  <HBD>  (995) 
1

>  <HBA>  (995) 
2

>  <NRB>  (995) 
1

>  <NR>  (995) 
2

>  <NAR>  (995) 
1

>  <PSA>  (995) 
57.18

>  <Standard Type>  (995) 
nan

>  <Standard Relation>  (995) 
nan

>  <Standard Units>  (995) 
nan

>  <Standard Value>  (995) 
nan

>  <Assay ChEMBL ID>  (995) 
nan

>  <Assay Description>  (995) 
nan

>  <BAO Label>  (995) 
nan

$$$$

     RDKit          2D

 20 22  0  0  0  0  0  0  0  0999 V2000
    4.6740   -4.8322    0.0000 C   0  0  0  0  0  0  0  0  0  0  0  0
    3.3037   -4.2221    0.0000 N   0  0  0  0  0  0  0  0  0  0  0  0
    2.9918   -2.7549    0.0000 N   0  0  0  0  0  4  0  0  0  0  0  0
    1.5000   -2.5981    0.0000 C   0  0  0  0  0  0  0  0  0  0  0  0
    0.7500   -1.2990    0.0000 C   0  0  0  0  0  0  0  0  0  0  0  0
    1.5000    0.0000    0.0000 C   0  0  0  0  0  0  0  0  0  0  0  0
    0.7500    1.2990    0.0000 C   0  0  0  0  0  0  0  0  0  0  0  0
   -0.7500    1.2990    0.0000 O   0  0  0  0  0  0  0  0  0  0  0  0
   -1.5000    0.0000    0.0000 C   0  0  0  0  0  0  0  0  0  0  0  0
   -0.7500   -1.2990    0.0000 C   0  0  0  0  0  0  0  0  0  0  0  0
    0.8899   -3.9684    0.0000 C   0  0  0  0  0  0  0  0  0  0  0  0
   -0.5773   -4.2803    0.0000 C   0  0  0  0  0  0  0  0  0  0  0  0
   -1.5810   -3.1655    0.0000 C   0  0  0  0  0  0  0  0  0  0  0  0
   -3.0482   -3.4774    0.0000 C   0  0  0  0  0  0  0  0  0  0  0  0
   -3.5118   -4.9040    0.0000 C   0  0  0  0  0  0  0  0  0  0  0  0
   -4.9790   -5.2159    0.0000 Br  0  0  0  0  0  0  0  0  0  0  0  0
   -2.5081   -6.0187    0.0000 C   0  0  0  0  0  0  0  0  0  0  0  0
   -1.0409   -5.7068    0.0000 C   0  0  0  0  0  0  0  0  0  0  0  0
    2.0046   -4.9721    0.0000 C   0  0  0  0  0  0  0  0  0  0  0  0
    1.8478   -6.4639    0.0000 N   0  0  0  0  0  0  0  0  0  0  0  0
  1  2  1  0
  2  3  1  0
  3  4  2  0
  4  5  1  0
  5  6  1  0
  6  7  1  0
  7  8  1  0
  8  9  1  0
  9 10  1  0
  4 11  1  0
 11 12  1  0
 12 13  2  0
 13 14  1  0
 14 15  2  0
 15 16  1  0
 15 17  1  0
 17 18  2  0
 11 19  2  0
 19 20  1  0
 19  2  1  0
 10  5  1  0
 18 12  1  0
M  CHG  1   3   1
M  END
>  <Compound_ID>  (996) 
C61672527

>  <Active>  (996) 
0.0

>  <Smiles>  (996) 
Cn1[nH+]c(C2CCOCC2)c(-c2ccc(Br)cc2)c1N

>  <canonical_smi>  (996) 
Cn1[nH+]c(C2CCOCC2)c(-c2ccc(Br)cc2)c1N

>  <Set>  (996) 
G2 inactive

>  <Set_type>  (996) 
Test

>  <MW>  (996) 
337.24

>  <HBD>  (996) 
1

>  <HBA>  (996) 
2

>  <NRB>  (996) 
2

>  <NR>  (996) 
3

>  <NAR>  (996) 
2

>  <PSA>  (996) 
54.32

>  <Standard Type>  (996) 
nan

>  <Standard Relation>  (996) 
nan

>  <Standard Units>  (996) 
nan

>  <Standard Value>  (996) 
nan

>  <Assay ChEMBL ID>  (996) 
nan

>  <Assay Description>  (996) 
nan

>  <BAO Label>  (996) 
nan

$$$$

     RDKit          2D

 14 14  0  0  0  0  0  0  0  0999 V2000
    2.3907    1.0037    0.0000 C   0  0  0  0  0  0  0  0  0  0  0  0
    1.2760    0.0000    0.0000 C   0  0  0  0  0  0  0  0  0  0  0  0
    2.3907   -1.0037    0.0000 C   0  0  0  0  0  0  0  0  0  0  0  0
    0.3943    1.2135    0.0000 C   0  0  0  0  0  0  0  0  0  0  0  0
   -1.0323    0.7500    0.0000 C   0  0  0  0  0  0  0  0  0  0  0  0
   -2.2458    1.6317    0.0000 C   0  0  0  0  0  0  0  0  0  0  0  0
   -3.6161    1.0216    0.0000 O   0  0  0  0  0  0  0  0  0  0  0  0
   -2.0890    3.1235    0.0000 N   0  0  0  0  0  0  0  0  0  0  0  0
   -3.3025    4.0051    0.0000 N   0  0  0  0  0  0  0  0  0  0  0  0
   -1.0323   -0.7500    0.0000 C   0  0  0  0  0  0  0  0  0  0  0  0
   -1.3442   -2.2172    0.0000 C   0  0  0  0  0  0  0  0  0  0  0  0
   -2.5241   -0.5932    0.0000 C   0  0  0  0  0  0  0  0  0  0  0  0
    0.3943   -1.2135    0.0000 N   0  0  0  0  0  0  0  0  0  0  0  0
    0.8578   -2.6401    0.0000 O   0  0  0  0  0  0  0  0  0  0  0  0
  1  2  1  0
  2  3  1  0
  2  4  1  0
  4  5  1  0
  5  6  1  1
  6  7  2  0
  6  8  1  0
  8  9  1  0
  5 10  1  0
 10 11  1  0
 10 12  1  0
 10 13  1  0
 13 14  1  0
 13  2  1  0
M  END
>  <Compound_ID>  (997) 
C27788522

>  <Active>  (997) 
0.0

>  <Smiles>  (997) 
CC1(C)C[C@H](C(=O)NN)C(C)(C)N1O

>  <canonical_smi>  (997) 
CC1(C)C[C@H](C(=O)NN)C(C)(C)N1O

>  <Set>  (997) 
G2 inactive

>  <Set_type>  (997) 
Test

>  <MW>  (997) 
201.27

>  <HBD>  (997) 
3

>  <HBA>  (997) 
4

>  <NRB>  (997) 
1

>  <NR>  (997) 
1

>  <NAR>  (997) 
0

>  <PSA>  (997) 
78.59

>  <Standard Type>  (997) 
nan

>  <Standard Relation>  (997) 
nan

>  <Standard Units>  (997) 
nan

>  <Standard Value>  (997) 
nan

>  <Assay ChEMBL ID>  (997) 
nan

>  <Assay Description>  (997) 
nan

>  <BAO Label>  (997) 
nan

$$$$

     RDKit          2D

 21 23  0  0  0  0  0  0  0  0999 V2000
   -5.0247   -7.0054    0.0000 C   0  0  0  0  0  0  0  0  0  0  0  0
   -4.2299   -5.7333    0.0000 C   0  0  0  0  0  0  0  0  0  0  0  0
   -2.7308   -5.7856    0.0000 C   0  0  0  0  0  0  0  0  0  0  0  0
   -1.9359   -4.5136    0.0000 C   0  0  0  0  0  0  0  0  0  0  0  0
   -2.6401   -3.1891    0.0000 C   0  0  0  0  0  0  0  0  0  0  0  0
   -2.8489   -1.7037    0.0000 N   0  0  0  0  0  4  0  0  0  0  0  0
   -1.2135   -2.7256    0.0000 C   0  0  0  0  0  0  0  0  0  0  0  0
   -0.0000   -3.6073    0.0000 N   0  0  0  0  0  0  0  0  0  0  0  0
    1.2135   -2.7256    0.0000 N   0  0  0  0  0  0  0  0  0  0  0  0
    0.7500   -1.2990    0.0000 C   0  0  0  0  0  0  0  0  0  0  0  0
    1.5000    0.0000    0.0000 C   0  0  0  0  0  0  0  0  0  0  0  0
    0.7500    1.2990    0.0000 C   0  0  0  0  0  0  0  0  0  0  0  0
   -0.7500    1.2990    0.0000 C   0  0  0  0  0  0  0  0  0  0  0  0
   -1.5000    2.5981    0.0000 C   0  0  0  0  0  0  0  0  0  0  0  0
   -2.2500    3.8971    0.0000 F   0  0  0  0  0  0  0  0  0  0  0  0
   -0.2010    3.3481    0.0000 F   0  0  0  0  0  0  0  0  0  0  0  0
   -2.7990    1.8481    0.0000 F   0  0  0  0  0  0  0  0  0  0  0  0
   -1.5000    0.0000    0.0000 C   0  0  0  0  0  0  0  0  0  0  0  0
   -0.7500   -1.2990    0.0000 N   0  0  0  0  0  0  0  0  0  0  0  0
   -4.1392   -3.1368    0.0000 C   0  0  0  0  0  0  0  0  0  0  0  0
   -4.9341   -4.4089    0.0000 C   0  0  0  0  0  0  0  0  0  0  0  0
  1  2  1  0
  2  3  1  0
  3  4  1  0
  4  5  1  0
  5  6  1  0
  5  7  1  0
  7  8  2  0
  8  9  1  0
  9 10  2  0
 10 11  1  0
 11 12  2  0
 12 13  1  0
 13 14  1  0
 14 15  1  0
 14 16  1  0
 14 17  1  0
 13 18  2  0
 18 19  1  0
  5 20  1  0
 20 21  1  0
 21  2  1  0
 19  7  1  0
 19 10  1  0
M  CHG  1   6   1
M  END
>  <Compound_ID>  (998) 
C41033404

>  <Active>  (998) 
0.0

>  <Smiles>  (998) 
CC1CCC([NH3+])(c2nnc3ccc(C(F)(F)F)cn23)CC1

>  <canonical_smi>  (998) 
CC1CCC([NH3+])(c2nnc3ccc(C(F)(F)F)cn23)CC1

>  <Set>  (998) 
G2 inactive

>  <Set_type>  (998) 
Test

>  <MW>  (998) 
299.32

>  <HBD>  (998) 
1

>  <HBA>  (998) 
2

>  <NRB>  (998) 
1

>  <NR>  (998) 
3

>  <NAR>  (998) 
2

>  <PSA>  (998) 
57.83

>  <Standard Type>  (998) 
nan

>  <Standard Relation>  (998) 
nan

>  <Standard Units>  (998) 
nan

>  <Standard Value>  (998) 
nan

>  <Assay ChEMBL ID>  (998) 
nan

>  <Assay Description>  (998) 
nan

>  <BAO Label>  (998) 
nan

$$$$

     RDKit          2D

 24 24  0  0  0  0  0  0  0  0999 V2000
    3.7500   -1.2990    0.0000 C   0  0  0  0  0  0  0  0  0  0  0  0
    3.0000    0.0000    0.0000 C   0  0  0  0  0  0  0  0  0  0  0  0
    3.7500    1.2990    0.0000 C   0  0  0  0  0  0  0  0  0  0  0  0
    1.5000    0.0000    0.0000 C   0  0  0  0  0  0  0  0  0  0  0  0
    0.7500   -1.2990    0.0000 C   0  0  0  0  0  0  0  0  0  0  0  0
   -0.7500   -1.2990    0.0000 C   0  0  0  0  0  0  0  0  0  0  0  0
   -1.5000   -2.5981    0.0000 C   0  0  0  0  0  0  0  0  0  0  0  0
   -0.7500   -3.8971    0.0000 O   0  0  0  0  0  0  0  0  0  0  0  0
   -3.0000   -2.5981    0.0000 O   0  0  0  0  0  0  0  0  0  0  0  0
   -3.7500   -3.8971    0.0000 C   0  0  0  0  0  0  0  0  0  0  0  0
   -5.2500   -3.8971    0.0000 C   0  0  0  0  0  0  0  0  0  0  0  0
   -3.0000   -5.1962    0.0000 C   0  0  0  0  0  0  0  0  0  0  0  0
   -1.5000   -5.1962    0.0000 O   0  0  0  0  0  0  0  0  0  0  0  0
   -3.7500   -6.4952    0.0000 N   0  0  0  0  0  0  0  0  0  0  0  0
   -3.0000   -7.7942    0.0000 C   0  0  0  0  0  0  0  0  0  0  0  0
   -3.7500   -9.0933    0.0000 N   0  0  0  0  0  0  0  0  0  0  0  0
   -1.5000   -7.7942    0.0000 O   0  0  0  0  0  0  0  0  0  0  0  0
   -1.5000    0.0000    0.0000 C   0  0  0  0  0  0  0  0  0  0  0  0
   -3.0000    0.0000    0.0000 O   0  0  0  0  0  0  0  0  0  0  0  0
   -0.7500    1.2990    0.0000 C   0  0  0  0  0  0  0  0  0  0  0  0
   -1.5000    2.5981    0.0000 C   0  0  0  0  0  0  0  0  0  0  0  0
   -0.7500    3.8971    0.0000 C   0  0  0  0  0  0  0  0  0  0  0  0
   -3.0000    2.5981    0.0000 C   0  0  0  0  0  0  0  0  0  0  0  0
    0.7500    1.2990    0.0000 C   0  0  0  0  0  0  0  0  0  0  0  0
  1  2  1  0
  2  3  1  0
  2  4  1  0
  4  5  2  0
  5  6  1  0
  6  7  1  0
  7  8  2  0
  7  9  1  0
  9 10  1  0
 10 11  1  1
 10 12  1  0
 12 13  2  0
 12 14  1  0
 14 15  1  0
 15 16  1  0
 15 17  2  0
  6 18  2  0
 18 19  1  0
 18 20  1  0
 20 21  1  0
 21 22  1  0
 21 23  1  0
 20 24  2  0
 24  4  1  0
M  END
>  <Compound_ID>  (999) 
C07204894

>  <Active>  (999) 
0.0

>  <Smiles>  (999) 
CC(C)c1cc(C(=O)O[C@H](C)C(=O)NC(N)=O)c(O)c(C(C)C)c1

>  <canonical_smi>  (999) 
CC(C)c1cc(C(=O)O[C@H](C)C(=O)NC(N)=O)c(O)c(C(C)C)c1

>  <Set>  (999) 
G2 inactive

>  <Set_type>  (999) 
Test

>  <MW>  (999) 
336.39

>  <HBD>  (999) 
3

>  <HBA>  (999) 
5

>  <NRB>  (999) 
5

>  <NR>  (999) 
1

>  <NAR>  (999) 
1

>  <PSA>  (999) 
118.72

>  <Standard Type>  (999) 
nan

>  <Standard Relation>  (999) 
nan

>  <Standard Units>  (999) 
nan

>  <Standard Value>  (999) 
nan

>  <Assay ChEMBL ID>  (999) 
nan

>  <Assay Description>  (999) 
nan

>  <BAO Label>  (999) 
nan

$$$$

     RDKit          2D

 21 23  0  0  0  0  0  0  0  0999 V2000
    4.6740   -4.8322    0.0000 N   0  0  0  0  0  0  0  0  0  0  0  0
    3.3037   -4.2221    0.0000 C   0  0  0  0  0  0  0  0  0  0  0  0
    2.9918   -2.7549    0.0000 N   0  0  0  0  0  0  0  0  0  0  0  0
    1.5000   -2.5981    0.0000 C   0  0  0  0  0  0  0  0  0  0  0  0
    0.7500   -1.2990    0.0000 C   0  0  0  0  0  0  0  0  0  0  0  0
    1.5000    0.0000    0.0000 C   0  0  0  0  0  0  0  0  0  0  0  0
    0.7500    1.2990    0.0000 C   0  0  0  0  0  0  0  0  0  0  0  0
   -0.7500    1.2990    0.0000 C   0  0  0  0  0  0  0  0  0  0  0  0
   -1.5000    0.0000    0.0000 C   0  0  0  0  0  0  0  0  0  0  0  0
   -0.7500   -1.2990    0.0000 C   0  0  0  0  0  0  0  0  0  0  0  0
    0.8899   -3.9684    0.0000 C   0  0  0  0  0  0  0  0  0  0  0  0
    2.0046   -4.9721    0.0000 N   0  0  0  0  0  0  0  0  0  0  0  0
    1.8478   -6.4639    0.0000 N   0  0  0  0  0  0  0  0  0  0  0  0
    0.4775   -7.0740    0.0000 C   0  0  0  0  0  0  0  0  0  0  0  0
    0.3207   -8.5658    0.0000 C   0  0  0  0  0  0  0  0  0  0  0  0
   -1.0496   -9.1759    0.0000 C   0  0  0  0  0  0  0  0  0  0  0  0
   -1.2064  -10.6676    0.0000 C   0  0  0  0  0  0  0  0  0  0  0  0
    0.0071  -11.5493    0.0000 C   0  0  0  0  0  0  0  0  0  0  0  0
   -0.1497  -13.0411    0.0000 Cl  0  0  0  0  0  0  0  0  0  0  0  0
    1.3774  -10.9392    0.0000 C   0  0  0  0  0  0  0  0  0  0  0  0
    1.5342   -9.4474    0.0000 C   0  0  0  0  0  0  0  0  0  0  0  0
  1  2  1  0
  2  3  2  0
  3  4  1  0
  4  5  1  0
  5  6  2  0
  6  7  1  0
  7  8  2  0
  8  9  1  0
  9 10  2  0
  4 11  2  0
 11 12  1  0
 12 13  1  0
 13 14  2  0
 14 15  1  0
 15 16  2  0
 16 17  1  0
 17 18  2  0
 18 19  1  0
 18 20  1  0
 20 21  2  0
 12  2  1  0
 21 15  1  0
 10  5  1  0
M  END
>  <Compound_ID>  (1000) 
C05646867

>  <Active>  (1000) 
0.0

>  <Smiles>  (1000) 
Nc1nc(-c2ccccc2)cn1/N=C/c1ccc(Cl)cc1

>  <canonical_smi>  (1000) 
Nc1nc(-c2ccccc2)cn1/N=C/c1ccc(Cl)cc1

>  <Set>  (1000) 
G2 inactive

>  <Set_type>  (1000) 
Test

>  <MW>  (1000) 
296.76

>  <HBD>  (1000) 
1

>  <HBA>  (1000) 
2

>  <NRB>  (1000) 
3

>  <NR>  (1000) 
3

>  <NAR>  (1000) 
3

>  <PSA>  (1000) 
56.2

>  <Standard Type>  (1000) 
nan

>  <Standard Relation>  (1000) 
nan

>  <Standard Units>  (1000) 
nan

>  <Standard Value>  (1000) 
nan

>  <Assay ChEMBL ID>  (1000) 
nan

>  <Assay Description>  (1000) 
nan

>  <BAO Label>  (1000) 
nan

$$$$

     RDKit          2D

 22 24  0  0  0  0  0  0  0  0999 V2000
    3.0000    0.0000    0.0000 C   0  0  0  0  0  0  0  0  0  0  0  0
    1.5000    0.0000    0.0000 C   0  0  0  0  0  0  0  0  0  0  0  0
    0.7500   -1.2990    0.0000 N   0  0  0  0  0  0  0  0  0  0  0  0
   -0.7500   -1.2990    0.0000 C   0  0  0  0  0  0  0  0  0  0  0  0
   -1.5000   -2.5981    0.0000 O   0  0  0  0  0  0  0  0  0  0  0  0
   -1.5000    0.0000    0.0000 N   0  0  0  0  0  0  0  0  0  0  0  0
   -3.0000    0.0000    0.0000 C   0  0  0  0  0  0  0  0  0  0  0  0
   -0.7500    1.2990    0.0000 C   0  0  0  0  0  0  0  0  0  0  0  0
   -1.5000    2.5981    0.0000 N   0  0  0  0  0  4  0  0  0  0  0  0
   -0.7500    3.8971    0.0000 C   0  0  0  0  0  0  0  0  0  0  0  0
   -1.5000    5.1962    0.0000 O   0  0  0  0  0  0  0  0  0  0  0  0
    0.7500    3.8971    0.0000 N   0  0  0  0  0  0  0  0  0  0  0  0
    1.5000    5.1962    0.0000 C   0  0  0  0  0  0  0  0  0  0  0  0
    1.5000    2.5981    0.0000 C   0  0  0  0  0  0  0  0  0  0  0  0
    3.0000    2.5981    0.0000 C   0  0  0  0  0  0  0  0  0  0  0  0
    3.7500    1.2990    0.0000 C   0  0  0  0  0  0  0  0  0  0  0  0
    5.2500    1.2990    0.0000 C   0  0  0  0  0  0  0  0  0  0  0  0
    6.0000    2.5981    0.0000 C   0  0  0  0  0  0  0  0  0  0  0  0
    5.2500    3.8971    0.0000 C   0  0  0  0  0  0  0  0  0  0  0  0
    6.0000    5.1962    0.0000 O   0  0  0  0  0  0  0  0  0  0  0  0
    3.7500    3.8971    0.0000 C   0  0  0  0  0  0  0  0  0  0  0  0
    0.7500    1.2990    0.0000 C   0  0  0  0  0  0  0  0  0  0  0  0
  2  1  1  1
  2  3  1  0
  3  4  1  0
  4  5  2  0
  4  6  1  0
  6  7  1  0
  8  6  1  1
  8  9  1  0
  9 10  2  0
 10 11  1  0
 10 12  1  0
 12 13  1  0
 12 14  1  0
 14 15  1  1
 15 16  2  0
 16 17  1  0
 17 18  2  0
 18 19  1  0
 19 20  1  0
 19 21  2  0
 22 14  1  6
 22  2  1  0
 22  8  1  0
 21 15  1  0
M  CHG  1   9   1
M  END
>  <Compound_ID>  (1001) 
C00525524

>  <Active>  (1001) 
0.0

>  <Smiles>  (1001) 
C[C@H]1NC(=O)N(C)[C@H]2[NH+]=C(O)N(C)[C@@H](c3cccc(O)c3)[C@H]12

>  <canonical_smi>  (1001) 
C[C@H]1NC(=O)N(C)[C@H]2[NH+]=C(O)N(C)[C@@H](c3cccc(O)c3)[C@@H]21

>  <Set>  (1001) 
G2 inactive

>  <Set_type>  (1001) 
Test

>  <MW>  (1001) 
305.36

>  <HBD>  (1001) 
4

>  <HBA>  (1001) 
4

>  <NRB>  (1001) 
1

>  <NR>  (1001) 
3

>  <NAR>  (1001) 
1

>  <PSA>  (1001) 
90.01

>  <Standard Type>  (1001) 
nan

>  <Standard Relation>  (1001) 
nan

>  <Standard Units>  (1001) 
nan

>  <Standard Value>  (1001) 
nan

>  <Assay ChEMBL ID>  (1001) 
nan

>  <Assay Description>  (1001) 
nan

>  <BAO Label>  (1001) 
nan

$$$$

     RDKit          2D

 19 20  0  0  0  0  0  0  0  0999 V2000
    2.4227   -6.8783    0.0000 C   0  0  0  0  0  0  0  0  0  0  0  0
    3.8899   -6.5665    0.0000 C   0  0  0  0  0  0  0  0  0  0  0  0
    5.0046   -7.5702    0.0000 N   0  0  0  0  0  0  0  0  0  0  0  0
    6.3037   -6.8202    0.0000 C   0  0  0  0  0  0  0  0  0  0  0  0
    7.6740   -7.4303    0.0000 O   0  0  0  0  0  0  0  0  0  0  0  0
    5.9918   -5.3529    0.0000 S   0  0  0  0  0  0  0  0  0  0  0  0
    4.5000   -5.1962    0.0000 C   0  0  0  0  0  0  0  0  0  0  0  0
    3.7500   -3.8971    0.0000 S   0  0  0  0  0  0  0  0  0  0  0  0
    2.4510   -4.6471    0.0000 O   0  0  0  0  0  0  0  0  0  0  0  0
    5.0490   -3.1471    0.0000 O   0  0  0  0  0  0  0  0  0  0  0  0
    3.0000   -2.5981    0.0000 N   0  0  0  0  0  0  0  0  0  0  0  0
    1.5000   -2.5981    0.0000 C   0  0  0  0  0  0  0  0  0  0  0  0
    0.7500   -3.8971    0.0000 C   0  0  0  0  0  0  0  0  0  0  0  0
    0.7500   -1.2990    0.0000 C   0  0  0  0  0  0  0  0  0  0  0  0
    1.5000    0.0000    0.0000 C   0  0  0  0  0  0  0  0  0  0  0  0
    0.7500    1.2990    0.0000 C   0  0  0  0  0  0  0  0  0  0  0  0
   -0.7500    1.2990    0.0000 C   0  0  0  0  0  0  0  0  0  0  0  0
   -1.5000    0.0000    0.0000 N   0  0  0  0  0  4  0  0  0  0  0  0
   -0.7500   -1.2990    0.0000 C   0  0  0  0  0  0  0  0  0  0  0  0
  1  2  1  0
  2  3  1  0
  3  4  1  0
  4  5  2  0
  4  6  1  0
  6  7  1  0
  7  8  1  0
  8  9  2  0
  8 10  2  0
  8 11  1  0
 11 12  1  0
 12 13  1  1
 12 14  1  0
 14 15  1  6
 15 16  1  0
 16 17  1  0
 17 18  1  0
 18 19  1  0
  7  2  2  0
 19 14  1  0
M  CHG  1  18   1
M  END
>  <Compound_ID>  (1002) 
C50163383

>  <Active>  (1002) 
0.0

>  <Smiles>  (1002) 
Cc1[nH]c(=O)sc1S(=O)(=O)N[C@@H](C)[C@H]1CCC[NH2+]C1

>  <canonical_smi>  (1002) 
Cc1[nH]c(=O)sc1S(=O)(=O)N[C@@H](C)[C@H]1CCC[NH2+]C1

>  <Set>  (1002) 
G2 inactive

>  <Set_type>  (1002) 
Test

>  <MW>  (1002) 
306.43

>  <HBD>  (1002) 
3

>  <HBA>  (1002) 
3

>  <NRB>  (1002) 
4

>  <NR>  (1002) 
2

>  <NAR>  (1002) 
1

>  <PSA>  (1002) 
95.64

>  <Standard Type>  (1002) 
nan

>  <Standard Relation>  (1002) 
nan

>  <Standard Units>  (1002) 
nan

>  <Standard Value>  (1002) 
nan

>  <Assay ChEMBL ID>  (1002) 
nan

>  <Assay Description>  (1002) 
nan

>  <BAO Label>  (1002) 
nan

$$$$

     RDKit          2D

 26 29  0  0  0  0  0  0  0  0999 V2000
    3.8556   -6.5389    0.0000 H   0  0  0  0  0  0  0  0  0  0  0  0
    2.3638   -6.3821    0.0000 N   0  0  0  0  0  0  0  0  0  0  0  0
    1.7537   -5.0118    0.0000 C   0  0  0  0  0  0  0  0  0  0  0  0
    2.5037   -3.7128    0.0000 N   0  0  0  0  0  0  0  0  0  0  0  0
    1.5000   -2.5981    0.0000 C   0  0  0  0  0  0  0  0  0  0  0  0
    0.7500   -1.2990    0.0000 C   0  0  0  0  0  0  0  0  0  0  0  0
    1.5000    0.0000    0.0000 C   0  0  0  0  0  0  0  0  0  0  0  0
    0.7500    1.2990    0.0000 C   0  0  0  0  0  0  0  0  0  0  0  0
   -0.7500    1.2990    0.0000 N   0  0  0  0  0  0  0  0  0  0  0  0
   -1.5000    0.0000    0.0000 C   0  0  0  0  0  0  0  0  0  0  0  0
   -0.7500   -1.2990    0.0000 C   0  0  0  0  0  0  0  0  0  0  0  0
    2.7135   -1.7164    0.0000 C   0  0  0  0  0  0  0  0  0  0  0  0
    4.0838   -2.3265    0.0000 C   0  0  0  0  0  0  0  0  0  0  0  0
    5.2974   -1.4448    0.0000 C   0  0  0  0  0  0  0  0  0  0  0  0
    5.1406    0.0470    0.0000 C   0  0  0  0  0  0  0  0  0  0  0  0
    3.7703    0.6571    0.0000 C   0  0  0  0  0  0  0  0  0  0  0  0
    3.6135    2.1488    0.0000 C   0  0  0  0  0  0  0  0  0  0  0  0
    2.3144    2.8988    0.0000 C   0  0  0  0  0  0  0  0  0  0  0  0
    2.6263    4.3661    0.0000 C   0  0  0  0  0  0  0  0  0  0  0  0
    4.1181    4.5229    0.0000 S   0  0  0  0  0  0  0  0  0  0  0  0
    4.7282    3.1525    0.0000 C   0  0  0  0  0  0  0  0  0  0  0  0
    2.5567   -0.2246    0.0000 C   0  0  0  0  0  0  0  0  0  0  0  0
    0.1297   -3.2082    0.0000 C   0  0  0  0  0  0  0  0  0  0  0  0
   -1.1694   -2.4582    0.0000 O   0  0  0  0  0  0  0  0  0  0  0  0
    0.2865   -4.7000    0.0000 N   0  0  0  0  0  0  0  0  0  0  0  0
   -0.8282   -5.7037    0.0000 C   0  0  0  0  0  0  0  0  0  0  0  0
  1  2  1  0
  2  3  2  0
  3  4  1  0
  4  5  1  0
  5  6  1  6
  6  7  2  0
  7  8  1  0
  8  9  2  0
  9 10  1  0
 10 11  2  0
  5 12  1  0
 12 13  2  0
 13 14  1  0
 14 15  2  0
 15 16  1  0
 16 17  1  0
 17 18  1  0
 18 19  2  0
 19 20  1  0
 20 21  1  0
 16 22  2  0
  5 23  1  0
 23 24  2  0
 23 25  1  0
 25 26  1  0
 25  3  1  0
 11  6  1  0
 22 12  1  0
 21 17  2  0
M  END
>  <Compound_ID>  (1003) 
C34804561

>  <Active>  (1003) 
0.0

>  <Smiles>  (1003) 
[H]/N=C1\N[C@](c2ccncc2)(c2cccc(-c3ccsc3)c2)C(=O)N1C

>  <canonical_smi>  (1003) 
[H]/N=C1\N[C@](c2ccncc2)(c2cccc(-c3ccsc3)c2)C(=O)N1C

>  <Set>  (1003) 
G2 inactive

>  <Set_type>  (1003) 
Test

>  <MW>  (1003) 
348.43

>  <HBD>  (1003) 
2

>  <HBA>  (1003) 
3

>  <NRB>  (1003) 
3

>  <NR>  (1003) 
4

>  <NAR>  (1003) 
3

>  <PSA>  (1003) 
69.08

>  <Standard Type>  (1003) 
nan

>  <Standard Relation>  (1003) 
nan

>  <Standard Units>  (1003) 
nan

>  <Standard Value>  (1003) 
nan

>  <Assay ChEMBL ID>  (1003) 
nan

>  <Assay Description>  (1003) 
nan

>  <BAO Label>  (1003) 
nan

$$$$

     RDKit          2D

 22 23  0  0  0  0  0  0  0  0999 V2000
    4.8187    6.0424    0.0000 C   0  0  0  0  0  0  0  0  0  0  0  0
    3.8835    4.8697    0.0000 C   0  0  0  0  0  0  0  0  0  0  0  0
    4.4315    3.4734    0.0000 C   0  0  0  0  0  0  0  0  0  0  0  0
    3.4962    2.3006    0.0000 C   0  0  0  0  0  0  0  0  0  0  0  0
    4.0442    0.9043    0.0000 C   0  0  0  0  0  0  0  0  0  0  0  0
    2.0130    2.5242    0.0000 C   0  0  0  0  0  0  0  0  0  0  0  0
    1.0777    1.3515    0.0000 C   0  0  0  0  0  0  0  0  0  0  0  0
    1.7286    0.0000    0.0000 C   0  0  0  0  0  0  0  0  0  0  0  0
    1.0777   -1.3515    0.0000 C   0  0  0  0  0  0  0  0  0  0  0  0
    2.0130   -2.5242    0.0000 C   0  0  0  0  0  0  0  0  0  0  0  0
    0.8402   -3.4594    0.0000 F   0  0  0  0  0  0  0  0  0  0  0  0
    3.1857   -1.5890    0.0000 F   0  0  0  0  0  0  0  0  0  0  0  0
    2.9482   -3.6969    0.0000 C   0  0  0  0  0  0  0  0  0  0  0  0
    4.4315   -3.4734    0.0000 F   0  0  0  0  0  0  0  0  0  0  0  0
    2.4002   -5.0933    0.0000 F   0  0  0  0  0  0  0  0  0  0  0  0
   -0.3846   -1.6852    0.0000 N   0  0  0  0  0  0  0  0  0  0  0  0
   -1.5574   -0.7500    0.0000 C   0  0  0  0  0  0  0  0  0  0  0  0
   -1.5574    0.7500    0.0000 C   0  0  0  0  0  0  0  0  0  0  0  0
   -0.3846    1.6852    0.0000 N   0  0  0  0  0  0  0  0  0  0  0  0
    1.4650    3.9205    0.0000 C   0  0  0  0  0  0  0  0  0  0  0  0
   -0.0183    4.1441    0.0000 O   0  0  0  0  0  0  0  0  0  0  0  0
    2.4002    5.0933    0.0000 N   0  0  0  0  0  0  0  0  0  0  0  0
  1  2  2  0
  2  3  1  0
  3  4  2  0
  4  5  1  0
  4  6  1  0
  6  7  1  1
  7  8  2  0
  8  9  1  0
  9 10  1  0
 10 11  1  0
 10 12  1  0
 10 13  1  0
 13 14  1  0
 13 15  1  0
  9 16  2  0
 16 17  1  0
 17 18  1  0
 18 19  1  0
  6 20  1  0
 20 21  2  0
 20 22  1  0
 22  2  1  0
 19  7  1  0
M  END
>  <Compound_ID>  (1004) 
C39215201

>  <Active>  (1004) 
0.0

>  <Smiles>  (1004) 
C=C1C=C(C)[C@@H](C2=CC(C(F)(F)C(F)F)=NCCN2)C(=O)N1

>  <canonical_smi>  (1004) 
C=C1C=C(C)[C@@H](C2=CC(C(F)(F)C(F)F)=NCCN2)C(=O)N1

>  <Set>  (1004) 
G2 inactive

>  <Set_type>  (1004) 
Test

>  <MW>  (1004) 
317.29

>  <HBD>  (1004) 
2

>  <HBA>  (1004) 
2

>  <NRB>  (1004) 
3

>  <NR>  (1004) 
2

>  <NAR>  (1004) 
0

>  <PSA>  (1004) 
53.49

>  <Standard Type>  (1004) 
nan

>  <Standard Relation>  (1004) 
nan

>  <Standard Units>  (1004) 
nan

>  <Standard Value>  (1004) 
nan

>  <Assay ChEMBL ID>  (1004) 
nan

>  <Assay Description>  (1004) 
nan

>  <BAO Label>  (1004) 
nan

$$$$

     RDKit          2D

 28 30  0  0  0  0  0  0  0  0999 V2000
    3.0000    0.0000    0.0000 C   0  0  0  0  0  0  0  0  0  0  0  0
    1.5000    0.0000    0.0000 C   0  0  0  0  0  0  0  0  0  0  0  0
    0.7500   -1.2990    0.0000 C   0  0  0  0  0  0  0  0  0  0  0  0
   -0.7500   -1.2990    0.0000 C   0  0  0  0  0  0  0  0  0  0  0  0
   -1.5000    0.0000    0.0000 C   0  0  0  0  0  0  0  0  0  0  0  0
   -3.0000    0.0000    0.0000 O   0  0  0  0  0  0  0  0  0  0  0  0
   -0.7500    1.2990    0.0000 C   0  0  0  0  0  0  0  0  0  0  0  0
   -1.5000    2.5981    0.0000 C   0  0  0  0  0  0  0  0  0  0  0  0
   -3.0000    2.5981    0.0000 O   0  0  0  0  0  0  0  0  0  0  0  0
   -0.7500    3.8971    0.0000 N   0  0  0  0  0  0  0  0  0  0  0  0
   -1.5000    5.1962    0.0000 N   0  0  0  0  0  0  0  0  0  0  0  0
   -0.7500    6.4952    0.0000 C   0  0  0  0  0  0  0  0  0  0  0  0
    0.7500    6.4952    0.0000 O   0  0  0  0  0  0  0  0  0  0  0  0
   -1.5000    7.7942    0.0000 C   0  0  0  0  0  0  0  0  0  0  0  0
   -0.7500    9.0933    0.0000 C   0  0  0  0  0  0  0  0  0  0  0  0
   -1.5000   10.3923    0.0000 C   0  0  0  0  0  0  0  0  0  0  0  0
   -3.0000   10.3923    0.0000 C   0  0  0  0  0  0  0  0  0  0  0  0
   -3.7500   11.6913    0.0000 S   0  0  0  0  0  0  0  0  0  0  0  0
   -2.4510   12.4413    0.0000 O   0  0  0  0  0  0  0  0  0  0  0  0
   -5.0490   10.9413    0.0000 O   0  0  0  0  0  0  0  0  0  0  0  0
   -4.5000   12.9904    0.0000 N   0  0  0  0  0  0  0  0  0  0  0  0
   -5.9918   13.1472    0.0000 C   0  0  0  0  0  0  0  0  0  0  0  0
   -6.3037   14.6144    0.0000 C   0  0  0  0  0  0  0  0  0  0  0  0
   -5.0046   15.3644    0.0000 C   0  0  0  0  0  0  0  0  0  0  0  0
   -3.8899   14.3607    0.0000 C   0  0  0  0  0  0  0  0  0  0  0  0
   -3.7500    9.0933    0.0000 C   0  0  0  0  0  0  0  0  0  0  0  0
   -3.0000    7.7942    0.0000 C   0  0  0  0  0  0  0  0  0  0  0  0
    0.7500    1.2990    0.0000 C   0  0  0  0  0  0  0  0  0  0  0  0
  1  2  1  0
  2  3  2  0
  3  4  1  0
  4  5  2  0
  5  6  1  0
  5  7  1  0
  7  8  1  0
  8  9  2  0
  8 10  1  0
 10 11  1  0
 11 12  1  0
 12 13  2  0
 12 14  1  0
 14 15  2  0
 15 16  1  0
 16 17  2  0
 17 18  1  0
 18 19  2  0
 18 20  2  0
 18 21  1  0
 21 22  1  0
 22 23  1  0
 23 24  1  0
 24 25  1  0
 17 26  1  0
 26 27  2  0
  7 28  2  0
 28  2  1  0
 27 14  1  0
 25 21  1  0
M  END
>  <Compound_ID>  (1005) 
C17458053

>  <Active>  (1005) 
0.0

>  <Smiles>  (1005) 
Cc1ccc(O)c(C(=O)NNC(=O)c2ccc(S(=O)(=O)N3CCCC3)cc2)c1

>  <canonical_smi>  (1005) 
Cc1ccc(O)c(C(=O)NNC(=O)c2ccc(S(=O)(=O)N3CCCC3)cc2)c1

>  <Set>  (1005) 
G2 inactive

>  <Set_type>  (1005) 
Test

>  <MW>  (1005) 
403.46

>  <HBD>  (1005) 
3

>  <HBA>  (1005) 
5

>  <NRB>  (1005) 
4

>  <NR>  (1005) 
3

>  <NAR>  (1005) 
2

>  <PSA>  (1005) 
115.81

>  <Standard Type>  (1005) 
nan

>  <Standard Relation>  (1005) 
nan

>  <Standard Units>  (1005) 
nan

>  <Standard Value>  (1005) 
nan

>  <Assay ChEMBL ID>  (1005) 
nan

>  <Assay Description>  (1005) 
nan

>  <BAO Label>  (1005) 
nan

$$$$

     RDKit          2D

 24 26  0  0  0  0  0  0  0  0999 V2000
   -2.0143    8.6263    0.0000 C   0  0  0  0  0  0  0  0  0  0  0  0
   -0.8995    7.6226    0.0000 C   0  0  0  0  0  0  0  0  0  0  0  0
   -1.2114    6.1554    0.0000 O   0  0  0  0  0  0  0  0  0  0  0  0
   -0.0967    5.1517    0.0000 C   0  0  0  0  0  0  0  0  0  0  0  0
    1.3299    5.6152    0.0000 O   0  0  0  0  0  0  0  0  0  0  0  0
   -0.4086    3.6844    0.0000 C   0  0  0  0  0  0  0  0  0  0  0  0
    0.7062    2.6807    0.0000 C   0  0  0  0  0  0  0  0  0  0  0  0
    2.1328    3.1443    0.0000 C   0  0  0  0  0  0  0  0  0  0  0  0
    3.2475    2.1406    0.0000 C   0  0  0  0  0  0  0  0  0  0  0  0
    4.6741    2.6041    0.0000 C   0  0  0  0  0  0  0  0  0  0  0  0
    4.9859    4.0713    0.0000 C   0  0  0  0  0  0  0  0  0  0  0  0
    6.4125    4.5348    0.0000 Cl  0  0  0  0  0  0  0  0  0  0  0  0
    3.8712    5.0750    0.0000 C   0  0  0  0  0  0  0  0  0  0  0  0
    2.4446    4.6115    0.0000 C   0  0  0  0  0  0  0  0  0  0  0  0
    0.3943    1.2135    0.0000 C   0  0  0  0  0  0  0  0  0  0  0  0
    1.2760    0.0000    0.0000 C   0  0  0  0  0  0  0  0  0  0  0  0
    2.7760    0.0000    0.0000 O   0  0  0  0  0  0  0  0  0  0  0  0
    0.3943   -1.2135    0.0000 N   0  0  0  0  0  0  0  0  0  0  0  0
   -1.0323   -0.7500    0.0000 N   0  0  0  0  0  0  0  0  0  0  0  0
   -1.0323    0.7500    0.0000 C   0  0  0  0  0  0  0  0  0  0  0  0
   -2.1470    1.7537    0.0000 C   0  0  0  0  0  0  0  0  0  0  0  0
   -1.8351    3.2209    0.0000 C   0  0  0  0  0  0  0  0  0  0  0  0
   -3.3342    3.2733    0.0000 C   0  0  0  0  0  0  0  0  0  0  0  0
   -2.0439    4.7063    0.0000 O   0  0  0  0  0  0  0  0  0  0  0  0
  1  2  1  0
  2  3  1  0
  3  4  1  0
  4  5  2  0
  6  4  1  1
  6  7  1  0
  7  8  1  1
  8  9  2  0
  9 10  1  0
 10 11  2  0
 11 12  1  0
 11 13  1  0
 13 14  2  0
  7 15  1  0
 15 16  1  0
 16 17  1  0
 16 18  2  0
 18 19  1  0
 19 20  1  0
 20 21  1  0
 21 22  1  0
 22 23  1  6
 22 24  1  0
 22  6  1  0
 14  8  1  0
 20 15  2  0
M  END
>  <Compound_ID>  (1006) 
C06667965

>  <Active>  (1006) 
0.0

>  <Smiles>  (1006) 
CCOC(=O)[C@H]1[C@@H](c2ccc(Cl)cc2)c2c(O)n[nH]c2C[C@@]1(C)O

>  <canonical_smi>  (1006) 
CCOC(=O)[C@H]1[C@@H](c2ccc(Cl)cc2)c2c(O)n[nH]c2C[C@@]1(C)O

>  <Set>  (1006) 
G2 inactive

>  <Set_type>  (1006) 
Test

>  <MW>  (1006) 
350.8

>  <HBD>  (1006) 
3

>  <HBA>  (1006) 
5

>  <NRB>  (1006) 
3

>  <NR>  (1006) 
3

>  <NAR>  (1006) 
2

>  <PSA>  (1006) 
95.44

>  <Standard Type>  (1006) 
nan

>  <Standard Relation>  (1006) 
nan

>  <Standard Units>  (1006) 
nan

>  <Standard Value>  (1006) 
nan

>  <Assay ChEMBL ID>  (1006) 
nan

>  <Assay Description>  (1006) 
nan

>  <BAO Label>  (1006) 
nan

$$$$

     RDKit          2D

 25 27  0  0  0  0  0  0  0  0999 V2000
   -2.9716  -10.0434    0.0000 C   0  0  0  0  0  0  0  0  0  0  0  0
   -2.5081   -8.6168    0.0000 C   0  0  0  0  0  0  0  0  0  0  0  0
   -3.5118   -7.5021    0.0000 C   0  0  0  0  0  0  0  0  0  0  0  0
   -1.0409   -8.3049    0.0000 C   0  0  0  0  0  0  0  0  0  0  0  0
   -0.5773   -6.8783    0.0000 C   0  0  0  0  0  0  0  0  0  0  0  0
    0.8899   -6.5665    0.0000 C   0  0  0  0  0  0  0  0  0  0  0  0
    2.0046   -7.5702    0.0000 C   0  0  0  0  0  0  0  0  0  0  0  0
    3.3037   -6.8202    0.0000 C   0  0  0  0  0  0  0  0  0  0  0  0
    2.9918   -5.3529    0.0000 C   0  0  0  0  0  0  0  0  0  0  0  0
    1.5000   -5.1962    0.0000 C   0  0  0  0  0  0  0  0  0  0  0  0
    0.7500   -3.8971    0.0000 N   0  0  0  0  0  0  0  0  0  0  0  0
    1.5000   -2.5981    0.0000 C   0  0  0  0  0  0  0  0  0  0  0  0
    3.0000   -2.5981    0.0000 O   0  0  0  0  0  0  0  0  0  0  0  0
    0.7500   -1.2990    0.0000 C   0  0  0  0  0  0  0  0  0  0  0  0
    1.5000    0.0000    0.0000 C   0  0  0  0  0  0  0  0  0  0  0  0
    0.7500    1.2990    0.0000 C   0  0  0  0  0  0  0  0  0  0  0  0
   -0.7500    1.2990    0.0000 C   0  0  0  0  0  0  0  0  0  0  0  0
   -1.5000    0.0000    0.0000 C   0  0  0  0  0  0  0  0  0  0  0  0
   -0.7500   -1.2990    0.0000 C   0  0  0  0  0  0  0  0  0  0  0  0
   -2.2418    1.4558    0.0000 N   0  0  0  0  0  0  0  0  0  0  0  0
   -2.5537    2.9231    0.0000 C   0  0  0  0  0  0  0  0  0  0  0  0
   -3.9240    3.5332    0.0000 O   0  0  0  0  0  0  0  0  0  0  0  0
   -1.2546    3.6731    0.0000 N   0  0  0  0  0  0  0  0  0  0  0  0
   -0.1399    2.6694    0.0000 C   0  0  0  0  0  0  0  0  0  0  0  0
    1.3273    2.9812    0.0000 O   0  0  0  0  0  0  0  0  0  0  0  0
  1  2  1  0
  2  3  1  0
  2  4  1  0
  4  5  1  0
  6  5  1  1
  6  7  1  0
  7  8  1  0
  8  9  1  0
  9 10  1  0
 10 11  1  6
 11 12  1  0
 12 13  2  0
 12 14  1  0
 14 15  1  0
 15 16  1  0
 16 17  1  0
 17 18  1  0
 18 19  1  0
 17 20  1  0
 20 21  1  0
 21 22  2  0
 21 23  1  0
 23 24  1  0
 24 25  2  0
 10  6  1  0
 19 14  1  0
 24 17  1  0
M  END
>  <Compound_ID>  (1007) 
C67277129

>  <Active>  (1007) 
0.0

>  <Smiles>  (1007) 
CC(C)CC[C@@H]1CCC[C@H]1NC(=O)C1CCC2(CC1)NC(=O)NC2=O

>  <canonical_smi>  (1007) 
CC(C)CC[C@@H]1CCC[C@H]1NC(=O)C1CCC2(CC1)NC(=O)NC2=O

>  <Set>  (1007) 
G2 inactive

>  <Set_type>  (1007) 
Test

>  <MW>  (1007) 
349.48

>  <HBD>  (1007) 
3

>  <HBA>  (1007) 
3

>  <NRB>  (1007) 
5

>  <NR>  (1007) 
3

>  <NAR>  (1007) 
0

>  <PSA>  (1007) 
87.3

>  <Standard Type>  (1007) 
nan

>  <Standard Relation>  (1007) 
nan

>  <Standard Units>  (1007) 
nan

>  <Standard Value>  (1007) 
nan

>  <Assay ChEMBL ID>  (1007) 
nan

>  <Assay Description>  (1007) 
nan

>  <BAO Label>  (1007) 
nan

$$$$

     RDKit          2D

 23 26  0  0  0  0  0  0  0  0999 V2000
    3.0000    0.0000    0.0000 C   0  0  0  0  0  0  0  0  0  0  0  0
    1.5000    0.0000    0.0000 N   0  0  0  0  0  0  0  0  0  0  0  0
    0.7500   -1.2990    0.0000 C   0  0  0  0  0  0  0  0  0  0  0  0
   -0.7500   -1.2990    0.0000 C   0  0  0  0  0  0  0  0  0  0  0  0
   -1.5000    0.0000    0.0000 C   0  0  0  0  0  0  0  0  0  0  0  0
   -0.7500    1.2990    0.0000 C   0  0  0  0  0  0  0  0  0  0  0  0
    0.7500    1.2990    0.0000 C   0  0  0  0  0  0  0  0  0  0  0  0
   -1.5000    2.5981    0.0000 C   0  0  0  0  0  0  0  0  0  0  0  0
   -0.7500    3.8971    0.0000 N   0  0  0  0  0  0  0  0  0  0  0  0
   -1.5000    5.1962    0.0000 C   0  0  0  0  0  0  0  0  0  0  0  0
   -0.7500    6.4952    0.0000 C   0  0  0  0  0  0  0  0  0  0  0  0
    0.7500    6.4952    0.0000 C   0  0  0  0  0  0  0  0  0  0  0  0
    1.5000    7.7942    0.0000 C   0  0  0  0  0  0  0  0  0  0  0  0
    0.7500    9.0933    0.0000 C   0  0  0  0  0  0  0  0  0  0  0  0
   -0.7500    9.0933    0.0000 C   0  0  0  0  0  0  0  0  0  0  0  0
   -1.5000    7.7942    0.0000 C   0  0  0  0  0  0  0  0  0  0  0  0
   -3.0000    2.5981    0.0000 N   0  0  0  0  0  0  0  0  0  0  0  0
   -3.7500    1.2990    0.0000 C   0  0  0  0  0  0  0  0  0  0  0  0
   -5.2172    0.9872    0.0000 N   0  0  0  0  0  0  0  0  0  0  0  0
   -5.3740   -0.5046    0.0000 N   0  0  0  0  0  0  0  0  0  0  0  0
   -4.0037   -1.1147    0.0000 C   0  0  0  0  0  0  0  0  0  0  0  0
   -3.6918   -2.5819    0.0000 N   0  0  0  0  0  4  0  0  0  0  0  0
   -3.0000    0.0000    0.0000 C   0  0  0  0  0  0  0  0  0  0  0  0
  1  2  1  0
  2  3  1  0
  3  4  1  0
  4  5  1  0
  5  6  2  0
  6  7  1  0
  6  8  1  0
  8  9  1  6
  9 10  1  0
 10 11  1  0
 11 12  2  0
 12 13  1  0
 13 14  2  0
 14 15  1  0
 15 16  2  0
  8 17  1  0
 17 18  2  0
 18 19  1  0
 19 20  2  0
 20 21  1  0
 21 22  1  0
 21 23  2  0
  7  2  1  0
 16 11  1  0
 23 18  1  0
 23  5  1  0
M  CHG  1  22   1
M  END
>  <Compound_ID>  (1008) 
C39443738

>  <Active>  (1008) 
0.0

>  <Smiles>  (1008) 
CN1CCC2=C(C1)[C@@H](NCc1ccccc1)N=C1N=NC([NH3+])=C12

>  <canonical_smi>  (1008) 
CN1CCC2=C(C1)[C@@H](NCc1ccccc1)N=C1N=NC([NH3+])=C12

>  <Set>  (1008) 
G2 inactive

>  <Set_type>  (1008) 
Test

>  <MW>  (1008) 
309.4

>  <HBD>  (1008) 
2

>  <HBA>  (1008) 
2

>  <NRB>  (1008) 
3

>  <NR>  (1008) 
4

>  <NAR>  (1008) 
1

>  <PSA>  (1008) 
79.99

>  <Standard Type>  (1008) 
nan

>  <Standard Relation>  (1008) 
nan

>  <Standard Units>  (1008) 
nan

>  <Standard Value>  (1008) 
nan

>  <Assay ChEMBL ID>  (1008) 
nan

>  <Assay Description>  (1008) 
nan

>  <BAO Label>  (1008) 
nan

$$$$

     RDKit          2D

 20 21  0  0  0  0  0  0  0  0999 V2000
    8.2500    1.2990    0.0000 N   0  0  0  0  0  0  0  0  0  0  0  0
    7.5000   -0.0000    0.0000 S   0  0  0  0  0  0  0  0  0  0  0  0
    8.7990   -0.7500    0.0000 O   0  0  0  0  0  0  0  0  0  0  0  0
    6.2010    0.7500    0.0000 O   0  0  0  0  0  0  0  0  0  0  0  0
    6.7500   -1.2990    0.0000 C   0  0  0  0  0  0  0  0  0  0  0  0
    5.2500   -1.2990    0.0000 C   0  0  0  0  0  0  0  0  0  0  0  0
    4.5000   -2.5981    0.0000 N   0  0  0  0  0  0  0  0  0  0  0  0
    3.0000   -2.5981    0.0000 S   0  0  0  0  0  0  0  0  0  0  0  0
    3.0000   -4.0981    0.0000 O   0  0  0  0  0  0  0  0  0  0  0  0
    3.0000   -1.0981    0.0000 O   0  0  0  0  0  0  0  0  0  0  0  0
    1.5000   -2.5981    0.0000 C   0  0  0  0  0  0  0  0  0  0  0  0
    0.7500   -3.8971    0.0000 C   0  0  0  0  0  0  0  0  0  0  0  0
   -0.7500   -3.8971    0.0000 C   0  0  0  0  0  0  0  0  0  0  0  0
   -1.5000   -2.5981    0.0000 C   0  0  0  0  0  0  0  0  0  0  0  0
   -0.7500   -1.2990    0.0000 C   0  0  0  0  0  0  0  0  0  0  0  0
    0.7500   -1.2990    0.0000 C   0  0  0  0  0  0  0  0  0  0  0  0
    1.5000    0.0000    0.0000 C   0  0  0  0  0  0  0  0  0  0  0  0
    0.7500    1.2990    0.0000 C   0  0  0  0  0  0  0  0  0  0  0  0
   -0.7500    1.2990    0.0000 N   0  0  0  0  0  0  0  0  0  0  0  0
   -1.5000    0.0000    0.0000 C   0  0  0  0  0  0  0  0  0  0  0  0
  1  2  1  0
  2  3  2  0
  2  4  2  0
  2  5  1  0
  5  6  1  0
  6  7  1  0
  7  8  1  0
  8  9  2  0
  8 10  2  0
  8 11  1  0
 11 12  2  0
 12 13  1  0
 13 14  2  0
 14 15  1  0
 15 16  2  0
 16 17  1  0
 17 18  1  0
 18 19  1  0
 19 20  1  0
 16 11  1  0
 20 15  1  0
M  END
>  <Compound_ID>  (1009) 
C36201649

>  <Active>  (1009) 
0.0

>  <Smiles>  (1009) 
NS(=O)(=O)CCNS(=O)(=O)c1cccc2c1CCNC2

>  <canonical_smi>  (1009) 
NS(=O)(=O)CCNS(=O)(=O)c1cccc2c1CCNC2

>  <Set>  (1009) 
G2 inactive

>  <Set_type>  (1009) 
Test

>  <MW>  (1009) 
319.41

>  <HBD>  (1009) 
3

>  <HBA>  (1009) 
5

>  <NRB>  (1009) 
5

>  <NR>  (1009) 
2

>  <NAR>  (1009) 
1

>  <PSA>  (1009) 
118.36

>  <Standard Type>  (1009) 
nan

>  <Standard Relation>  (1009) 
nan

>  <Standard Units>  (1009) 
nan

>  <Standard Value>  (1009) 
nan

>  <Assay ChEMBL ID>  (1009) 
nan

>  <Assay Description>  (1009) 
nan

>  <BAO Label>  (1009) 
nan

$$$$

     RDKit          2D

 24 26  0  0  0  0  0  0  0  0999 V2000
    3.0000    0.0000    0.0000 C   0  0  0  0  0  0  0  0  0  0  0  0
    1.5000    0.0000    0.0000 C   0  0  0  0  0  0  0  0  0  0  0  0
    0.7500   -1.2990    0.0000 C   0  0  0  0  0  0  0  0  0  0  0  0
   -0.7500   -1.2990    0.0000 C   0  0  0  0  0  0  0  0  0  0  0  0
   -1.5000    0.0000    0.0000 C   0  0  0  0  0  0  0  0  0  0  0  0
   -3.0000    0.0000    0.0000 N   0  0  0  0  0  0  0  0  0  0  0  0
   -3.7500   -1.2990    0.0000 C   0  0  0  0  0  0  0  0  0  0  0  0
   -5.2500   -1.2990    0.0000 N   0  0  0  0  0  0  0  0  0  0  0  0
   -6.0000   -2.5981    0.0000 C   0  0  0  0  0  0  0  0  0  0  0  0
   -5.2500   -3.8971    0.0000 N   0  0  0  0  0  0  0  0  0  0  0  0
   -3.7500   -3.8971    0.0000 C   0  0  0  0  0  0  0  0  0  0  0  0
   -3.0000   -5.1962    0.0000 O   0  0  0  0  0  0  0  0  0  0  0  0
   -3.7500   -6.4952    0.0000 C   0  0  0  0  0  0  0  0  0  0  0  0
   -5.2500   -6.4952    0.0000 C   0  0  0  0  0  0  0  0  0  0  0  0
   -6.0000   -7.7942    0.0000 C   0  0  0  0  0  0  0  0  0  0  0  0
   -5.2500   -9.0933    0.0000 C   0  0  0  0  0  0  0  0  0  0  0  0
   -6.0000  -10.3923    0.0000 Br  0  0  0  0  0  0  0  0  0  0  0  0
   -3.7500   -9.0933    0.0000 C   0  0  0  0  0  0  0  0  0  0  0  0
   -3.0000   -7.7942    0.0000 C   0  0  0  0  0  0  0  0  0  0  0  0
   -3.0000   -2.5981    0.0000 C   0  0  0  0  0  0  0  0  0  0  0  0
   -1.5000   -2.5981    0.0000 N   0  0  0  0  0  0  0  0  0  0  0  0
   -0.7500    1.2990    0.0000 C   0  0  0  0  0  0  0  0  0  0  0  0
   -1.5000    2.5981    0.0000 C   0  0  0  0  0  0  0  0  0  0  0  0
    0.7500    1.2990    0.0000 C   0  0  0  0  0  0  0  0  0  0  0  0
  1  2  1  0
  2  3  2  0
  3  4  1  0
  4  5  2  0
  5  6  1  0
  6  7  1  0
  7  8  2  0
  8  9  1  0
  9 10  2  0
 10 11  1  0
 11 12  1  0
 12 13  1  0
 13 14  2  0
 14 15  1  0
 15 16  2  0
 16 17  1  0
 16 18  1  0
 18 19  2  0
 11 20  2  0
 20 21  1  0
  5 22  1  0
 22 23  1  0
 22 24  2  0
 24  2  1  0
 20  7  1  0
 19 13  1  0
M  END
>  <Compound_ID>  (1010) 
C40755596

>  <Active>  (1010) 
0.0

>  <Smiles>  (1010) 
Cc1ccc(Nc2ncnc(Oc3ccc(Br)cc3)c2N)c(C)c1

>  <canonical_smi>  (1010) 
Cc1ccc(Nc2ncnc(Oc3ccc(Br)cc3)c2N)c(C)c1

>  <Set>  (1010) 
G2 inactive

>  <Set_type>  (1010) 
Test

>  <MW>  (1010) 
385.27

>  <HBD>  (1010) 
2

>  <HBA>  (1010) 
5

>  <NRB>  (1010) 
4

>  <NR>  (1010) 
3

>  <NAR>  (1010) 
3

>  <PSA>  (1010) 
73.06

>  <Standard Type>  (1010) 
nan

>  <Standard Relation>  (1010) 
nan

>  <Standard Units>  (1010) 
nan

>  <Standard Value>  (1010) 
nan

>  <Assay ChEMBL ID>  (1010) 
nan

>  <Assay Description>  (1010) 
nan

>  <BAO Label>  (1010) 
nan

$$$$

     RDKit          2D

 24 26  0  0  0  0  0  0  0  0999 V2000
    3.7500   -1.2990    0.0000 O   0  0  0  0  0  0  0  0  0  0  0  0
    3.0000    0.0000    0.0000 C   0  0  0  0  0  0  0  0  0  0  0  0
    1.5000    0.0000    0.0000 C   0  0  0  0  0  0  0  0  0  0  0  0
    0.7500   -1.2990    0.0000 O   0  0  0  0  0  0  0  0  0  0  0  0
   -0.7500   -1.2990    0.0000 C   0  0  0  0  0  0  0  0  0  0  0  0
   -1.5000   -2.5981    0.0000 O   0  0  0  0  0  0  0  0  0  0  0  0
   -0.7500   -3.8971    0.0000 C   0  0  0  0  0  0  0  0  0  0  0  0
    0.7500   -3.8971    0.0000 C   0  0  0  0  0  0  0  0  0  0  0  0
    1.5000   -5.1962    0.0000 C   0  0  0  0  0  0  0  0  0  0  0  0
    0.7500   -6.4952    0.0000 C   0  0  0  0  0  0  0  0  0  0  0  0
    1.5000   -7.7942    0.0000 Cl  0  0  0  0  0  0  0  0  0  0  0  0
   -0.7500   -6.4952    0.0000 C   0  0  0  0  0  0  0  0  0  0  0  0
   -1.5000   -5.1962    0.0000 C   0  0  0  0  0  0  0  0  0  0  0  0
   -3.0000   -5.1962    0.0000 C   0  0  0  0  0  0  0  0  0  0  0  0
   -3.8817   -6.4097    0.0000 C   0  0  0  0  0  0  0  0  0  0  0  0
   -5.3083   -5.9462    0.0000 C   0  0  0  0  0  0  0  0  0  0  0  0
   -5.3083   -4.4462    0.0000 C   0  0  0  0  0  0  0  0  0  0  0  0
   -3.8817   -3.9826    0.0000 C   0  0  0  0  0  0  0  0  0  0  0  0
   -1.5000    0.0000    0.0000 C   0  0  0  0  0  0  0  0  0  0  0  0
   -3.0000    0.0000    0.0000 O   0  0  0  0  0  0  0  0  0  0  0  0
   -0.7500    1.2990    0.0000 C   0  0  0  0  0  0  0  0  0  0  0  0
   -1.5000    2.5981    0.0000 O   0  0  0  0  0  0  0  0  0  0  0  0
    0.7500    1.2990    0.0000 C   0  0  0  0  0  0  0  0  0  0  0  0
    1.5000    2.5981    0.0000 O   0  0  0  0  0  0  0  0  0  0  0  0
  1  2  1  0
  3  2  1  6
  3  4  1  0
  4  5  1  0
  5  6  1  1
  6  7  1  0
  7  8  2  0
  8  9  1  0
  9 10  2  0
 10 11  1  0
 10 12  1  0
 12 13  2  0
 13 14  1  0
 14 15  1  0
 15 16  1  0
 16 17  1  0
 17 18  1  0
  5 19  1  0
 19 20  1  1
 19 21  1  0
 21 22  1  1
 21 23  1  0
 23 24  1  1
 23  3  1  0
 13  7  1  0
 18 14  1  0
M  END
>  <Compound_ID>  (1011) 
C38599760

>  <Active>  (1011) 
0.0

>  <Smiles>  (1011) 
OC[C@@H]1O[C@@H](Oc2ccc(Cl)cc2C2CCCC2)[C@@H](O)[C@@H](O)[C@H]1O

>  <canonical_smi>  (1011) 
OC[C@@H]1O[C@@H](Oc2ccc(Cl)cc2C2CCCC2)[C@@H](O)[C@@H](O)[C@H]1O

>  <Set>  (1011) 
G2 inactive

>  <Set_type>  (1011) 
Test

>  <MW>  (1011) 
358.82

>  <HBD>  (1011) 
4

>  <HBA>  (1011) 
6

>  <NRB>  (1011) 
4

>  <NR>  (1011) 
3

>  <NAR>  (1011) 
1

>  <PSA>  (1011) 
99.38

>  <Standard Type>  (1011) 
nan

>  <Standard Relation>  (1011) 
nan

>  <Standard Units>  (1011) 
nan

>  <Standard Value>  (1011) 
nan

>  <Assay ChEMBL ID>  (1011) 
nan

>  <Assay Description>  (1011) 
nan

>  <BAO Label>  (1011) 
nan

$$$$

     RDKit          2D

 17 18  0  0  0  0  0  0  0  0999 V2000
   -4.2437   10.6337    0.0000 N   0  0  0  0  0  0  0  0  0  0  0  0
   -4.5556    9.1664    0.0000 C   0  0  0  0  0  0  0  0  0  0  0  0
   -5.9821    8.7029    0.0000 O   0  0  0  0  0  0  0  0  0  0  0  0
   -3.4408    8.1628    0.0000 C   0  0  0  0  0  0  0  0  0  0  0  0
   -3.7527    6.6955    0.0000 C   0  0  0  0  0  0  0  0  0  0  0  0
   -2.6380    5.6918    0.0000 N   0  0  0  0  0  4  0  0  0  0  0  0
   -2.9499    4.2246    0.0000 C   0  0  0  0  0  0  0  0  0  0  0  0
   -1.8351    3.2209    0.0000 C   0  0  0  0  0  0  0  0  0  0  0  0
   -0.4086    3.6844    0.0000 N   0  0  0  0  0  0  0  0  0  0  0  0
    0.7062    2.6807    0.0000 C   0  0  0  0  0  0  0  0  0  0  0  0
    2.1328    3.1443    0.0000 O   0  0  0  0  0  1  0  0  0  0  0  0
    0.3943    1.2135    0.0000 C   0  0  0  0  0  0  0  0  0  0  0  0
    1.2760    0.0000    0.0000 S   0  0  0  0  0  0  0  0  0  0  0  0
    0.3943   -1.2135    0.0000 C   0  0  0  0  0  0  0  0  0  0  0  0
   -1.0323   -0.7500    0.0000 C   0  0  0  0  0  0  0  0  0  0  0  0
   -1.0323    0.7500    0.0000 C   0  0  0  0  0  0  0  0  0  0  0  0
   -2.1470    1.7537    0.0000 N   0  0  0  0  0  0  0  0  0  0  0  0
  1  2  1  0
  2  3  2  0
  2  4  1  0
  4  5  1  0
  5  6  1  0
  6  7  1  0
  7  8  1  0
  8  9  2  0
  9 10  1  0
 10 11  1  0
 10 12  2  0
 12 13  1  0
 13 14  1  0
 14 15  2  0
 15 16  1  0
 16 17  2  0
 17  8  1  0
 16 12  1  0
M  CHG  2   6   1  11  -1
M  END
>  <Compound_ID>  (1012) 
C36747228

>  <Active>  (1012) 
0.0

>  <Smiles>  (1012) 
NC(=O)CC[NH2+]Cc1nc([O-])c2sccc2n1

>  <canonical_smi>  (1012) 
NC(=O)CC[NH2+]Cc1nc([O-])c2sccc2n1

>  <Set>  (1012) 
G2 inactive

>  <Set_type>  (1012) 
Test

>  <MW>  (1012) 
252.3

>  <HBD>  (1012) 
2

>  <HBA>  (1012) 
4

>  <NRB>  (1012) 
5

>  <NR>  (1012) 
2

>  <NAR>  (1012) 
2

>  <PSA>  (1012) 
108.54

>  <Standard Type>  (1012) 
nan

>  <Standard Relation>  (1012) 
nan

>  <Standard Units>  (1012) 
nan

>  <Standard Value>  (1012) 
nan

>  <Assay ChEMBL ID>  (1012) 
nan

>  <Assay Description>  (1012) 
nan

>  <BAO Label>  (1012) 
nan

$$$$

     RDKit          2D

 27 30  0  0  0  0  0  0  0  0999 V2000
   -0.9044   -5.9431    0.0000 C   0  0  0  0  0  0  0  0  0  0  0  0
    0.5628   -6.2550    0.0000 O   0  0  0  0  0  0  0  0  0  0  0  0
    1.5665   -5.1403    0.0000 C   0  0  0  0  0  0  0  0  0  0  0  0
    1.2546   -3.6731    0.0000 C   0  0  0  0  0  0  0  0  0  0  0  0
    0.1399   -2.6694    0.0000 O   0  0  0  0  0  0  0  0  0  0  0  0
    0.7500   -1.2990    0.0000 C   0  0  0  0  0  0  0  0  0  0  0  0
    1.5000    0.0000    0.0000 C   0  0  0  0  0  0  0  0  0  0  0  0
    0.7500    1.2990    0.0000 C   0  0  0  0  0  0  0  0  0  0  0  0
   -0.7500    1.2990    0.0000 C   0  0  0  0  0  0  0  0  0  0  0  0
   -1.5000    0.0000    0.0000 C   0  0  0  0  0  0  0  0  0  0  0  0
   -0.7500   -1.2990    0.0000 C   0  0  0  0  0  0  0  0  0  0  0  0
    2.2418   -1.4558    0.0000 O   0  0  0  0  0  0  0  0  0  0  0  0
    2.5537   -2.9231    0.0000 C   0  0  0  0  0  0  0  0  0  0  0  0
    3.6684   -3.9267    0.0000 O   0  0  0  0  0  0  0  0  0  0  0  0
    3.0583   -5.2971    0.0000 C   0  0  0  0  0  0  0  0  0  0  0  0
    3.8083   -6.5961    0.0000 C   0  0  0  0  0  0  0  0  0  0  0  0
    3.0583   -7.8951    0.0000 C   0  0  0  0  0  0  0  0  0  0  0  0
    1.5583   -7.8951    0.0000 C   0  0  0  0  0  0  0  0  0  0  0  0
    0.0583   -7.8951    0.0000 N   0  0  0  0  0  0  0  0  0  0  0  0
    3.8083   -9.1942    0.0000 C   0  0  0  0  0  0  0  0  0  0  0  0
    3.0583  -10.4932    0.0000 N   0  0  0  0  0  0  0  0  0  0  0  0
    5.3083   -9.1942    0.0000 S   0  0  0  0  0  0  0  0  0  0  0  0
    6.0583   -7.8951    0.0000 C   0  0  0  0  0  0  0  0  0  0  0  0
    7.5583   -7.8951    0.0000 N   0  0  0  0  0  0  0  0  0  0  0  0
    5.3083   -6.5961    0.0000 C   0  0  0  0  0  0  0  0  0  0  0  0
    6.0583   -5.2971    0.0000 C   0  0  0  0  0  0  0  0  0  0  0  0
    6.8083   -3.9980    0.0000 N   0  0  0  0  0  0  0  0  0  0  0  0
  1  2  1  0
  3  2  1  1
  3  4  1  0
  4  5  1  1
  5  6  1  0
  6  7  1  0
  7  8  1  0
  8  9  1  0
  9 10  1  0
 10 11  1  0
  6 12  1  0
 13 12  1  6
 13 14  1  0
 14 15  1  0
 15 16  1  6
 16 17  1  0
 17 18  1  0
 18 19  3  0
 17 20  2  0
 20 21  1  0
 20 22  1  0
 22 23  1  0
 23 24  1  0
 23 25  2  0
 25 26  1  0
 26 27  3  0
 15  3  1  0
 25 16  1  0
 13  4  1  0
 11  6  1  0
M  END
>  <Compound_ID>  (1013) 
C20840677

>  <Active>  (1013) 
0.0

>  <Smiles>  (1013) 
CO[C@H]1[C@H]2OC3(CCCCC3)O[C@@H]2O[C@@H]1C1C(C#N)=C(N)SC(N)=C1C#N

>  <canonical_smi>  (1013) 
CO[C@@H]1[C@@H](C2C(C#N)=C(N)SC(N)=C2C#N)O[C@H]2OC3(CCCCC3)O[C@@H]21

>  <Set>  (1013) 
G2 inactive

>  <Set_type>  (1013) 
Test

>  <MW>  (1013) 
390.47

>  <HBD>  (1013) 
2

>  <HBA>  (1013) 
9

>  <NRB>  (1013) 
2

>  <NR>  (1013) 
4

>  <NAR>  (1013) 
0

>  <PSA>  (1013) 
136.54

>  <Standard Type>  (1013) 
nan

>  <Standard Relation>  (1013) 
nan

>  <Standard Units>  (1013) 
nan

>  <Standard Value>  (1013) 
nan

>  <Assay ChEMBL ID>  (1013) 
nan

>  <Assay Description>  (1013) 
nan

>  <BAO Label>  (1013) 
nan

$$$$

     RDKit          2D

 28 30  0  0  0  0  0  0  0  0999 V2000
    4.5000    0.0000    0.0000 C   0  0  0  0  0  0  0  0  0  0  0  0
    3.0000    0.0000    0.0000 C   0  0  0  0  0  0  0  0  0  0  0  0
    1.5000    0.0000    0.0000 C   0  0  0  0  0  0  0  0  0  0  0  0
    0.7500   -1.2990    0.0000 C   0  0  0  0  0  0  0  0  0  0  0  0
   -0.7500   -1.2990    0.0000 C   0  0  0  0  0  0  0  0  0  0  0  0
   -1.5000    0.0000    0.0000 C   0  0  0  0  0  0  0  0  0  0  0  0
   -0.7500    1.2990    0.0000 C   0  0  0  0  0  0  0  0  0  0  0  0
   -1.5000    2.5981    0.0000 N   0  0  0  0  0  0  0  0  0  0  0  0
   -0.7500    3.8971    0.0000 C   0  0  0  0  0  0  0  0  0  0  0  0
    0.7500    3.8971    0.0000 O   0  0  0  0  0  0  0  0  0  0  0  0
   -1.5000    5.1962    0.0000 C   0  0  0  0  0  0  0  0  0  0  0  0
   -0.7500    6.4952    0.0000 N   0  0  0  0  0  0  0  0  0  0  0  0
   -1.5000    7.7942    0.0000 C   0  0  0  0  0  0  0  0  0  0  0  0
   -3.0000    7.7942    0.0000 O   0  0  0  0  0  0  0  0  0  0  0  0
   -0.7500    9.0933    0.0000 C   0  0  0  0  0  0  0  0  0  0  0  0
   -1.3601   10.4636    0.0000 C   0  0  0  0  0  0  0  0  0  0  0  0
   -0.2454   11.4673    0.0000 N   0  0  0  0  0  0  0  0  0  0  0  0
    1.0537   10.7173    0.0000 N   0  0  0  0  0  0  0  0  0  0  0  0
    2.4240   11.3274    0.0000 C   0  0  0  0  0  0  0  0  0  0  0  0
    3.6375   10.4457    0.0000 C   0  0  0  0  0  0  0  0  0  0  0  0
    5.0078   11.0558    0.0000 C   0  0  0  0  0  0  0  0  0  0  0  0
    5.1646   12.5476    0.0000 C   0  0  0  0  0  0  0  0  0  0  0  0
    6.5349   13.1577    0.0000 O   0  0  0  0  0  1  0  0  0  0  0  0
    3.9511   13.4293    0.0000 N   0  0  0  0  0  0  0  0  0  0  0  0
    2.5808   12.8192    0.0000 N   0  0  0  0  0  0  0  0  0  0  0  0
    0.7418    9.2501    0.0000 C   0  0  0  0  0  0  0  0  0  0  0  0
    1.7455    8.1353    0.0000 C   0  0  0  0  0  0  0  0  0  0  0  0
    0.7500    1.2990    0.0000 C   0  0  0  0  0  0  0  0  0  0  0  0
  1  2  3  0
  2  3  1  0
  3  4  2  0
  4  5  1  0
  5  6  2  0
  6  7  1  0
  7  8  1  0
  8  9  1  0
  9 10  2  0
  9 11  1  0
 11 12  1  0
 12 13  1  0
 13 14  2  0
 13 15  1  0
 15 16  2  0
 16 17  1  0
 17 18  1  0
 18 19  1  0
 19 20  2  0
 20 21  1  0
 21 22  2  0
 22 23  1  0
 22 24  1  0
 24 25  2  0
 18 26  1  0
 26 27  1  6
  7 28  2  0
 28  3  1  0
 26 15  1  0
 25 19  1  0
M  CHG  1  23  -1
M  END
>  <Compound_ID>  (1014) 
C64120283

>  <Active>  (1014) 
0.0

>  <Smiles>  (1014) 
C#Cc1cccc(NC(=O)CNC(=O)C2=CNN(c3ccc([O-])nn3)[C@@H]2C)c1

>  <canonical_smi>  (1014) 
C#Cc1cccc(NC(=O)CNC(=O)C2=CNN(c3ccc([O-])nn3)[C@@H]2C)c1

>  <Set>  (1014) 
G2 inactive

>  <Set_type>  (1014) 
Test

>  <MW>  (1014) 
377.38

>  <HBD>  (1014) 
3

>  <HBA>  (1014) 
7

>  <NRB>  (1014) 
5

>  <NR>  (1014) 
3

>  <NAR>  (1014) 
2

>  <PSA>  (1014) 
122.31

>  <Standard Type>  (1014) 
nan

>  <Standard Relation>  (1014) 
nan

>  <Standard Units>  (1014) 
nan

>  <Standard Value>  (1014) 
nan

>  <Assay ChEMBL ID>  (1014) 
nan

>  <Assay Description>  (1014) 
nan

>  <BAO Label>  (1014) 
nan

$$$$

     RDKit          2D

 29 31  0  0  0  0  0  0  0  0999 V2000
    4.6740   -4.8322    0.0000 C   0  0  0  0  0  0  0  0  0  0  0  0
    3.3037   -4.2221    0.0000 C   0  0  0  0  0  0  0  0  0  0  0  0
    2.9918   -2.7549    0.0000 N   0  0  0  0  0  0  0  0  0  0  0  0
    1.5000   -2.5981    0.0000 N   0  0  0  0  0  0  0  0  0  0  0  0
    0.7500   -1.2990    0.0000 C   0  0  0  0  0  0  0  0  0  0  0  0
    1.5000    0.0000    0.0000 C   0  0  0  0  0  0  0  0  0  0  0  0
    0.7500    1.2990    0.0000 C   0  0  0  0  0  0  0  0  0  0  0  0
   -0.7500    1.2990    0.0000 C   0  0  0  0  0  0  0  0  0  0  0  0
   -1.5000    0.0000    0.0000 C   0  0  0  0  0  0  0  0  0  0  0  0
   -0.7500   -1.2990    0.0000 C   0  0  0  0  0  0  0  0  0  0  0  0
    0.8899   -3.9684    0.0000 C   0  0  0  0  0  0  0  0  0  0  0  0
   -0.5773   -4.2803    0.0000 Cl  0  0  0  0  0  0  0  0  0  0  0  0
    2.0046   -4.9721    0.0000 C   0  0  0  0  0  0  0  0  0  0  0  0
    1.8478   -6.4639    0.0000 C   0  0  0  0  0  0  0  0  0  0  0  0
    3.0613   -7.3456    0.0000 N   0  0  0  0  0  0  0  0  0  0  0  0
    2.9046   -8.8373    0.0000 N   0  0  0  0  0  0  0  0  0  0  0  0
    4.1181   -9.7190    0.0000 C   0  0  0  0  0  0  0  0  0  0  0  0
    5.4884   -9.1089    0.0000 O   0  0  0  0  0  0  0  0  0  0  0  0
    3.9613  -11.2108    0.0000 C   0  0  0  0  0  0  0  0  0  0  0  0
    5.1748  -12.0925    0.0000 C   0  0  0  0  0  0  0  0  0  0  0  0
    5.0180  -13.5843    0.0000 N   0  0  0  0  0  0  0  0  0  0  0  0
    6.2315  -14.4659    0.0000 C   0  0  0  0  0  0  0  0  0  0  0  0
    6.0748  -15.9577    0.0000 N   0  0  0  0  0  0  0  0  0  0  0  0
    7.2883  -16.8394    0.0000 N   0  0  0  0  0  0  0  0  0  0  0  0
    8.6586  -16.2293    0.0000 C   0  0  0  0  0  0  0  0  0  0  0  0
    9.8721  -17.1110    0.0000 O   0  0  0  0  0  0  0  0  0  0  0  0
    8.8154  -14.7375    0.0000 N   0  0  0  0  0  0  0  0  0  0  0  0
    7.6019  -13.8558    0.0000 C   0  0  0  0  0  0  0  0  0  0  0  0
    7.7587  -12.3640    0.0000 O   0  0  0  0  0  0  0  0  0  0  0  0
  2  1  1  1
  2  3  1  0
  3  4  1  0
  4  5  1  0
  5  6  2  0
  6  7  1  0
  7  8  2  0
  8  9  1  0
  9 10  2  0
  4 11  1  0
 11 12  1  6
 11 13  1  0
 13 14  1  6
 14 15  2  0
 15 16  1  0
 16 17  1  0
 17 18  2  0
 17 19  1  0
 19 20  1  0
 20 21  1  0
 22 21  1  6
 22 23  1  0
 23 24  2  0
 24 25  1  0
 25 26  2  0
 25 27  1  0
 27 28  1  0
 28 29  2  0
 13  2  1  0
 28 22  1  0
 10  5  1  0
M  END
>  <Compound_ID>  (1015) 
C38810931

>  <Active>  (1015) 
0.0

>  <Smiles>  (1015) 
C[C@@H]1NN(c2ccccc2)[C@@H](Cl)[C@H]1/C=N/NC(=O)CCN[C@H]1N=NC(=O)NC1=O

>  <canonical_smi>  (1015) 
C[C@@H]1NN(c2ccccc2)[C@@H](Cl)[C@H]1/C=N/NC(=O)CCN[C@H]1N=NC(=O)NC1=O

>  <Set>  (1015) 
G2 inactive

>  <Set_type>  (1015) 
Test

>  <MW>  (1015) 
420.86

>  <HBD>  (1015) 
4

>  <HBA>  (1015) 
6

>  <NRB>  (1015) 
7

>  <NR>  (1015) 
3

>  <NAR>  (1015) 
1

>  <PSA>  (1015) 
139.65

>  <Standard Type>  (1015) 
nan

>  <Standard Relation>  (1015) 
nan

>  <Standard Units>  (1015) 
nan

>  <Standard Value>  (1015) 
nan

>  <Assay ChEMBL ID>  (1015) 
nan

>  <Assay Description>  (1015) 
nan

>  <BAO Label>  (1015) 
nan

$$$$

     RDKit          2D

 28 29  0  0  0  0  0  0  0  0999 V2000
    5.2500   -1.2990    0.0000 C   0  0  0  0  0  0  0  0  0  0  0  0
    3.7500   -1.2990    0.0000 C   0  0  0  0  0  0  0  0  0  0  0  0
    3.0000   -2.5981    0.0000 C   0  0  0  0  0  0  0  0  0  0  0  0
    3.0000    0.0000    0.0000 C   0  0  0  0  0  0  0  0  0  0  0  0
    1.5000    0.0000    0.0000 N   0  0  0  0  0  0  0  0  0  0  0  0
    0.7500   -1.2990    0.0000 C   0  0  0  0  0  0  0  0  0  0  0  0
    1.5000   -2.5981    0.0000 N   0  0  0  0  0  0  0  0  0  0  0  0
   -0.7500   -1.2990    0.0000 C   0  0  0  0  0  0  0  0  0  0  0  0
   -1.5000   -2.5981    0.0000 C   0  0  0  0  0  0  0  0  0  0  0  0
   -0.7500   -3.8971    0.0000 O   0  0  0  0  0  0  0  0  0  0  0  0
   -3.0000   -2.5981    0.0000 C   0  0  0  0  0  0  0  0  0  0  0  0
   -3.7500   -3.8971    0.0000 O   0  0  0  0  0  0  0  0  0  0  0  0
   -5.2500   -3.8971    0.0000 C   0  0  0  0  0  0  0  0  0  0  0  0
   -6.0000   -2.5981    0.0000 O   0  0  0  0  0  0  0  0  0  0  0  0
   -6.0000   -5.1962    0.0000 C   0  0  0  0  0  0  0  0  0  0  0  0
   -7.5000   -5.1962    0.0000 C   0  0  0  0  0  0  0  0  0  0  0  0
   -8.2500   -6.4952    0.0000 C   0  0  0  0  0  0  0  0  0  0  0  0
   -7.5000   -7.7942    0.0000 C   0  0  0  0  0  0  0  0  0  0  0  0
   -8.2500   -9.0933    0.0000 O   0  0  0  0  0  0  0  0  0  0  0  0
   -6.0000   -7.7942    0.0000 C   0  0  0  0  0  0  0  0  0  0  0  0
   -5.2500   -6.4952    0.0000 C   0  0  0  0  0  0  0  0  0  0  0  0
   -3.7500   -6.4952    0.0000 O   0  0  0  0  0  0  0  0  0  0  0  0
   -1.5000    0.0000    0.0000 C   0  0  0  0  0  0  0  0  0  0  0  0
   -3.0000    0.0000    0.0000 O   0  0  0  0  0  0  0  0  0  0  0  0
   -0.7500    1.2990    0.0000 N   0  0  0  0  0  0  0  0  0  0  0  0
   -1.5000    2.5981    0.0000 C   0  0  0  0  0  0  0  0  0  0  0  0
    0.7500    1.2990    0.0000 C   0  0  0  0  0  0  0  0  0  0  0  0
    1.5000    2.5981    0.0000 O   0  0  0  0  0  0  0  0  0  0  0  0
  1  2  1  0
  2  3  1  0
  2  4  1  0
  4  5  1  0
  5  6  1  0
  6  7  1  0
  6  8  2  0
  8  9  1  0
  9 10  2  0
  9 11  1  0
 11 12  1  0
 12 13  1  0
 13 14  2  0
 13 15  1  0
 15 16  2  0
 16 17  1  0
 17 18  2  0
 18 19  1  0
 18 20  1  0
 20 21  2  0
 21 22  1  0
  8 23  1  0
 23 24  2  0
 23 25  1  0
 25 26  1  0
 25 27  1  0
 27 28  2  0
 27  5  1  0
 21 15  1  0
M  END
>  <Compound_ID>  (1016) 
C06080921

>  <Active>  (1016) 
0.0

>  <Smiles>  (1016) 
CC(C)Cn1c(N)c(C(=O)COC(=O)c2ccc(O)cc2O)c(=O)n(C)c1=O

>  <canonical_smi>  (1016) 
CC(C)Cn1c(N)c(C(=O)COC(=O)c2ccc(O)cc2O)c(=O)n(C)c1=O

>  <Set>  (1016) 
G2 inactive

>  <Set_type>  (1016) 
Test

>  <MW>  (1016) 
391.38

>  <HBD>  (1016) 
3

>  <HBA>  (1016) 
8

>  <NRB>  (1016) 
6

>  <NR>  (1016) 
2

>  <NAR>  (1016) 
2

>  <PSA>  (1016) 
153.85

>  <Standard Type>  (1016) 
nan

>  <Standard Relation>  (1016) 
nan

>  <Standard Units>  (1016) 
nan

>  <Standard Value>  (1016) 
nan

>  <Assay ChEMBL ID>  (1016) 
nan

>  <Assay Description>  (1016) 
nan

>  <BAO Label>  (1016) 
nan

$$$$

     RDKit          2D

 18 20  0  0  0  0  0  0  0  0999 V2000
    3.7500   -1.2990    0.0000 N   0  0  0  0  0  0  0  0  0  0  0  0
    3.0000    0.0000    0.0000 N   0  0  0  0  0  0  0  0  0  0  0  0
    1.5000    0.0000    0.0000 C   0  0  0  0  0  0  0  0  0  0  0  0
    0.7500   -1.2990    0.0000 N   0  0  0  0  0  0  0  0  0  0  0  0
   -0.7500   -1.2990    0.0000 C   0  0  0  0  0  0  0  0  0  0  0  0
   -1.5000    0.0000    0.0000 N   0  0  0  0  0  0  0  0  0  0  0  0
   -0.7500    1.2990    0.0000 C   0  0  0  0  0  0  0  0  0  0  0  0
    0.7500    1.2990    0.0000 C   0  0  0  0  0  0  0  0  0  0  0  0
    1.2135    2.7256    0.0000 C   0  0  0  0  0  0  0  0  0  0  0  0
    0.0000    3.6073    0.0000 N   0  0  0  0  0  0  0  0  0  0  0  0
   -1.2135    2.7256    0.0000 N   0  0  0  0  0  0  0  0  0  0  0  0
   -2.6401    3.1891    0.0000 C   0  0  0  0  0  0  0  0  0  0  0  0
   -2.9520    4.6564    0.0000 C   0  0  0  0  0  0  0  0  0  0  0  0
   -4.3786    5.1199    0.0000 C   0  0  0  0  0  0  0  0  0  0  0  0
   -5.4933    4.1162    0.0000 C   0  0  0  0  0  0  0  0  0  0  0  0
   -5.1814    2.6490    0.0000 C   0  0  0  0  0  0  0  0  0  0  0  0
   -3.7548    2.1855    0.0000 C   0  0  0  0  0  0  0  0  0  0  0  0
   -3.4430    0.7182    0.0000 F   0  0  0  0  0  0  0  0  0  0  0  0
  1  2  1  0
  2  3  1  0
  3  4  2  0
  4  5  1  0
  5  6  2  0
  6  7  1  0
  7  8  2  0
  8  9  1  0
  9 10  2  0
 10 11  1  0
 11 12  1  0
 12 13  2  0
 13 14  1  0
 14 15  2  0
 15 16  1  0
 16 17  2  0
 17 18  1  0
  8  3  1  0
 17 12  1  0
 11  7  1  0
M  END
>  <Compound_ID>  (1017) 
C62203239

>  <Active>  (1017) 
0.0

>  <Smiles>  (1017) 
NNc1ncnc2c1cnn2-c1ccccc1F

>  <canonical_smi>  (1017) 
NNc1ncnc2c1cnn2-c1ccccc1F

>  <Set>  (1017) 
G2 inactive

>  <Set_type>  (1017) 
Test

>  <MW>  (1017) 
244.23

>  <HBD>  (1017) 
2

>  <HBA>  (1017) 
5

>  <NRB>  (1017) 
2

>  <NR>  (1017) 
3

>  <NAR>  (1017) 
3

>  <PSA>  (1017) 
81.65

>  <Standard Type>  (1017) 
nan

>  <Standard Relation>  (1017) 
nan

>  <Standard Units>  (1017) 
nan

>  <Standard Value>  (1017) 
nan

>  <Assay ChEMBL ID>  (1017) 
nan

>  <Assay Description>  (1017) 
nan

>  <BAO Label>  (1017) 
nan

$$$$

     RDKit          2D

 28 30  0  0  0  0  0  0  0  0999 V2000
    4.5000   -7.7942    0.0000 C   0  0  0  0  0  0  0  0  0  0  0  0
    3.7500   -6.4952    0.0000 C   0  0  0  0  0  0  0  0  0  0  0  0
    2.2500   -6.4952    0.0000 C   0  0  0  0  0  0  0  0  0  0  0  0
    1.5000   -5.1962    0.0000 C   0  0  0  0  0  0  0  0  0  0  0  0
   -0.0000   -5.1962    0.0000 C   0  0  0  0  0  0  0  0  0  0  0  0
    2.2500   -3.8971    0.0000 C   0  0  0  0  0  0  0  0  0  0  0  0
    1.5000   -2.5981    0.0000 S   0  0  0  0  0  0  0  0  0  0  0  0
    0.2010   -3.3481    0.0000 O   0  0  0  0  0  0  0  0  0  0  0  0
    2.7990   -1.8481    0.0000 O   0  0  0  0  0  0  0  0  0  0  0  0
    0.7500   -1.2990    0.0000 N   0  0  0  0  0  0  0  0  0  0  0  0
    1.5000    0.0000    0.0000 C   0  0  0  0  0  0  0  0  0  0  0  0
    0.7500    1.2990    0.0000 C   0  0  0  0  0  0  0  0  0  0  0  0
   -0.7500    1.2990    0.0000 C   0  0  0  0  0  0  0  0  0  0  0  0
   -1.5000    0.0000    0.0000 C   0  0  0  0  0  0  0  0  0  0  0  0
   -3.0000    0.0000    0.0000 C   0  0  0  0  0  0  0  0  0  0  0  0
   -3.7500   -1.2990    0.0000 C   0  0  0  0  0  0  0  0  0  0  0  0
   -3.0000   -2.5981    0.0000 C   0  0  0  0  0  0  0  0  0  0  0  0
   -1.5000   -2.5981    0.0000 C   0  0  0  0  0  0  0  0  0  0  0  0
   -0.7500   -3.8971    0.0000 F   0  0  0  0  0  0  0  0  0  0  0  0
   -0.7500   -1.2990    0.0000 C   0  0  0  0  0  0  0  0  0  0  0  0
    3.7500   -3.8971    0.0000 C   0  0  0  0  0  0  0  0  0  0  0  0
    4.5000   -2.5981    0.0000 C   0  0  0  0  0  0  0  0  0  0  0  0
    4.5000   -5.1962    0.0000 C   0  0  0  0  0  0  0  0  0  0  0  0
    6.0000   -5.1962    0.0000 N   0  0  0  0  0  2  0  0  0  0  0  0
    6.7500   -6.4952    0.0000 S   0  0  0  0  0  0  0  0  0  0  0  0
    7.5000   -7.7942    0.0000 C   0  0  0  0  0  0  0  0  0  0  0  0
    5.4510   -7.2452    0.0000 O   0  0  0  0  0  0  0  0  0  0  0  0
    8.0490   -5.7452    0.0000 O   0  0  0  0  0  0  0  0  0  0  0  0
  1  2  1  0
  2  3  2  0
  3  4  1  0
  4  5  1  0
  4  6  2  0
  6  7  1  0
  7  8  2  0
  7  9  2  0
  7 10  1  0
 10 11  1  0
 11 12  1  0
 12 13  1  0
 13 14  1  0
 14 15  2  0
 15 16  1  0
 16 17  2  0
 17 18  1  0
 18 19  1  0
 18 20  2  0
  6 21  1  0
 21 22  1  0
 21 23  2  0
 23 24  1  0
 24 25  1  0
 25 26  1  0
 25 27  2  0
 25 28  2  0
 23  2  1  0
 20 10  1  0
 20 14  1  0
M  CHG  1  24  -1
M  END
>  <Compound_ID>  (1018) 
C59772987

>  <Active>  (1018) 
0.0

>  <Smiles>  (1018) 
Cc1cc(C)c(S(=O)(=O)N2CCCc3cccc(F)c32)c(C)c1[N-]S(C)(=O)=O

>  <canonical_smi>  (1018) 
Cc1cc(C)c(S(=O)(=O)N2CCCc3cccc(F)c32)c(C)c1[N-]S(C)(=O)=O

>  <Set>  (1018) 
G2 inactive

>  <Set_type>  (1018) 
Test

>  <MW>  (1018) 
425.53

>  <HBD>  (1018) 
0

>  <HBA>  (1018) 
4

>  <NRB>  (1018) 
4

>  <NR>  (1018) 
3

>  <NAR>  (1018) 
2

>  <PSA>  (1018) 
85.62

>  <Standard Type>  (1018) 
nan

>  <Standard Relation>  (1018) 
nan

>  <Standard Units>  (1018) 
nan

>  <Standard Value>  (1018) 
nan

>  <Assay ChEMBL ID>  (1018) 
nan

>  <Assay Description>  (1018) 
nan

>  <BAO Label>  (1018) 
nan

$$$$

     RDKit          2D

 31 34  0  0  0  0  0  0  0  0999 V2000
   -2.4240   -6.1312    0.0000 C   0  0  0  0  0  0  0  0  0  0  0  0
   -1.0537   -5.5211    0.0000 C   0  0  0  0  0  0  0  0  0  0  0  0
   -0.7418   -4.0539    0.0000 C   0  0  0  0  0  0  0  0  0  0  0  0
    0.7500   -3.8971    0.0000 C   0  0  0  0  0  0  0  0  0  0  0  0
    1.5000   -2.5981    0.0000 C   0  0  0  0  0  0  0  0  0  0  0  0
    0.7500   -1.2990    0.0000 C   0  0  0  0  0  0  0  0  0  0  0  0
    1.5000    0.0000    0.0000 C   0  0  0  0  0  0  0  0  0  0  0  0
    3.0000    0.0000    0.0000 O   0  0  0  0  0  0  0  0  0  0  0  0
    0.7500    1.2990    0.0000 N   0  0  0  0  0  0  0  0  0  0  0  0
   -0.7500    1.2990    0.0000 C   0  0  0  0  0  0  0  0  0  0  0  0
   -1.5000    2.5981    0.0000 O   0  0  0  0  0  1  0  0  0  0  0  0
   -1.5000    0.0000    0.0000 N   0  0  0  0  0  0  0  0  0  0  0  0
   -3.0000    0.0000    0.0000 C   0  0  0  0  0  0  0  0  0  0  0  0
   -3.7500    1.2990    0.0000 C   0  0  0  0  0  0  0  0  0  0  0  0
   -5.2500    1.2990    0.0000 C   0  0  0  0  0  0  0  0  0  0  0  0
   -6.0000    0.0000    0.0000 C   0  0  0  0  0  0  0  0  0  0  0  0
   -7.5000    0.0000    0.0000 Cl  0  0  0  0  0  0  0  0  0  0  0  0
   -5.2500   -1.2990    0.0000 C   0  0  0  0  0  0  0  0  0  0  0  0
   -3.7500   -1.2990    0.0000 C   0  0  0  0  0  0  0  0  0  0  0  0
   -0.7500   -1.2990    0.0000 C   0  0  0  0  0  0  0  0  0  0  0  0
   -1.5000   -2.5981    0.0000 O   0  0  0  0  0  0  0  0  0  0  0  0
    1.3601   -5.2674    0.0000 C   0  0  0  0  0  0  0  0  0  0  0  0
    2.8273   -5.5793    0.0000 C   0  0  0  0  0  0  0  0  0  0  0  0
    0.2454   -6.2711    0.0000 N   0  0  0  0  0  0  0  0  0  0  0  0
    0.4022   -7.7629    0.0000 C   0  0  0  0  0  0  0  0  0  0  0  0
    1.7725   -8.3730    0.0000 C   0  0  0  0  0  0  0  0  0  0  0  0
    1.9293   -9.8648    0.0000 C   0  0  0  0  0  0  0  0  0  0  0  0
    0.7158  -10.7465    0.0000 C   0  0  0  0  0  0  0  0  0  0  0  0
    0.8726  -12.2383    0.0000 Cl  0  0  0  0  0  0  0  0  0  0  0  0
   -0.6546  -10.1364    0.0000 C   0  0  0  0  0  0  0  0  0  0  0  0
   -0.8113   -8.6446    0.0000 C   0  0  0  0  0  0  0  0  0  0  0  0
  1  2  1  0
  2  3  2  0
  3  4  1  0
  4  5  1  0
  5  6  2  0
  6  7  1  0
  7  8  2  0
  7  9  1  0
  9 10  2  0
 10 11  1  0
 10 12  1  0
 12 13  1  0
 13 14  2  0
 14 15  1  0
 15 16  2  0
 16 17  1  0
 16 18  1  0
 18 19  2  0
 12 20  1  0
 20 21  2  0
  4 22  2  0
 22 23  1  0
 22 24  1  0
 24 25  1  0
 25 26  2  0
 26 27  1  0
 27 28  2  0
 28 29  1  0
 28 30  1  0
 30 31  2  0
 24  2  1  0
 31 25  1  0
 20  6  1  0
 19 13  1  0
M  CHG  1  11  -1
M  END
>  <Compound_ID>  (1019) 
C13616181

>  <Active>  (1019) 
0.0

>  <Smiles>  (1019) 
Cc1cc(/C=C2/C(=O)N=C([O-])N(c3ccc(Cl)cc3)C2=O)c(C)n1-c1ccc(Cl)cc1

>  <canonical_smi>  (1019) 
Cc1cc(/C=C2/C(=O)N=C([O-])N(c3ccc(Cl)cc3)C2=O)c(C)n1-c1ccc(Cl)cc1

>  <Set>  (1019) 
G2 inactive

>  <Set_type>  (1019) 
Test

>  <MW>  (1019) 
453.31

>  <HBD>  (1019) 
0

>  <HBA>  (1019) 
3

>  <NRB>  (1019) 
3

>  <NR>  (1019) 
4

>  <NAR>  (1019) 
3

>  <PSA>  (1019) 
77.73

>  <Standard Type>  (1019) 
nan

>  <Standard Relation>  (1019) 
nan

>  <Standard Units>  (1019) 
nan

>  <Standard Value>  (1019) 
nan

>  <Assay ChEMBL ID>  (1019) 
nan

>  <Assay Description>  (1019) 
nan

>  <BAO Label>  (1019) 
nan

$$$$

     RDKit          2D

 25 27  0  0  0  0  0  0  0  0999 V2000
    3.7500   -1.2990    0.0000 C   0  0  0  0  0  0  0  0  0  0  0  0
    3.0000    0.0000    0.0000 S   0  0  0  0  0  0  0  0  0  0  0  0
    1.5000    0.0000    0.0000 C   0  0  0  0  0  0  0  0  0  0  0  0
    0.7500   -1.2990    0.0000 C   0  0  0  0  0  0  0  0  0  0  0  0
   -0.7500   -1.2990    0.0000 N   0  0  0  0  0  0  0  0  0  0  0  0
   -1.5000    0.0000    0.0000 C   0  0  0  0  0  0  0  0  0  0  0  0
   -3.0000    0.0000    0.0000 C   0  0  0  0  0  0  0  0  0  0  0  0
   -3.7500    1.2990    0.0000 C   0  0  0  0  0  0  0  0  0  0  0  0
   -3.0000    2.5981    0.0000 N   0  0  0  0  0  0  0  0  0  0  0  0
   -3.7500    3.8971    0.0000 O   0  0  0  0  0  1  0  0  0  0  0  0
   -1.5000    2.5981    0.0000 C   0  0  0  0  0  0  0  0  0  0  0  0
   -0.7500    3.8971    0.0000 O   0  0  0  0  0  0  0  0  0  0  0  0
   -0.7500    1.2990    0.0000 C   0  0  0  0  0  0  0  0  0  0  0  0
    0.7500    1.2990    0.0000 C   0  0  0  0  0  0  0  0  0  0  0  0
   -5.2500    1.2990    0.0000 C   0  0  0  0  0  0  0  0  0  0  0  0
   -6.0000    2.5981    0.0000 O   0  0  0  0  0  0  0  0  0  0  0  0
   -6.0000    0.0000    0.0000 C   0  0  0  0  0  0  0  0  0  0  0  0
   -5.2500   -1.2990    0.0000 C   0  0  0  0  0  0  0  0  0  0  0  0
   -6.0000   -2.5981    0.0000 S   0  0  0  0  0  0  0  0  0  0  0  0
   -4.7010   -3.3481    0.0000 O   0  0  0  0  0  0  0  0  0  0  0  0
   -7.2990   -1.8481    0.0000 O   0  0  0  0  0  0  0  0  0  0  0  0
   -6.7500   -3.8971    0.0000 C   0  0  0  0  0  0  0  0  0  0  0  0
   -6.0000   -5.1962    0.0000 C   0  0  0  0  0  0  0  0  0  0  0  0
   -8.2500   -3.8971    0.0000 C   0  0  0  0  0  0  0  0  0  0  0  0
   -3.7500   -1.2990    0.0000 N   0  0  0  0  0  0  0  0  0  0  0  0
  1  2  1  0
  2  3  1  0
  3  4  2  0
  4  5  1  0
  5  6  2  0
  6  7  1  0
  7  8  2  0
  8  9  1  0
  9 10  1  0
  9 11  1  0
 11 12  2  0
 11 13  1  0
 13 14  2  0
  8 15  1  0
 15 16  2  0
 15 17  1  0
 17 18  1  0
 18 19  1  1
 19 20  2  0
 19 21  2  0
 19 22  1  0
 22 23  1  0
 22 24  1  0
 18 25  1  0
 14  3  1  0
 13  6  1  0
 25  7  1  0
M  CHG  1  10  -1
M  END
>  <Compound_ID>  (1020) 
C39452251

>  <Active>  (1020) 
0.0

>  <Smiles>  (1020) 
CSc1cnc2c3c(n([O-])c(=O)c2c1)C(=O)C[C@H](S(=O)(=O)C(C)C)N3

>  <canonical_smi>  (1020) 
CSc1cnc2c3c(n([O-])c(=O)c2c1)C(=O)C[C@H](S(=O)(=O)C(C)C)N3

>  <Set>  (1020) 
G2 inactive

>  <Set_type>  (1020) 
Test

>  <MW>  (1020) 
382.44

>  <HBD>  (1020) 
1

>  <HBA>  (1020) 
8

>  <NRB>  (1020) 
3

>  <NR>  (1020) 
3

>  <NAR>  (1020) 
2

>  <PSA>  (1020) 
121.19

>  <Standard Type>  (1020) 
nan

>  <Standard Relation>  (1020) 
nan

>  <Standard Units>  (1020) 
nan

>  <Standard Value>  (1020) 
nan

>  <Assay ChEMBL ID>  (1020) 
nan

>  <Assay Description>  (1020) 
nan

>  <BAO Label>  (1020) 
nan

$$$$

     RDKit          2D

 32 34  0  0  0  0  0  0  0  0999 V2000
    5.2500   -1.2990    0.0000 C   0  0  0  0  0  0  0  0  0  0  0  0
    3.7500   -1.2990    0.0000 O   0  0  0  0  0  0  0  0  0  0  0  0
    3.0000    0.0000    0.0000 C   0  0  0  0  0  0  0  0  0  0  0  0
    3.7500    1.2990    0.0000 O   0  0  0  0  0  0  0  0  0  0  0  0
    1.5000    0.0000    0.0000 C   0  0  0  0  0  0  0  0  0  0  0  0
    0.7500   -1.2990    0.0000 C   0  0  0  0  0  0  0  0  0  0  0  0
   -0.7500   -1.2990    0.0000 C   0  0  0  0  0  0  0  0  0  0  0  0
   -1.5000    0.0000    0.0000 C   0  0  0  0  0  0  0  0  0  0  0  0
   -3.0000    0.0000    0.0000 C   0  0  0  0  0  0  0  0  0  0  0  0
   -3.8817   -1.2135    0.0000 C   0  0  0  0  0  0  0  0  0  0  0  0
   -3.4182   -2.6401    0.0000 C   0  0  0  0  0  0  0  0  0  0  0  0
   -1.9509   -2.9520    0.0000 O   0  0  0  0  0  0  0  0  0  0  0  0
   -4.4218   -3.7548    0.0000 C   0  0  0  0  0  0  0  0  0  0  0  0
   -5.9136   -3.5980    0.0000 C   0  0  0  0  0  0  0  0  0  0  0  0
   -6.8164   -2.4001    0.0000 C   0  0  0  0  0  0  0  0  0  0  0  0
   -6.5237   -4.9684    0.0000 N   0  0  0  0  0  0  0  0  0  0  0  0
   -5.4090   -5.9720    0.0000 N   0  0  0  0  0  0  0  0  0  0  0  0
   -4.1100   -5.2220    0.0000 C   0  0  0  0  0  0  0  0  0  0  0  0
   -2.7397   -5.8322    0.0000 C   0  0  0  0  0  0  0  0  0  0  0  0
   -5.3083   -0.7500    0.0000 C   0  0  0  0  0  0  0  0  0  0  0  0
   -6.6202   -1.4772    0.0000 O   0  0  0  0  0  1  0  0  0  0  0  0
   -5.3083    0.7500    0.0000 C   0  0  0  0  0  0  0  0  0  0  0  0
   -6.5218    1.6317    0.0000 O   0  0  0  0  0  0  0  0  0  0  0  0
   -3.8817    1.2135    0.0000 N   0  0  0  0  0  0  0  0  0  0  0  0
   -3.4182    2.6401    0.0000 C   0  0  0  0  0  0  0  0  0  0  0  0
   -4.4218    3.7548    0.0000 C   0  0  0  0  0  0  0  0  0  0  0  0
   -3.9583    5.1814    0.0000 C   0  0  0  0  0  0  0  0  0  0  0  0
   -4.9620    6.2961    0.0000 N   0  0  0  0  0  4  0  0  0  0  0  0
   -4.4985    7.7227    0.0000 C   0  0  0  0  0  0  0  0  0  0  0  0
   -6.4292    5.9843    0.0000 C   0  0  0  0  0  0  0  0  0  0  0  0
   -0.7500    1.2990    0.0000 C   0  0  0  0  0  0  0  0  0  0  0  0
    0.7500    1.2990    0.0000 C   0  0  0  0  0  0  0  0  0  0  0  0
  1  2  1  0
  2  3  1  0
  3  4  2  0
  3  5  1  0
  5  6  2  0
  6  7  1  0
  7  8  2  0
  9  8  1  6
  9 10  1  0
 10 11  1  0
 11 12  2  0
 11 13  1  0
 13 14  2  0
 14 15  1  0
 14 16  1  0
 16 17  2  0
 17 18  1  0
 18 19  1  1
 10 20  2  0
 20 21  1  0
 20 22  1  0
 22 23  2  0
 22 24  1  0
 24 25  1  0
 25 26  1  0
 26 27  1  0
 27 28  1  0
 28 29  1  0
 28 30  1  0
  8 31  1  0
 31 32  2  0
 32  5  1  0
 24  9  1  0
 18 13  1  0
M  CHG  2  21  -1  28   1
M  END
>  <Compound_ID>  (1021) 
C39148706

>  <Active>  (1021) 
0.0

>  <Smiles>  (1021) 
COC(=O)c1ccc([C@@H]2C(C(=O)C3=C(C)N=N[C@@H]3C)=C([O-])C(=O)N2CCC[NH+](C)C)cc1

>  <canonical_smi>  (1021) 
COC(=O)c1ccc([C@@H]2C(C(=O)C3=C(C)N=N[C@@H]3C)=C([O-])C(=O)N2CCC[NH+](C)C)cc1

>  <Set>  (1021) 
G2 inactive

>  <Set_type>  (1021) 
Test

>  <MW>  (1021) 
440.5

>  <HBD>  (1021) 
1

>  <HBA>  (1021) 
5

>  <NRB>  (1021) 
8

>  <NR>  (1021) 
3

>  <NAR>  (1021) 
1

>  <PSA>  (1021) 
115.9

>  <Standard Type>  (1021) 
nan

>  <Standard Relation>  (1021) 
nan

>  <Standard Units>  (1021) 
nan

>  <Standard Value>  (1021) 
nan

>  <Assay ChEMBL ID>  (1021) 
nan

>  <Assay Description>  (1021) 
nan

>  <BAO Label>  (1021) 
nan

$$$$

     RDKit          2D

 29 32  0  0  0  0  0  0  0  0999 V2000
    3.7500   -1.2990    0.0000 C   0  0  0  0  0  0  0  0  0  0  0  0
    3.0000    0.0000    0.0000 O   0  0  0  0  0  0  0  0  0  0  0  0
    1.5000    0.0000    0.0000 C   0  0  0  0  0  0  0  0  0  0  0  0
    0.7500   -1.2990    0.0000 C   0  0  0  0  0  0  0  0  0  0  0  0
   -0.7500   -1.2990    0.0000 C   0  0  0  0  0  0  0  0  0  0  0  0
   -1.5000   -2.5981    0.0000 C   0  0  0  0  0  0  0  0  0  0  0  0
   -0.7500   -3.8971    0.0000 O   0  0  0  0  0  0  0  0  0  0  0  0
   -3.0000   -2.5981    0.0000 N   0  0  0  0  0  0  0  0  0  0  0  0
   -3.7500   -1.2990    0.0000 C   0  0  0  0  0  0  0  0  0  0  0  0
   -5.2500   -1.2990    0.0000 C   0  0  0  0  0  0  0  0  0  0  0  0
   -6.0000   -2.5981    0.0000 N   0  0  0  0  0  0  0  0  0  0  0  0
   -5.2500   -3.8971    0.0000 C   0  0  0  0  0  0  0  0  0  0  0  0
   -6.0000   -5.1962    0.0000 O   0  0  0  0  0  0  0  0  0  0  0  0
   -3.7500   -3.8971    0.0000 C   0  0  0  0  0  0  0  0  0  0  0  0
   -1.5000    0.0000    0.0000 C   0  0  0  0  0  0  0  0  0  0  0  0
   -0.7500    1.2990    0.0000 C   0  0  0  0  0  0  0  0  0  0  0  0
    0.7500    1.2990    0.0000 C   0  0  0  0  0  0  0  0  0  0  0  0
    1.5000    2.5981    0.0000 O   0  0  0  0  0  0  0  0  0  0  0  0
    0.7500    3.8971    0.0000 C   0  0  0  0  0  0  0  0  0  0  0  0
    1.5000    5.1962    0.0000 C   0  0  0  0  0  0  0  0  0  0  0  0
    0.7500    6.4952    0.0000 C   0  0  0  0  0  0  0  0  0  0  0  0
   -0.7500    6.4952    0.0000 N   0  0  0  0  0  4  0  0  0  0  0  0
   -1.5000    7.7942    0.0000 C   0  0  0  0  0  0  0  0  0  0  0  0
   -2.9918    7.9510    0.0000 C   0  0  0  0  0  0  0  0  0  0  0  0
   -3.3037    9.4182    0.0000 C   0  0  0  0  0  0  0  0  0  0  0  0
   -2.0046   10.1682    0.0000 C   0  0  0  0  0  0  0  0  0  0  0  0
   -0.8899    9.1645    0.0000 C   0  0  0  0  0  0  0  0  0  0  0  0
   -1.5000    5.1962    0.0000 C   0  0  0  0  0  0  0  0  0  0  0  0
   -0.7500    3.8971    0.0000 C   0  0  0  0  0  0  0  0  0  0  0  0
  1  2  1  0
  2  3  1  0
  3  4  2  0
  4  5  1  0
  5  6  1  0
  6  7  2  0
  6  8  1  0
  8  9  1  0
  9 10  1  0
 10 11  1  0
 11 12  1  0
 12 13  2  0
 12 14  1  0
  5 15  2  0
 15 16  1  0
 16 17  2  0
 17 18  1  0
 18 19  1  0
 19 20  1  0
 20 21  1  0
 21 22  1  0
 22 23  1  0
 23 24  1  0
 24 25  1  0
 25 26  1  0
 26 27  1  0
 22 28  1  0
 28 29  1  0
 17  3  1  0
 29 19  1  0
 14  8  1  0
 27 23  1  0
M  CHG  1  22   1
M  END
>  <Compound_ID>  (1022) 
C12747156

>  <Active>  (1022) 
0.0

>  <Smiles>  (1022) 
COc1cc(C(=O)N2CCNC(=O)C2)ccc1OC1CC[NH+](C2CCCC2)CC1

>  <canonical_smi>  (1022) 
COc1cc(C(=O)N2CCNC(=O)C2)ccc1OC1CC[NH+](C2CCCC2)CC1

>  <Set>  (1022) 
G2 inactive

>  <Set_type>  (1022) 
Test

>  <MW>  (1022) 
402.52

>  <HBD>  (1022) 
2

>  <HBA>  (1022) 
4

>  <NRB>  (1022) 
5

>  <NR>  (1022) 
4

>  <NAR>  (1022) 
1

>  <PSA>  (1022) 
72.31

>  <Standard Type>  (1022) 
nan

>  <Standard Relation>  (1022) 
nan

>  <Standard Units>  (1022) 
nan

>  <Standard Value>  (1022) 
nan

>  <Assay ChEMBL ID>  (1022) 
nan

>  <Assay Description>  (1022) 
nan

>  <BAO Label>  (1022) 
nan

$$$$

     RDKit          2D

 32 35  0  0  0  0  0  0  0  0999 V2000
   -9.7500   -3.8971    0.0000 C   0  0  0  0  0  0  0  0  0  0  0  0
   -8.2500   -3.8971    0.0000 C   0  0  0  0  0  0  0  0  0  0  0  0
   -7.5000   -2.5981    0.0000 C   0  0  0  0  0  0  0  0  0  0  0  0
   -6.0000   -2.5981    0.0000 C   0  0  0  0  0  0  0  0  0  0  0  0
   -5.2500   -3.8971    0.0000 C   0  0  0  0  0  0  0  0  0  0  0  0
   -6.0000   -5.1962    0.0000 C   0  0  0  0  0  0  0  0  0  0  0  0
   -5.2500   -6.4952    0.0000 N   0  0  0  0  0  0  0  0  0  0  0  0
   -3.7500   -6.4952    0.0000 C   0  0  0  0  0  0  0  0  0  0  0  0
   -3.0000   -5.1962    0.0000 S   0  0  0  0  0  0  0  0  0  0  0  0
   -3.0000   -7.7942    0.0000 N   0  0  0  0  0  0  0  0  0  0  0  0
   -3.7500   -9.0933    0.0000 C   0  0  0  0  0  0  0  0  0  0  0  0
   -5.2500   -9.0933    0.0000 C   0  0  0  0  0  0  0  0  0  0  0  0
   -6.0000  -10.3923    0.0000 N   0  0  0  0  0  4  0  0  0  0  0  0
   -7.5000  -10.3923    0.0000 C   0  0  0  0  0  0  0  0  0  0  0  0
   -5.2500  -11.6913    0.0000 C   0  0  0  0  0  0  0  0  0  0  0  0
   -1.5000   -7.7942    0.0000 C   0  0  0  0  0  0  0  0  0  0  0  0
   -0.7500   -6.4952    0.0000 C   0  0  0  0  0  0  0  0  0  0  0  0
   -1.5000   -5.1962    0.0000 C   0  0  0  0  0  0  0  0  0  0  0  0
   -0.7500   -3.8971    0.0000 C   0  0  0  0  0  0  0  0  0  0  0  0
   -1.5000   -2.5981    0.0000 C   0  0  0  0  0  0  0  0  0  0  0  0
   -0.7500   -1.2990    0.0000 C   0  0  0  0  0  0  0  0  0  0  0  0
    0.7500   -1.2990    0.0000 C   0  0  0  0  0  0  0  0  0  0  0  0
    1.5000   -2.5981    0.0000 C   0  0  0  0  0  0  0  0  0  0  0  0
    0.7500   -3.8971    0.0000 C   0  0  0  0  0  0  0  0  0  0  0  0
    1.5000   -5.1962    0.0000 N   0  0  0  0  0  0  0  0  0  0  0  0
    0.7500   -6.4952    0.0000 C   0  0  0  0  0  0  0  0  0  0  0  0
    1.5000   -7.7942    0.0000 O   0  0  0  0  0  0  0  0  0  0  0  0
    1.5000    0.0000    0.0000 O   0  0  0  0  0  0  0  0  0  0  0  0
    0.7500    1.2990    0.0000 C   0  0  0  0  0  0  0  0  0  0  0  0
   -0.7500    1.2990    0.0000 C   0  0  0  0  0  0  0  0  0  0  0  0
   -1.5000    0.0000    0.0000 O   0  0  0  0  0  0  0  0  0  0  0  0
   -7.5000   -5.1962    0.0000 C   0  0  0  0  0  0  0  0  0  0  0  0
  1  2  1  0
  2  3  2  0
  3  4  1  0
  4  5  2  0
  5  6  1  0
  6  7  1  0
  7  8  1  0
  8  9  2  0
  8 10  1  0
 10 11  1  0
 11 12  1  0
 12 13  1  0
 13 14  1  0
 13 15  1  0
 10 16  1  0
 16 17  1  0
 17 18  2  0
 18 19  1  0
 19 20  2  0
 20 21  1  0
 21 22  2  0
 22 23  1  0
 23 24  2  0
 24 25  1  0
 25 26  1  0
 26 27  2  0
 22 28  1  0
 28 29  1  0
 29 30  1  0
 30 31  1  0
  6 32  2  0
 32  2  1  0
 26 17  1  0
 24 19  1  0
 31 21  1  0
M  CHG  1  13   1
M  END
>  <Compound_ID>  (1023) 
C00891532

>  <Active>  (1023) 
0.0

>  <Smiles>  (1023) 
Cc1cccc(NC(=S)N(CC[NH+](C)C)Cc2cc3cc4c(cc3[nH]c2=O)OCCO4)c1

>  <canonical_smi>  (1023) 
Cc1cccc(NC(=S)N(CC[NH+](C)C)Cc2cc3cc4c(cc3[nH]c2=O)OCCO4)c1

>  <Set>  (1023) 
G2 inactive

>  <Set_type>  (1023) 
Test

>  <MW>  (1023) 
453.59

>  <HBD>  (1023) 
3

>  <HBA>  (1023) 
6

>  <NRB>  (1023) 
6

>  <NR>  (1023) 
4

>  <NAR>  (1023) 
3

>  <PSA>  (1023) 
71.03

>  <Standard Type>  (1023) 
nan

>  <Standard Relation>  (1023) 
nan

>  <Standard Units>  (1023) 
nan

>  <Standard Value>  (1023) 
nan

>  <Assay ChEMBL ID>  (1023) 
nan

>  <Assay Description>  (1023) 
nan

>  <BAO Label>  (1023) 
nan

$$$$

     RDKit          2D

 31 34  0  0  0  0  0  0  0  0999 V2000
   -3.0000   -5.1962    0.0000 N   0  0  0  0  0  0  0  0  0  0  0  0
   -1.5000   -5.1962    0.0000 C   0  0  0  0  0  0  0  0  0  0  0  0
   -0.7500   -6.4952    0.0000 O   0  0  0  0  0  0  0  0  0  0  0  0
   -0.7500   -3.8971    0.0000 C   0  0  0  0  0  0  0  0  0  0  0  0
    0.7500   -3.8971    0.0000 C   0  0  0  0  0  0  0  0  0  0  0  0
    1.5000   -2.5981    0.0000 N   0  0  0  0  0  0  0  0  0  0  0  0
    3.0000   -2.5981    0.0000 C   0  0  0  0  0  0  0  0  0  0  0  0
    3.7500   -1.2990    0.0000 O   0  0  0  0  0  0  0  0  0  0  0  0
    3.7500   -3.8971    0.0000 C   0  0  0  0  0  0  0  0  0  0  0  0
    5.2500   -3.8971    0.0000 O   0  0  0  0  0  0  0  0  0  0  0  0
    6.0000   -5.1962    0.0000 C   0  0  0  0  0  0  0  0  0  0  0  0
    5.2500   -6.4952    0.0000 O   0  0  0  0  0  0  0  0  0  0  0  0
    7.5000   -5.1962    0.0000 C   0  0  0  0  0  0  0  0  0  0  0  0
    8.2500   -6.4952    0.0000 C   0  0  0  0  0  0  0  0  0  0  0  0
    9.7500   -6.4952    0.0000 C   0  0  0  0  0  0  0  0  0  0  0  0
   10.5000   -5.1962    0.0000 C   0  0  0  0  0  0  0  0  0  0  0  0
   12.0000   -5.1962    0.0000 C   0  0  0  0  0  0  0  0  0  0  0  0
   12.7500   -6.4952    0.0000 C   0  0  0  0  0  0  0  0  0  0  0  0
   14.2500   -6.4952    0.0000 C   0  0  0  0  0  0  0  0  0  0  0  0
   15.0000   -7.7942    0.0000 C   0  0  0  0  0  0  0  0  0  0  0  0
   14.2500   -9.0933    0.0000 C   0  0  0  0  0  0  0  0  0  0  0  0
   12.7500   -9.0933    0.0000 C   0  0  0  0  0  0  0  0  0  0  0  0
   12.0000   -7.7942    0.0000 C   0  0  0  0  0  0  0  0  0  0  0  0
   10.5000   -7.7942    0.0000 N   0  0  0  0  0  0  0  0  0  0  0  0
    0.7500   -1.2990    0.0000 C   0  0  0  0  0  0  0  0  0  0  0  0
    1.5000    0.0000    0.0000 C   0  0  0  0  0  0  0  0  0  0  0  0
    0.7500    1.2990    0.0000 C   0  0  0  0  0  0  0  0  0  0  0  0
   -0.7500    1.2990    0.0000 C   0  0  0  0  0  0  0  0  0  0  0  0
   -1.5000    0.0000    0.0000 C   0  0  0  0  0  0  0  0  0  0  0  0
   -0.7500   -1.2990    0.0000 C   0  0  0  0  0  0  0  0  0  0  0  0
   -1.5000   -2.5981    0.0000 O   0  0  0  0  0  0  0  0  0  0  0  0
  1  2  1  0
  2  3  2  0
  4  2  1  1
  4  5  1  0
  5  6  1  0
  6  7  1  0
  7  8  2  0
  7  9  1  0
  9 10  1  0
 10 11  1  0
 11 12  2  0
 11 13  1  0
 13 14  2  0
 14 15  1  0
 15 16  2  0
 16 17  1  0
 17 18  2  0
 18 19  1  0
 19 20  2  0
 20 21  1  0
 21 22  2  0
 22 23  1  0
 23 24  2  0
  6 25  1  0
 25 26  2  0
 26 27  1  0
 27 28  2  0
 28 29  1  0
 29 30  2  0
 30 31  1  0
 31  4  1  0
 24 15  1  0
 30 25  1  0
 23 18  1  0
M  END
>  <Compound_ID>  (1024) 
C12036033

>  <Active>  (1024) 
0.0

>  <Smiles>  (1024) 
NC(=O)[C@@H]1CN(C(=O)COC(=O)/C=C/c2ccc3ccccc3n2)c2ccccc2O1

>  <canonical_smi>  (1024) 
NC(=O)[C@@H]1CN(C(=O)COC(=O)/C=C/c2ccc3ccccc3n2)c2ccccc2O1

>  <Set>  (1024) 
G2 inactive

>  <Set_type>  (1024) 
Test

>  <MW>  (1024) 
417.42

>  <HBD>  (1024) 
1

>  <HBA>  (1024) 
6

>  <NRB>  (1024) 
5

>  <NR>  (1024) 
4

>  <NAR>  (1024) 
3

>  <PSA>  (1024) 
111.82

>  <Standard Type>  (1024) 
nan

>  <Standard Relation>  (1024) 
nan

>  <Standard Units>  (1024) 
nan

>  <Standard Value>  (1024) 
nan

>  <Assay ChEMBL ID>  (1024) 
nan

>  <Assay Description>  (1024) 
nan

>  <BAO Label>  (1024) 
nan

$$$$

     RDKit          2D

 35 39  0  0  0  0  0  0  0  0999 V2000
   13.8737  -12.3027    0.0000 C   0  0  0  0  0  0  0  0  0  0  0  0
   12.4471  -11.8392    0.0000 C   0  0  0  0  0  0  0  0  0  0  0  0
   11.3324  -12.8429    0.0000 C   0  0  0  0  0  0  0  0  0  0  0  0
    9.9058  -12.3794    0.0000 C   0  0  0  0  0  0  0  0  0  0  0  0
    9.5939  -10.9121    0.0000 C   0  0  0  0  0  0  0  0  0  0  0  0
    8.1673  -10.4486    0.0000 C   0  0  0  0  0  0  0  0  0  0  0  0
    7.8555   -8.9814    0.0000 C   0  0  0  0  0  0  0  0  0  0  0  0
    6.4289   -8.5179    0.0000 C   0  0  0  0  0  0  0  0  0  0  0  0
    6.1170   -7.0506    0.0000 C   0  0  0  0  0  0  0  0  0  0  0  0
    4.6904   -6.5871    0.0000 N   0  0  0  0  0  0  0  0  0  0  0  0
    4.3786   -5.1199    0.0000 C   0  0  0  0  0  0  0  0  0  0  0  0
    5.4933   -4.1162    0.0000 O   0  0  0  0  0  0  0  0  0  0  0  0
    2.9520   -4.6564    0.0000 O   0  0  0  0  0  0  0  0  0  0  0  0
    2.6401   -3.1891    0.0000 C   0  0  0  0  0  0  0  0  0  0  0  0
    1.2135   -2.7256    0.0000 C   0  0  0  0  0  0  0  0  0  0  0  0
    0.7500   -1.2990    0.0000 C   0  0  0  0  0  0  0  0  0  0  0  0
    1.5000    0.0000    0.0000 C   0  0  0  0  0  0  0  0  0  0  0  0
    0.7500    1.2990    0.0000 C   0  0  0  0  0  0  0  0  0  0  0  0
   -0.7500    1.2990    0.0000 C   0  0  0  0  0  0  0  0  0  0  0  0
   -1.5000    0.0000    0.0000 C   0  0  0  0  0  0  0  0  0  0  0  0
   -0.7500   -1.2990    0.0000 C   0  0  0  0  0  0  0  0  0  0  0  0
   -1.2135   -2.7256    0.0000 C   0  0  0  0  0  0  0  0  0  0  0  0
   -2.5838   -3.3357    0.0000 C   0  0  0  0  0  0  0  0  0  0  0  0
   -2.7406   -4.8275    0.0000 C   0  0  0  0  0  0  0  0  0  0  0  0
   -1.5271   -5.7092    0.0000 C   0  0  0  0  0  0  0  0  0  0  0  0
   -0.1568   -5.0991    0.0000 C   0  0  0  0  0  0  0  0  0  0  0  0
   -0.0000   -3.6073    0.0000 C   0  0  0  0  0  0  0  0  0  0  0  0
    7.2317   -6.0469    0.0000 C   0  0  0  0  0  0  0  0  0  0  0  0
    6.9199   -4.5797    0.0000 O   0  0  0  0  0  0  0  0  0  0  0  0
    8.6583   -6.5105    0.0000 O   0  0  0  0  0  1  0  0  0  0  0  0
    8.9702   -7.9777    0.0000 C   0  0  0  0  0  0  0  0  0  0  0  0
   10.3968   -8.4412    0.0000 C   0  0  0  0  0  0  0  0  0  0  0  0
   10.7086   -9.9084    0.0000 C   0  0  0  0  0  0  0  0  0  0  0  0
   12.1352  -10.3720    0.0000 N   0  0  0  0  0  0  0  0  0  0  0  0
   13.2499   -9.3683    0.0000 C   0  0  0  0  0  0  0  0  0  0  0  0
  2  1  1  6
  2  3  1  0
  3  4  1  0
  4  5  1  0
  5  6  2  0
  6  7  1  0
  7  8  1  0
  9  8  1  6
  9 10  1  0
 10 11  1  0
 11 12  2  0
 11 13  1  0
 13 14  1  0
 14 15  1  0
 15 16  1  0
 16 17  2  0
 17 18  1  0
 18 19  2  0
 19 20  1  0
 20 21  2  0
 21 22  1  0
 22 23  2  0
 23 24  1  0
 24 25  2  0
 25 26  1  0
 26 27  2  0
  9 28  1  0
 28 29  2  0
 28 30  1  0
  7 31  2  0
 31 32  1  0
 32 33  2  0
 33 34  1  0
 34 35  1  0
 34  2  1  0
 33  5  1  0
 27 15  1  0
 21 16  1  0
 27 22  1  0
M  CHG  1  30  -1
M  END
>  <Compound_ID>  (1025) 
C44325654

>  <Active>  (1025) 
0.0

>  <Smiles>  (1025) 
C[C@@H]1CCc2cc(C[C@H](NC(=O)OCC3c4ccccc4-c4ccccc43)C(=O)[O-])ccc2N1C

>  <canonical_smi>  (1025) 
C[C@@H]1CCc2cc(C[C@H](NC(=O)OCC3c4ccccc4-c4ccccc43)C(=O)[O-])ccc2N1C

>  <Set>  (1025) 
G2 inactive

>  <Set_type>  (1025) 
Test

>  <MW>  (1025) 
469.56

>  <HBD>  (1025) 
1

>  <HBA>  (1025) 
5

>  <NRB>  (1025) 
6

>  <NR>  (1025) 
5

>  <NAR>  (1025) 
3

>  <PSA>  (1025) 
81.7

>  <Standard Type>  (1025) 
nan

>  <Standard Relation>  (1025) 
nan

>  <Standard Units>  (1025) 
nan

>  <Standard Value>  (1025) 
nan

>  <Assay ChEMBL ID>  (1025) 
nan

>  <Assay Description>  (1025) 
nan

>  <BAO Label>  (1025) 
nan

$$$$

     RDKit          2D

 24 25  0  0  0  0  0  0  0  0999 V2000
    2.6491    0.9642    0.0000 C   0  0  0  0  0  0  0  0  0  0  0  0
    1.5000    0.0000    0.0000 C   0  0  0  0  0  0  0  0  0  0  0  0
    2.6491   -0.9642    0.0000 C   0  0  0  0  0  0  0  0  0  0  0  0
    0.7500   -1.2990    0.0000 C   0  0  0  0  0  0  0  0  0  0  0  0
   -0.7500   -1.2990    0.0000 C   0  0  0  0  0  0  0  0  0  0  0  0
   -1.5000   -2.5981    0.0000 N   0  0  0  0  0  0  0  0  0  0  0  0
   -3.0000   -2.5981    0.0000 C   0  0  0  0  0  0  0  0  0  0  0  0
   -3.7500   -1.2990    0.0000 O   0  0  0  0  0  0  0  0  0  0  0  0
   -3.7500   -3.8971    0.0000 N   0  0  0  0  0  0  0  0  0  0  0  0
   -5.2500   -3.8971    0.0000 C   0  0  0  0  0  0  0  0  0  0  0  0
   -6.0000   -2.5981    0.0000 C   0  0  0  0  0  0  0  0  0  0  0  0
   -7.5000   -2.5981    0.0000 C   0  0  0  0  0  0  0  0  0  0  0  0
   -8.2500   -3.8971    0.0000 C   0  0  0  0  0  0  0  0  0  0  0  0
   -7.5000   -5.1962    0.0000 C   0  0  0  0  0  0  0  0  0  0  0  0
   -6.0000   -5.1962    0.0000 C   0  0  0  0  0  0  0  0  0  0  0  0
   -5.2500   -6.4952    0.0000 S   0  0  0  0  0  0  0  0  0  0  0  0
   -4.5000   -7.7942    0.0000 C   0  0  0  0  0  0  0  0  0  0  0  0
   -3.9510   -5.7452    0.0000 O   0  0  0  0  0  0  0  0  0  0  0  0
   -6.5490   -7.2452    0.0000 O   0  0  0  0  0  0  0  0  0  0  0  0
   -1.5000    0.0000    0.0000 C   0  0  0  0  0  0  0  0  0  0  0  0
   -0.7500    1.2990    0.0000 C   0  0  0  0  0  0  0  0  0  0  0  0
   -2.1595    1.8121    0.0000 C   0  0  0  0  0  0  0  0  0  0  0  0
   -0.4895    2.7762    0.0000 C   0  0  0  0  0  0  0  0  0  0  0  0
    0.7500    1.2990    0.0000 N   0  0  0  0  0  4  0  0  0  0  0  0
  1  2  1  0
  2  3  1  0
  2  4  1  0
  4  5  1  0
  5  6  1  0
  6  7  1  0
  7  8  2  0
  7  9  1  0
  9 10  1  0
 10 11  2  0
 11 12  1  0
 12 13  2  0
 13 14  1  0
 14 15  2  0
 15 16  1  0
 16 17  1  0
 16 18  2  0
 16 19  2  0
  5 20  1  0
 20 21  1  0
 21 22  1  0
 21 23  1  0
 21 24  1  0
 24  2  1  0
 15 10  1  0
M  CHG  1  24   1
M  END
>  <Compound_ID>  (1026) 
C43929637

>  <Active>  (1026) 
0.0

>  <Smiles>  (1026) 
CC1(C)CC(NC(=O)Nc2ccccc2S(C)(=O)=O)CC(C)(C)[NH2+]1

>  <canonical_smi>  (1026) 
CC1(C)CC(NC(=O)Nc2ccccc2S(C)(=O)=O)CC(C)(C)[NH2+]1

>  <Set>  (1026) 
G2 inactive

>  <Set_type>  (1026) 
Test

>  <MW>  (1026) 
354.5

>  <HBD>  (1026) 
3

>  <HBA>  (1026) 
3

>  <NRB>  (1026) 
3

>  <NR>  (1026) 
2

>  <NAR>  (1026) 
1

>  <PSA>  (1026) 
91.88

>  <Standard Type>  (1026) 
nan

>  <Standard Relation>  (1026) 
nan

>  <Standard Units>  (1026) 
nan

>  <Standard Value>  (1026) 
nan

>  <Assay ChEMBL ID>  (1026) 
nan

>  <Assay Description>  (1026) 
nan

>  <BAO Label>  (1026) 
nan

$$$$

     RDKit          2D

 18 19  0  0  0  0  0  0  0  0999 V2000
   -4.7875   -2.9605    0.0000 C   0  0  0  0  0  0  0  0  0  0  0  0
   -3.3456   -3.3740    0.0000 C   0  0  0  0  0  0  0  0  0  0  0  0
   -2.8326   -4.7835    0.0000 N   0  0  0  0  0  0  0  0  0  0  0  0
   -1.3335   -4.7312    0.0000 N   0  0  0  0  0  0  0  0  0  0  0  0
   -0.4100   -5.9132    0.0000 C   0  0  0  0  0  0  0  0  0  0  0  0
   -0.9200   -3.2893    0.0000 C   0  0  0  0  0  0  0  0  0  0  0  0
    0.4895   -2.7762    0.0000 N   0  0  0  0  0  0  0  0  0  0  0  0
    0.7500   -1.2990    0.0000 C   0  0  0  0  0  0  0  0  0  0  0  0
    2.1595   -1.8121    0.0000 C   0  0  0  0  0  0  0  0  0  0  0  0
    2.4200   -3.2893    0.0000 O   0  0  0  0  0  0  0  0  0  0  0  0
    1.5000    0.0000    0.0000 C   0  0  0  0  0  0  0  0  0  0  0  0
    0.7500    1.2990    0.0000 C   0  0  0  0  0  0  0  0  0  0  0  0
   -0.7500    1.2990    0.0000 C   0  0  0  0  0  0  0  0  0  0  0  0
   -1.5000    0.0000    0.0000 C   0  0  0  0  0  0  0  0  0  0  0  0
   -3.0000    0.0000    0.0000 C   0  0  0  0  0  0  0  0  0  0  0  0
   -0.7500   -1.2990    0.0000 C   0  0  0  0  0  0  0  0  0  0  0  0
   -2.1636   -2.4505    0.0000 C   0  0  0  0  0  0  0  0  0  0  0  0
   -2.2159   -0.9514    0.0000 N   0  0  0  0  0  0  0  0  0  0  0  0
  1  2  1  0
  2  3  2  0
  3  4  1  0
  4  5  1  0
  4  6  1  0
  6  7  1  0
  7  8  1  0
  8  9  1  1
  9 10  1  0
  8 11  1  0
 11 12  1  0
 12 13  1  0
 13 14  1  0
 14 15  1  6
 14 16  1  0
  6 17  2  0
 17 18  1  0
 17  2  1  0
 16  8  1  0
M  END
>  <Compound_ID>  (1027) 
C53115088

>  <Active>  (1027) 
0.0

>  <Smiles>  (1027) 
Cc1nn(C)c(N[C@@]2(CO)CCC[C@@H](C)C2)c1N

>  <canonical_smi>  (1027) 
Cc1nn(C)c(N[C@@]2(CO)CCC[C@@H](C)C2)c1N

>  <Set>  (1027) 
G2 inactive

>  <Set_type>  (1027) 
Test

>  <MW>  (1027) 
252.36

>  <HBD>  (1027) 
3

>  <HBA>  (1027) 
4

>  <NRB>  (1027) 
3

>  <NR>  (1027) 
2

>  <NAR>  (1027) 
1

>  <PSA>  (1027) 
76.1

>  <Standard Type>  (1027) 
nan

>  <Standard Relation>  (1027) 
nan

>  <Standard Units>  (1027) 
nan

>  <Standard Value>  (1027) 
nan

>  <Assay ChEMBL ID>  (1027) 
nan

>  <Assay Description>  (1027) 
nan

>  <BAO Label>  (1027) 
nan

$$$$

     RDKit          2D

 18 18  0  0  0  0  0  0  0  0999 V2000
   10.5000   -5.1962    0.0000 C   0  0  0  0  0  0  0  0  0  0  0  0
    9.7500   -3.8971    0.0000 C   0  0  0  0  0  0  0  0  0  0  0  0
   10.5000   -2.5981    0.0000 C   0  0  0  0  0  0  0  0  0  0  0  0
    8.2500   -3.8971    0.0000 N   0  0  0  0  0  0  0  0  0  0  0  0
    7.5000   -2.5981    0.0000 N   0  0  0  0  0  0  0  0  0  0  0  0
    6.0000   -2.5981    0.0000 C   0  0  0  0  0  0  0  0  0  0  0  0
    5.2500   -3.8971    0.0000 N   0  0  0  0  0  0  0  0  0  0  0  0
    5.2500   -1.2990    0.0000 N   0  0  0  0  0  4  0  0  0  0  0  0
    3.7500   -1.2990    0.0000 C   0  0  0  0  0  0  0  0  0  0  0  0
    3.0000   -2.5981    0.0000 S   0  0  0  0  0  1  0  0  0  0  0  0
    3.0000    0.0000    0.0000 N   0  0  0  0  0  0  0  0  0  0  0  0
    1.5000    0.0000    0.0000 C   0  0  0  0  0  0  0  0  0  0  0  0
    0.7500   -1.2990    0.0000 C   0  0  0  0  0  0  0  0  0  0  0  0
   -0.7500   -1.2990    0.0000 C   0  0  0  0  0  0  0  0  0  0  0  0
   -1.5000    0.0000    0.0000 C   0  0  0  0  0  0  0  0  0  0  0  0
   -3.0000    0.0000    0.0000 C   0  0  0  0  0  0  0  0  0  0  0  0
   -0.7500    1.2990    0.0000 C   0  0  0  0  0  0  0  0  0  0  0  0
    0.7500    1.2990    0.0000 C   0  0  0  0  0  0  0  0  0  0  0  0
  1  2  1  0
  2  3  1  0
  2  4  2  0
  4  5  1  0
  5  6  2  0
  6  7  1  0
  6  8  1  0
  8  9  2  0
  9 10  1  0
  9 11  1  0
 11 12  1  0
 12 13  2  0
 13 14  1  0
 14 15  2  0
 15 16  1  0
 15 17  1  0
 17 18  2  0
 18 12  1  0
M  CHG  2   8   1  10  -1
M  END
>  <Compound_ID>  (1028) 
C15973671

>  <Active>  (1028) 
0.0

>  <Smiles>  (1028) 
CC(C)=N/N=C(N)/[NH+]=C(\[S-])Nc1ccc(C)cc1

>  <canonical_smi>  (1028) 
CC(C)=N/N=C(N)/[NH+]=C(\[S-])Nc1ccc(C)cc1

>  <Set>  (1028) 
G2 inactive

>  <Set_type>  (1028) 
Test

>  <MW>  (1028) 
263.37

>  <HBD>  (1028) 
3

>  <HBA>  (1028) 
3

>  <NRB>  (1028) 
2

>  <NR>  (1028) 
1

>  <NAR>  (1028) 
1

>  <PSA>  (1028) 
76.74

>  <Standard Type>  (1028) 
nan

>  <Standard Relation>  (1028) 
nan

>  <Standard Units>  (1028) 
nan

>  <Standard Value>  (1028) 
nan

>  <Assay ChEMBL ID>  (1028) 
nan

>  <Assay Description>  (1028) 
nan

>  <BAO Label>  (1028) 
nan

$$$$

     RDKit          2D

 27 30  0  0  0  0  0  0  0  0999 V2000
   -2.9499    4.2246    0.0000 O   0  0  0  0  0  0  0  0  0  0  0  0
   -1.8351    3.2209    0.0000 C   0  0  0  0  0  0  0  0  0  0  0  0
   -2.1470    1.7537    0.0000 C   0  0  0  0  0  0  0  0  0  0  0  0
   -1.0323    0.7500    0.0000 C   0  0  0  0  0  0  0  0  0  0  0  0
    0.3943    1.2135    0.0000 C   0  0  0  0  0  0  0  0  0  0  0  0
    0.7062    2.6807    0.0000 C   0  0  0  0  0  0  0  0  0  0  0  0
   -0.4086    3.6844    0.0000 C   0  0  0  0  0  0  0  0  0  0  0  0
   -0.0967    5.1517    0.0000 C   0  0  0  0  0  0  0  0  0  0  0  0
    1.3299    5.6152    0.0000 C   0  0  0  0  0  0  0  0  0  0  0  0
    2.4446    4.6115    0.0000 C   0  0  0  0  0  0  0  0  0  0  0  0
    3.8712    5.0750    0.0000 C   0  0  0  0  0  0  0  0  0  0  0  0
    4.1831    6.5422    0.0000 C   0  0  0  0  0  0  0  0  0  0  0  0
    5.6097    7.0058    0.0000 C   0  0  0  0  0  0  0  0  0  0  0  0
    7.0362    7.4693    0.0000 F   0  0  0  0  0  0  0  0  0  0  0  0
    6.0732    5.5792    0.0000 F   0  0  0  0  0  0  0  0  0  0  0  0
    5.1461    8.4324    0.0000 F   0  0  0  0  0  0  0  0  0  0  0  0
    3.0684    7.5459    0.0000 C   0  0  0  0  0  0  0  0  0  0  0  0
    1.6418    7.0824    0.0000 C   0  0  0  0  0  0  0  0  0  0  0  0
   -1.2114    6.1554    0.0000 N   0  0  0  0  0  4  0  0  0  0  0  0
   -0.8995    7.6226    0.0000 C   0  0  0  0  0  0  0  0  0  0  0  0
   -2.0143    8.6263    0.0000 C   0  0  0  0  0  0  0  0  0  0  0  0
   -3.4408    8.1628    0.0000 C   0  0  0  0  0  0  0  0  0  0  0  0
   -3.7527    6.6955    0.0000 C   0  0  0  0  0  0  0  0  0  0  0  0
   -2.6380    5.6918    0.0000 C   0  0  0  0  0  0  0  0  0  0  0  0
    1.2760    0.0000    0.0000 O   0  0  0  0  0  0  0  0  0  0  0  0
    0.3943   -1.2135    0.0000 C   0  0  0  0  0  0  0  0  0  0  0  0
   -1.0323   -0.7500    0.0000 O   0  0  0  0  0  0  0  0  0  0  0  0
  1  2  1  0
  2  3  2  0
  3  4  1  0
  4  5  2  0
  5  6  1  0
  6  7  2  0
  7  8  1  0
  8  9  1  0
  9 10  2  0
 10 11  1  0
 11 12  2  0
 12 13  1  0
 13 14  1  0
 13 15  1  0
 13 16  1  0
 12 17  1  0
 17 18  2  0
  8 19  1  6
 19 20  1  0
 20 21  1  0
 21 22  1  0
 22 23  1  0
 23 24  1  0
  5 25  1  0
 25 26  1  0
 26 27  1  0
  7  2  1  0
 18  9  1  0
 24 19  1  0
 27  4  1  0
M  CHG  1  19   1
M  END
>  <Compound_ID>  (1029) 
C04377857

>  <Active>  (1029) 
0.0

>  <Smiles>  (1029) 
Oc1cc2c(cc1[C@@H](c1ccc(C(F)(F)F)cc1)[NH+]1CCCCC1)OCO2

>  <canonical_smi>  (1029) 
Oc1cc2c(cc1[C@@H](c1ccc(C(F)(F)F)cc1)[NH+]1CCCCC1)OCO2

>  <Set>  (1029) 
G2 inactive

>  <Set_type>  (1029) 
Test

>  <MW>  (1029) 
380.39

>  <HBD>  (1029) 
2

>  <HBA>  (1029) 
3

>  <NRB>  (1029) 
3

>  <NR>  (1029) 
4

>  <NAR>  (1029) 
2

>  <PSA>  (1029) 
43.13

>  <Standard Type>  (1029) 
nan

>  <Standard Relation>  (1029) 
nan

>  <Standard Units>  (1029) 
nan

>  <Standard Value>  (1029) 
nan

>  <Assay ChEMBL ID>  (1029) 
nan

>  <Assay Description>  (1029) 
nan

>  <BAO Label>  (1029) 
nan

$$$$

     RDKit          2D

 16 17  0  0  0  0  0  0  0  0999 V2000
   -2.5981   -8.1073    0.0000 C   0  0  0  0  0  0  0  0  0  0  0  0
   -1.2990   -7.3573    0.0000 C   0  0  0  0  0  0  0  0  0  0  0  0
   -1.2990   -5.8573    0.0000 C   0  0  0  0  0  0  0  0  0  0  0  0
   -2.5981   -5.1073    0.0000 C   0  0  0  0  0  0  0  0  0  0  0  0
   -3.8971   -4.3573    0.0000 N   0  0  0  0  0  0  0  0  0  0  0  0
   -0.0000   -5.1073    0.0000 S   0  0  0  0  0  0  0  0  0  0  0  0
   -0.0000   -3.6073    0.0000 C   0  0  0  0  0  0  0  0  0  0  0  0
    1.2135   -2.7256    0.0000 N   0  0  0  0  0  0  0  0  0  0  0  0
    0.7500   -1.2990    0.0000 C   0  0  0  0  0  0  0  0  0  0  0  0
    1.5000    0.0000    0.0000 C   0  0  0  0  0  0  0  0  0  0  0  0
    0.7500    1.2990    0.0000 C   0  0  0  0  0  0  0  0  0  0  0  0
    1.5000    2.5981    0.0000 N   0  0  0  0  0  0  0  0  0  0  0  0
   -0.7500    1.2990    0.0000 C   0  0  0  0  0  0  0  0  0  0  0  0
   -1.5000    0.0000    0.0000 C   0  0  0  0  0  0  0  0  0  0  0  0
   -0.7500   -1.2990    0.0000 C   0  0  0  0  0  0  0  0  0  0  0  0
   -1.2135   -2.7256    0.0000 O   0  0  0  0  0  0  0  0  0  0  0  0
  1  2  1  0
  3  2  1  1
  3  4  1  0
  4  5  3  0
  3  6  1  0
  6  7  1  0
  7  8  2  0
  8  9  1  0
  9 10  2  0
 10 11  1  0
 11 12  1  0
 11 13  2  0
 13 14  1  0
 14 15  2  0
 15 16  1  0
 16  7  1  0
 15  9  1  0
M  END
>  <Compound_ID>  (1030) 
C43554062

>  <Active>  (1030) 
0.0

>  <Smiles>  (1030) 
CC[C@@H](C#N)Sc1nc2cc(N)ccc2o1

>  <canonical_smi>  (1030) 
CC[C@@H](C#N)Sc1nc2cc(N)ccc2o1

>  <Set>  (1030) 
G2 inactive

>  <Set_type>  (1030) 
Test

>  <MW>  (1030) 
233.3

>  <HBD>  (1030) 
1

>  <HBA>  (1030) 
5

>  <NRB>  (1030) 
3

>  <NR>  (1030) 
2

>  <NAR>  (1030) 
2

>  <PSA>  (1030) 
75.84

>  <Standard Type>  (1030) 
nan

>  <Standard Relation>  (1030) 
nan

>  <Standard Units>  (1030) 
nan

>  <Standard Value>  (1030) 
nan

>  <Assay ChEMBL ID>  (1030) 
nan

>  <Assay Description>  (1030) 
nan

>  <BAO Label>  (1030) 
nan

$$$$

     RDKit          2D

 16 17  0  0  0  0  0  0  0  0999 V2000
    3.0000    0.0000    0.0000 C   0  0  0  0  0  0  0  0  0  0  0  0
    1.5000    0.0000    0.0000 C   0  0  0  0  0  0  0  0  0  0  0  0
    0.7500   -1.2990    0.0000 C   0  0  0  0  0  0  0  0  0  0  0  0
   -0.7500   -1.2990    0.0000 C   0  0  0  0  0  0  0  0  0  0  0  0
   -1.5000    0.0000    0.0000 C   0  0  0  0  0  0  0  0  0  0  0  0
   -3.0000    0.0000    0.0000 C   0  0  0  0  0  0  0  0  0  0  0  0
   -4.5000    0.0000    0.0000 N   0  0  0  0  0  0  0  0  0  0  0  0
   -0.7500    1.2990    0.0000 C   0  0  0  0  0  0  0  0  0  0  0  0
    0.7500    1.2990    0.0000 C   0  0  0  0  0  0  0  0  0  0  0  0
    1.5000    2.5981    0.0000 N   0  0  0  0  0  0  0  0  0  0  0  0
    0.7500    3.8971    0.0000 C   0  0  0  0  0  0  0  0  0  0  0  0
   -0.7418    4.0539    0.0000 C   0  0  0  0  0  0  0  0  0  0  0  0
   -1.0537    5.5211    0.0000 O   0  0  0  0  0  0  0  0  0  0  0  0
    0.2454    6.2711    0.0000 C   0  0  0  0  0  0  0  0  0  0  0  0
    1.3601    5.2674    0.0000 C   0  0  0  0  0  0  0  0  0  0  0  0
    2.8273    5.5793    0.0000 O   0  0  0  0  0  0  0  0  0  0  0  0
  1  2  1  0
  2  3  2  0
  3  4  1  0
  4  5  2  0
  5  6  1  0
  6  7  3  0
  5  8  1  0
  8  9  2  0
  9 10  1  0
 11 10  1  6
 11 12  1  0
 12 13  1  0
 13 14  1  0
 14 15  1  0
 15 16  1  6
  9  2  1  0
 15 11  1  0
M  END
>  <Compound_ID>  (1031) 
C50430137

>  <Active>  (1031) 
0.0

>  <Smiles>  (1031) 
Cc1ccc(C#N)cc1N[C@@H]1COC[C@@H]1O

>  <canonical_smi>  (1031) 
Cc1ccc(C#N)cc1N[C@@H]1COC[C@@H]1O

>  <Set>  (1031) 
G2 inactive

>  <Set_type>  (1031) 
Test

>  <MW>  (1031) 
218.26

>  <HBD>  (1031) 
2

>  <HBA>  (1031) 
4

>  <NRB>  (1031) 
2

>  <NR>  (1031) 
2

>  <NAR>  (1031) 
1

>  <PSA>  (1031) 
65.28

>  <Standard Type>  (1031) 
nan

>  <Standard Relation>  (1031) 
nan

>  <Standard Units>  (1031) 
nan

>  <Standard Value>  (1031) 
nan

>  <Assay ChEMBL ID>  (1031) 
nan

>  <Assay Description>  (1031) 
nan

>  <BAO Label>  (1031) 
nan

$$$$

     RDKit          2D

 24 25  0  0  0  0  0  0  0  0999 V2000
   -3.0000   -2.5981    0.0000 C   0  0  0  0  0  0  0  0  0  0  0  0
   -1.5000   -2.5981    0.0000 C   0  0  0  0  0  0  0  0  0  0  0  0
   -0.7500   -3.8971    0.0000 C   0  0  0  0  0  0  0  0  0  0  0  0
   -1.5000   -5.1962    0.0000 C   0  0  0  0  0  0  0  0  0  0  0  0
   -0.7500   -6.4952    0.0000 C   0  0  0  0  0  0  0  0  0  0  0  0
   -1.5000   -7.7942    0.0000 C   0  0  0  0  0  0  0  0  0  0  0  0
   -3.0000   -7.7942    0.0000 O   0  0  0  0  0  0  0  0  0  0  0  0
   -0.7500   -9.0933    0.0000 N   0  0  0  0  0  0  0  0  0  0  0  0
   -1.5000  -10.3923    0.0000 C   0  0  0  0  0  0  0  0  0  0  0  0
   -0.7500  -11.6913    0.0000 C   0  0  0  0  0  0  0  0  0  0  0  0
   -3.0000  -10.3923    0.0000 C   0  0  0  0  0  0  0  0  0  0  0  0
   -3.7500   -9.0933    0.0000 O   0  0  0  0  0  0  0  0  0  0  0  0
   -3.7500  -11.6913    0.0000 O   0  0  0  0  0  1  0  0  0  0  0  0
    0.7500   -3.8971    0.0000 C   0  0  0  0  0  0  0  0  0  0  0  0
    1.5000   -5.1962    0.0000 O   0  0  0  0  0  0  0  0  0  0  0  0
    1.5000   -2.5981    0.0000 O   0  0  0  0  0  0  0  0  0  0  0  0
    0.7500   -1.2990    0.0000 C   0  0  0  0  0  0  0  0  0  0  0  0
    1.5000    0.0000    0.0000 C   0  0  0  0  0  0  0  0  0  0  0  0
    3.0000    0.0000    0.0000 C   0  0  0  0  0  0  0  0  0  0  0  0
    0.7500    1.2990    0.0000 C   0  0  0  0  0  0  0  0  0  0  0  0
    1.5000    2.5981    0.0000 O   0  0  0  0  0  0  0  0  0  0  0  0
   -0.7500    1.2990    0.0000 C   0  0  0  0  0  0  0  0  0  0  0  0
   -1.5000    0.0000    0.0000 C   0  0  0  0  0  0  0  0  0  0  0  0
   -0.7500   -1.2990    0.0000 C   0  0  0  0  0  0  0  0  0  0  0  0
  1  2  1  0
  2  3  2  0
  3  4  1  0
  4  5  1  0
  5  6  1  0
  6  7  2  0
  6  8  1  0
  8  9  1  0
  9 10  1  6
  9 11  1  0
 11 12  2  0
 11 13  1  0
  3 14  1  0
 14 15  2  0
 14 16  1  0
 16 17  1  0
 17 18  2  0
 18 19  1  0
 18 20  1  0
 20 21  1  0
 20 22  2  0
 22 23  1  0
 23 24  2  0
 24  2  1  0
 24 17  1  0
M  CHG  1  13  -1
M  END
>  <Compound_ID>  (1032) 
C11865400

>  <Active>  (1032) 
0.0

>  <Smiles>  (1032) 
Cc1c(CCC(=O)N[C@H](C)C(=O)[O-])c(=O)oc2c(C)c(O)ccc12

>  <canonical_smi>  (1032) 
Cc1c(CCC(=O)N[C@H](C)C(=O)[O-])c(=O)oc2c(C)c(O)ccc12

>  <Set>  (1032) 
G2 inactive

>  <Set_type>  (1032) 
Test

>  <MW>  (1032) 
332.33

>  <HBD>  (1032) 
2

>  <HBA>  (1032) 
6

>  <NRB>  (1032) 
5

>  <NR>  (1032) 
2

>  <NAR>  (1032) 
2

>  <PSA>  (1032) 
119.67

>  <Standard Type>  (1032) 
nan

>  <Standard Relation>  (1032) 
nan

>  <Standard Units>  (1032) 
nan

>  <Standard Value>  (1032) 
nan

>  <Assay ChEMBL ID>  (1032) 
nan

>  <Assay Description>  (1032) 
nan

>  <BAO Label>  (1032) 
nan

$$$$

     RDKit          2D

 21 22  0  0  0  0  0  0  0  0999 V2000
    6.0000   -2.5981    0.0000 N   0  0  0  0  0  0  0  0  0  0  0  0
    5.2500   -1.2990    0.0000 C   0  0  0  0  0  0  0  0  0  0  0  0
    6.0000    0.0000    0.0000 S   0  0  0  0  0  0  0  0  0  0  0  0
    3.7500   -1.2990    0.0000 C   0  0  0  0  0  0  0  0  0  0  0  0
    3.0000    0.0000    0.0000 O   0  0  0  0  0  0  0  0  0  0  0  0
    1.5000    0.0000    0.0000 C   0  0  0  0  0  0  0  0  0  0  0  0
    0.7500   -1.2990    0.0000 C   0  0  0  0  0  0  0  0  0  0  0  0
   -0.7500   -1.2990    0.0000 C   0  0  0  0  0  0  0  0  0  0  0  0
   -1.5000    0.0000    0.0000 C   0  0  0  0  0  0  0  0  0  0  0  0
   -0.7500    1.2990    0.0000 C   0  0  0  0  0  0  0  0  0  0  0  0
   -1.5000    2.5981    0.0000 N   0  0  0  0  0  2  0  0  0  0  0  0
   -0.7500    3.8971    0.0000 S   0  0  0  0  0  0  0  0  0  0  0  0
   -2.0490    4.6471    0.0000 O   0  0  0  0  0  0  0  0  0  0  0  0
    0.5490    3.1471    0.0000 O   0  0  0  0  0  0  0  0  0  0  0  0
    0.0000    5.1962    0.0000 N   0  0  0  0  0  0  0  0  0  0  0  0
    1.5000    5.1962    0.0000 C   0  0  0  0  0  0  0  0  0  0  0  0
    2.2500    6.4952    0.0000 C   0  0  0  0  0  0  0  0  0  0  0  0
    1.5000    7.7942    0.0000 O   0  0  0  0  0  0  0  0  0  0  0  0
    0.0000    7.7942    0.0000 C   0  0  0  0  0  0  0  0  0  0  0  0
   -0.7500    6.4952    0.0000 C   0  0  0  0  0  0  0  0  0  0  0  0
    0.7500    1.2990    0.0000 C   0  0  0  0  0  0  0  0  0  0  0  0
  1  2  1  0
  2  3  2  0
  2  4  1  0
  4  5  1  0
  5  6  1  0
  6  7  2  0
  7  8  1  0
  8  9  2  0
  9 10  1  0
 10 11  1  0
 11 12  1  0
 12 13  2  0
 12 14  2  0
 12 15  1  0
 15 16  1  0
 16 17  1  0
 17 18  1  0
 18 19  1  0
 19 20  1  0
 10 21  2  0
 21  6  1  0
 20 15  1  0
M  CHG  1  11  -1
M  END
>  <Compound_ID>  (1033) 
C36682910

>  <Active>  (1033) 
0.0

>  <Smiles>  (1033) 
NC(=S)COc1cccc([N-]S(=O)(=O)N2CCOCC2)c1

>  <canonical_smi>  (1033) 
NC(=S)COc1cccc([N-]S(=O)(=O)N2CCOCC2)c1

>  <Set>  (1033) 
G2 inactive

>  <Set_type>  (1033) 
Test

>  <MW>  (1033) 
330.41

>  <HBD>  (1033) 
1

>  <HBA>  (1033) 
6

>  <NRB>  (1033) 
6

>  <NR>  (1033) 
2

>  <NAR>  (1033) 
1

>  <PSA>  (1033) 
95.96

>  <Standard Type>  (1033) 
nan

>  <Standard Relation>  (1033) 
nan

>  <Standard Units>  (1033) 
nan

>  <Standard Value>  (1033) 
nan

>  <Assay ChEMBL ID>  (1033) 
nan

>  <Assay Description>  (1033) 
nan

>  <BAO Label>  (1033) 
nan

$$$$

     RDKit          2D

 22 24  0  0  0  0  0  0  0  0999 V2000
    5.2500   -1.2990    0.0000 C   0  0  0  0  0  0  0  0  0  0  0  0
    3.7500   -1.2990    0.0000 C   0  0  0  0  0  0  0  0  0  0  0  0
    3.0000    0.0000    0.0000 O   0  0  0  0  0  0  0  0  0  0  0  0
    1.5000    0.0000    0.0000 C   0  0  0  0  0  0  0  0  0  0  0  0
    0.7500   -1.2990    0.0000 C   0  0  0  0  0  0  0  0  0  0  0  0
   -0.7500   -1.2990    0.0000 C   0  0  0  0  0  0  0  0  0  0  0  0
   -1.5000    0.0000    0.0000 C   0  0  0  0  0  0  0  0  0  0  0  0
   -2.9672    0.3119    0.0000 N   0  0  0  0  0  0  0  0  0  0  0  0
   -3.1240    1.8037    0.0000 C   0  0  0  0  0  0  0  0  0  0  0  0
   -4.4231    2.5537    0.0000 N   0  0  0  0  0  0  0  0  0  0  0  0
   -5.7221    1.8037    0.0000 C   0  0  0  0  0  0  0  0  0  0  0  0
   -5.7221    0.3037    0.0000 O   0  0  0  0  0  1  0  0  0  0  0  0
   -7.0211    2.5537    0.0000 C   0  0  0  0  0  0  0  0  0  0  0  0
   -8.3202    1.8037    0.0000 N   0  0  0  0  0  4  0  0  0  0  0  0
   -9.6192    2.5537    0.0000 C   0  0  0  0  0  0  0  0  0  0  0  0
  -10.9182    1.8037    0.0000 C   0  0  0  0  0  0  0  0  0  0  0  0
  -10.9182    0.3037    0.0000 C   0  0  0  0  0  0  0  0  0  0  0  0
   -9.6192   -0.4463    0.0000 C   0  0  0  0  0  0  0  0  0  0  0  0
   -8.3202    0.3037    0.0000 C   0  0  0  0  0  0  0  0  0  0  0  0
   -1.7537    2.4138    0.0000 S   0  0  0  0  0  0  0  0  0  0  0  0
   -0.7500    1.2990    0.0000 C   0  0  0  0  0  0  0  0  0  0  0  0
    0.7500    1.2990    0.0000 C   0  0  0  0  0  0  0  0  0  0  0  0
  1  2  1  0
  2  3  1  0
  3  4  1  0
  4  5  2  0
  5  6  1  0
  6  7  2  0
  7  8  1  0
  8  9  2  0
  9 10  1  0
 10 11  2  0
 11 12  1  0
 11 13  1  0
 13 14  1  0
 14 15  1  0
 15 16  1  0
 16 17  1  0
 17 18  1  0
 18 19  1  0
  9 20  1  0
 20 21  1  0
 21 22  2  0
 22  4  1  0
 21  7  1  0
 19 14  1  0
M  CHG  2  12  -1  14   1
M  END
>  <Compound_ID>  (1034) 
C49622769

>  <Active>  (1034) 
0.0

>  <Smiles>  (1034) 
CCOc1ccc2nc(/N=C(\[O-])C[NH+]3CCCCC3)sc2c1

>  <canonical_smi>  (1034) 
CCOc1ccc2nc(/N=C(\[O-])C[NH+]3CCCCC3)sc2c1

>  <Set>  (1034) 
G2 inactive

>  <Set_type>  (1034) 
Test

>  <MW>  (1034) 
319.43

>  <HBD>  (1034) 
1

>  <HBA>  (1034) 
3

>  <NRB>  (1034) 
5

>  <NR>  (1034) 
3

>  <NAR>  (1034) 
2

>  <PSA>  (1034) 
61.98

>  <Standard Type>  (1034) 
nan

>  <Standard Relation>  (1034) 
nan

>  <Standard Units>  (1034) 
nan

>  <Standard Value>  (1034) 
nan

>  <Assay ChEMBL ID>  (1034) 
nan

>  <Assay Description>  (1034) 
nan

>  <BAO Label>  (1034) 
nan

$$$$

     RDKit          2D

 22 23  0  0  0  0  0  0  0  0999 V2000
    0.5986   -7.8150    0.0000 C   0  0  0  0  0  0  0  0  0  0  0  0
    1.7133   -6.8113    0.0000 C   0  0  0  0  0  0  0  0  0  0  0  0
    3.1399   -7.2748    0.0000 C   0  0  0  0  0  0  0  0  0  0  0  0
    4.2546   -6.2711    0.0000 C   0  0  0  0  0  0  0  0  0  0  0  0
    5.1363   -7.4847    0.0000 C   0  0  0  0  0  0  0  0  0  0  0  0
    5.5537   -5.5211    0.0000 N   0  0  0  0  0  0  0  0  0  0  0  0
    5.2418   -4.0539    0.0000 C   0  0  0  0  0  0  0  0  0  0  0  0
    6.2455   -2.9392    0.0000 O   0  0  0  0  0  0  0  0  0  0  0  0
    3.7500   -3.8971    0.0000 N   0  0  0  0  0  0  0  0  0  0  0  0
    3.0000   -2.5981    0.0000 C   0  0  0  0  0  0  0  0  0  0  0  0
    1.5000   -2.5981    0.0000 C   0  0  0  0  0  0  0  0  0  0  0  0
    0.7500   -3.8971    0.0000 O   0  0  0  0  0  0  0  0  0  0  0  0
    0.7500   -1.2990    0.0000 N   0  0  0  0  0  0  0  0  0  0  0  0
    1.5000    0.0000    0.0000 C   0  0  0  0  0  0  0  0  0  0  0  0
    0.7500    1.2990    0.0000 C   0  0  0  0  0  0  0  0  0  0  0  0
   -0.7500    1.2990    0.0000 C   0  0  0  0  0  0  0  0  0  0  0  0
   -1.5000    0.0000    0.0000 C   0  0  0  0  0  0  0  0  0  0  0  0
   -0.7500   -1.2990    0.0000 C   0  0  0  0  0  0  0  0  0  0  0  0
   -1.5000   -2.5981    0.0000 C   0  0  0  0  0  0  0  0  0  0  0  0
   -3.0000   -2.5981    0.0000 C   0  0  0  0  0  0  0  0  0  0  0  0
    3.1399   -5.2674    0.0000 C   0  0  0  0  0  0  0  0  0  0  0  0
    1.6727   -5.5793    0.0000 O   0  0  0  0  0  0  0  0  0  0  0  0
  1  2  1  0
  2  3  1  0
  3  4  1  0
  4  5  1  1
  4  6  1  0
  6  7  1  0
  7  8  2  0
  7  9  1  0
  9 10  1  0
 10 11  1  0
 11 12  2  0
 11 13  1  0
 13 14  1  0
 14 15  1  0
 15 16  1  0
 16 17  1  0
 17 18  1  0
 18 19  1  6
 19 20  1  0
  9 21  1  0
 21 22  2  0
 21  4  1  0
 18 13  1  0
M  END
>  <Compound_ID>  (1035) 
C60708355

>  <Active>  (1035) 
0.0

>  <Smiles>  (1035) 
CCC[C@@]1(C)NC(=O)N(CC(=O)N2CCCC[C@H]2CC)C1=O

>  <canonical_smi>  (1035) 
CCC[C@@]1(C)NC(=O)N(CC(=O)N2CCCC[C@H]2CC)C1=O

>  <Set>  (1035) 
G2 inactive

>  <Set_type>  (1035) 
Test

>  <MW>  (1035) 
309.41

>  <HBD>  (1035) 
1

>  <HBA>  (1035) 
3

>  <NRB>  (1035) 
5

>  <NR>  (1035) 
2

>  <NAR>  (1035) 
0

>  <PSA>  (1035) 
69.72

>  <Standard Type>  (1035) 
nan

>  <Standard Relation>  (1035) 
nan

>  <Standard Units>  (1035) 
nan

>  <Standard Value>  (1035) 
nan

>  <Assay ChEMBL ID>  (1035) 
nan

>  <Assay Description>  (1035) 
nan

>  <BAO Label>  (1035) 
nan

$$$$

     RDKit          2D

 16 17  0  0  0  0  0  0  0  0999 V2000
    3.7500   -3.8971    0.0000 C   0  0  0  0  0  0  0  0  0  0  0  0
    3.0000   -2.5981    0.0000 C   0  0  0  0  0  0  0  0  0  0  0  0
    1.5000   -2.5981    0.0000 C   0  0  0  0  0  0  0  0  0  0  0  0
    0.7500   -3.8971    0.0000 C   0  0  0  0  0  0  0  0  0  0  0  0
   -0.7500   -3.8971    0.0000 C   0  0  0  0  0  0  0  0  0  0  0  0
   -1.5000   -5.1962    0.0000 C   0  0  0  0  0  0  0  0  0  0  0  0
   -3.0000   -5.1962    0.0000 C   0  0  0  0  0  0  0  0  0  0  0  0
   -0.7500   -6.4952    0.0000 O   0  0  0  0  0  0  0  0  0  0  0  0
   -1.5000   -2.5981    0.0000 C   0  0  0  0  0  0  0  0  0  0  0  0
   -0.7500   -1.2990    0.0000 C   0  0  0  0  0  0  0  0  0  0  0  0
    0.7500   -1.2990    0.0000 C   0  0  0  0  0  0  0  0  0  0  0  0
    1.5000    0.0000    0.0000 N   0  0  0  0  0  0  0  0  0  0  0  0
    0.7500    1.2990    0.0000 C   0  0  0  0  0  0  0  0  0  0  0  0
    1.5000    2.5981    0.0000 O   0  0  0  0  0  0  0  0  0  0  0  0
   -0.7500    1.2990    0.0000 C   0  0  0  0  0  0  0  0  0  0  0  0
   -1.5000    0.0000    0.0000 C   0  0  0  0  0  0  0  0  0  0  0  0
  1  2  1  0
  2  3  1  0
  3  4  2  0
  4  5  1  0
  5  6  1  0
  6  7  1  6
  6  8  1  0
  5  9  2  0
  9 10  1  0
 10 11  2  0
 11 12  1  0
 12 13  1  0
 13 14  2  0
 13 15  1  0
 15 16  1  0
 11  3  1  0
 16 10  1  0
M  END
>  <Compound_ID>  (1036) 
C58113461

>  <Active>  (1036) 
0.0

>  <Smiles>  (1036) 
CCc1cc([C@@H](C)O)cc2c1NC(=O)CC2

>  <canonical_smi>  (1036) 
CCc1cc([C@@H](C)O)cc2c1NC(=O)CC2

>  <Set>  (1036) 
G2 inactive

>  <Set_type>  (1036) 
Test

>  <MW>  (1036) 
219.28

>  <HBD>  (1036) 
2

>  <HBA>  (1036) 
2

>  <NRB>  (1036) 
2

>  <NR>  (1036) 
2

>  <NAR>  (1036) 
1

>  <PSA>  (1036) 
49.33

>  <Standard Type>  (1036) 
nan

>  <Standard Relation>  (1036) 
nan

>  <Standard Units>  (1036) 
nan

>  <Standard Value>  (1036) 
nan

>  <Assay ChEMBL ID>  (1036) 
nan

>  <Assay Description>  (1036) 
nan

>  <BAO Label>  (1036) 
nan

$$$$

     RDKit          2D

 23 24  0  0  0  0  0  0  0  0999 V2000
    3.7500   -1.2990    0.0000 C   0  0  0  0  0  0  0  0  0  0  0  0
    3.0000    0.0000    0.0000 C   0  0  0  0  0  0  0  0  0  0  0  0
    1.5000    0.0000    0.0000 N   0  0  0  0  0  4  0  0  0  0  0  0
    0.7500   -1.2990    0.0000 C   0  0  0  0  0  0  0  0  0  0  0  0
   -0.7500   -1.2990    0.0000 C   0  0  0  0  0  0  0  0  0  0  0  0
   -1.5000    0.0000    0.0000 N   0  0  0  0  0  0  0  0  0  0  0  0
   -3.0000    0.0000    0.0000 C   0  0  0  0  0  0  0  0  0  0  0  0
   -3.7500    1.2990    0.0000 C   0  0  0  0  0  0  0  0  0  0  0  0
   -5.2500    1.2990    0.0000 C   0  0  0  0  0  0  0  0  0  0  0  0
   -6.0000    0.0000    0.0000 O   0  0  0  0  0  0  0  0  0  0  0  0
   -6.0000    2.5981    0.0000 C   0  0  0  0  0  0  0  0  0  0  0  0
   -5.2500    3.8971    0.0000 C   0  0  0  0  0  0  0  0  0  0  0  0
   -6.0000    5.1962    0.0000 C   0  0  0  0  0  0  0  0  0  0  0  0
   -7.5000    5.1962    0.0000 C   0  0  0  0  0  0  0  0  0  0  0  0
   -8.2500    6.4952    0.0000 O   0  0  0  0  0  0  0  0  0  0  0  0
   -7.5000    7.7942    0.0000 C   0  0  0  0  0  0  0  0  0  0  0  0
   -8.2500    9.0933    0.0000 C   0  0  0  0  0  0  0  0  0  0  0  0
   -6.0000    7.7942    0.0000 C   0  0  0  0  0  0  0  0  0  0  0  0
   -8.2500    3.8971    0.0000 C   0  0  0  0  0  0  0  0  0  0  0  0
   -9.7500    3.8971    0.0000 N   0  0  0  0  0  0  0  0  0  0  0  0
   -7.5000    2.5981    0.0000 C   0  0  0  0  0  0  0  0  0  0  0  0
   -0.7500    1.2990    0.0000 C   0  0  0  0  0  0  0  0  0  0  0  0
    0.7500    1.2990    0.0000 C   0  0  0  0  0  0  0  0  0  0  0  0
  1  2  1  0
  2  3  1  0
  3  4  1  0
  4  5  1  0
  5  6  1  0
  6  7  1  0
  7  8  1  0
  8  9  1  0
  9 10  1  6
  9 11  1  0
 11 12  2  0
 12 13  1  0
 13 14  2  0
 14 15  1  0
 15 16  1  0
 16 17  1  0
 16 18  1  0
 14 19  1  0
 19 20  1  0
 19 21  2  0
  6 22  1  0
 22 23  1  0
 23  3  1  0
 21 11  1  0
M  CHG  1   3   1
M  END
>  <Compound_ID>  (1037) 
C57663316

>  <Active>  (1037) 
0.0

>  <Smiles>  (1037) 
CC[NH+]1CCN(CC[C@H](O)c2ccc(OC(C)C)c(N)c2)CC1

>  <canonical_smi>  (1037) 
CC[NH+]1CCN(CC[C@H](O)c2ccc(OC(C)C)c(N)c2)CC1

>  <Set>  (1037) 
G2 inactive

>  <Set_type>  (1037) 
Test

>  <MW>  (1037) 
322.47

>  <HBD>  (1037) 
3

>  <HBA>  (1037) 
4

>  <NRB>  (1037) 
7

>  <NR>  (1037) 
2

>  <NAR>  (1037) 
1

>  <PSA>  (1037) 
63.16

>  <Standard Type>  (1037) 
nan

>  <Standard Relation>  (1037) 
nan

>  <Standard Units>  (1037) 
nan

>  <Standard Value>  (1037) 
nan

>  <Assay ChEMBL ID>  (1037) 
nan

>  <Assay Description>  (1037) 
nan

>  <BAO Label>  (1037) 
nan

$$$$

     RDKit          2D

 22 24  0  0  0  0  0  0  0  0999 V2000
   -8.6640    3.2626    0.0000 C   0  0  0  0  0  0  0  0  0  0  0  0
   -7.9140    1.9635    0.0000 O   0  0  0  0  0  0  0  0  0  0  0  0
   -6.4140    1.9635    0.0000 C   0  0  0  0  0  0  0  0  0  0  0  0
   -5.6640    3.2626    0.0000 C   0  0  0  0  0  0  0  0  0  0  0  0
   -4.1640    3.2626    0.0000 C   0  0  0  0  0  0  0  0  0  0  0  0
   -3.4140    4.5616    0.0000 O   0  0  0  0  0  0  0  0  0  0  0  0
   -4.1640    5.8606    0.0000 C   0  0  0  0  0  0  0  0  0  0  0  0
   -3.4140    1.9635    0.0000 C   0  0  0  0  0  0  0  0  0  0  0  0
   -1.9140    1.9635    0.0000 N   0  0  0  0  0  0  0  0  0  0  0  0
   -1.0323    3.1771    0.0000 C   0  0  0  0  0  0  0  0  0  0  0  0
   -1.4958    4.6036    0.0000 N   0  0  0  0  0  4  0  0  0  0  0  0
    0.3943    2.7135    0.0000 S   0  0  0  0  0  0  0  0  0  0  0  0
    0.3943    1.2135    0.0000 C   0  0  0  0  0  0  0  0  0  0  0  0
    1.2760    0.0000    0.0000 C   0  0  0  0  0  0  0  0  0  0  0  0
    0.3943   -1.2135    0.0000 S   0  0  0  0  0  0  0  0  0  0  0  0
    1.6933   -1.9635    0.0000 O   0  0  0  0  0  0  0  0  0  0  0  0
   -0.2158   -2.5838    0.0000 O   0  0  0  0  0  0  0  0  0  0  0  0
   -1.0323   -0.7500    0.0000 C   0  0  0  0  0  0  0  0  0  0  0  0
   -1.0323    0.7500    0.0000 C   0  0  0  0  0  0  0  0  0  0  0  0
   -4.1640    0.6645    0.0000 C   0  0  0  0  0  0  0  0  0  0  0  0
   -5.6640    0.6645    0.0000 C   0  0  0  0  0  0  0  0  0  0  0  0
   -6.4140   -0.6346    0.0000 Cl  0  0  0  0  0  0  0  0  0  0  0  0
  1  2  1  0
  2  3  1  0
  3  4  2  0
  4  5  1  0
  5  6  1  0
  6  7  1  0
  5  8  2  0
  8  9  1  0
  9 10  1  0
 10 11  2  0
 10 12  1  0
 12 13  1  0
 13 14  1  1
 14 15  1  0
 15 16  2  0
 15 17  2  0
 15 18  1  0
 19 18  1  6
  8 20  1  0
 20 21  2  0
 21 22  1  0
 21  3  1  0
 19  9  1  0
 19 13  1  0
M  CHG  1  11   1
M  END
>  <Compound_ID>  (1038) 
C26505266

>  <Active>  (1038) 
0.0

>  <Smiles>  (1038) 
COc1cc(OC)c(N2C(=[NH2+])S[C@H]3CS(=O)(=O)C[C@@H]32)cc1Cl

>  <canonical_smi>  (1038) 
COc1cc(OC)c(N2C(=[NH2+])S[C@H]3CS(=O)(=O)C[C@@H]32)cc1Cl

>  <Set>  (1038) 
G2 inactive

>  <Set_type>  (1038) 
Test

>  <MW>  (1038) 
363.87

>  <HBD>  (1038) 
1

>  <HBA>  (1038) 
6

>  <NRB>  (1038) 
3

>  <NR>  (1038) 
3

>  <NAR>  (1038) 
1

>  <PSA>  (1038) 
81.43

>  <Standard Type>  (1038) 
nan

>  <Standard Relation>  (1038) 
nan

>  <Standard Units>  (1038) 
nan

>  <Standard Value>  (1038) 
nan

>  <Assay ChEMBL ID>  (1038) 
nan

>  <Assay Description>  (1038) 
nan

>  <BAO Label>  (1038) 
nan

$$$$

     RDKit          2D

 18 19  0  0  0  0  0  0  0  0999 V2000
    3.0000    0.0000    0.0000 C   0  0  0  0  0  0  0  0  0  0  0  0
    1.5000    0.0000    0.0000 C   0  0  0  0  0  0  0  0  0  0  0  0
    0.7500   -1.2990    0.0000 C   0  0  0  0  0  0  0  0  0  0  0  0
   -0.7500   -1.2990    0.0000 C   0  0  0  0  0  0  0  0  0  0  0  0
   -1.5000    0.0000    0.0000 N   0  0  0  0  0  0  0  0  0  0  0  0
   -3.0000    0.0000    0.0000 C   0  0  0  0  0  0  0  0  0  0  0  0
   -3.7500   -1.2990    0.0000 C   0  0  0  0  0  0  0  0  0  0  0  0
   -3.1399   -2.6694    0.0000 N   0  0  0  0  0  0  0  0  0  0  0  0
   -4.2546   -3.6731    0.0000 C   0  0  0  0  0  0  0  0  0  0  0  0
   -4.0978   -5.1648    0.0000 C   0  0  0  0  0  0  0  0  0  0  0  0
   -2.6060   -5.0080    0.0000 C   0  0  0  0  0  0  0  0  0  0  0  0
   -5.5896   -5.3216    0.0000 C   0  0  0  0  0  0  0  0  0  0  0  0
   -3.9410   -6.6566    0.0000 N   0  0  0  0  0  4  0  0  0  0  0  0
   -5.5537   -2.9231    0.0000 N   0  0  0  0  0  0  0  0  0  0  0  0
   -5.2418   -1.4558    0.0000 O   0  0  0  0  0  0  0  0  0  0  0  0
   -0.7500    1.2990    0.0000 C   0  0  0  0  0  0  0  0  0  0  0  0
   -1.5000    2.5981    0.0000 O   0  0  0  0  0  0  0  0  0  0  0  0
    0.7500    1.2990    0.0000 C   0  0  0  0  0  0  0  0  0  0  0  0
  1  2  1  0
  2  3  1  0
  3  4  2  0
  4  5  1  0
  5  6  1  0
  6  7  1  0
  7  8  2  0
  8  9  1  0
  9 10  1  0
 10 11  1  0
 10 12  1  0
 10 13  1  0
  9 14  2  0
 14 15  1  0
  5 16  1  0
 16 17  2  0
 16 18  1  0
 18  2  2  0
 15  7  1  0
M  CHG  1  13   1
M  END
>  <Compound_ID>  (1039) 
C61909284

>  <Active>  (1039) 
0.0

>  <Smiles>  (1039) 
Cc1ccn(Cc2nc(C(C)(C)[NH3+])no2)c(=O)c1

>  <canonical_smi>  (1039) 
Cc1ccn(Cc2nc(C(C)(C)[NH3+])no2)c(=O)c1

>  <Set>  (1039) 
G2 inactive

>  <Set_type>  (1039) 
Test

>  <MW>  (1039) 
249.29

>  <HBD>  (1039) 
1

>  <HBA>  (1039) 
4

>  <NRB>  (1039) 
3

>  <NR>  (1039) 
2

>  <NAR>  (1039) 
2

>  <PSA>  (1039) 
88.56

>  <Standard Type>  (1039) 
nan

>  <Standard Relation>  (1039) 
nan

>  <Standard Units>  (1039) 
nan

>  <Standard Value>  (1039) 
nan

>  <Assay ChEMBL ID>  (1039) 
nan

>  <Assay Description>  (1039) 
nan

>  <BAO Label>  (1039) 
nan

$$$$

     RDKit          2D

 20 20  0  0  0  0  0  0  0  0999 V2000
    7.5000    0.0000    0.0000 C   0  0  0  0  0  0  0  0  0  0  0  0
    6.0000    0.0000    0.0000 C   0  0  0  0  0  0  0  0  0  0  0  0
    5.2500    1.2990    0.0000 C   0  0  0  0  0  0  0  0  0  0  0  0
    5.2500   -1.2990    0.0000 C   0  0  0  0  0  0  0  0  0  0  0  0
    3.7500   -1.2990    0.0000 C   0  0  0  0  0  0  0  0  0  0  0  0
    3.0000   -2.5981    0.0000 N   0  0  0  0  0  0  0  0  0  0  0  0
    3.7500   -3.8971    0.0000 C   0  0  0  0  0  0  0  0  0  0  0  0
    3.0000   -5.1962    0.0000 N   0  0  0  0  0  0  0  0  0  0  0  0
    5.2500   -3.8971    0.0000 O   0  0  0  0  0  0  0  0  0  0  0  0
    3.0000    0.0000    0.0000 C   0  0  0  0  0  0  0  0  0  0  0  0
    3.7500    1.2990    0.0000 O   0  0  0  0  0  0  0  0  0  0  0  0
    1.5000    0.0000    0.0000 N   0  0  0  0  0  0  0  0  0  0  0  0
    0.7500   -1.2990    0.0000 C   0  0  0  0  0  0  0  0  0  0  0  0
   -0.7500   -1.2990    0.0000 C   0  0  0  0  0  0  0  0  0  0  0  0
   -1.5000    0.0000    0.0000 C   0  0  0  0  0  0  0  0  0  0  0  0
   -0.7500    1.2990    0.0000 C   0  0  0  0  0  0  0  0  0  0  0  0
   -1.5000    2.5981    0.0000 C   0  0  0  0  0  0  0  0  0  0  0  0
   -3.0000    2.5981    0.0000 O   0  0  0  0  0  0  0  0  0  0  0  0
   -0.7500    3.8971    0.0000 O   0  0  0  0  0  1  0  0  0  0  0  0
    0.7500    1.2990    0.0000 C   0  0  0  0  0  0  0  0  0  0  0  0
  1  2  1  0
  2  3  1  0
  2  4  1  0
  5  4  1  1
  5  6  1  0
  6  7  1  0
  7  8  1  0
  7  9  2  0
  5 10  1  0
 10 11  2  0
 10 12  1  0
 12 13  1  0
 13 14  1  0
 14 15  1  0
 15 16  1  0
 16 17  1  1
 17 18  2  0
 17 19  1  0
 16 20  1  0
 20 12  1  0
M  CHG  1  19  -1
M  END
>  <Compound_ID>  (1040) 
C37435915

>  <Active>  (1040) 
0.0

>  <Smiles>  (1040) 
CC(C)C[C@@H](NC(N)=O)C(=O)N1CCC[C@@H](C(=O)[O-])C1

>  <canonical_smi>  (1040) 
CC(C)C[C@@H](NC(N)=O)C(=O)N1CCC[C@@H](C(=O)[O-])C1

>  <Set>  (1040) 
G2 inactive

>  <Set_type>  (1040) 
Test

>  <MW>  (1040) 
284.34

>  <HBD>  (1040) 
2

>  <HBA>  (1040) 
4

>  <NRB>  (1040) 
5

>  <NR>  (1040) 
1

>  <NAR>  (1040) 
0

>  <PSA>  (1040) 
115.56

>  <Standard Type>  (1040) 
nan

>  <Standard Relation>  (1040) 
nan

>  <Standard Units>  (1040) 
nan

>  <Standard Value>  (1040) 
nan

>  <Assay ChEMBL ID>  (1040) 
nan

>  <Assay Description>  (1040) 
nan

>  <BAO Label>  (1040) 
nan

$$$$

     RDKit          2D

 29 32  0  0  0  0  0  0  0  0999 V2000
    3.7500   -6.4952    0.0000 C   0  0  0  0  0  0  0  0  0  0  0  0
    3.0000   -5.1962    0.0000 C   0  0  0  0  0  0  0  0  0  0  0  0
    1.5000   -5.1962    0.0000 C   0  0  0  0  0  0  0  0  0  0  0  0
    0.7500   -6.4952    0.0000 C   0  0  0  0  0  0  0  0  0  0  0  0
    0.7500   -3.8971    0.0000 C   0  0  0  0  0  0  0  0  0  0  0  0
   -0.7500   -3.8971    0.0000 C   0  0  0  0  0  0  0  0  0  0  0  0
   -1.5000   -5.1962    0.0000 O   0  0  0  0  0  0  0  0  0  0  0  0
   -3.0000   -5.1962    0.0000 C   0  0  0  0  0  0  0  0  0  0  0  0
   -3.7500   -6.4952    0.0000 C   0  0  0  0  0  0  0  0  0  0  0  0
   -3.0000   -7.7942    0.0000 O   0  0  0  0  0  0  0  0  0  0  0  0
   -5.2500   -6.4952    0.0000 N   0  0  0  0  0  0  0  0  0  0  0  0
   -6.0000   -7.7942    0.0000 C   0  0  0  0  0  0  0  0  0  0  0  0
   -5.3899   -9.1645    0.0000 N   0  0  0  0  0  0  0  0  0  0  0  0
   -6.5046  -10.1682    0.0000 C   0  0  0  0  0  0  0  0  0  0  0  0
   -7.8037   -9.4182    0.0000 C   0  0  0  0  0  0  0  0  0  0  0  0
   -7.4918   -7.9510    0.0000 S   0  0  0  0  0  0  0  0  0  0  0  0
   -1.5000   -2.5981    0.0000 C   0  0  0  0  0  0  0  0  0  0  0  0
   -0.7500   -1.2990    0.0000 C   0  0  0  0  0  0  0  0  0  0  0  0
    0.7500   -1.2990    0.0000 C   0  0  0  0  0  0  0  0  0  0  0  0
    1.5000   -2.5981    0.0000 C   0  0  0  0  0  0  0  0  0  0  0  0
    3.0000   -2.5981    0.0000 O   0  0  0  0  0  0  0  0  0  0  0  0
    3.7500   -3.8971    0.0000 C   0  0  0  0  0  0  0  0  0  0  0  0
    5.2500   -3.8971    0.0000 O   0  0  0  0  0  0  0  0  0  0  0  0
    1.5000    0.0000    0.0000 C   0  0  0  0  0  0  0  0  0  0  0  0
    0.7500    1.2990    0.0000 C   0  0  0  0  0  0  0  0  0  0  0  0
   -0.7500    1.2990    0.0000 C   0  0  0  0  0  0  0  0  0  0  0  0
   -2.1595    1.8121    0.0000 C   0  0  0  0  0  0  0  0  0  0  0  0
   -0.4895    2.7762    0.0000 C   0  0  0  0  0  0  0  0  0  0  0  0
   -1.5000    0.0000    0.0000 O   0  0  0  0  0  0  0  0  0  0  0  0
  1  2  1  0
  2  3  2  0
  3  4  1  0
  3  5  1  0
  5  6  2  0
  6  7  1  0
  7  8  1  0
  8  9  1  0
  9 10  2  0
  9 11  1  0
 11 12  1  0
 12 13  2  0
 13 14  1  0
 14 15  2  0
 15 16  1  0
  6 17  1  0
 17 18  2  0
 18 19  1  0
 19 20  2  0
 20 21  1  0
 21 22  1  0
 22 23  2  0
 19 24  1  0
 24 25  1  0
 25 26  1  0
 26 27  1  0
 26 28  1  0
 26 29  1  0
 22  2  1  0
 20  5  1  0
 16 12  1  0
 29 18  1  0
M  END
>  <Compound_ID>  (1041) 
C06624534

>  <Active>  (1041) 
0.0

>  <Smiles>  (1041) 
Cc1c(C)c2c(OCC(=O)Nc3nccs3)cc3c(c2oc1=O)CCC(C)(C)O3

>  <canonical_smi>  (1041) 
Cc1c(C)c2c(OCC(=O)Nc3nccs3)cc3c(c2oc1=O)CCC(C)(C)O3

>  <Set>  (1041) 
G2 inactive

>  <Set_type>  (1041) 
Test

>  <MW>  (1041) 
414.48

>  <HBD>  (1041) 
1

>  <HBA>  (1041) 
6

>  <NRB>  (1041) 
4

>  <NR>  (1041) 
4

>  <NAR>  (1041) 
3

>  <PSA>  (1041) 
90.66

>  <Standard Type>  (1041) 
nan

>  <Standard Relation>  (1041) 
nan

>  <Standard Units>  (1041) 
nan

>  <Standard Value>  (1041) 
nan

>  <Assay ChEMBL ID>  (1041) 
nan

>  <Assay Description>  (1041) 
nan

>  <BAO Label>  (1041) 
nan

$$$$

     RDKit          2D

 30 33  0  0  0  0  0  0  0  0999 V2000
    3.0000    0.0000    0.0000 C   0  0  0  0  0  0  0  0  0  0  0  0
    1.5000    0.0000    0.0000 C   0  0  0  0  0  0  0  0  0  0  0  0
    0.7500   -1.2990    0.0000 C   0  0  0  0  0  0  0  0  0  0  0  0
    1.5000   -2.5981    0.0000 C   0  0  0  0  0  0  0  0  0  0  0  0
    0.7500   -3.8971    0.0000 N   0  0  0  0  0  0  0  0  0  0  0  0
    1.3601   -5.2674    0.0000 C   0  0  0  0  0  0  0  0  0  0  0  0
    2.8273   -5.5793    0.0000 O   0  0  0  0  0  0  0  0  0  0  0  0
    0.2454   -6.2711    0.0000 N   0  0  0  0  0  0  0  0  0  0  0  0
   -1.0537   -5.5211    0.0000 C   0  0  0  0  0  0  0  0  0  0  0  0
   -1.6638   -6.8914    0.0000 C   0  0  0  0  0  0  0  0  0  0  0  0
   -3.1555   -7.0482    0.0000 C   0  0  0  0  0  0  0  0  0  0  0  0
   -3.7656   -8.4186    0.0000 C   0  0  0  0  0  0  0  0  0  0  0  0
   -2.8840   -9.6321    0.0000 C   0  0  0  0  0  0  0  0  0  0  0  0
   -1.3922   -9.4753    0.0000 C   0  0  0  0  0  0  0  0  0  0  0  0
   -0.7821   -8.1050    0.0000 C   0  0  0  0  0  0  0  0  0  0  0  0
   -2.4802   -5.0576    0.0000 C   0  0  0  0  0  0  0  0  0  0  0  0
   -2.7921   -3.5904    0.0000 C   0  0  0  0  0  0  0  0  0  0  0  0
   -4.2187   -3.1269    0.0000 C   0  0  0  0  0  0  0  0  0  0  0  0
   -5.3334   -4.1306    0.0000 C   0  0  0  0  0  0  0  0  0  0  0  0
   -5.0215   -5.5978    0.0000 C   0  0  0  0  0  0  0  0  0  0  0  0
   -3.5950   -6.0613    0.0000 C   0  0  0  0  0  0  0  0  0  0  0  0
   -0.7418   -4.0539    0.0000 C   0  0  0  0  0  0  0  0  0  0  0  0
   -1.7455   -2.9392    0.0000 O   0  0  0  0  0  0  0  0  0  0  0  0
   -0.7500   -1.2990    0.0000 C   0  0  0  0  0  0  0  0  0  0  0  0
   -1.5000    0.0000    0.0000 C   0  0  0  0  0  0  0  0  0  0  0  0
   -0.7500    1.2990    0.0000 C   0  0  0  0  0  0  0  0  0  0  0  0
    0.7500    1.2990    0.0000 C   0  0  0  0  0  0  0  0  0  0  0  0
    1.5000    2.5981    0.0000 N   0  0  0  0  0  4  0  0  0  0  0  0
    3.0000    2.5981    0.0000 O   0  0  0  0  0  0  0  0  0  0  0  0
    0.7500    3.8971    0.0000 O   0  0  0  0  0  1  0  0  0  0  0  0
  1  2  1  0
  2  3  2  0
  3  4  1  0
  4  5  1  0
  5  6  1  0
  6  7  2  0
  6  8  1  0
  8  9  1  0
  9 10  1  0
 10 11  2  0
 11 12  1  0
 12 13  2  0
 13 14  1  0
 14 15  2  0
  9 16  1  0
 16 17  2  0
 17 18  1  0
 18 19  2  0
 19 20  1  0
 20 21  2  0
  9 22  1  0
 22 23  2  0
  3 24  1  0
 24 25  2  0
 25 26  1  0
 26 27  2  0
 27 28  1  0
 28 29  2  0
 28 30  1  0
 27  2  1  0
 22  5  1  0
 15 10  1  0
 21 16  1  0
M  CHG  2  28   1  30  -1
M  END
>  <Compound_ID>  (1042) 
C40116929

>  <Active>  (1042) 
0.0

>  <Smiles>  (1042) 
Cc1c(CN2C(=O)NC(c3ccccc3)(c3ccccc3)C2=O)cccc1[N+](=O)[O-]

>  <canonical_smi>  (1042) 
Cc1c(CN2C(=O)NC(c3ccccc3)(c3ccccc3)C2=O)cccc1[N+](=O)[O-]

>  <Set>  (1042) 
G2 inactive

>  <Set_type>  (1042) 
Test

>  <MW>  (1042) 
401.42

>  <HBD>  (1042) 
1

>  <HBA>  (1042) 
4

>  <NRB>  (1042) 
5

>  <NR>  (1042) 
4

>  <NAR>  (1042) 
3

>  <PSA>  (1042) 
92.55

>  <Standard Type>  (1042) 
nan

>  <Standard Relation>  (1042) 
nan

>  <Standard Units>  (1042) 
nan

>  <Standard Value>  (1042) 
nan

>  <Assay ChEMBL ID>  (1042) 
nan

>  <Assay Description>  (1042) 
nan

>  <BAO Label>  (1042) 
nan

$$$$

     RDKit          2D

 29 32  0  0  0  0  0  0  0  0999 V2000
   -5.1962   -8.1073    0.0000 O   0  0  0  0  0  0  0  0  0  0  0  0
   -5.1962   -9.6073    0.0000 C   0  0  0  0  0  0  0  0  0  0  0  0
   -3.8971  -10.3573    0.0000 N   0  0  0  0  0  0  0  0  0  0  0  0
   -2.5981   -9.6073    0.0000 C   0  0  0  0  0  0  0  0  0  0  0  0
   -1.2990  -10.3573    0.0000 C   0  0  0  0  0  0  0  0  0  0  0  0
    0.0000   -9.6073    0.0000 C   0  0  0  0  0  0  0  0  0  0  0  0
    0.0000   -8.1073    0.0000 C   0  0  0  0  0  0  0  0  0  0  0  0
   -1.2990   -7.3573    0.0000 C   0  0  0  0  0  0  0  0  0  0  0  0
   -1.2990   -5.8573    0.0000 C   0  0  0  0  0  0  0  0  0  0  0  0
   -2.5981   -5.1073    0.0000 O   0  0  0  0  0  0  0  0  0  0  0  0
   -0.0000   -5.1073    0.0000 N   0  0  0  0  0  0  0  0  0  0  0  0
   -0.0000   -3.6073    0.0000 C   0  0  0  0  0  0  0  0  0  0  0  0
    1.2135   -2.7256    0.0000 N   0  0  0  0  0  0  0  0  0  0  0  0
    0.7500   -1.2990    0.0000 C   0  0  0  0  0  0  0  0  0  0  0  0
    1.5000    0.0000    0.0000 C   0  0  0  0  0  0  0  0  0  0  0  0
    0.7500    1.2990    0.0000 C   0  0  0  0  0  0  0  0  0  0  0  0
   -0.7500    1.2990    0.0000 C   0  0  0  0  0  0  0  0  0  0  0  0
   -1.5000    0.0000    0.0000 C   0  0  0  0  0  0  0  0  0  0  0  0
   -0.7500   -1.2990    0.0000 C   0  0  0  0  0  0  0  0  0  0  0  0
   -1.2135   -2.7256    0.0000 S   0  0  0  0  0  0  0  0  0  0  0  0
   -2.5981   -8.1073    0.0000 C   0  0  0  0  0  0  0  0  0  0  0  0
   -6.4952  -10.3573    0.0000 N   0  0  0  0  0  0  0  0  0  0  0  0
   -7.7942   -9.6073    0.0000 C   0  0  0  0  0  0  0  0  0  0  0  0
   -9.1645  -10.2174    0.0000 C   0  0  0  0  0  0  0  0  0  0  0  0
  -10.1682   -9.1027    0.0000 C   0  0  0  0  0  0  0  0  0  0  0  0
   -9.4182   -7.8037    0.0000 S   0  0  0  0  0  0  0  0  0  0  0  0
  -10.7886   -7.1935    0.0000 O   0  0  0  0  0  0  0  0  0  0  0  0
   -8.9547   -6.3771    0.0000 O   0  0  0  0  0  0  0  0  0  0  0  0
   -7.9510   -8.1155    0.0000 C   0  0  0  0  0  0  0  0  0  0  0  0
  1  2  2  0
  2  3  1  0
  3  4  1  0
  4  5  2  0
  5  6  1  0
  6  7  2  0
  7  8  1  0
  8  9  1  0
  9 10  2  0
  9 11  1  0
 11 12  2  0
 12 13  1  0
 13 14  1  0
 14 15  2  0
 15 16  1  0
 16 17  2  0
 17 18  1  0
 18 19  2  0
 19 20  1  0
  8 21  2  0
  2 22  1  0
 23 22  1  1
 23 24  1  0
 24 25  1  0
 25 26  1  0
 26 27  2  0
 26 28  2  0
 26 29  1  0
 21  4  1  0
 29 23  1  0
 20 12  1  0
 19 14  1  0
M  END
>  <Compound_ID>  (1043) 
C31813417

>  <Active>  (1043) 
0.0

>  <Smiles>  (1043) 
O=C(Nc1cccc(C(=O)/N=c2/[nH]c3ccccc3s2)c1)N[C@H]1CCS(=O)(=O)C1

>  <canonical_smi>  (1043) 
O=C(Nc1cccc(C(=O)/N=c2/[nH]c3ccccc3s2)c1)N[C@H]1CCS(=O)(=O)C1

>  <Set>  (1043) 
G2 inactive

>  <Set_type>  (1043) 
Test

>  <MW>  (1043) 
430.51

>  <HBD>  (1043) 
3

>  <HBA>  (1043) 
4

>  <NRB>  (1043) 
3

>  <NR>  (1043) 
4

>  <NAR>  (1043) 
3

>  <PSA>  (1043) 
120.49

>  <Standard Type>  (1043) 
nan

>  <Standard Relation>  (1043) 
nan

>  <Standard Units>  (1043) 
nan

>  <Standard Value>  (1043) 
nan

>  <Assay ChEMBL ID>  (1043) 
nan

>  <Assay Description>  (1043) 
nan

>  <BAO Label>  (1043) 
nan

$$$$

     RDKit          2D

 34 37  0  0  0  0  0  0  0  0999 V2000
    3.0000    0.0000    0.0000 C   0  0  0  0  0  0  0  0  0  0  0  0
    1.5000    0.0000    0.0000 C   0  0  0  0  0  0  0  0  0  0  0  0
    0.7500   -1.2990    0.0000 C   0  0  0  0  0  0  0  0  0  0  0  0
    1.5000   -2.5981    0.0000 C   0  0  0  0  0  0  0  0  0  0  0  0
    3.0000   -2.5981    0.0000 O   0  0  0  0  0  0  0  0  0  0  0  0
    0.7500   -3.8971    0.0000 N   0  0  0  0  0  0  0  0  0  0  0  0
    1.5000   -5.1962    0.0000 C   0  0  0  0  0  0  0  0  0  0  0  0
    2.9918   -5.3529    0.0000 C   0  0  0  0  0  0  0  0  0  0  0  0
    3.3037   -6.8202    0.0000 C   0  0  0  0  0  0  0  0  0  0  0  0
    4.6740   -7.4303    0.0000 C   0  0  0  0  0  0  0  0  0  0  0  0
    2.0046   -7.5702    0.0000 O   0  0  0  0  0  0  0  0  0  0  0  0
    0.8899   -6.5665    0.0000 N   0  0  0  0  0  0  0  0  0  0  0  0
   -0.7500   -1.2990    0.0000 C   0  0  0  0  0  0  0  0  0  0  0  0
   -1.5000   -2.5981    0.0000 C   0  0  0  0  0  0  0  0  0  0  0  0
   -0.8899   -3.9684    0.0000 C   0  0  0  0  0  0  0  0  0  0  0  0
   -2.0046   -4.9721    0.0000 C   0  0  0  0  0  0  0  0  0  0  0  0
   -1.8478   -6.4639    0.0000 C   0  0  0  0  0  0  0  0  0  0  0  0
   -1.6910   -7.9557    0.0000 N   0  0  0  0  0  0  0  0  0  0  0  0
   -3.3037   -4.2221    0.0000 N   0  0  0  0  0  0  0  0  0  0  0  0
   -4.6740   -4.8322    0.0000 C   0  0  0  0  0  0  0  0  0  0  0  0
   -2.9918   -2.7549    0.0000 C   0  0  0  0  0  0  0  0  0  0  0  0
   -3.9955   -1.6402    0.0000 C   0  0  0  0  0  0  0  0  0  0  0  0
   -1.5000    0.0000    0.0000 N   0  0  0  0  0  0  0  0  0  0  0  0
   -0.7500    1.2990    0.0000 C   0  0  0  0  0  0  0  0  0  0  0  0
   -1.5000    2.5981    0.0000 S   0  0  0  0  0  0  0  0  0  0  0  0
    0.7500    1.2990    0.0000 N   0  0  0  0  0  0  0  0  0  0  0  0
    1.5000    2.5981    0.0000 C   0  0  0  0  0  0  0  0  0  0  0  0
    3.0000    2.5981    0.0000 C   0  0  0  0  0  0  0  0  0  0  0  0
    3.7500    3.8971    0.0000 C   0  0  0  0  0  0  0  0  0  0  0  0
    5.2500    3.8971    0.0000 C   0  0  0  0  0  0  0  0  0  0  0  0
    3.0000    5.1962    0.0000 C   0  0  0  0  0  0  0  0  0  0  0  0
    1.5000    5.1962    0.0000 C   0  0  0  0  0  0  0  0  0  0  0  0
    0.7500    3.8971    0.0000 C   0  0  0  0  0  0  0  0  0  0  0  0
   -0.7500    3.8971    0.0000 C   0  0  0  0  0  0  0  0  0  0  0  0
  1  2  1  0
  2  3  2  0
  3  4  1  0
  4  5  2  0
  4  6  1  0
  6  7  1  0
  7  8  1  0
  8  9  2  0
  9 10  1  0
  9 11  1  0
 11 12  1  0
  3 13  1  0
 13 14  1  6
 14 15  1  0
 15 16  2  0
 16 17  1  0
 17 18  3  0
 16 19  1  0
 19 20  1  0
 19 21  1  0
 21 22  1  0
 13 23  1  0
 23 24  1  0
 24 25  2  0
 24 26  1  0
 26 27  1  0
 27 28  2  0
 28 29  1  0
 29 30  1  0
 29 31  2  0
 31 32  1  0
 32 33  2  0
 33 34  1  0
 26  2  1  0
 33 27  1  0
 12  7  2  0
 21 14  2  0
M  END
>  <Compound_ID>  (1044) 
C12512584

>  <Active>  (1044) 
0.0

>  <Smiles>  (1044) 
CC1=C(C(=O)Nc2cc(C)on2)[C@H](c2cc(C#N)n(C)c2C)NC(=S)N1c1cc(C)ccc1C

>  <canonical_smi>  (1044) 
CC1=C(C(=O)Nc2cc(C)on2)[C@H](c2cc(C#N)n(C)c2C)NC(=S)N1c1cc(C)ccc1C

>  <Set>  (1044) 
G2 inactive

>  <Set_type>  (1044) 
Test

>  <MW>  (1044) 
474.59

>  <HBD>  (1044) 
2

>  <HBA>  (1044) 
7

>  <NRB>  (1044) 
4

>  <NR>  (1044) 
4

>  <NAR>  (1044) 
3

>  <PSA>  (1044) 
99.12

>  <Standard Type>  (1044) 
nan

>  <Standard Relation>  (1044) 
nan

>  <Standard Units>  (1044) 
nan

>  <Standard Value>  (1044) 
nan

>  <Assay ChEMBL ID>  (1044) 
nan

>  <Assay Description>  (1044) 
nan

>  <BAO Label>  (1044) 
nan

$$$$

     RDKit          2D

 31 34  0  0  0  0  0  0  0  0999 V2000
   10.7934  -11.0321    0.0000 N   0  0  0  0  0  0  0  0  0  0  0  0
    9.9118   -9.8186    0.0000 C   0  0  0  0  0  0  0  0  0  0  0  0
   10.5219   -8.4483    0.0000 N   0  0  0  0  0  4  0  0  0  0  0  0
    8.4200   -9.9754    0.0000 C   0  0  0  0  0  0  0  0  0  0  0  0
    7.8099  -11.3457    0.0000 C   0  0  0  0  0  0  0  0  0  0  0  0
    6.3181  -11.5025    0.0000 C   0  0  0  0  0  0  0  0  0  0  0  0
    5.4364  -10.2890    0.0000 C   0  0  0  0  0  0  0  0  0  0  0  0
    3.9446  -10.4458    0.0000 O   0  0  0  0  0  0  0  0  0  0  0  0
    6.0465   -8.9186    0.0000 C   0  0  0  0  0  0  0  0  0  0  0  0
    5.1648   -7.7051    0.0000 C   0  0  0  0  0  0  0  0  0  0  0  0
    3.6731   -7.8619    0.0000 N   0  0  0  0  0  0  0  0  0  0  0  0
    2.9231   -9.1610    0.0000 C   0  0  0  0  0  0  0  0  0  0  0  0
    1.4558   -8.8491    0.0000 C   0  0  0  0  0  0  0  0  0  0  0  0
    1.2990   -7.3573    0.0000 C   0  0  0  0  0  0  0  0  0  0  0  0
    0.0000   -6.6073    0.0000 N   0  0  0  0  0  0  0  0  0  0  0  0
   -0.0000   -5.1073    0.0000 S   0  0  0  0  0  0  0  0  0  0  0  0
   -1.5000   -5.1073    0.0000 O   0  0  0  0  0  0  0  0  0  0  0  0
    1.5000   -5.1073    0.0000 O   0  0  0  0  0  0  0  0  0  0  0  0
   -0.0000   -3.6073    0.0000 C   0  0  0  0  0  0  0  0  0  0  0  0
    1.2135   -2.7256    0.0000 C   0  0  0  0  0  0  0  0  0  0  0  0
    0.7500   -1.2990    0.0000 C   0  0  0  0  0  0  0  0  0  0  0  0
    1.5000    0.0000    0.0000 C   0  0  0  0  0  0  0  0  0  0  0  0
    0.7500    1.2990    0.0000 C   0  0  0  0  0  0  0  0  0  0  0  0
   -0.7500    1.2990    0.0000 N   0  0  0  0  0  0  0  0  0  0  0  0
   -1.5000    0.0000    0.0000 C   0  0  0  0  0  0  0  0  0  0  0  0
   -3.0000    0.0000    0.0000 Cl  0  0  0  0  0  0  0  0  0  0  0  0
   -0.7500   -1.2990    0.0000 C   0  0  0  0  0  0  0  0  0  0  0  0
   -1.2135   -2.7256    0.0000 S   0  0  0  0  0  0  0  0  0  0  0  0
    2.6694   -6.7472    0.0000 C   0  0  0  0  0  0  0  0  0  0  0  0
    2.9812   -5.2800    0.0000 O   0  0  0  0  0  0  0  0  0  0  0  0
    7.5383   -8.7619    0.0000 C   0  0  0  0  0  0  0  0  0  0  0  0
  1  2  1  0
  2  3  2  0
  2  4  1  0
  4  5  2  0
  5  6  1  0
  6  7  2  0
  7  8  1  0
  7  9  1  0
  9 10  1  0
 10 11  1  0
 11 12  1  0
 12 13  1  0
 13 14  1  0
 14 15  1  6
 15 16  1  0
 16 17  2  0
 16 18  2  0
 16 19  1  0
 19 20  2  0
 20 21  1  0
 21 22  2  0
 22 23  1  0
 23 24  2  0
 24 25  1  0
 25 26  1  0
 25 27  2  0
 27 28  1  0
 14 29  1  0
 29 30  2  0
  9 31  2  0
 31  4  1  0
 29 11  1  0
 28 19  1  0
 27 21  1  0
M  CHG  1   3   1
M  END
>  <Compound_ID>  (1045) 
C26663294

>  <Active>  (1045) 
0.0

>  <Smiles>  (1045) 
NC(=[NH2+])c1ccc(O)c(CN2CC[C@H](NS(=O)(=O)c3cc4ccnc(Cl)c4s3)C2=O)c1

>  <canonical_smi>  (1045) 
NC(=[NH2+])c1ccc(O)c(CN2CC[C@H](NS(=O)(=O)c3cc4ccnc(Cl)c4s3)C2=O)c1

>  <Set>  (1045) 
G2 inactive

>  <Set_type>  (1045) 
Test

>  <MW>  (1045) 
480.98

>  <HBD>  (1045) 
4

>  <HBA>  (1045) 
6

>  <NRB>  (1045) 
6

>  <NR>  (1045) 
4

>  <NAR>  (1045) 
3

>  <PSA>  (1045) 
151.21

>  <Standard Type>  (1045) 
nan

>  <Standard Relation>  (1045) 
nan

>  <Standard Units>  (1045) 
nan

>  <Standard Value>  (1045) 
nan

>  <Assay ChEMBL ID>  (1045) 
nan

>  <Assay Description>  (1045) 
nan

>  <BAO Label>  (1045) 
nan

$$$$

     RDKit          2D

 31 34  0  0  0  0  0  0  0  0999 V2000
    6.0000  -12.9904    0.0000 C   0  0  0  0  0  0  0  0  0  0  0  0
    5.2500  -11.6913    0.0000 C   0  0  0  0  0  0  0  0  0  0  0  0
    3.7500  -11.6913    0.0000 C   0  0  0  0  0  0  0  0  0  0  0  0
    3.0000  -10.3923    0.0000 C   0  0  0  0  0  0  0  0  0  0  0  0
    3.7500   -9.0933    0.0000 C   0  0  0  0  0  0  0  0  0  0  0  0
    3.0000   -7.7942    0.0000 O   0  0  0  0  0  0  0  0  0  0  0  0
    3.7500   -6.4952    0.0000 C   0  0  0  0  0  0  0  0  0  0  0  0
    5.2500   -6.4952    0.0000 C   0  0  0  0  0  0  0  0  0  0  0  0
    3.0000   -5.1962    0.0000 C   0  0  0  0  0  0  0  0  0  0  0  0
    3.7500   -3.8971    0.0000 O   0  0  0  0  0  0  0  0  0  0  0  0
    1.5000   -5.1962    0.0000 N   0  0  0  0  0  0  0  0  0  0  0  0
    0.7500   -3.8971    0.0000 N   0  0  0  0  0  0  0  0  0  0  0  0
    1.5000   -2.5981    0.0000 C   0  0  0  0  0  0  0  0  0  0  0  0
    3.0000   -2.5981    0.0000 O   0  0  0  0  0  0  0  0  0  0  0  0
    0.7500   -1.2990    0.0000 C   0  0  0  0  0  0  0  0  0  0  0  0
    1.5000    0.0000    0.0000 C   0  0  0  0  0  0  0  0  0  0  0  0
    0.7500    1.2990    0.0000 C   0  0  0  0  0  0  0  0  0  0  0  0
   -0.7500    1.2990    0.0000 C   0  0  0  0  0  0  0  0  0  0  0  0
   -1.5000    0.0000    0.0000 C   0  0  0  0  0  0  0  0  0  0  0  0
   -0.7500   -1.2990    0.0000 C   0  0  0  0  0  0  0  0  0  0  0  0
   -1.5000   -2.5981    0.0000 N   0  0  0  0  0  0  0  0  0  0  0  0
   -0.7500   -3.8971    0.0000 C   0  0  0  0  0  0  0  0  0  0  0  0
   -1.5000   -5.1962    0.0000 C   0  0  0  0  0  0  0  0  0  0  0  0
   -3.0000   -5.1962    0.0000 C   0  0  0  0  0  0  0  0  0  0  0  0
   -3.7500   -6.4952    0.0000 C   0  0  0  0  0  0  0  0  0  0  0  0
   -3.0000   -7.7942    0.0000 C   0  0  0  0  0  0  0  0  0  0  0  0
   -3.7500   -9.0933    0.0000 O   0  0  0  0  0  0  0  0  0  0  0  0
   -1.5000   -7.7942    0.0000 C   0  0  0  0  0  0  0  0  0  0  0  0
   -0.7500   -6.4952    0.0000 C   0  0  0  0  0  0  0  0  0  0  0  0
    5.2500   -9.0933    0.0000 C   0  0  0  0  0  0  0  0  0  0  0  0
    6.0000  -10.3923    0.0000 C   0  0  0  0  0  0  0  0  0  0  0  0
  1  2  1  0
  2  3  2  0
  3  4  1  0
  4  5  2  0
  5  6  1  0
  6  7  1  0
  7  8  1  6
  7  9  1  0
  9 10  2  0
  9 11  1  0
 11 12  1  0
 12 13  1  0
 13 14  2  0
 13 15  1  0
 15 16  2  0
 16 17  1  0
 17 18  2  0
 18 19  1  0
 19 20  2  0
 20 21  1  0
 21 22  1  0
 22 23  1  1
 23 24  2  0
 24 25  1  0
 25 26  2  0
 26 27  1  0
 26 28  1  0
 28 29  2  0
  5 30  1  0
 30 31  2  0
 31  2  1  0
 22 12  1  0
 29 23  1  0
 20 15  1  0
M  END
>  <Compound_ID>  (1046) 
C39920296

>  <Active>  (1046) 
0.0

>  <Smiles>  (1046) 
Cc1ccc(O[C@@H](C)C(=O)NN2C(=O)c3ccccc3N[C@@H]2c2ccc(O)cc2)cc1

>  <canonical_smi>  (1046) 
Cc1ccc(O[C@@H](C)C(=O)NN2C(=O)c3ccccc3N[C@@H]2c2ccc(O)cc2)cc1

>  <Set>  (1046) 
G2 inactive

>  <Set_type>  (1046) 
Test

>  <MW>  (1046) 
417.47

>  <HBD>  (1046) 
3

>  <HBA>  (1046) 
5

>  <NRB>  (1046) 
5

>  <NR>  (1046) 
4

>  <NAR>  (1046) 
3

>  <PSA>  (1046) 
90.9

>  <Standard Type>  (1046) 
nan

>  <Standard Relation>  (1046) 
nan

>  <Standard Units>  (1046) 
nan

>  <Standard Value>  (1046) 
nan

>  <Assay ChEMBL ID>  (1046) 
nan

>  <Assay Description>  (1046) 
nan

>  <BAO Label>  (1046) 
nan

$$$$

     RDKit          2D

 27 30  0  0  0  0  0  0  0  0999 V2000
   -3.7500   -6.4952    0.0000 C   0  0  0  0  0  0  0  0  0  0  0  0
   -3.0000   -7.7942    0.0000 O   0  0  0  0  0  0  0  0  0  0  0  0
   -1.5000   -7.7942    0.0000 C   0  0  0  0  0  0  0  0  0  0  0  0
   -0.7500   -6.4952    0.0000 C   0  0  0  0  0  0  0  0  0  0  0  0
    0.7500   -6.4952    0.0000 C   0  0  0  0  0  0  0  0  0  0  0  0
    1.5000   -5.1962    0.0000 C   0  0  0  0  0  0  0  0  0  0  0  0
    0.7500   -3.8971    0.0000 N   0  0  0  0  0  0  0  0  0  0  0  0
    1.5000   -2.5981    0.0000 N   0  0  0  0  0  0  0  0  0  0  0  0
    0.7500   -1.2990    0.0000 C   0  0  0  0  0  0  0  0  0  0  0  0
    1.5000    0.0000    0.0000 N   0  0  0  0  0  0  0  0  0  0  0  0
    0.7500    1.2990    0.0000 N   0  0  0  0  0  0  0  0  0  0  0  0
   -0.7500    1.2990    0.0000 C   0  0  0  0  0  0  0  0  0  0  0  0
   -1.5000    0.0000    0.0000 C   0  0  0  0  0  0  0  0  0  0  0  0
   -0.7500   -1.2990    0.0000 N   0  0  0  0  0  0  0  0  0  0  0  0
   -2.9672    0.3119    0.0000 N   0  0  0  0  0  0  0  0  0  0  0  0
   -3.1240    1.8037    0.0000 C   0  0  0  0  0  0  0  0  0  0  0  0
   -4.3375    2.6853    0.0000 C   0  0  0  0  0  0  0  0  0  0  0  0
   -5.7079    2.0752    0.0000 C   0  0  0  0  0  0  0  0  0  0  0  0
   -4.1807    4.1771    0.0000 C   0  0  0  0  0  0  0  0  0  0  0  0
   -2.8104    4.7872    0.0000 C   0  0  0  0  0  0  0  0  0  0  0  0
   -1.5969    3.9055    0.0000 C   0  0  0  0  0  0  0  0  0  0  0  0
   -1.7537    2.4138    0.0000 C   0  0  0  0  0  0  0  0  0  0  0  0
    1.5000   -7.7942    0.0000 C   0  0  0  0  0  0  0  0  0  0  0  0
    0.7500   -9.0933    0.0000 C   0  0  0  0  0  0  0  0  0  0  0  0
    1.5000  -10.3923    0.0000 Br  0  0  0  0  0  0  0  0  0  0  0  0
   -0.7500   -9.0933    0.0000 C   0  0  0  0  0  0  0  0  0  0  0  0
   -1.5000  -10.3923    0.0000 O   0  0  0  0  0  0  0  0  0  0  0  0
  1  2  1  0
  2  3  1  0
  3  4  2  0
  4  5  1  0
  5  6  2  0
  6  7  1  0
  7  8  1  0
  8  9  1  0
  9 10  2  0
 10 11  1  0
 11 12  2  0
 12 13  1  0
 13 14  2  0
 13 15  1  0
 15 16  1  0
 16 17  2  0
 17 18  1  0
 17 19  1  0
 19 20  2  0
 20 21  1  0
 21 22  2  0
  5 23  1  0
 23 24  2  0
 24 25  1  0
 24 26  1  0
 26 27  2  0
 26  3  1  0
 14  9  1  0
 22 16  1  0
 22 12  1  0
M  END
>  <Compound_ID>  (1047) 
C16671882

>  <Active>  (1047) 
0.0

>  <Smiles>  (1047) 
COC1=C/C(=C\NNc2nnc3c(n2)[nH]c2c(C)cccc23)C=C(Br)C1=O

>  <canonical_smi>  (1047) 
COC1=C/C(=C\NNc2nnc3c(n2)[nH]c2c(C)cccc23)C=C(Br)C1=O

>  <Set>  (1047) 
G2 inactive

>  <Set_type>  (1047) 
Test

>  <MW>  (1047) 
427.26

>  <HBD>  (1047) 
3

>  <HBA>  (1047) 
7

>  <NRB>  (1047) 
4

>  <NR>  (1047) 
4

>  <NAR>  (1047) 
3

>  <PSA>  (1047) 
104.82

>  <Standard Type>  (1047) 
nan

>  <Standard Relation>  (1047) 
nan

>  <Standard Units>  (1047) 
nan

>  <Standard Value>  (1047) 
nan

>  <Assay ChEMBL ID>  (1047) 
nan

>  <Assay Description>  (1047) 
nan

>  <BAO Label>  (1047) 
nan

$$$$

     RDKit          2D

 30 33  0  0  0  0  0  0  0  0999 V2000
   -1.5000   -7.7942    0.0000 O   0  0  0  0  0  0  0  0  0  0  0  0
   -0.7500   -6.4952    0.0000 C   0  0  0  0  0  0  0  0  0  0  0  0
   -1.5000   -5.1962    0.0000 C   0  0  0  0  0  0  0  0  0  0  0  0
   -0.7500   -3.8971    0.0000 C   0  0  0  0  0  0  0  0  0  0  0  0
   -1.5000   -2.5981    0.0000 C   0  0  0  0  0  0  0  0  0  0  0  0
   -3.0000   -2.5981    0.0000 C   0  0  0  0  0  0  0  0  0  0  0  0
   -3.8817   -3.8116    0.0000 N   0  0  0  0  0  0  0  0  0  0  0  0
   -5.3083   -3.3481    0.0000 N   0  0  0  0  0  0  0  0  0  0  0  0
   -5.3083   -1.8481    0.0000 C   0  0  0  0  0  0  0  0  0  0  0  0
   -6.5218   -0.9664    0.0000 S   0  0  0  0  0  0  0  0  0  0  0  0
   -6.3650    0.5254    0.0000 C   0  0  0  0  0  0  0  0  0  0  0  0
   -7.5785    1.4071    0.0000 C   0  0  0  0  0  0  0  0  0  0  0  0
   -7.4217    2.8988    0.0000 C   0  0  0  0  0  0  0  0  0  0  0  0
   -8.6353    3.7805    0.0000 C   0  0  0  0  0  0  0  0  0  0  0  0
  -10.0056    3.1704    0.0000 C   0  0  0  0  0  0  0  0  0  0  0  0
  -10.1624    1.6786    0.0000 C   0  0  0  0  0  0  0  0  0  0  0  0
   -8.9488    0.7970    0.0000 C   0  0  0  0  0  0  0  0  0  0  0  0
   -9.1056   -0.6948    0.0000 Cl  0  0  0  0  0  0  0  0  0  0  0  0
   -3.8817   -1.3846    0.0000 N   0  0  0  0  0  0  0  0  0  0  0  0
   -3.4182    0.0420    0.0000 C   0  0  0  0  0  0  0  0  0  0  0  0
   -4.4218    1.1568    0.0000 C   0  0  0  0  0  0  0  0  0  0  0  0
   -3.9583    2.5833    0.0000 C   0  0  0  0  0  0  0  0  0  0  0  0
   -2.4911    2.8952    0.0000 C   0  0  0  0  0  0  0  0  0  0  0  0
   -2.0276    4.3218    0.0000 F   0  0  0  0  0  0  0  0  0  0  0  0
   -1.4874    1.7805    0.0000 C   0  0  0  0  0  0  0  0  0  0  0  0
   -1.9509    0.3539    0.0000 C   0  0  0  0  0  0  0  0  0  0  0  0
    0.7500   -3.8971    0.0000 N   0  0  0  0  0  0  0  0  0  0  0  0
    1.5000   -5.1962    0.0000 C   0  0  0  0  0  0  0  0  0  0  0  0
    3.0000   -5.1962    0.0000 O   0  0  0  0  0  0  0  0  0  0  0  0
    0.7500   -6.4952    0.0000 N   0  0  0  0  0  0  0  0  0  0  0  0
  1  2  2  0
  2  3  1  0
  3  4  2  0
  4  5  1  0
  6  5  1  6
  6  7  1  0
  7  8  1  0
  8  9  2  0
  9 10  1  0
 10 11  1  0
 11 12  1  0
 12 13  2  0
 13 14  1  0
 14 15  2  0
 15 16  1  0
 16 17  2  0
 17 18  1  0
  9 19  1  0
 19 20  1  0
 20 21  2  0
 21 22  1  0
 22 23  2  0
 23 24  1  0
 23 25  1  0
 25 26  2  0
  4 27  1  0
 27 28  1  0
 28 29  2  0
 28 30  1  0
 30  2  1  0
 19  6  1  0
 26 20  1  0
 17 12  1  0
M  END
>  <Compound_ID>  (1048) 
C39362923

>  <Active>  (1048) 
0.0

>  <Smiles>  (1048) 
O=c1cc(C[C@@H]2NN=C(SCc3ccccc3Cl)N2c2ccc(F)cc2)[nH]c(=O)[nH]1

>  <canonical_smi>  (1048) 
O=c1cc(C[C@@H]2NN=C(SCc3ccccc3Cl)N2c2ccc(F)cc2)[nH]c(=O)[nH]1

>  <Set>  (1048) 
G2 inactive

>  <Set_type>  (1048) 
Test

>  <MW>  (1048) 
445.91

>  <HBD>  (1048) 
3

>  <HBA>  (1048) 
5

>  <NRB>  (1048) 
5

>  <NR>  (1048) 
4

>  <NAR>  (1048) 
3

>  <PSA>  (1048) 
93.35

>  <Standard Type>  (1048) 
nan

>  <Standard Relation>  (1048) 
nan

>  <Standard Units>  (1048) 
nan

>  <Standard Value>  (1048) 
nan

>  <Assay ChEMBL ID>  (1048) 
nan

>  <Assay Description>  (1048) 
nan

>  <BAO Label>  (1048) 
nan

$$$$

     RDKit          2D

 32 36  0  0  0  0  0  0  0  0999 V2000
   -1.7024   10.0935    0.0000 N   0  0  0  0  0  0  0  0  0  0  0  0
   -2.0143    8.6263    0.0000 C   0  0  0  0  0  0  0  0  0  0  0  0
   -3.4408    8.1628    0.0000 O   0  0  0  0  0  0  0  0  0  0  0  0
   -0.8995    7.6226    0.0000 C   0  0  0  0  0  0  0  0  0  0  0  0
    0.5271    8.0861    0.0000 C   0  0  0  0  0  0  0  0  0  0  0  0
    1.6418    7.0824    0.0000 N   0  0  0  0  0  0  0  0  0  0  0  0
    1.3299    5.6152    0.0000 C   0  0  0  0  0  0  0  0  0  0  0  0
   -0.0967    5.1517    0.0000 C   0  0  0  0  0  0  0  0  0  0  0  0
   -0.4086    3.6844    0.0000 C   0  0  0  0  0  0  0  0  0  0  0  0
   -1.8351    3.2209    0.0000 C   0  0  0  0  0  0  0  0  0  0  0  0
   -2.1470    1.7537    0.0000 C   0  0  0  0  0  0  0  0  0  0  0  0
   -3.5736    1.2902    0.0000 F   0  0  0  0  0  0  0  0  0  0  0  0
   -1.0323    0.7500    0.0000 C   0  0  0  0  0  0  0  0  0  0  0  0
    0.3943    1.2135    0.0000 C   0  0  0  0  0  0  0  0  0  0  0  0
    0.7062    2.6807    0.0000 C   0  0  0  0  0  0  0  0  0  0  0  0
    1.2760    0.0000    0.0000 C   0  0  0  0  0  0  0  0  0  0  0  0
    0.3943   -1.2135    0.0000 C   0  0  0  0  0  0  0  0  0  0  0  0
    0.8578   -2.6401    0.0000 C   0  0  0  0  0  0  0  0  0  0  0  0
   -0.1459   -3.7548    0.0000 N   0  0  0  0  0  0  0  0  0  0  0  0
    0.3177   -5.1814    0.0000 C   0  0  0  0  0  0  0  0  0  0  0  0
    1.7849   -5.4933    0.0000 O   0  0  0  0  0  0  0  0  0  0  0  0
   -0.6860   -6.2961    0.0000 C   0  0  0  0  0  0  0  0  0  0  0  0
   -2.1778   -6.1393    0.0000 S   0  0  0  0  0  0  0  0  0  0  0  0
   -2.7879   -7.5097    0.0000 C   0  0  0  0  0  0  0  0  0  0  0  0
   -1.6732   -8.5134    0.0000 C   0  0  0  0  0  0  0  0  0  0  0  0
   -0.3742   -7.7634    0.0000 C   0  0  0  0  0  0  0  0  0  0  0  0
    0.9249   -8.5134    0.0000 C   0  0  0  0  0  0  0  0  0  0  0  0
    0.9249  -10.0134    0.0000 C   0  0  0  0  0  0  0  0  0  0  0  0
   -0.3742  -10.7634    0.0000 C   0  0  0  0  0  0  0  0  0  0  0  0
   -1.6732  -10.0134    0.0000 C   0  0  0  0  0  0  0  0  0  0  0  0
   -1.0323   -0.7500    0.0000 O   0  0  0  0  0  0  0  0  0  0  0  0
   -1.2114    6.1554    0.0000 C   0  0  0  0  0  0  0  0  0  0  0  0
  1  2  1  0
  2  3  2  0
  2  4  1  0
  4  5  2  0
  5  6  1  0
  6  7  2  0
  7  8  1  0
  8  9  1  0
  9 10  2  0
 10 11  1  0
 11 12  1  0
 11 13  2  0
 13 14  1  0
 14 15  2  0
 14 16  1  0
 16 17  1  0
 17 18  1  1
 18 19  1  0
 19 20  1  0
 20 21  2  0
 20 22  1  0
 22 23  1  0
 23 24  1  0
 24 25  2  0
 25 26  1  0
 26 27  1  0
 27 28  1  0
 28 29  1  0
 29 30  1  0
 17 31  1  0
  8 32  2  0
 32  4  1  0
 15  9  1  0
 26 22  2  0
 31 13  1  0
 30 25  1  0
M  END
>  <Compound_ID>  (1049) 
C11814477

>  <Active>  (1049) 
0.0

>  <Smiles>  (1049) 
NC(=O)c1cncc(-c2cc(F)c3c(c2)C[C@@H](CNC(=O)c2scc4c2CCCC4)O3)c1

>  <canonical_smi>  (1049) 
NC(=O)c1cncc(-c2cc(F)c3c(c2)C[C@@H](CNC(=O)c2scc4c2CCCC4)O3)c1

>  <Set>  (1049) 
G2 inactive

>  <Set_type>  (1049) 
Test

>  <MW>  (1049) 
451.52

>  <HBD>  (1049) 
2

>  <HBA>  (1049) 
4

>  <NRB>  (1049) 
5

>  <NR>  (1049) 
5

>  <NAR>  (1049) 
3

>  <PSA>  (1049) 
94.31

>  <Standard Type>  (1049) 
nan

>  <Standard Relation>  (1049) 
nan

>  <Standard Units>  (1049) 
nan

>  <Standard Value>  (1049) 
nan

>  <Assay ChEMBL ID>  (1049) 
nan

>  <Assay Description>  (1049) 
nan

>  <BAO Label>  (1049) 
nan

$$$$

     RDKit          2D

 29 32  0  0  0  0  0  0  0  0999 V2000
    3.8173    0.5402    0.0000 C   0  0  0  0  0  0  0  0  0  0  0  0
    2.3907    1.0037    0.0000 C   0  0  0  0  0  0  0  0  0  0  0  0
    2.0788    2.4709    0.0000 O   0  0  0  0  0  0  0  0  0  0  0  0
    1.2760    0.0000    0.0000 C   0  0  0  0  0  0  0  0  0  0  0  0
    2.3907   -1.0037    0.0000 C   0  0  0  0  0  0  0  0  0  0  0  0
    2.0788   -2.4709    0.0000 O   0  0  0  0  0  0  0  0  0  0  0  0
    3.8173   -0.5402    0.0000 O   0  0  0  0  0  1  0  0  0  0  0  0
    0.3943    1.2135    0.0000 N   0  0  0  0  0  4  0  0  0  0  0  0
   -1.0323    0.7500    0.0000 C   0  0  0  0  0  0  0  0  0  0  0  0
   -2.2458    1.6317    0.0000 C   0  0  0  0  0  0  0  0  0  0  0  0
   -2.0890    3.1235    0.0000 C   0  0  0  0  0  0  0  0  0  0  0  0
   -3.3025    4.0051    0.0000 C   0  0  0  0  0  0  0  0  0  0  0  0
   -4.6729    3.3950    0.0000 C   0  0  0  0  0  0  0  0  0  0  0  0
   -5.8864    4.2767    0.0000 Br  0  0  0  0  0  0  0  0  0  0  0  0
   -4.8297    1.9033    0.0000 C   0  0  0  0  0  0  0  0  0  0  0  0
   -3.6161    1.0216    0.0000 C   0  0  0  0  0  0  0  0  0  0  0  0
   -1.0323   -0.7500    0.0000 C   0  0  0  0  0  0  0  0  0  0  0  0
   -1.9140   -1.9635    0.0000 C   0  0  0  0  0  0  0  0  0  0  0  0
   -3.4140   -1.9635    0.0000 O   0  0  0  0  0  0  0  0  0  0  0  0
   -1.0323   -3.1771    0.0000 N   0  0  0  0  0  0  0  0  0  0  0  0
   -1.4958   -4.6036    0.0000 C   0  0  0  0  0  0  0  0  0  0  0  0
   -2.9630   -4.9155    0.0000 C   0  0  0  0  0  0  0  0  0  0  0  0
   -3.4266   -6.3421    0.0000 C   0  0  0  0  0  0  0  0  0  0  0  0
   -2.4229   -7.4568    0.0000 C   0  0  0  0  0  0  0  0  0  0  0  0
   -0.9556   -7.1449    0.0000 C   0  0  0  0  0  0  0  0  0  0  0  0
   -0.4921   -5.7184    0.0000 C   0  0  0  0  0  0  0  0  0  0  0  0
    0.3943   -2.7135    0.0000 C   0  0  0  0  0  0  0  0  0  0  0  0
    1.6078   -3.5952    0.0000 O   0  0  0  0  0  0  0  0  0  0  0  0
    0.3943   -1.2135    0.0000 C   0  0  0  0  0  0  0  0  0  0  0  0
  2  1  1  1
  2  3  1  0
  2  4  1  0
  4  5  1  1
  5  6  2  0
  5  7  1  0
  4  8  1  0
  8  9  1  0
  9 10  1  6
 10 11  2  0
 11 12  1  0
 12 13  2  0
 13 14  1  0
 13 15  1  0
 15 16  2  0
  9 17  1  0
 17 18  1  6
 18 19  2  0
 18 20  1  0
 20 21  1  0
 21 22  1  0
 22 23  1  0
 23 24  1  0
 24 25  1  0
 25 26  1  0
 20 27  1  0
 27 28  2  0
 29 27  1  1
 29  4  1  0
 16 10  1  0
 29 17  1  0
 26 21  1  0
M  CHG  2   7  -1   8   1
M  END
>  <Compound_ID>  (1050) 
C34262061

>  <Active>  (1050) 
0.0

>  <Smiles>  (1050) 
C[C@H](O)[C@@]1(C(=O)[O-])[NH2+][C@@H](c2ccc(Br)cc2)[C@H]2C(=O)N(C3CCCCC3)C(=O)[C@@H]21

>  <canonical_smi>  (1050) 
C[C@H](O)[C@@]1(C(=O)[O-])[NH2+][C@@H](c2ccc(Br)cc2)[C@H]2C(=O)N(C3CCCCC3)C(=O)[C@@H]21

>  <Set>  (1050) 
G2 inactive

>  <Set_type>  (1050) 
Test

>  <MW>  (1050) 
465.34

>  <HBD>  (1050) 
2

>  <HBA>  (1050) 
5

>  <NRB>  (1050) 
4

>  <NR>  (1050) 
4

>  <NAR>  (1050) 
1

>  <PSA>  (1050) 
114.35

>  <Standard Type>  (1050) 
nan

>  <Standard Relation>  (1050) 
nan

>  <Standard Units>  (1050) 
nan

>  <Standard Value>  (1050) 
nan

>  <Assay ChEMBL ID>  (1050) 
nan

>  <Assay Description>  (1050) 
nan

>  <BAO Label>  (1050) 
nan

$$$$

     RDKit          2D

 20 22  0  0  0  0  0  0  0  0999 V2000
    3.7500   -6.4952    0.0000 O   0  0  0  0  0  0  0  0  0  0  0  0
    3.0000   -7.7942    0.0000 C   0  0  0  0  0  0  0  0  0  0  0  0
    3.7500   -9.0933    0.0000 C   0  0  0  0  0  0  0  0  0  0  0  0
    3.0000  -10.3923    0.0000 C   0  0  0  0  0  0  0  0  0  0  0  0
    1.5000  -10.3923    0.0000 C   0  0  0  0  0  0  0  0  0  0  0  0
    0.7500   -9.0933    0.0000 C   0  0  0  0  0  0  0  0  0  0  0  0
    1.5000   -7.7942    0.0000 C   0  0  0  0  0  0  0  0  0  0  0  0
    0.7500   -6.4952    0.0000 N   0  0  0  0  0  4  0  0  0  0  0  0
    1.5000   -5.1962    0.0000 C   0  0  0  0  0  0  0  0  0  0  0  0
    0.7500   -3.8971    0.0000 C   0  0  0  0  0  0  0  0  0  0  0  0
   -0.7500   -3.8971    0.0000 C   0  0  0  0  0  0  0  0  0  0  0  0
   -1.5000   -2.5981    0.0000 C   0  0  0  0  0  0  0  0  0  0  0  0
   -3.0000   -2.5981    0.0000 Br  0  0  0  0  0  0  0  0  0  0  0  0
   -0.7500   -1.2990    0.0000 C   0  0  0  0  0  0  0  0  0  0  0  0
    0.7500   -1.2990    0.0000 C   0  0  0  0  0  0  0  0  0  0  0  0
    1.5000   -2.5981    0.0000 C   0  0  0  0  0  0  0  0  0  0  0  0
    1.5000    0.0000    0.0000 O   0  0  0  0  0  0  0  0  0  0  0  0
    0.7500    1.2990    0.0000 C   0  0  0  0  0  0  0  0  0  0  0  0
   -0.7500    1.2990    0.0000 C   0  0  0  0  0  0  0  0  0  0  0  0
   -1.5000    0.0000    0.0000 O   0  0  0  0  0  0  0  0  0  0  0  0
  2  1  1  1
  2  3  1  0
  3  4  1  0
  4  5  1  0
  5  6  1  0
  6  7  1  0
  7  8  1  1
  8  9  1  0
  9 10  1  0
 10 11  2  0
 11 12  1  0
 12 13  1  0
 12 14  2  0
 14 15  1  0
 15 16  2  0
 15 17  1  0
 17 18  1  0
 18 19  1  0
 19 20  1  0
  7  2  1  0
 16 10  1  0
 20 14  1  0
M  CHG  1   8   1
M  END
>  <Compound_ID>  (1051) 
C51995604

>  <Active>  (1051) 
0.0

>  <Smiles>  (1051) 
O[C@H]1CCCC[C@H]1[NH2+]Cc1cc(Br)c2c(c1)OCCO2

>  <canonical_smi>  (1051) 
O[C@H]1CCCC[C@H]1[NH2+]Cc1cc(Br)c2c(c1)OCCO2

>  <Set>  (1051) 
G2 inactive

>  <Set_type>  (1051) 
Test

>  <MW>  (1051) 
343.24

>  <HBD>  (1051) 
2

>  <HBA>  (1051) 
3

>  <NRB>  (1051) 
3

>  <NR>  (1051) 
3

>  <NAR>  (1051) 
1

>  <PSA>  (1051) 
55.3

>  <Standard Type>  (1051) 
nan

>  <Standard Relation>  (1051) 
nan

>  <Standard Units>  (1051) 
nan

>  <Standard Value>  (1051) 
nan

>  <Assay ChEMBL ID>  (1051) 
nan

>  <Assay Description>  (1051) 
nan

>  <BAO Label>  (1051) 
nan

$$$$

     RDKit          2D

 21 23  0  0  0  0  0  0  0  0999 V2000
   -9.4612   -4.0396    0.0000 C   0  0  0  0  0  0  0  0  0  0  0  0
   -8.0346   -3.5760    0.0000 N   0  0  0  0  0  4  0  0  0  0  0  0
   -6.9199   -4.5797    0.0000 C   0  0  0  0  0  0  0  0  0  0  0  0
   -5.4933   -4.1162    0.0000 C   0  0  0  0  0  0  0  0  0  0  0  0
   -5.1814   -2.6490    0.0000 C   0  0  0  0  0  0  0  0  0  0  0  0
   -3.7548   -2.1855    0.0000 C   0  0  0  0  0  0  0  0  0  0  0  0
   -2.6401   -3.1891    0.0000 N   0  0  0  0  0  0  0  0  0  0  0  0
   -1.2135   -2.7256    0.0000 C   0  0  0  0  0  0  0  0  0  0  0  0
   -0.0000   -3.6073    0.0000 C   0  0  0  0  0  0  0  0  0  0  0  0
    0.0000   -5.1073    0.0000 O   0  0  0  0  0  0  0  0  0  0  0  0
    1.2135   -2.7256    0.0000 N   0  0  0  0  0  0  0  0  0  0  0  0
    0.7500   -1.2990    0.0000 C   0  0  0  0  0  0  0  0  0  0  0  0
    1.5000    0.0000    0.0000 C   0  0  0  0  0  0  0  0  0  0  0  0
    3.0000    0.0000    0.0000 C   0  0  0  0  0  0  0  0  0  0  0  0
    0.7500    1.2990    0.0000 C   0  0  0  0  0  0  0  0  0  0  0  0
   -0.7500    1.2990    0.0000 C   0  0  0  0  0  0  0  0  0  0  0  0
   -1.5000    2.5981    0.0000 Br  0  0  0  0  0  0  0  0  0  0  0  0
   -1.5000    0.0000    0.0000 C   0  0  0  0  0  0  0  0  0  0  0  0
   -0.7500   -1.2990    0.0000 C   0  0  0  0  0  0  0  0  0  0  0  0
   -2.9520   -4.6564    0.0000 C   0  0  0  0  0  0  0  0  0  0  0  0
   -4.3786   -5.1199    0.0000 C   0  0  0  0  0  0  0  0  0  0  0  0
  1  2  1  0
  2  3  1  0
  3  4  1  0
  4  5  1  0
  5  6  1  0
  6  7  1  0
  8  7  1  6
  8  9  1  0
  9 10  2  0
  9 11  1  0
 11 12  1  0
 12 13  2  0
 13 14  1  0
 13 15  1  0
 15 16  2  0
 16 17  1  0
 16 18  1  0
 18 19  2  0
  7 20  1  0
 20 21  1  0
 21  4  1  0
 19  8  1  0
 19 12  1  0
M  CHG  1   2   1
M  END
>  <Compound_ID>  (1052) 
C63159180

>  <Active>  (1052) 
0.0

>  <Smiles>  (1052) 
C[NH2+]CC1CCN([C@H]2C(=O)Nc3c(C)cc(Br)cc32)CC1

>  <canonical_smi>  (1052) 
C[NH2+]CC1CCN([C@H]2C(=O)Nc3c(C)cc(Br)cc32)CC1

>  <Set>  (1052) 
G2 inactive

>  <Set_type>  (1052) 
Test

>  <MW>  (1052) 
353.28

>  <HBD>  (1052) 
2

>  <HBA>  (1052) 
2

>  <NRB>  (1052) 
3

>  <NR>  (1052) 
3

>  <NAR>  (1052) 
1

>  <PSA>  (1052) 
48.95

>  <Standard Type>  (1052) 
nan

>  <Standard Relation>  (1052) 
nan

>  <Standard Units>  (1052) 
nan

>  <Standard Value>  (1052) 
nan

>  <Assay ChEMBL ID>  (1052) 
nan

>  <Assay Description>  (1052) 
nan

>  <BAO Label>  (1052) 
nan

$$$$

     RDKit          2D

 22 23  0  0  0  0  0  0  0  0999 V2000
    3.7500   -1.2990    0.0000 N   0  0  0  0  0  0  0  0  0  0  0  0
    3.0000    0.0000    0.0000 N   0  0  0  0  0  0  0  0  0  0  0  0
    1.5000    0.0000    0.0000 C   0  0  0  0  0  0  0  0  0  0  0  0
    0.7500   -1.2990    0.0000 C   0  0  0  0  0  0  0  0  0  0  0  0
   -0.7500   -1.2990    0.0000 C   0  0  0  0  0  0  0  0  0  0  0  0
   -1.5000    0.0000    0.0000 C   0  0  0  0  0  0  0  0  0  0  0  0
   -3.0000    0.0000    0.0000 N   0  0  0  0  0  4  0  0  0  0  0  0
   -3.7500   -1.2990    0.0000 O   0  0  0  0  0  0  0  0  0  0  0  0
   -3.7500    1.2990    0.0000 O   0  0  0  0  0  1  0  0  0  0  0  0
   -0.7500    1.2990    0.0000 C   0  0  0  0  0  0  0  0  0  0  0  0
    0.7500    1.2990    0.0000 C   0  0  0  0  0  0  0  0  0  0  0  0
    1.5000    2.5981    0.0000 S   0  0  0  0  0  0  0  0  0  0  0  0
    0.2010    3.3481    0.0000 O   0  0  0  0  0  0  0  0  0  0  0  0
    2.7990    1.8481    0.0000 O   0  0  0  0  0  0  0  0  0  0  0  0
    2.2500    3.8971    0.0000 N   0  0  0  0  0  0  0  0  0  0  0  0
    3.7500    3.8971    0.0000 C   0  0  0  0  0  0  0  0  0  0  0  0
    4.5000    2.5981    0.0000 C   0  0  0  0  0  0  0  0  0  0  0  0
    6.0000    2.5981    0.0000 C   0  0  0  0  0  0  0  0  0  0  0  0
    6.7500    3.8971    0.0000 C   0  0  0  0  0  0  0  0  0  0  0  0
    8.2500    3.8971    0.0000 Cl  0  0  0  0  0  0  0  0  0  0  0  0
    6.0000    5.1962    0.0000 C   0  0  0  0  0  0  0  0  0  0  0  0
    4.5000    5.1962    0.0000 C   0  0  0  0  0  0  0  0  0  0  0  0
  1  2  1  0
  2  3  1  0
  3  4  2  0
  4  5  1  0
  5  6  2  0
  6  7  1  0
  7  8  2  0
  7  9  1  0
  6 10  1  0
 10 11  2  0
 11 12  1  0
 12 13  2  0
 12 14  2  0
 12 15  1  0
 15 16  1  0
 16 17  2  0
 17 18  1  0
 18 19  2  0
 19 20  1  0
 19 21  1  0
 21 22  2  0
 11  3  1  0
 22 16  1  0
M  CHG  2   7   1   9  -1
M  END
>  <Compound_ID>  (1053) 
C03885823

>  <Active>  (1053) 
0.0

>  <Smiles>  (1053) 
NNc1ccc([N+](=O)[O-])cc1S(=O)(=O)Nc1ccc(Cl)cc1

>  <canonical_smi>  (1053) 
NNc1ccc([N+](=O)[O-])cc1S(=O)(=O)Nc1ccc(Cl)cc1

>  <Set>  (1053) 
G2 inactive

>  <Set_type>  (1053) 
Test

>  <MW>  (1053) 
342.76

>  <HBD>  (1053) 
3

>  <HBA>  (1053) 
6

>  <NRB>  (1053) 
5

>  <NR>  (1053) 
2

>  <NAR>  (1053) 
2

>  <PSA>  (1053) 
127.36

>  <Standard Type>  (1053) 
nan

>  <Standard Relation>  (1053) 
nan

>  <Standard Units>  (1053) 
nan

>  <Standard Value>  (1053) 
nan

>  <Assay ChEMBL ID>  (1053) 
nan

>  <Assay Description>  (1053) 
nan

>  <BAO Label>  (1053) 
nan

$$$$

     RDKit          2D

 28 32  0  0  0  0  0  0  0  0999 V2000
   -0.4704   -8.0826    0.0000 H   0  0  0  0  0  0  0  0  0  0  0  0
   -1.6839   -7.2010    0.0000 N   0  0  0  0  0  0  0  0  0  0  0  0
   -1.5271   -5.7092    0.0000 C   0  0  0  0  0  0  0  0  0  0  0  0
   -0.1568   -5.0991    0.0000 N   0  0  0  0  0  0  0  0  0  0  0  0
   -0.0000   -3.6073    0.0000 C   0  0  0  0  0  0  0  0  0  0  0  0
    1.2135   -2.7256    0.0000 N   0  0  0  0  0  0  0  0  0  0  0  0
    0.7500   -1.2990    0.0000 C   0  0  0  0  0  0  0  0  0  0  0  0
    1.5000    0.0000    0.0000 C   0  0  0  0  0  0  0  0  0  0  0  0
    0.7500    1.2990    0.0000 C   0  0  0  0  0  0  0  0  0  0  0  0
   -0.7500    1.2990    0.0000 C   0  0  0  0  0  0  0  0  0  0  0  0
   -1.5000    0.0000    0.0000 C   0  0  0  0  0  0  0  0  0  0  0  0
   -0.7500   -1.2990    0.0000 C   0  0  0  0  0  0  0  0  0  0  0  0
   -1.2135   -2.7256    0.0000 N   0  0  0  0  0  0  0  0  0  0  0  0
   -2.5838   -3.3357    0.0000 C   0  0  0  0  0  0  0  0  0  0  0  0
   -3.7974   -2.4540    0.0000 C   0  0  0  0  0  0  0  0  0  0  0  0
   -3.7974   -0.9540    0.0000 C   0  0  0  0  0  0  0  0  0  0  0  0
   -5.2240   -0.4905    0.0000 N   0  0  0  0  0  0  0  0  0  0  0  0
   -6.1056   -1.7040    0.0000 N   0  0  0  0  0  0  0  0  0  0  0  0
   -5.2240   -2.9176    0.0000 C   0  0  0  0  0  0  0  0  0  0  0  0
   -5.6875   -4.3442    0.0000 C   0  0  0  0  0  0  0  0  0  0  0  0
   -4.6838   -5.4589    0.0000 C   0  0  0  0  0  0  0  0  0  0  0  0
   -5.1473   -6.8855    0.0000 C   0  0  0  0  0  0  0  0  0  0  0  0
   -6.6145   -7.1973    0.0000 C   0  0  0  0  0  0  0  0  0  0  0  0
   -7.0781   -8.6239    0.0000 O   0  0  0  0  0  0  0  0  0  0  0  0
   -8.5453   -8.9358    0.0000 C   0  0  0  0  0  0  0  0  0  0  0  0
   -7.6182   -6.0826    0.0000 C   0  0  0  0  0  0  0  0  0  0  0  0
   -7.1547   -4.6560    0.0000 C   0  0  0  0  0  0  0  0  0  0  0  0
   -2.7406   -4.8275    0.0000 N   0  0  0  0  0  0  0  0  0  0  0  0
  1  2  1  0
  2  3  2  0
  3  4  1  0
  5  4  1  6
  5  6  1  0
  6  7  1  0
  7  8  2  0
  8  9  1  0
  9 10  2  0
 10 11  1  0
 11 12  2  0
 12 13  1  0
 13 14  1  0
 14 15  1  0
 15 16  1  6
 16 17  2  0
 17 18  1  0
 18 19  2  0
 19 20  1  0
 20 21  2  0
 21 22  1  0
 22 23  2  0
 23 24  1  0
 24 25  1  0
 23 26  1  0
 26 27  2  0
 14 28  1  1
 28  3  1  0
 13  5  1  0
 19 15  1  0
 27 20  1  0
 12  7  1  0
M  END
>  <Compound_ID>  (1054) 
C39217323

>  <Active>  (1054) 
0.0

>  <Smiles>  (1054) 
[H]/N=C1\N[C@H]2Nc3ccccc3N2[C@H]([C@H]2C=NN=C2c2ccc(OC)cc2)N1

>  <canonical_smi>  (1054) 
[H]/N=C1\N[C@H]2Nc3ccccc3N2[C@H]([C@H]2C=NN=C2c2ccc(OC)cc2)N1

>  <Set>  (1054) 
G2 inactive

>  <Set_type>  (1054) 
Test

>  <MW>  (1054) 
361.41

>  <HBD>  (1054) 
4

>  <HBA>  (1054) 
5

>  <NRB>  (1054) 
3

>  <NR>  (1054) 
5

>  <NAR>  (1054) 
2

>  <PSA>  (1054) 
97.13

>  <Standard Type>  (1054) 
nan

>  <Standard Relation>  (1054) 
nan

>  <Standard Units>  (1054) 
nan

>  <Standard Value>  (1054) 
nan

>  <Assay ChEMBL ID>  (1054) 
nan

>  <Assay Description>  (1054) 
nan

>  <BAO Label>  (1054) 
nan

$$$$

     RDKit          2D

 21 23  0  0  0  0  0  0  0  0999 V2000
    3.0000    0.0000    0.0000 C   0  0  0  0  0  0  0  0  0  0  0  0
    1.5000    0.0000    0.0000 C   0  0  0  0  0  0  0  0  0  0  0  0
    0.7500   -1.2990    0.0000 C   0  0  0  0  0  0  0  0  0  0  0  0
   -0.7500   -1.2990    0.0000 C   0  0  0  0  0  0  0  0  0  0  0  0
   -1.5000   -2.5981    0.0000 N   0  0  0  0  0  0  0  0  0  0  0  0
   -1.5000    0.0000    0.0000 C   0  0  0  0  0  0  0  0  0  0  0  0
   -0.7500    1.2990    0.0000 C   0  0  0  0  0  0  0  0  0  0  0  0
    0.7500    1.2990    0.0000 C   0  0  0  0  0  0  0  0  0  0  0  0
    1.5000    2.5981    0.0000 C   0  0  0  0  0  0  0  0  0  0  0  0
    0.8899    3.9684    0.0000 N   0  0  0  0  0  0  0  0  0  0  0  0
    2.0046    4.9721    0.0000 N   0  0  0  0  0  0  0  0  0  0  0  0
    3.3037    4.2221    0.0000 N   0  0  0  0  0  0  0  0  0  0  0  0
    2.9918    2.7549    0.0000 N   0  0  0  0  0  0  0  0  0  0  0  0
    3.9955    1.6402    0.0000 C   0  0  0  0  0  0  0  0  0  0  0  0
    5.4627    1.9520    0.0000 C   0  0  0  0  0  0  0  0  0  0  0  0
    6.4664    0.8373    0.0000 C   0  0  0  0  0  0  0  0  0  0  0  0
    7.9336    1.1492    0.0000 C   0  0  0  0  0  0  0  0  0  0  0  0
    8.3971    2.5758    0.0000 C   0  0  0  0  0  0  0  0  0  0  0  0
    7.3934    3.6905    0.0000 C   0  0  0  0  0  0  0  0  0  0  0  0
    7.8570    5.1171    0.0000 Br  0  0  0  0  0  0  0  0  0  0  0  0
    5.9262    3.3786    0.0000 C   0  0  0  0  0  0  0  0  0  0  0  0
  1  2  1  0
  2  3  2  0
  3  4  1  0
  4  5  1  0
  4  6  2  0
  6  7  1  0
  7  8  2  0
  8  9  1  0
  9 10  2  0
 10 11  1  0
 11 12  2  0
 12 13  1  0
 13 14  1  0
 14 15  1  0
 15 16  2  0
 16 17  1  0
 17 18  2  0
 18 19  1  0
 19 20  1  0
 19 21  2  0
  8  2  1  0
 13  9  1  0
 21 15  1  0
M  END
>  <Compound_ID>  (1055) 
C44749563

>  <Active>  (1055) 
0.0

>  <Smiles>  (1055) 
Cc1cc(N)ccc1-c1nnnn1Cc1cccc(Br)c1

>  <canonical_smi>  (1055) 
Cc1cc(N)ccc1-c1nnnn1Cc1cccc(Br)c1

>  <Set>  (1055) 
G2 inactive

>  <Set_type>  (1055) 
Test

>  <MW>  (1055) 
344.22

>  <HBD>  (1055) 
1

>  <HBA>  (1055) 
4

>  <NRB>  (1055) 
3

>  <NR>  (1055) 
3

>  <NAR>  (1055) 
3

>  <PSA>  (1055) 
69.62

>  <Standard Type>  (1055) 
nan

>  <Standard Relation>  (1055) 
nan

>  <Standard Units>  (1055) 
nan

>  <Standard Value>  (1055) 
nan

>  <Assay ChEMBL ID>  (1055) 
nan

>  <Assay Description>  (1055) 
nan

>  <BAO Label>  (1055) 
nan

$$$$

     RDKit          2D

 24 27  0  0  0  0  0  0  0  0999 V2000
    3.7500   -1.2990    0.0000 C   0  0  0  0  0  0  0  0  0  0  0  0
    3.0000   -2.5981    0.0000 C   0  0  0  0  0  0  0  0  0  0  0  0
    3.7500   -3.8971    0.0000 C   0  0  0  0  0  0  0  0  0  0  0  0
    5.2500   -3.8971    0.0000 Cl  0  0  0  0  0  0  0  0  0  0  0  0
    3.0000   -5.1962    0.0000 C   0  0  0  0  0  0  0  0  0  0  0  0
    1.5000   -5.1962    0.0000 C   0  0  0  0  0  0  0  0  0  0  0  0
    0.7500   -3.8971    0.0000 C   0  0  0  0  0  0  0  0  0  0  0  0
    1.5000   -2.5981    0.0000 C   0  0  0  0  0  0  0  0  0  0  0  0
    0.7500   -1.2990    0.0000 N   0  0  0  0  0  0  0  0  0  0  0  0
    1.5000    0.0000    0.0000 C   0  0  0  0  0  0  0  0  0  0  0  0
    0.7500    1.2990    0.0000 C   0  0  0  0  0  0  0  0  0  0  0  0
   -0.7500    1.2990    0.0000 C   0  0  0  0  0  0  0  0  0  0  0  0
   -1.5000    0.0000    0.0000 N   0  0  0  0  0  0  0  0  0  0  0  0
   -0.7500   -1.2990    0.0000 C   0  0  0  0  0  0  0  0  0  0  0  0
   -1.7537   -2.4138    0.0000 N   0  0  0  0  0  0  0  0  0  0  0  0
   -3.1240   -1.8037    0.0000 C   0  0  0  0  0  0  0  0  0  0  0  0
   -2.9672   -0.3119    0.0000 C   0  0  0  0  0  0  0  0  0  0  0  0
   -4.1807    0.5698    0.0000 C   0  0  0  0  0  0  0  0  0  0  0  0
   -4.0240    2.0616    0.0000 O   0  0  0  0  0  0  0  0  0  0  0  0
   -5.5511   -0.0403    0.0000 N   0  0  0  0  0  0  0  0  0  0  0  0
   -5.7079   -1.5321    0.0000 C   0  0  0  0  0  0  0  0  0  0  0  0
   -7.0782   -2.1422    0.0000 O   0  0  0  0  0  0  0  0  0  0  0  0
   -4.4943   -2.4138    0.0000 N   0  0  0  0  0  0  0  0  0  0  0  0
   -4.6511   -3.9055    0.0000 C   0  0  0  0  0  0  0  0  0  0  0  0
  1  2  1  0
  2  3  2  0
  3  4  1  0
  3  5  1  0
  5  6  2  0
  6  7  1  0
  7  8  2  0
  8  9  1  0
  9 10  1  0
 10 11  1  0
 11 12  1  0
 12 13  1  0
 13 14  1  0
 14 15  2  0
 15 16  1  0
 16 17  2  0
 17 18  1  0
 18 19  2  0
 18 20  1  0
 20 21  1  0
 21 22  2  0
 21 23  1  0
 23 24  1  0
  8  2  1  0
 14  9  1  0
 23 16  1  0
 17 13  1  0
M  END
>  <Compound_ID>  (1056) 
C04249381

>  <Active>  (1056) 
0.0

>  <Smiles>  (1056) 
Cc1c(Cl)cccc1N1CCCn2c1nc1c2c(=O)[nH]c(=O)n1C

>  <canonical_smi>  (1056) 
Cc1c(Cl)cccc1N1CCCn2c1nc1c2c(=O)[nH]c(=O)n1C

>  <Set>  (1056) 
G2 inactive

>  <Set_type>  (1056) 
Test

>  <MW>  (1056) 
345.79

>  <HBD>  (1056) 
1

>  <HBA>  (1056) 
4

>  <NRB>  (1056) 
1

>  <NR>  (1056) 
4

>  <NAR>  (1056) 
3

>  <PSA>  (1056) 
75.92

>  <Standard Type>  (1056) 
nan

>  <Standard Relation>  (1056) 
nan

>  <Standard Units>  (1056) 
nan

>  <Standard Value>  (1056) 
nan

>  <Assay ChEMBL ID>  (1056) 
nan

>  <Assay Description>  (1056) 
nan

>  <BAO Label>  (1056) 
nan

$$$$

     RDKit          2D

 21 22  0  0  0  0  0  0  0  0999 V2000
    3.7500    1.2990    0.0000 O   0  0  0  0  0  0  0  0  0  0  0  0
    3.0000    0.0000    0.0000 N   0  0  0  0  0  4  0  0  0  0  0  0
    3.7500   -1.2990    0.0000 O   0  0  0  0  0  1  0  0  0  0  0  0
    1.5000    0.0000    0.0000 C   0  0  0  0  0  0  0  0  0  0  0  0
    0.7500   -1.2990    0.0000 C   0  0  0  0  0  0  0  0  0  0  0  0
   -0.7500   -1.2990    0.0000 C   0  0  0  0  0  0  0  0  0  0  0  0
   -1.5000   -2.5981    0.0000 N   0  0  0  0  0  0  0  0  0  0  0  0
   -3.0000   -2.5981    0.0000 C   0  0  0  0  0  0  0  0  0  0  0  0
   -3.7500   -3.8971    0.0000 C   0  0  0  0  0  0  0  0  0  0  0  0
   -5.2500   -3.8971    0.0000 C   0  0  0  0  0  0  0  0  0  0  0  0
   -6.0000   -5.1962    0.0000 C   0  0  0  0  0  0  0  0  0  0  0  0
   -5.2500   -6.4952    0.0000 C   0  0  0  0  0  0  0  0  0  0  0  0
   -6.0000   -7.7942    0.0000 O   0  0  0  0  0  0  0  0  0  0  0  0
   -3.7500   -6.4952    0.0000 C   0  0  0  0  0  0  0  0  0  0  0  0
   -3.0000   -7.7942    0.0000 O   0  0  0  0  0  0  0  0  0  0  0  0
   -3.0000   -5.1962    0.0000 C   0  0  0  0  0  0  0  0  0  0  0  0
   -1.5000    0.0000    0.0000 C   0  0  0  0  0  0  0  0  0  0  0  0
   -3.0000    0.0000    0.0000 F   0  0  0  0  0  0  0  0  0  0  0  0
   -0.7500    1.2990    0.0000 C   0  0  0  0  0  0  0  0  0  0  0  0
    0.7500    1.2990    0.0000 C   0  0  0  0  0  0  0  0  0  0  0  0
    1.5000    2.5981    0.0000 F   0  0  0  0  0  0  0  0  0  0  0  0
  1  2  2  0
  2  3  1  0
  2  4  1  0
  4  5  2  0
  5  6  1  0
  6  7  1  0
  7  8  1  0
  8  9  1  0
  9 10  2  0
 10 11  1  0
 11 12  2  0
 12 13  1  0
 12 14  1  0
 14 15  1  0
 14 16  2  0
  6 17  2  0
 17 18  1  0
 17 19  1  0
 19 20  2  0
 20 21  1  0
 20  4  1  0
 16  9  1  0
M  CHG  2   2   1   3  -1
M  END
>  <Compound_ID>  (1057) 
C37076763

>  <Active>  (1057) 
0.0

>  <Smiles>  (1057) 
O=[N+]([O-])c1cc(NCc2ccc(O)c(O)c2)c(F)cc1F

>  <canonical_smi>  (1057) 
O=[N+]([O-])c1cc(NCc2ccc(O)c(O)c2)c(F)cc1F

>  <Set>  (1057) 
G2 inactive

>  <Set_type>  (1057) 
Test

>  <MW>  (1057) 
296.23

>  <HBD>  (1057) 
3

>  <HBA>  (1057) 
5

>  <NRB>  (1057) 
4

>  <NR>  (1057) 
2

>  <NAR>  (1057) 
2

>  <PSA>  (1057) 
95.63

>  <Standard Type>  (1057) 
nan

>  <Standard Relation>  (1057) 
nan

>  <Standard Units>  (1057) 
nan

>  <Standard Value>  (1057) 
nan

>  <Assay ChEMBL ID>  (1057) 
nan

>  <Assay Description>  (1057) 
nan

>  <BAO Label>  (1057) 
nan

$$$$

     RDKit          2D

 34 39  0  0  0  0  0  0  0  0999 V2000
   -3.2866    7.1152    0.0000 C   0  0  0  0  0  0  0  0  0  0  0  0
   -3.5985    5.6480    0.0000 C   0  0  0  0  0  0  0  0  0  0  0  0
   -5.0251    5.1844    0.0000 C   0  0  0  0  0  0  0  0  0  0  0  0
   -5.3369    3.7172    0.0000 C   0  0  0  0  0  0  0  0  0  0  0  0
   -6.7635    3.2537    0.0000 C   0  0  0  0  0  0  0  0  0  0  0  0
   -4.2222    2.7135    0.0000 C   0  0  0  0  0  0  0  0  0  0  0  0
   -2.7956    3.1771    0.0000 C   0  0  0  0  0  0  0  0  0  0  0  0
   -2.4838    4.6443    0.0000 C   0  0  0  0  0  0  0  0  0  0  0  0
   -1.9140    1.9635    0.0000 C   0  0  0  0  0  0  0  0  0  0  0  0
   -2.7956    0.7500    0.0000 C   0  0  0  0  0  0  0  0  0  0  0  0
   -2.3321   -0.6766    0.0000 O   0  0  0  0  0  0  0  0  0  0  0  0
   -4.2222    1.2135    0.0000 N   0  0  0  0  0  0  0  0  0  0  0  0
   -1.0323    3.1771    0.0000 C   0  0  0  0  0  0  0  0  0  0  0  0
   -1.0323    4.6771    0.0000 C   0  0  0  0  0  0  0  0  0  0  0  0
   -2.2458    5.5587    0.0000 O   0  0  0  0  0  0  0  0  0  0  0  0
    0.3943    5.1406    0.0000 N   0  0  0  0  0  0  0  0  0  0  0  0
    0.8578    6.5672    0.0000 C   0  0  0  0  0  0  0  0  0  0  0  0
    2.3250    6.8790    0.0000 C   0  0  0  0  0  0  0  0  0  0  0  0
    2.7886    8.3056    0.0000 C   0  0  0  0  0  0  0  0  0  0  0  0
    1.7849    9.4203    0.0000 C   0  0  0  0  0  0  0  0  0  0  0  0
    2.2484   10.8469    0.0000 N   0  0  0  0  0  4  0  0  0  0  0  0
    1.2447   11.9616    0.0000 O   0  0  0  0  0  0  0  0  0  0  0  0
    3.7156   11.1588    0.0000 O   0  0  0  0  0  1  0  0  0  0  0  0
    0.3177    9.1085    0.0000 C   0  0  0  0  0  0  0  0  0  0  0  0
   -0.1459    7.6819    0.0000 C   0  0  0  0  0  0  0  0  0  0  0  0
   -1.6131    7.3700    0.0000 C   0  0  0  0  0  0  0  0  0  0  0  0
    1.2760    3.9271    0.0000 C   0  0  0  0  0  0  0  0  0  0  0  0
    2.7760    3.9271    0.0000 O   0  0  0  0  0  0  0  0  0  0  0  0
    0.3943    2.7135    0.0000 C   0  0  0  0  0  0  0  0  0  0  0  0
    0.3943    1.2135    0.0000 C   0  0  0  0  0  0  0  0  0  0  0  0
    1.2760    0.0000    0.0000 C   0  0  0  0  0  0  0  0  0  0  0  0
    0.3943   -1.2135    0.0000 C   0  0  0  0  0  0  0  0  0  0  0  0
   -1.0323   -0.7500    0.0000 C   0  0  0  0  0  0  0  0  0  0  0  0
   -1.0323    0.7500    0.0000 N   0  0  0  0  0  0  0  0  0  0  0  0
  1  2  1  0
  2  3  2  0
  3  4  1  0
  4  5  1  0
  4  6  2  0
  6  7  1  0
  7  8  2  0
  7  9  1  0
  9 10  1  0
 10 11  2  0
 10 12  1  0
  9 13  1  0
 13 14  1  1
 14 15  2  0
 14 16  1  0
 16 17  1  0
 17 18  2  0
 18 19  1  0
 19 20  2  0
 20 21  1  0
 21 22  2  0
 21 23  1  0
 20 24  1  0
 24 25  2  0
 25 26  1  0
 16 27  1  0
 27 28  2  0
 29 27  1  6
 29 30  1  0
 30 31  1  1
 31 32  1  0
 32 33  1  0
 33 34  1  0
  8  2  1  0
  9 34  1  1
 12  6  1  0
 29 13  1  0
 34 30  1  0
 25 17  1  0
M  CHG  2  21   1  23  -1
M  END
>  <Compound_ID>  (1058) 
C34793152

>  <Active>  (1058) 
0.0

>  <Smiles>  (1058) 
Cc1cc(C)c2c(c1)[C@@]1(C(=O)N2)[C@H]2C(=O)N(c3ccc([N+](=O)[O-])cc3C)C(=O)[C@@H]2[C@H]2CCCN21

>  <canonical_smi>  (1058) 
Cc1cc(C)c2c(c1)[C@@]1(C(=O)N2)[C@H]2C(=O)N(c3ccc([N+](=O)[O-])cc3C)C(=O)[C@@H]2[C@H]2CCCN21

>  <Set>  (1058) 
G2 inactive

>  <Set_type>  (1058) 
Test

>  <MW>  (1058) 
460.49

>  <HBD>  (1058) 
1

>  <HBA>  (1058) 
6

>  <NRB>  (1058) 
2

>  <NR>  (1058) 
6

>  <NAR>  (1058) 
2

>  <PSA>  (1058) 
112.86

>  <Standard Type>  (1058) 
nan

>  <Standard Relation>  (1058) 
nan

>  <Standard Units>  (1058) 
nan

>  <Standard Value>  (1058) 
nan

>  <Assay ChEMBL ID>  (1058) 
nan

>  <Assay Description>  (1058) 
nan

>  <BAO Label>  (1058) 
nan

$$$$

     RDKit          2D

 21 23  0  0  0  0  0  0  0  0999 V2000
    3.0000    0.0000    0.0000 O   0  0  0  0  0  0  0  0  0  0  0  0
    1.5000    0.0000    0.0000 C   0  0  0  0  0  0  0  0  0  0  0  0
    0.7500   -1.2990    0.0000 C   0  0  0  0  0  0  0  0  0  0  0  0
   -0.7500   -1.2990    0.0000 O   0  0  0  0  0  0  0  0  0  0  0  0
   -1.5000    0.0000    0.0000 C   0  0  0  0  0  0  0  0  0  0  0  0
   -3.0000    0.0000    0.0000 C   0  0  0  0  0  0  0  0  0  0  0  0
   -3.7500    1.2990    0.0000 C   0  0  0  0  0  0  0  0  0  0  0  0
   -5.2500    1.2990    0.0000 N   0  0  0  0  0  0  0  0  0  0  0  0
   -6.0000    2.5981    0.0000 C   0  0  0  0  0  0  0  0  0  0  0  0
   -5.0869    3.7881    0.0000 C   0  0  0  0  0  0  0  0  0  0  0  0
   -5.2826    5.2753    0.0000 C   0  0  0  0  0  0  0  0  0  0  0  0
   -6.4727    6.1884    0.0000 C   0  0  0  0  0  0  0  0  0  0  0  0
   -7.9598    5.9926    0.0000 C   0  0  0  0  0  0  0  0  0  0  0  0
   -8.8730    4.8026    0.0000 C   0  0  0  0  0  0  0  0  0  0  0  0
   -8.6772    3.3154    0.0000 C   0  0  0  0  0  0  0  0  0  0  0  0
   -7.4872    2.4023    0.0000 C   0  0  0  0  0  0  0  0  0  0  0  0
   -3.0000    2.5981    0.0000 C   0  0  0  0  0  0  0  0  0  0  0  0
   -3.7500    3.8971    0.0000 Cl  0  0  0  0  0  0  0  0  0  0  0  0
   -1.5000    2.5981    0.0000 C   0  0  0  0  0  0  0  0  0  0  0  0
   -0.7500    1.2990    0.0000 C   0  0  0  0  0  0  0  0  0  0  0  0
    0.7500    1.2990    0.0000 N   0  0  0  0  0  0  0  0  0  0  0  0
  1  2  2  0
  2  3  1  0
  3  4  1  0
  4  5  1  0
  5  6  2  0
  6  7  1  0
  7  8  1  0
  8  9  1  0
  9 10  1  0
 10 11  1  0
 11 12  1  0
 12 13  1  0
 13 14  1  0
 14 15  1  0
 15 16  1  0
  7 17  2  0
 17 18  1  0
 17 19  1  0
 19 20  2  0
 20 21  1  0
 21  2  1  0
 20  5  1  0
 16  9  1  0
M  END
>  <Compound_ID>  (1059) 
C36993238

>  <Active>  (1059) 
0.0

>  <Smiles>  (1059) 
O=C1COc2cc(NC3CCCCCCC3)c(Cl)cc2N1

>  <canonical_smi>  (1059) 
O=C1COc2cc(NC3CCCCCCC3)c(Cl)cc2N1

>  <Set>  (1059) 
G2 inactive

>  <Set_type>  (1059) 
Test

>  <MW>  (1059) 
308.81

>  <HBD>  (1059) 
2

>  <HBA>  (1059) 
3

>  <NRB>  (1059) 
2

>  <NR>  (1059) 
3

>  <NAR>  (1059) 
1

>  <PSA>  (1059) 
50.36

>  <Standard Type>  (1059) 
nan

>  <Standard Relation>  (1059) 
nan

>  <Standard Units>  (1059) 
nan

>  <Standard Value>  (1059) 
nan

>  <Assay ChEMBL ID>  (1059) 
nan

>  <Assay Description>  (1059) 
nan

>  <BAO Label>  (1059) 
nan

$$$$

     RDKit          2D

 21 22  0  0  0  0  0  0  0  0999 V2000
    3.0000    0.0000    0.0000 C   0  0  0  0  0  0  0  0  0  0  0  0
    1.5000    0.0000    0.0000 C   0  0  0  0  0  0  0  0  0  0  0  0
    0.7500   -1.2990    0.0000 C   0  0  0  0  0  0  0  0  0  0  0  0
   -0.7500   -1.2990    0.0000 C   0  0  0  0  0  0  0  0  0  0  0  0
   -1.5000    0.0000    0.0000 C   0  0  0  0  0  0  0  0  0  0  0  0
   -0.7500    1.2990    0.0000 C   0  0  0  0  0  0  0  0  0  0  0  0
    0.7500    1.2990    0.0000 C   0  0  0  0  0  0  0  0  0  0  0  0
    1.5000    2.5981    0.0000 N   0  0  0  0  0  0  0  0  0  0  0  0
    0.7500    3.8971    0.0000 S   0  0  0  0  0  0  0  0  0  0  0  0
   -0.5490    3.1471    0.0000 O   0  0  0  0  0  0  0  0  0  0  0  0
    2.0490    4.6471    0.0000 O   0  0  0  0  0  0  0  0  0  0  0  0
    0.0000    5.1962    0.0000 C   0  0  0  0  0  0  0  0  0  0  0  0
    0.7500    6.4952    0.0000 C   0  0  0  0  0  0  0  0  0  0  0  0
   -0.0000    7.7942    0.0000 C   0  0  0  0  0  0  0  0  0  0  0  0
   -1.5000    7.7942    0.0000 C   0  0  0  0  0  0  0  0  0  0  0  0
   -2.2500    9.0933    0.0000 C   0  0  0  0  0  0  0  0  0  0  0  0
   -3.0000   10.3923    0.0000 C   0  0  0  0  0  0  0  0  0  0  0  0
   -3.7500   11.6913    0.0000 C   0  0  0  0  0  0  0  0  0  0  0  0
   -3.0000   12.9904    0.0000 O   0  0  0  0  0  0  0  0  0  0  0  0
   -2.2500    6.4952    0.0000 C   0  0  0  0  0  0  0  0  0  0  0  0
   -1.5000    5.1962    0.0000 C   0  0  0  0  0  0  0  0  0  0  0  0
  2  1  1  6
  2  3  1  0
  3  4  1  0
  4  5  1  0
  5  6  1  0
  6  7  1  0
  7  8  1  6
  8  9  1  0
  9 10  2  0
  9 11  2  0
  9 12  1  0
 12 13  2  0
 13 14  1  0
 14 15  2  0
 15 16  1  0
 16 17  3  0
 17 18  1  0
 18 19  1  0
 15 20  1  0
 20 21  2  0
  7  2  1  0
 21 12  1  0
M  END
>  <Compound_ID>  (1060) 
C37577943

>  <Active>  (1060) 
0.0

>  <Smiles>  (1060) 
C[C@@H]1CCCC[C@@H]1NS(=O)(=O)c1ccc(C#CCO)cc1

>  <canonical_smi>  (1060) 
C[C@@H]1CCCC[C@@H]1NS(=O)(=O)c1ccc(C#CCO)cc1

>  <Set>  (1060) 
G2 inactive

>  <Set_type>  (1060) 
Test

>  <MW>  (1060) 
307.42

>  <HBD>  (1060) 
2

>  <HBA>  (1060) 
3

>  <NRB>  (1060) 
3

>  <NR>  (1060) 
2

>  <NAR>  (1060) 
1

>  <PSA>  (1060) 
66.4

>  <Standard Type>  (1060) 
nan

>  <Standard Relation>  (1060) 
nan

>  <Standard Units>  (1060) 
nan

>  <Standard Value>  (1060) 
nan

>  <Assay ChEMBL ID>  (1060) 
nan

>  <Assay Description>  (1060) 
nan

>  <BAO Label>  (1060) 
nan

$$$$

     RDKit          2D

 20 21  0  0  0  0  0  0  0  0999 V2000
    3.7500   -1.2990    0.0000 C   0  0  0  0  0  0  0  0  0  0  0  0
    3.0000    0.0000    0.0000 C   0  0  0  0  0  0  0  0  0  0  0  0
    1.5000    0.0000    0.0000 C   0  0  0  0  0  0  0  0  0  0  0  0
    0.7500   -1.2990    0.0000 C   0  0  0  0  0  0  0  0  0  0  0  0
   -0.7500   -1.2990    0.0000 C   0  0  0  0  0  0  0  0  0  0  0  0
   -1.5000    0.0000    0.0000 C   0  0  0  0  0  0  0  0  0  0  0  0
   -0.7500    1.2990    0.0000 N   0  0  0  0  0  0  0  0  0  0  0  0
   -1.5000    2.5981    0.0000 S   0  0  0  0  0  0  0  0  0  0  0  0
   -2.7990    1.8481    0.0000 O   0  0  0  0  0  0  0  0  0  0  0  0
   -0.2010    3.3481    0.0000 O   0  0  0  0  0  0  0  0  0  0  0  0
   -2.2500    3.8971    0.0000 C   0  0  0  0  0  0  0  0  0  0  0  0
   -1.5000    5.1962    0.0000 C   0  0  0  0  0  0  0  0  0  0  0  0
   -2.2500    6.4952    0.0000 C   0  0  0  0  0  0  0  0  0  0  0  0
   -1.5000    7.7942    0.0000 N   0  0  0  0  0  0  0  0  0  0  0  0
   -3.7500    6.4952    0.0000 C   0  0  0  0  0  0  0  0  0  0  0  0
   -4.5000    7.7942    0.0000 F   0  0  0  0  0  0  0  0  0  0  0  0
   -4.5000    5.1962    0.0000 C   0  0  0  0  0  0  0  0  0  0  0  0
   -3.7500    3.8971    0.0000 C   0  0  0  0  0  0  0  0  0  0  0  0
   -4.5000    2.5981    0.0000 Cl  0  0  0  0  0  0  0  0  0  0  0  0
    0.7500    1.2990    0.0000 C   0  0  0  0  0  0  0  0  0  0  0  0
  1  2  1  0
  3  2  1  1
  3  4  1  0
  4  5  1  0
  5  6  1  0
  6  7  1  0
  7  8  1  0
  8  9  2  0
  8 10  2  0
  8 11  1  0
 11 12  2  0
 12 13  1  0
 13 14  1  0
 13 15  2  0
 15 16  1  0
 15 17  1  0
 17 18  2  0
 18 19  1  0
  7 20  1  0
 20  3  1  0
 18 11  1  0
M  END
>  <Compound_ID>  (1061) 
C40314942

>  <Active>  (1061) 
0.0

>  <Smiles>  (1061) 
CC[C@H]1CCCN(S(=O)(=O)c2cc(N)c(F)cc2Cl)C1

>  <canonical_smi>  (1061) 
CC[C@H]1CCCN(S(=O)(=O)c2cc(N)c(F)cc2Cl)C1

>  <Set>  (1061) 
G2 inactive

>  <Set_type>  (1061) 
Test

>  <MW>  (1061) 
320.82

>  <HBD>  (1061) 
1

>  <HBA>  (1061) 
3

>  <NRB>  (1061) 
3

>  <NR>  (1061) 
2

>  <NAR>  (1061) 
1

>  <PSA>  (1061) 
63.4

>  <Standard Type>  (1061) 
nan

>  <Standard Relation>  (1061) 
nan

>  <Standard Units>  (1061) 
nan

>  <Standard Value>  (1061) 
nan

>  <Assay ChEMBL ID>  (1061) 
nan

>  <Assay Description>  (1061) 
nan

>  <BAO Label>  (1061) 
nan

$$$$

     RDKit          2D

 32 33  0  0  0  0  0  0  0  0999 V2000
    1.5000   -5.1962    0.0000 C   0  0  0  0  0  0  0  0  0  0  0  0
    0.7500   -3.8971    0.0000 N   0  0  0  0  0  0  0  0  0  0  0  0
    1.5000   -2.5981    0.0000 C   0  0  0  0  0  0  0  0  0  0  0  0
    0.7500   -1.2990    0.0000 O   0  0  0  0  0  0  0  0  0  0  0  0
    3.0000   -2.5981    0.0000 C   0  0  0  0  0  0  0  0  0  0  0  0
    3.7500   -1.2990    0.0000 C   0  0  0  0  0  0  0  0  0  0  0  0
    5.2500   -1.2990    0.0000 C   0  0  0  0  0  0  0  0  0  0  0  0
    6.0000   -2.5981    0.0000 C   0  0  0  0  0  0  0  0  0  0  0  0
    7.5000   -2.5981    0.0000 Cl  0  0  0  0  0  0  0  0  0  0  0  0
    5.2500   -3.8971    0.0000 C   0  0  0  0  0  0  0  0  0  0  0  0
    3.7500   -3.8971    0.0000 C   0  0  0  0  0  0  0  0  0  0  0  0
   -0.7500   -3.8971    0.0000 C   0  0  0  0  0  0  0  0  0  0  0  0
   -1.5000   -2.5981    0.0000 C   0  0  0  0  0  0  0  0  0  0  0  0
   -0.7500   -1.2990    0.0000 O   0  0  0  0  0  0  0  0  0  0  0  0
   -3.0000   -2.5981    0.0000 N   0  0  0  0  0  0  0  0  0  0  0  0
   -3.7500   -1.2990    0.0000 C   0  0  0  0  0  0  0  0  0  0  0  0
   -5.0490   -2.0490    0.0000 C   0  0  0  0  0  0  0  0  0  0  0  0
   -2.4510   -0.5490    0.0000 C   0  0  0  0  0  0  0  0  0  0  0  0
   -4.5000    0.0000    0.0000 C   0  0  0  0  0  0  0  0  0  0  0  0
   -3.7500    1.2990    0.0000 C   0  0  0  0  0  0  0  0  0  0  0  0
   -5.0490    2.0490    0.0000 C   0  0  0  0  0  0  0  0  0  0  0  0
   -2.4510    0.5490    0.0000 C   0  0  0  0  0  0  0  0  0  0  0  0
   -3.0000    2.5981    0.0000 C   0  0  0  0  0  0  0  0  0  0  0  0
   -1.5000   -5.1962    0.0000 C   0  0  0  0  0  0  0  0  0  0  0  0
   -3.0000   -5.1962    0.0000 C   0  0  0  0  0  0  0  0  0  0  0  0
   -3.7500   -3.8971    0.0000 O   0  0  0  0  0  0  0  0  0  0  0  0
   -3.7500   -6.4952    0.0000 C   0  0  0  0  0  0  0  0  0  0  0  0
   -3.0000   -7.7942    0.0000 C   0  0  0  0  0  0  0  0  0  0  0  0
   -3.7500   -9.0933    0.0000 O   0  0  0  0  0  0  0  0  0  0  0  0
   -1.5000   -7.7942    0.0000 C   0  0  0  0  0  0  0  0  0  0  0  0
   -0.7500   -6.4952    0.0000 C   0  0  0  0  0  0  0  0  0  0  0  0
    0.7500   -6.4952    0.0000 O   0  0  0  0  0  0  0  0  0  0  0  0
  1  2  1  0
  2  3  1  0
  3  4  2  0
  3  5  1  0
  5  6  2  0
  6  7  1  0
  7  8  2  0
  8  9  1  0
  8 10  1  0
 10 11  2  0
 12  2  1  1
 12 13  1  0
 13 14  2  0
 13 15  1  0
 15 16  1  0
 16 17  1  0
 16 18  1  0
 16 19  1  0
 19 20  1  0
 20 21  1  0
 20 22  1  0
 20 23  1  0
 12 24  1  0
 24 25  2  0
 25 26  1  0
 25 27  1  0
 27 28  2  0
 28 29  1  0
 28 30  1  0
 30 31  2  0
 31 32  1  0
 11  5  1  0
 31 24  1  0
M  END
>  <Compound_ID>  (1062) 
C36527822

>  <Active>  (1062) 
0.0

>  <Smiles>  (1062) 
CN(C(=O)c1ccc(Cl)cc1)[C@H](C(=O)NC(C)(C)CC(C)(C)C)c1c(O)cc(O)cc1O

>  <canonical_smi>  (1062) 
CN(C(=O)c1ccc(Cl)cc1)[C@H](C(=O)NC(C)(C)CC(C)(C)C)c1c(O)cc(O)cc1O

>  <Set>  (1062) 
G2 inactive

>  <Set_type>  (1062) 
Test

>  <MW>  (1062) 
462.97

>  <HBD>  (1062) 
4

>  <HBA>  (1062) 
5

>  <NRB>  (1062) 
6

>  <NR>  (1062) 
2

>  <NAR>  (1062) 
2

>  <PSA>  (1062) 
110.1

>  <Standard Type>  (1062) 
nan

>  <Standard Relation>  (1062) 
nan

>  <Standard Units>  (1062) 
nan

>  <Standard Value>  (1062) 
nan

>  <Assay ChEMBL ID>  (1062) 
nan

>  <Assay Description>  (1062) 
nan

>  <BAO Label>  (1062) 
nan

$$$$

     RDKit          2D

 34 38  0  0  0  0  0  0  0  0999 V2000
    2.3907    1.0037    0.0000 C   0  0  0  0  0  0  0  0  0  0  0  0
    1.2760    0.0000    0.0000 C   0  0  0  0  0  0  0  0  0  0  0  0
    2.3907   -1.0037    0.0000 C   0  0  0  0  0  0  0  0  0  0  0  0
    0.3943    1.2135    0.0000 O   0  0  0  0  0  0  0  0  0  0  0  0
   -1.0323    0.7500    0.0000 C   0  0  0  0  0  0  0  0  0  0  0  0
   -2.4589    1.2135    0.0000 O   0  0  0  0  0  0  0  0  0  0  0  0
   -3.3405    0.0000    0.0000 C   0  0  0  0  0  0  0  0  0  0  0  0
   -4.8405    0.0000    0.0000 C   0  0  0  0  0  0  0  0  0  0  0  0
   -5.5905   -1.2990    0.0000 N   0  0  0  0  0  4  0  0  0  0  0  0
   -5.5905    1.2990    0.0000 C   0  0  0  0  0  0  0  0  0  0  0  0
   -7.0905    1.2990    0.0000 O   0  0  0  0  0  0  0  0  0  0  0  0
   -7.8405    2.5981    0.0000 C   0  0  0  0  0  0  0  0  0  0  0  0
   -9.1396    1.8481    0.0000 C   0  0  0  0  0  0  0  0  0  0  0  0
  -10.4386    2.5981    0.0000 C   0  0  0  0  0  0  0  0  0  0  0  0
  -11.7377    1.8481    0.0000 C   0  0  0  0  0  0  0  0  0  0  0  0
  -11.7377    0.3481    0.0000 C   0  0  0  0  0  0  0  0  0  0  0  0
  -10.4386   -0.4019    0.0000 C   0  0  0  0  0  0  0  0  0  0  0  0
   -9.1396    0.3481    0.0000 C   0  0  0  0  0  0  0  0  0  0  0  0
   -6.5415    3.3481    0.0000 C   0  0  0  0  0  0  0  0  0  0  0  0
   -5.2425    2.5981    0.0000 C   0  0  0  0  0  0  0  0  0  0  0  0
   -3.9434    3.3481    0.0000 C   0  0  0  0  0  0  0  0  0  0  0  0
   -3.9434    4.8481    0.0000 C   0  0  0  0  0  0  0  0  0  0  0  0
   -5.2425    5.5981    0.0000 C   0  0  0  0  0  0  0  0  0  0  0  0
   -6.5415    4.8481    0.0000 C   0  0  0  0  0  0  0  0  0  0  0  0
   -8.5905    3.8971    0.0000 C   0  0  0  0  0  0  0  0  0  0  0  0
   -7.8405    5.1962    0.0000 C   0  0  0  0  0  0  0  0  0  0  0  0
   -8.5905    6.4952    0.0000 C   0  0  0  0  0  0  0  0  0  0  0  0
  -10.0905    6.4952    0.0000 C   0  0  0  0  0  0  0  0  0  0  0  0
  -10.8405    5.1962    0.0000 C   0  0  0  0  0  0  0  0  0  0  0  0
  -10.0905    3.8971    0.0000 C   0  0  0  0  0  0  0  0  0  0  0  0
   -2.4589   -1.2135    0.0000 C   0  0  0  0  0  0  0  0  0  0  0  0
   -2.9224   -2.6401    0.0000 O   0  0  0  0  0  0  0  0  0  0  0  0
   -1.0323   -0.7500    0.0000 C   0  0  0  0  0  0  0  0  0  0  0  0
    0.3943   -1.2135    0.0000 O   0  0  0  0  0  0  0  0  0  0  0  0
  1  2  1  0
  2  3  1  0
  2  4  1  0
  5  4  1  1
  5  6  1  0
  7  6  1  6
  7  8  1  0
  8  9  1  6
  8 10  1  0
 10 11  1  0
 11 12  1  0
 12 13  1  0
 13 14  2  0
 14 15  1  0
 15 16  2  0
 16 17  1  0
 17 18  2  0
 12 19  1  0
 19 20  2  0
 20 21  1  0
 21 22  2  0
 22 23  1  0
 23 24  2  0
 12 25  1  0
 25 26  2  0
 26 27  1  0
 27 28  2  0
 28 29  1  0
 29 30  2  0
  7 31  1  0
 31 32  1  6
 31 33  1  0
 33 34  1  1
 34  2  1  0
 33  5  1  0
 18 13  1  0
 24 19  1  0
 30 25  1  0
M  CHG  1   9   1
M  END
>  <Compound_ID>  (1063) 
C44135646

>  <Active>  (1063) 
0.0

>  <Smiles>  (1063) 
CC1(C)O[C@@H]2O[C@@H]([C@H]([NH3+])COC(c3ccccc3)(c3ccccc3)c3ccccc3)[C@@H](O)[C@@H]2O1

>  <canonical_smi>  (1063) 
CC1(C)O[C@@H]2O[C@@H]([C@H]([NH3+])COC(c3ccccc3)(c3ccccc3)c3ccccc3)[C@@H](O)[C@@H]2O1

>  <Set>  (1063) 
G2 inactive

>  <Set_type>  (1063) 
Test

>  <MW>  (1063) 
462.57

>  <HBD>  (1063) 
2

>  <HBA>  (1063) 
5

>  <NRB>  (1063) 
7

>  <NR>  (1063) 
5

>  <NAR>  (1063) 
3

>  <PSA>  (1063) 
84.79

>  <Standard Type>  (1063) 
nan

>  <Standard Relation>  (1063) 
nan

>  <Standard Units>  (1063) 
nan

>  <Standard Value>  (1063) 
nan

>  <Assay ChEMBL ID>  (1063) 
nan

>  <Assay Description>  (1063) 
nan

>  <BAO Label>  (1063) 
nan

$$$$

     RDKit          2D

 21 23  0  0  0  0  0  0  0  0999 V2000
   -8.2500   -3.8971    0.0000 C   0  0  0  0  0  0  0  0  0  0  0  0
   -7.5000   -5.1962    0.0000 C   0  0  0  0  0  0  0  0  0  0  0  0
   -6.0000   -5.1962    0.0000 C   0  0  0  0  0  0  0  0  0  0  0  0
   -5.2500   -3.8971    0.0000 C   0  0  0  0  0  0  0  0  0  0  0  0
   -3.7500   -3.8971    0.0000 C   0  0  0  0  0  0  0  0  0  0  0  0
   -3.0000   -5.1962    0.0000 C   0  0  0  0  0  0  0  0  0  0  0  0
   -1.5000   -5.1962    0.0000 C   0  0  0  0  0  0  0  0  0  0  0  0
   -0.7500   -3.8971    0.0000 C   0  0  0  0  0  0  0  0  0  0  0  0
    0.7500   -3.8971    0.0000 C   0  0  0  0  0  0  0  0  0  0  0  0
    1.5000   -2.5981    0.0000 N   0  0  0  0  0  0  0  0  0  0  0  0
    3.0000   -2.5981    0.0000 C   0  0  0  0  0  0  0  0  0  0  0  0
    0.7500   -1.2990    0.0000 C   0  0  0  0  0  0  0  0  0  0  0  0
    1.5000    0.0000    0.0000 C   0  0  0  0  0  0  0  0  0  0  0  0
    0.7500    1.2990    0.0000 C   0  0  0  0  0  0  0  0  0  0  0  0
   -0.7500    1.2990    0.0000 C   0  0  0  0  0  0  0  0  0  0  0  0
   -1.5000    2.5981    0.0000 O   0  0  0  0  0  0  0  0  0  0  0  0
   -1.5000    0.0000    0.0000 C   0  0  0  0  0  0  0  0  0  0  0  0
   -0.7500   -1.2990    0.0000 C   0  0  0  0  0  0  0  0  0  0  0  0
   -1.5000   -2.5981    0.0000 O   0  0  0  0  0  0  0  0  0  0  0  0
   -3.7500   -6.4952    0.0000 C   0  0  0  0  0  0  0  0  0  0  0  0
   -5.2500   -6.4952    0.0000 C   0  0  0  0  0  0  0  0  0  0  0  0
  1  2  1  0
  2  3  1  0
  3  4  2  0
  4  5  1  0
  5  6  2  0
  6  7  1  0
  8  7  1  6
  8  9  1  0
  9 10  1  0
 10 11  1  0
 10 12  1  0
 12 13  2  0
 13 14  1  0
 14 15  2  0
 15 16  1  0
 15 17  1  0
 17 18  2  0
 18 19  1  0
  6 20  1  0
 20 21  2  0
 21  3  1  0
 19  8  1  0
 18 12  1  0
M  END
>  <Compound_ID>  (1064) 
C62498125

>  <Active>  (1064) 
0.0

>  <Smiles>  (1064) 
CCc1ccc(C[C@H]2CN(C)c3ccc(O)cc3O2)cc1

>  <canonical_smi>  (1064) 
CCc1ccc(C[C@H]2CN(C)c3ccc(O)cc3O2)cc1

>  <Set>  (1064) 
G2 inactive

>  <Set_type>  (1064) 
Test

>  <MW>  (1064) 
283.37

>  <HBD>  (1064) 
1

>  <HBA>  (1064) 
3

>  <NRB>  (1064) 
3

>  <NR>  (1064) 
3

>  <NAR>  (1064) 
2

>  <PSA>  (1064) 
32.7

>  <Standard Type>  (1064) 
nan

>  <Standard Relation>  (1064) 
nan

>  <Standard Units>  (1064) 
nan

>  <Standard Value>  (1064) 
nan

>  <Assay ChEMBL ID>  (1064) 
nan

>  <Assay Description>  (1064) 
nan

>  <BAO Label>  (1064) 
nan

$$$$

     RDKit          2D

 36 39  0  0  0  0  0  0  0  0999 V2000
    6.3821  -15.9113    0.0000 C   0  0  0  0  0  0  0  0  0  0  0  0
    4.8821  -15.9113    0.0000 C   0  0  0  0  0  0  0  0  0  0  0  0
    4.1321  -14.6123    0.0000 C   0  0  0  0  0  0  0  0  0  0  0  0
    2.6321  -14.6123    0.0000 S   0  0  0  0  0  0  0  0  0  0  0  0
    1.8821  -13.3132    0.0000 C   0  0  0  0  0  0  0  0  0  0  0  0
    0.3903  -13.1564    0.0000 N   0  0  0  0  0  0  0  0  0  0  0  0
    0.0784  -11.6892    0.0000 N   0  0  0  0  0  0  0  0  0  0  0  0
    1.3774  -10.9392    0.0000 C   0  0  0  0  0  0  0  0  0  0  0  0
    1.5342   -9.4474    0.0000 N   0  0  0  0  0  0  0  0  0  0  0  0
    0.3207   -8.5658    0.0000 C   0  0  0  0  0  0  0  0  0  0  0  0
   -1.0496   -9.1759    0.0000 O   0  0  0  0  0  1  0  0  0  0  0  0
    0.4775   -7.0740    0.0000 C   0  0  0  0  0  0  0  0  0  0  0  0
   -0.7360   -6.1923    0.0000 C   0  0  0  0  0  0  0  0  0  0  0  0
   -1.9495   -5.3106    0.0000 N   0  0  0  0  0  0  0  0  0  0  0  0
    1.8478   -6.4639    0.0000 C   0  0  0  0  0  0  0  0  0  0  0  0
    2.0046   -4.9721    0.0000 C   0  0  0  0  0  0  0  0  0  0  0  0
    0.8899   -3.9684    0.0000 C   0  0  0  0  0  0  0  0  0  0  0  0
    1.5000   -2.5981    0.0000 N   0  0  0  0  0  0  0  0  0  0  0  0
    0.7500   -1.2990    0.0000 C   0  0  0  0  0  0  0  0  0  0  0  0
    1.5000    0.0000    0.0000 C   0  0  0  0  0  0  0  0  0  0  0  0
    0.7500    1.2990    0.0000 C   0  0  0  0  0  0  0  0  0  0  0  0
   -0.7500    1.2990    0.0000 C   0  0  0  0  0  0  0  0  0  0  0  0
   -1.5000    0.0000    0.0000 C   0  0  0  0  0  0  0  0  0  0  0  0
   -0.7500   -1.2990    0.0000 C   0  0  0  0  0  0  0  0  0  0  0  0
    2.9918   -2.7549    0.0000 N   0  0  0  0  0  0  0  0  0  0  0  0
    3.3037   -4.2221    0.0000 C   0  0  0  0  0  0  0  0  0  0  0  0
    4.6740   -4.8322    0.0000 C   0  0  0  0  0  0  0  0  0  0  0  0
    4.8308   -6.3240    0.0000 C   0  0  0  0  0  0  0  0  0  0  0  0
    6.2011   -6.9341    0.0000 C   0  0  0  0  0  0  0  0  0  0  0  0
    7.4146   -6.0524    0.0000 C   0  0  0  0  0  0  0  0  0  0  0  0
    7.2578   -4.5606    0.0000 C   0  0  0  0  0  0  0  0  0  0  0  0
    8.4713   -3.6789    0.0000 N   0  0  0  0  0  4  0  0  0  0  0  0
    8.3145   -2.1872    0.0000 O   0  0  0  0  0  0  0  0  0  0  0  0
    9.8417   -4.2890    0.0000 O   0  0  0  0  0  1  0  0  0  0  0  0
    5.8875   -3.9505    0.0000 C   0  0  0  0  0  0  0  0  0  0  0  0
    2.4922  -11.9429    0.0000 S   0  0  0  0  0  0  0  0  0  0  0  0
  1  2  1  0
  2  3  1  0
  3  4  1  0
  4  5  1  0
  5  6  2  0
  6  7  1  0
  7  8  2  0
  8  9  1  0
  9 10  2  0
 10 11  1  0
 10 12  1  0
 12 13  1  0
 13 14  3  0
 12 15  2  0
 15 16  1  0
 16 17  2  0
 17 18  1  0
 18 19  1  0
 19 20  2  0
 20 21  1  0
 21 22  2  0
 22 23  1  0
 23 24  2  0
 18 25  1  0
 25 26  2  0
 26 27  1  0
 27 28  2  0
 28 29  1  0
 29 30  2  0
 30 31  1  0
 31 32  1  0
 32 33  2  0
 32 34  1  0
 31 35  2  0
  8 36  1  0
 36  5  1  0
 26 16  1  0
 35 27  1  0
 24 19  1  0
M  CHG  3  11  -1  32   1  34  -1
M  END
>  <Compound_ID>  (1065) 
C39998029

>  <Active>  (1065) 
0.0

>  <Smiles>  (1065) 
CCCSc1nnc(/N=C([O-])/C(C#N)=C/c2cn(-c3ccccc3)nc2-c2cccc([N+](=O)[O-])c2)s1

>  <canonical_smi>  (1065) 
CCCSc1nnc(/N=C([O-])/C(C#N)=C/c2cn(-c3ccccc3)nc2-c2cccc([N+](=O)[O-])c2)s1

>  <Set>  (1065) 
G2 inactive

>  <Set_type>  (1065) 
Test

>  <MW>  (1065) 
516.59

>  <HBD>  (1065) 
0

>  <HBA>  (1065) 
8

>  <NRB>  (1065) 
9

>  <NR>  (1065) 
4

>  <NAR>  (1065) 
4

>  <PSA>  (1065) 
145.95

>  <Standard Type>  (1065) 
nan

>  <Standard Relation>  (1065) 
nan

>  <Standard Units>  (1065) 
nan

>  <Standard Value>  (1065) 
nan

>  <Assay ChEMBL ID>  (1065) 
nan

>  <Assay Description>  (1065) 
nan

>  <BAO Label>  (1065) 
nan

$$$$

     RDKit          2D

 27 29  0  0  0  0  0  0  0  0999 V2000
   -7.5000  -10.3923    0.0000 C   0  0  0  0  0  0  0  0  0  0  0  0
   -6.0000  -10.3923    0.0000 O   0  0  0  0  0  0  0  0  0  0  0  0
   -5.2500   -9.0933    0.0000 C   0  0  0  0  0  0  0  0  0  0  0  0
   -3.7500   -9.0933    0.0000 C   0  0  0  0  0  0  0  0  0  0  0  0
   -3.0000  -10.3923    0.0000 C   0  0  0  0  0  0  0  0  0  0  0  0
   -3.0000   -7.7942    0.0000 N   0  0  0  0  0  0  0  0  0  0  0  0
   -3.7500   -6.4952    0.0000 C   0  0  0  0  0  0  0  0  0  0  0  0
   -5.2500   -6.4952    0.0000 N   0  0  0  0  0  0  0  0  0  0  0  0
   -6.0000   -5.1962    0.0000 C   0  0  0  0  0  0  0  0  0  0  0  0
   -7.5000   -5.1962    0.0000 N   0  0  0  0  0  0  0  0  0  0  0  0
   -5.2500   -3.8971    0.0000 C   0  0  0  0  0  0  0  0  0  0  0  0
   -6.0000   -2.5981    0.0000 N   0  0  0  0  0  4  0  0  0  0  0  0
   -7.5000   -2.5981    0.0000 O   0  0  0  0  0  0  0  0  0  0  0  0
   -5.2500   -1.2990    0.0000 O   0  0  0  0  0  1  0  0  0  0  0  0
   -3.7500   -3.8971    0.0000 C   0  0  0  0  0  0  0  0  0  0  0  0
   -3.0000   -2.5981    0.0000 N   0  0  0  0  0  0  0  0  0  0  0  0
   -1.5000   -2.5981    0.0000 C   0  0  0  0  0  0  0  0  0  0  0  0
   -0.7500   -3.8971    0.0000 C   0  0  0  0  0  0  0  0  0  0  0  0
    0.7500   -3.8971    0.0000 C   0  0  0  0  0  0  0  0  0  0  0  0
    1.5000   -2.5981    0.0000 C   0  0  0  0  0  0  0  0  0  0  0  0
    0.7500   -1.2990    0.0000 C   0  0  0  0  0  0  0  0  0  0  0  0
    1.5000    0.0000    0.0000 C   0  0  0  0  0  0  0  0  0  0  0  0
    0.7500    1.2990    0.0000 C   0  0  0  0  0  0  0  0  0  0  0  0
   -0.7500    1.2990    0.0000 C   0  0  0  0  0  0  0  0  0  0  0  0
   -1.5000    0.0000    0.0000 N   0  0  0  0  0  0  0  0  0  0  0  0
   -0.7500   -1.2990    0.0000 C   0  0  0  0  0  0  0  0  0  0  0  0
   -3.0000   -5.1962    0.0000 N   0  0  0  0  0  0  0  0  0  0  0  0
  1  2  1  0
  2  3  1  0
  3  4  1  0
  4  5  1  6
  4  6  1  0
  6  7  1  0
  7  8  2  0
  8  9  1  0
  9 10  1  0
  9 11  2  0
 11 12  1  0
 12 13  2  0
 12 14  1  0
 11 15  1  0
 15 16  1  0
 16 17  1  0
 17 18  2  0
 18 19  1  0
 19 20  2  0
 20 21  1  0
 21 22  2  0
 22 23  1  0
 23 24  2  0
 24 25  1  0
 25 26  2  0
 15 27  2  0
 27  7  1  0
 26 17  1  0
 26 21  1  0
M  CHG  2  12   1  14  -1
M  END
>  <Compound_ID>  (1066) 
C41334162

>  <Active>  (1066) 
0.0

>  <Smiles>  (1066) 
COC[C@@H](C)Nc1nc(N)c([N+](=O)[O-])c(Nc2cccc3cccnc23)n1

>  <canonical_smi>  (1066) 
COC[C@@H](C)Nc1nc(N)c([N+](=O)[O-])c(Nc2cccc3cccnc23)n1

>  <Set>  (1066) 
G2 inactive

>  <Set_type>  (1066) 
Test

>  <MW>  (1066) 
369.39

>  <HBD>  (1066) 
3

>  <HBA>  (1066) 
9

>  <NRB>  (1066) 
7

>  <NR>  (1066) 
3

>  <NAR>  (1066) 
3

>  <PSA>  (1066) 
141.12

>  <Standard Type>  (1066) 
nan

>  <Standard Relation>  (1066) 
nan

>  <Standard Units>  (1066) 
nan

>  <Standard Value>  (1066) 
nan

>  <Assay ChEMBL ID>  (1066) 
nan

>  <Assay Description>  (1066) 
nan

>  <BAO Label>  (1066) 
nan

$$$$

     RDKit          2D

 26 27  0  0  0  0  0  0  0  0999 V2000
    3.0000    0.0000    0.0000 C   0  0  0  0  0  0  0  0  0  0  0  0
    1.5000    0.0000    0.0000 C   0  0  0  0  0  0  0  0  0  0  0  0
    0.7500   -1.2990    0.0000 C   0  0  0  0  0  0  0  0  0  0  0  0
   -0.7500   -1.2990    0.0000 C   0  0  0  0  0  0  0  0  0  0  0  0
   -1.5000    0.0000    0.0000 N   0  0  0  0  0  4  0  0  0  0  0  0
   -3.0000    0.0000    0.0000 C   0  0  0  0  0  0  0  0  0  0  0  0
   -3.7500   -1.2990    0.0000 C   0  0  0  0  0  0  0  0  0  0  0  0
   -5.2500   -1.2990    0.0000 N   0  0  0  0  0  0  0  0  0  0  0  0
   -6.0000   -2.5981    0.0000 C   0  0  0  0  0  0  0  0  0  0  0  0
   -5.2500   -3.8971    0.0000 O   0  0  0  0  0  0  0  0  0  0  0  0
   -7.5000   -2.5981    0.0000 N   0  0  0  0  0  0  0  0  0  0  0  0
   -8.2500   -3.8971    0.0000 N   0  0  0  0  0  0  0  0  0  0  0  0
   -9.7500   -3.8971    0.0000 C   0  0  0  0  0  0  0  0  0  0  0  0
  -10.5000   -2.5981    0.0000 O   0  0  0  0  0  0  0  0  0  0  0  0
  -10.5000   -5.1962    0.0000 C   0  0  0  0  0  0  0  0  0  0  0  0
   -9.8899   -6.5665    0.0000 C   0  0  0  0  0  0  0  0  0  0  0  0
  -11.0046   -7.5702    0.0000 C   0  0  0  0  0  0  0  0  0  0  0  0
  -12.3037   -6.8202    0.0000 S   0  0  0  0  0  0  0  0  0  0  0  0
  -12.9138   -8.1905    0.0000 O   0  0  0  0  0  0  0  0  0  0  0  0
  -13.7302   -6.3566    0.0000 O   0  0  0  0  0  0  0  0  0  0  0  0
  -11.9918   -5.3529    0.0000 C   0  0  0  0  0  0  0  0  0  0  0  0
   -3.7500    1.2990    0.0000 C   0  0  0  0  0  0  0  0  0  0  0  0
   -5.2500    1.2990    0.0000 C   0  0  0  0  0  0  0  0  0  0  0  0
   -3.0000    2.5981    0.0000 C   0  0  0  0  0  0  0  0  0  0  0  0
   -0.7500    1.2990    0.0000 C   0  0  0  0  0  0  0  0  0  0  0  0
    0.7500    1.2990    0.0000 C   0  0  0  0  0  0  0  0  0  0  0  0
  1  2  1  0
  2  3  1  0
  3  4  1  0
  4  5  1  0
  5  6  1  0
  6  7  1  1
  7  8  1  0
  8  9  1  0
  9 10  2  0
  9 11  1  0
 11 12  1  0
 12 13  1  0
 13 14  2  0
 15 13  1  6
 15 16  1  0
 16 17  1  0
 17 18  1  0
 18 19  2  0
 18 20  2  0
 18 21  1  0
  6 22  1  0
 22 23  1  0
 22 24  1  0
  5 25  1  0
 25 26  1  0
 26  2  1  0
 21 15  1  0
M  CHG  1   5   1
M  END
>  <Compound_ID>  (1067) 
C46254876

>  <Active>  (1067) 
0.0

>  <Smiles>  (1067) 
CC1CC[NH+]([C@@H](CNC(=O)NNC(=O)[C@@H]2CCS(=O)(=O)C2)C(C)C)CC1

>  <canonical_smi>  (1067) 
CC1CC[NH+]([C@@H](CNC(=O)NNC(=O)[C@@H]2CCS(=O)(=O)C2)C(C)C)CC1

>  <Set>  (1067) 
G2 inactive

>  <Set_type>  (1067) 
Test

>  <MW>  (1067) 
389.54

>  <HBD>  (1067) 
4

>  <HBA>  (1067) 
4

>  <NRB>  (1067) 
5

>  <NR>  (1067) 
2

>  <NAR>  (1067) 
0

>  <PSA>  (1067) 
108.81

>  <Standard Type>  (1067) 
nan

>  <Standard Relation>  (1067) 
nan

>  <Standard Units>  (1067) 
nan

>  <Standard Value>  (1067) 
nan

>  <Assay ChEMBL ID>  (1067) 
nan

>  <Assay Description>  (1067) 
nan

>  <BAO Label>  (1067) 
nan

$$$$

     RDKit          2D

 29 31  0  0  0  0  0  0  0  0999 V2000
    6.3650   -5.7215    0.0000 C   0  0  0  0  0  0  0  0  0  0  0  0
    6.5218   -4.2298    0.0000 C   0  0  0  0  0  0  0  0  0  0  0  0
    5.3083   -3.3481    0.0000 N   0  0  0  0  0  0  0  0  0  0  0  0
    3.8817   -3.8116    0.0000 C   0  0  0  0  0  0  0  0  0  0  0  0
    3.4182   -5.2382    0.0000 O   0  0  0  0  0  0  0  0  0  0  0  0
    3.0000   -2.5981    0.0000 C   0  0  0  0  0  0  0  0  0  0  0  0
    1.5000   -2.5981    0.0000 C   0  0  0  0  0  0  0  0  0  0  0  0
    0.7500   -1.2990    0.0000 C   0  0  0  0  0  0  0  0  0  0  0  0
    1.5000    0.0000    0.0000 C   0  0  0  0  0  0  0  0  0  0  0  0
    0.7500    1.2990    0.0000 C   0  0  0  0  0  0  0  0  0  0  0  0
   -0.7500    1.2990    0.0000 C   0  0  0  0  0  0  0  0  0  0  0  0
   -1.5000    2.5981    0.0000 O   0  0  0  0  0  0  0  0  0  0  0  0
   -1.5000    0.0000    0.0000 C   0  0  0  0  0  0  0  0  0  0  0  0
   -3.0000    0.0000    0.0000 O   0  0  0  0  0  0  0  0  0  0  0  0
   -3.7500   -1.2990    0.0000 C   0  0  0  0  0  0  0  0  0  0  0  0
   -0.7500   -1.2990    0.0000 C   0  0  0  0  0  0  0  0  0  0  0  0
    3.8817   -1.3846    0.0000 S   0  0  0  0  0  0  0  0  0  0  0  0
    5.3083   -1.8481    0.0000 C   0  0  0  0  0  0  0  0  0  0  0  0
    6.5218   -0.9664    0.0000 N   0  0  0  0  0  0  0  0  0  0  0  0
    6.3650    0.5254    0.0000 C   0  0  0  0  0  0  0  0  0  0  0  0
    7.5785    1.4071    0.0000 C   0  0  0  0  0  0  0  0  0  0  0  0
    7.4217    2.8988    0.0000 C   0  0  0  0  0  0  0  0  0  0  0  0
    6.0514    3.5090    0.0000 C   0  0  0  0  0  0  0  0  0  0  0  0
    5.8946    5.0007    0.0000 C   0  0  0  0  0  0  0  0  0  0  0  0
    4.5243    5.6108    0.0000 O   0  0  0  0  0  0  0  0  0  0  0  0
    7.1081    5.8824    0.0000 O   0  0  0  0  0  1  0  0  0  0  0  0
    4.8379    2.6273    0.0000 C   0  0  0  0  0  0  0  0  0  0  0  0
    3.4676    3.2374    0.0000 O   0  0  0  0  0  0  0  0  0  0  0  0
    4.9947    1.1355    0.0000 C   0  0  0  0  0  0  0  0  0  0  0  0
  1  2  1  0
  2  3  1  0
  3  4  1  0
  4  5  2  0
  4  6  1  0
  6  7  2  0
  7  8  1  0
  8  9  2  0
  9 10  1  0
 10 11  2  0
 11 12  1  0
 11 13  1  0
 13 14  1  0
 14 15  1  0
 13 16  2  0
  6 17  1  0
 17 18  1  0
 18 19  2  0
 19 20  1  0
 20 21  2  0
 21 22  1  0
 22 23  2  0
 23 24  1  0
 24 25  2  0
 24 26  1  0
 23 27  1  0
 27 28  1  0
 27 29  2  0
 18  3  1  0
 29 20  1  0
 16  8  1  0
M  CHG  1  26  -1
M  END
>  <Compound_ID>  (1068) 
C16928031

>  <Active>  (1068) 
0.0

>  <Smiles>  (1068) 
CCN1C(=O)/C(=C/c2ccc(O)c(OC)c2)S/C1=N\c1ccc(C(=O)[O-])c(O)c1

>  <canonical_smi>  (1068) 
CCN1C(=O)/C(=C/c2ccc(O)c(OC)c2)S/C1=N\c1ccc(C(=O)[O-])c(O)c1

>  <Set>  (1068) 
G2 inactive

>  <Set_type>  (1068) 
Test

>  <MW>  (1068) 
413.43

>  <HBD>  (1068) 
2

>  <HBA>  (1068) 
7

>  <NRB>  (1068) 
5

>  <NR>  (1068) 
3

>  <NAR>  (1068) 
2

>  <PSA>  (1068) 
122.49

>  <Standard Type>  (1068) 
nan

>  <Standard Relation>  (1068) 
nan

>  <Standard Units>  (1068) 
nan

>  <Standard Value>  (1068) 
nan

>  <Assay ChEMBL ID>  (1068) 
nan

>  <Assay Description>  (1068) 
nan

>  <BAO Label>  (1068) 
nan

$$$$

     RDKit          2D

 21 22  0  0  0  0  0  0  0  0999 V2000
    3.0000    0.0000    0.0000 C   0  0  0  0  0  0  0  0  0  0  0  0
    1.5000    0.0000    0.0000 C   0  0  0  0  0  0  0  0  0  0  0  0
    0.7500   -1.2990    0.0000 C   0  0  0  0  0  0  0  0  0  0  0  0
   -0.7500   -1.2990    0.0000 C   0  0  0  0  0  0  0  0  0  0  0  0
   -1.5000   -2.5981    0.0000 C   0  0  0  0  0  0  0  0  0  0  0  0
   -1.5000    0.0000    0.0000 C   0  0  0  0  0  0  0  0  0  0  0  0
   -0.7500    1.2990    0.0000 C   0  0  0  0  0  0  0  0  0  0  0  0
   -1.5000    2.5981    0.0000 C   0  0  0  0  0  0  0  0  0  0  0  0
   -3.0000    2.5981    0.0000 O   0  0  0  0  0  0  0  0  0  0  0  0
   -0.7500    3.8971    0.0000 N   0  0  0  0  0  0  0  0  0  0  0  0
   -1.5000    5.1962    0.0000 C   0  0  0  0  0  0  0  0  0  0  0  0
   -0.7500    6.4952    0.0000 C   0  0  0  0  0  0  0  0  0  0  0  0
   -1.5000    7.7942    0.0000 C   0  0  0  0  0  0  0  0  0  0  0  0
   -0.7500    9.0933    0.0000 O   0  0  0  0  0  0  0  0  0  0  0  0
   -3.0000    7.7942    0.0000 N   0  0  0  0  0  0  0  0  0  0  0  0
   -3.7500    9.0933    0.0000 C   0  0  0  0  0  0  0  0  0  0  0  0
   -3.7500    6.4952    0.0000 C   0  0  0  0  0  0  0  0  0  0  0  0
   -5.2500    6.4952    0.0000 O   0  0  0  0  0  0  0  0  0  0  0  0
   -3.0000    5.1962    0.0000 N   0  0  0  0  0  0  0  0  0  0  0  0
   -3.7500    3.8971    0.0000 C   0  0  0  0  0  0  0  0  0  0  0  0
    0.7500    1.2990    0.0000 C   0  0  0  0  0  0  0  0  0  0  0  0
  1  2  1  0
  2  3  2  0
  3  4  1  0
  4  5  1  0
  4  6  2  0
  6  7  1  0
  7  8  1  0
  8  9  2  0
  8 10  1  0
 10 11  1  0
 11 12  2  0
 12 13  1  0
 13 14  2  0
 13 15  1  0
 15 16  1  0
 15 17  1  0
 17 18  2  0
 17 19  1  0
 19 20  1  0
  7 21  2  0
 21  2  1  0
 19 11  1  0
M  END
>  <Compound_ID>  (1069) 
C02711236

>  <Active>  (1069) 
0.0

>  <Smiles>  (1069) 
Cc1cc(C)cc(C(=O)Nc2cc(=O)n(C)c(=O)n2C)c1

>  <canonical_smi>  (1069) 
Cc1cc(C)cc(C(=O)Nc2cc(=O)n(C)c(=O)n2C)c1

>  <Set>  (1069) 
G2 inactive

>  <Set_type>  (1069) 
Test

>  <MW>  (1069) 
287.32

>  <HBD>  (1069) 
1

>  <HBA>  (1069) 
3

>  <NRB>  (1069) 
2

>  <NR>  (1069) 
2

>  <NAR>  (1069) 
2

>  <PSA>  (1069) 
73.1

>  <Standard Type>  (1069) 
nan

>  <Standard Relation>  (1069) 
nan

>  <Standard Units>  (1069) 
nan

>  <Standard Value>  (1069) 
nan

>  <Assay ChEMBL ID>  (1069) 
nan

>  <Assay Description>  (1069) 
nan

>  <BAO Label>  (1069) 
nan

$$$$

     RDKit          2D

 20 21  0  0  0  0  0  0  0  0999 V2000
    0.7500   -6.4952    0.0000 C   0  0  0  0  0  0  0  0  0  0  0  0
    1.5000   -5.1962    0.0000 C   0  0  0  0  0  0  0  0  0  0  0  0
    0.7500   -3.8971    0.0000 C   0  0  0  0  0  0  0  0  0  0  0  0
    1.5000   -2.5981    0.0000 N   0  0  0  0  0  0  0  0  0  0  0  0
    0.7500   -1.2990    0.0000 C   0  0  0  0  0  0  0  0  0  0  0  0
    1.5000    0.0000    0.0000 C   0  0  0  0  0  0  0  0  0  0  0  0
    0.7500    1.2990    0.0000 C   0  0  0  0  0  0  0  0  0  0  0  0
    1.5000    2.5981    0.0000 O   0  0  0  0  0  0  0  0  0  0  0  0
    3.0000    2.5981    0.0000 C   0  0  0  0  0  0  0  0  0  0  0  0
   -0.7500    1.2990    0.0000 C   0  0  0  0  0  0  0  0  0  0  0  0
   -1.5000    2.5981    0.0000 O   0  0  0  0  0  0  0  0  0  0  0  0
   -3.0000    2.5981    0.0000 C   0  0  0  0  0  0  0  0  0  0  0  0
   -1.5000    0.0000    0.0000 C   0  0  0  0  0  0  0  0  0  0  0  0
   -0.7500   -1.2990    0.0000 C   0  0  0  0  0  0  0  0  0  0  0  0
   -1.5000   -2.5981    0.0000 N   0  0  0  0  0  0  0  0  0  0  0  0
   -3.0000   -2.5981    0.0000 C   0  0  0  0  0  0  0  0  0  0  0  0
   -3.7500   -1.2990    0.0000 C   0  0  0  0  0  0  0  0  0  0  0  0
   -4.5000    0.0000    0.0000 N   0  0  0  0  0  0  0  0  0  0  0  0
   -0.7500   -3.8971    0.0000 C   0  0  0  0  0  0  0  0  0  0  0  0
   -1.5000   -5.1962    0.0000 O   0  0  0  0  0  0  0  0  0  0  0  0
  1  2  1  0
  3  2  1  6
  3  4  1  0
  4  5  1  0
  5  6  2  0
  6  7  1  0
  7  8  1  0
  8  9  1  0
  7 10  2  0
 10 11  1  0
 11 12  1  0
 10 13  1  0
 13 14  2  0
 14 15  1  0
 15 16  1  0
 16 17  1  0
 17 18  3  0
 15 19  1  0
 19 20  2  0
 19  3  1  0
 14  5  1  0
M  END
>  <Compound_ID>  (1070) 
C57932329

>  <Active>  (1070) 
0.0

>  <Smiles>  (1070) 
CC[C@H]1Nc2cc(OC)c(OC)cc2N(CC#N)C1=O

>  <canonical_smi>  (1070) 
CC[C@H]1Nc2cc(OC)c(OC)cc2N(CC#N)C1=O

>  <Set>  (1070) 
G2 inactive

>  <Set_type>  (1070) 
Test

>  <MW>  (1070) 
275.31

>  <HBD>  (1070) 
1

>  <HBA>  (1070) 
5

>  <NRB>  (1070) 
4

>  <NR>  (1070) 
2

>  <NAR>  (1070) 
1

>  <PSA>  (1070) 
74.59

>  <Standard Type>  (1070) 
nan

>  <Standard Relation>  (1070) 
nan

>  <Standard Units>  (1070) 
nan

>  <Standard Value>  (1070) 
nan

>  <Assay ChEMBL ID>  (1070) 
nan

>  <Assay Description>  (1070) 
nan

>  <BAO Label>  (1070) 
nan

$$$$

     RDKit          2D

 21 25  0  0  0  0  0  0  0  0999 V2000
    0.8050    6.0661    0.0000 C   0  0  0  0  0  0  0  0  0  0  0  0
   -0.4086    5.1844    0.0000 C   0  0  0  0  0  0  0  0  0  0  0  0
   -1.8351    5.6480    0.0000 N   0  0  0  0  0  0  0  0  0  0  0  0
   -2.7168    4.4344    0.0000 O   0  0  0  0  0  0  0  0  0  0  0  0
   -1.8351    3.2209    0.0000 C   0  0  0  0  0  0  0  0  0  0  0  0
   -2.1470    1.7537    0.0000 N   0  0  0  0  0  0  0  0  0  0  0  0
   -1.0323    0.7500    0.0000 C   0  0  0  0  0  0  0  0  0  0  0  0
    0.3943    1.2135    0.0000 C   0  0  0  0  0  0  0  0  0  0  0  0
    0.7062    2.6807    0.0000 C   0  0  0  0  0  0  0  0  0  0  0  0
    2.1328    3.1443    0.0000 C   0  0  0  0  0  0  0  0  0  0  0  0
    2.5963    4.5709    0.0000 N   0  0  0  0  0  0  0  0  0  0  0  0
    4.0963    4.5709    0.0000 C   0  0  0  0  0  0  0  0  0  0  0  0
    4.9780    5.7844    0.0000 C   0  0  0  0  0  0  0  0  0  0  0  0
    5.1347    7.2762    0.0000 C   0  0  0  0  0  0  0  0  0  0  0  0
    6.3483    6.3945    0.0000 C   0  0  0  0  0  0  0  0  0  0  0  0
    4.5598    3.1443    0.0000 N   0  0  0  0  0  0  0  0  0  0  0  0
    3.3463    2.2626    0.0000 N   0  0  0  0  0  0  0  0  0  0  0  0
   -0.4086    3.6844    0.0000 C   0  0  0  0  0  0  0  0  0  0  0  0
    1.2760    0.0000    0.0000 C   0  0  0  0  0  0  0  0  0  0  0  0
    0.3943   -1.2135    0.0000 C   0  0  0  0  0  0  0  0  0  0  0  0
   -1.0323   -0.7500    0.0000 C   0  0  0  0  0  0  0  0  0  0  0  0
  1  2  1  0
  2  3  2  0
  3  4  1  0
  4  5  1  0
  5  6  2  0
  6  7  1  0
  7  8  2  0
  8  9  1  0
  9 10  1  0
 10 11  2  0
 11 12  1  0
 12 13  1  0
 13 14  1  0
 14 15  1  0
 12 16  2  0
 16 17  1  0
  9 18  2  0
  8 19  1  0
 19 20  1  0
 20 21  1  0
 18  2  1  0
 18  5  1  0
 21  7  1  0
 17 10  1  0
 15 13  1  0
M  END
>  <Compound_ID>  (1071) 
C65495255

>  <Active>  (1071) 
0.0

>  <Smiles>  (1071) 
Cc1noc2nc3c(c(-c4nc(C5CC5)n[nH]4)c12)CCC3

>  <canonical_smi>  (1071) 
Cc1noc2nc3c(c(-c4nc(C5CC5)n[nH]4)c12)CCC3

>  <Set>  (1071) 
G2 inactive

>  <Set_type>  (1071) 
Test

>  <MW>  (1071) 
281.32

>  <HBD>  (1071) 
1

>  <HBA>  (1071) 
5

>  <NRB>  (1071) 
2

>  <NR>  (1071) 
5

>  <NAR>  (1071) 
3

>  <PSA>  (1071) 
80.49

>  <Standard Type>  (1071) 
nan

>  <Standard Relation>  (1071) 
nan

>  <Standard Units>  (1071) 
nan

>  <Standard Value>  (1071) 
nan

>  <Assay ChEMBL ID>  (1071) 
nan

>  <Assay Description>  (1071) 
nan

>  <BAO Label>  (1071) 
nan

$$$$

     RDKit          2D

 22 23  0  0  0  0  0  0  0  0999 V2000
    3.7500   -3.8971    0.0000 C   0  0  0  0  0  0  0  0  0  0  0  0
    3.0000   -2.5981    0.0000 C   0  0  0  0  0  0  0  0  0  0  0  0
    1.5000   -2.5981    0.0000 C   0  0  0  0  0  0  0  0  0  0  0  0
    0.7500   -1.2990    0.0000 C   0  0  0  0  0  0  0  0  0  0  0  0
    1.5000    0.0000    0.0000 C   0  0  0  0  0  0  0  0  0  0  0  0
    0.7500    1.2990    0.0000 C   0  0  0  0  0  0  0  0  0  0  0  0
   -0.7500    1.2990    0.0000 C   0  0  0  0  0  0  0  0  0  0  0  0
   -1.5000    0.0000    0.0000 C   0  0  0  0  0  0  0  0  0  0  0  0
   -0.7500   -1.2990    0.0000 C   0  0  0  0  0  0  0  0  0  0  0  0
    3.7500   -1.2990    0.0000 C   0  0  0  0  0  0  0  0  0  0  0  0
    5.2500   -1.2990    0.0000 N   0  0  0  0  0  0  0  0  0  0  0  0
    6.0000   -0.0000    0.0000 N   0  0  0  0  0  0  0  0  0  0  0  0
    7.5000   -0.0000    0.0000 C   0  0  0  0  0  0  0  0  0  0  0  0
    5.2500    1.2990    0.0000 C   0  0  0  0  0  0  0  0  0  0  0  0
    6.0000    2.5981    0.0000 C   0  0  0  0  0  0  0  0  0  0  0  0
    5.2500    3.8971    0.0000 C   0  0  0  0  0  0  0  0  0  0  0  0
    6.0000    5.1962    0.0000 O   0  0  0  0  0  0  0  0  0  0  0  0
    3.7500    3.8971    0.0000 N   0  0  0  0  0  0  0  0  0  0  0  0
    3.0000    5.1962    0.0000 C   0  0  0  0  0  0  0  0  0  0  0  0
    3.0000    2.5981    0.0000 C   0  0  0  0  0  0  0  0  0  0  0  0
    1.5000    2.5981    0.0000 O   0  0  0  0  0  0  0  0  0  0  0  0
    3.7500    1.2990    0.0000 N   0  0  0  0  0  0  0  0  0  0  0  0
  1  2  1  0
  2  3  2  0
  3  4  1  0
  4  5  2  0
  5  6  1  0
  6  7  2  0
  7  8  1  0
  8  9  2  0
  2 10  1  0
 10 11  2  0
 11 12  1  0
 12 13  1  0
 12 14  1  0
 14 15  2  0
 15 16  1  0
 16 17  2  0
 16 18  1  0
 18 19  1  0
 18 20  1  0
 20 21  2  0
 20 22  1  0
  9  4  1  0
 22 14  1  0
M  END
>  <Compound_ID>  (1072) 
C04703181

>  <Active>  (1072) 
0.0

>  <Smiles>  (1072) 
CC(=C/c1ccccc1)/C=N/N(C)c1cc(=O)n(C)c(=O)[nH]1

>  <canonical_smi>  (1072) 
CC(=C/c1ccccc1)/C=N/N(C)c1cc(=O)n(C)c(=O)[nH]1

>  <Set>  (1072) 
G2 inactive

>  <Set_type>  (1072) 
Test

>  <MW>  (1072) 
298.35

>  <HBD>  (1072) 
1

>  <HBA>  (1072) 
3

>  <NRB>  (1072) 
4

>  <NR>  (1072) 
2

>  <NAR>  (1072) 
2

>  <PSA>  (1072) 
70.46

>  <Standard Type>  (1072) 
nan

>  <Standard Relation>  (1072) 
nan

>  <Standard Units>  (1072) 
nan

>  <Standard Value>  (1072) 
nan

>  <Assay ChEMBL ID>  (1072) 
nan

>  <Assay Description>  (1072) 
nan

>  <BAO Label>  (1072) 
nan

$$$$

     RDKit          2D

 32 35  0  0  0  0  0  0  0  0999 V2000
    3.7156    7.2317    0.0000 C   0  0  0  0  0  0  0  0  0  0  0  0
    2.2484    6.9199    0.0000 C   0  0  0  0  0  0  0  0  0  0  0  0
    1.2447    8.0346    0.0000 C   0  0  0  0  0  0  0  0  0  0  0  0
    1.7849    5.4933    0.0000 C   0  0  0  0  0  0  0  0  0  0  0  0
    2.7886    4.3786    0.0000 C   0  0  0  0  0  0  0  0  0  0  0  0
    2.3250    2.9520    0.0000 C   0  0  0  0  0  0  0  0  0  0  0  0
    0.8578    2.6401    0.0000 C   0  0  0  0  0  0  0  0  0  0  0  0
    0.3943    1.2135    0.0000 N   0  0  0  0  0  0  0  0  0  0  0  0
    1.2760    0.0000    0.0000 C   0  0  0  0  0  0  0  0  0  0  0  0
    2.7760    0.0000    0.0000 S   0  0  0  0  0  0  0  0  0  0  0  0
    0.3943   -1.2135    0.0000 N   0  0  0  0  0  0  0  0  0  0  0  0
   -1.0323   -0.7500    0.0000 C   0  0  0  0  0  0  0  0  0  0  0  0
   -2.3313   -1.5000    0.0000 C   0  0  0  0  0  0  0  0  0  0  0  0
   -2.3313   -3.0000    0.0000 O   0  0  0  0  0  0  0  0  0  0  0  0
   -3.6304   -0.7500    0.0000 C   0  0  0  0  0  0  0  0  0  0  0  0
   -4.9294   -1.5000    0.0000 O   0  0  0  0  0  0  0  0  0  0  0  0
   -3.6304    0.7500    0.0000 C   0  0  0  0  0  0  0  0  0  0  0  0
   -2.3313    1.5000    0.0000 C   0  0  0  0  0  0  0  0  0  0  0  0
   -2.3313    3.0000    0.0000 C   0  0  0  0  0  0  0  0  0  0  0  0
   -1.0323    3.7500    0.0000 O   0  0  0  0  0  0  0  0  0  0  0  0
   -3.6304    3.7500    0.0000 N   0  0  0  0  0  0  0  0  0  0  0  0
   -3.6304    5.2500    0.0000 C   0  0  0  0  0  0  0  0  0  0  0  0
   -4.9294    6.0000    0.0000 C   0  0  0  0  0  0  0  0  0  0  0  0
   -4.9294    7.5000    0.0000 N   0  0  0  0  0  0  0  0  0  0  0  0
   -3.6304    8.2500    0.0000 C   0  0  0  0  0  0  0  0  0  0  0  0
   -3.6304    9.7500    0.0000 C   0  0  0  0  0  0  0  0  0  0  0  0
   -4.9294   10.5000    0.0000 O   0  0  0  0  0  0  0  0  0  0  0  0
   -6.2284    9.7500    0.0000 C   0  0  0  0  0  0  0  0  0  0  0  0
   -6.2284    8.2500    0.0000 C   0  0  0  0  0  0  0  0  0  0  0  0
   -1.0323    0.7500    0.0000 C   0  0  0  0  0  0  0  0  0  0  0  0
   -0.1459    3.7548    0.0000 C   0  0  0  0  0  0  0  0  0  0  0  0
    0.3177    5.1814    0.0000 C   0  0  0  0  0  0  0  0  0  0  0  0
  1  2  1  0
  2  3  1  0
  2  4  1  0
  4  5  2  0
  5  6  1  0
  6  7  2  0
  7  8  1  0
  8  9  1  0
  9 10  2  0
  9 11  1  0
 12 11  1  1
 12 13  1  0
 13 14  1  1
 13 15  1  0
 15 16  1  6
 15 17  1  0
 17 18  1  0
 18 19  1  1
 19 20  2  0
 19 21  1  0
 21 22  1  0
 22 23  1  0
 23 24  1  0
 24 25  1  0
 25 26  1  0
 26 27  1  0
 27 28  1  0
 28 29  1  0
 18 30  1  0
  7 31  1  0
 31 32  2  0
 32  4  1  0
 30  8  1  1
 30 12  1  0
 29 24  1  0
M  END
>  <Compound_ID>  (1073) 
C20504112

>  <Active>  (1073) 
0.0

>  <Smiles>  (1073) 
CC(C)c1ccc(N2C(=S)N[C@H]3[C@@H](O)[C@H](O)C[C@@H](C(=O)NCCN4CCOCC4)[C@H]32)cc1

>  <canonical_smi>  (1073) 
CC(C)c1ccc(N2C(=S)N[C@H]3[C@@H](O)[C@H](O)C[C@@H](C(=O)NCCN4CCOCC4)[C@H]32)cc1

>  <Set>  (1073) 
G2 inactive

>  <Set_type>  (1073) 
Test

>  <MW>  (1073) 
462.62

>  <HBD>  (1073) 
4

>  <HBA>  (1073) 
8

>  <NRB>  (1073) 
6

>  <NR>  (1073) 
4

>  <NAR>  (1073) 
1

>  <PSA>  (1073) 
97.3

>  <Standard Type>  (1073) 
nan

>  <Standard Relation>  (1073) 
nan

>  <Standard Units>  (1073) 
nan

>  <Standard Value>  (1073) 
nan

>  <Assay ChEMBL ID>  (1073) 
nan

>  <Assay Description>  (1073) 
nan

>  <BAO Label>  (1073) 
nan

$$$$

     RDKit          2D

 24 26  0  0  0  0  0  0  0  0999 V2000
    5.1443   -9.3075    0.0000 O   0  0  0  0  0  0  0  0  0  0  0  0
    3.7740   -8.6974    0.0000 C   0  0  0  0  0  0  0  0  0  0  0  0
    3.6172   -7.2057    0.0000 N   0  0  0  0  0  0  0  0  0  0  0  0
    4.8308   -6.3240    0.0000 N   0  0  0  0  0  0  0  0  0  0  0  0
    4.6740   -4.8322    0.0000 C   0  0  0  0  0  0  0  0  0  0  0  0
    3.3037   -4.2221    0.0000 C   0  0  0  0  0  0  0  0  0  0  0  0
    2.0046   -4.9721    0.0000 C   0  0  0  0  0  0  0  0  0  0  0  0
    0.8899   -3.9684    0.0000 C   0  0  0  0  0  0  0  0  0  0  0  0
    1.5000   -2.5981    0.0000 C   0  0  0  0  0  0  0  0  0  0  0  0
    0.7500   -1.2990    0.0000 C   0  0  0  0  0  0  0  0  0  0  0  0
    1.5000    0.0000    0.0000 C   0  0  0  0  0  0  0  0  0  0  0  0
    0.7500    1.2990    0.0000 C   0  0  0  0  0  0  0  0  0  0  0  0
   -0.7500    1.2990    0.0000 C   0  0  0  0  0  0  0  0  0  0  0  0
   -1.5000    0.0000    0.0000 C   0  0  0  0  0  0  0  0  0  0  0  0
   -3.0000    0.0000    0.0000 Cl  0  0  0  0  0  0  0  0  0  0  0  0
   -0.7500   -1.2990    0.0000 C   0  0  0  0  0  0  0  0  0  0  0  0
   -1.5000   -2.5981    0.0000 Cl  0  0  0  0  0  0  0  0  0  0  0  0
    2.9918   -2.7549    0.0000 O   0  0  0  0  0  0  0  0  0  0  0  0
    2.5605   -9.5791    0.0000 C   0  0  0  0  0  0  0  0  0  0  0  0
    1.1902   -8.9690    0.0000 C   0  0  0  0  0  0  0  0  0  0  0  0
   -0.0233   -9.8507    0.0000 N   0  0  0  0  0  0  0  0  0  0  0  0
    0.1335  -11.3425    0.0000 C   0  0  0  0  0  0  0  0  0  0  0  0
    1.5038  -11.9526    0.0000 C   0  0  0  0  0  0  0  0  0  0  0  0
    2.7173  -11.0709    0.0000 N   0  0  0  0  0  0  0  0  0  0  0  0
  1  2  2  0
  2  3  1  0
  3  4  1  0
  4  5  2  0
  5  6  1  0
  6  7  2  0
  7  8  1  0
  8  9  2  0
  9 10  1  0
 10 11  2  0
 11 12  1  0
 12 13  2  0
 13 14  1  0
 14 15  1  0
 14 16  2  0
 16 17  1  0
  9 18  1  0
  2 19  1  0
 19 20  2  0
 20 21  1  0
 21 22  2  0
 22 23  1  0
 23 24  2  0
 18  6  1  0
 24 19  1  0
 16 10  1  0
M  END
>  <Compound_ID>  (1074) 
C67194087

>  <Active>  (1074) 
0.0

>  <Smiles>  (1074) 
O=C(N/N=C\c1ccc(-c2cccc(Cl)c2Cl)o1)c1cnccn1

>  <canonical_smi>  (1074) 
O=C(N/N=C\c1ccc(-c2cccc(Cl)c2Cl)o1)c1cnccn1

>  <Set>  (1074) 
G2 inactive

>  <Set_type>  (1074) 
Test

>  <MW>  (1074) 
361.19

>  <HBD>  (1074) 
1

>  <HBA>  (1074) 
4

>  <NRB>  (1074) 
4

>  <NR>  (1074) 
3

>  <NAR>  (1074) 
3

>  <PSA>  (1074) 
80.38

>  <Standard Type>  (1074) 
nan

>  <Standard Relation>  (1074) 
nan

>  <Standard Units>  (1074) 
nan

>  <Standard Value>  (1074) 
nan

>  <Assay ChEMBL ID>  (1074) 
nan

>  <Assay Description>  (1074) 
nan

>  <BAO Label>  (1074) 
nan

$$$$

     RDKit          2D

 19 20  0  0  0  0  0  0  0  0999 V2000
    1.5000  -10.3923    0.0000 C   0  0  0  0  0  0  0  0  0  0  0  0
    0.7500   -9.0933    0.0000 C   0  0  0  0  0  0  0  0  0  0  0  0
   -0.7500   -9.0933    0.0000 C   0  0  0  0  0  0  0  0  0  0  0  0
    1.5000   -7.7942    0.0000 C   0  0  0  0  0  0  0  0  0  0  0  0
    0.7500   -6.4952    0.0000 C   0  0  0  0  0  0  0  0  0  0  0  0
    1.5000   -5.1962    0.0000 N   0  0  0  0  0  0  0  0  0  0  0  0
    3.0000   -5.1962    0.0000 C   0  0  0  0  0  0  0  0  0  0  0  0
    0.7500   -3.8971    0.0000 C   0  0  0  0  0  0  0  0  0  0  0  0
    1.5000   -2.5981    0.0000 C   0  0  0  0  0  0  0  0  0  0  0  0
    0.7500   -1.2990    0.0000 C   0  0  0  0  0  0  0  0  0  0  0  0
    1.5000    0.0000    0.0000 N   0  0  0  0  0  0  0  0  0  0  0  0
    0.7500    1.2990    0.0000 C   0  0  0  0  0  0  0  0  0  0  0  0
   -0.7500    1.2990    0.0000 N   0  0  0  0  0  0  0  0  0  0  0  0
   -1.5000    0.0000    0.0000 C   0  0  0  0  0  0  0  0  0  0  0  0
   -3.0000    0.0000    0.0000 O   0  0  0  0  0  0  0  0  0  0  0  0
   -0.7500   -1.2990    0.0000 C   0  0  0  0  0  0  0  0  0  0  0  0
   -1.5000   -2.5981    0.0000 C   0  0  0  0  0  0  0  0  0  0  0  0
   -0.7500   -3.8971    0.0000 C   0  0  0  0  0  0  0  0  0  0  0  0
   -1.5000   -5.1962    0.0000 N   0  0  0  0  0  0  0  0  0  0  0  0
  1  2  1  0
  2  3  1  0
  2  4  1  0
  4  5  1  0
  5  6  1  0
  6  7  1  0
  6  8  1  0
  8  9  2  0
  9 10  1  0
 10 11  1  0
 11 12  2  0
 12 13  1  0
 13 14  1  0
 14 15  2  0
 14 16  1  0
 16 17  1  0
 17 18  2  0
 18 19  1  0
 18  8  1  0
 16 10  2  0
M  END
>  <Compound_ID>  (1075) 
C48923282

>  <Active>  (1075) 
0.0

>  <Smiles>  (1075) 
CC(C)CCN(C)c1cc2nc[nH]c(=O)c2cc1N

>  <canonical_smi>  (1075) 
CC(C)CCN(C)c1cc2nc[nH]c(=O)c2cc1N

>  <Set>  (1075) 
G2 inactive

>  <Set_type>  (1075) 
Test

>  <MW>  (1075) 
260.34

>  <HBD>  (1075) 
2

>  <HBA>  (1075) 
4

>  <NRB>  (1075) 
4

>  <NR>  (1075) 
2

>  <NAR>  (1075) 
2

>  <PSA>  (1075) 
75.01

>  <Standard Type>  (1075) 
nan

>  <Standard Relation>  (1075) 
nan

>  <Standard Units>  (1075) 
nan

>  <Standard Value>  (1075) 
nan

>  <Assay ChEMBL ID>  (1075) 
nan

>  <Assay Description>  (1075) 
nan

>  <BAO Label>  (1075) 
nan

$$$$

     RDKit          2D

 19 20  0  0  0  0  0  0  0  0999 V2000
    5.2500   -1.2990    0.0000 C   0  0  0  0  0  0  0  0  0  0  0  0
    3.7500   -1.2990    0.0000 C   0  0  0  0  0  0  0  0  0  0  0  0
    3.0000    0.0000    0.0000 C   0  0  0  0  0  0  0  0  0  0  0  0
    1.5000    0.0000    0.0000 C   0  0  0  0  0  0  0  0  0  0  0  0
    0.7500   -1.2990    0.0000 C   0  0  0  0  0  0  0  0  0  0  0  0
    1.5000   -2.5981    0.0000 C   0  0  0  0  0  0  0  0  0  0  0  0
   -0.7500   -1.2990    0.0000 N   0  0  0  0  0  0  0  0  0  0  0  0
   -1.5000    0.0000    0.0000 C   0  0  0  0  0  0  0  0  0  0  0  0
   -3.0000    0.0000    0.0000 N   0  0  0  0  0  0  0  0  0  0  0  0
   -3.7500    1.2990    0.0000 C   0  0  0  0  0  0  0  0  0  0  0  0
   -3.0000    2.5981    0.0000 C   0  0  0  0  0  0  0  0  0  0  0  0
   -3.7500    3.8971    0.0000 C   0  0  0  0  0  0  0  0  0  0  0  0
   -5.2500    3.8971    0.0000 C   0  0  0  0  0  0  0  0  0  0  0  0
   -6.0000    5.1962    0.0000 C   0  0  0  0  0  0  0  0  0  0  0  0
   -6.0000    2.5981    0.0000 C   0  0  0  0  0  0  0  0  0  0  0  0
   -5.2500    1.2990    0.0000 N   0  0  0  0  0  0  0  0  0  0  0  0
   -0.7500    1.2990    0.0000 N   0  0  0  0  0  0  0  0  0  0  0  0
    0.7500    1.2990    0.0000 C   0  0  0  0  0  0  0  0  0  0  0  0
    1.5000    2.5981    0.0000 O   0  0  0  0  0  0  0  0  0  0  0  0
  1  2  1  0
  2  3  1  0
  3  4  1  0
  4  5  2  0
  5  6  1  0
  5  7  1  0
  7  8  2  0
  8  9  1  0
  9 10  1  0
 10 11  2  0
 11 12  1  0
 12 13  2  0
 13 14  1  0
 13 15  1  0
 15 16  2  0
  8 17  1  0
 17 18  1  0
 18 19  2  0
 18  4  1  0
 16 10  1  0
M  END
>  <Compound_ID>  (1076) 
C16808587

>  <Active>  (1076) 
0.0

>  <Smiles>  (1076) 
CCCc1c(C)nc(Nc2ccc(C)cn2)[nH]c1=O

>  <canonical_smi>  (1076) 
CCCc1c(C)nc(Nc2ccc(C)cn2)[nH]c1=O

>  <Set>  (1076) 
G2 inactive

>  <Set_type>  (1076) 
Test

>  <MW>  (1076) 
258.32

>  <HBD>  (1076) 
2

>  <HBA>  (1076) 
4

>  <NRB>  (1076) 
4

>  <NR>  (1076) 
2

>  <NAR>  (1076) 
2

>  <PSA>  (1076) 
70.67

>  <Standard Type>  (1076) 
nan

>  <Standard Relation>  (1076) 
nan

>  <Standard Units>  (1076) 
nan

>  <Standard Value>  (1076) 
nan

>  <Assay ChEMBL ID>  (1076) 
nan

>  <Assay Description>  (1076) 
nan

>  <BAO Label>  (1076) 
nan

$$$$

     RDKit          2D

 12 12  0  0  0  0  0  0  0  0999 V2000
    2.7760    0.0000    0.0000 C   0  0  0  0  0  0  0  0  0  0  0  0
    1.2760    0.0000    0.0000 C   0  0  0  0  0  0  0  0  0  0  0  0
    0.3943    1.2135    0.0000 C   0  0  0  0  0  0  0  0  0  0  0  0
   -1.0323    0.7500    0.0000 O   0  0  0  0  0  0  0  0  0  0  0  0
   -1.0323   -0.7500    0.0000 C   0  0  0  0  0  0  0  0  0  0  0  0
   -2.2458   -1.6317    0.0000 O   0  0  0  0  0  0  0  0  0  0  0  0
   -3.6161   -1.0216    0.0000 C   0  0  0  0  0  0  0  0  0  0  0  0
    0.3943   -1.2135    0.0000 C   0  0  0  0  0  0  0  0  0  0  0  0
    1.6933   -1.9635    0.0000 C   0  0  0  0  0  0  0  0  0  0  0  0
   -0.2158   -2.5838    0.0000 C   0  0  0  0  0  0  0  0  0  0  0  0
   -1.7076   -2.7406    0.0000 C   0  0  0  0  0  0  0  0  0  0  0  0
    0.6659   -3.7974    0.0000 O   0  0  0  0  0  0  0  0  0  0  0  0
  1  2  2  0
  2  3  1  0
  3  4  1  0
  4  5  1  0
  5  6  1  6
  6  7  1  0
  5  8  1  0
  8  9  1  1
  8 10  1  0
 10 11  1  0
 10 12  2  0
  8  2  1  0
M  END
>  <Compound_ID>  (1077) 
C39072651

>  <Active>  (1077) 
0.0

>  <Smiles>  (1077) 
C=C1CO[C@@H](OC)[C@@]1(C)C(C)=O

>  <canonical_smi>  (1077) 
C=C1CO[C@@H](OC)[C@@]1(C)C(C)=O

>  <Set>  (1077) 
G2 inactive

>  <Set_type>  (1077) 
Test

>  <MW>  (1077) 
170.21

>  <HBD>  (1077) 
0

>  <HBA>  (1077) 
3

>  <NRB>  (1077) 
2

>  <NR>  (1077) 
1

>  <NAR>  (1077) 
0

>  <PSA>  (1077) 
35.53

>  <Standard Type>  (1077) 
nan

>  <Standard Relation>  (1077) 
nan

>  <Standard Units>  (1077) 
nan

>  <Standard Value>  (1077) 
nan

>  <Assay ChEMBL ID>  (1077) 
nan

>  <Assay Description>  (1077) 
nan

>  <BAO Label>  (1077) 
nan

$$$$

     RDKit          2D

 35 39  0  0  0  0  0  0  0  0999 V2000
   -5.1814   -2.6490    0.0000 C   0  0  0  0  0  0  0  0  0  0  0  0
   -3.7548   -2.1855    0.0000 C   0  0  0  0  0  0  0  0  0  0  0  0
   -3.4430   -0.7182    0.0000 O   0  0  0  0  0  0  0  0  0  0  0  0
   -2.6401   -3.1891    0.0000 N   0  0  0  0  0  0  0  0  0  0  0  0
   -1.2135   -2.7256    0.0000 C   0  0  0  0  0  0  0  0  0  0  0  0
   -0.0000   -3.6073    0.0000 C   0  0  0  0  0  0  0  0  0  0  0  0
    1.2135   -2.7256    0.0000 N   0  0  0  0  0  0  0  0  0  0  0  0
    0.7500   -1.2990    0.0000 C   0  0  0  0  0  0  0  0  0  0  0  0
    1.5000    0.0000    0.0000 C   0  0  0  0  0  0  0  0  0  0  0  0
    0.7500    1.2990    0.0000 C   0  0  0  0  0  0  0  0  0  0  0  0
   -0.7500    1.2990    0.0000 C   0  0  0  0  0  0  0  0  0  0  0  0
   -1.5000    2.5981    0.0000 F   0  0  0  0  0  0  0  0  0  0  0  0
   -1.5000    0.0000    0.0000 C   0  0  0  0  0  0  0  0  0  0  0  0
   -0.7500   -1.2990    0.0000 C   0  0  0  0  0  0  0  0  0  0  0  0
    2.5838   -3.3357    0.0000 C   0  0  0  0  0  0  0  0  0  0  0  0
    2.7406   -4.8275    0.0000 C   0  0  0  0  0  0  0  0  0  0  0  0
    3.3982   -6.1757    0.0000 C   0  0  0  0  0  0  0  0  0  0  0  0
    4.1825   -4.4141    0.0000 C   0  0  0  0  0  0  0  0  0  0  0  0
    4.5454   -2.9586    0.0000 O   0  0  0  0  0  0  0  0  0  0  0  0
    5.2615   -5.4560    0.0000 N   0  0  0  0  0  0  0  0  0  0  0  0
    6.7034   -5.0426    0.0000 C   0  0  0  0  0  0  0  0  0  0  0  0
    7.2165   -3.6330    0.0000 C   0  0  0  0  0  0  0  0  0  0  0  0
    8.7155   -3.6854    0.0000 C   0  0  0  0  0  0  0  0  0  0  0  0
    9.1290   -5.1273    0.0000 C   0  0  0  0  0  0  0  0  0  0  0  0
    7.8854   -5.9661    0.0000 C   0  0  0  0  0  0  0  0  0  0  0  0
    1.5271   -5.7092    0.0000 N   0  0  0  0  0  0  0  0  0  0  0  0
    1.6839   -7.2010    0.0000 C   0  0  0  0  0  0  0  0  0  0  0  0
    0.4704   -8.0826    0.0000 C   0  0  0  0  0  0  0  0  0  0  0  0
    0.6272   -9.5744    0.0000 C   0  0  0  0  0  0  0  0  0  0  0  0
    1.9975  -10.1845    0.0000 C   0  0  0  0  0  0  0  0  0  0  0  0
    2.1543  -11.6763    0.0000 C   0  0  0  0  0  0  0  0  0  0  0  0
    3.2110   -9.3029    0.0000 C   0  0  0  0  0  0  0  0  0  0  0  0
    3.0542   -7.8111    0.0000 C   0  0  0  0  0  0  0  0  0  0  0  0
    0.1568   -5.0991    0.0000 C   0  0  0  0  0  0  0  0  0  0  0  0
   -1.0567   -5.9808    0.0000 O   0  0  0  0  0  0  0  0  0  0  0  0
  1  2  1  0
  2  3  2  0
  2  4  1  0
  4  5  1  0
  5  6  2  0
  6  7  1  0
  7  8  1  0
  8  9  2  0
  9 10  1  0
 10 11  2  0
 11 12  1  0
 11 13  1  0
 13 14  2  0
  7 15  1  0
 15 16  1  0
 16 17  1  1
 16 18  1  0
 18 19  2  0
 18 20  1  0
 20 21  1  0
 21 22  1  0
 22 23  1  0
 23 24  1  0
 24 25  1  0
 16 26  1  0
 26 27  1  0
 27 28  1  0
 28 29  1  0
 29 30  1  0
 30 31  1  0
 30 32  1  0
 32 33  1  0
 26 34  1  0
 34 35  2  0
 14  5  1  0
 25 21  1  0
 33 27  1  0
 34  6  1  0
 14  8  1  0
M  END
>  <Compound_ID>  (1078) 
C21866487

>  <Active>  (1078) 
0.0

>  <Smiles>  (1078) 
CC(=O)Nc1c2n(c3ccc(F)cc13)C[C@](C)(C(=O)NC1CCCC1)N(C1CCC(C)CC1)C2=O

>  <canonical_smi>  (1078) 
CC(=O)Nc1c2n(c3ccc(F)cc13)C[C@](C)(C(=O)NC1CCCC1)N(C1CCC(C)CC1)C2=O

>  <Set>  (1078) 
G2 inactive

>  <Set_type>  (1078) 
Test

>  <MW>  (1078) 
482.6

>  <HBD>  (1078) 
2

>  <HBA>  (1078) 
3

>  <NRB>  (1078) 
4

>  <NR>  (1078) 
5

>  <NAR>  (1078) 
2

>  <PSA>  (1078) 
83.44

>  <Standard Type>  (1078) 
nan

>  <Standard Relation>  (1078) 
nan

>  <Standard Units>  (1078) 
nan

>  <Standard Value>  (1078) 
nan

>  <Assay ChEMBL ID>  (1078) 
nan

>  <Assay Description>  (1078) 
nan

>  <BAO Label>  (1078) 
nan

$$$$

     RDKit          2D

 24 26  0  0  0  0  0  0  0  0999 V2000
   -6.0000   -5.1962    0.0000 C   0  0  0  0  0  0  0  0  0  0  0  0
   -5.2500   -6.4952    0.0000 C   0  0  0  0  0  0  0  0  0  0  0  0
   -3.7500   -6.4952    0.0000 N   0  0  0  0  0  0  0  0  0  0  0  0
   -3.0000   -5.1962    0.0000 N   0  0  0  0  0  0  0  0  0  0  0  0
   -1.5000   -5.1962    0.0000 C   0  0  0  0  0  0  0  0  0  0  0  0
   -0.7500   -6.4952    0.0000 O   0  0  0  0  0  0  0  0  0  0  0  0
   -0.7500   -3.8971    0.0000 C   0  0  0  0  0  0  0  0  0  0  0  0
    0.7500   -3.8971    0.0000 C   0  0  0  0  0  0  0  0  0  0  0  0
    1.5000   -2.5981    0.0000 O   0  0  0  0  0  0  0  0  0  0  0  0
    0.7500   -1.2990    0.0000 C   0  0  0  0  0  0  0  0  0  0  0  0
    1.5000    0.0000    0.0000 C   0  0  0  0  0  0  0  0  0  0  0  0
    0.7500    1.2990    0.0000 C   0  0  0  0  0  0  0  0  0  0  0  0
   -0.7500    1.2990    0.0000 C   0  0  0  0  0  0  0  0  0  0  0  0
   -1.5000    0.0000    0.0000 C   0  0  0  0  0  0  0  0  0  0  0  0
   -0.7500   -1.2990    0.0000 C   0  0  0  0  0  0  0  0  0  0  0  0
   -1.5000   -2.5981    0.0000 O   0  0  0  0  0  0  0  0  0  0  0  0
   -6.0000   -7.7942    0.0000 C   0  0  0  0  0  0  0  0  0  0  0  0
   -7.5000   -7.7942    0.0000 C   0  0  0  0  0  0  0  0  0  0  0  0
   -8.2500   -9.0933    0.0000 C   0  0  0  0  0  0  0  0  0  0  0  0
   -7.5000  -10.3923    0.0000 C   0  0  0  0  0  0  0  0  0  0  0  0
   -8.2500  -11.6913    0.0000 F   0  0  0  0  0  0  0  0  0  0  0  0
   -6.0000  -10.3923    0.0000 C   0  0  0  0  0  0  0  0  0  0  0  0
   -5.2500   -9.0933    0.0000 C   0  0  0  0  0  0  0  0  0  0  0  0
   -3.7500   -9.0933    0.0000 F   0  0  0  0  0  0  0  0  0  0  0  0
  1  2  1  0
  2  3  2  0
  3  4  1  0
  4  5  1  0
  5  6  2  0
  7  5  1  6
  7  8  1  0
  8  9  1  0
  9 10  1  0
 10 11  2  0
 11 12  1  0
 12 13  2  0
 13 14  1  0
 14 15  2  0
 15 16  1  0
  2 17  1  0
 17 18  2  0
 18 19  1  0
 19 20  2  0
 20 21  1  0
 20 22  1  0
 22 23  2  0
 23 24  1  0
 16  7  1  0
 23 17  1  0
 15 10  1  0
M  END
>  <Compound_ID>  (1079) 
C06945677

>  <Active>  (1079) 
0.0

>  <Smiles>  (1079) 
C/C(=N\NC(=O)[C@H]1COc2ccccc2O1)c1ccc(F)cc1F

>  <canonical_smi>  (1079) 
C/C(=N\NC(=O)[C@H]1COc2ccccc2O1)c1ccc(F)cc1F

>  <Set>  (1079) 
G2 inactive

>  <Set_type>  (1079) 
Test

>  <MW>  (1079) 
332.31

>  <HBD>  (1079) 
1

>  <HBA>  (1079) 
3

>  <NRB>  (1079) 
3

>  <NR>  (1079) 
3

>  <NAR>  (1079) 
2

>  <PSA>  (1079) 
59.92

>  <Standard Type>  (1079) 
nan

>  <Standard Relation>  (1079) 
nan

>  <Standard Units>  (1079) 
nan

>  <Standard Value>  (1079) 
nan

>  <Assay ChEMBL ID>  (1079) 
nan

>  <Assay Description>  (1079) 
nan

>  <BAO Label>  (1079) 
nan

$$$$

     RDKit          2D

 31 35  0  0  0  0  0  0  0  0999 V2000
    5.4240   -6.1312    0.0000 C   0  0  0  0  0  0  0  0  0  0  0  0
    4.0537   -5.5211    0.0000 C   0  0  0  0  0  0  0  0  0  0  0  0
    3.7418   -4.0539    0.0000 N   0  0  0  0  0  0  0  0  0  0  0  0
    2.2500   -3.8971    0.0000 C   0  0  0  0  0  0  0  0  0  0  0  0
    1.5000   -2.5981    0.0000 S   0  0  0  0  0  0  0  0  0  0  0  0
    0.2010   -3.3481    0.0000 O   0  0  0  0  0  0  0  0  0  0  0  0
    2.7990   -1.8481    0.0000 O   0  0  0  0  0  0  0  0  0  0  0  0
    0.7500   -1.2990    0.0000 N   0  0  0  0  0  0  0  0  0  0  0  0
    1.5000    0.0000    0.0000 C   0  0  0  0  0  0  0  0  0  0  0  0
    0.7500    1.2990    0.0000 C   0  0  0  0  0  0  0  0  0  0  0  0
   -0.7500    1.2990    0.0000 C   0  0  0  0  0  0  0  0  0  0  0  0
   -1.5000    0.0000    0.0000 C   0  0  0  0  0  0  0  0  0  0  0  0
   -0.7500   -1.2990    0.0000 C   0  0  0  0  0  0  0  0  0  0  0  0
   -2.2500    1.2990    0.0000 N   0  0  0  0  0  0  0  0  0  0  0  0
   -3.7500    1.2990    0.0000 C   0  0  0  0  0  0  0  0  0  0  0  0
   -4.5000    2.5981    0.0000 C   0  0  0  0  0  0  0  0  0  0  0  0
   -6.0000    2.5981    0.0000 C   0  0  0  0  0  0  0  0  0  0  0  0
   -6.7500    1.2990    0.0000 C   0  0  0  0  0  0  0  0  0  0  0  0
   -6.0000   -0.0000    0.0000 C   0  0  0  0  0  0  0  0  0  0  0  0
   -4.5000   -0.0000    0.0000 C   0  0  0  0  0  0  0  0  0  0  0  0
   -3.7500   -1.2990    0.0000 N   0  0  0  0  0  0  0  0  0  0  0  0
   -2.2500   -1.2990    0.0000 C   0  0  0  0  0  0  0  0  0  0  0  0
   -1.5000   -2.5981    0.0000 N   0  0  0  0  0  4  0  0  0  0  0  0
   -2.2500   -3.8971    0.0000 C   0  0  0  0  0  0  0  0  0  0  0  0
   -1.6399   -5.2674    0.0000 C   0  0  0  0  0  0  0  0  0  0  0  0
   -2.7546   -6.2711    0.0000 C   0  0  0  0  0  0  0  0  0  0  0  0
   -4.0537   -5.5211    0.0000 C   0  0  0  0  0  0  0  0  0  0  0  0
   -3.7418   -4.0539    0.0000 C   0  0  0  0  0  0  0  0  0  0  0  0
    1.6399   -5.2674    0.0000 C   0  0  0  0  0  0  0  0  0  0  0  0
    2.7546   -6.2711    0.0000 N   0  0  0  0  0  0  0  0  0  0  0  0
    2.5978   -7.7629    0.0000 C   0  0  0  0  0  0  0  0  0  0  0  0
  1  2  1  0
  2  3  2  0
  3  4  1  0
  4  5  1  0
  5  6  2  0
  5  7  2  0
  5  8  1  0
  8  9  1  0
  9 10  1  0
 10 11  1  0
 12 11  1  1
 12 13  1  0
 12 14  1  0
 14 15  1  0
 15 16  2  0
 16 17  1  0
 17 18  2  0
 18 19  1  0
 19 20  2  0
 20 21  1  0
 21 22  1  0
 22 23  2  0
 23 24  1  0
 24 25  1  0
 25 26  1  0
 26 27  1  0
 27 28  1  0
  4 29  2  0
 29 30  1  0
 30 31  1  0
 30  2  1  0
 13  8  1  0
 20 15  1  0
 28 24  1  0
 22 12  1  0
M  CHG  1  23   1
M  END
>  <Compound_ID>  (1080) 
C65260032

>  <Active>  (1080) 
0.0

>  <Smiles>  (1080) 
Cc1nc(S(=O)(=O)N2CCC[C@]3(C2)Nc2ccccc2N/C3=[NH+]\C2CCCC2)cn1C

>  <canonical_smi>  (1080) 
Cc1nc(S(=O)(=O)N2CCC[C@]3(C2)Nc2ccccc2N/C3=[NH+]\C2CCCC2)cn1C

>  <Set>  (1080) 
G2 inactive

>  <Set_type>  (1080) 
Test

>  <MW>  (1080) 
443.6

>  <HBD>  (1080) 
3

>  <HBA>  (1080) 
5

>  <NRB>  (1080) 
3

>  <NR>  (1080) 
5

>  <NAR>  (1080) 
2

>  <PSA>  (1080) 
93.23

>  <Standard Type>  (1080) 
nan

>  <Standard Relation>  (1080) 
nan

>  <Standard Units>  (1080) 
nan

>  <Standard Value>  (1080) 
nan

>  <Assay ChEMBL ID>  (1080) 
nan

>  <Assay Description>  (1080) 
nan

>  <BAO Label>  (1080) 
nan

$$$$

     RDKit          2D

 38 43  0  0  0  0  0  0  0  0999 V2000
   -6.5688   -4.8906    0.0000 C   0  0  0  0  0  0  0  0  0  0  0  0
   -5.2698   -5.6406    0.0000 O   0  0  0  0  0  0  0  0  0  0  0  0
   -3.9707   -4.8906    0.0000 C   0  0  0  0  0  0  0  0  0  0  0  0
   -2.7314   -5.7356    0.0000 C   0  0  0  0  0  0  0  0  0  0  0  0
   -2.9549   -7.2188    0.0000 C   0  0  0  0  0  0  0  0  0  0  0  0
   -1.2980   -5.2934    0.0000 C   0  0  0  0  0  0  0  0  0  0  0  0
   -0.7500   -3.8971    0.0000 C   0  0  0  0  0  0  0  0  0  0  0  0
    0.7500   -3.8971    0.0000 C   0  0  0  0  0  0  0  0  0  0  0  0
    1.5000   -5.1962    0.0000 O   0  0  0  0  0  0  0  0  0  0  0  0
    3.0000   -5.1962    0.0000 C   0  0  0  0  0  0  0  0  0  0  0  0
    1.5000   -2.5981    0.0000 C   0  0  0  0  0  0  0  0  0  0  0  0
    3.0000   -2.5981    0.0000 O   0  0  0  0  0  0  0  0  0  0  0  0
    0.7500   -1.2990    0.0000 C   0  0  0  0  0  0  0  0  0  0  0  0
    1.5000    0.0000    0.0000 C   0  0  0  0  0  0  0  0  0  0  0  0
    3.0000    0.0000    0.0000 O   0  0  0  0  0  0  0  0  0  0  0  0
    0.7500    1.2990    0.0000 C   0  0  0  0  0  0  0  0  0  0  0  0
   -0.7500    1.2990    0.0000 C   0  0  0  0  0  0  0  0  0  0  0  0
   -1.5000    2.5981    0.0000 O   0  0  0  0  0  0  0  0  0  0  0  0
   -0.7500    3.8971    0.0000 C   0  0  0  0  0  0  0  0  0  0  0  0
   -1.5000    0.0000    0.0000 C   0  0  0  0  0  0  0  0  0  0  0  0
   -2.2174    0.1081    0.0000 C   0  0  0  0  0  0  0  0  0  0  0  0
   -2.5512    1.5705    0.0000 C   0  0  0  0  0  0  0  0  0  0  0  0
   -1.4517    2.5908    0.0000 O   0  0  0  0  0  0  0  0  0  0  0  0
   -1.7854    4.0532    0.0000 C   0  0  0  0  0  0  0  0  0  0  0  0
   -3.9846    2.0127    0.0000 C   0  0  0  0  0  0  0  0  0  0  0  0
   -5.0842    0.9924    0.0000 C   0  0  0  0  0  0  0  0  0  0  0  0
   -6.5175    1.4345    0.0000 O   0  0  0  0  0  0  0  0  0  0  0  0
   -4.7504   -0.4700    0.0000 C   0  0  0  0  0  0  0  0  0  0  0  0
   -5.8500   -1.4902    0.0000 C   0  0  0  0  0  0  0  0  0  0  0  0
   -7.2833   -1.0481    0.0000 O   0  0  0  0  0  0  0  0  0  0  0  0
   -5.5162   -2.9526    0.0000 C   0  0  0  0  0  0  0  0  0  0  0  0
   -6.6158   -3.9729    0.0000 O   0  0  0  0  0  0  0  0  0  0  0  0
   -8.0491   -3.5308    0.0000 C   0  0  0  0  0  0  0  0  0  0  0  0
   -4.0828   -3.3948    0.0000 C   0  0  0  0  0  0  0  0  0  0  0  0
   -2.9832   -2.3745    0.0000 C   0  0  0  0  0  0  0  0  0  0  0  0
   -1.5000   -2.5981    0.0000 C   0  0  0  0  0  0  0  0  0  0  0  0
   -0.7500   -1.2990    0.0000 C   0  0  0  0  0  0  0  0  0  0  0  0
   -3.3170   -0.9121    0.0000 C   0  0  0  0  0  0  0  0  0  0  0  0
  1  2  1  0
  2  3  1  0
  3  4  2  0
  4  5  1  0
  4  6  1  0
  6  7  1  0
  7  8  2  0
  8  9  1  0
  9 10  1  0
  8 11  1  0
 11 12  2  0
 11 13  1  0
 13 14  1  0
 14 15  1  0
 14 16  2  0
 16 17  1  0
 17 18  1  0
 18 19  1  0
 17 20  2  0
 20 21  1  0
 21 22  1  0
 22 23  1  0
 23 24  1  0
 22 25  2  0
 25 26  1  0
 26 27  1  0
 26 28  2  0
 28 29  1  0
 29 30  2  0
 29 31  1  0
 31 32  1  0
 32 33  1  0
 31 34  2  0
 34 35  1  0
 35 36  2  0
 36 37  1  0
 35 38  1  0
 34  3  1  0
 36  7  1  0
 37 13  2  0
 37 20  1  0
 38 21  2  0
 38 28  1  0
M  END
>  <Compound_ID>  (1081) 
C14806655

>  <Active>  (1081) 
0.0

>  <Smiles>  (1081) 
COC1=C(C)Cc2c(OC)c(=O)c3c(O)cc(OC)c4c5c(OC)cc(O)c6c(=O)c(OC)c1c(c2c34)c65

>  <canonical_smi>  (1081) 
COC1=C(C)Cc2c(OC)c(=O)c3c(O)cc(OC)c4c5c(OC)cc(O)c6c(=O)c(OC)c1c(c2c34)c65

>  <Set>  (1081) 
G2 inactive

>  <Set_type>  (1081) 
Test

>  <MW>  (1081) 
516.5

>  <HBD>  (1081) 
2

>  <HBA>  (1081) 
9

>  <NRB>  (1081) 
5

>  <NR>  (1081) 
6

>  <NAR>  (1081) 
5

>  <PSA>  (1081) 
120.75

>  <Standard Type>  (1081) 
nan

>  <Standard Relation>  (1081) 
nan

>  <Standard Units>  (1081) 
nan

>  <Standard Value>  (1081) 
nan

>  <Assay ChEMBL ID>  (1081) 
nan

>  <Assay Description>  (1081) 
nan

>  <BAO Label>  (1081) 
nan

$$$$

     RDKit          2D

 26 28  0  0  0  0  0  0  0  0999 V2000
    6.0000   -5.1962    0.0000 C   0  0  0  0  0  0  0  0  0  0  0  0
    5.2500   -3.8971    0.0000 C   0  0  0  0  0  0  0  0  0  0  0  0
    6.0000   -2.5981    0.0000 N   0  0  0  0  0  0  0  0  0  0  0  0
    7.5000   -2.5981    0.0000 C   0  0  0  0  0  0  0  0  0  0  0  0
    8.2500   -3.8971    0.0000 O   0  0  0  0  0  0  0  0  0  0  0  0
    8.2500   -1.2990    0.0000 C   0  0  0  0  0  0  0  0  0  0  0  0
    9.7500   -1.2990    0.0000 C   0  0  0  0  0  0  0  0  0  0  0  0
   10.5000   -0.0000    0.0000 C   0  0  0  0  0  0  0  0  0  0  0  0
    9.7500    1.2990    0.0000 C   0  0  0  0  0  0  0  0  0  0  0  0
    8.2500    1.2990    0.0000 C   0  0  0  0  0  0  0  0  0  0  0  0
    7.5000   -0.0000    0.0000 C   0  0  0  0  0  0  0  0  0  0  0  0
    3.7500   -3.8971    0.0000 C   0  0  0  0  0  0  0  0  0  0  0  0
    3.0000   -5.1962    0.0000 O   0  0  0  0  0  0  0  0  0  0  0  0
    3.0000   -2.5981    0.0000 N   0  0  0  0  0  0  0  0  0  0  0  0
    1.5000   -2.5981    0.0000 C   0  0  0  0  0  0  0  0  0  0  0  0
    0.7500   -3.8971    0.0000 C   0  0  0  0  0  0  0  0  0  0  0  0
    0.7500   -1.2990    0.0000 C   0  0  0  0  0  0  0  0  0  0  0  0
    1.5000    0.0000    0.0000 C   0  0  0  0  0  0  0  0  0  0  0  0
    0.7500    1.2990    0.0000 C   0  0  0  0  0  0  0  0  0  0  0  0
   -0.7500    1.2990    0.0000 C   0  0  0  0  0  0  0  0  0  0  0  0
   -1.7537    2.4138    0.0000 N   0  0  0  0  0  0  0  0  0  0  0  0
   -3.1240    1.8037    0.0000 C   0  0  0  0  0  0  0  0  0  0  0  0
   -4.4231    2.5537    0.0000 O   0  0  0  0  0  0  0  0  0  0  0  0
   -2.9672    0.3119    0.0000 N   0  0  0  0  0  0  0  0  0  0  0  0
   -1.5000    0.0000    0.0000 C   0  0  0  0  0  0  0  0  0  0  0  0
   -0.7500   -1.2990    0.0000 C   0  0  0  0  0  0  0  0  0  0  0  0
  2  1  1  1
  2  3  1  0
  3  4  1  0
  4  5  2  0
  4  6  1  0
  6  7  2  0
  7  8  1  0
  8  9  2  0
  9 10  1  0
 10 11  2  0
  2 12  1  0
 12 13  2  0
 12 14  1  0
 14 15  1  0
 15 16  1  1
 15 17  1  0
 17 18  2  0
 18 19  1  0
 19 20  2  0
 20 21  1  0
 21 22  1  0
 22 23  2  0
 22 24  1  0
 24 25  1  0
 25 26  2  0
 11  6  1  0
 26 17  1  0
 25 20  1  0
M  END
>  <Compound_ID>  (1082) 
C58385162

>  <Active>  (1082) 
0.0

>  <Smiles>  (1082) 
C[C@H](NC(=O)c1ccccc1)C(=O)N[C@@H](C)c1ccc2[nH]c(=O)[nH]c2c1

>  <canonical_smi>  (1082) 
C[C@H](NC(=O)c1ccccc1)C(=O)N[C@@H](C)c1ccc2[nH]c(=O)[nH]c2c1

>  <Set>  (1082) 
G2 inactive

>  <Set_type>  (1082) 
Test

>  <MW>  (1082) 
352.39

>  <HBD>  (1082) 
4

>  <HBA>  (1082) 
3

>  <NRB>  (1082) 
5

>  <NR>  (1082) 
3

>  <NAR>  (1082) 
3

>  <PSA>  (1082) 
106.85

>  <Standard Type>  (1082) 
nan

>  <Standard Relation>  (1082) 
nan

>  <Standard Units>  (1082) 
nan

>  <Standard Value>  (1082) 
nan

>  <Assay ChEMBL ID>  (1082) 
nan

>  <Assay Description>  (1082) 
nan

>  <BAO Label>  (1082) 
nan

$$$$

     RDKit          2D

 33 37  0  0  0  0  0  0  0  0999 V2000
    4.3347    3.6484    0.0000 O   0  0  0  0  0  0  0  0  0  0  0  0
    3.8712    5.0750    0.0000 S   0  0  0  0  0  0  0  0  0  0  0  0
    3.4077    6.5016    0.0000 O   0  0  0  0  0  0  0  0  0  0  0  0
    5.2978    5.5385    0.0000 N   0  0  0  0  0  0  0  0  0  0  0  0
    5.6097    7.0058    0.0000 C   0  0  0  0  0  0  0  0  0  0  0  0
    7.0362    7.4693    0.0000 C   0  0  0  0  0  0  0  0  0  0  0  0
    7.3481    8.9365    0.0000 C   0  0  0  0  0  0  0  0  0  0  0  0
    8.7747    9.4000    0.0000 C   0  0  0  0  0  0  0  0  0  0  0  0
    9.0866   10.8673    0.0000 C   0  0  0  0  0  0  0  0  0  0  0  0
    7.9718   11.8710    0.0000 C   0  0  0  0  0  0  0  0  0  0  0  0
    6.5453   11.4074    0.0000 C   0  0  0  0  0  0  0  0  0  0  0  0
    6.2334    9.9402    0.0000 C   0  0  0  0  0  0  0  0  0  0  0  0
    2.4446    4.6115    0.0000 C   0  0  0  0  0  0  0  0  0  0  0  0
    1.3299    5.6152    0.0000 C   0  0  0  0  0  0  0  0  0  0  0  0
   -0.0967    5.1517    0.0000 C   0  0  0  0  0  0  0  0  0  0  0  0
   -0.4086    3.6844    0.0000 C   0  0  0  0  0  0  0  0  0  0  0  0
    0.7062    2.6807    0.0000 C   0  0  0  0  0  0  0  0  0  0  0  0
    2.1328    3.1443    0.0000 C   0  0  0  0  0  0  0  0  0  0  0  0
    0.3943    1.2135    0.0000 C   0  0  0  0  0  0  0  0  0  0  0  0
    1.2760    0.0000    0.0000 C   0  0  0  0  0  0  0  0  0  0  0  0
    0.3943   -1.2135    0.0000 C   0  0  0  0  0  0  0  0  0  0  0  0
   -1.0323   -0.7500    0.0000 C   0  0  0  0  0  0  0  0  0  0  0  0
   -1.0323    0.7500    0.0000 C   0  0  0  0  0  0  0  0  0  0  0  0
   -2.1470    1.7537    0.0000 C   0  0  0  0  0  0  0  0  0  0  0  0
   -3.5736    1.2902    0.0000 C   0  0  0  0  0  0  0  0  0  0  0  0
   -4.6883    2.2939    0.0000 C   0  0  0  0  0  0  0  0  0  0  0  0
   -6.1149    1.8303    0.0000 C   0  0  0  0  0  0  0  0  0  0  0  0
   -6.4268    0.3631    0.0000 C   0  0  0  0  0  0  0  0  0  0  0  0
   -7.8533   -0.1004    0.0000 O   0  0  0  0  0  0  0  0  0  0  0  0
   -5.3120   -0.6406    0.0000 C   0  0  0  0  0  0  0  0  0  0  0  0
   -3.8855   -0.1771    0.0000 C   0  0  0  0  0  0  0  0  0  0  0  0
   -2.7707   -1.1807    0.0000 O   0  0  0  0  0  0  0  0  0  0  0  0
   -1.8351    3.2209    0.0000 N   0  0  0  0  0  0  0  0  0  0  0  0
  1  2  2  0
  2  3  2  0
  2  4  1  0
  4  5  1  0
  5  6  1  0
  6  7  1  0
  7  8  2  0
  8  9  1  0
  9 10  2  0
 10 11  1  0
 11 12  2  0
  2 13  1  0
 13 14  2  0
 14 15  1  0
 15 16  2  0
 16 17  1  0
 17 18  2  0
 17 19  1  0
 19 20  1  6
 20 21  2  0
 21 22  1  0
 23 22  1  1
 23 24  1  0
 24 25  1  6
 25 26  2  0
 26 27  1  0
 27 28  2  0
 28 29  1  0
 28 30  1  0
 30 31  2  0
 31 32  1  0
 24 33  1  0
 12  7  1  0
 18 13  1  0
 23 19  1  0
 31 25  1  0
 33 16  1  0
M  END
>  <Compound_ID>  (1083) 
C13639574

>  <Active>  (1083) 
0.0

>  <Smiles>  (1083) 
O=S(=O)(NCCc1ccccc1)c1ccc2c(c1)[C@@H]1C=CC[C@H]1[C@H](c1ccc(O)cc1O)N2

>  <canonical_smi>  (1083) 
O=S(=O)(NCCc1ccccc1)c1ccc2c(c1)[C@@H]1C=CC[C@H]1[C@H](c1ccc(O)cc1O)N2

>  <Set>  (1083) 
G2 inactive

>  <Set_type>  (1083) 
Test

>  <MW>  (1083) 
462.57

>  <HBD>  (1083) 
4

>  <HBA>  (1083) 
5

>  <NRB>  (1083) 
6

>  <NR>  (1083) 
5

>  <NAR>  (1083) 
3

>  <PSA>  (1083) 
98.66

>  <Standard Type>  (1083) 
nan

>  <Standard Relation>  (1083) 
nan

>  <Standard Units>  (1083) 
nan

>  <Standard Value>  (1083) 
nan

>  <Assay ChEMBL ID>  (1083) 
nan

>  <Assay Description>  (1083) 
nan

>  <BAO Label>  (1083) 
nan

$$$$

     RDKit          2D

 28 31  0  0  0  0  0  0  0  0999 V2000
   -2.5981   -9.6073    0.0000 C   0  0  0  0  0  0  0  0  0  0  0  0
   -2.5981   -8.1073    0.0000 C   0  0  0  0  0  0  0  0  0  0  0  0
   -1.2990   -7.3573    0.0000 N   0  0  0  0  0  0  0  0  0  0  0  0
   -1.2990   -5.8573    0.0000 C   0  0  0  0  0  0  0  0  0  0  0  0
   -0.0000   -5.1073    0.0000 C   0  0  0  0  0  0  0  0  0  0  0  0
   -0.0000   -3.6073    0.0000 C   0  0  0  0  0  0  0  0  0  0  0  0
    1.2135   -2.7256    0.0000 N   0  0  0  0  0  4  0  0  0  0  0  0
    0.7500   -1.2990    0.0000 C   0  0  0  0  0  0  0  0  0  0  0  0
    1.5000    0.0000    0.0000 C   0  0  0  0  0  0  0  0  0  0  0  0
    0.7500    1.2990    0.0000 C   0  0  0  0  0  0  0  0  0  0  0  0
   -0.7500    1.2990    0.0000 C   0  0  0  0  0  0  0  0  0  0  0  0
   -1.5000    0.0000    0.0000 C   0  0  0  0  0  0  0  0  0  0  0  0
   -3.0000    0.0000    0.0000 C   0  0  0  0  0  0  0  0  0  0  0  0
   -0.7500   -1.2990    0.0000 C   0  0  0  0  0  0  0  0  0  0  0  0
   -1.2135   -2.7256    0.0000 N   0  0  0  0  0  4  0  0  0  0  0  0
    0.0000   -8.1073    0.0000 C   0  0  0  0  0  0  0  0  0  0  0  0
    1.2990   -7.3573    0.0000 O   0  0  0  0  0  0  0  0  0  0  0  0
    0.0000   -9.6073    0.0000 C   0  0  0  0  0  0  0  0  0  0  0  0
   -1.2135  -10.4890    0.0000 C   0  0  0  0  0  0  0  0  0  0  0  0
   -0.7500  -11.9156    0.0000 C   0  0  0  0  0  0  0  0  0  0  0  0
    0.7500  -11.9156    0.0000 C   0  0  0  0  0  0  0  0  0  0  0  0
    1.6317  -13.1291    0.0000 C   0  0  0  0  0  0  0  0  0  0  0  0
    1.9635  -11.0339    0.0000 O   0  0  0  0  0  0  0  0  0  0  0  0
    1.5000   -9.6073    0.0000 C   0  0  0  0  0  0  0  0  0  0  0  0
    2.3817   -8.3938    0.0000 O   0  0  0  0  0  0  0  0  0  0  0  0
    1.2135  -10.4890    0.0000 C   0  0  0  0  0  0  0  0  0  0  0  0
    1.9986  -10.6274    0.0000 C   0  0  0  0  0  0  0  0  0  0  0  0
    2.2556   -9.4100    0.0000 C   0  0  0  0  0  0  0  0  0  0  0  0
  1  2  1  0
  2  3  1  0
  3  4  1  0
  4  5  1  0
  6  5  1  6
  6  7  1  0
  7  8  2  0
  8  9  1  0
  9 10  2  0
 10 11  1  0
 11 12  2  0
 12 13  1  0
 12 14  1  0
 14 15  2  0
  3 16  1  0
 16 17  2  0
 18 16  1  1
 18 19  1  0
 19 20  1  0
 20 21  1  0
 21 22  1  1
 21 23  1  0
 23 24  1  0
 24 25  2  0
 21 26  1  0
 26 27  1  0
 26 28  1  0
 15  6  1  0
 24 18  1  0
 14  8  1  0
 26 18  1  0
M  CHG  2   7   1  15   1
M  END
>  <Compound_ID>  (1084) 
C63870409

>  <Active>  (1084) 
0.0

>  <Smiles>  (1084) 
CCN(CC[C@H]1[NH+]=c2cccc(C)c2=[NH+]1)C(=O)[C@@]12CC[C@@](C)(OC1=O)C2(C)C

>  <canonical_smi>  (1084) 
CCN(CC[C@H]1[NH+]=c2cccc(C)c2=[NH+]1)C(=O)[C@@]12CC[C@@](C)(OC1=O)C2(C)C

>  <Set>  (1084) 
G2 inactive

>  <Set_type>  (1084) 
Test

>  <MW>  (1084) 
385.51

>  <HBD>  (1084) 
2

>  <HBA>  (1084) 
3

>  <NRB>  (1084) 
5

>  <NR>  (1084) 
4

>  <NAR>  (1084) 
1

>  <PSA>  (1084) 
74.55

>  <Standard Type>  (1084) 
nan

>  <Standard Relation>  (1084) 
nan

>  <Standard Units>  (1084) 
nan

>  <Standard Value>  (1084) 
nan

>  <Assay ChEMBL ID>  (1084) 
nan

>  <Assay Description>  (1084) 
nan

>  <BAO Label>  (1084) 
nan

$$$$

     RDKit          2D

 27 29  0  0  0  0  0  0  0  0999 V2000
    5.2500   -1.2990    0.0000 C   0  0  0  0  0  0  0  0  0  0  0  0
    3.7500   -1.2990    0.0000 C   0  0  0  0  0  0  0  0  0  0  0  0
    3.0000    0.0000    0.0000 C   0  0  0  0  0  0  0  0  0  0  0  0
    1.5000    0.0000    0.0000 C   0  0  0  0  0  0  0  0  0  0  0  0
    0.7500   -1.2990    0.0000 C   0  0  0  0  0  0  0  0  0  0  0  0
   -0.7500   -1.2990    0.0000 N   0  0  0  0  0  4  0  0  0  0  0  0
   -1.5000    0.0000    0.0000 C   0  0  0  0  0  0  0  0  0  0  0  0
   -0.7500    1.2990    0.0000 C   0  0  0  0  0  0  0  0  0  0  0  0
    0.7500    1.2990    0.0000 C   0  0  0  0  0  0  0  0  0  0  0  0
    1.5000    2.5981    0.0000 N   0  0  0  0  0  0  0  0  0  0  0  0
    3.0000    2.5981    0.0000 O   0  0  0  0  0  0  0  0  0  0  0  0
    3.7500    3.8971    0.0000 C   0  0  0  0  0  0  0  0  0  0  0  0
    5.2500    3.8971    0.0000 C   0  0  0  0  0  0  0  0  0  0  0  0
    6.0000    2.5981    0.0000 C   0  0  0  0  0  0  0  0  0  0  0  0
    7.5000    2.5981    0.0000 C   0  0  0  0  0  0  0  0  0  0  0  0
    8.2500    3.8971    0.0000 C   0  0  0  0  0  0  0  0  0  0  0  0
    9.7500    3.8971    0.0000 Cl  0  0  0  0  0  0  0  0  0  0  0  0
    7.5000    5.1962    0.0000 C   0  0  0  0  0  0  0  0  0  0  0  0
    6.0000    5.1962    0.0000 C   0  0  0  0  0  0  0  0  0  0  0  0
   -1.5000    2.5981    0.0000 C   0  0  0  0  0  0  0  0  0  0  0  0
   -0.7500    3.8971    0.0000 O   0  0  0  0  0  0  0  0  0  0  0  0
   -3.0000    2.5981    0.0000 N   0  0  0  0  0  0  0  0  0  0  0  0
   -3.7500    3.8971    0.0000 C   0  0  0  0  0  0  0  0  0  0  0  0
   -3.7500    1.2990    0.0000 C   0  0  0  0  0  0  0  0  0  0  0  0
   -5.2500    1.2990    0.0000 O   0  0  0  0  0  0  0  0  0  0  0  0
   -3.0000    0.0000    0.0000 N   0  0  0  0  0  0  0  0  0  0  0  0
   -3.7500   -1.2990    0.0000 C   0  0  0  0  0  0  0  0  0  0  0  0
  1  2  1  0
  2  3  1  0
  3  4  1  0
  4  5  2  0
  5  6  1  0
  6  7  2  0
  7  8  1  0
  8  9  2  0
  9 10  1  0
 10 11  1  0
 11 12  1  0
 12 13  1  0
 13 14  2  0
 14 15  1  0
 15 16  2  0
 16 17  1  0
 16 18  1  0
 18 19  2  0
  8 20  1  0
 20 21  2  0
 20 22  1  0
 22 23  1  0
 22 24  1  0
 24 25  2  0
 24 26  1  0
 26 27  1  0
  9  4  1  0
 19 13  1  0
 26  7  1  0
M  CHG  1   6   1
M  END
>  <Compound_ID>  (1085) 
C12309723

>  <Active>  (1085) 
0.0

>  <Smiles>  (1085) 
CCCc1c[nH+]c2c(c1NOCc1ccc(Cl)cc1)c(=O)n(C)c(=O)n2C

>  <canonical_smi>  (1085) 
CCCc1c[nH+]c2c(c1NOCc1ccc(Cl)cc1)c(=O)n(C)c(=O)n2C

>  <Set>  (1085) 
G2 inactive

>  <Set_type>  (1085) 
Test

>  <MW>  (1085) 
389.86

>  <HBD>  (1085) 
1

>  <HBA>  (1085) 
4

>  <NRB>  (1085) 
6

>  <NR>  (1085) 
3

>  <NAR>  (1085) 
3

>  <PSA>  (1085) 
79.4

>  <Standard Type>  (1085) 
nan

>  <Standard Relation>  (1085) 
nan

>  <Standard Units>  (1085) 
nan

>  <Standard Value>  (1085) 
nan

>  <Assay ChEMBL ID>  (1085) 
nan

>  <Assay Description>  (1085) 
nan

>  <BAO Label>  (1085) 
nan

$$$$

     RDKit          2D

 16 17  0  0  0  0  0  0  0  0999 V2000
    3.0000    0.0000    0.0000 C   0  0  0  0  0  0  0  0  0  0  0  0
    1.5000    0.0000    0.0000 C   0  0  0  0  0  0  0  0  0  0  0  0
    0.7500   -1.2990    0.0000 C   0  0  0  0  0  0  0  0  0  0  0  0
   -0.7500   -1.2990    0.0000 N   0  0  0  0  0  0  0  0  0  0  0  0
   -1.5000   -2.5981    0.0000 C   0  0  0  0  0  0  0  0  0  0  0  0
   -3.0000   -2.5981    0.0000 C   0  0  0  0  0  0  0  0  0  0  0  0
   -3.7500   -3.8971    0.0000 C   0  0  0  0  0  0  0  0  0  0  0  0
   -5.2500   -3.8971    0.0000 Cl  0  0  0  0  0  0  0  0  0  0  0  0
   -3.0000   -5.1962    0.0000 N   0  0  0  0  0  0  0  0  0  0  0  0
   -1.5000   -5.1962    0.0000 C   0  0  0  0  0  0  0  0  0  0  0  0
   -0.7500   -6.4952    0.0000 N   0  0  0  0  0  0  0  0  0  0  0  0
   -0.7500   -3.8971    0.0000 N   0  0  0  0  0  0  0  0  0  0  0  0
   -1.5000    0.0000    0.0000 C   0  0  0  0  0  0  0  0  0  0  0  0
   -0.7500    1.2990    0.0000 C   0  0  0  0  0  0  0  0  0  0  0  0
   -1.5000    2.5981    0.0000 C   0  0  0  0  0  0  0  0  0  0  0  0
    0.7500    1.2990    0.0000 O   0  0  0  0  0  0  0  0  0  0  0  0
  2  1  1  6
  2  3  1  0
  3  4  1  0
  4  5  1  0
  5  6  2  0
  6  7  1  0
  7  8  1  0
  7  9  2  0
  9 10  1  0
 10 11  1  0
 10 12  2  0
  4 13  1  0
 13 14  1  0
 14 15  1  1
 14 16  1  0
 16  2  1  0
 12  5  1  0
M  END
>  <Compound_ID>  (1086) 
C24056203

>  <Active>  (1086) 
0.0

>  <Smiles>  (1086) 
C[C@@H]1CN(c2cc(Cl)nc(N)n2)C[C@@H](C)O1

>  <canonical_smi>  (1086) 
C[C@@H]1CN(c2cc(Cl)nc(N)n2)C[C@@H](C)O1

>  <Set>  (1086) 
G2 inactive

>  <Set_type>  (1086) 
Test

>  <MW>  (1086) 
242.71

>  <HBD>  (1086) 
1

>  <HBA>  (1086) 
5

>  <NRB>  (1086) 
1

>  <NR>  (1086) 
2

>  <NAR>  (1086) 
1

>  <PSA>  (1086) 
64.27

>  <Standard Type>  (1086) 
nan

>  <Standard Relation>  (1086) 
nan

>  <Standard Units>  (1086) 
nan

>  <Standard Value>  (1086) 
nan

>  <Assay ChEMBL ID>  (1086) 
nan

>  <Assay Description>  (1086) 
nan

>  <BAO Label>  (1086) 
nan

$$$$

     RDKit          2D

 37 42  0  0  0  0  0  0  0  0999 V2000
  -10.6780   -3.7680    0.0000 C   0  0  0  0  0  0  0  0  0  0  0  0
  -10.0679   -5.1383    0.0000 C   0  0  0  0  0  0  0  0  0  0  0  0
   -8.5761   -5.2951    0.0000 C   0  0  0  0  0  0  0  0  0  0  0  0
   -7.9660   -6.6654    0.0000 N   0  0  0  0  0  0  0  0  0  0  0  0
   -6.4742   -6.8222    0.0000 C   0  0  0  0  0  0  0  0  0  0  0  0
   -5.8852   -5.7595    0.0000 O   0  0  0  0  0  0  0  0  0  0  0  0
   -5.8641   -8.1925    0.0000 C   0  0  0  0  0  0  0  0  0  0  0  0
   -6.7458   -9.4060    0.0000 C   0  0  0  0  0  0  0  0  0  0  0  0
   -6.1357  -10.7763    0.0000 C   0  0  0  0  0  0  0  0  0  0  0  0
   -4.6439  -10.9331    0.0000 C   0  0  0  0  0  0  0  0  0  0  0  0
   -3.7622   -9.7196    0.0000 C   0  0  0  0  0  0  0  0  0  0  0  0
   -4.3723   -8.3493    0.0000 C   0  0  0  0  0  0  0  0  0  0  0  0
   -3.4906   -7.1358    0.0000 N   0  0  0  0  0  0  0  0  0  0  0  0
   -3.9542   -5.7092    0.0000 C   0  0  0  0  0  0  0  0  0  0  0  0
   -5.0553   -5.1957    0.0000 O   0  0  0  0  0  0  0  0  0  0  0  0
   -2.7406   -4.8275    0.0000 C   0  0  0  0  0  0  0  0  0  0  0  0
   -2.5838   -3.3357    0.0000 C   0  0  0  0  0  0  0  0  0  0  0  0
   -1.2135   -2.7256    0.0000 C   0  0  0  0  0  0  0  0  0  0  0  0
   -0.0000   -3.6073    0.0000 C   0  0  0  0  0  0  0  0  0  0  0  0
    1.2135   -2.7256    0.0000 N   0  0  0  0  0  0  0  0  0  0  0  0
    0.7500   -1.2990    0.0000 C   0  0  0  0  0  0  0  0  0  0  0  0
    1.5000    0.0000    0.0000 C   0  0  0  0  0  0  0  0  0  0  0  0
    0.7500    1.2990    0.0000 C   0  0  0  0  0  0  0  0  0  0  0  0
   -0.7500    1.2990    0.0000 C   0  0  0  0  0  0  0  0  0  0  0  0
   -1.5000    0.0000    0.0000 C   0  0  0  0  0  0  0  0  0  0  0  0
   -0.7500   -1.2990    0.0000 C   0  0  0  0  0  0  0  0  0  0  0  0
   -0.1568   -5.0991    0.0000 C   0  0  0  0  0  0  0  0  0  0  0  0
    1.0567   -5.9808    0.0000 C   0  0  0  0  0  0  0  0  0  0  0  0
    0.8999   -7.4725    0.0000 C   0  0  0  0  0  0  0  0  0  0  0  0
    2.1135   -8.3542    0.0000 C   0  0  0  0  0  0  0  0  0  0  0  0
    3.4838   -7.7441    0.0000 C   0  0  0  0  0  0  0  0  0  0  0  0
    4.6973   -8.6258    0.0000 F   0  0  0  0  0  0  0  0  0  0  0  0
    3.6406   -6.2523    0.0000 C   0  0  0  0  0  0  0  0  0  0  0  0
    2.4271   -5.3707    0.0000 C   0  0  0  0  0  0  0  0  0  0  0  0
   -1.5271   -5.7092    0.0000 N   0  0  0  0  0  0  0  0  0  0  0  0
   -1.9906   -7.1358    0.0000 C   0  0  0  0  0  0  0  0  0  0  0  0
   -1.1090   -8.3493    0.0000 O   0  0  0  0  0  0  0  0  0  0  0  0
  1  2  1  0
  2  3  1  0
  3  4  1  0
  4  5  1  0
  5  6  2  0
  5  7  1  0
  7  8  2  0
  8  9  1  0
  9 10  2  0
 10 11  1  0
 11 12  2  0
 12 13  1  0
 13 14  1  0
 14 15  2  0
 14 16  1  0
 16 17  1  6
 17 18  1  0
 18 19  2  0
 19 20  1  0
 20 21  1  0
 21 22  2  0
 22 23  1  0
 23 24  2  0
 24 25  1  0
 25 26  2  0
 19 27  1  0
 27 28  1  6
 28 29  2  0
 29 30  1  0
 30 31  2  0
 31 32  1  0
 31 33  1  0
 33 34  2  0
 27 35  1  0
 35 36  1  0
 36 37  2  0
 12  7  1  0
 36 13  1  0
 35 16  1  0
 26 18  1  0
 34 28  1  0
 26 21  1  0
M  END
>  <Compound_ID>  (1087) 
C12886157

>  <Active>  (1087) 
0.0

>  <Smiles>  (1087) 
CCCNC(=O)c1ccccc1N1C(=O)[C@@H]2Cc3c([nH]c4ccccc34)[C@H](c3ccc(F)cc3)N2C1=O

>  <canonical_smi>  (1087) 
CCCNC(=O)c1ccccc1N1C(=O)[C@@H]2Cc3c([nH]c4ccccc34)[C@H](c3ccc(F)cc3)N2C1=O

>  <Set>  (1087) 
G2 inactive

>  <Set_type>  (1087) 
Test

>  <MW>  (1087) 
496.54

>  <HBD>  (1087) 
2

>  <HBA>  (1087) 
3

>  <NRB>  (1087) 
5

>  <NR>  (1087) 
6

>  <NAR>  (1087) 
4

>  <PSA>  (1087) 
85.51

>  <Standard Type>  (1087) 
nan

>  <Standard Relation>  (1087) 
nan

>  <Standard Units>  (1087) 
nan

>  <Standard Value>  (1087) 
nan

>  <Assay ChEMBL ID>  (1087) 
nan

>  <Assay Description>  (1087) 
nan

>  <BAO Label>  (1087) 
nan

$$$$

     RDKit          2D

 31 35  0  0  0  0  0  0  0  0999 V2000
    3.0000   -5.1962    0.0000 O   0  0  0  0  0  0  0  0  0  0  0  0
    3.7500   -3.8971    0.0000 C   0  0  0  0  0  0  0  0  0  0  0  0
    3.0000   -2.5981    0.0000 N   0  0  0  0  0  0  0  0  0  0  0  0
    1.5000   -2.5981    0.0000 C   0  0  0  0  0  0  0  0  0  0  0  0
    0.7500   -3.8971    0.0000 C   0  0  0  0  0  0  0  0  0  0  0  0
   -0.7500   -3.8971    0.0000 O   0  0  0  0  0  0  0  0  0  0  0  0
    1.5000   -5.1962    0.0000 N   0  0  0  0  0  0  0  0  0  0  0  0
    0.7500   -6.4952    0.0000 C   0  0  0  0  0  0  0  0  0  0  0  0
    1.5000   -7.7942    0.0000 C   0  0  0  0  0  0  0  0  0  0  0  0
    0.7500   -9.0933    0.0000 N   0  0  0  0  0  4  0  0  0  0  0  0
   -0.7500   -9.0933    0.0000 C   0  0  0  0  0  0  0  0  0  0  0  0
   -1.5000  -10.3923    0.0000 C   0  0  0  0  0  0  0  0  0  0  0  0
   -0.7500  -11.6913    0.0000 O   0  0  0  0  0  0  0  0  0  0  0  0
    0.7500  -11.6913    0.0000 C   0  0  0  0  0  0  0  0  0  0  0  0
    1.5000  -10.3923    0.0000 C   0  0  0  0  0  0  0  0  0  0  0  0
    0.7500   -1.2990    0.0000 C   0  0  0  0  0  0  0  0  0  0  0  0
    1.5000    0.0000    0.0000 C   0  0  0  0  0  0  0  0  0  0  0  0
    0.7500    1.2990    0.0000 C   0  0  0  0  0  0  0  0  0  0  0  0
   -0.7500    1.2990    0.0000 C   0  0  0  0  0  0  0  0  0  0  0  0
   -1.5000    0.0000    0.0000 C   0  0  0  0  0  0  0  0  0  0  0  0
    1.7010   -0.7500    0.0000 C   0  0  0  0  0  0  0  0  0  0  0  0
    3.0000   -0.0000    0.0000 C   0  0  0  0  0  0  0  0  0  0  0  0
    2.2500    1.2990    0.0000 C   0  0  0  0  0  0  0  0  0  0  0  0
    2.2500   -1.2990    0.0000 C   0  0  0  0  0  0  0  0  0  0  0  0
   -0.7500   -1.2990    0.0000 C   0  0  0  0  0  0  0  0  0  0  0  0
    5.2500   -3.8971    0.0000 C   0  0  0  0  0  0  0  0  0  0  0  0
    6.0000   -5.1962    0.0000 C   0  0  0  0  0  0  0  0  0  0  0  0
    7.5000   -5.1962    0.0000 C   0  0  0  0  0  0  0  0  0  0  0  0
    8.2500   -3.8971    0.0000 C   0  0  0  0  0  0  0  0  0  0  0  0
    7.5000   -2.5981    0.0000 C   0  0  0  0  0  0  0  0  0  0  0  0
    6.0000   -2.5981    0.0000 C   0  0  0  0  0  0  0  0  0  0  0  0
  1  2  2  0
  2  3  1  0
  4  3  1  1
  4  5  1  0
  5  6  2  0
  5  7  1  0
  7  8  1  0
  8  9  1  0
  9 10  1  0
 10 11  1  0
 11 12  1  0
 12 13  1  0
 13 14  1  0
 14 15  1  0
  4 16  1  0
 16 17  1  0
 17 18  1  0
 18 19  1  0
 19 20  1  0
 20 21  1  0
 21 22  1  0
 22 23  1  0
 22 24  1  0
 20 25  1  0
  2 26  1  0
 26 27  1  0
 27 28  1  0
 28 29  1  0
 29 30  1  0
 30 31  1  0
 15 10  1  0
 24 16  1  0
 31 26  1  0
 25 16  1  0
 23 18  1  0
M  CHG  1  10   1
M  END
>  <Compound_ID>  (1088) 
C05043618

>  <Active>  (1088) 
0.0

>  <Smiles>  (1088) 
O=C(N[C@@H](C(=O)NCC[NH+]1CCOCC1)C12CC3CC(CC(C3)C1)C2)C1CCCCC1

>  <canonical_smi>  (1088) 
O=C(N[C@@H](C(=O)NCC[NH+]1CCOCC1)C12CC3CC(CC(C3)C1)C2)C1CCCCC1

>  <Set>  (1088) 
G2 inactive

>  <Set_type>  (1088) 
Test

>  <MW>  (1088) 
432.63

>  <HBD>  (1088) 
3

>  <HBA>  (1088) 
3

>  <NRB>  (1088) 
7

>  <NR>  (1088) 
6

>  <NAR>  (1088) 
0

>  <PSA>  (1088) 
71.87

>  <Standard Type>  (1088) 
nan

>  <Standard Relation>  (1088) 
nan

>  <Standard Units>  (1088) 
nan

>  <Standard Value>  (1088) 
nan

>  <Assay ChEMBL ID>  (1088) 
nan

>  <Assay Description>  (1088) 
nan

>  <BAO Label>  (1088) 
nan

$$$$

     RDKit          2D

 28 32  0  0  0  0  0  0  0  0999 V2000
   -9.7490   -9.3698    0.0000 C   0  0  0  0  0  0  0  0  0  0  0  0
   -8.3787   -8.7597    0.0000 C   0  0  0  0  0  0  0  0  0  0  0  0
   -7.1652   -9.6414    0.0000 C   0  0  0  0  0  0  0  0  0  0  0  0
   -7.3220  -11.1332    0.0000 C   0  0  0  0  0  0  0  0  0  0  0  0
   -6.1084  -12.0149    0.0000 O   0  0  0  0  0  0  0  0  0  0  0  0
   -4.7381  -11.4047    0.0000 C   0  0  0  0  0  0  0  0  0  0  0  0
   -3.5246  -12.2864    0.0000 C   0  0  0  0  0  0  0  0  0  0  0  0
   -2.1543  -11.6763    0.0000 C   0  0  0  0  0  0  0  0  0  0  0  0
   -1.9975  -10.1845    0.0000 C   0  0  0  0  0  0  0  0  0  0  0  0
   -3.2110   -9.3029    0.0000 C   0  0  0  0  0  0  0  0  0  0  0  0
   -3.0542   -7.8111    0.0000 C   0  0  0  0  0  0  0  0  0  0  0  0
   -1.6839   -7.2010    0.0000 S   0  0  0  0  0  0  0  0  0  0  0  0
   -1.5271   -5.7092    0.0000 C   0  0  0  0  0  0  0  0  0  0  0  0
   -2.7406   -4.8275    0.0000 N   0  0  0  0  0  0  0  0  0  0  0  0
   -2.5838   -3.3357    0.0000 N   0  0  0  0  0  0  0  0  0  0  0  0
   -1.2135   -2.7256    0.0000 C   0  0  0  0  0  0  0  0  0  0  0  0
   -0.0000   -3.6073    0.0000 C   0  0  0  0  0  0  0  0  0  0  0  0
   -0.1568   -5.0991    0.0000 N   0  0  0  0  0  0  0  0  0  0  0  0
    1.2135   -2.7256    0.0000 N   0  0  0  0  0  0  0  0  0  0  0  0
    0.7500   -1.2990    0.0000 C   0  0  0  0  0  0  0  0  0  0  0  0
    1.5000    0.0000    0.0000 C   0  0  0  0  0  0  0  0  0  0  0  0
    0.7500    1.2990    0.0000 C   0  0  0  0  0  0  0  0  0  0  0  0
   -0.7500    1.2990    0.0000 C   0  0  0  0  0  0  0  0  0  0  0  0
   -1.5000    0.0000    0.0000 C   0  0  0  0  0  0  0  0  0  0  0  0
   -0.7500   -1.2990    0.0000 C   0  0  0  0  0  0  0  0  0  0  0  0
   -4.5813   -9.9130    0.0000 C   0  0  0  0  0  0  0  0  0  0  0  0
   -8.6923  -11.7433    0.0000 C   0  0  0  0  0  0  0  0  0  0  0  0
   -9.9058  -10.8616    0.0000 C   0  0  0  0  0  0  0  0  0  0  0  0
  1  2  2  0
  2  3  1  0
  3  4  2  0
  4  5  1  0
  5  6  1  0
  6  7  2  0
  7  8  1  0
  8  9  2  0
  9 10  1  0
 10 11  1  0
 11 12  1  0
 12 13  1  0
 13 14  2  0
 14 15  1  0
 15 16  2  0
 16 17  1  0
 17 18  2  0
 17 19  1  0
 19 20  1  0
 20 21  2  0
 21 22  1  0
 22 23  2  0
 23 24  1  0
 24 25  2  0
 10 26  2  0
  4 27  1  0
 27 28  2  0
 28  1  1  0
 26  6  1  0
 18 13  1  0
 25 20  1  0
 25 16  1  0
M  END
>  <Compound_ID>  (1089) 
C00829351

>  <Active>  (1089) 
0.0

>  <Smiles>  (1089) 
c1ccc(Oc2cccc(CSc3nnc4c(n3)[nH]c3ccccc34)c2)cc1

>  <canonical_smi>  (1089) 
c1ccc(Oc2cccc(CSc3nnc4c(n3)[nH]c3ccccc34)c2)cc1

>  <Set>  (1089) 
G2 inactive

>  <Set_type>  (1089) 
Test

>  <MW>  (1089) 
384.46

>  <HBD>  (1089) 
1

>  <HBA>  (1089) 
5

>  <NRB>  (1089) 
5

>  <NR>  (1089) 
5

>  <NAR>  (1089) 
5

>  <PSA>  (1089) 
63.69

>  <Standard Type>  (1089) 
nan

>  <Standard Relation>  (1089) 
nan

>  <Standard Units>  (1089) 
nan

>  <Standard Value>  (1089) 
nan

>  <Assay ChEMBL ID>  (1089) 
nan

>  <Assay Description>  (1089) 
nan

>  <BAO Label>  (1089) 
nan

$$$$

     RDKit          2D

 30 33  0  0  0  0  0  0  0  0999 V2000
    3.7500   -1.2990    0.0000 C   0  0  0  0  0  0  0  0  0  0  0  0
    3.0000    0.0000    0.0000 O   0  0  0  0  0  0  0  0  0  0  0  0
    1.5000    0.0000    0.0000 C   0  0  0  0  0  0  0  0  0  0  0  0
    0.7500   -1.2990    0.0000 C   0  0  0  0  0  0  0  0  0  0  0  0
   -0.7500   -1.2990    0.0000 C   0  0  0  0  0  0  0  0  0  0  0  0
   -1.5000    0.0000    0.0000 C   0  0  0  0  0  0  0  0  0  0  0  0
   -0.7500    1.2990    0.0000 C   0  0  0  0  0  0  0  0  0  0  0  0
   -1.5000    2.5981    0.0000 C   0  0  0  0  0  0  0  0  0  0  0  0
   -0.7500    3.8971    0.0000 N   0  0  0  0  0  0  0  0  0  0  0  0
   -1.5000    5.1962    0.0000 C   0  0  0  0  0  0  0  0  0  0  0  0
   -2.9918    5.3529    0.0000 O   0  0  0  0  0  0  0  0  0  0  0  0
   -3.3037    6.8202    0.0000 C   0  0  0  0  0  0  0  0  0  0  0  0
   -4.6740    7.4303    0.0000 C   0  0  0  0  0  0  0  0  0  0  0  0
   -4.8308    8.9221    0.0000 C   0  0  0  0  0  0  0  0  0  0  0  0
   -6.2011    9.5322    0.0000 C   0  0  0  0  0  0  0  0  0  0  0  0
   -7.4146    8.6505    0.0000 C   0  0  0  0  0  0  0  0  0  0  0  0
   -7.2578    7.1587    0.0000 C   0  0  0  0  0  0  0  0  0  0  0  0
   -5.8875    6.5486    0.0000 C   0  0  0  0  0  0  0  0  0  0  0  0
   -2.0046    7.5702    0.0000 C   0  0  0  0  0  0  0  0  0  0  0  0
   -1.8478    9.0619    0.0000 C   0  0  0  0  0  0  0  0  0  0  0  0
   -0.4775    9.6721    0.0000 C   0  0  0  0  0  0  0  0  0  0  0  0
   -0.3207   11.1638    0.0000 C   0  0  0  0  0  0  0  0  0  0  0  0
   -1.5342   12.0455    0.0000 C   0  0  0  0  0  0  0  0  0  0  0  0
   -2.9046   11.4354    0.0000 C   0  0  0  0  0  0  0  0  0  0  0  0
   -3.0613    9.9436    0.0000 C   0  0  0  0  0  0  0  0  0  0  0  0
   -0.8899    6.5665    0.0000 C   0  0  0  0  0  0  0  0  0  0  0  0
    0.5773    6.8783    0.0000 C   0  0  0  0  0  0  0  0  0  0  0  0
    2.0445    7.1902    0.0000 N   0  0  0  0  0  0  0  0  0  0  0  0
    0.7500    1.2990    0.0000 C   0  0  0  0  0  0  0  0  0  0  0  0
    1.5000    2.5981    0.0000 O   0  0  0  0  0  0  0  0  0  0  0  0
  1  2  1  0
  2  3  1  0
  3  4  2  0
  4  5  1  0
  5  6  2  0
  6  7  1  0
  7  8  1  0
  8  9  2  0
  9 10  1  0
 10 11  1  0
 11 12  1  0
 12 13  1  0
 13 14  2  0
 14 15  1  0
 15 16  2  0
 16 17  1  0
 17 18  2  0
 12 19  2  0
 19 20  1  0
 20 21  2  0
 21 22  1  0
 22 23  2  0
 23 24  1  0
 24 25  2  0
 19 26  1  0
 26 27  1  0
 27 28  3  0
  7 29  2  0
 29 30  1  0
 29  3  1  0
 26 10  2  0
 18 13  1  0
 25 20  1  0
M  END
>  <Compound_ID>  (1090) 
C03666077

>  <Active>  (1090) 
0.0

>  <Smiles>  (1090) 
COc1cccc(/C=N/c2oc(-c3ccccc3)c(-c3ccccc3)c2C#N)c1O

>  <canonical_smi>  (1090) 
COc1cccc(/C=N/c2oc(-c3ccccc3)c(-c3ccccc3)c2C#N)c1O

>  <Set>  (1090) 
G2 inactive

>  <Set_type>  (1090) 
Test

>  <MW>  (1090) 
394.43

>  <HBD>  (1090) 
1

>  <HBA>  (1090) 
4

>  <NRB>  (1090) 
5

>  <NR>  (1090) 
4

>  <NAR>  (1090) 
4

>  <PSA>  (1090) 
78.75

>  <Standard Type>  (1090) 
nan

>  <Standard Relation>  (1090) 
nan

>  <Standard Units>  (1090) 
nan

>  <Standard Value>  (1090) 
nan

>  <Assay ChEMBL ID>  (1090) 
nan

>  <Assay Description>  (1090) 
nan

>  <BAO Label>  (1090) 
nan

$$$$

     RDKit          2D

 21 23  0  0  0  0  0  0  0  0999 V2000
    0.0361   12.0242    0.0000 C   0  0  0  0  0  0  0  0  0  0  0  0
   -0.2758   10.5570    0.0000 C   0  0  0  0  0  0  0  0  0  0  0  0
    0.8389    9.5533    0.0000 C   0  0  0  0  0  0  0  0  0  0  0  0
    0.5271    8.0861    0.0000 C   0  0  0  0  0  0  0  0  0  0  0  0
   -0.8995    7.6226    0.0000 C   0  0  0  0  0  0  0  0  0  0  0  0
   -1.2114    6.1554    0.0000 N   0  0  0  0  0  0  0  0  0  0  0  0
   -0.0967    5.1517    0.0000 C   0  0  0  0  0  0  0  0  0  0  0  0
    1.3299    5.6152    0.0000 C   0  0  0  0  0  0  0  0  0  0  0  0
   -0.4086    3.6844    0.0000 C   0  0  0  0  0  0  0  0  0  0  0  0
   -1.8351    3.2209    0.0000 C   0  0  0  0  0  0  0  0  0  0  0  0
   -2.1470    1.7537    0.0000 C   0  0  0  0  0  0  0  0  0  0  0  0
   -1.0323    0.7500    0.0000 C   0  0  0  0  0  0  0  0  0  0  0  0
    0.3943    1.2135    0.0000 C   0  0  0  0  0  0  0  0  0  0  0  0
    0.7062    2.6807    0.0000 C   0  0  0  0  0  0  0  0  0  0  0  0
    1.2760    0.0000    0.0000 C   0  0  0  0  0  0  0  0  0  0  0  0
    0.3943   -1.2135    0.0000 C   0  0  0  0  0  0  0  0  0  0  0  0
   -1.0323   -0.7500    0.0000 O   0  0  0  0  0  0  0  0  0  0  0  0
   -2.0143    8.6263    0.0000 C   0  0  0  0  0  0  0  0  0  0  0  0
   -3.4408    8.1628    0.0000 C   0  0  0  0  0  0  0  0  0  0  0  0
   -1.7024   10.0935    0.0000 C   0  0  0  0  0  0  0  0  0  0  0  0
   -2.8171   11.0972    0.0000 O   0  0  0  0  0  0  0  0  0  0  0  0
  1  2  1  0
  2  3  2  0
  3  4  1  0
  4  5  2  0
  5  6  1  0
  6  7  1  0
  7  8  1  6
  7  9  1  0
  9 10  2  0
 10 11  1  0
 11 12  2  0
 12 13  1  0
 13 14  2  0
 13 15  1  0
 15 16  1  0
 16 17  1  0
  5 18  1  0
 18 19  1  0
 18 20  2  0
 20 21  1  0
 20  2  1  0
 14  9  1  0
 17 12  1  0
M  END
>  <Compound_ID>  (1091) 
C37316535

>  <Active>  (1091) 
0.0

>  <Smiles>  (1091) 
Cc1ccc(N[C@H](C)c2ccc3c(c2)CCO3)c(C)c1O

>  <canonical_smi>  (1091) 
Cc1ccc(N[C@H](C)c2ccc3c(c2)CCO3)c(C)c1O

>  <Set>  (1091) 
G2 inactive

>  <Set_type>  (1091) 
Test

>  <MW>  (1091) 
283.37

>  <HBD>  (1091) 
2

>  <HBA>  (1091) 
3

>  <NRB>  (1091) 
3

>  <NR>  (1091) 
3

>  <NAR>  (1091) 
2

>  <PSA>  (1091) 
41.49

>  <Standard Type>  (1091) 
nan

>  <Standard Relation>  (1091) 
nan

>  <Standard Units>  (1091) 
nan

>  <Standard Value>  (1091) 
nan

>  <Assay ChEMBL ID>  (1091) 
nan

>  <Assay Description>  (1091) 
nan

>  <BAO Label>  (1091) 
nan

$$$$

     RDKit          2D

 17 18  0  0  0  0  0  0  0  0999 V2000
   -2.5081   -6.0187    0.0000 C   0  0  0  0  0  0  0  0  0  0  0  0
   -1.0409   -5.7068    0.0000 C   0  0  0  0  0  0  0  0  0  0  0  0
   -0.5773   -4.2803    0.0000 C   0  0  0  0  0  0  0  0  0  0  0  0
    0.8899   -3.9684    0.0000 C   0  0  0  0  0  0  0  0  0  0  0  0
    2.0046   -4.9721    0.0000 N   0  0  0  0  0  0  0  0  0  0  0  0
    3.3037   -4.2221    0.0000 O   0  0  0  0  0  0  0  0  0  0  0  0
    2.9918   -2.7549    0.0000 C   0  0  0  0  0  0  0  0  0  0  0  0
    3.9955   -1.6402    0.0000 N   0  0  0  0  0  0  0  0  0  0  0  0
    1.5000   -2.5981    0.0000 C   0  0  0  0  0  0  0  0  0  0  0  0
    0.7500   -1.2990    0.0000 C   0  0  0  0  0  0  0  0  0  0  0  0
    1.5000    0.0000    0.0000 C   0  0  0  0  0  0  0  0  0  0  0  0
    0.7500    1.2990    0.0000 C   0  0  0  0  0  0  0  0  0  0  0  0
   -0.7500    1.2990    0.0000 C   0  0  0  0  0  0  0  0  0  0  0  0
   -1.5000    2.5981    0.0000 Cl  0  0  0  0  0  0  0  0  0  0  0  0
   -1.5000    0.0000    0.0000 C   0  0  0  0  0  0  0  0  0  0  0  0
   -3.0000    0.0000    0.0000 Cl  0  0  0  0  0  0  0  0  0  0  0  0
   -0.7500   -1.2990    0.0000 C   0  0  0  0  0  0  0  0  0  0  0  0
  1  2  1  0
  2  3  1  0
  3  4  1  0
  4  5  2  0
  5  6  1  0
  6  7  1  0
  7  8  1  0
  7  9  2  0
  9 10  1  0
 10 11  2  0
 11 12  1  0
 12 13  2  0
 13 14  1  0
 13 15  1  0
 15 16  1  0
 15 17  2  0
  9  4  1  0
 17 10  1  0
M  END
>  <Compound_ID>  (1092) 
C41392915

>  <Active>  (1092) 
0.0

>  <Smiles>  (1092) 
CCCc1noc(N)c1-c1ccc(Cl)c(Cl)c1

>  <canonical_smi>  (1092) 
CCCc1noc(N)c1-c1ccc(Cl)c(Cl)c1

>  <Set>  (1092) 
G2 inactive

>  <Set_type>  (1092) 
Test

>  <MW>  (1092) 
271.15

>  <HBD>  (1092) 
1

>  <HBA>  (1092) 
3

>  <NRB>  (1092) 
3

>  <NR>  (1092) 
2

>  <NAR>  (1092) 
2

>  <PSA>  (1092) 
52.05

>  <Standard Type>  (1092) 
nan

>  <Standard Relation>  (1092) 
nan

>  <Standard Units>  (1092) 
nan

>  <Standard Value>  (1092) 
nan

>  <Assay ChEMBL ID>  (1092) 
nan

>  <Assay Description>  (1092) 
nan

>  <BAO Label>  (1092) 
nan

$$$$

     RDKit          2D

 19 22  0  0  0  0  0  0  0  0999 V2000
   -3.1362  -11.3157    0.0000 C   0  0  0  0  0  0  0  0  0  0  0  0
   -4.1968  -10.2551    0.0000 C   0  0  0  0  0  0  0  0  0  0  0  0
   -3.8086   -8.8062    0.0000 C   0  0  0  0  0  0  0  0  0  0  0  0
   -2.3597   -8.4180    0.0000 C   0  0  0  0  0  0  0  0  0  0  0  0
   -1.2990   -9.4786    0.0000 C   0  0  0  0  0  0  0  0  0  0  0  0
   -1.6873  -10.9275    0.0000 C   0  0  0  0  0  0  0  0  0  0  0  0
   -0.2384   -8.4180    0.0000 C   0  0  0  0  0  0  0  0  0  0  0  0
   -1.2990   -7.3573    0.0000 C   0  0  0  0  0  0  0  0  0  0  0  0
   -1.2990   -5.8573    0.0000 C   0  0  0  0  0  0  0  0  0  0  0  0
   -0.0000   -5.1073    0.0000 N   0  0  0  0  0  0  0  0  0  0  0  0
   -0.0000   -3.6073    0.0000 C   0  0  0  0  0  0  0  0  0  0  0  0
    1.2135   -2.7256    0.0000 N   0  0  0  0  0  0  0  0  0  0  0  0
    0.7500   -1.2990    0.0000 C   0  0  0  0  0  0  0  0  0  0  0  0
    1.5000    0.0000    0.0000 C   0  0  0  0  0  0  0  0  0  0  0  0
    0.7500    1.2990    0.0000 C   0  0  0  0  0  0  0  0  0  0  0  0
   -0.7500    1.2990    0.0000 C   0  0  0  0  0  0  0  0  0  0  0  0
   -1.5000    0.0000    0.0000 C   0  0  0  0  0  0  0  0  0  0  0  0
   -0.7500   -1.2990    0.0000 C   0  0  0  0  0  0  0  0  0  0  0  0
   -1.2135   -2.7256    0.0000 O   0  0  0  0  0  0  0  0  0  0  0  0
  1  2  2  0
  2  3  1  0
  3  4  2  0
  4  5  1  0
  5  6  2  0
  5  7  1  0
  7  8  1  0
  8  9  1  6
  9 10  1  0
 10 11  1  0
 11 12  2  0
 12 13  1  0
 13 14  2  0
 14 15  1  0
 15 16  2  0
 16 17  1  0
 17 18  2  0
 18 19  1  0
  6  1  1  0
 19 11  1  0
  8  4  1  0
 18 13  1  0
M  END
>  <Compound_ID>  (1093) 
C38008269

>  <Active>  (1093) 
0.0

>  <Smiles>  (1093) 
c1ccc2c(c1)C[C@H]2CNc1nc2ccccc2o1

>  <canonical_smi>  (1093) 
c1ccc2c(c1)C[C@H]2CNc1nc2ccccc2o1

>  <Set>  (1093) 
G2 inactive

>  <Set_type>  (1093) 
Test

>  <MW>  (1093) 
250.3

>  <HBD>  (1093) 
1

>  <HBA>  (1093) 
3

>  <NRB>  (1093) 
3

>  <NR>  (1093) 
4

>  <NAR>  (1093) 
3

>  <PSA>  (1093) 
38.06

>  <Standard Type>  (1093) 
nan

>  <Standard Relation>  (1093) 
nan

>  <Standard Units>  (1093) 
nan

>  <Standard Value>  (1093) 
nan

>  <Assay ChEMBL ID>  (1093) 
nan

>  <Assay Description>  (1093) 
nan

>  <BAO Label>  (1093) 
nan

$$$$

     RDKit          2D

 26 28  0  0  0  0  0  0  0  0999 V2000
   -3.7500   -3.8971    0.0000 C   0  0  0  0  0  0  0  0  0  0  0  0
   -3.0000   -2.5981    0.0000 C   0  0  0  0  0  0  0  0  0  0  0  0
   -3.7500   -1.2990    0.0000 N   0  0  0  0  0  0  0  0  0  0  0  0
   -5.2500   -1.2990    0.0000 C   0  0  0  0  0  0  0  0  0  0  0  0
   -6.0000   -2.5981    0.0000 O   0  0  0  0  0  0  0  0  0  0  0  0
   -6.0000    0.0000    0.0000 N   0  0  0  0  0  0  0  0  0  0  0  0
   -7.5000    0.0000    0.0000 C   0  0  0  0  0  0  0  0  0  0  0  0
   -8.2500    1.2990    0.0000 C   0  0  0  0  0  0  0  0  0  0  0  0
   -7.5000    2.5981    0.0000 C   0  0  0  0  0  0  0  0  0  0  0  0
   -8.2500    3.8971    0.0000 C   0  0  0  0  0  0  0  0  0  0  0  0
   -9.7500    3.8971    0.0000 N   0  0  0  0  0  4  0  0  0  0  0  0
  -10.5000    2.5981    0.0000 C   0  0  0  0  0  0  0  0  0  0  0  0
  -12.0000    2.5981    0.0000 N   0  0  0  0  0  0  0  0  0  0  0  0
  -12.7500    3.8971    0.0000 C   0  0  0  0  0  0  0  0  0  0  0  0
  -12.7500    1.2990    0.0000 C   0  0  0  0  0  0  0  0  0  0  0  0
   -9.7500    1.2990    0.0000 C   0  0  0  0  0  0  0  0  0  0  0  0
   -1.5000   -2.5981    0.0000 C   0  0  0  0  0  0  0  0  0  0  0  0
   -0.7500   -3.8971    0.0000 C   0  0  0  0  0  0  0  0  0  0  0  0
    0.7500   -3.8971    0.0000 C   0  0  0  0  0  0  0  0  0  0  0  0
    1.5000   -2.5981    0.0000 C   0  0  0  0  0  0  0  0  0  0  0  0
    0.7500   -1.2990    0.0000 C   0  0  0  0  0  0  0  0  0  0  0  0
    1.5000    0.0000    0.0000 C   0  0  0  0  0  0  0  0  0  0  0  0
    0.7500    1.2990    0.0000 C   0  0  0  0  0  0  0  0  0  0  0  0
   -0.7500    1.2990    0.0000 C   0  0  0  0  0  0  0  0  0  0  0  0
   -1.5000    0.0000    0.0000 C   0  0  0  0  0  0  0  0  0  0  0  0
   -0.7500   -1.2990    0.0000 C   0  0  0  0  0  0  0  0  0  0  0  0
  2  1  1  1
  2  3  1  0
  3  4  1  0
  4  5  2  0
  4  6  1  0
  6  7  1  0
  7  8  1  0
  8  9  2  0
  9 10  1  0
 10 11  2  0
 11 12  1  0
 12 13  1  0
 13 14  1  0
 13 15  1  0
 12 16  2  0
  2 17  1  0
 17 18  2  0
 18 19  1  0
 19 20  2  0
 20 21  1  0
 21 22  2  0
 22 23  1  0
 23 24  2  0
 24 25  1  0
 25 26  2  0
 16  8  1  0
 26 17  1  0
 26 21  1  0
M  CHG  1  11   1
M  END
>  <Compound_ID>  (1094) 
C47959406

>  <Active>  (1094) 
0.0

>  <Smiles>  (1094) 
C[C@@H](NC(=O)NCc1cc[nH+]c(N(C)C)c1)c1cccc2ccccc12

>  <canonical_smi>  (1094) 
C[C@@H](NC(=O)NCc1cc[nH+]c(N(C)C)c1)c1cccc2ccccc12

>  <Set>  (1094) 
G2 inactive

>  <Set_type>  (1094) 
Test

>  <MW>  (1094) 
349.46

>  <HBD>  (1094) 
2

>  <HBA>  (1094) 
2

>  <NRB>  (1094) 
5

>  <NR>  (1094) 
3

>  <NAR>  (1094) 
3

>  <PSA>  (1094) 
58.51

>  <Standard Type>  (1094) 
nan

>  <Standard Relation>  (1094) 
nan

>  <Standard Units>  (1094) 
nan

>  <Standard Value>  (1094) 
nan

>  <Assay ChEMBL ID>  (1094) 
nan

>  <Assay Description>  (1094) 
nan

>  <BAO Label>  (1094) 
nan

$$$$

     RDKit          2D

 24 24  0  0  0  0  0  0  0  0999 V2000
    8.2500    3.8971    0.0000 C   0  0  0  0  0  0  0  0  0  0  0  0
    7.5000    2.5981    0.0000 C   0  0  0  0  0  0  0  0  0  0  0  0
    6.0000    2.5981    0.0000 N   0  0  0  0  0  4  0  0  0  0  0  0
    5.2500    1.2990    0.0000 C   0  0  0  0  0  0  0  0  0  0  0  0
    3.7500    1.2990    0.0000 C   0  0  0  0  0  0  0  0  0  0  0  0
    3.0000    2.5981    0.0000 O   0  0  0  0  0  0  0  0  0  0  0  0
    3.0000    0.0000    0.0000 N   0  0  0  0  0  0  0  0  0  0  0  0
    1.5000    0.0000    0.0000 C   0  0  0  0  0  0  0  0  0  0  0  0
    0.7500   -1.2990    0.0000 C   0  0  0  0  0  0  0  0  0  0  0  0
    1.5000   -2.5981    0.0000 C   0  0  0  0  0  0  0  0  0  0  0  0
   -0.7500   -1.2990    0.0000 C   0  0  0  0  0  0  0  0  0  0  0  0
   -1.5000    0.0000    0.0000 C   0  0  0  0  0  0  0  0  0  0  0  0
   -3.0000    0.0000    0.0000 C   0  0  0  0  0  0  0  0  0  0  0  0
   -0.7500    1.2990    0.0000 C   0  0  0  0  0  0  0  0  0  0  0  0
    0.7500    1.2990    0.0000 C   0  0  0  0  0  0  0  0  0  0  0  0
    1.5000    2.5981    0.0000 Cl  0  0  0  0  0  0  0  0  0  0  0  0
    5.2500    3.8971    0.0000 C   0  0  0  0  0  0  0  0  0  0  0  0
    6.0000    5.1962    0.0000 C   0  0  0  0  0  0  0  0  0  0  0  0
    7.5000    5.1962    0.0000 O   0  0  0  0  0  0  0  0  0  0  0  0
    5.2500    6.4952    0.0000 N   0  0  0  0  0  0  0  0  0  0  0  0
    6.0000    7.7942    0.0000 C   0  0  0  0  0  0  0  0  0  0  0  0
    4.7010    8.5442    0.0000 C   0  0  0  0  0  0  0  0  0  0  0  0
    7.2990    7.0442    0.0000 C   0  0  0  0  0  0  0  0  0  0  0  0
    6.7500    9.0933    0.0000 C   0  0  0  0  0  0  0  0  0  0  0  0
  1  2  1  0
  2  3  1  0
  3  4  1  0
  4  5  1  0
  5  6  2  0
  5  7  1  0
  7  8  1  0
  8  9  2  0
  9 10  1  0
  9 11  1  0
 11 12  2  0
 12 13  1  0
 12 14  1  0
 14 15  2  0
 15 16  1  0
  3 17  1  0
 17 18  1  0
 18 19  2  0
 18 20  1  0
 20 21  1  0
 21 22  1  0
 21 23  1  0
 21 24  1  0
 15  8  1  0
M  CHG  1   3   1
M  END
>  <Compound_ID>  (1095) 
C07683997

>  <Active>  (1095) 
0.0

>  <Smiles>  (1095) 
CC[NH+](CC(=O)Nc1c(C)cc(C)cc1Cl)CC(=O)NC(C)(C)C

>  <canonical_smi>  (1095) 
CC[NH+](CC(=O)Nc1c(C)cc(C)cc1Cl)CC(=O)NC(C)(C)C

>  <Set>  (1095) 
G2 inactive

>  <Set_type>  (1095) 
Test

>  <MW>  (1095) 
354.9

>  <HBD>  (1095) 
3

>  <HBA>  (1095) 
2

>  <NRB>  (1095) 
6

>  <NR>  (1095) 
1

>  <NAR>  (1095) 
1

>  <PSA>  (1095) 
62.64

>  <Standard Type>  (1095) 
nan

>  <Standard Relation>  (1095) 
nan

>  <Standard Units>  (1095) 
nan

>  <Standard Value>  (1095) 
nan

>  <Assay ChEMBL ID>  (1095) 
nan

>  <Assay Description>  (1095) 
nan

>  <BAO Label>  (1095) 
nan

$$$$

     RDKit          2D

 27 30  0  0  0  0  0  0  0  0999 V2000
   -8.7947    0.2205    0.0000 C   0  0  0  0  0  0  0  0  0  0  0  0
   -9.7984   -0.8943    0.0000 C   0  0  0  0  0  0  0  0  0  0  0  0
  -11.2657   -0.5824    0.0000 O   0  0  0  0  0  0  0  0  0  0  0  0
   -9.3349   -2.3208    0.0000 C   0  0  0  0  0  0  0  0  0  0  0  0
  -10.2166   -3.5344    0.0000 C   0  0  0  0  0  0  0  0  0  0  0  0
  -11.7166   -3.5344    0.0000 C   0  0  0  0  0  0  0  0  0  0  0  0
   -9.3349   -4.7479    0.0000 N   0  0  0  0  0  0  0  0  0  0  0  0
   -7.9083   -4.2844    0.0000 C   0  0  0  0  0  0  0  0  0  0  0  0
   -6.6948   -5.1660    0.0000 C   0  0  0  0  0  0  0  0  0  0  0  0
   -6.8516   -6.6578    0.0000 O   0  0  0  0  0  0  0  0  0  0  0  0
   -5.3245   -4.5559    0.0000 C   0  0  0  0  0  0  0  0  0  0  0  0
   -4.1110   -5.4376    0.0000 O   0  0  0  0  0  0  0  0  0  0  0  0
   -2.7406   -4.8275    0.0000 C   0  0  0  0  0  0  0  0  0  0  0  0
   -1.5271   -5.7092    0.0000 C   0  0  0  0  0  0  0  0  0  0  0  0
   -0.1568   -5.0991    0.0000 C   0  0  0  0  0  0  0  0  0  0  0  0
   -0.0000   -3.6073    0.0000 C   0  0  0  0  0  0  0  0  0  0  0  0
    1.2135   -2.7256    0.0000 O   0  0  0  0  0  0  0  0  0  0  0  0
    0.7500   -1.2990    0.0000 C   0  0  0  0  0  0  0  0  0  0  0  0
    1.5000    0.0000    0.0000 C   0  0  0  0  0  0  0  0  0  0  0  0
    0.7500    1.2990    0.0000 C   0  0  0  0  0  0  0  0  0  0  0  0
   -0.7500    1.2990    0.0000 C   0  0  0  0  0  0  0  0  0  0  0  0
   -1.5000    0.0000    0.0000 C   0  0  0  0  0  0  0  0  0  0  0  0
   -0.7500   -1.2990    0.0000 C   0  0  0  0  0  0  0  0  0  0  0  0
   -1.2135   -2.7256    0.0000 C   0  0  0  0  0  0  0  0  0  0  0  0
   -2.5838   -3.3357    0.0000 C   0  0  0  0  0  0  0  0  0  0  0  0
   -7.9083   -2.7844    0.0000 C   0  0  0  0  0  0  0  0  0  0  0  0
   -6.6948   -1.9027    0.0000 C   0  0  0  0  0  0  0  0  0  0  0  0
  1  2  1  0
  2  3  2  0
  2  4  1  0
  4  5  2  0
  5  6  1  0
  5  7  1  0
  7  8  1  0
  8  9  1  0
  9 10  2  0
  9 11  1  0
 11 12  1  0
 12 13  1  0
 13 14  2  0
 14 15  1  0
 15 16  2  0
 16 17  1  0
 17 18  1  0
 18 19  2  0
 19 20  1  0
 20 21  2  0
 21 22  1  0
 22 23  2  0
 23 24  1  0
 24 25  2  0
  8 26  2  0
 26 27  1  0
 26  4  1  0
 25 13  1  0
 24 16  1  0
 23 18  1  0
M  END
>  <Compound_ID>  (1096) 
C08099441

>  <Active>  (1096) 
0.0

>  <Smiles>  (1096) 
CC(=O)c1c(C)[nH]c(C(=O)COc2ccc3oc4ccccc4c3c2)c1C

>  <canonical_smi>  (1096) 
CC(=O)c1c(C)[nH]c(C(=O)COc2ccc3oc4ccccc4c3c2)c1C

>  <Set>  (1096) 
G2 inactive

>  <Set_type>  (1096) 
Test

>  <MW>  (1096) 
361.4

>  <HBD>  (1096) 
1

>  <HBA>  (1096) 
4

>  <NRB>  (1096) 
5

>  <NR>  (1096) 
4

>  <NAR>  (1096) 
4

>  <PSA>  (1096) 
72.3

>  <Standard Type>  (1096) 
nan

>  <Standard Relation>  (1096) 
nan

>  <Standard Units>  (1096) 
nan

>  <Standard Value>  (1096) 
nan

>  <Assay ChEMBL ID>  (1096) 
nan

>  <Assay Description>  (1096) 
nan

>  <BAO Label>  (1096) 
nan

$$$$

     RDKit          2D

 26 28  0  0  0  0  0  0  0  0999 V2000
    2.1748  -13.7968    0.0000 C   0  0  0  0  0  0  0  0  0  0  0  0
    1.2931  -12.5833    0.0000 C   0  0  0  0  0  0  0  0  0  0  0  0
    1.9033  -11.2129    0.0000 C   0  0  0  0  0  0  0  0  0  0  0  0
    1.0216   -9.9994    0.0000 N   0  0  0  0  0  0  0  0  0  0  0  0
    1.6317   -8.6291    0.0000 C   0  0  0  0  0  0  0  0  0  0  0  0
    3.1235   -8.4723    0.0000 C   0  0  0  0  0  0  0  0  0  0  0  0
    4.0051   -9.6858    0.0000 C   0  0  0  0  0  0  0  0  0  0  0  0
    0.7500   -7.4156    0.0000 C   0  0  0  0  0  0  0  0  0  0  0  0
    1.2135   -5.9890    0.0000 C   0  0  0  0  0  0  0  0  0  0  0  0
    2.6401   -5.5255    0.0000 O   0  0  0  0  0  0  0  0  0  0  0  0
   -0.0000   -5.1073    0.0000 N   0  0  0  0  0  0  0  0  0  0  0  0
   -0.0000   -3.6073    0.0000 C   0  0  0  0  0  0  0  0  0  0  0  0
    1.2135   -2.7256    0.0000 N   0  0  0  0  0  0  0  0  0  0  0  0
    0.7500   -1.2990    0.0000 C   0  0  0  0  0  0  0  0  0  0  0  0
    1.5000    0.0000    0.0000 C   0  0  0  0  0  0  0  0  0  0  0  0
    0.7500    1.2990    0.0000 C   0  0  0  0  0  0  0  0  0  0  0  0
   -0.7500    1.2990    0.0000 C   0  0  0  0  0  0  0  0  0  0  0  0
   -1.5000    0.0000    0.0000 C   0  0  0  0  0  0  0  0  0  0  0  0
   -0.7500   -1.2990    0.0000 C   0  0  0  0  0  0  0  0  0  0  0  0
   -1.2135   -2.7256    0.0000 S   0  0  0  0  0  0  0  0  0  0  0  0
   -1.2135   -5.9890    0.0000 N   0  0  0  0  0  0  0  0  0  0  0  0
   -0.7500   -7.4156    0.0000 C   0  0  0  0  0  0  0  0  0  0  0  0
   -1.6317   -8.6291    0.0000 C   0  0  0  0  0  0  0  0  0  0  0  0
   -2.5134   -9.8426    0.0000 F   0  0  0  0  0  0  0  0  0  0  0  0
   -2.8452   -7.7474    0.0000 F   0  0  0  0  0  0  0  0  0  0  0  0
   -0.4182   -9.5108    0.0000 F   0  0  0  0  0  0  0  0  0  0  0  0
  1  2  1  0
  2  3  1  0
  3  4  1  0
  4  5  1  0
  5  6  1  0
  6  7  1  0
  5  8  2  0
  8  9  1  0
  9 10  2  0
  9 11  1  0
 11 12  1  0
 12 13  2  0
 13 14  1  0
 14 15  2  0
 15 16  1  0
 16 17  2  0
 17 18  1  0
 18 19  2  0
 19 20  1  0
 11 21  1  0
 21 22  2  0
 22 23  1  0
 23 24  1  0
 23 25  1  0
 23 26  1  0
 22  8  1  0
 20 12  1  0
 19 14  1  0
M  END
>  <Compound_ID>  (1097) 
C05977879

>  <Active>  (1097) 
0.0

>  <Smiles>  (1097) 
CCCN/C(CC)=C1/C(=O)N(c2nc3ccccc3s2)N=C1C(F)(F)F

>  <canonical_smi>  (1097) 
CCCN/C(CC)=C1/C(=O)N(c2nc3ccccc3s2)N=C1C(F)(F)F

>  <Set>  (1097) 
G2 inactive

>  <Set_type>  (1097) 
Test

>  <MW>  (1097) 
382.41

>  <HBD>  (1097) 
1

>  <HBA>  (1097) 
3

>  <NRB>  (1097) 
5

>  <NR>  (1097) 
3

>  <NAR>  (1097) 
2

>  <PSA>  (1097) 
57.59

>  <Standard Type>  (1097) 
nan

>  <Standard Relation>  (1097) 
nan

>  <Standard Units>  (1097) 
nan

>  <Standard Value>  (1097) 
nan

>  <Assay ChEMBL ID>  (1097) 
nan

>  <Assay Description>  (1097) 
nan

>  <BAO Label>  (1097) 
nan

$$$$

     RDKit          2D

 21 22  0  0  0  0  0  0  0  0999 V2000
    3.0000    0.0000    0.0000 C   0  0  0  0  0  0  0  0  0  0  0  0
    1.5000    0.0000    0.0000 C   0  0  0  0  0  0  0  0  0  0  0  0
    0.7500   -1.2990    0.0000 C   0  0  0  0  0  0  0  0  0  0  0  0
   -0.7500   -1.2990    0.0000 C   0  0  0  0  0  0  0  0  0  0  0  0
   -1.5000    0.0000    0.0000 C   0  0  0  0  0  0  0  0  0  0  0  0
   -3.0000    0.0000    0.0000 C   0  0  0  0  0  0  0  0  0  0  0  0
   -3.7500    1.2990    0.0000 N   0  0  0  0  0  0  0  0  0  0  0  0
   -3.0000    2.5981    0.0000 N   0  0  0  0  0  0  0  0  0  0  0  0
   -3.7500    3.8971    0.0000 C   0  0  0  0  0  0  0  0  0  0  0  0
   -5.2500    3.8971    0.0000 O   0  0  0  0  0  0  0  0  0  0  0  0
   -3.0000    5.1962    0.0000 C   0  0  0  0  0  0  0  0  0  0  0  0
   -3.6101    6.5665    0.0000 C   0  0  0  0  0  0  0  0  0  0  0  0
   -2.4954    7.5702    0.0000 C   0  0  0  0  0  0  0  0  0  0  0  0
   -2.6522    9.0619    0.0000 C   0  0  0  0  0  0  0  0  0  0  0  0
   -1.1604    9.2187    0.0000 C   0  0  0  0  0  0  0  0  0  0  0  0
   -4.1440    8.9052    0.0000 C   0  0  0  0  0  0  0  0  0  0  0  0
   -2.8090   10.5537    0.0000 C   0  0  0  0  0  0  0  0  0  0  0  0
   -1.1963    6.8202    0.0000 N   0  0  0  0  0  0  0  0  0  0  0  0
   -1.5082    5.3529    0.0000 N   0  0  0  0  0  0  0  0  0  0  0  0
   -0.7500    1.2990    0.0000 C   0  0  0  0  0  0  0  0  0  0  0  0
    0.7500    1.2990    0.0000 C   0  0  0  0  0  0  0  0  0  0  0  0
  1  2  1  0
  2  3  2  0
  3  4  1  0
  4  5  2  0
  5  6  1  0
  6  7  2  0
  7  8  1  0
  8  9  1  0
  9 10  2  0
 11  9  1  1
 11 12  1  0
 12 13  2  0
 13 14  1  0
 14 15  1  0
 14 16  1  0
 14 17  1  0
 13 18  1  0
 18 19  2  0
  5 20  1  0
 20 21  2  0
 21  2  1  0
 19 11  1  0
M  END
>  <Compound_ID>  (1098) 
C39922446

>  <Active>  (1098) 
0.0

>  <Smiles>  (1098) 
Cc1ccc(/C=N\NC(=O)[C@H]2C=C(C(C)(C)C)N=N2)cc1

>  <canonical_smi>  (1098) 
Cc1ccc(/C=N\NC(=O)[C@H]2C=C(C(C)(C)C)N=N2)cc1

>  <Set>  (1098) 
G2 inactive

>  <Set_type>  (1098) 
Test

>  <MW>  (1098) 
284.36

>  <HBD>  (1098) 
1

>  <HBA>  (1098) 
1

>  <NRB>  (1098) 
3

>  <NR>  (1098) 
2

>  <NAR>  (1098) 
1

>  <PSA>  (1098) 
66.18

>  <Standard Type>  (1098) 
nan

>  <Standard Relation>  (1098) 
nan

>  <Standard Units>  (1098) 
nan

>  <Standard Value>  (1098) 
nan

>  <Assay ChEMBL ID>  (1098) 
nan

>  <Assay Description>  (1098) 
nan

>  <BAO Label>  (1098) 
nan

$$$$

     RDKit          2D

 29 33  0  0  0  0  0  0  0  0999 V2000
   -1.5000   -5.1962    0.0000 O   0  0  0  0  0  0  0  0  0  0  0  0
   -0.7500   -3.8971    0.0000 C   0  0  0  0  0  0  0  0  0  0  0  0
    0.7500   -3.8971    0.0000 C   0  0  0  0  0  0  0  0  0  0  0  0
    1.5000   -2.5981    0.0000 C   0  0  0  0  0  0  0  0  0  0  0  0
    3.0000   -2.5981    0.0000 C   0  0  0  0  0  0  0  0  0  0  0  0
    3.7500   -1.2990    0.0000 O   0  0  0  0  0  0  0  0  0  0  0  0
    3.7500   -3.8971    0.0000 N   0  0  0  0  0  0  0  0  0  0  0  0
    5.2500   -3.8971    0.0000 C   0  0  0  0  0  0  0  0  0  0  0  0
    6.0000   -5.1962    0.0000 C   0  0  0  0  0  0  0  0  0  0  0  0
    7.4918   -5.3529    0.0000 C   0  0  0  0  0  0  0  0  0  0  0  0
    7.8037   -6.8202    0.0000 C   0  0  0  0  0  0  0  0  0  0  0  0
    6.5046   -7.5702    0.0000 C   0  0  0  0  0  0  0  0  0  0  0  0
    5.3899   -6.5665    0.0000 O   0  0  0  0  0  0  0  0  0  0  0  0
    3.0000   -5.1962    0.0000 C   0  0  0  0  0  0  0  0  0  0  0  0
    1.5082   -5.3529    0.0000 N   0  0  0  0  0  0  0  0  0  0  0  0
    1.1963   -6.8202    0.0000 C   0  0  0  0  0  0  0  0  0  0  0  0
   -0.1027   -7.5702    0.0000 C   0  0  0  0  0  0  0  0  0  0  0  0
   -0.1027   -9.0702    0.0000 C   0  0  0  0  0  0  0  0  0  0  0  0
    1.1963   -9.8202    0.0000 C   0  0  0  0  0  0  0  0  0  0  0  0
    2.4954   -9.0702    0.0000 C   0  0  0  0  0  0  0  0  0  0  0  0
    2.4954   -7.5702    0.0000 C   0  0  0  0  0  0  0  0  0  0  0  0
    3.6101   -6.5665    0.0000 S   0  0  0  0  0  0  0  0  0  0  0  0
    0.7500   -1.2990    0.0000 C   0  0  0  0  0  0  0  0  0  0  0  0
    1.5000    0.0000    0.0000 C   0  0  0  0  0  0  0  0  0  0  0  0
    0.7500    1.2990    0.0000 C   0  0  0  0  0  0  0  0  0  0  0  0
   -0.7500    1.2990    0.0000 C   0  0  0  0  0  0  0  0  0  0  0  0
   -1.5000    0.0000    0.0000 C   0  0  0  0  0  0  0  0  0  0  0  0
   -0.7500   -1.2990    0.0000 C   0  0  0  0  0  0  0  0  0  0  0  0
   -1.5000   -2.5981    0.0000 N   0  0  0  0  0  4  0  0  0  0  0  0
  1  2  2  0
  2  3  1  0
  3  4  1  0
  4  5  1  0
  5  6  2  0
  5  7  1  0
  7  8  1  0
  9  8  1  1
  9 10  1  0
 10 11  1  0
 11 12  1  0
 12 13  1  0
 14  7  1  6
 14 15  1  0
 15 16  1  0
 16 17  2  0
 17 18  1  0
 18 19  2  0
 19 20  1  0
 20 21  2  0
 21 22  1  0
  4 23  2  0
 23 24  1  0
 24 25  2  0
 25 26  1  0
 26 27  2  0
 27 28  1  0
 28 29  2  0
 29  2  1  0
 13  9  1  0
 22 14  1  0
 28 23  1  0
 21 16  1  0
M  CHG  1  29   1
M  END
>  <Compound_ID>  (1099) 
C39725196

>  <Active>  (1099) 
0.0

>  <Smiles>  (1099) 
O=C1CC(C(=O)N(C[C@H]2CCCO2)[C@H]2Nc3ccccc3S2)=c2ccccc2=[NH+]1

>  <canonical_smi>  (1099) 
O=C1CC(C(=O)N(C[C@H]2CCCO2)[C@H]2Nc3ccccc3S2)=c2ccccc2=[NH+]1

>  <Set>  (1099) 
G2 inactive

>  <Set_type>  (1099) 
Test

>  <MW>  (1099) 
408.5

>  <HBD>  (1099) 
2

>  <HBA>  (1099) 
5

>  <NRB>  (1099) 
4

>  <NR>  (1099) 
5

>  <NAR>  (1099) 
2

>  <PSA>  (1099) 
72.61

>  <Standard Type>  (1099) 
nan

>  <Standard Relation>  (1099) 
nan

>  <Standard Units>  (1099) 
nan

>  <Standard Value>  (1099) 
nan

>  <Assay ChEMBL ID>  (1099) 
nan

>  <Assay Description>  (1099) 
nan

>  <BAO Label>  (1099) 
nan

$$$$

     RDKit          2D

 25 29  0  0  0  0  0  0  0  0999 V2000
    3.7974   -2.4540    0.0000 O   0  0  0  0  0  0  0  0  0  0  0  0
    2.5838   -3.3357    0.0000 C   0  0  0  0  0  0  0  0  0  0  0  0
    2.7406   -4.8275    0.0000 N   0  0  0  0  0  0  0  0  0  0  0  0
    1.5271   -5.7092    0.0000 C   0  0  0  0  0  0  0  0  0  0  0  0
    1.6839   -7.2010    0.0000 C   0  0  0  0  0  0  0  0  0  0  0  0
    0.4704   -8.0826    0.0000 C   0  0  0  0  0  0  0  0  0  0  0  0
    0.6272   -9.5744    0.0000 C   0  0  0  0  0  0  0  0  0  0  0  0
    1.9975  -10.1845    0.0000 C   0  0  0  0  0  0  0  0  0  0  0  0
    2.1543  -11.6763    0.0000 N   0  0  0  0  0  0  0  0  0  0  0  0
    3.4533  -12.4263    0.0000 C   0  0  0  0  0  0  0  0  0  0  0  0
    3.1415  -13.8935    0.0000 C   0  0  0  0  0  0  0  0  0  0  0  0
    1.6497  -14.0503    0.0000 N   0  0  0  0  0  0  0  0  0  0  0  0
    1.0396  -12.6800    0.0000 C   0  0  0  0  0  0  0  0  0  0  0  0
    3.2110   -9.3029    0.0000 N   0  0  0  0  0  0  0  0  0  0  0  0
    3.0542   -7.8111    0.0000 C   0  0  0  0  0  0  0  0  0  0  0  0
    0.1568   -5.0991    0.0000 N   0  0  0  0  0  0  0  0  0  0  0  0
   -0.0000   -3.6073    0.0000 C   0  0  0  0  0  0  0  0  0  0  0  0
   -1.2135   -2.7256    0.0000 S   0  0  0  0  0  0  0  0  0  0  0  0
   -0.7500   -1.2990    0.0000 C   0  0  0  0  0  0  0  0  0  0  0  0
    0.7500   -1.2990    0.0000 C   0  0  0  0  0  0  0  0  0  0  0  0
    1.2135   -2.7256    0.0000 C   0  0  0  0  0  0  0  0  0  0  0  0
    1.5000    0.0000    0.0000 C   0  0  0  0  0  0  0  0  0  0  0  0
    0.7500    1.2990    0.0000 C   0  0  0  0  0  0  0  0  0  0  0  0
   -0.7500    1.2990    0.0000 C   0  0  0  0  0  0  0  0  0  0  0  0
   -1.5000    0.0000    0.0000 S   0  0  0  0  0  0  0  0  0  0  0  0
  1  2  2  0
  2  3  1  0
  3  4  1  0
  4  5  1  0
  5  6  2  0
  6  7  1  0
  7  8  2  0
  8  9  1  0
  9 10  1  0
 10 11  2  0
 11 12  1  0
 12 13  2  0
  8 14  1  0
 14 15  2  0
  4 16  2  0
 16 17  1  0
 17 18  1  0
 18 19  1  0
 19 20  2  0
 20 21  1  0
 20 22  1  0
 22 23  1  0
 23 24  1  0
 24 25  1  0
 21  2  1  0
 15  5  1  0
 21 17  2  0
 13  9  1  0
 25 19  1  0
M  END
>  <Compound_ID>  (1100) 
C66606415

>  <Active>  (1100) 
0.0

>  <Smiles>  (1100) 
O=c1[nH]c(-c2ccc(-n3ccnc3)nc2)nc2sc3c(c12)CCCS3

>  <canonical_smi>  (1100) 
O=c1[nH]c(-c2ccc(-n3ccnc3)nc2)nc2sc3c(c12)CCCS3

>  <Set>  (1100) 
G2 inactive

>  <Set_type>  (1100) 
Test

>  <MW>  (1100) 
367.46

>  <HBD>  (1100) 
1

>  <HBA>  (1100) 
5

>  <NRB>  (1100) 
2

>  <NR>  (1100) 
5

>  <NAR>  (1100) 
4

>  <PSA>  (1100) 
76.46

>  <Standard Type>  (1100) 
nan

>  <Standard Relation>  (1100) 
nan

>  <Standard Units>  (1100) 
nan

>  <Standard Value>  (1100) 
nan

>  <Assay ChEMBL ID>  (1100) 
nan

>  <Assay Description>  (1100) 
nan

>  <BAO Label>  (1100) 
nan

$$$$

     RDKit          2D

 25 28  0  0  0  0  0  0  0  0999 V2000
   -0.6546  -10.1364    0.0000 C   0  0  0  0  0  0  0  0  0  0  0  0
   -0.8113   -8.6446    0.0000 C   0  0  0  0  0  0  0  0  0  0  0  0
   -2.1817   -8.0345    0.0000 C   0  0  0  0  0  0  0  0  0  0  0  0
    0.4022   -7.7629    0.0000 C   0  0  0  0  0  0  0  0  0  0  0  0
    0.2454   -6.2711    0.0000 C   0  0  0  0  0  0  0  0  0  0  0  0
    1.3601   -5.2674    0.0000 C   0  0  0  0  0  0  0  0  0  0  0  0
    0.7500   -3.8971    0.0000 C   0  0  0  0  0  0  0  0  0  0  0  0
    1.5000   -2.5981    0.0000 C   0  0  0  0  0  0  0  0  0  0  0  0
    0.7500   -1.2990    0.0000 N   0  0  0  0  0  0  0  0  0  0  0  0
    1.5000    0.0000    0.0000 C   0  0  0  0  0  0  0  0  0  0  0  0
    0.7500    1.2990    0.0000 C   0  0  0  0  0  0  0  0  0  0  0  0
   -0.7500    1.2990    0.0000 C   0  0  0  0  0  0  0  0  0  0  0  0
   -1.7537    2.4138    0.0000 N   0  0  0  0  0  0  0  0  0  0  0  0
   -3.1240    1.8037    0.0000 N   0  0  0  0  0  0  0  0  0  0  0  0
   -2.9672    0.3119    0.0000 C   0  0  0  0  0  0  0  0  0  0  0  0
   -4.0819   -0.6918    0.0000 C   0  0  0  0  0  0  0  0  0  0  0  0
   -5.5085   -0.2283    0.0000 C   0  0  0  0  0  0  0  0  0  0  0  0
   -6.6232   -1.2320    0.0000 C   0  0  0  0  0  0  0  0  0  0  0  0
   -6.3114   -2.6992    0.0000 C   0  0  0  0  0  0  0  0  0  0  0  0
   -4.8848   -3.1627    0.0000 C   0  0  0  0  0  0  0  0  0  0  0  0
   -3.7701   -2.1590    0.0000 C   0  0  0  0  0  0  0  0  0  0  0  0
   -1.5000    0.0000    0.0000 C   0  0  0  0  0  0  0  0  0  0  0  0
   -0.7500   -1.2990    0.0000 C   0  0  0  0  0  0  0  0  0  0  0  0
   -0.7418   -4.0539    0.0000 N   0  0  0  0  0  0  0  0  0  0  0  0
   -1.0537   -5.5211    0.0000 N   0  0  0  0  0  0  0  0  0  0  0  0
  1  2  1  0
  2  3  1  0
  2  4  1  0
  4  5  1  0
  5  6  1  0
  6  7  2  0
  7  8  1  0
  8  9  1  0
  9 10  1  0
 10 11  1  0
 11 12  1  0
 12 13  2  0
 13 14  1  0
 14 15  1  0
 15 16  1  0
 16 17  2  0
 17 18  1  0
 18 19  2  0
 19 20  1  0
 20 21  2  0
 15 22  2  0
 22 23  1  0
  7 24  1  0
 24 25  1  0
 25  5  2  0
 23  9  1  0
 22 12  1  0
 21 16  1  0
M  END
>  <Compound_ID>  (1101) 
C19224644

>  <Active>  (1101) 
0.0

>  <Smiles>  (1101) 
CC(C)Cc1cc(CN2CCc3n[nH]c(-c4ccccc4)c3C2)[nH]n1

>  <canonical_smi>  (1101) 
CC(C)Cc1cc(CN2CCc3n[nH]c(-c4ccccc4)c3C2)[nH]n1

>  <Set>  (1101) 
G2 inactive

>  <Set_type>  (1101) 
Test

>  <MW>  (1101) 
335.46

>  <HBD>  (1101) 
2

>  <HBA>  (1101) 
3

>  <NRB>  (1101) 
5

>  <NR>  (1101) 
4

>  <NAR>  (1101) 
3

>  <PSA>  (1101) 
60.6

>  <Standard Type>  (1101) 
nan

>  <Standard Relation>  (1101) 
nan

>  <Standard Units>  (1101) 
nan

>  <Standard Value>  (1101) 
nan

>  <Assay ChEMBL ID>  (1101) 
nan

>  <Assay Description>  (1101) 
nan

>  <BAO Label>  (1101) 
nan

$$$$

     RDKit          2D

 20 21  0  0  0  0  0  0  0  0999 V2000
    3.7500   -1.2990    0.0000 C   0  0  0  0  0  0  0  0  0  0  0  0
    3.0000    0.0000    0.0000 O   0  0  0  0  0  0  0  0  0  0  0  0
    1.5000    0.0000    0.0000 C   0  0  0  0  0  0  0  0  0  0  0  0
    0.7500   -1.2990    0.0000 C   0  0  0  0  0  0  0  0  0  0  0  0
   -0.7500   -1.2990    0.0000 C   0  0  0  0  0  0  0  0  0  0  0  0
   -1.5000    0.0000    0.0000 C   0  0  0  0  0  0  0  0  0  0  0  0
   -3.0000    0.0000    0.0000 Br  0  0  0  0  0  0  0  0  0  0  0  0
   -0.7500    1.2990    0.0000 C   0  0  0  0  0  0  0  0  0  0  0  0
    0.7500    1.2990    0.0000 C   0  0  0  0  0  0  0  0  0  0  0  0
    1.5000    2.5981    0.0000 C   0  0  0  0  0  0  0  0  0  0  0  0
    3.0000    2.5981    0.0000 N   0  0  0  0  0  0  0  0  0  0  0  0
    3.7500    3.8971    0.0000 N   0  0  0  0  0  0  0  0  0  0  0  0
    5.2500    3.8971    0.0000 C   0  0  0  0  0  0  0  0  0  0  0  0
    6.0000    2.5981    0.0000 O   0  0  0  0  0  0  0  0  0  0  0  0
    6.0000    5.1962    0.0000 C   0  0  0  0  0  0  0  0  0  0  0  0
    5.3899    6.5665    0.0000 N   0  0  0  0  0  0  0  0  0  0  0  0
    6.5046    7.5702    0.0000 O   0  0  0  0  0  0  0  0  0  0  0  0
    7.8037    6.8202    0.0000 N   0  0  0  0  0  0  0  0  0  0  0  0
    7.4918    5.3529    0.0000 C   0  0  0  0  0  0  0  0  0  0  0  0
    8.4955    4.2382    0.0000 N   0  0  0  0  0  0  0  0  0  0  0  0
  1  2  1  0
  2  3  1  0
  3  4  2  0
  4  5  1  0
  5  6  2  0
  6  7  1  0
  6  8  1  0
  8  9  2  0
  9 10  1  0
 10 11  2  0
 11 12  1  0
 12 13  1  0
 13 14  2  0
 13 15  1  0
 15 16  2  0
 16 17  1  0
 17 18  1  0
 18 19  2  0
 19 20  1  0
  9  3  1  0
 19 15  1  0
M  END
>  <Compound_ID>  (1102) 
C00027804

>  <Active>  (1102) 
0.0

>  <Smiles>  (1102) 
COc1ccc(Br)cc1/C=N/NC(=O)c1nonc1N

>  <canonical_smi>  (1102) 
COc1ccc(Br)cc1/C=N/NC(=O)c1nonc1N

>  <Set>  (1102) 
G2 inactive

>  <Set_type>  (1102) 
Test

>  <MW>  (1102) 
340.14

>  <HBD>  (1102) 
2

>  <HBA>  (1102) 
6

>  <NRB>  (1102) 
4

>  <NR>  (1102) 
2

>  <NAR>  (1102) 
2

>  <PSA>  (1102) 
115.63

>  <Standard Type>  (1102) 
nan

>  <Standard Relation>  (1102) 
nan

>  <Standard Units>  (1102) 
nan

>  <Standard Value>  (1102) 
nan

>  <Assay ChEMBL ID>  (1102) 
nan

>  <Assay Description>  (1102) 
nan

>  <BAO Label>  (1102) 
nan

$$$$

     RDKit          2D

 22 24  0  0  0  0  0  0  0  0999 V2000
    3.7500   -1.2990    0.0000 C   0  0  0  0  0  0  0  0  0  0  0  0
    3.0000    0.0000    0.0000 C   0  0  0  0  0  0  0  0  0  0  0  0
    1.5000    0.0000    0.0000 C   0  0  0  0  0  0  0  0  0  0  0  0
    0.7500   -1.2990    0.0000 C   0  0  0  0  0  0  0  0  0  0  0  0
   -0.7500   -1.2990    0.0000 C   0  0  0  0  0  0  0  0  0  0  0  0
   -1.5000    0.0000    0.0000 C   0  0  0  0  0  0  0  0  0  0  0  0
   -3.0000    0.0000    0.0000 C   0  0  0  0  0  0  0  0  0  0  0  0
   -3.7500    1.2990    0.0000 N   0  0  0  0  0  0  0  0  0  0  0  0
   -3.0000    2.5981    0.0000 N   0  0  0  0  0  0  0  0  0  0  0  0
   -3.6101    3.9684    0.0000 C   0  0  0  0  0  0  0  0  0  0  0  0
   -5.0773    4.2803    0.0000 C   0  0  0  0  0  0  0  0  0  0  0  0
   -5.5409    5.7068    0.0000 C   0  0  0  0  0  0  0  0  0  0  0  0
   -7.0081    6.0187    0.0000 C   0  0  0  0  0  0  0  0  0  0  0  0
   -8.0118    4.9040    0.0000 C   0  0  0  0  0  0  0  0  0  0  0  0
   -7.5482    3.4774    0.0000 N   0  0  0  0  0  0  0  0  0  0  0  0
   -6.0810    3.1655    0.0000 C   0  0  0  0  0  0  0  0  0  0  0  0
   -2.4954    4.9721    0.0000 N   0  0  0  0  0  0  0  0  0  0  0  0
   -1.1963    4.2221    0.0000 N   0  0  0  0  0  0  0  0  0  0  0  0
   -1.5082    2.7549    0.0000 C   0  0  0  0  0  0  0  0  0  0  0  0
   -0.5009    2.0755    0.0000 S   0  0  0  0  0  0  0  0  0  0  0  0
   -0.7500    1.2990    0.0000 C   0  0  0  0  0  0  0  0  0  0  0  0
    0.7500    1.2990    0.0000 C   0  0  0  0  0  0  0  0  0  0  0  0
  1  2  1  0
  2  3  1  0
  3  4  2  0
  4  5  1  0
  5  6  2  0
  6  7  1  0
  7  8  2  0
  8  9  1  0
  9 10  1  0
 10 11  1  0
 11 12  2  0
 12 13  1  0
 13 14  2  0
 14 15  1  0
 15 16  2  0
 10 17  2  0
 17 18  1  0
 18 19  1  0
 19 20  2  0
  6 21  1  0
 21 22  2  0
 22  3  1  0
 19  9  1  0
 16 11  1  0
M  END
>  <Compound_ID>  (1103) 
C01294309

>  <Active>  (1103) 
0.0

>  <Smiles>  (1103) 
CCc1ccc(/C=N\n2c(-c3cccnc3)n[nH]c2=S)cc1

>  <canonical_smi>  (1103) 
CCc1ccc(/C=N\n2c(-c3cccnc3)n[nH]c2=S)cc1

>  <Set>  (1103) 
G2 inactive

>  <Set_type>  (1103) 
Test

>  <MW>  (1103) 
309.4

>  <HBD>  (1103) 
1

>  <HBA>  (1103) 
3

>  <NRB>  (1103) 
4

>  <NR>  (1103) 
3

>  <NAR>  (1103) 
3

>  <PSA>  (1103) 
58.86

>  <Standard Type>  (1103) 
nan

>  <Standard Relation>  (1103) 
nan

>  <Standard Units>  (1103) 
nan

>  <Standard Value>  (1103) 
nan

>  <Assay ChEMBL ID>  (1103) 
nan

>  <Assay Description>  (1103) 
nan

>  <BAO Label>  (1103) 
nan

$$$$

     RDKit          2D

 21 22  0  0  0  0  0  0  0  0999 V2000
   -8.2500    1.2990    0.0000 C   0  0  0  0  0  0  0  0  0  0  0  0
   -7.5000   -0.0000    0.0000 C   0  0  0  0  0  0  0  0  0  0  0  0
   -8.2500   -1.2990    0.0000 C   0  0  0  0  0  0  0  0  0  0  0  0
   -6.0000   -0.0000    0.0000 C   0  0  0  0  0  0  0  0  0  0  0  0
   -5.2500   -1.2990    0.0000 N   0  0  0  0  0  0  0  0  0  0  0  0
   -3.7500   -1.2990    0.0000 C   0  0  0  0  0  0  0  0  0  0  0  0
   -3.0000   -0.0000    0.0000 O   0  0  0  0  0  0  0  0  0  0  0  0
   -3.0000   -2.5981    0.0000 C   0  0  0  0  0  0  0  0  0  0  0  0
   -1.5000   -2.5981    0.0000 N   0  0  0  0  0  0  0  0  0  0  0  0
   -0.7500   -3.8971    0.0000 C   0  0  0  0  0  0  0  0  0  0  0  0
   -1.5000   -5.1962    0.0000 O   0  0  0  0  0  0  0  0  0  0  0  0
    0.7500   -3.8971    0.0000 C   0  0  0  0  0  0  0  0  0  0  0  0
    1.5000   -5.1962    0.0000 C   0  0  0  0  0  0  0  0  0  0  0  0
    1.5000   -2.5981    0.0000 O   0  0  0  0  0  0  0  0  0  0  0  0
    0.7500   -1.2990    0.0000 C   0  0  0  0  0  0  0  0  0  0  0  0
    1.5000    0.0000    0.0000 C   0  0  0  0  0  0  0  0  0  0  0  0
    0.7500    1.2990    0.0000 C   0  0  0  0  0  0  0  0  0  0  0  0
   -0.7500    1.2990    0.0000 C   0  0  0  0  0  0  0  0  0  0  0  0
   -1.5000    2.5981    0.0000 Cl  0  0  0  0  0  0  0  0  0  0  0  0
   -1.5000    0.0000    0.0000 C   0  0  0  0  0  0  0  0  0  0  0  0
   -0.7500   -1.2990    0.0000 C   0  0  0  0  0  0  0  0  0  0  0  0
  1  2  1  0
  2  3  1  0
  2  4  1  0
  4  5  1  0
  5  6  1  0
  6  7  2  0
  6  8  1  0
  8  9  1  0
  9 10  1  0
 10 11  2  0
 10 12  1  0
 12 13  1  1
 12 14  1  0
 14 15  1  0
 15 16  2  0
 16 17  1  0
 17 18  2  0
 18 19  1  0
 18 20  1  0
 20 21  2  0
 21  9  1  0
 21 15  1  0
M  END
>  <Compound_ID>  (1104) 
C19989945

>  <Active>  (1104) 
0.0

>  <Smiles>  (1104) 
CC(C)CNC(=O)CN1C(=O)[C@H](C)Oc2ccc(Cl)cc21

>  <canonical_smi>  (1104) 
CC(C)CNC(=O)CN1C(=O)[C@H](C)Oc2ccc(Cl)cc21

>  <Set>  (1104) 
G2 inactive

>  <Set_type>  (1104) 
Test

>  <MW>  (1104) 
310.78

>  <HBD>  (1104) 
1

>  <HBA>  (1104) 
3

>  <NRB>  (1104) 
4

>  <NR>  (1104) 
2

>  <NAR>  (1104) 
1

>  <PSA>  (1104) 
58.64

>  <Standard Type>  (1104) 
nan

>  <Standard Relation>  (1104) 
nan

>  <Standard Units>  (1104) 
nan

>  <Standard Value>  (1104) 
nan

>  <Assay ChEMBL ID>  (1104) 
nan

>  <Assay Description>  (1104) 
nan

>  <BAO Label>  (1104) 
nan

$$$$

     RDKit          2D

 25 27  0  0  0  0  0  0  0  0999 V2000
    5.4366  -10.9447    0.0000 C   0  0  0  0  0  0  0  0  0  0  0  0
    4.5550   -9.7312    0.0000 C   0  0  0  0  0  0  0  0  0  0  0  0
    5.1651   -8.3609    0.0000 C   0  0  0  0  0  0  0  0  0  0  0  0
    3.0632   -9.8880    0.0000 N   0  0  0  0  0  0  0  0  0  0  0  0
    2.1815   -8.6745    0.0000 C   0  0  0  0  0  0  0  0  0  0  0  0
    2.7916   -7.3041    0.0000 O   0  0  0  0  0  0  0  0  0  0  0  0
    0.6897   -8.8313    0.0000 C   0  0  0  0  0  0  0  0  0  0  0  0
   -0.1920   -7.6177    0.0000 N   0  0  0  0  0  0  0  0  0  0  0  0
    0.4182   -6.2474    0.0000 C   0  0  0  0  0  0  0  0  0  0  0  0
    1.9099   -6.0906    0.0000 O   0  0  0  0  0  0  0  0  0  0  0  0
   -0.4635   -5.0339    0.0000 N   0  0  0  0  0  0  0  0  0  0  0  0
   -1.9635   -5.0339    0.0000 C   0  0  0  0  0  0  0  0  0  0  0  0
   -2.4271   -3.6073    0.0000 C   0  0  0  0  0  0  0  0  0  0  0  0
   -1.2135   -2.7256    0.0000 N   0  0  0  0  0  0  0  0  0  0  0  0
   -0.0000   -3.6073    0.0000 C   0  0  0  0  0  0  0  0  0  0  0  0
    1.2135   -2.7256    0.0000 N   0  0  0  0  0  0  0  0  0  0  0  0
    0.7500   -1.2990    0.0000 C   0  0  0  0  0  0  0  0  0  0  0  0
    1.5000    0.0000    0.0000 C   0  0  0  0  0  0  0  0  0  0  0  0
    0.7500    1.2990    0.0000 C   0  0  0  0  0  0  0  0  0  0  0  0
   -0.7500    1.2990    0.0000 C   0  0  0  0  0  0  0  0  0  0  0  0
   -1.5000    0.0000    0.0000 C   0  0  0  0  0  0  0  0  0  0  0  0
   -0.7500   -1.2990    0.0000 C   0  0  0  0  0  0  0  0  0  0  0  0
    0.0796  -10.2016    0.0000 C   0  0  0  0  0  0  0  0  0  0  0  0
    0.9613  -11.4151    0.0000 C   0  0  0  0  0  0  0  0  0  0  0  0
   -1.4122  -10.3584    0.0000 C   0  0  0  0  0  0  0  0  0  0  0  0
  1  2  1  0
  2  3  1  0
  2  4  1  0
  4  5  1  0
  5  6  2  0
  5  7  1  0
  7  8  1  6
  8  9  1  0
  9 10  2  0
  9 11  1  0
 11 12  1  0
 12 13  1  0
 13 14  1  0
 14 15  1  0
 15 16  2  0
 16 17  1  0
 17 18  2  0
 18 19  1  0
 19 20  2  0
 20 21  1  0
 21 22  2  0
  7 23  1  0
 23 24  1  0
 23 25  1  0
 15 11  1  0
 22 17  1  0
 22 14  1  0
M  END
>  <Compound_ID>  (1105) 
C05487298

>  <Active>  (1105) 
0.0

>  <Smiles>  (1105) 
CC(C)NC(=O)[C@@H](NC(=O)N1CCn2c1nc1ccccc12)C(C)C

>  <canonical_smi>  (1105) 
CC(C)NC(=O)[C@@H](NC(=O)N1CCn2c1nc1ccccc12)C(C)C

>  <Set>  (1105) 
G2 inactive

>  <Set_type>  (1105) 
Test

>  <MW>  (1105) 
343.43

>  <HBD>  (1105) 
2

>  <HBA>  (1105) 
3

>  <NRB>  (1105) 
4

>  <NR>  (1105) 
3

>  <NAR>  (1105) 
2

>  <PSA>  (1105) 
79.26

>  <Standard Type>  (1105) 
nan

>  <Standard Relation>  (1105) 
nan

>  <Standard Units>  (1105) 
nan

>  <Standard Value>  (1105) 
nan

>  <Assay ChEMBL ID>  (1105) 
nan

>  <Assay Description>  (1105) 
nan

>  <BAO Label>  (1105) 
nan

$$$$

     RDKit          2D

 26 28  0  0  0  0  0  0  0  0999 V2000
    3.0000    0.0000    0.0000 C   0  0  0  0  0  0  0  0  0  0  0  0
    1.5000    0.0000    0.0000 C   0  0  0  0  0  0  0  0  0  0  0  0
    0.7500   -1.2990    0.0000 N   0  0  0  0  0  0  0  0  0  0  0  0
   -0.7500   -1.2990    0.0000 C   0  0  0  0  0  0  0  0  0  0  0  0
   -1.5000   -2.5981    0.0000 C   0  0  0  0  0  0  0  0  0  0  0  0
   -2.7990   -1.8481    0.0000 C   0  0  0  0  0  0  0  0  0  0  0  0
   -0.2010   -3.3481    0.0000 C   0  0  0  0  0  0  0  0  0  0  0  0
   -2.2500   -3.8971    0.0000 C   0  0  0  0  0  0  0  0  0  0  0  0
   -1.5000    0.0000    0.0000 N   0  0  0  0  0  0  0  0  0  0  0  0
   -0.7500    1.2990    0.0000 C   0  0  0  0  0  0  0  0  0  0  0  0
   -1.2135    2.7256    0.0000 S   0  0  0  0  0  0  0  0  0  0  0  0
   -0.0000    3.6073    0.0000 C   0  0  0  0  0  0  0  0  0  0  0  0
   -0.0000    5.1073    0.0000 C   0  0  0  0  0  0  0  0  0  0  0  0
    1.2990    5.8573    0.0000 O   0  0  0  0  0  0  0  0  0  0  0  0
   -1.2990    5.8573    0.0000 N   0  0  0  0  0  0  0  0  0  0  0  0
   -1.2990    7.3573    0.0000 C   0  0  0  0  0  0  0  0  0  0  0  0
   -2.5981    8.1073    0.0000 C   0  0  0  0  0  0  0  0  0  0  0  0
   -3.8971    7.3573    0.0000 O   0  0  0  0  0  0  0  0  0  0  0  0
   -3.8971    5.8573    0.0000 C   0  0  0  0  0  0  0  0  0  0  0  0
   -5.1962    5.1073    0.0000 C   0  0  0  0  0  0  0  0  0  0  0  0
   -6.4952    5.8573    0.0000 N   0  0  0  0  0  0  0  0  0  0  0  0
   -5.1962    3.6073    0.0000 O   0  0  0  0  0  0  0  0  0  0  0  0
   -2.5981    5.1073    0.0000 C   0  0  0  0  0  0  0  0  0  0  0  0
    1.2135    2.7256    0.0000 C   0  0  0  0  0  0  0  0  0  0  0  0
    2.6401    3.1891    0.0000 C   0  0  0  0  0  0  0  0  0  0  0  0
    0.7500    1.2990    0.0000 C   0  0  0  0  0  0  0  0  0  0  0  0
  1  2  1  0
  2  3  2  0
  3  4  1  0
  4  5  1  0
  5  6  1  0
  5  7  1  0
  5  8  1  0
  4  9  2  0
  9 10  1  0
 10 11  1  0
 11 12  1  0
 12 13  1  0
 13 14  2  0
 13 15  1  0
 15 16  1  0
 16 17  1  0
 17 18  1  0
 18 19  1  0
 19 20  1  1
 20 21  1  0
 20 22  2  0
 19 23  1  0
 12 24  2  0
 24 25  1  0
 24 26  1  0
 26  2  1  0
 26 10  2  0
 23 15  1  0
M  END
>  <Compound_ID>  (1106) 
C50854234

>  <Active>  (1106) 
0.0

>  <Smiles>  (1106) 
Cc1nc(C(C)(C)C)nc2sc(C(=O)N3CCO[C@H](C(N)=O)C3)c(C)c12

>  <canonical_smi>  (1106) 
Cc1nc(C(C)(C)C)nc2sc(C(=O)N3CCO[C@H](C(N)=O)C3)c(C)c12

>  <Set>  (1106) 
G2 inactive

>  <Set_type>  (1106) 
Test

>  <MW>  (1106) 
376.48

>  <HBD>  (1106) 
1

>  <HBA>  (1106) 
5

>  <NRB>  (1106) 
2

>  <NR>  (1106) 
3

>  <NAR>  (1106) 
2

>  <PSA>  (1106) 
98.41

>  <Standard Type>  (1106) 
nan

>  <Standard Relation>  (1106) 
nan

>  <Standard Units>  (1106) 
nan

>  <Standard Value>  (1106) 
nan

>  <Assay ChEMBL ID>  (1106) 
nan

>  <Assay Description>  (1106) 
nan

>  <BAO Label>  (1106) 
nan

$$$$

     RDKit          2D

 28 32  0  0  0  0  0  0  0  0999 V2000
    1.5000    0.0000    0.0000 C   0  0  0  0  0  0  0  0  0  0  0  0
    0.7500   -1.2990    0.0000 C   0  0  0  0  0  0  0  0  0  0  0  0
   -0.7500   -1.2990    0.0000 C   0  0  0  0  0  0  0  0  0  0  0  0
   -1.5000    0.0000    0.0000 C   0  0  0  0  0  0  0  0  0  0  0  0
   -3.0000    0.0000    0.0000 C   0  0  0  0  0  0  0  0  0  0  0  0
   -3.8817   -1.2135    0.0000 N   0  0  0  0  0  0  0  0  0  0  0  0
   -5.3083   -0.7500    0.0000 C   0  0  0  0  0  0  0  0  0  0  0  0
   -5.3083    0.7500    0.0000 N   0  0  0  0  0  4  0  0  0  0  0  0
   -6.5218    1.6317    0.0000 C   0  0  0  0  0  0  0  0  0  0  0  0
   -7.8921    1.0216    0.0000 C   0  0  0  0  0  0  0  0  0  0  0  0
   -9.1911    1.7716    0.0000 N   0  0  0  0  0  0  0  0  0  0  0  0
  -10.3059    0.7679    0.0000 C   0  0  0  0  0  0  0  0  0  0  0  0
   -9.6958   -0.6024    0.0000 N   0  0  0  0  0  0  0  0  0  0  0  0
   -8.2040   -0.4456    0.0000 N   0  0  0  0  0  0  0  0  0  0  0  0
   -3.8817    1.2135    0.0000 C   0  0  0  0  0  0  0  0  0  0  0  0
   -3.4182    2.6401    0.0000 C   0  0  0  0  0  0  0  0  0  0  0  0
   -1.9509    2.9520    0.0000 C   0  0  0  0  0  0  0  0  0  0  0  0
   -1.4874    4.3786    0.0000 C   0  0  0  0  0  0  0  0  0  0  0  0
   -2.4911    5.4933    0.0000 C   0  0  0  0  0  0  0  0  0  0  0  0
   -2.0276    6.9199    0.0000 N   0  0  0  0  0  0  0  0  0  0  0  0
   -2.9093    8.1334    0.0000 C   0  0  0  0  0  0  0  0  0  0  0  0
   -2.0276    9.3469    0.0000 C   0  0  0  0  0  0  0  0  0  0  0  0
   -0.6010    8.8834    0.0000 C   0  0  0  0  0  0  0  0  0  0  0  0
   -0.6010    7.3834    0.0000 N   0  0  0  0  0  0  0  0  0  0  0  0
   -3.9583    5.1814    0.0000 C   0  0  0  0  0  0  0  0  0  0  0  0
   -4.4218    3.7548    0.0000 C   0  0  0  0  0  0  0  0  0  0  0  0
   -0.7500    1.2990    0.0000 C   0  0  0  0  0  0  0  0  0  0  0  0
    0.7500    1.2990    0.0000 C   0  0  0  0  0  0  0  0  0  0  0  0
  1  2  2  0
  2  3  1  0
  3  4  2  0
  5  4  1  1
  5  6  1  0
  6  7  1  0
  7  8  1  0
  8  9  1  0
  9 10  1  0
 10 11  1  0
 11 12  2  0
 12 13  1  0
 13 14  1  0
  8 15  1  0
 15 16  1  6
 16 17  2  0
 17 18  1  0
 18 19  2  0
 19 20  1  0
 20 21  1  0
 21 22  2  0
 22 23  1  0
 23 24  2  0
 19 25  1  0
 25 26  2  0
  4 27  1  0
 27 28  2  0
 28  1  1  0
 15  5  1  0
 26 16  1  0
 14 10  2  0
 24 20  1  0
M  CHG  1   8   1
M  END
>  <Compound_ID>  (1107) 
C65369771

>  <Active>  (1107) 
0.0

>  <Smiles>  (1107) 
c1ccc([C@H]2NC[NH+](Cc3nc[nH]n3)[C@@H]2c2ccc(-n3cccn3)cc2)cc1

>  <canonical_smi>  (1107) 
c1ccc([C@H]2NC[NH+](Cc3nc[nH]n3)[C@@H]2c2ccc(-n3cccn3)cc2)cc1

>  <Set>  (1107) 
G2 inactive

>  <Set_type>  (1107) 
Test

>  <MW>  (1107) 
372.46

>  <HBD>  (1107) 
3

>  <HBA>  (1107) 
4

>  <NRB>  (1107) 
5

>  <NR>  (1107) 
5

>  <NAR>  (1107) 
4

>  <PSA>  (1107) 
75.86

>  <Standard Type>  (1107) 
nan

>  <Standard Relation>  (1107) 
nan

>  <Standard Units>  (1107) 
nan

>  <Standard Value>  (1107) 
nan

>  <Assay ChEMBL ID>  (1107) 
nan

>  <Assay Description>  (1107) 
nan

>  <BAO Label>  (1107) 
nan

$$$$

     RDKit          2D

 35 40  0  0  0  0  0  0  0  0999 V2000
    8.3202   -8.9017    0.0000 C   0  0  0  0  0  0  0  0  0  0  0  0
    8.3202   -7.4017    0.0000 O   0  0  0  0  0  0  0  0  0  0  0  0
    7.0211   -6.6517    0.0000 C   0  0  0  0  0  0  0  0  0  0  0  0
    5.7221   -7.4017    0.0000 C   0  0  0  0  0  0  0  0  0  0  0  0
    4.4231   -6.6517    0.0000 C   0  0  0  0  0  0  0  0  0  0  0  0
    4.4231   -5.1517    0.0000 C   0  0  0  0  0  0  0  0  0  0  0  0
    3.1240   -4.4017    0.0000 C   0  0  0  0  0  0  0  0  0  0  0  0
    2.9672   -2.9099    0.0000 C   0  0  0  0  0  0  0  0  0  0  0  0
    1.5000   -2.5981    0.0000 C   0  0  0  0  0  0  0  0  0  0  0  0
    0.7500   -1.2990    0.0000 C   0  0  0  0  0  0  0  0  0  0  0  0
    1.5000    0.0000    0.0000 C   0  0  0  0  0  0  0  0  0  0  0  0
    0.7500    1.2990    0.0000 C   0  0  0  0  0  0  0  0  0  0  0  0
   -0.7500    1.2990    0.0000 C   0  0  0  0  0  0  0  0  0  0  0  0
   -1.5000    0.0000    0.0000 C   0  0  0  0  0  0  0  0  0  0  0  0
   -0.7500   -1.2990    0.0000 C   0  0  0  0  0  0  0  0  0  0  0  0
   -1.5000   -2.5981    0.0000 O   0  0  0  0  0  0  0  0  0  0  0  0
   -0.7500   -3.8971    0.0000 C   0  0  0  0  0  0  0  0  0  0  0  0
   -2.2500   -3.8971    0.0000 C   0  0  0  0  0  0  0  0  0  0  0  0
   -3.0000   -5.1962    0.0000 C   0  0  0  0  0  0  0  0  0  0  0  0
   -2.2500   -6.4952    0.0000 N   0  0  0  0  0  4  0  0  0  0  0  0
   -3.0000   -7.7942    0.0000 C   0  0  0  0  0  0  0  0  0  0  0  0
   -4.5000   -7.7942    0.0000 C   0  0  0  0  0  0  0  0  0  0  0  0
   -5.2500   -6.4952    0.0000 C   0  0  0  0  0  0  0  0  0  0  0  0
   -6.7500   -6.4952    0.0000 C   0  0  0  0  0  0  0  0  0  0  0  0
   -7.5000   -7.7942    0.0000 C   0  0  0  0  0  0  0  0  0  0  0  0
   -6.7500   -9.0933    0.0000 C   0  0  0  0  0  0  0  0  0  0  0  0
   -5.2500   -9.0933    0.0000 C   0  0  0  0  0  0  0  0  0  0  0  0
   -0.7500   -6.4952    0.0000 C   0  0  0  0  0  0  0  0  0  0  0  0
   -0.0000   -5.1962    0.0000 C   0  0  0  0  0  0  0  0  0  0  0  0
    0.7500   -3.8971    0.0000 N   0  0  0  0  0  0  0  0  0  0  0  0
    1.7537   -5.0118    0.0000 N   0  0  0  0  0  0  0  0  0  0  0  0
    5.7221   -4.4017    0.0000 C   0  0  0  0  0  0  0  0  0  0  0  0
    7.0211   -5.1517    0.0000 C   0  0  0  0  0  0  0  0  0  0  0  0
    8.3202   -4.4017    0.0000 O   0  0  0  0  0  0  0  0  0  0  0  0
    8.3202   -2.9017    0.0000 C   0  0  0  0  0  0  0  0  0  0  0  0
  1  2  1  0
  2  3  1  0
  3  4  2  0
  4  5  1  0
  5  6  2  0
  6  7  1  0
  7  8  2  0
  9  8  1  6
  9 10  1  0
 10 11  2  0
 11 12  1  0
 12 13  2  0
 13 14  1  0
 14 15  2  0
 15 16  1  0
 16 17  1  0
 17 18  1  0
 18 19  1  0
 19 20  1  0
 20 21  1  0
 21 22  1  0
 22 23  2  0
 23 24  1  0
 24 25  2  0
 25 26  1  0
 26 27  2  0
 20 28  1  0
 28 29  1  0
 17 30  1  0
 30 31  1  0
  6 32  1  0
 32 33  2  0
 33 34  1  0
 34 35  1  0
 33  3  1  0
 31  7  1  0
 30  9  1  0
 15 10  1  0
 29 17  1  0
 27 22  1  0
M  CHG  1  20   1
M  END
>  <Compound_ID>  (1108) 
C01828906

>  <Active>  (1108) 
0.0

>  <Smiles>  (1108) 
COc1ccc(C2=C[C@H]3c4ccccc4OC4(CC[NH+](Cc5ccccc5)CC4)N3N2)cc1OC

>  <canonical_smi>  (1108) 
COc1ccc(C2=C[C@H]3c4ccccc4OC4(CC[NH+](Cc5ccccc5)CC4)N3N2)cc1OC

>  <Set>  (1108) 
G2 inactive

>  <Set_type>  (1108) 
Test

>  <MW>  (1108) 
470.59

>  <HBD>  (1108) 
2

>  <HBA>  (1108) 
5

>  <NRB>  (1108) 
5

>  <NR>  (1108) 
6

>  <NAR>  (1108) 
3

>  <PSA>  (1108) 
47.4

>  <Standard Type>  (1108) 
nan

>  <Standard Relation>  (1108) 
nan

>  <Standard Units>  (1108) 
nan

>  <Standard Value>  (1108) 
nan

>  <Assay ChEMBL ID>  (1108) 
nan

>  <Assay Description>  (1108) 
nan

>  <BAO Label>  (1108) 
nan

$$$$

     RDKit          2D

 35 39  0  0  0  0  0  0  0  0999 V2000
   -4.2135  -10.5199    0.0000 C   0  0  0  0  0  0  0  0  0  0  0  0
   -3.4635   -9.2208    0.0000 C   0  0  0  0  0  0  0  0  0  0  0  0
   -4.2135   -7.9218    0.0000 O   0  0  0  0  0  0  0  0  0  0  0  0
   -3.4635   -6.6227    0.0000 C   0  0  0  0  0  0  0  0  0  0  0  0
   -4.2135   -5.3237    0.0000 C   0  0  0  0  0  0  0  0  0  0  0  0
   -3.4635   -4.0247    0.0000 C   0  0  0  0  0  0  0  0  0  0  0  0
   -1.9635   -4.0247    0.0000 C   0  0  0  0  0  0  0  0  0  0  0  0
   -1.2135   -2.7256    0.0000 C   0  0  0  0  0  0  0  0  0  0  0  0
   -2.5838   -2.1155    0.0000 C   0  0  0  0  0  0  0  0  0  0  0  0
   -2.7406   -0.6237    0.0000 C   0  0  0  0  0  0  0  0  0  0  0  0
   -4.1110   -0.0136    0.0000 C   0  0  0  0  0  0  0  0  0  0  0  0
   -5.3245   -0.8953    0.0000 C   0  0  0  0  0  0  0  0  0  0  0  0
   -5.1677   -2.3871    0.0000 C   0  0  0  0  0  0  0  0  0  0  0  0
   -6.3812   -3.2688    0.0000 C   0  0  0  0  0  0  0  0  0  0  0  0
   -6.2244   -4.7606    0.0000 C   0  0  0  0  0  0  0  0  0  0  0  0
   -7.4379   -5.6422    0.0000 C   0  0  0  0  0  0  0  0  0  0  0  0
   -8.8083   -5.0321    0.0000 C   0  0  0  0  0  0  0  0  0  0  0  0
   -8.9651   -3.5403    0.0000 N   0  0  0  0  0  0  0  0  0  0  0  0
   -7.7515   -2.6587    0.0000 C   0  0  0  0  0  0  0  0  0  0  0  0
   -7.9083   -1.1669    0.0000 F   0  0  0  0  0  0  0  0  0  0  0  0
   -3.7974   -2.9972    0.0000 C   0  0  0  0  0  0  0  0  0  0  0  0
   -0.0000   -3.6073    0.0000 N   0  0  0  0  0  0  0  0  0  0  0  0
    1.2135   -2.7256    0.0000 C   0  0  0  0  0  0  0  0  0  0  0  0
    2.6401   -3.1891    0.0000 N   0  0  0  0  0  0  0  0  0  0  0  0
    0.7500   -1.2990    0.0000 N   0  0  0  0  0  0  0  0  0  0  0  0
    1.5000    0.0000    0.0000 C   0  0  0  0  0  0  0  0  0  0  0  0
    0.7500    1.2990    0.0000 C   0  0  0  0  0  0  0  0  0  0  0  0
   -0.7500    1.2990    0.0000 C   0  0  0  0  0  0  0  0  0  0  0  0
   -1.5000    0.0000    0.0000 N   0  0  0  0  0  4  0  0  0  0  0  0
   -0.7500   -1.2990    0.0000 C   0  0  0  0  0  0  0  0  0  0  0  0
   -1.2135   -5.3237    0.0000 C   0  0  0  0  0  0  0  0  0  0  0  0
   -1.9635   -6.6227    0.0000 C   0  0  0  0  0  0  0  0  0  0  0  0
   -1.2135   -7.9218    0.0000 O   0  0  0  0  0  0  0  0  0  0  0  0
    0.2865   -7.9218    0.0000 C   0  0  0  0  0  0  0  0  0  0  0  0
    1.0365   -9.2208    0.0000 C   0  0  0  0  0  0  0  0  0  0  0  0
  1  2  1  0
  2  3  1  0
  3  4  1  0
  4  5  2  0
  5  6  1  0
  6  7  2  0
  8  7  1  1
  8  9  1  0
  9 10  2  0
 10 11  1  0
 11 12  2  0
 12 13  1  0
 13 14  1  0
 14 15  2  0
 15 16  1  0
 16 17  2  0
 17 18  1  0
 18 19  2  0
 19 20  1  0
 13 21  2  0
  8 22  1  0
 22 23  2  0
 23 24  1  0
 23 25  1  0
 25 26  1  0
 26 27  1  0
 27 28  1  0
 28 29  1  0
 29 30  2  0
  7 31  1  0
 31 32  2  0
 32 33  1  0
 33 34  1  0
 34 35  1  0
 32  4  1  0
 30  8  1  0
 21  9  1  0
 30 25  1  0
 19 14  1  0
M  CHG  1  29   1
M  END
>  <Compound_ID>  (1109) 
C45245723

>  <Active>  (1109) 
0.0

>  <Smiles>  (1109) 
CCOc1ccc([C@]2(c3cccc(-c4cccnc4F)c3)N=C(N)N3CCC[NH+]=C32)cc1OCC

>  <canonical_smi>  (1109) 
CCOc1ccc([C@]2(c3cccc(-c4cccnc4F)c3)N=C(N)N3CCC[NH+]=C32)cc1OCC

>  <Set>  (1109) 
G2 inactive

>  <Set_type>  (1109) 
Test

>  <MW>  (1109) 
474.56

>  <HBD>  (1109) 
2

>  <HBA>  (1109) 
5

>  <NRB>  (1109) 
7

>  <NR>  (1109) 
5

>  <NAR>  (1109) 
3

>  <PSA>  (1109) 
86.94

>  <Standard Type>  (1109) 
nan

>  <Standard Relation>  (1109) 
nan

>  <Standard Units>  (1109) 
nan

>  <Standard Value>  (1109) 
nan

>  <Assay ChEMBL ID>  (1109) 
nan

>  <Assay Description>  (1109) 
nan

>  <BAO Label>  (1109) 
nan

$$$$

     RDKit          2D

 29 32  0  0  0  0  0  0  0  0999 V2000
   -9.7500   -6.4952    0.0000 N   0  0  0  0  0  0  0  0  0  0  0  0
   -8.2500   -6.4952    0.0000 C   0  0  0  0  0  0  0  0  0  0  0  0
   -7.5000   -7.7942    0.0000 O   0  0  0  0  0  0  0  0  0  0  0  0
   -7.5000   -5.1962    0.0000 C   0  0  0  0  0  0  0  0  0  0  0  0
   -6.0000   -5.1962    0.0000 C   0  0  0  0  0  0  0  0  0  0  0  0
   -5.2500   -3.8971    0.0000 N   0  0  0  0  0  0  0  0  0  0  0  0
   -3.7500   -3.8971    0.0000 C   0  0  0  0  0  0  0  0  0  0  0  0
   -3.6978   -5.3962    0.0000 O   0  0  0  0  0  0  0  0  0  0  0  0
   -3.0000   -2.5981    0.0000 C   0  0  0  0  0  0  0  0  0  0  0  0
   -3.7500   -1.2990    0.0000 O   0  0  0  0  0  0  0  0  0  0  0  0
   -1.5000   -2.5981    0.0000 N   0  0  0  0  0  0  0  0  0  0  0  0
   -0.7500   -1.2990    0.0000 C   0  0  0  0  0  0  0  0  0  0  0  0
    0.7500   -1.2990    0.0000 C   0  0  0  0  0  0  0  0  0  0  0  0
    1.5000    0.0000    0.0000 C   0  0  0  0  0  0  0  0  0  0  0  0
    0.7500    1.2990    0.0000 C   0  0  0  0  0  0  0  0  0  0  0  0
   -0.7500    1.2990    0.0000 C   0  0  0  0  0  0  0  0  0  0  0  0
   -1.5000    0.0000    0.0000 C   0  0  0  0  0  0  0  0  0  0  0  0
   -2.2500   -1.2990    0.0000 C   0  0  0  0  0  0  0  0  0  0  0  0
   -1.5000   -2.5981    0.0000 N   0  0  0  0  0  4  0  0  0  0  0  0
   -2.2500   -3.8971    0.0000 C   0  0  0  0  0  0  0  0  0  0  0  0
   -2.2500   -5.3971    0.0000 C   0  0  0  0  0  0  0  0  0  0  0  0
   -3.5490   -4.6471    0.0000 C   0  0  0  0  0  0  0  0  0  0  0  0
   -0.0000   -2.5981    0.0000 C   0  0  0  0  0  0  0  0  0  0  0  0
   -6.0000   -2.5981    0.0000 C   0  0  0  0  0  0  0  0  0  0  0  0
   -5.2500   -1.2990    0.0000 C   0  0  0  0  0  0  0  0  0  0  0  0
   -6.0000    0.0000    0.0000 C   0  0  0  0  0  0  0  0  0  0  0  0
   -7.5000    0.0000    0.0000 C   0  0  0  0  0  0  0  0  0  0  0  0
   -8.2500   -1.2990    0.0000 C   0  0  0  0  0  0  0  0  0  0  0  0
   -7.5000   -2.5981    0.0000 C   0  0  0  0  0  0  0  0  0  0  0  0
  1  2  1  0
  2  3  2  0
  2  4  1  0
  4  5  1  0
  5  6  1  0
  6  7  1  0
  7  8  2  0
  7  9  1  0
  9 10  2  0
  9 11  1  0
 11 12  1  0
 12 13  1  0
 13 14  1  6
 14 15  1  0
 15 16  1  0
 17 16  1  6
 17 18  1  0
 18 19  1  0
 19 20  1  0
 20 21  1  0
 21 22  1  0
 19 23  1  0
  6 24  1  0
 24 25  2  0
 25 26  1  0
 26 27  2  0
 27 28  1  0
 28 29  2  0
 17 12  1  0
 22 20  1  0
 29 24  1  0
 23 13  1  0
M  CHG  1  19   1
M  END
>  <Compound_ID>  (1110) 
C67414887

>  <Active>  (1110) 
0.0

>  <Smiles>  (1110) 
NC(=O)CCN(C(=O)C(=O)NC1[C@@H]2CCC[C@H]1C[NH+](C1CC1)C2)c1ccccc1

>  <canonical_smi>  (1110) 
NC(=O)CCN(C(=O)C(=O)NC1[C@H]2CCC[C@@H]1C[NH+](C1CC1)C2)c1ccccc1

>  <Set>  (1110) 
G2 inactive

>  <Set_type>  (1110) 
Test

>  <MW>  (1110) 
399.52

>  <HBD>  (1110) 
3

>  <HBA>  (1110) 
3

>  <NRB>  (1110) 
6

>  <NR>  (1110) 
4

>  <NAR>  (1110) 
1

>  <PSA>  (1110) 
96.94

>  <Standard Type>  (1110) 
nan

>  <Standard Relation>  (1110) 
nan

>  <Standard Units>  (1110) 
nan

>  <Standard Value>  (1110) 
nan

>  <Assay ChEMBL ID>  (1110) 
nan

>  <Assay Description>  (1110) 
nan

>  <BAO Label>  (1110) 
nan

$$$$

     RDKit          2D

 38 42  0  0  0  0  0  0  0  0999 V2000
    3.7500   -1.2990    0.0000 C   0  0  0  0  0  0  0  0  0  0  0  0
    3.0000    0.0000    0.0000 O   0  0  0  0  0  0  0  0  0  0  0  0
    1.5000    0.0000    0.0000 C   0  0  0  0  0  0  0  0  0  0  0  0
    0.7500   -1.2990    0.0000 C   0  0  0  0  0  0  0  0  0  0  0  0
   -0.7500   -1.2990    0.0000 C   0  0  0  0  0  0  0  0  0  0  0  0
   -1.5000    0.0000    0.0000 C   0  0  0  0  0  0  0  0  0  0  0  0
   -3.0000    0.0000    0.0000 C   0  0  0  0  0  0  0  0  0  0  0  0
   -3.0000   -1.5000    0.0000 O   0  0  0  0  0  0  0  0  0  0  0  0
   -4.5000    0.0000    0.0000 C   0  0  0  0  0  0  0  0  0  0  0  0
   -5.2500    1.2990    0.0000 C   0  0  0  0  0  0  0  0  0  0  0  0
   -6.7500    1.2990    0.0000 C   0  0  0  0  0  0  0  0  0  0  0  0
   -7.5000    0.0000    0.0000 C   0  0  0  0  0  0  0  0  0  0  0  0
   -9.0000    0.0000    0.0000 O   0  0  0  0  0  0  0  0  0  0  0  0
   -9.7500    1.2990    0.0000 C   0  0  0  0  0  0  0  0  0  0  0  0
   -6.7500   -1.2990    0.0000 C   0  0  0  0  0  0  0  0  0  0  0  0
   -5.2500   -1.2990    0.0000 C   0  0  0  0  0  0  0  0  0  0  0  0
   -3.0000    1.5000    0.0000 C   0  0  0  0  0  0  0  0  0  0  0  0
   -4.2135    2.3817    0.0000 C   0  0  0  0  0  0  0  0  0  0  0  0
   -3.7500    3.8083    0.0000 C   0  0  0  0  0  0  0  0  0  0  0  0
   -2.2500    3.8083    0.0000 C   0  0  0  0  0  0  0  0  0  0  0  0
   -1.3683    5.0218    0.0000 C   0  0  0  0  0  0  0  0  0  0  0  0
    0.1235    4.8650    0.0000 N   0  0  0  0  0  4  0  0  0  0  0  0
    0.7336    3.4947    0.0000 C   0  0  0  0  0  0  0  0  0  0  0  0
    2.2253    3.3379    0.0000 C   0  0  0  0  0  0  0  0  0  0  0  0
    3.2290    4.4526    0.0000 C   0  0  0  0  0  0  0  0  0  0  0  0
    4.5994    3.8425    0.0000 C   0  0  0  0  0  0  0  0  0  0  0  0
    4.4426    2.3507    0.0000 C   0  0  0  0  0  0  0  0  0  0  0  0
    5.5573    1.3470    0.0000 C   0  0  0  0  0  0  0  0  0  0  0  0
    2.9753    2.0388    0.0000 S   0  0  0  0  0  0  0  0  0  0  0  0
    1.0051    6.0785    0.0000 C   0  0  0  0  0  0  0  0  0  0  0  0
    0.3950    7.4488    0.0000 C   0  0  0  0  0  0  0  0  0  0  0  0
   -1.0722    7.7607    0.0000 C   0  0  0  0  0  0  0  0  0  0  0  0
   -1.2290    9.2525    0.0000 C   0  0  0  0  0  0  0  0  0  0  0  0
    0.1413    9.8626    0.0000 C   0  0  0  0  0  0  0  0  0  0  0  0
    1.1450    8.7479    0.0000 O   0  0  0  0  0  0  0  0  0  0  0  0
   -1.7865    2.3817    0.0000 O   0  0  0  0  0  0  0  0  0  0  0  0
   -0.7500    1.2990    0.0000 C   0  0  0  0  0  0  0  0  0  0  0  0
    0.7500    1.2990    0.0000 C   0  0  0  0  0  0  0  0  0  0  0  0
  1  2  1  0
  2  3  1  0
  3  4  2  0
  4  5  1  0
  5  6  2  0
  6  7  1  0
  7  8  1  0
  7  9  1  0
  9 10  2  0
 10 11  1  0
 11 12  2  0
 12 13  1  0
 13 14  1  0
 12 15  1  0
 15 16  2  0
  7 17  1  0
 17 18  2  0
 18 19  1  0
 19 20  2  0
 20 21  1  0
 21 22  1  0
 22 23  1  0
 23 24  1  0
 24 25  2  0
 25 26  1  0
 26 27  2  0
 27 28  1  0
 27 29  1  0
 22 30  1  0
 31 30  1  6
 31 32  1  0
 32 33  1  0
 33 34  1  0
 34 35  1  0
 20 36  1  0
  6 37  1  0
 37 38  2  0
 38  3  1  0
 16  9  1  0
 36 17  1  0
 29 24  1  0
 35 31  1  0
M  CHG  1  22   1
M  END
>  <Compound_ID>  (1111) 
C35745398

>  <Active>  (1111) 
0.0

>  <Smiles>  (1111) 
COc1ccc(C(O)(c2ccc(OC)cc2)c2ccc(C[NH+](Cc3ccc(C)s3)C[C@@H]3CCCO3)o2)cc1

>  <canonical_smi>  (1111) 
COc1ccc(C(O)(c2ccc(OC)cc2)c2ccc(C[NH+](Cc3ccc(C)s3)C[C@@H]3CCCO3)o2)cc1

>  <Set>  (1111) 
G2 inactive

>  <Set_type>  (1111) 
Test

>  <MW>  (1111) 
534.7

>  <HBD>  (1111) 
2

>  <HBA>  (1111) 
5

>  <NRB>  (1111) 
11

>  <NR>  (1111) 
5

>  <NAR>  (1111) 
4

>  <PSA>  (1111) 
65.5

>  <Standard Type>  (1111) 
nan

>  <Standard Relation>  (1111) 
nan

>  <Standard Units>  (1111) 
nan

>  <Standard Value>  (1111) 
nan

>  <Assay ChEMBL ID>  (1111) 
nan

>  <Assay Description>  (1111) 
nan

>  <BAO Label>  (1111) 
nan

$$$$

     RDKit          2D

 28 30  0  0  0  0  0  0  0  0999 V2000
    3.0000    0.0000    0.0000 C   0  0  0  0  0  0  0  0  0  0  0  0
    1.5000    0.0000    0.0000 C   0  0  0  0  0  0  0  0  0  0  0  0
    0.7500   -1.2990    0.0000 C   0  0  0  0  0  0  0  0  0  0  0  0
    1.5000   -2.5981    0.0000 C   0  0  0  0  0  0  0  0  0  0  0  0
    0.7500   -3.8971    0.0000 O   0  0  0  0  0  0  0  0  0  0  0  0
    3.0000   -2.5981    0.0000 N   0  0  0  0  0  0  0  0  0  0  0  0
    3.7500   -3.8971    0.0000 C   0  0  0  0  0  0  0  0  0  0  0  0
    3.7500   -1.2990    0.0000 C   0  0  0  0  0  0  0  0  0  0  0  0
    5.2500   -1.2990    0.0000 C   0  0  0  0  0  0  0  0  0  0  0  0
    6.0000   -0.0000    0.0000 C   0  0  0  0  0  0  0  0  0  0  0  0
    7.5000   -0.0000    0.0000 N   0  0  0  0  0  0  0  0  0  0  0  0
    8.3817   -1.2135    0.0000 N   0  0  0  0  0  0  0  0  0  0  0  0
    9.8083   -0.7500    0.0000 C   0  0  0  0  0  0  0  0  0  0  0  0
   11.0218   -1.6317    0.0000 C   0  0  0  0  0  0  0  0  0  0  0  0
    9.8083    0.7500    0.0000 C   0  0  0  0  0  0  0  0  0  0  0  0
    8.3817    1.2135    0.0000 C   0  0  0  0  0  0  0  0  0  0  0  0
    7.9182    2.6401    0.0000 C   0  0  0  0  0  0  0  0  0  0  0  0
   -0.7500   -1.2990    0.0000 C   0  0  0  0  0  0  0  0  0  0  0  0
   -1.5000   -2.5981    0.0000 C   0  0  0  0  0  0  0  0  0  0  0  0
   -0.8899   -3.9684    0.0000 N   0  0  0  0  0  0  0  0  0  0  0  0
   -2.0046   -4.9721    0.0000 C   0  0  0  0  0  0  0  0  0  0  0  0
   -3.3037   -4.2221    0.0000 N   0  0  0  0  0  4  0  0  0  0  0  0
   -2.9918   -2.7549    0.0000 C   0  0  0  0  0  0  0  0  0  0  0  0
   -3.9955   -1.6402    0.0000 C   0  0  0  0  0  0  0  0  0  0  0  0
   -1.5000    0.0000    0.0000 N   0  0  0  0  0  0  0  0  0  0  0  0
   -0.7500    1.2990    0.0000 C   0  0  0  0  0  0  0  0  0  0  0  0
   -1.5000    2.5981    0.0000 O   0  0  0  0  0  0  0  0  0  0  0  0
    0.7500    1.2990    0.0000 N   0  0  0  0  0  0  0  0  0  0  0  0
  1  2  1  0
  2  3  2  0
  3  4  1  0
  4  5  2  0
  4  6  1  0
  6  7  1  0
  6  8  1  0
  8  9  1  0
  9 10  1  0
 10 11  1  0
 11 12  1  0
 12 13  2  0
 13 14  1  0
 13 15  1  0
 15 16  2  0
 16 17  1  0
  3 18  1  0
 18 19  1  6
 19 20  1  0
 20 21  1  0
 21 22  2  0
 22 23  1  0
 23 24  1  0
 18 25  1  0
 25 26  1  0
 26 27  2  0
 26 28  1  0
 28  2  1  0
 16 11  1  0
 23 19  2  0
M  CHG  1  22   1
M  END
>  <Compound_ID>  (1112) 
C67650237

>  <Active>  (1112) 
0.0

>  <Smiles>  (1112) 
CC1=C(C(=O)N(C)CCCn2nc(C)cc2C)[C@H](c2[nH]c[nH+]c2C)NC(=O)N1

>  <canonical_smi>  (1112) 
CC1=C(C(=O)N(C)CCCn2nc(C)cc2C)[C@H](c2[nH]c[nH+]c2C)NC(=O)N1

>  <Set>  (1112) 
G2 inactive

>  <Set_type>  (1112) 
Test

>  <MW>  (1112) 
386.48

>  <HBD>  (1112) 
3

>  <HBA>  (1112) 
3

>  <NRB>  (1112) 
6

>  <NR>  (1112) 
3

>  <NAR>  (1112) 
2

>  <PSA>  (1112) 
109.19

>  <Standard Type>  (1112) 
nan

>  <Standard Relation>  (1112) 
nan

>  <Standard Units>  (1112) 
nan

>  <Standard Value>  (1112) 
nan

>  <Assay ChEMBL ID>  (1112) 
nan

>  <Assay Description>  (1112) 
nan

>  <BAO Label>  (1112) 
nan

$$$$

     RDKit          2D

 25 27  0  0  0  0  0  0  0  0999 V2000
    6.3290    3.0425    0.0000 O   0  0  0  0  0  0  0  0  0  0  0  0
    5.4656    4.2691    0.0000 C   0  0  0  0  0  0  0  0  0  0  0  0
    3.9716    4.1346    0.0000 N   0  0  0  0  0  0  0  0  0  0  0  0
    3.3411    2.7736    0.0000 C   0  0  0  0  0  0  0  0  0  0  0  0
    1.8471    2.6391    0.0000 C   0  0  0  0  0  0  0  0  0  0  0  0
    0.8602    3.7687    0.0000 N   0  0  0  0  0  0  0  0  0  0  0  0
   -0.5191    3.1792    0.0000 N   0  0  0  0  0  0  0  0  0  0  0  0
   -0.3846    1.6852    0.0000 C   0  0  0  0  0  0  0  0  0  0  0  0
    1.0777    1.3515    0.0000 N   0  0  0  0  0  0  0  0  0  0  0  0
    1.7286    0.0000    0.0000 C   0  0  0  0  0  0  0  0  0  0  0  0
    1.0777   -1.3515    0.0000 C   0  0  0  0  0  0  0  0  0  0  0  0
   -0.3846   -1.6852    0.0000 C   0  0  0  0  0  0  0  0  0  0  0  0
   -1.5574   -0.7500    0.0000 C   0  0  0  0  0  0  0  0  0  0  0  0
   -1.5574    0.7500    0.0000 C   0  0  0  0  0  0  0  0  0  0  0  0
    6.0961    5.6301    0.0000 N   0  0  0  0  0  0  0  0  0  0  0  0
    7.5901    5.7646    0.0000 C   0  0  0  0  0  0  0  0  0  0  0  0
    8.2206    7.1256    0.0000 C   0  0  0  0  0  0  0  0  0  0  0  0
    7.3572    8.3522    0.0000 O   0  0  0  0  0  0  0  0  0  0  0  0
    9.7146    7.2601    0.0000 C   0  0  0  0  0  0  0  0  0  0  0  0
   10.5780    6.0335    0.0000 C   0  0  0  0  0  0  0  0  0  0  0  0
   12.0719    6.1680    0.0000 C   0  0  0  0  0  0  0  0  0  0  0  0
   12.7025    7.5290    0.0000 C   0  0  0  0  0  0  0  0  0  0  0  0
   14.1964    7.6635    0.0000 F   0  0  0  0  0  0  0  0  0  0  0  0
   11.8390    8.7556    0.0000 C   0  0  0  0  0  0  0  0  0  0  0  0
   10.3451    8.6211    0.0000 C   0  0  0  0  0  0  0  0  0  0  0  0
  1  2  2  0
  2  3  1  0
  3  4  1  0
  4  5  1  0
  5  6  2  0
  6  7  1  0
  7  8  2  0
  8  9  1  0
  9 10  1  0
 10 11  1  0
 11 12  1  0
 12 13  1  0
 13 14  1  0
  2 15  1  0
 15 16  1  0
 16 17  1  0
 17 18  1  1
 17 19  1  0
 19 20  2  0
 20 21  1  0
 21 22  2  0
 22 23  1  0
 22 24  1  0
 24 25  2  0
  9  5  1  0
 25 19  1  0
 14  8  1  0
M  END
>  <Compound_ID>  (1113) 
C44966683

>  <Active>  (1113) 
0.0

>  <Smiles>  (1113) 
O=C(NCc1nnc2n1CCCCC2)NC[C@@H](O)c1ccc(F)cc1

>  <canonical_smi>  (1113) 
O=C(NCc1nnc2n1CCCCC2)NC[C@@H](O)c1ccc(F)cc1

>  <Set>  (1113) 
G2 inactive

>  <Set_type>  (1113) 
Test

>  <MW>  (1113) 
347.39

>  <HBD>  (1113) 
3

>  <HBA>  (1113) 
4

>  <NRB>  (1113) 
5

>  <NR>  (1113) 
3

>  <NAR>  (1113) 
2

>  <PSA>  (1113) 
92.07

>  <Standard Type>  (1113) 
nan

>  <Standard Relation>  (1113) 
nan

>  <Standard Units>  (1113) 
nan

>  <Standard Value>  (1113) 
nan

>  <Assay ChEMBL ID>  (1113) 
nan

>  <Assay Description>  (1113) 
nan

>  <BAO Label>  (1113) 
nan

$$$$

     RDKit          2D

 39 44  0  0  0  0  0  0  0  0999 V2000
  -11.2602   -8.0044    0.0000 C   0  0  0  0  0  0  0  0  0  0  0  0
   -9.7602   -8.0044    0.0000 O   0  0  0  0  0  0  0  0  0  0  0  0
   -9.0102   -6.7054    0.0000 C   0  0  0  0  0  0  0  0  0  0  0  0
   -9.7602   -5.4064    0.0000 C   0  0  0  0  0  0  0  0  0  0  0  0
   -9.0102   -4.1073    0.0000 C   0  0  0  0  0  0  0  0  0  0  0  0
   -7.5102   -4.1073    0.0000 C   0  0  0  0  0  0  0  0  0  0  0  0
   -6.7602   -5.4064    0.0000 C   0  0  0  0  0  0  0  0  0  0  0  0
   -5.2602   -5.4064    0.0000 C   0  0  0  0  0  0  0  0  0  0  0  0
   -4.3786   -4.1928    0.0000 N   0  0  0  0  0  4  0  0  0  0  0  0
   -2.9520   -4.6564    0.0000 C   0  0  0  0  0  0  0  0  0  0  0  0
   -2.6401   -3.1891    0.0000 C   0  0  0  0  0  0  0  0  0  0  0  0
   -3.7548   -2.1855    0.0000 C   0  0  0  0  0  0  0  0  0  0  0  0
   -5.2220   -2.4973    0.0000 C   0  0  0  0  0  0  0  0  0  0  0  0
   -5.9720   -1.1983    0.0000 N   0  0  0  0  0  0  0  0  0  0  0  0
   -4.9684   -0.0836    0.0000 C   0  0  0  0  0  0  0  0  0  0  0  0
   -5.1251    1.4082    0.0000 C   0  0  0  0  0  0  0  0  0  0  0  0
   -3.9116    2.2899    0.0000 C   0  0  0  0  0  0  0  0  0  0  0  0
   -2.5413    1.6798    0.0000 C   0  0  0  0  0  0  0  0  0  0  0  0
   -2.3845    0.1880    0.0000 C   0  0  0  0  0  0  0  0  0  0  0  0
   -3.5980   -0.6937    0.0000 C   0  0  0  0  0  0  0  0  0  0  0  0
   -1.4602   -4.8132    0.0000 C   0  0  0  0  0  0  0  0  0  0  0  0
   -0.5785   -3.5996    0.0000 O   0  0  0  0  0  0  0  0  0  0  0  0
   -0.8501   -6.1835    0.0000 O   0  0  0  0  0  1  0  0  0  0  0  0
   -2.9520   -6.1564    0.0000 C   0  0  0  0  0  0  0  0  0  0  0  0
   -2.0703   -7.3699    0.0000 C   0  0  0  0  0  0  0  0  0  0  0  0
   -0.5703   -7.3699    0.0000 O   0  0  0  0  0  0  0  0  0  0  0  0
   -2.9520   -8.5834    0.0000 N   0  0  0  0  0  0  0  0  0  0  0  0
   -2.4885  -10.0100    0.0000 C   0  0  0  0  0  0  0  0  0  0  0  0
   -3.4921  -11.1247    0.0000 C   0  0  0  0  0  0  0  0  0  0  0  0
   -3.0286  -12.5513    0.0000 C   0  0  0  0  0  0  0  0  0  0  0  0
   -1.5614  -12.8632    0.0000 C   0  0  0  0  0  0  0  0  0  0  0  0
   -0.5577  -11.7485    0.0000 C   0  0  0  0  0  0  0  0  0  0  0  0
    0.9095  -12.0603    0.0000 C   0  0  0  0  0  0  0  0  0  0  0  0
   -1.0212  -10.3219    0.0000 C   0  0  0  0  0  0  0  0  0  0  0  0
   -4.3786   -8.1199    0.0000 C   0  0  0  0  0  0  0  0  0  0  0  0
   -5.5921   -9.0016    0.0000 O   0  0  0  0  0  0  0  0  0  0  0  0
   -4.3786   -6.6199    0.0000 C   0  0  0  0  0  0  0  0  0  0  0  0
   -7.5102   -6.7054    0.0000 C   0  0  0  0  0  0  0  0  0  0  0  0
   -6.7602   -8.0044    0.0000 O   0  0  0  0  0  0  0  0  0  0  0  0
  1  2  1  0
  2  3  1  0
  3  4  2  0
  4  5  1  0
  5  6  2  0
  6  7  1  0
  8  7  1  6
  8  9  1  0
  9 10  1  0
 10 11  1  6
 11 12  1  0
 12 13  2  0
 13 14  1  0
 14 15  1  0
 15 16  2  0
 16 17  1  0
 17 18  2  0
 18 19  1  0
 19 20  2  0
 10 21  1  0
 21 22  2  0
 21 23  1  0
 10 24  1  0
 24 25  1  6
 25 26  2  0
 25 27  1  0
 27 28  1  0
 28 29  2  0
 29 30  1  0
 30 31  2  0
 31 32  1  0
 32 33  1  0
 32 34  2  0
 27 35  1  0
 35 36  2  0
 37 35  1  6
  7 38  2  0
 38 39  1  0
 38  3  1  0
 37  8  1  0
 20 12  1  0
 37 24  1  0
 20 15  1  0
 34 28  1  0
M  CHG  2   9   1  23  -1
M  END
>  <Compound_ID>  (1114) 
C15276078

>  <Active>  (1114) 
0.0

>  <Smiles>  (1114) 
COc1cccc([C@@H]2[NH2+][C@@](Cc3c[nH]c4ccccc34)(C(=O)[O-])[C@@H]3C(=O)N(c4cccc(C)c4)C(=O)[C@@H]32)c1O

>  <canonical_smi>  (1114) 
COc1cccc([C@@H]2[NH2+][C@@](Cc3c[nH]c4ccccc34)(C(=O)[O-])[C@@H]3C(=O)N(c4cccc(C)c4)C(=O)[C@H]23)c1O

>  <Set>  (1114) 
G2 inactive

>  <Set_type>  (1114) 
Test

>  <MW>  (1114) 
525.56

>  <HBD>  (1114) 
3

>  <HBA>  (1114) 
6

>  <NRB>  (1114) 
6

>  <NR>  (1114) 
6

>  <NAR>  (1114) 
4

>  <PSA>  (1114) 
139.37

>  <Standard Type>  (1114) 
nan

>  <Standard Relation>  (1114) 
nan

>  <Standard Units>  (1114) 
nan

>  <Standard Value>  (1114) 
nan

>  <Assay ChEMBL ID>  (1114) 
nan

>  <Assay Description>  (1114) 
nan

>  <BAO Label>  (1114) 
nan

$$$$

     RDKit          2D

 31 34  0  0  0  0  0  0  0  0999 V2000
   -6.9199   -4.5797    0.0000 C   0  0  0  0  0  0  0  0  0  0  0  0
   -5.4933   -4.1162    0.0000 C   0  0  0  0  0  0  0  0  0  0  0  0
   -4.3786   -5.1199    0.0000 C   0  0  0  0  0  0  0  0  0  0  0  0
   -4.6904   -6.5871    0.0000 C   0  0  0  0  0  0  0  0  0  0  0  0
   -2.9520   -4.6564    0.0000 C   0  0  0  0  0  0  0  0  0  0  0  0
   -2.6401   -3.1891    0.0000 N   0  0  0  0  0  0  0  0  0  0  0  0
   -1.2135   -2.7256    0.0000 C   0  0  0  0  0  0  0  0  0  0  0  0
   -0.0000   -3.6073    0.0000 N   0  0  0  0  0  0  0  0  0  0  0  0
    1.2135   -2.7256    0.0000 S   0  0  0  0  0  0  0  0  0  0  0  0
    1.9635   -4.0247    0.0000 O   0  0  0  0  0  0  0  0  0  0  0  0
    2.5838   -2.1155    0.0000 O   0  0  0  0  0  0  0  0  0  0  0  0
    0.7500   -1.2990    0.0000 C   0  0  0  0  0  0  0  0  0  0  0  0
    1.5000    0.0000    0.0000 C   0  0  0  0  0  0  0  0  0  0  0  0
    0.7500    1.2990    0.0000 C   0  0  0  0  0  0  0  0  0  0  0  0
   -0.7500    1.2990    0.0000 C   0  0  0  0  0  0  0  0  0  0  0  0
   -1.5000    0.0000    0.0000 C   0  0  0  0  0  0  0  0  0  0  0  0
   -0.7500   -1.2990    0.0000 C   0  0  0  0  0  0  0  0  0  0  0  0
   -1.8373   -5.6601    0.0000 C   0  0  0  0  0  0  0  0  0  0  0  0
   -0.4107   -5.1965    0.0000 O   0  0  0  0  0  0  0  0  0  0  0  0
   -2.1491   -7.1273    0.0000 N   0  0  0  0  0  0  0  0  0  0  0  0
   -1.0344   -8.1310    0.0000 N   0  0  0  0  0  0  0  0  0  0  0  0
   -1.3463   -9.5982    0.0000 C   0  0  0  0  0  0  0  0  0  0  0  0
   -2.7729  -10.0617    0.0000 O   0  0  0  0  0  0  0  0  0  0  0  0
   -0.2316  -10.6019    0.0000 C   0  0  0  0  0  0  0  0  0  0  0  0
   -0.3884  -12.0937    0.0000 C   0  0  0  0  0  0  0  0  0  0  0  0
    0.9820  -12.7038    0.0000 C   0  0  0  0  0  0  0  0  0  0  0  0
    1.9857  -11.5891    0.0000 C   0  0  0  0  0  0  0  0  0  0  0  0
    1.2357  -10.2900    0.0000 S   0  0  0  0  0  0  0  0  0  0  0  0
    3.3560  -12.1992    0.0000 C   0  0  0  0  0  0  0  0  0  0  0  0
    3.1992  -13.6910    0.0000 C   0  0  0  0  0  0  0  0  0  0  0  0
    1.7320  -14.0028    0.0000 C   0  0  0  0  0  0  0  0  0  0  0  0
  1  2  1  0
  2  3  1  0
  3  4  1  6
  3  5  1  0
  5  6  1  1
  6  7  1  0
  7  8  2  0
  8  9  1  0
  9 10  2  0
  9 11  2  0
  9 12  1  0
 12 13  2  0
 13 14  1  0
 14 15  2  0
 15 16  1  0
 16 17  2  0
  5 18  1  0
 18 19  2  0
 18 20  1  0
 20 21  1  0
 21 22  1  0
 22 23  2  0
 22 24  1  0
 24 25  2  0
 25 26  1  0
 26 27  2  0
 27 28  1  0
 27 29  1  0
 29 30  1  0
 30 31  1  0
 17  7  1  0
 28 24  1  0
 17 12  1  0
 31 26  1  0
M  END
>  <Compound_ID>  (1115) 
C39975550

>  <Active>  (1115) 
0.0

>  <Smiles>  (1115) 
CC[C@@H](C)[C@@H](NC1=NS(=O)(=O)c2ccccc21)C(=O)NNC(=O)c1cc2c(s1)CCC2

>  <canonical_smi>  (1115) 
CC[C@@H](C)[C@@H](NC1=NS(=O)(=O)c2ccccc21)C(=O)NNC(=O)c1cc2c(s1)CCC2

>  <Set>  (1115) 
G2 inactive

>  <Set_type>  (1115) 
Test

>  <MW>  (1115) 
460.58

>  <HBD>  (1115) 
3

>  <HBA>  (1115) 
5

>  <NRB>  (1115) 
5

>  <NR>  (1115) 
4

>  <NAR>  (1115) 
2

>  <PSA>  (1115) 
116.73

>  <Standard Type>  (1115) 
nan

>  <Standard Relation>  (1115) 
nan

>  <Standard Units>  (1115) 
nan

>  <Standard Value>  (1115) 
nan

>  <Assay ChEMBL ID>  (1115) 
nan

>  <Assay Description>  (1115) 
nan

>  <BAO Label>  (1115) 
nan

$$$$

     RDKit          2D

 18 19  0  0  0  0  0  0  0  0999 V2000
    4.6740   -7.4303    0.0000 C   0  0  0  0  0  0  0  0  0  0  0  0
    3.3037   -6.8202    0.0000 C   0  0  0  0  0  0  0  0  0  0  0  0
    2.9918   -5.3529    0.0000 C   0  0  0  0  0  0  0  0  0  0  0  0
    1.5000   -5.1962    0.0000 C   0  0  0  0  0  0  0  0  0  0  0  0
    0.7500   -3.8971    0.0000 C   0  0  0  0  0  0  0  0  0  0  0  0
    1.5000   -2.5981    0.0000 N   0  0  0  0  0  0  0  0  0  0  0  0
    0.7500   -1.2990    0.0000 C   0  0  0  0  0  0  0  0  0  0  0  0
    1.5000    0.0000    0.0000 N   0  0  0  0  0  0  0  0  0  0  0  0
    0.7500    1.2990    0.0000 C   0  0  0  0  0  0  0  0  0  0  0  0
   -0.7500    1.2990    0.0000 C   0  0  0  0  0  0  0  0  0  0  0  0
   -1.5000    2.5981    0.0000 C   0  0  0  0  0  0  0  0  0  0  0  0
   -3.0000    2.5981    0.0000 O   0  0  0  0  0  0  0  0  0  0  0  0
   -0.7500    3.8971    0.0000 O   0  0  0  0  0  1  0  0  0  0  0  0
   -1.5000    0.0000    0.0000 C   0  0  0  0  0  0  0  0  0  0  0  0
   -0.7500   -1.2990    0.0000 C   0  0  0  0  0  0  0  0  0  0  0  0
   -1.5000   -2.5981    0.0000 Cl  0  0  0  0  0  0  0  0  0  0  0  0
    0.8899   -6.5665    0.0000 N   0  0  0  0  0  0  0  0  0  0  0  0
    2.0046   -7.5702    0.0000 O   0  0  0  0  0  0  0  0  0  0  0  0
  1  2  1  0
  2  3  2  0
  3  4  1  0
  4  5  1  0
  5  6  1  0
  6  7  1  0
  7  8  2  0
  8  9  1  0
  9 10  2  0
 10 11  1  0
 11 12  2  0
 11 13  1  0
 10 14  1  0
 14 15  2  0
 15 16  1  0
  4 17  2  0
 17 18  1  0
 18  2  1  0
 15  7  1  0
M  CHG  1  13  -1
M  END
>  <Compound_ID>  (1116) 
C44728080

>  <Active>  (1116) 
0.0

>  <Smiles>  (1116) 
Cc1cc(CNc2ncc(C(=O)[O-])cc2Cl)no1

>  <canonical_smi>  (1116) 
Cc1cc(CNc2ncc(C(=O)[O-])cc2Cl)no1

>  <Set>  (1116) 
G2 inactive

>  <Set_type>  (1116) 
Test

>  <MW>  (1116) 
266.66

>  <HBD>  (1116) 
1

>  <HBA>  (1116) 
6

>  <NRB>  (1116) 
4

>  <NR>  (1116) 
2

>  <NAR>  (1116) 
2

>  <PSA>  (1116) 
91.08

>  <Standard Type>  (1116) 
nan

>  <Standard Relation>  (1116) 
nan

>  <Standard Units>  (1116) 
nan

>  <Standard Value>  (1116) 
nan

>  <Assay ChEMBL ID>  (1116) 
nan

>  <Assay Description>  (1116) 
nan

>  <BAO Label>  (1116) 
nan

$$$$
