
     RDKit          2D

 29 31  0  0  0  0  0  0  0  0999 V2000
   -3.8971  -11.8573    0.0000 C   0  0  0  0  0  0  0  0  0  0  0  0
   -3.8971  -10.3573    0.0000 O   0  0  0  0  0  0  0  0  0  0  0  0
   -2.5981   -9.6073    0.0000 C   0  0  0  0  0  0  0  0  0  0  0  0
   -2.5981   -8.1073    0.0000 C   0  0  0  0  0  0  0  0  0  0  0  0
   -1.2990   -7.3573    0.0000 N   0  0  0  0  0  0  0  0  0  0  0  0
   -1.2990   -5.8573    0.0000 C   0  0  0  0  0  0  0  0  0  0  0  0
   -2.5981   -5.1073    0.0000 O   0  0  0  0  0  0  0  0  0  0  0  0
   -0.0000   -5.1073    0.0000 N   0  0  0  0  0  0  0  0  0  0  0  0
   -0.0000   -3.6073    0.0000 C   0  0  0  0  0  0  0  0  0  0  0  0
    1.2135   -2.7256    0.0000 N   0  0  0  0  0  0  0  0  0  0  0  0
    0.7500   -1.2990    0.0000 C   0  0  0  0  0  0  0  0  0  0  0  0
    1.5000    0.0000    0.0000 C   0  0  0  0  0  0  0  0  0  0  0  0
    0.7500    1.2990    0.0000 C   0  0  0  0  0  0  0  0  0  0  0  0
    1.5000    2.5981    0.0000 O   0  0  0  0  0  0  0  0  0  0  0  0
    3.0000    2.5981    0.0000 S   0  0  0  0  0  0  0  0  0  0  0  0
    3.0000    1.0981    0.0000 O   0  0  0  0  0  0  0  0  0  0  0  0
    3.0000    4.0981    0.0000 O   0  0  0  0  0  0  0  0  0  0  0  0
    4.5000    2.5981    0.0000 C   0  0  0  0  0  0  0  0  0  0  0  0
    5.2500    1.2990    0.0000 C   0  0  0  0  0  0  0  0  0  0  0  0
    4.5000   -0.0000    0.0000 F   0  0  0  0  0  0  0  0  0  0  0  0
    6.7500    1.2990    0.0000 C   0  0  0  0  0  0  0  0  0  0  0  0
    7.5000    2.5981    0.0000 C   0  0  0  0  0  0  0  0  0  0  0  0
    6.7500    3.8971    0.0000 C   0  0  0  0  0  0  0  0  0  0  0  0
    5.2500    3.8971    0.0000 C   0  0  0  0  0  0  0  0  0  0  0  0
    4.5000    5.1962    0.0000 F   0  0  0  0  0  0  0  0  0  0  0  0
   -0.7500    1.2990    0.0000 C   0  0  0  0  0  0  0  0  0  0  0  0
   -1.5000    0.0000    0.0000 C   0  0  0  0  0  0  0  0  0  0  0  0
   -0.7500   -1.2990    0.0000 C   0  0  0  0  0  0  0  0  0  0  0  0
   -1.2135   -2.7256    0.0000 N   0  0  0  0  0  0  0  0  0  0  0  0
  1  2  1  0
  2  3  1  0
  3  4  1  0
  4  5  1  0
  5  6  1  0
  6  7  2  0
  6  8  1  0
  8  9  1  0
  9 10  2  0
 10 11  1  0
 11 12  2  0
 12 13  1  0
 13 14  1  0
 14 15  1  0
 15 16  2  0
 15 17  2  0
 15 18  1  0
 18 19  2  0
 19 20  1  0
 19 21  1  0
 21 22  2  0
 22 23  1  0
 23 24  2  0
 24 25  1  0
 13 26  2  0
 26 27  1  0
 27 28  2  0
 28 29  1  0
 29  9  1  0
 28 11  1  0
 24 18  1  0
M  END
>  <Compound_ID>  (1) 
CHEMBL4448572

>  <Molecule Name>  (1) 
nan

>  <Molecular Weight>  (1) 
426.4

>  <AlogP>  (1) 
2.38

>  <Smiles>  (1) 
COCCNC(=O)Nc1nc2cc(OS(=O)(=O)c3c(F)cccc3F)ccc2[nH]1

>  <Standard Type>  (1) 
IC50

>  <Standard Relation>  (1) 
'='

>  <Standard Units>  (1) 
nM

>  <Standard Value>  (1) 
5.0

>  <Assay ChEMBL ID>  (1) 
CHEMBL4426782

>  <Assay Description>  (1) 
Inhibition of wild type phosphorylated MET (unknown origin) pre-incubated for 30 mins before biotinylated poly(glutamate-alanine-tyrosine) peptide addition and measured after 5 mins by HTRF assay

>  <BAO Format ID>  (1) 
BAO_0000357

>  <BAO Label>  (1) 
single protein format

>  <Assay Organism>  (1) 
Homo sapiens

>  <Target ChEMBL ID>  (1) 
CHEMBL3717

>  <Target Name>  (1) 
Hepatocyte growth factor receptor

>  <Target Organism>  (1) 
Homo sapiens

>  <Target Type>  (1) 
SINGLE PROTEIN

>  <Document ChEMBL ID>  (1) 
CHEMBL4425133

>  <Source Description>  (1) 
Scientific Literature

>  <Document Journal>  (1) 
J Med Chem

>  <Document Year>  (1) 
2016.0

>  <Active>  (1) 
1.0

>  <bits>  (1) 
<rdkit.DataStructs.cDataStructs.ExplicitBitVect object at 0x000001CFA8036180>

>  <Group>  (1) 
G1

$$$$

     RDKit          2D

 33 37  0  0  0  0  0  0  0  0999 V2000
    5.6399   -6.6580    0.0000 C   0  0  0  0  0  0  0  0  0  0  0  0
    4.5251   -7.6617    0.0000 C   0  0  0  0  0  0  0  0  0  0  0  0
    4.8370   -9.1289    0.0000 N   0  0  0  0  0  0  0  0  0  0  0  0
    6.2636   -9.5925    0.0000 O   0  0  0  0  0  0  0  0  0  0  0  0
    6.5755  -11.0597    0.0000 C   0  0  0  0  0  0  0  0  0  0  0  0
    8.0020  -11.5232    0.0000 C   0  0  0  0  0  0  0  0  0  0  0  0
    8.3139  -12.9904    0.0000 O   0  0  0  0  0  0  0  0  0  0  0  0
    3.0986   -7.1982    0.0000 C   0  0  0  0  0  0  0  0  0  0  0  0
    1.9838   -8.2019    0.0000 C   0  0  0  0  0  0  0  0  0  0  0  0
    0.5573   -7.7383    0.0000 C   0  0  0  0  0  0  0  0  0  0  0  0
    0.2454   -6.2711    0.0000 C   0  0  0  0  0  0  0  0  0  0  0  0
   -1.0537   -5.5211    0.0000 N   0  0  0  0  0  0  0  0  0  0  0  0
   -0.7418   -4.0539    0.0000 N   0  0  0  0  0  0  0  0  0  0  0  0
    0.7500   -3.8971    0.0000 C   0  0  0  0  0  0  0  0  0  0  0  0
    1.5000   -2.5981    0.0000 S   0  0  0  0  0  0  0  0  0  0  0  0
    0.7500   -1.2990    0.0000 C   0  0  0  0  0  0  0  0  0  0  0  0
    1.5000    0.0000    0.0000 C   0  0  0  0  0  0  0  0  0  0  0  0
    0.7500    1.2990    0.0000 C   0  0  0  0  0  0  0  0  0  0  0  0
   -0.7500    1.2990    0.0000 C   0  0  0  0  0  0  0  0  0  0  0  0
   -1.5000    2.5981    0.0000 N   0  0  0  0  0  0  0  0  0  0  0  0
   -3.0000    2.5981    0.0000 C   0  0  0  0  0  0  0  0  0  0  0  0
   -3.7500    1.2990    0.0000 C   0  0  0  0  0  0  0  0  0  0  0  0
   -5.2500    1.2990    0.0000 N   0  0  0  0  0  0  0  0  0  0  0  0
   -6.0000    2.5981    0.0000 C   0  0  0  0  0  0  0  0  0  0  0  0
   -7.5000    2.5981    0.0000 C   0  0  0  0  0  0  0  0  0  0  0  0
   -8.2500    1.2990    0.0000 O   0  0  0  0  0  0  0  0  0  0  0  0
   -7.5000    0.0000    0.0000 C   0  0  0  0  0  0  0  0  0  0  0  0
   -6.0000    0.0000    0.0000 C   0  0  0  0  0  0  0  0  0  0  0  0
   -3.0000    0.0000    0.0000 C   0  0  0  0  0  0  0  0  0  0  0  0
   -1.5000    0.0000    0.0000 C   0  0  0  0  0  0  0  0  0  0  0  0
   -0.7500   -1.2990    0.0000 C   0  0  0  0  0  0  0  0  0  0  0  0
    1.3601   -5.2674    0.0000 N   0  0  0  0  0  0  0  0  0  0  0  0
    2.7867   -5.7310    0.0000 C   0  0  0  0  0  0  0  0  0  0  0  0
  1  2  1  0
  2  3  2  0
  3  4  1  0
  4  5  1  0
  5  6  1  0
  6  7  1  0
  2  8  1  0
  8  9  1  0
  9 10  2  0
 10 11  1  0
 11 12  2  0
 12 13  1  0
 13 14  2  0
 14 15  1  0
 15 16  1  0
 16 17  2  0
 17 18  1  0
 18 19  2  0
 19 20  1  0
 20 21  2  0
 21 22  1  0
 22 23  1  0
 23 24  1  0
 24 25  1  0
 25 26  1  0
 26 27  1  0
 27 28  1  0
 22 29  2  0
 29 30  1  0
 30 31  2  0
 14 32  1  0
 32 33  1  0
 33  8  2  0
 32 11  1  0
 31 16  1  0
 30 19  1  0
 28 23  1  0
M  END
>  <Compound_ID>  (2) 
CHEMBL3704009

>  <Molecule Name>  (2) 
nan

>  <Molecular Weight>  (2) 
464.55

>  <AlogP>  (2) 
3.0

>  <Smiles>  (2) 
C/C(=N\OCCO)c1ccc2nnc(Sc3ccc4ncc(N5CCOCC5)cc4c3)n2c1

>  <Standard Type>  (2) 
IC50

>  <Standard Relation>  (2) 
'='

>  <Standard Units>  (2) 
nM

>  <Standard Value>  (2) 
2.0

>  <Assay ChEMBL ID>  (2) 
CHEMBL3706358

>  <Assay Description>  (2) 
LanthaScreen Assay: The kinase assay is based on the LanthaScreen technology. LanthaScreen is the detection of Time-Resolved Fluorescence Resonance Energy Transfer (TR-FRET) using lanthanide chelates to measure interactions between various binding partners. In a TR-FRET kinase assay, a long-lifetime lanthanide donor species is conjugated to an antibody that specifically binds to a phosphorylated product of a kinase reaction that is labeled with a suitable acceptor fluorophore. This antibody-mediated interaction brings the lanthanide donor and the acceptor into proximity such that resonance energy transfer can take place, resulting in a detectable increase in the FRET signal.The kinase reactions were performed in 384 well microtiter plates in a total reaction volume of 10.05 μL. The assay plates were prepared with 0.05 μL per well of test compound in the appropriate test concentration, as described under preparation of compound dilutions.

>  <BAO Format ID>  (2) 
BAO_0000357

>  <BAO Label>  (2) 
single protein format

>  <Assay Organism>  (2) 
Homo sapiens

>  <Target ChEMBL ID>  (2) 
CHEMBL3717

>  <Target Name>  (2) 
Hepatocyte growth factor receptor

>  <Target Organism>  (2) 
Homo sapiens

>  <Target Type>  (2) 
SINGLE PROTEIN

>  <Document ChEMBL ID>  (2) 
CHEMBL3638676

>  <Source Description>  (2) 
BindingDB Database

>  <Document Journal>  (2) 
nan

>  <Document Year>  (2) 
2015.0

>  <Active>  (2) 
1.0

>  <bits>  (2) 
<rdkit.DataStructs.cDataStructs.ExplicitBitVect object at 0x000001CFA8036110>

>  <Group>  (2) 
G1

$$$$

     RDKit          2D

 35 38  0  0  0  0  0  0  0  0999 V2000
    3.7500   -1.2990    0.0000 C   0  0  0  0  0  0  0  0  0  0  0  0
    3.0000    0.0000    0.0000 O   0  0  0  0  0  0  0  0  0  0  0  0
    1.5000    0.0000    0.0000 C   0  0  0  0  0  0  0  0  0  0  0  0
    0.7500   -1.2990    0.0000 C   0  0  0  0  0  0  0  0  0  0  0  0
   -0.7500   -1.2990    0.0000 C   0  0  0  0  0  0  0  0  0  0  0  0
   -1.5000    0.0000    0.0000 C   0  0  0  0  0  0  0  0  0  0  0  0
   -0.7500    1.2990    0.0000 C   0  0  0  0  0  0  0  0  0  0  0  0
   -1.5000    2.5981    0.0000 C   0  0  0  0  0  0  0  0  0  0  0  0
   -0.7500    3.8971    0.0000 C   0  0  0  0  0  0  0  0  0  0  0  0
   -1.5000    5.1962    0.0000 C   0  0  0  0  0  0  0  0  0  0  0  0
   -3.0000    5.1962    0.0000 C   0  0  0  0  0  0  0  0  0  0  0  0
   -3.7500    6.4952    0.0000 O   0  0  0  0  0  0  0  0  0  0  0  0
   -3.7500    3.8971    0.0000 N   0  0  0  0  0  0  0  0  0  0  0  0
   -5.2500    3.8971    0.0000 C   0  0  0  0  0  0  0  0  0  0  0  0
   -6.0000    2.5981    0.0000 C   0  0  0  0  0  0  0  0  0  0  0  0
   -7.5000    2.5981    0.0000 C   0  0  0  0  0  0  0  0  0  0  0  0
   -8.2500    1.2990    0.0000 C   0  0  0  0  0  0  0  0  0  0  0  0
   -7.5000    0.0000    0.0000 C   0  0  0  0  0  0  0  0  0  0  0  0
   -6.0000    0.0000    0.0000 C   0  0  0  0  0  0  0  0  0  0  0  0
   -5.2500   -1.2990    0.0000 C   0  0  0  0  0  0  0  0  0  0  0  0
   -6.0000   -2.5981    0.0000 N   0  0  0  0  0  0  0  0  0  0  0  0
   -5.2500   -3.8971    0.0000 C   0  0  0  0  0  0  0  0  0  0  0  0
   -3.7500   -3.8971    0.0000 C   0  0  0  0  0  0  0  0  0  0  0  0
   -3.0000   -5.1962    0.0000 O   0  0  0  0  0  0  0  0  0  0  0  0
   -3.7500   -6.4952    0.0000 C   0  0  0  0  0  0  0  0  0  0  0  0
   -3.0000   -7.7942    0.0000 C   0  0  0  0  0  0  0  0  0  0  0  0
   -3.7500   -9.0933    0.0000 C   0  0  0  0  0  0  0  0  0  0  0  0
   -3.0000  -10.3923    0.0000 N   0  0  0  0  0  0  0  0  0  0  0  0
   -3.7500  -11.6913    0.0000 C   0  0  0  0  0  0  0  0  0  0  0  0
   -1.5000  -10.3923    0.0000 C   0  0  0  0  0  0  0  0  0  0  0  0
   -3.0000   -2.5981    0.0000 C   0  0  0  0  0  0  0  0  0  0  0  0
   -3.7500   -1.2990    0.0000 N   0  0  0  0  0  0  0  0  0  0  0  0
   -5.2500    1.2990    0.0000 C   0  0  0  0  0  0  0  0  0  0  0  0
   -3.0000    2.5981    0.0000 N   0  0  0  0  0  0  0  0  0  0  0  0
    0.7500    1.2990    0.0000 C   0  0  0  0  0  0  0  0  0  0  0  0
  1  2  1  0
  2  3  1  0
  3  4  2  0
  4  5  1  0
  5  6  2  0
  6  7  1  0
  7  8  1  0
  8  9  1  0
  9 10  2  0
 10 11  1  0
 11 12  2  0
 11 13  1  0
 13 14  1  0
 14 15  1  0
 15 16  2  0
 16 17  1  0
 17 18  2  0
 18 19  1  0
 19 20  1  0
 20 21  2  0
 21 22  1  0
 22 23  2  0
 23 24  1  0
 24 25  1  0
 25 26  1  0
 26 27  1  0
 27 28  1  0
 28 29  1  0
 28 30  1  0
 23 31  1  0
 31 32  2  0
 19 33  2  0
 13 34  1  0
  7 35  2  0
 35  3  1  0
 34  8  2  0
 33 15  1  0
 32 20  1  0
M  END
>  <Compound_ID>  (3) 
CHEMBL3402759

>  <Molecule Name>  (3) 
nan

>  <Molecular Weight>  (3) 
471.56

>  <AlogP>  (3) 
3.75

>  <Smiles>  (3) 
COc1cccc(-c2ccc(=O)n(Cc3cccc(-c4ncc(OCCCN(C)C)cn4)c3)n2)c1

>  <Standard Type>  (3) 
IC50

>  <Standard Relation>  (3) 
'='

>  <Standard Units>  (3) 
nM

>  <Standard Value>  (3) 
5.7

>  <Assay ChEMBL ID>  (3) 
CHEMBL3404455

>  <Assay Description>  (3) 
Inhibition of GST-His6-tagged recombinant human c-Met kinase domain (956 to 1390) after 60 mins by anoff-chip mobility shift assay

>  <BAO Format ID>  (3) 
BAO_0000357

>  <BAO Label>  (3) 
single protein format

>  <Assay Organism>  (3) 
Homo sapiens

>  <Target ChEMBL ID>  (3) 
CHEMBL3717

>  <Target Name>  (3) 
Hepatocyte growth factor receptor

>  <Target Organism>  (3) 
Homo sapiens

>  <Target Type>  (3) 
SINGLE PROTEIN

>  <Document ChEMBL ID>  (3) 
CHEMBL3399942

>  <Source Description>  (3) 
Scientific Literature

>  <Document Journal>  (3) 
Bioorg Med Chem Lett

>  <Document Year>  (3) 
2015.0

>  <Active>  (3) 
1.0

>  <bits>  (3) 
<rdkit.DataStructs.cDataStructs.ExplicitBitVect object at 0x000001CFA80360A0>

>  <Group>  (3) 
G1

$$$$

     RDKit          2D

 33 36  0  0  0  0  0  0  0  0999 V2000
    3.0000    0.0000    0.0000 C   0  0  0  0  0  0  0  0  0  0  0  0
    1.5000    0.0000    0.0000 C   0  0  0  0  0  0  0  0  0  0  0  0
    0.7500   -1.2990    0.0000 C   0  0  0  0  0  0  0  0  0  0  0  0
   -0.7500   -1.2990    0.0000 C   0  0  0  0  0  0  0  0  0  0  0  0
   -1.5000   -2.5981    0.0000 O   0  0  0  0  0  0  0  0  0  0  0  0
   -1.5000    0.0000    0.0000 C   0  0  0  0  0  0  0  0  0  0  0  0
   -0.7500    1.2990    0.0000 C   0  0  0  0  0  0  0  0  0  0  0  0
   -1.5000    2.5981    0.0000 C   0  0  0  0  0  0  0  0  0  0  0  0
   -2.9918    2.7549    0.0000 N   0  0  0  0  0  0  0  0  0  0  0  0
   -3.3037    4.2221    0.0000 N   0  0  0  0  0  0  0  0  0  0  0  0
   -4.6740    4.8322    0.0000 C   0  0  0  0  0  0  0  0  0  0  0  0
   -4.8308    6.3240    0.0000 C   0  0  0  0  0  0  0  0  0  0  0  0
   -4.9876    7.8158    0.0000 N   0  0  0  0  0  0  0  0  0  0  0  0
   -2.0046    4.9721    0.0000 C   0  0  0  0  0  0  0  0  0  0  0  0
   -0.8899    3.9684    0.0000 C   0  0  0  0  0  0  0  0  0  0  0  0
    0.5773    4.2803    0.0000 C   0  0  0  0  0  0  0  0  0  0  0  0
    1.5810    3.1655    0.0000 C   0  0  0  0  0  0  0  0  0  0  0  0
    3.0482    3.4774    0.0000 C   0  0  0  0  0  0  0  0  0  0  0  0
    4.0519    2.3627    0.0000 N   0  0  0  0  0  0  0  0  0  0  0  0
    5.5192    2.6746    0.0000 C   0  0  0  0  0  0  0  0  0  0  0  0
    6.5229    1.5598    0.0000 C   0  0  0  0  0  0  0  0  0  0  0  0
    7.9901    1.8717    0.0000 C   0  0  0  0  0  0  0  0  0  0  0  0
    6.0593    0.1333    0.0000 O   0  0  0  0  0  0  0  0  0  0  0  0
    3.5118    4.9040    0.0000 N   0  0  0  0  0  0  0  0  0  0  0  0
    2.5081    6.0187    0.0000 C   0  0  0  0  0  0  0  0  0  0  0  0
    2.9716    7.4453    0.0000 C   0  0  0  0  0  0  0  0  0  0  0  0
    4.4388    7.7572    0.0000 C   0  0  0  0  0  0  0  0  0  0  0  0
    4.9023    9.1838    0.0000 C   0  0  0  0  0  0  0  0  0  0  0  0
    3.8986   10.2985    0.0000 C   0  0  0  0  0  0  0  0  0  0  0  0
    2.4314    9.9866    0.0000 N   0  0  0  0  0  0  0  0  0  0  0  0
    1.9679    8.5600    0.0000 C   0  0  0  0  0  0  0  0  0  0  0  0
    1.0409    5.7068    0.0000 N   0  0  0  0  0  0  0  0  0  0  0  0
    0.7500    1.2990    0.0000 C   0  0  0  0  0  0  0  0  0  0  0  0
  1  2  1  0
  2  3  2  0
  3  4  1  0
  4  5  1  0
  4  6  2  0
  6  7  1  0
  7  8  1  0
  8  9  2  0
  9 10  1  0
 10 11  1  0
 11 12  1  0
 12 13  3  0
 10 14  1  0
 14 15  2  0
 15 16  1  0
 16 17  2  0
 17 18  1  0
 18 19  1  0
 19 20  1  0
 20 21  1  0
 21 22  1  6
 21 23  1  0
 18 24  2  0
 24 25  1  0
 25 26  1  0
 26 27  2  0
 27 28  1  0
 28 29  2  0
 29 30  1  0
 30 31  2  0
 25 32  2  0
  7 33  2  0
 33  2  1  0
 15  8  1  0
 32 16  1  0
 31 26  1  0
M  END
>  <Compound_ID>  (4) 
CHEMBL560733

>  <Molecule Name>  (4) 
nan

>  <Molecular Weight>  (4) 
441.5

>  <AlogP>  (4) 
3.4

>  <Smiles>  (4) 
Cc1cc(O)cc(-c2nn(CC#N)cc2-c2cc(NC[C@H](C)O)nc(-c3cccnc3)n2)c1

>  <Standard Type>  (4) 
IC50

>  <Standard Relation>  (4) 
'='

>  <Standard Units>  (4) 
nM

>  <Standard Value>  (4) 
11.0

>  <Assay ChEMBL ID>  (4) 
CHEMBL3399483

>  <Assay Description>  (4) 
Inhibition of c-Met (unknown origin) incubated for 20 mins followed by [33P]ATP addition measured after 120 mins by HotSpot assay

>  <BAO Format ID>  (4) 
BAO_0000357

>  <BAO Label>  (4) 
single protein format

>  <Assay Organism>  (4) 
Homo sapiens

>  <Target ChEMBL ID>  (4) 
CHEMBL3717

>  <Target Name>  (4) 
Hepatocyte growth factor receptor

>  <Target Organism>  (4) 
Homo sapiens

>  <Target Type>  (4) 
SINGLE PROTEIN

>  <Document ChEMBL ID>  (4) 
CHEMBL3396973

>  <Source Description>  (4) 
Scientific Literature

>  <Document Journal>  (4) 
Eur J Med Chem

>  <Document Year>  (4) 
2015.0

>  <Active>  (4) 
1.0

>  <bits>  (4) 
<rdkit.DataStructs.cDataStructs.ExplicitBitVect object at 0x000001CFA8036030>

>  <Group>  (4) 
G1

$$$$

     RDKit          2D

 37 41  0  0  0  0  0  0  0  0999 V2000
   -0.7500   -3.8971    0.0000 O   0  0  0  0  0  0  0  0  0  0  0  0
    0.7500   -3.8971    0.0000 C   0  0  0  0  0  0  0  0  0  0  0  0
    1.5000   -2.5981    0.0000 N   0  0  0  0  0  0  0  0  0  0  0  0
    0.7500   -1.2990    0.0000 C   0  0  0  0  0  0  0  0  0  0  0  0
    1.5000    0.0000    0.0000 C   0  0  0  0  0  0  0  0  0  0  0  0
    0.7500    1.2990    0.0000 C   0  0  0  0  0  0  0  0  0  0  0  0
    1.5000    2.5981    0.0000 O   0  0  0  0  0  0  0  0  0  0  0  0
    3.0000    2.5981    0.0000 C   0  0  0  0  0  0  0  0  0  0  0  0
    3.7500    1.2990    0.0000 C   0  0  0  0  0  0  0  0  0  0  0  0
    5.2500    1.2990    0.0000 C   0  0  0  0  0  0  0  0  0  0  0  0
    6.0000   -0.0000    0.0000 F   0  0  0  0  0  0  0  0  0  0  0  0
    6.0000    2.5981    0.0000 C   0  0  0  0  0  0  0  0  0  0  0  0
    7.5000    2.5981    0.0000 N   0  0  0  0  0  0  0  0  0  0  0  0
    8.2500    3.8971    0.0000 C   0  0  0  0  0  0  0  0  0  0  0  0
    7.5000    5.1962    0.0000 O   0  0  0  0  0  0  0  0  0  0  0  0
    9.7500    3.8971    0.0000 C   0  0  0  0  0  0  0  0  0  0  0  0
   10.0105    2.4199    0.0000 C   0  0  0  0  0  0  0  0  0  0  0  0
    8.8614    1.4557    0.0000 O   0  0  0  0  0  0  0  0  0  0  0  0
   11.4200    1.9069    0.0000 N   0  0  0  0  0  0  0  0  0  0  0  0
   11.6805    0.4297    0.0000 C   0  0  0  0  0  0  0  0  0  0  0  0
   10.5314   -0.5345    0.0000 C   0  0  0  0  0  0  0  0  0  0  0  0
   10.7919   -2.0117    0.0000 C   0  0  0  0  0  0  0  0  0  0  0  0
   12.2014   -2.5248    0.0000 C   0  0  0  0  0  0  0  0  0  0  0  0
   12.4619   -4.0020    0.0000 F   0  0  0  0  0  0  0  0  0  0  0  0
   13.3505   -1.5606    0.0000 C   0  0  0  0  0  0  0  0  0  0  0  0
   13.0900   -0.0834    0.0000 C   0  0  0  0  0  0  0  0  0  0  0  0
   11.1595    4.4101    0.0000 C   0  0  0  0  0  0  0  0  0  0  0  0
   10.0105    5.3743    0.0000 C   0  0  0  0  0  0  0  0  0  0  0  0
    5.2500    3.8971    0.0000 C   0  0  0  0  0  0  0  0  0  0  0  0
    3.7500    3.8971    0.0000 C   0  0  0  0  0  0  0  0  0  0  0  0
    3.0000    5.1962    0.0000 F   0  0  0  0  0  0  0  0  0  0  0  0
   -0.7500    1.2990    0.0000 C   0  0  0  0  0  0  0  0  0  0  0  0
   -1.5000    0.0000    0.0000 C   0  0  0  0  0  0  0  0  0  0  0  0
   -0.7500   -1.2990    0.0000 N   0  0  0  0  0  0  0  0  0  0  0  0
    1.5000   -5.1962    0.0000 C   0  0  0  0  0  0  0  0  0  0  0  0
    2.7990   -5.9462    0.0000 C   0  0  0  0  0  0  0  0  0  0  0  0
    1.5000   -6.6962    0.0000 C   0  0  0  0  0  0  0  0  0  0  0  0
  1  2  2  0
  2  3  1  0
  3  4  1  0
  4  5  2  0
  5  6  1  0
  6  7  1  0
  7  8  1  0
  8  9  2  0
  9 10  1  0
 10 11  1  0
 10 12  2  0
 12 13  1  0
 13 14  1  0
 14 15  2  0
 14 16  1  0
 16 17  1  0
 17 18  2  0
 17 19  1  0
 19 20  1  0
 20 21  2  0
 21 22  1  0
 22 23  2  0
 23 24  1  0
 23 25  1  0
 25 26  2  0
 16 27  1  0
 27 28  1  0
 12 29  1  0
 29 30  2  0
 30 31  1  0
  6 32  2  0
 32 33  1  0
 33 34  2  0
  2 35  1  0
 35 36  1  0
 36 37  1  0
 34  4  1  0
 37 35  1  0
 30  8  1  0
 28 16  1  0
 26 20  1  0
M  END
>  <Compound_ID>  (5) 
CHEMBL3545365

>  <Molecule Name>  (5) 
ALTIRATINIB

>  <Molecular Weight>  (5) 
510.47

>  <AlogP>  (5) 
5.0

>  <Smiles>  (5) 
O=C(Nc1cc(Oc2cc(F)c(NC(=O)C3(C(=O)Nc4ccc(F)cc4)CC3)cc2F)ccn1)C1CC1

>  <Standard Type>  (5) 
IC50

>  <Standard Relation>  (5) 
'='

>  <Standard Units>  (5) 
nM

>  <Standard Value>  (5) 
2.7

>  <Assay ChEMBL ID>  (5) 
CHEMBL3857909

>  <Assay Description>  (5) 
Inhibition of MET (unknown origin)

>  <BAO Format ID>  (5) 
BAO_0000357

>  <BAO Label>  (5) 
single protein format

>  <Assay Organism>  (5) 
Homo sapiens

>  <Target ChEMBL ID>  (5) 
CHEMBL3717

>  <Target Name>  (5) 
Hepatocyte growth factor receptor

>  <Target Organism>  (5) 
Homo sapiens

>  <Target Type>  (5) 
SINGLE PROTEIN

>  <Document ChEMBL ID>  (5) 
CHEMBL3856219

>  <Source Description>  (5) 
Scientific Literature

>  <Document Journal>  (5) 
J Med Chem

>  <Document Year>  (5) 
2016.0

>  <Active>  (5) 
1.0

>  <bits>  (5) 
<rdkit.DataStructs.cDataStructs.ExplicitBitVect object at 0x000001CFA8035FC0>

>  <Group>  (5) 
G1

$$$$

     RDKit          2D

 35 42  0  0  0  0  0  0  0  0999 V2000
    7.0384   -5.9220    0.0000 C   0  0  0  0  0  0  0  0  0  0  0  0
    6.3474   -4.5907    0.0000 N   0  0  0  0  0  0  0  0  0  0  0  0
    4.8489   -4.5234    0.0000 C   0  0  0  0  0  0  0  0  0  0  0  0
    4.0414   -5.7874    0.0000 C   0  0  0  0  0  0  0  0  0  0  0  0
    2.5382   -5.8249    0.0000 C   0  0  0  0  0  0  0  0  0  0  0  0
    3.2490   -4.5040    0.0000 O   0  0  0  0  0  0  0  0  0  0  0  0
    2.6595   -3.1247    0.0000 C   0  0  0  0  0  0  0  0  0  0  0  0
    3.6464   -1.9951    0.0000 C   0  0  0  0  0  0  0  0  0  0  0  0
    4.1580   -3.1920    0.0000 C   0  0  0  0  0  0  0  0  0  0  0  0
    4.9655   -1.9279    0.0000 O   0  0  0  0  0  0  0  0  0  0  0  0
    6.4640   -1.9952    0.0000 C   0  0  0  0  0  0  0  0  0  0  0  0
    1.2135   -2.7256    0.0000 N   0  0  0  0  0  0  0  0  0  0  0  0
    0.7500   -1.2990    0.0000 C   0  0  0  0  0  0  0  0  0  0  0  0
    1.5000    0.0000    0.0000 C   0  0  0  0  0  0  0  0  0  0  0  0
    0.7500    1.2990    0.0000 C   0  0  0  0  0  0  0  0  0  0  0  0
   -0.7500    1.2990    0.0000 C   0  0  0  0  0  0  0  0  0  0  0  0
   -1.5000    0.0000    0.0000 C   0  0  0  0  0  0  0  0  0  0  0  0
   -0.7500   -1.2990    0.0000 C   0  0  0  0  0  0  0  0  0  0  0  0
   -1.2135   -2.7256    0.0000 C   0  0  0  0  0  0  0  0  0  0  0  0
   -2.5518   -3.5691    0.0000 C   0  0  0  0  0  0  0  0  0  0  0  0
   -2.6191   -5.0676    0.0000 C   0  0  0  0  0  0  0  0  0  0  0  0
   -1.3550   -5.8751    0.0000 C   0  0  0  0  0  0  0  0  0  0  0  0
   -1.0212   -7.3375    0.0000 C   0  0  0  0  0  0  0  0  0  0  0  0
   -1.8846   -8.5641    0.0000 C   0  0  0  0  0  0  0  0  0  0  0  0
   -1.2541   -9.9251    0.0000 C   0  0  0  0  0  0  0  0  0  0  0  0
    0.2399  -10.0596    0.0000 C   0  0  0  0  0  0  0  0  0  0  0  0
    1.1033   -8.8330    0.0000 C   0  0  0  0  0  0  0  0  0  0  0  0
    0.4728   -7.4720    0.0000 C   0  0  0  0  0  0  0  0  0  0  0  0
    1.0623   -6.0927    0.0000 N   0  0  0  0  0  0  0  0  0  0  0  0
   -0.0673   -5.1058    0.0000 C   0  0  0  0  0  0  0  0  0  0  0  0
   -0.0000   -3.6073    0.0000 C   0  0  0  0  0  0  0  0  0  0  0  0
   -4.0650   -5.4667    0.0000 C   0  0  0  0  0  0  0  0  0  0  0  0
   -4.5921   -6.8710    0.0000 O   0  0  0  0  0  0  0  0  0  0  0  0
   -4.8913   -4.2148    0.0000 N   0  0  0  0  0  0  0  0  0  0  0  0
   -3.9561   -3.0421    0.0000 C   0  0  0  0  0  0  0  0  0  0  0  0
  1  2  1  0
  3  2  1  6
  3  4  1  0
  5  4  1  6
  5  6  1  0
  6  7  1  0
  7  8  1  1
  7  9  1  0
  9 10  1  6
 10 11  1  0
  7 12  1  0
 12 13  1  0
 13 14  2  0
 14 15  1  0
 15 16  2  0
 16 17  1  0
 17 18  2  0
 18 19  1  0
 19 20  2  0
 20 21  1  0
 21 22  2  0
 22 23  1  0
 23 24  2  0
 24 25  1  0
 25 26  2  0
 26 27  1  0
 27 28  2  0
 28 29  1  0
 29 30  1  0
 30 31  2  0
 21 32  1  0
 32 33  2  0
 32 34  1  0
 34 35  1  0
  9  3  1  0
 31 12  1  0
 29  5  1  0
 18 13  1  0
 31 19  1  0
 35 20  1  0
 30 22  1  0
 28 23  1  0
M  END
>  <Compound_ID>  (6) 
CHEMBL388978

>  <Molecule Name>  (6) 
STAUROSPORINE

>  <Molecular Weight>  (6) 
466.54

>  <AlogP>  (6) 
4.35

>  <Smiles>  (6) 
CN[C@@H]1C[C@H]2O[C@@](C)([C@@H]1OC)n1c3ccccc3c3c4c(c5c6ccccc6n2c5c31)C(=O)NC4

>  <Standard Type>  (6) 
IC50

>  <Standard Relation>  (6) 
'='

>  <Standard Units>  (6) 
nM

>  <Standard Value>  (6) 
90.0

>  <Assay ChEMBL ID>  (6) 
CHEMBL4021252

>  <Assay Description>  (6) 
Inhibition of recombinant c-MET (unknown origin) using poly (Glu, Tyr) 4:1 as substrate after 45 mins by ELISA

>  <BAO Format ID>  (6) 
BAO_0000357

>  <BAO Label>  (6) 
single protein format

>  <Assay Organism>  (6) 
Homo sapiens

>  <Target ChEMBL ID>  (6) 
CHEMBL3717

>  <Target Name>  (6) 
Hepatocyte growth factor receptor

>  <Target Organism>  (6) 
Homo sapiens

>  <Target Type>  (6) 
SINGLE PROTEIN

>  <Document ChEMBL ID>  (6) 
CHEMBL4020722

>  <Source Description>  (6) 
Scientific Literature

>  <Document Journal>  (6) 
Bioorg Med Chem

>  <Document Year>  (6) 
2017.0

>  <Active>  (6) 
1.0

>  <bits>  (6) 
<rdkit.DataStructs.cDataStructs.ExplicitBitVect object at 0x000001CFA8035F50>

>  <Group>  (6) 
G1

$$$$

     RDKit          2D

 39 44  0  0  0  0  0  0  0  0999 V2000
    3.1476   -2.1380    0.0000 O   0  0  0  0  0  0  0  0  0  0  0  0
    1.6852   -2.4718    0.0000 C   0  0  0  0  0  0  0  0  0  0  0  0
    0.7500   -1.2990    0.0000 C   0  0  0  0  0  0  0  0  0  0  0  0
    1.5000    0.0000    0.0000 C   0  0  0  0  0  0  0  0  0  0  0  0
    0.7500    1.2990    0.0000 C   0  0  0  0  0  0  0  0  0  0  0  0
    1.5000    2.5981    0.0000 C   0  0  0  0  0  0  0  0  0  0  0  0
    3.0000    2.5981    0.0000 S   0  0  0  0  0  0  0  0  0  0  0  0
    3.0000    4.0981    0.0000 O   0  0  0  0  0  0  0  0  0  0  0  0
    3.0000    1.0981    0.0000 O   0  0  0  0  0  0  0  0  0  0  0  0
    4.5000    2.5981    0.0000 N   0  0  0  0  0  0  0  0  0  0  0  0
    5.2500    1.2990    0.0000 C   0  0  0  0  0  0  0  0  0  0  0  0
    6.7500    1.2990    0.0000 C   0  0  0  0  0  0  0  0  0  0  0  0
    7.5000   -0.0000    0.0000 C   0  0  0  0  0  0  0  0  0  0  0  0
    9.0000   -0.0000    0.0000 C   0  0  0  0  0  0  0  0  0  0  0  0
    9.7500    1.2990    0.0000 C   0  0  0  0  0  0  0  0  0  0  0  0
    9.0000    2.5981    0.0000 C   0  0  0  0  0  0  0  0  0  0  0  0
    7.5000    2.5981    0.0000 N   0  0  0  0  0  0  0  0  0  0  0  0
   -0.7500    1.2990    0.0000 C   0  0  0  0  0  0  0  0  0  0  0  0
   -1.5000    0.0000    0.0000 C   0  0  0  0  0  0  0  0  0  0  0  0
   -0.7500   -1.2990    0.0000 C   0  0  0  0  0  0  0  0  0  0  0  0
   -1.6852   -2.4718    0.0000 C   0  0  0  0  0  0  0  0  0  0  0  0
   -1.3515   -3.9342    0.0000 C   0  0  0  0  0  0  0  0  0  0  0  0
   -0.0000   -4.5850    0.0000 C   0  0  0  0  0  0  0  0  0  0  0  0
   -0.1121   -6.0808    0.0000 N   0  0  0  0  0  0  0  0  0  0  0  0
    1.1273   -6.9258    0.0000 C   0  0  0  0  0  0  0  0  0  0  0  0
    2.4787   -6.2750    0.0000 C   0  0  0  0  0  0  0  0  0  0  0  0
    3.7181   -7.1199    0.0000 C   0  0  0  0  0  0  0  0  0  0  0  0
    5.1302   -6.6139    0.0000 C   0  0  0  0  0  0  0  0  0  0  0  0
    6.0477   -7.8006    0.0000 N   0  0  0  0  0  0  0  0  0  0  0  0
    5.2028   -9.0399    0.0000 N   0  0  0  0  0  0  0  0  0  0  0  0
    5.7088  -10.4520    0.0000 C   0  0  0  0  0  0  0  0  0  0  0  0
    4.7389  -11.5962    0.0000 C   0  0  0  0  0  0  0  0  0  0  0  0
    5.2449  -13.0083    0.0000 C   0  0  0  0  0  0  0  0  0  0  0  0
    6.7207  -13.2762    0.0000 N   0  0  0  0  0  0  0  0  0  0  0  0
    7.6906  -12.1319    0.0000 C   0  0  0  0  0  0  0  0  0  0  0  0
    7.1846  -10.7198    0.0000 C   0  0  0  0  0  0  0  0  0  0  0  0
    3.7629   -8.6193    0.0000 C   0  0  0  0  0  0  0  0  0  0  0  0
    2.5908   -4.7792    0.0000 C   0  0  0  0  0  0  0  0  0  0  0  0
    1.3515   -3.9342    0.0000 C   0  0  0  0  0  0  0  0  0  0  0  0
  1  2  2  0
  2  3  1  0
  3  4  2  0
  4  5  1  0
  5  6  1  0
  6  7  1  0
  7  8  2  0
  7  9  2  0
  7 10  1  0
 10 11  1  0
 11 12  1  0
 12 13  2  0
 13 14  1  0
 14 15  2  0
 15 16  1  0
 16 17  2  0
  5 18  2  0
 18 19  1  0
 19 20  2  0
 20 21  1  0
 21 22  2  0
 22 23  1  0
 23 24  2  0
 24 25  1  0
 25 26  2  0
 26 27  1  0
 27 28  1  0
 28 29  2  0
 29 30  1  0
 30 31  1  0
 31 32  1  0
 32 33  1  0
 33 34  1  0
 34 35  1  0
 35 36  1  0
 30 37  1  0
 26 38  1  0
 38 39  2  0
 39  2  1  0
 20  3  1  0
 39 23  1  0
 17 12  1  0
 37 27  2  0
 36 31  1  0
M  END
>  <Compound_ID>  (7) 
CHEMBL2323783

>  <Molecule Name>  (7) 
nan

>  <Molecular Weight>  (7) 
540.65

>  <AlogP>  (7) 
3.55

>  <Smiles>  (7) 
O=c1c2cc(CS(=O)(=O)NCc3ccccn3)ccc2ccc2ncc(-c3cnn(C4CCNCC4)c3)cc12

>  <Standard Type>  (7) 
IC50

>  <Standard Relation>  (7) 
'='

>  <Standard Units>  (7) 
nM

>  <Standard Value>  (7) 
1.0

>  <Assay ChEMBL ID>  (7) 
CHEMBL2327588

>  <Assay Description>  (7) 
Inhibition of c-MET (unknown origin)-catalyzed N-biotinylated EQEDEPEGDYFEWLECONH2 phosphorylation by TR-FRET assay

>  <BAO Format ID>  (7) 
BAO_0000357

>  <BAO Label>  (7) 
single protein format

>  <Assay Organism>  (7) 
Homo sapiens

>  <Target ChEMBL ID>  (7) 
CHEMBL3717

>  <Target Name>  (7) 
Hepatocyte growth factor receptor

>  <Target Organism>  (7) 
Homo sapiens

>  <Target Type>  (7) 
SINGLE PROTEIN

>  <Document ChEMBL ID>  (7) 
CHEMBL2321765

>  <Source Description>  (7) 
Scientific Literature

>  <Document Journal>  (7) 
J Med Chem

>  <Document Year>  (7) 
2013.0

>  <Active>  (7) 
1.0

>  <bits>  (7) 
<rdkit.DataStructs.cDataStructs.ExplicitBitVect object at 0x000001CFA8035EE0>

>  <Group>  (7) 
G1

$$$$

     RDKit          2D

 30 34  0  0  0  0  0  0  0  0999 V2000
    3.7500   -1.2990    0.0000 C   0  0  0  0  0  0  0  0  0  0  0  0
    3.0000    0.0000    0.0000 O   0  0  0  0  0  0  0  0  0  0  0  0
    1.5000    0.0000    0.0000 C   0  0  0  0  0  0  0  0  0  0  0  0
    0.7500   -1.2990    0.0000 C   0  0  0  0  0  0  0  0  0  0  0  0
   -0.7500   -1.2990    0.0000 N   0  0  0  0  0  0  0  0  0  0  0  0
   -1.5000    0.0000    0.0000 C   0  0  0  0  0  0  0  0  0  0  0  0
   -3.0000    0.0000    0.0000 C   0  0  0  0  0  0  0  0  0  0  0  0
   -3.7500    1.2990    0.0000 C   0  0  0  0  0  0  0  0  0  0  0  0
   -3.0000    2.5981    0.0000 N   0  0  0  0  0  0  0  0  0  0  0  0
   -3.7500    3.8971    0.0000 C   0  0  0  0  0  0  0  0  0  0  0  0
   -5.2500    3.8971    0.0000 C   0  0  0  0  0  0  0  0  0  0  0  0
   -3.0000    5.1962    0.0000 C   0  0  0  0  0  0  0  0  0  0  0  0
   -1.5082    5.3529    0.0000 N   0  0  0  0  0  0  0  0  0  0  0  0
   -1.1963    6.8202    0.0000 N   0  0  0  0  0  0  0  0  0  0  0  0
   -2.4954    7.5702    0.0000 C   0  0  0  0  0  0  0  0  0  0  0  0
   -2.8073    9.0374    0.0000 C   0  0  0  0  0  0  0  0  0  0  0  0
   -4.2338    9.5009    0.0000 C   0  0  0  0  0  0  0  0  0  0  0  0
   -5.3486    8.4972    0.0000 C   0  0  0  0  0  0  0  0  0  0  0  0
   -6.7751    8.9607    0.0000 C   0  0  0  0  0  0  0  0  0  0  0  0
   -7.9887    8.0791    0.0000 C   0  0  0  0  0  0  0  0  0  0  0  0
   -9.2022    8.9607    0.0000 N   0  0  0  0  0  0  0  0  0  0  0  0
   -8.7387   10.3873    0.0000 N   0  0  0  0  0  0  0  0  0  0  0  0
   -9.6203   11.6009    0.0000 C   0  0  0  0  0  0  0  0  0  0  0  0
   -7.2387   10.3873    0.0000 C   0  0  0  0  0  0  0  0  0  0  0  0
   -5.0367    7.0300    0.0000 C   0  0  0  0  0  0  0  0  0  0  0  0
   -3.6101    6.5665    0.0000 N   0  0  0  0  0  0  0  0  0  0  0  0
   -1.5000    2.5981    0.0000 C   0  0  0  0  0  0  0  0  0  0  0  0
   -0.7500    3.8971    0.0000 O   0  0  0  0  0  0  0  0  0  0  0  0
   -0.7500    1.2990    0.0000 C   0  0  0  0  0  0  0  0  0  0  0  0
    0.7500    1.2990    0.0000 C   0  0  0  0  0  0  0  0  0  0  0  0
  1  2  1  0
  2  3  1  0
  3  4  2  0
  4  5  1  0
  5  6  2  0
  6  7  1  0
  7  8  2  0
  8  9  1  0
  9 10  1  0
 10 11  1  6
 10 12  1  0
 12 13  2  0
 13 14  1  0
 14 15  2  0
 15 16  1  0
 16 17  2  0
 17 18  1  0
 18 19  1  0
 19 20  1  0
 20 21  2  0
 21 22  1  0
 22 23  1  0
 22 24  1  0
 18 25  2  0
 25 26  1  0
  9 27  1  0
 27 28  2  0
 27 29  1  0
 29 30  2  0
 30  3  1  0
 29  6  1  0
 26 12  1  0
 26 15  1  0
 24 19  2  0
M  END
>  <Compound_ID>  (8) 
CHEMBL3785374

>  <Molecule Name>  (8) 
nan

>  <Molecular Weight>  (8) 
401.43

>  <AlogP>  (8) 
2.46

>  <Smiles>  (8) 
COc1cnc2ccn([C@H](C)c3nnc4ccc(-c5cnn(C)c5)cn34)c(=O)c2c1

>  <Standard Type>  (8) 
IC50

>  <Standard Relation>  (8) 
'='

>  <Standard Units>  (8) 
nM

>  <Standard Value>  (8) 
9.0

>  <Assay ChEMBL ID>  (8) 
CHEMBL3788750

>  <Assay Description>  (8) 
Inhibition of recombinant MET (unknown origin) using gastrin peptide as substrate preincubated for 30 mins followed by substrate addition incubated for 60 mins by HTRF assay

>  <BAO Format ID>  (8) 
BAO_0000357

>  <BAO Label>  (8) 
single protein format

>  <Assay Organism>  (8) 
Homo sapiens

>  <Target ChEMBL ID>  (8) 
CHEMBL3717

>  <Target Name>  (8) 
Hepatocyte growth factor receptor

>  <Target Organism>  (8) 
Homo sapiens

>  <Target Type>  (8) 
SINGLE PROTEIN

>  <Document ChEMBL ID>  (8) 
CHEMBL3784965

>  <Source Description>  (8) 
Scientific Literature

>  <Document Journal>  (8) 
J Med Chem

>  <Document Year>  (8) 
2016.0

>  <Active>  (8) 
1.0

>  <bits>  (8) 
<rdkit.DataStructs.cDataStructs.ExplicitBitVect object at 0x000001CFA8035E70>

>  <Group>  (8) 
G1

$$$$

     RDKit          2D

 25 28  0  0  0  0  0  0  0  0999 V2000
   -5.3142   -9.5216    0.0000 C   0  0  0  0  0  0  0  0  0  0  0  0
   -3.8876   -9.0580    0.0000 O   0  0  0  0  0  0  0  0  0  0  0  0
   -3.5757   -7.5908    0.0000 C   0  0  0  0  0  0  0  0  0  0  0  0
   -4.6904   -6.5871    0.0000 C   0  0  0  0  0  0  0  0  0  0  0  0
   -4.3786   -5.1199    0.0000 C   0  0  0  0  0  0  0  0  0  0  0  0
   -2.9520   -4.6564    0.0000 C   0  0  0  0  0  0  0  0  0  0  0  0
   -2.6401   -3.1891    0.0000 C   0  0  0  0  0  0  0  0  0  0  0  0
   -1.2135   -2.7256    0.0000 C   0  0  0  0  0  0  0  0  0  0  0  0
   -0.0000   -3.6073    0.0000 N   0  0  0  0  0  0  0  0  0  0  0  0
    1.2135   -2.7256    0.0000 N   0  0  0  0  0  0  0  0  0  0  0  0
    0.7500   -1.2990    0.0000 C   0  0  0  0  0  0  0  0  0  0  0  0
    1.5000    0.0000    0.0000 N   0  0  0  0  0  0  0  0  0  0  0  0
    0.7500    1.2990    0.0000 C   0  0  0  0  0  0  0  0  0  0  0  0
   -0.7500    1.2990    0.0000 C   0  0  0  0  0  0  0  0  0  0  0  0
   -1.5000    2.5981    0.0000 C   0  0  0  0  0  0  0  0  0  0  0  0
   -0.7500    3.8971    0.0000 C   0  0  0  0  0  0  0  0  0  0  0  0
   -1.5000    5.1962    0.0000 C   0  0  0  0  0  0  0  0  0  0  0  0
   -3.0000    5.1962    0.0000 C   0  0  0  0  0  0  0  0  0  0  0  0
   -3.7500    6.4952    0.0000 F   0  0  0  0  0  0  0  0  0  0  0  0
   -3.7500    3.8971    0.0000 C   0  0  0  0  0  0  0  0  0  0  0  0
   -3.0000    2.5981    0.0000 C   0  0  0  0  0  0  0  0  0  0  0  0
   -1.5000    0.0000    0.0000 N   0  0  0  0  0  0  0  0  0  0  0  0
   -0.7500   -1.2990    0.0000 N   0  0  0  0  0  0  0  0  0  0  0  0
   -1.8373   -5.6601    0.0000 C   0  0  0  0  0  0  0  0  0  0  0  0
   -2.1491   -7.1273    0.0000 C   0  0  0  0  0  0  0  0  0  0  0  0
  1  2  1  0
  2  3  1  0
  3  4  2  0
  4  5  1  0
  5  6  2  0
  6  7  1  0
  7  8  1  0
  8  9  2  0
  9 10  1  0
 10 11  2  0
 11 12  1  0
 12 13  2  0
 13 14  1  0
 14 15  1  0
 15 16  2  0
 16 17  1  0
 17 18  2  0
 18 19  1  0
 18 20  1  0
 20 21  2  0
 14 22  2  0
 22 23  1  0
  6 24  1  0
 24 25  2  0
 25  3  1  0
 23  8  1  0
 23 11  1  0
 21 15  1  0
M  END
>  <Compound_ID>  (9) 
CHEMBL2170959

>  <Molecule Name>  (9) 
nan

>  <Molecular Weight>  (9) 
335.34

>  <AlogP>  (9) 
2.92

>  <Smiles>  (9) 
COc1ccc(Cc2nnc3ncc(-c4ccc(F)cc4)nn23)cc1

>  <Standard Type>  (9) 
Ki

>  <Standard Relation>  (9) 
'='

>  <Standard Units>  (9) 
nM

>  <Standard Value>  (9) 
69.0

>  <Assay ChEMBL ID>  (9) 
CHEMBL2175491

>  <Assay Description>  (9) 
Competitive inhibition of N-terminal His6-tagged recombinant human c-MET (974 to 1390 amino acids) by spectrophotometry

>  <BAO Format ID>  (9) 
BAO_0000357

>  <BAO Label>  (9) 
single protein format

>  <Assay Organism>  (9) 
Homo sapiens

>  <Target ChEMBL ID>  (9) 
CHEMBL3717

>  <Target Name>  (9) 
Hepatocyte growth factor receptor

>  <Target Organism>  (9) 
Homo sapiens

>  <Target Type>  (9) 
SINGLE PROTEIN

>  <Document ChEMBL ID>  (9) 
CHEMBL2169886

>  <Source Description>  (9) 
Scientific Literature

>  <Document Journal>  (9) 
J Med Chem

>  <Document Year>  (9) 
2012.0

>  <Active>  (9) 
1.0

>  <bits>  (9) 
<rdkit.DataStructs.cDataStructs.ExplicitBitVect object at 0x000001CFA8035E00>

>  <Group>  (9) 
G1

$$$$

     RDKit          2D

 35 38  0  0  0  0  0  0  0  0999 V2000
   -0.7500   -3.8971    0.0000 O   0  0  0  0  0  0  0  0  0  0  0  0
    0.7500   -3.8971    0.0000 C   0  0  0  0  0  0  0  0  0  0  0  0
    1.5000   -2.5981    0.0000 N   0  0  0  0  0  0  0  0  0  0  0  0
    0.7500   -1.2990    0.0000 C   0  0  0  0  0  0  0  0  0  0  0  0
    1.5000    0.0000    0.0000 C   0  0  0  0  0  0  0  0  0  0  0  0
    0.7500    1.2990    0.0000 C   0  0  0  0  0  0  0  0  0  0  0  0
   -0.7500    1.2990    0.0000 C   0  0  0  0  0  0  0  0  0  0  0  0
   -1.5000    0.0000    0.0000 C   0  0  0  0  0  0  0  0  0  0  0  0
   -3.0000    0.0000    0.0000 O   0  0  0  0  0  0  0  0  0  0  0  0
   -0.7500   -1.2990    0.0000 C   0  0  0  0  0  0  0  0  0  0  0  0
    1.5000   -5.1962    0.0000 C   0  0  0  0  0  0  0  0  0  0  0  0
    0.7500   -6.4952    0.0000 C   0  0  0  0  0  0  0  0  0  0  0  0
    1.5000   -7.7942    0.0000 C   0  0  0  0  0  0  0  0  0  0  0  0
    3.0000   -7.7942    0.0000 C   0  0  0  0  0  0  0  0  0  0  0  0
    3.7500   -9.0933    0.0000 O   0  0  0  0  0  0  0  0  0  0  0  0
    3.0000  -10.3923    0.0000 C   0  0  0  0  0  0  0  0  0  0  0  0
    3.7500  -11.6913    0.0000 C   0  0  0  0  0  0  0  0  0  0  0  0
    3.0000  -12.9904    0.0000 C   0  0  0  0  0  0  0  0  0  0  0  0
    3.7500  -14.2894    0.0000 N   0  0  0  0  0  0  0  0  0  0  0  0
    5.2418  -14.4462    0.0000 C   0  0  0  0  0  0  0  0  0  0  0  0
    5.5537  -15.9134    0.0000 C   0  0  0  0  0  0  0  0  0  0  0  0
    4.2546  -16.6634    0.0000 C   0  0  0  0  0  0  0  0  0  0  0  0
    3.1399  -15.6597    0.0000 C   0  0  0  0  0  0  0  0  0  0  0  0
    3.7500   -6.4952    0.0000 C   0  0  0  0  0  0  0  0  0  0  0  0
    3.0000   -5.1962    0.0000 C   0  0  0  0  0  0  0  0  0  0  0  0
    3.7500   -3.8971    0.0000 O   0  0  0  0  0  0  0  0  0  0  0  0
    5.2500   -3.8971    0.0000 C   0  0  0  0  0  0  0  0  0  0  0  0
    6.0000   -2.5981    0.0000 C   0  0  0  0  0  0  0  0  0  0  0  0
    7.5000   -2.5981    0.0000 C   0  0  0  0  0  0  0  0  0  0  0  0
    8.2500   -3.8971    0.0000 F   0  0  0  0  0  0  0  0  0  0  0  0
    8.2500   -1.2990    0.0000 C   0  0  0  0  0  0  0  0  0  0  0  0
    7.5000   -0.0000    0.0000 C   0  0  0  0  0  0  0  0  0  0  0  0
    6.0000   -0.0000    0.0000 C   0  0  0  0  0  0  0  0  0  0  0  0
    5.2500   -1.2990    0.0000 C   0  0  0  0  0  0  0  0  0  0  0  0
    3.7500   -1.2990    0.0000 F   0  0  0  0  0  0  0  0  0  0  0  0
  1  2  2  0
  2  3  1  0
  3  4  1  0
  4  5  2  0
  5  6  1  0
  6  7  2  0
  7  8  1  0
  8  9  1  0
  8 10  2  0
  2 11  1  0
 11 12  2  0
 12 13  1  0
 13 14  2  0
 14 15  1  0
 15 16  1  0
 16 17  1  0
 17 18  1  0
 18 19  1  0
 19 20  1  0
 20 21  1  0
 21 22  1  0
 22 23  1  0
 14 24  1  0
 24 25  2  0
 25 26  1  0
 26 27  1  0
 27 28  1  0
 28 29  2  0
 29 30  1  0
 29 31  1  0
 31 32  2  0
 32 33  1  0
 33 34  2  0
 34 35  1  0
 10  4  1  0
 25 11  1  0
 34 28  1  0
 23 19  1  0
M  END
>  <Compound_ID>  (10) 
CHEMBL1824370

>  <Molecule Name>  (10) 
nan

>  <Molecular Weight>  (10) 
482.53

>  <AlogP>  (10) 
5.37

>  <Smiles>  (10) 
O=C(Nc1cccc(O)c1)c1ccc(OCCCN2CCCC2)cc1OCc1c(F)cccc1F

>  <Standard Type>  (10) 
IC50

>  <Standard Relation>  (10) 
'='

>  <Standard Units>  (10) 
nM

>  <Standard Value>  (10) 
69.18

>  <Assay ChEMBL ID>  (10) 
CHEMBL1825612

>  <Assay Description>  (10) 
Inhibition of recombinant GST-tagged wild type c-met kinase domain (residues 1056-1371) using biotin-poly EAY as substrate in the presence of ATP after 60 mins by microplate reader analysis

>  <BAO Format ID>  (10) 
BAO_0000357

>  <BAO Label>  (10) 
single protein format

>  <Assay Organism>  (10) 
None

>  <Target ChEMBL ID>  (10) 
CHEMBL3717

>  <Target Name>  (10) 
Hepatocyte growth factor receptor

>  <Target Organism>  (10) 
Homo sapiens

>  <Target Type>  (10) 
SINGLE PROTEIN

>  <Document ChEMBL ID>  (10) 
CHEMBL1821726

>  <Source Description>  (10) 
Scientific Literature

>  <Document Journal>  (10) 
Bioorg Med Chem Lett

>  <Document Year>  (10) 
2011.0

>  <Active>  (10) 
1.0

>  <bits>  (10) 
<rdkit.DataStructs.cDataStructs.ExplicitBitVect object at 0x000001CFA8035D90>

>  <Group>  (10) 
G1

$$$$

     RDKit          2D

 29 33  0  0  0  0  0  0  0  0999 V2000
    3.0000    0.0000    0.0000 O   0  0  0  0  0  0  0  0  0  0  0  0
    1.5000    0.0000    0.0000 C   0  0  0  0  0  0  0  0  0  0  0  0
    0.7500   -1.2990    0.0000 N   0  0  0  0  0  0  0  0  0  0  0  0
   -0.7500   -1.2990    0.0000 C   0  0  0  0  0  0  0  0  0  0  0  0
   -1.5000    0.0000    0.0000 C   0  0  0  0  0  0  0  0  0  0  0  0
   -0.7500    1.2990    0.0000 C   0  0  0  0  0  0  0  0  0  0  0  0
   -1.5000    2.5981    0.0000 C   0  0  0  0  0  0  0  0  0  0  0  0
   -3.0000    2.5981    0.0000 C   0  0  0  0  0  0  0  0  0  0  0  0
   -3.7500    3.8971    0.0000 C   0  0  0  0  0  0  0  0  0  0  0  0
   -3.1399    5.2674    0.0000 N   0  0  0  0  0  0  0  0  0  0  0  0
   -4.2546    6.2711    0.0000 N   0  0  0  0  0  0  0  0  0  0  0  0
   -5.5537    5.5211    0.0000 C   0  0  0  0  0  0  0  0  0  0  0  0
   -6.9802    5.9847    0.0000 C   0  0  0  0  0  0  0  0  0  0  0  0
   -8.0950    4.9810    0.0000 C   0  0  0  0  0  0  0  0  0  0  0  0
   -7.7831    3.5137    0.0000 C   0  0  0  0  0  0  0  0  0  0  0  0
   -8.8978    2.5100    0.0000 C   0  0  0  0  0  0  0  0  0  0  0  0
   -8.7410    1.0183    0.0000 C   0  0  0  0  0  0  0  0  0  0  0  0
  -10.1113    0.4082    0.0000 N   0  0  0  0  0  0  0  0  0  0  0  0
  -11.1150    1.5229    0.0000 N   0  0  0  0  0  0  0  0  0  0  0  0
  -12.6068    1.3661    0.0000 C   0  0  0  0  0  0  0  0  0  0  0  0
  -13.4885    2.5796    0.0000 C   0  0  0  0  0  0  0  0  0  0  0  0
  -14.9803    2.4228    0.0000 O   0  0  0  0  0  0  0  0  0  0  0  0
  -10.3650    2.8219    0.0000 C   0  0  0  0  0  0  0  0  0  0  0  0
   -6.3565    3.0502    0.0000 N   0  0  0  0  0  0  0  0  0  0  0  0
   -5.2418    4.0539    0.0000 N   0  0  0  0  0  0  0  0  0  0  0  0
   -0.7500    3.8971    0.0000 C   0  0  0  0  0  0  0  0  0  0  0  0
    0.7500    3.8971    0.0000 C   0  0  0  0  0  0  0  0  0  0  0  0
    1.5000    2.5981    0.0000 C   0  0  0  0  0  0  0  0  0  0  0  0
    0.7500    1.2990    0.0000 C   0  0  0  0  0  0  0  0  0  0  0  0
  1  2  2  0
  2  3  1  0
  3  4  1  0
  4  5  2  0
  5  6  1  0
  6  7  2  0
  7  8  1  0
  8  9  1  0
  9 10  2  0
 10 11  1  0
 11 12  2  0
 12 13  1  0
 13 14  2  0
 14 15  1  0
 15 16  1  0
 16 17  1  0
 17 18  2  0
 18 19  1  0
 19 20  1  0
 20 21  1  0
 21 22  1  0
 19 23  1  0
 15 24  2  0
 24 25  1  0
  7 26  1  0
 26 27  2  0
 27 28  1  0
 28 29  2  0
 29  2  1  0
 29  6  1  0
 25  9  1  0
 25 12  1  0
 23 16  2  0
M  END
>  <Compound_ID>  (11) 
CHEMBL1922406

>  <Molecule Name>  (11) 
nan

>  <Molecular Weight>  (11) 
387.4

>  <AlogP>  (11) 
1.41

>  <Smiles>  (11) 
O=c1[nH]ccc2c(Cc3nnc4ccc(-c5cnn(CCO)c5)nn34)cccc12

>  <Standard Type>  (11) 
IC50

>  <Standard Relation>  (11) 
'='

>  <Standard Units>  (11) 
nM

>  <Standard Value>  (11) 
2.0

>  <Assay ChEMBL ID>  (11) 
CHEMBL1925561

>  <Assay Description>  (11) 
Inhibition of recombinant c-met by HTRF assay

>  <BAO Format ID>  (11) 
BAO_0000357

>  <BAO Label>  (11) 
single protein format

>  <Assay Organism>  (11) 
None

>  <Target ChEMBL ID>  (11) 
CHEMBL3717

>  <Target Name>  (11) 
Hepatocyte growth factor receptor

>  <Target Organism>  (11) 
Homo sapiens

>  <Target Type>  (11) 
SINGLE PROTEIN

>  <Document ChEMBL ID>  (11) 
CHEMBL1921685

>  <Source Description>  (11) 
Scientific Literature

>  <Document Journal>  (11) 
Bioorg Med Chem Lett

>  <Document Year>  (11) 
2011.0

>  <Active>  (11) 
1.0

>  <bits>  (11) 
<rdkit.DataStructs.cDataStructs.ExplicitBitVect object at 0x000001CFA8035D20>

>  <Group>  (11) 
G1

$$$$

     RDKit          2D

 23 26  0  0  0  0  0  0  0  0999 V2000
    4.6740   -4.8322    0.0000 C   0  0  0  0  0  0  0  0  0  0  0  0
    3.3037   -4.2221    0.0000 C   0  0  0  0  0  0  0  0  0  0  0  0
    2.9918   -2.7549    0.0000 C   0  0  0  0  0  0  0  0  0  0  0  0
    1.5000   -2.5981    0.0000 C   0  0  0  0  0  0  0  0  0  0  0  0
    0.7500   -1.2990    0.0000 C   0  0  0  0  0  0  0  0  0  0  0  0
    1.5000    0.0000    0.0000 C   0  0  0  0  0  0  0  0  0  0  0  0
    0.7500    1.2990    0.0000 C   0  0  0  0  0  0  0  0  0  0  0  0
   -0.7500    1.2990    0.0000 C   0  0  0  0  0  0  0  0  0  0  0  0
   -1.7537    2.4138    0.0000 N   0  0  0  0  0  0  0  0  0  0  0  0
   -3.1240    1.8037    0.0000 N   0  0  0  0  0  0  0  0  0  0  0  0
   -2.9672    0.3119    0.0000 C   0  0  0  0  0  0  0  0  0  0  0  0
   -4.0819   -0.6918    0.0000 C   0  0  0  0  0  0  0  0  0  0  0  0
   -5.5085   -0.2283    0.0000 C   0  0  0  0  0  0  0  0  0  0  0  0
   -5.8204    1.2389    0.0000 C   0  0  0  0  0  0  0  0  0  0  0  0
   -7.2470    1.7024    0.0000 C   0  0  0  0  0  0  0  0  0  0  0  0
   -8.3617    0.6987    0.0000 C   0  0  0  0  0  0  0  0  0  0  0  0
   -9.7883    1.1623    0.0000 O   0  0  0  0  0  0  0  0  0  0  0  0
   -8.0498   -0.7685    0.0000 C   0  0  0  0  0  0  0  0  0  0  0  0
   -6.6232   -1.2320    0.0000 C   0  0  0  0  0  0  0  0  0  0  0  0
   -1.5000    0.0000    0.0000 N   0  0  0  0  0  0  0  0  0  0  0  0
   -0.7500   -1.2990    0.0000 N   0  0  0  0  0  0  0  0  0  0  0  0
    0.8899   -3.9684    0.0000 S   0  0  0  0  0  0  0  0  0  0  0  0
    2.0046   -4.9721    0.0000 N   0  0  0  0  0  0  0  0  0  0  0  0
  1  2  1  0
  2  3  1  0
  3  4  2  0
  4  5  1  0
  5  6  1  0
  6  7  2  0
  7  8  1  0
  8  9  2  0
  9 10  1  0
 10 11  2  0
 11 12  1  0
 12 13  1  0
 13 14  2  0
 14 15  1  0
 15 16  2  0
 16 17  1  0
 16 18  1  0
 18 19  2  0
 11 20  1  0
 20 21  1  0
  4 22  1  0
 22 23  1  0
 23  2  2  0
 21  5  2  0
 20  8  1  0
 19 13  1  0
M  END
>  <Compound_ID>  (12) 
CHEMBL523413

>  <Molecule Name>  (12) 
nan

>  <Molecular Weight>  (12) 
323.38

>  <AlogP>  (12) 
2.85

>  <Smiles>  (12) 
Cc1cc(-c2ccc3nnc(Cc4ccc(O)cc4)n3n2)sn1

>  <Standard Type>  (12) 
IC50

>  <Standard Relation>  (12) 
'='

>  <Standard Units>  (12) 
nM

>  <Standard Value>  (12) 
3.0

>  <Assay ChEMBL ID>  (12) 
CHEMBL953205

>  <Assay Description>  (12) 
Inhibition of c-Met by HTRF assay

>  <BAO Format ID>  (12) 
BAO_0000357

>  <BAO Label>  (12) 
single protein format

>  <Assay Organism>  (12) 
None

>  <Target ChEMBL ID>  (12) 
CHEMBL3717

>  <Target Name>  (12) 
Hepatocyte growth factor receptor

>  <Target Organism>  (12) 
Homo sapiens

>  <Target Type>  (12) 
SINGLE PROTEIN

>  <Document ChEMBL ID>  (12) 
CHEMBL1150286

>  <Source Description>  (12) 
Scientific Literature

>  <Document Journal>  (12) 
J Med Chem

>  <Document Year>  (12) 
2008.0

>  <Active>  (12) 
1.0

>  <bits>  (12) 
<rdkit.DataStructs.cDataStructs.ExplicitBitVect object at 0x000001CFA8035CB0>

>  <Group>  (12) 
G1

$$$$

     RDKit          2D

 32 37  0  0  0  0  0  0  0  0999 V2000
   -2.5981   -5.1073    0.0000 O   0  0  0  0  0  0  0  0  0  0  0  0
   -1.2990   -5.8573    0.0000 C   0  0  0  0  0  0  0  0  0  0  0  0
   -0.0000   -5.1073    0.0000 N   0  0  0  0  0  0  0  0  0  0  0  0
   -0.0000   -3.6073    0.0000 C   0  0  0  0  0  0  0  0  0  0  0  0
    1.2135   -2.7256    0.0000 N   0  0  0  0  0  0  0  0  0  0  0  0
    0.7500   -1.2990    0.0000 C   0  0  0  0  0  0  0  0  0  0  0  0
    1.5000    0.0000    0.0000 C   0  0  0  0  0  0  0  0  0  0  0  0
    0.7500    1.2990    0.0000 C   0  0  0  0  0  0  0  0  0  0  0  0
   -0.7500    1.2990    0.0000 C   0  0  0  0  0  0  0  0  0  0  0  0
   -1.5000    2.5981    0.0000 S   0  0  0  0  0  0  0  0  0  0  0  0
   -0.7500    3.8971    0.0000 C   0  0  0  0  0  0  0  0  0  0  0  0
    0.7418    4.0539    0.0000 N   0  0  0  0  0  0  0  0  0  0  0  0
    1.0537    5.5211    0.0000 N   0  0  0  0  0  0  0  0  0  0  0  0
   -0.2454    6.2711    0.0000 C   0  0  0  0  0  0  0  0  0  0  0  0
   -0.5573    7.7383    0.0000 C   0  0  0  0  0  0  0  0  0  0  0  0
   -1.9838    8.2019    0.0000 C   0  0  0  0  0  0  0  0  0  0  0  0
   -3.0986    7.1982    0.0000 C   0  0  0  0  0  0  0  0  0  0  0  0
   -4.5251    7.6617    0.0000 C   0  0  0  0  0  0  0  0  0  0  0  0
   -4.8370    9.1289    0.0000 C   0  0  0  0  0  0  0  0  0  0  0  0
   -6.2636    9.5925    0.0000 C   0  0  0  0  0  0  0  0  0  0  0  0
   -7.3783    8.5888    0.0000 C   0  0  0  0  0  0  0  0  0  0  0  0
   -8.8049    9.0523    0.0000 F   0  0  0  0  0  0  0  0  0  0  0  0
   -7.0664    7.1215    0.0000 C   0  0  0  0  0  0  0  0  0  0  0  0
   -5.6399    6.6580    0.0000 C   0  0  0  0  0  0  0  0  0  0  0  0
   -2.7867    5.7310    0.0000 N   0  0  0  0  0  0  0  0  0  0  0  0
   -1.3601    5.2674    0.0000 N   0  0  0  0  0  0  0  0  0  0  0  0
   -1.5000    0.0000    0.0000 C   0  0  0  0  0  0  0  0  0  0  0  0
   -0.7500   -1.2990    0.0000 C   0  0  0  0  0  0  0  0  0  0  0  0
   -1.2135   -2.7256    0.0000 S   0  0  0  0  0  0  0  0  0  0  0  0
   -1.2990   -7.3573    0.0000 C   0  0  0  0  0  0  0  0  0  0  0  0
   -0.5490   -8.6563    0.0000 C   0  0  0  0  0  0  0  0  0  0  0  0
   -2.0490   -8.6563    0.0000 C   0  0  0  0  0  0  0  0  0  0  0  0
  1  2  2  0
  2  3  1  0
  3  4  1  0
  4  5  2  0
  5  6  1  0
  6  7  2  0
  7  8  1  0
  8  9  2  0
  9 10  1  0
 10 11  1  0
 11 12  2  0
 12 13  1  0
 13 14  2  0
 14 15  1  0
 15 16  2  0
 16 17  1  0
 17 18  1  0
 18 19  2  0
 19 20  1  0
 20 21  2  0
 21 22  1  0
 21 23  1  0
 23 24  2  0
 17 25  2  0
 25 26  1  0
  9 27  1  0
 27 28  2  0
 28 29  1  0
  2 30  1  0
 30 31  1  0
 31 32  1  0
 29  4  1  0
 32 30  1  0
 28  6  1  0
 26 11  1  0
 26 14  1  0
 24 18  1  0
M  END
>  <Compound_ID>  (13) 
CHEMBL4457387

>  <Molecule Name>  (13) 
nan

>  <Molecular Weight>  (13) 
462.54

>  <AlogP>  (13) 
5.04

>  <Smiles>  (13) 
O=C(Nc1nc2ccc(Sc3nnc4ccc(-c5ccc(F)cc5)nn34)cc2s1)C1CC1

>  <Standard Type>  (13) 
IC50

>  <Standard Relation>  (13) 
'='

>  <Standard Units>  (13) 
nM

>  <Standard Value>  (13) 
61.0

>  <Assay ChEMBL ID>  (13) 
CHEMBL4426785

>  <Assay Description>  (13) 
Inhibition of phosphorylated MET L1195V mutant (unknown origin) pre-incubated for 30 mins before biotinylated poly(glutamate-alanine-tyrosine) peptide addition and measured after 5 mins by HTRF assay

>  <BAO Format ID>  (13) 
BAO_0000357

>  <BAO Label>  (13) 
single protein format

>  <Assay Organism>  (13) 
Homo sapiens

>  <Target ChEMBL ID>  (13) 
CHEMBL3717

>  <Target Name>  (13) 
Hepatocyte growth factor receptor

>  <Target Organism>  (13) 
Homo sapiens

>  <Target Type>  (13) 
SINGLE PROTEIN

>  <Document ChEMBL ID>  (13) 
CHEMBL4425133

>  <Source Description>  (13) 
Scientific Literature

>  <Document Journal>  (13) 
J Med Chem

>  <Document Year>  (13) 
2016.0

>  <Active>  (13) 
1.0

>  <bits>  (13) 
<rdkit.DataStructs.cDataStructs.ExplicitBitVect object at 0x000001CFA8035C40>

>  <Group>  (13) 
G1

$$$$

     RDKit          2D

 43 48  0  0  0  0  0  0  0  0999 V2000
   -2.0882   -8.4404    0.0000 C   0  0  0  0  0  0  0  0  0  0  0  0
   -2.6983   -7.0701    0.0000 C   0  0  0  0  0  0  0  0  0  0  0  0
   -4.1655   -6.7583    0.0000 C   0  0  0  0  0  0  0  0  0  0  0  0
   -5.2802   -7.7620    0.0000 C   0  0  0  0  0  0  0  0  0  0  0  0
   -4.9684   -9.2292    0.0000 O   0  0  0  0  0  0  0  0  0  0  0  0
   -6.7068   -7.2984    0.0000 N   0  0  0  0  0  0  0  0  0  0  0  0
   -7.1703   -5.8718    0.0000 C   0  0  0  0  0  0  0  0  0  0  0  0
   -8.6703   -5.8718    0.0000 C   0  0  0  0  0  0  0  0  0  0  0  0
   -9.1339   -7.2984    0.0000 C   0  0  0  0  0  0  0  0  0  0  0  0
   -7.9203   -8.1801    0.0000 C   0  0  0  0  0  0  0  0  0  0  0  0
   -7.9203   -9.6801    0.0000 C   0  0  0  0  0  0  0  0  0  0  0  0
   -9.2194  -10.4301    0.0000 N   0  0  0  0  0  0  0  0  0  0  0  0
  -10.5897   -9.8200    0.0000 C   0  0  0  0  0  0  0  0  0  0  0  0
  -11.5934  -10.9347    0.0000 C   0  0  0  0  0  0  0  0  0  0  0  0
  -10.8434  -12.2338    0.0000 C   0  0  0  0  0  0  0  0  0  0  0  0
   -9.3762  -11.9219    0.0000 C   0  0  0  0  0  0  0  0  0  0  0  0
   -4.3223   -5.2665    0.0000 C   0  0  0  0  0  0  0  0  0  0  0  0
   -5.6213   -4.5165    0.0000 C   0  0  0  0  0  0  0  0  0  0  0  0
   -2.9520   -4.6564    0.0000 C   0  0  0  0  0  0  0  0  0  0  0  0
   -2.6401   -3.1891    0.0000 C   0  0  0  0  0  0  0  0  0  0  0  0
   -1.2135   -2.7256    0.0000 C   0  0  0  0  0  0  0  0  0  0  0  0
   -0.0000   -3.6073    0.0000 C   0  0  0  0  0  0  0  0  0  0  0  0
    0.0000   -5.1073    0.0000 O   0  0  0  0  0  0  0  0  0  0  0  0
    1.2135   -2.7256    0.0000 N   0  0  0  0  0  0  0  0  0  0  0  0
    0.7500   -1.2990    0.0000 C   0  0  0  0  0  0  0  0  0  0  0  0
    1.5000    0.0000    0.0000 C   0  0  0  0  0  0  0  0  0  0  0  0
    0.7500    1.2990    0.0000 C   0  0  0  0  0  0  0  0  0  0  0  0
   -0.7500    1.2990    0.0000 C   0  0  0  0  0  0  0  0  0  0  0  0
   -1.5000    2.5981    0.0000 S   0  0  0  0  0  0  0  0  0  0  0  0
   -2.7990    1.8481    0.0000 O   0  0  0  0  0  0  0  0  0  0  0  0
   -0.2010    3.3481    0.0000 O   0  0  0  0  0  0  0  0  0  0  0  0
   -2.2500    3.8971    0.0000 C   0  0  0  0  0  0  0  0  0  0  0  0
   -3.7500    3.8971    0.0000 C   0  0  0  0  0  0  0  0  0  0  0  0
   -4.5000    5.1962    0.0000 C   0  0  0  0  0  0  0  0  0  0  0  0
   -3.7500    6.4952    0.0000 Cl  0  0  0  0  0  0  0  0  0  0  0  0
   -6.0000    5.1962    0.0000 C   0  0  0  0  0  0  0  0  0  0  0  0
   -6.7500    3.8971    0.0000 C   0  0  0  0  0  0  0  0  0  0  0  0
   -6.0000    2.5981    0.0000 C   0  0  0  0  0  0  0  0  0  0  0  0
   -4.5000    2.5981    0.0000 C   0  0  0  0  0  0  0  0  0  0  0  0
   -3.7500    1.2990    0.0000 Cl  0  0  0  0  0  0  0  0  0  0  0  0
   -1.5000    0.0000    0.0000 C   0  0  0  0  0  0  0  0  0  0  0  0
   -0.7500   -1.2990    0.0000 C   0  0  0  0  0  0  0  0  0  0  0  0
   -1.9483   -5.7711    0.0000 N   0  0  0  0  0  0  0  0  0  0  0  0
  1  2  1  0
  2  3  2  0
  3  4  1  0
  4  5  2  0
  4  6  1  0
  6  7  1  0
  7  8  1  0
  8  9  1  0
  9 10  1  0
 10 11  1  0
 11 12  1  0
 12 13  1  0
 13 14  1  0
 14 15  1  0
 15 16  1  0
  3 17  1  0
 17 18  1  0
 17 19  1  0
 19 20  1  0
 20 21  2  0
 21 22  1  0
 22 23  2  0
 22 24  1  0
 24 25  1  0
 25 26  2  0
 26 27  1  0
 27 28  2  0
 28 29  1  0
 29 30  2  0
 29 31  2  0
 29 32  1  0
 32 33  1  0
 33 34  2  0
 34 35  1  0
 34 36  1  0
 36 37  2  0
 37 38  1  0
 38 39  2  0
 39 40  1  0
 28 41  1  0
 41 42  2  0
 19 43  2  0
 43  2  1  0
 10  6  1  0
 16 12  1  0
 42 21  1  0
 42 25  1  0
 39 33  1  0
M  END
>  <Compound_ID>  (14) 
CHEMBL1822004

>  <Molecule Name>  (14) 
nan

>  <Molecular Weight>  (14) 
641.62

>  <AlogP>  (14) 
5.75

>  <Smiles>  (14) 
CC1=C(C(=O)N2CCCC2CN2CCCC2)C(C)C(/C=C2\C(=O)Nc3ccc(S(=O)(=O)Cc4c(Cl)cccc4Cl)cc32)=N1

>  <Standard Type>  (14) 
IC50

>  <Standard Relation>  (14) 
'='

>  <Standard Units>  (14) 
nM

>  <Standard Value>  (14) 
9.0

>  <Assay ChEMBL ID>  (14) 
CHEMBL1826790

>  <Assay Description>  (14) 
Inhibition of human c-MET

>  <BAO Format ID>  (14) 
BAO_0000357

>  <BAO Label>  (14) 
single protein format

>  <Assay Organism>  (14) 
Homo sapiens

>  <Target ChEMBL ID>  (14) 
CHEMBL3717

>  <Target Name>  (14) 
Hepatocyte growth factor receptor

>  <Target Organism>  (14) 
Homo sapiens

>  <Target Type>  (14) 
SINGLE PROTEIN

>  <Document ChEMBL ID>  (14) 
CHEMBL1821609

>  <Source Description>  (14) 
Scientific Literature

>  <Document Journal>  (14) 
Eur J Med Chem

>  <Document Year>  (14) 
2011.0

>  <Active>  (14) 
1.0

>  <bits>  (14) 
<rdkit.DataStructs.cDataStructs.ExplicitBitVect object at 0x000001CFA8035BD0>

>  <Group>  (14) 
G1

$$$$

     RDKit          2D

 37 42  0  0  0  0  0  0  0  0999 V2000
   -0.7500   -6.4952    0.0000 O   0  0  0  0  0  0  0  0  0  0  0  0
   -1.5000   -5.1962    0.0000 C   0  0  0  0  0  0  0  0  0  0  0  0
   -3.0000   -5.1962    0.0000 N   0  0  0  0  0  0  0  0  0  0  0  0
   -3.7500   -6.4952    0.0000 C   0  0  0  0  0  0  0  0  0  0  0  0
   -5.2500   -6.4952    0.0000 C   0  0  0  0  0  0  0  0  0  0  0  0
   -6.0000   -7.7942    0.0000 C   0  0  0  0  0  0  0  0  0  0  0  0
   -5.2500   -9.0933    0.0000 C   0  0  0  0  0  0  0  0  0  0  0  0
   -6.0000  -10.3923    0.0000 O   0  0  0  0  0  0  0  0  0  0  0  0
   -7.5000  -10.3923    0.0000 C   0  0  0  0  0  0  0  0  0  0  0  0
   -8.2500   -9.0933    0.0000 C   0  0  0  0  0  0  0  0  0  0  0  0
   -9.7500   -9.0933    0.0000 C   0  0  0  0  0  0  0  0  0  0  0  0
  -10.5000  -10.3923    0.0000 N   0  0  0  0  0  0  0  0  0  0  0  0
   -9.7500  -11.6913    0.0000 C   0  0  0  0  0  0  0  0  0  0  0  0
  -10.2135  -13.1179    0.0000 N   0  0  0  0  0  0  0  0  0  0  0  0
   -9.0000  -13.9996    0.0000 C   0  0  0  0  0  0  0  0  0  0  0  0
   -7.7865  -13.1179    0.0000 C   0  0  0  0  0  0  0  0  0  0  0  0
   -8.2500  -11.6913    0.0000 C   0  0  0  0  0  0  0  0  0  0  0  0
   -3.7500   -9.0933    0.0000 C   0  0  0  0  0  0  0  0  0  0  0  0
   -3.0000   -7.7942    0.0000 C   0  0  0  0  0  0  0  0  0  0  0  0
   -0.7500   -3.8971    0.0000 C   0  0  0  0  0  0  0  0  0  0  0  0
    0.7500   -3.8971    0.0000 C   0  0  0  0  0  0  0  0  0  0  0  0
    1.5000   -2.5981    0.0000 N   0  0  0  0  0  0  0  0  0  0  0  0
    3.0000   -2.5981    0.0000 C   0  0  0  0  0  0  0  0  0  0  0  0
    3.7500   -3.8971    0.0000 C   0  0  0  0  0  0  0  0  0  0  0  0
    5.2500   -3.8971    0.0000 C   0  0  0  0  0  0  0  0  0  0  0  0
    6.0000   -2.5981    0.0000 C   0  0  0  0  0  0  0  0  0  0  0  0
    7.5000   -2.5981    0.0000 Br  0  0  0  0  0  0  0  0  0  0  0  0
    5.2500   -1.2990    0.0000 C   0  0  0  0  0  0  0  0  0  0  0  0
    3.7500   -1.2990    0.0000 C   0  0  0  0  0  0  0  0  0  0  0  0
    0.7500   -1.2990    0.0000 C   0  0  0  0  0  0  0  0  0  0  0  0
    1.5000    0.0000    0.0000 C   0  0  0  0  0  0  0  0  0  0  0  0
    0.7500    1.2990    0.0000 C   0  0  0  0  0  0  0  0  0  0  0  0
   -0.7500    1.2990    0.0000 C   0  0  0  0  0  0  0  0  0  0  0  0
   -1.5000    0.0000    0.0000 C   0  0  0  0  0  0  0  0  0  0  0  0
   -0.7500   -1.2990    0.0000 C   0  0  0  0  0  0  0  0  0  0  0  0
   -1.5000   -2.5981    0.0000 C   0  0  0  0  0  0  0  0  0  0  0  0
   -3.0000   -2.5981    0.0000 O   0  0  0  0  0  0  0  0  0  0  0  0
  1  2  2  0
  2  3  1  0
  3  4  1  0
  4  5  2  0
  5  6  1  0
  6  7  2  0
  7  8  1  0
  8  9  1  0
  9 10  2  0
 10 11  1  0
 11 12  2  0
 12 13  1  0
 13 14  1  0
 14 15  1  0
 15 16  2  0
 16 17  1  0
  7 18  1  0
 18 19  2  0
  2 20  1  0
 20 21  2  0
 21 22  1  0
 22 23  1  0
 23 24  2  0
 24 25  1  0
 25 26  2  0
 26 27  1  0
 26 28  1  0
 28 29  2  0
 22 30  1  0
 30 31  2  0
 31 32  1  0
 32 33  2  0
 33 34  1  0
 34 35  2  0
 35 36  1  0
 36 37  2  0
 19  4  1  0
 36 20  1  0
 17  9  1  0
 29 23  1  0
 35 30  1  0
 17 13  2  0
M  END
>  <Compound_ID>  (15) 
CHEMBL4639572

>  <Molecule Name>  (15) 
nan

>  <Molecular Weight>  (15) 
551.4

>  <AlogP>  (15) 
6.67

>  <Smiles>  (15) 
O=C(Nc1ccc(Oc2ccnc3[nH]ccc23)cc1)c1cn(-c2ccc(Br)cc2)c2ccccc2c1=O

>  <Standard Type>  (15) 
IC50

>  <Standard Relation>  (15) 
'='

>  <Standard Units>  (15) 
nM

>  <Standard Value>  (15) 
10.0

>  <Assay ChEMBL ID>  (15) 
CHEMBL4604026

>  <Assay Description>  (15) 
Inhibition of c-Met (unknown origin) by caliper mobility shift assay

>  <BAO Format ID>  (15) 
BAO_0000357

>  <BAO Label>  (15) 
single protein format

>  <Assay Organism>  (15) 
Homo sapiens

>  <Target ChEMBL ID>  (15) 
CHEMBL3717

>  <Target Name>  (15) 
Hepatocyte growth factor receptor

>  <Target Organism>  (15) 
Homo sapiens

>  <Target Type>  (15) 
SINGLE PROTEIN

>  <Document ChEMBL ID>  (15) 
CHEMBL4602641

>  <Source Description>  (15) 
Scientific Literature

>  <Document Journal>  (15) 
Bioorg Med Chem Lett

>  <Document Year>  (15) 
2020.0

>  <Active>  (15) 
1.0

>  <bits>  (15) 
<rdkit.DataStructs.cDataStructs.ExplicitBitVect object at 0x000001CFA8035B60>

>  <Group>  (15) 
G1

$$$$

     RDKit          2D

 39 45  0  0  0  0  0  0  0  0999 V2000
   -1.6317   -8.6291    0.0000 C   0  0  0  0  0  0  0  0  0  0  0  0
   -0.7500   -7.4156    0.0000 N   0  0  0  0  0  0  0  0  0  0  0  0
    0.7500   -7.4156    0.0000 C   0  0  0  0  0  0  0  0  0  0  0  0
    1.2135   -5.9890    0.0000 N   0  0  0  0  0  0  0  0  0  0  0  0
   -0.0000   -5.1073    0.0000 C   0  0  0  0  0  0  0  0  0  0  0  0
   -0.0000   -3.6073    0.0000 C   0  0  0  0  0  0  0  0  0  0  0  0
    1.2135   -2.7256    0.0000 C   0  0  0  0  0  0  0  0  0  0  0  0
    0.7500   -1.2990    0.0000 C   0  0  0  0  0  0  0  0  0  0  0  0
    1.5000    0.0000    0.0000 N   0  0  0  0  0  0  0  0  0  0  0  0
    0.7500    1.2990    0.0000 C   0  0  0  0  0  0  0  0  0  0  0  0
   -0.7500    1.2990    0.0000 C   0  0  0  0  0  0  0  0  0  0  0  0
   -1.5000    0.0000    0.0000 C   0  0  0  0  0  0  0  0  0  0  0  0
   -3.0000    0.0000    0.0000 O   0  0  0  0  0  0  0  0  0  0  0  0
   -3.7500    1.2990    0.0000 C   0  0  0  0  0  0  0  0  0  0  0  0
   -3.0000    2.5981    0.0000 C   0  0  0  0  0  0  0  0  0  0  0  0
   -3.7500    3.8971    0.0000 C   0  0  0  0  0  0  0  0  0  0  0  0
   -5.2500    3.8971    0.0000 C   0  0  0  0  0  0  0  0  0  0  0  0
   -6.0000    5.1962    0.0000 N   0  0  0  0  0  0  0  0  0  0  0  0
   -5.2500    6.4952    0.0000 C   0  0  0  0  0  0  0  0  0  0  0  0
   -6.0000    7.7942    0.0000 C   0  0  0  0  0  0  0  0  0  0  0  0
   -7.5000    7.7942    0.0000 C   0  0  0  0  0  0  0  0  0  0  0  0
   -8.2500    6.4952    0.0000 C   0  0  0  0  0  0  0  0  0  0  0  0
   -9.7172    6.8071    0.0000 C   0  0  0  0  0  0  0  0  0  0  0  0
   -9.8740    8.2988    0.0000 N   0  0  0  0  0  0  0  0  0  0  0  0
   -8.5037    8.9089    0.0000 N   0  0  0  0  0  0  0  0  0  0  0  0
   -8.1918   10.3762    0.0000 C   0  0  0  0  0  0  0  0  0  0  0  0
   -6.7652   10.8397    0.0000 C   0  0  0  0  0  0  0  0  0  0  0  0
   -6.4534   12.3069    0.0000 C   0  0  0  0  0  0  0  0  0  0  0  0
   -7.5681   13.3106    0.0000 C   0  0  0  0  0  0  0  0  0  0  0  0
   -8.9947   12.8471    0.0000 C   0  0  0  0  0  0  0  0  0  0  0  0
   -9.3065   11.3799    0.0000 C   0  0  0  0  0  0  0  0  0  0  0  0
   -7.5000    5.1962    0.0000 C   0  0  0  0  0  0  0  0  0  0  0  0
   -8.2500    3.8971    0.0000 O   0  0  0  0  0  0  0  0  0  0  0  0
   -6.0000    2.5981    0.0000 C   0  0  0  0  0  0  0  0  0  0  0  0
   -5.2500    1.2990    0.0000 C   0  0  0  0  0  0  0  0  0  0  0  0
   -6.0000    0.0000    0.0000 F   0  0  0  0  0  0  0  0  0  0  0  0
   -0.7500   -1.2990    0.0000 C   0  0  0  0  0  0  0  0  0  0  0  0
   -1.2135   -2.7256    0.0000 S   0  0  0  0  0  0  0  0  0  0  0  0
   -1.2135   -5.9890    0.0000 C   0  0  0  0  0  0  0  0  0  0  0  0
  1  2  1  0
  2  3  1  0
  3  4  2  0
  4  5  1  0
  5  6  1  0
  6  7  2  0
  7  8  1  0
  8  9  2  0
  9 10  1  0
 10 11  2  0
 11 12  1  0
 12 13  1  0
 13 14  1  0
 14 15  2  0
 15 16  1  0
 16 17  2  0
 17 18  1  0
 18 19  1  0
 19 20  1  0
 20 21  1  0
 21 22  2  0
 22 23  1  0
 23 24  2  0
 24 25  1  0
 25 26  1  0
 26 27  2  0
 27 28  1  0
 28 29  2  0
 29 30  1  0
 30 31  2  0
 22 32  1  0
 32 33  2  0
 17 34  1  0
 34 35  2  0
 35 36  1  0
 12 37  2  0
 37 38  1  0
  5 39  2  0
 39  2  1  0
 38  6  1  0
 37  8  1  0
 35 14  1  0
 32 18  1  0
 25 21  1  0
 31 26  1  0
M  END
>  <Compound_ID>  (16) 
CHEMBL3609808

>  <Molecule Name>  (16) 
nan

>  <Molecular Weight>  (16) 
536.59

>  <AlogP>  (16) 
6.02

>  <Smiles>  (16) 
Cn1cnc(-c2cc3nccc(Oc4ccc(N5CCc6c(cnn6-c6ccccc6)C5=O)cc4F)c3s2)c1

>  <Standard Type>  (16) 
IC50

>  <Standard Relation>  (16) 
'='

>  <Standard Units>  (16) 
nM

>  <Standard Value>  (16) 
58.0

>  <Assay ChEMBL ID>  (16) 
CHEMBL3611225

>  <Assay Description>  (16) 
Inhibition of human c-Met

>  <BAO Format ID>  (16) 
BAO_0000357

>  <BAO Label>  (16) 
single protein format

>  <Assay Organism>  (16) 
Homo sapiens

>  <Target ChEMBL ID>  (16) 
CHEMBL3717

>  <Target Name>  (16) 
Hepatocyte growth factor receptor

>  <Target Organism>  (16) 
Homo sapiens

>  <Target Type>  (16) 
SINGLE PROTEIN

>  <Document ChEMBL ID>  (16) 
CHEMBL3608274

>  <Source Description>  (16) 
Scientific Literature

>  <Document Journal>  (16) 
Bioorg Med Chem Lett

>  <Document Year>  (16) 
2015.0

>  <Active>  (16) 
1.0

>  <bits>  (16) 
<rdkit.DataStructs.cDataStructs.ExplicitBitVect object at 0x000001CFA8035AF0>

>  <Group>  (16) 
G1

$$$$

     RDKit          2D

 34 38  0  0  0  0  0  0  0  0999 V2000
    2.4510   -9.8433    0.0000 C   0  0  0  0  0  0  0  0  0  0  0  0
    3.7500   -9.0933    0.0000 C   0  0  0  0  0  0  0  0  0  0  0  0
    5.0490   -8.3433    0.0000 C   0  0  0  0  0  0  0  0  0  0  0  0
    4.5000  -10.3923    0.0000 C   0  0  0  0  0  0  0  0  0  0  0  0
    3.0000   -7.7942    0.0000 O   0  0  0  0  0  0  0  0  0  0  0  0
    3.7500   -6.4952    0.0000 C   0  0  0  0  0  0  0  0  0  0  0  0
    5.2500   -6.4952    0.0000 O   0  0  0  0  0  0  0  0  0  0  0  0
    3.0000   -5.1962    0.0000 N   0  0  0  0  0  0  0  0  0  0  0  0
    1.5000   -5.1962    0.0000 C   0  0  0  0  0  0  0  0  0  0  0  0
    0.7500   -3.8971    0.0000 C   0  0  0  0  0  0  0  0  0  0  0  0
    1.5000   -2.5981    0.0000 N   0  0  0  0  0  0  0  0  0  0  0  0
    0.7500   -1.2990    0.0000 C   0  0  0  0  0  0  0  0  0  0  0  0
    1.5000    0.0000    0.0000 C   0  0  0  0  0  0  0  0  0  0  0  0
    0.7500    1.2990    0.0000 N   0  0  0  0  0  0  0  0  0  0  0  0
   -0.7500    1.2990    0.0000 C   0  0  0  0  0  0  0  0  0  0  0  0
   -1.7537    2.4138    0.0000 C   0  0  0  0  0  0  0  0  0  0  0  0
   -3.1240    1.8037    0.0000 C   0  0  0  0  0  0  0  0  0  0  0  0
   -2.9672    0.3119    0.0000 N   0  0  0  0  0  0  0  0  0  0  0  0
   -4.0819   -0.6918    0.0000 S   0  0  0  0  0  0  0  0  0  0  0  0
   -3.0782   -1.8065    0.0000 O   0  0  0  0  0  0  0  0  0  0  0  0
   -5.0856    0.4229    0.0000 O   0  0  0  0  0  0  0  0  0  0  0  0
   -5.1967   -1.6955    0.0000 C   0  0  0  0  0  0  0  0  0  0  0  0
   -5.0399   -3.1873    0.0000 C   0  0  0  0  0  0  0  0  0  0  0  0
   -3.7408   -3.9373    0.0000 Cl  0  0  0  0  0  0  0  0  0  0  0  0
   -6.4102   -3.7974    0.0000 N   0  0  0  0  0  0  0  0  0  0  0  0
   -7.4139   -2.6827    0.0000 C   0  0  0  0  0  0  0  0  0  0  0  0
   -8.8811   -2.3708    0.0000 S   0  0  0  0  0  0  0  0  0  0  0  0
   -9.0379   -0.8790    0.0000 C   0  0  0  0  0  0  0  0  0  0  0  0
   -7.6676   -0.2689    0.0000 C   0  0  0  0  0  0  0  0  0  0  0  0
   -6.6639   -1.3837    0.0000 N   0  0  0  0  0  0  0  0  0  0  0  0
   -1.5000    0.0000    0.0000 C   0  0  0  0  0  0  0  0  0  0  0  0
   -0.7500   -1.2990    0.0000 C   0  0  0  0  0  0  0  0  0  0  0  0
    3.0000   -2.5981    0.0000 C   0  0  0  0  0  0  0  0  0  0  0  0
    3.7500   -3.8971    0.0000 C   0  0  0  0  0  0  0  0  0  0  0  0
  1  2  1  0
  2  3  1  0
  2  4  1  0
  2  5  1  0
  5  6  1  0
  6  7  2  0
  6  8  1  0
  8  9  1  0
  9 10  1  0
 10 11  1  0
 11 12  1  0
 12 13  2  0
 13 14  1  0
 14 15  2  0
 15 16  1  0
 16 17  2  0
 17 18  1  0
 18 19  1  0
 19 20  2  0
 19 21  2  0
 19 22  1  0
 22 23  2  0
 23 24  1  0
 23 25  1  0
 25 26  2  0
 26 27  1  0
 27 28  1  0
 28 29  2  0
 29 30  1  0
 18 31  1  0
 31 32  2  0
 11 33  1  0
 33 34  1  0
 34  8  1  0
 32 12  1  0
 31 15  1  0
 30 22  1  0
 30 26  1  0
M  END
>  <Compound_ID>  (17) 
CHEMBL550158

>  <Molecule Name>  (17) 
nan

>  <Molecular Weight>  (17) 
523.04

>  <AlogP>  (17) 
3.69

>  <Smiles>  (17) 
CC(C)(C)OC(=O)N1CCN(c2cnc3ccn(S(=O)(=O)c4c(Cl)nc5sccn45)c3c2)CC1

>  <Standard Type>  (17) 
IC50

>  <Standard Relation>  (17) 
'='

>  <Standard Units>  (17) 
nM

>  <Standard Value>  (17) 
27.0

>  <Assay ChEMBL ID>  (17) 
CHEMBL1062250

>  <Assay Description>  (17) 
Inhibition of human recombinant His-tagged c-Met by TR-FRET assay

>  <BAO Format ID>  (17) 
BAO_0000357

>  <BAO Label>  (17) 
single protein format

>  <Assay Organism>  (17) 
Homo sapiens

>  <Target ChEMBL ID>  (17) 
CHEMBL3717

>  <Target Name>  (17) 
Hepatocyte growth factor receptor

>  <Target Organism>  (17) 
Homo sapiens

>  <Target Type>  (17) 
SINGLE PROTEIN

>  <Document ChEMBL ID>  (17) 
CHEMBL1152913

>  <Source Description>  (17) 
Scientific Literature

>  <Document Journal>  (17) 
Bioorg Med Chem Lett

>  <Document Year>  (17) 
2009.0

>  <Active>  (17) 
1.0

>  <bits>  (17) 
<rdkit.DataStructs.cDataStructs.ExplicitBitVect object at 0x000001CFA8035A80>

>  <Group>  (17) 
G1

$$$$

     RDKit          2D

 34 38  0  0  0  0  0  0  0  0999 V2000
    9.4758   -8.1217    0.0000 C   0  0  0  0  0  0  0  0  0  0  0  0
    8.3611   -7.1180    0.0000 C   0  0  0  0  0  0  0  0  0  0  0  0
    6.9345   -7.5816    0.0000 C   0  0  0  0  0  0  0  0  0  0  0  0
    5.8198   -6.5779    0.0000 C   0  0  0  0  0  0  0  0  0  0  0  0
    6.1317   -5.1106    0.0000 C   0  0  0  0  0  0  0  0  0  0  0  0
    7.5583   -4.6471    0.0000 C   0  0  0  0  0  0  0  0  0  0  0  0
    8.6730   -5.6508    0.0000 C   0  0  0  0  0  0  0  0  0  0  0  0
    7.5583   -3.1471    0.0000 O   0  0  0  0  0  0  0  0  0  0  0  0
    6.1317   -2.6836    0.0000 C   0  0  0  0  0  0  0  0  0  0  0  0
    5.6682   -1.2570    0.0000 O   0  0  0  0  0  0  0  0  0  0  0  0
    5.2500   -3.8971    0.0000 N   0  0  0  0  0  0  0  0  0  0  0  0
    3.7500   -3.8971    0.0000 C   0  0  0  0  0  0  0  0  0  0  0  0
    3.0000   -2.5981    0.0000 C   0  0  0  0  0  0  0  0  0  0  0  0
    1.5000   -2.5981    0.0000 O   0  0  0  0  0  0  0  0  0  0  0  0
    0.7500   -1.2990    0.0000 C   0  0  0  0  0  0  0  0  0  0  0  0
    1.5000    0.0000    0.0000 C   0  0  0  0  0  0  0  0  0  0  0  0
    0.7500    1.2990    0.0000 C   0  0  0  0  0  0  0  0  0  0  0  0
   -0.7500    1.2990    0.0000 N   0  0  0  0  0  0  0  0  0  0  0  0
   -1.5000    0.0000    0.0000 C   0  0  0  0  0  0  0  0  0  0  0  0
   -3.0000    0.0000    0.0000 C   0  0  0  0  0  0  0  0  0  0  0  0
   -3.7500   -1.2990    0.0000 C   0  0  0  0  0  0  0  0  0  0  0  0
   -5.2500   -1.2990    0.0000 N   0  0  0  0  0  0  0  0  0  0  0  0
   -6.0000    0.0000    0.0000 C   0  0  0  0  0  0  0  0  0  0  0  0
   -7.5000   -0.0000    0.0000 C   0  0  0  0  0  0  0  0  0  0  0  0
   -8.2500    1.2990    0.0000 C   0  0  0  0  0  0  0  0  0  0  0  0
   -9.7500    1.2990    0.0000 N   0  0  0  0  0  0  0  0  0  0  0  0
  -10.5000    2.5981    0.0000 C   0  0  0  0  0  0  0  0  0  0  0  0
  -12.0000    2.5981    0.0000 C   0  0  0  0  0  0  0  0  0  0  0  0
  -12.7500    1.2990    0.0000 O   0  0  0  0  0  0  0  0  0  0  0  0
  -12.0000    0.0000    0.0000 C   0  0  0  0  0  0  0  0  0  0  0  0
  -10.5000    0.0000    0.0000 C   0  0  0  0  0  0  0  0  0  0  0  0
   -3.0000   -2.5981    0.0000 C   0  0  0  0  0  0  0  0  0  0  0  0
   -1.5000   -2.5981    0.0000 C   0  0  0  0  0  0  0  0  0  0  0  0
   -0.7500   -1.2990    0.0000 C   0  0  0  0  0  0  0  0  0  0  0  0
  1  2  1  0
  2  3  2  0
  3  4  1  0
  4  5  2  0
  5  6  1  0
  6  7  2  0
  6  8  1  0
  8  9  1  0
  9 10  2  0
  9 11  1  0
 11 12  1  0
 12 13  1  0
 13 14  1  0
 14 15  1  0
 15 16  2  0
 16 17  1  0
 17 18  2  0
 18 19  1  0
 19 20  2  0
 20 21  1  0
 21 22  1  0
 22 23  1  0
 23 24  1  0
 24 25  1  0
 25 26  1  0
 26 27  1  0
 27 28  1  0
 28 29  1  0
 29 30  1  0
 30 31  1  0
 21 32  2  0
 32 33  1  0
 33 34  2  0
  7  2  1  0
 34 15  1  0
 11  5  1  0
 34 19  1  0
 31 26  1  0
M  END
>  <Compound_ID>  (18) 
CHEMBL3786217

>  <Molecule Name>  (18) 
nan

>  <Molecular Weight>  (18) 
462.55

>  <AlogP>  (18) 
3.66

>  <Smiles>  (18) 
Cc1ccc2c(c1)oc(=O)n2CCOc1ccnc2cc(NCCCN3CCOCC3)ccc12

>  <Standard Type>  (18) 
IC50

>  <Standard Relation>  (18) 
'='

>  <Standard Units>  (18) 
nM

>  <Standard Value>  (18) 
6.0

>  <Assay ChEMBL ID>  (18) 
CHEMBL3792084

>  <Assay Description>  (18) 
Inhibition of recombinant c-MET (unknown origin) using poly (Glu,Tyr) 4:1 as substrate after 60 mins by ELISA

>  <BAO Format ID>  (18) 
BAO_0000357

>  <BAO Label>  (18) 
single protein format

>  <Assay Organism>  (18) 
Homo sapiens

>  <Target ChEMBL ID>  (18) 
CHEMBL3717

>  <Target Name>  (18) 
Hepatocyte growth factor receptor

>  <Target Organism>  (18) 
Homo sapiens

>  <Target Type>  (18) 
SINGLE PROTEIN

>  <Document ChEMBL ID>  (18) 
CHEMBL3784915

>  <Source Description>  (18) 
Scientific Literature

>  <Document Journal>  (18) 
Eur J Med Chem

>  <Document Year>  (18) 
2016.0

>  <Active>  (18) 
1.0

>  <bits>  (18) 
<rdkit.DataStructs.cDataStructs.ExplicitBitVect object at 0x000001CFA8035A10>

>  <Group>  (18) 
G1

$$$$

     RDKit          2D

 36 40  0  0  0  0  0  0  0  0999 V2000
    3.0000    0.0000    0.0000 F   0  0  0  0  0  0  0  0  0  0  0  0
    1.5000    0.0000    0.0000 C   0  0  0  0  0  0  0  0  0  0  0  0
    0.7500   -1.2990    0.0000 C   0  0  0  0  0  0  0  0  0  0  0  0
   -0.7500   -1.2990    0.0000 C   0  0  0  0  0  0  0  0  0  0  0  0
   -1.5000    0.0000    0.0000 C   0  0  0  0  0  0  0  0  0  0  0  0
   -3.0000    0.0000    0.0000 N   0  0  0  0  0  0  0  0  0  0  0  0
   -3.7500    1.2990    0.0000 C   0  0  0  0  0  0  0  0  0  0  0  0
   -3.0000    2.5981    0.0000 C   0  0  0  0  0  0  0  0  0  0  0  0
   -3.7500    3.8971    0.0000 C   0  0  0  0  0  0  0  0  0  0  0  0
   -3.0000    5.1962    0.0000 N   0  0  0  0  0  0  0  0  0  0  0  0
   -1.5000    5.1962    0.0000 C   0  0  0  0  0  0  0  0  0  0  0  0
   -0.7500    3.8971    0.0000 C   0  0  0  0  0  0  0  0  0  0  0  0
    0.7500    3.8971    0.0000 C   0  0  0  0  0  0  0  0  0  0  0  0
    1.5000    5.1962    0.0000 C   0  0  0  0  0  0  0  0  0  0  0  0
    3.0000    5.1962    0.0000 O   0  0  0  0  0  0  0  0  0  0  0  0
    3.7500    6.4952    0.0000 C   0  0  0  0  0  0  0  0  0  0  0  0
    3.0000    7.7942    0.0000 C   0  0  0  0  0  0  0  0  0  0  0  0
    3.7500    9.0933    0.0000 C   0  0  0  0  0  0  0  0  0  0  0  0
    5.2500    9.0933    0.0000 N   0  0  0  0  0  0  0  0  0  0  0  0
    6.0000    7.7942    0.0000 C   0  0  0  0  0  0  0  0  0  0  0  0
    5.2500    6.4952    0.0000 C   0  0  0  0  0  0  0  0  0  0  0  0
    6.0000    5.1962    0.0000 C   0  0  0  0  0  0  0  0  0  0  0  0
    7.5000    5.1962    0.0000 C   0  0  0  0  0  0  0  0  0  0  0  0
    8.2500    3.8971    0.0000 C   0  0  0  0  0  0  0  0  0  0  0  0
    7.5000    2.5981    0.0000 C   0  0  0  0  0  0  0  0  0  0  0  0
    6.0000    2.5981    0.0000 N   0  0  0  0  0  0  0  0  0  0  0  0
    5.2500    3.8971    0.0000 C   0  0  0  0  0  0  0  0  0  0  0  0
    0.7500    6.4952    0.0000 C   0  0  0  0  0  0  0  0  0  0  0  0
    1.5000    7.7942    0.0000 F   0  0  0  0  0  0  0  0  0  0  0  0
   -0.7500    6.4952    0.0000 C   0  0  0  0  0  0  0  0  0  0  0  0
   -5.2500    3.8971    0.0000 N   0  0  0  0  0  0  0  0  0  0  0  0
   -6.0000    2.5981    0.0000 C   0  0  0  0  0  0  0  0  0  0  0  0
   -5.2500    1.2990    0.0000 N   0  0  0  0  0  0  0  0  0  0  0  0
   -0.7500    1.2990    0.0000 C   0  0  0  0  0  0  0  0  0  0  0  0
    0.7500    1.2990    0.0000 C   0  0  0  0  0  0  0  0  0  0  0  0
    1.5000    2.5981    0.0000 F   0  0  0  0  0  0  0  0  0  0  0  0
  1  2  1  0
  2  3  2  0
  3  4  1  0
  4  5  2  0
  5  6  1  0
  6  7  1  0
  7  8  2  0
  8  9  1  0
  9 10  1  0
 10 11  1  0
 11 12  2  0
 12 13  1  0
 13 14  2  0
 14 15  1  0
 15 16  1  0
 16 17  2  0
 17 18  1  0
 18 19  2  0
 19 20  1  0
 20 21  2  0
 21 22  1  0
 22 23  2  0
 23 24  1  0
 24 25  2  0
 25 26  1  0
 26 27  2  0
 14 28  1  0
 28 29  1  0
 28 30  2  0
  9 31  2  0
 31 32  1  0
 32 33  2  0
  5 34  1  0
 34 35  2  0
 35 36  1  0
 35  2  1  0
 33  7  1  0
 30 11  1  0
 21 16  1  0
 27 22  1  0
M  END
>  <Compound_ID>  (19) 
CHEMBL3945597

>  <Molecule Name>  (19) 
nan

>  <Molecular Weight>  (19) 
486.46

>  <AlogP>  (19) 
6.63

>  <Smiles>  (19) 
Fc1ccc(Nc2cc(Nc3ccc(Oc4ccncc4-c4cccnc4)c(F)c3)ncn2)cc1F

>  <Standard Type>  (19) 
IC50

>  <Standard Relation>  (19) 
'='

>  <Standard Units>  (19) 
nM

>  <Standard Value>  (19) 
37.5

>  <Assay ChEMBL ID>  (19) 
CHEMBL3854321

>  <Assay Description>  (19) 
Inhibition of c-Met (unknown origin) using poly (Glu, Tyr) 4:1 as substrate after 30 mins by HTRF assay

>  <BAO Format ID>  (19) 
BAO_0000357

>  <BAO Label>  (19) 
single protein format

>  <Assay Organism>  (19) 
Homo sapiens

>  <Target ChEMBL ID>  (19) 
CHEMBL3717

>  <Target Name>  (19) 
Hepatocyte growth factor receptor

>  <Target Organism>  (19) 
Homo sapiens

>  <Target Type>  (19) 
SINGLE PROTEIN

>  <Document ChEMBL ID>  (19) 
CHEMBL3853297

>  <Source Description>  (19) 
Scientific Literature

>  <Document Journal>  (19) 
Eur J Med Chem

>  <Document Year>  (19) 
2016.0

>  <Active>  (19) 
1.0

>  <bits>  (19) 
<rdkit.DataStructs.cDataStructs.ExplicitBitVect object at 0x000001CFA80359A0>

>  <Group>  (19) 
G1

$$$$

     RDKit          2D

 39 43  0  0  0  0  0  0  0  0999 V2000
  -14.7229    2.4461    0.0000 C   0  0  0  0  0  0  0  0  0  0  0  0
  -13.6082    1.4425    0.0000 O   0  0  0  0  0  0  0  0  0  0  0  0
  -13.9200   -0.0248    0.0000 C   0  0  0  0  0  0  0  0  0  0  0  0
  -12.8053   -1.0285    0.0000 C   0  0  0  0  0  0  0  0  0  0  0  0
  -13.1172   -2.4957    0.0000 C   0  0  0  0  0  0  0  0  0  0  0  0
  -12.0025   -3.4994    0.0000 N   0  0  0  0  0  0  0  0  0  0  0  0
  -10.5759   -3.0359    0.0000 C   0  0  0  0  0  0  0  0  0  0  0  0
   -9.4612   -4.0396    0.0000 C   0  0  0  0  0  0  0  0  0  0  0  0
   -8.0346   -3.5760    0.0000 C   0  0  0  0  0  0  0  0  0  0  0  0
   -7.7227   -2.1088    0.0000 O   0  0  0  0  0  0  0  0  0  0  0  0
   -6.9199   -4.5797    0.0000 N   0  0  0  0  0  0  0  0  0  0  0  0
   -5.4933   -4.1162    0.0000 C   0  0  0  0  0  0  0  0  0  0  0  0
   -4.3786   -5.1199    0.0000 C   0  0  0  0  0  0  0  0  0  0  0  0
   -2.9520   -4.6564    0.0000 C   0  0  0  0  0  0  0  0  0  0  0  0
   -2.6401   -3.1891    0.0000 C   0  0  0  0  0  0  0  0  0  0  0  0
   -1.2135   -2.7256    0.0000 C   0  0  0  0  0  0  0  0  0  0  0  0
   -0.0000   -3.6073    0.0000 C   0  0  0  0  0  0  0  0  0  0  0  0
    1.2135   -2.7256    0.0000 N   0  0  0  0  0  0  0  0  0  0  0  0
    2.6401   -3.1891    0.0000 C   0  0  0  0  0  0  0  0  0  0  0  0
    0.7500   -1.2990    0.0000 C   0  0  0  0  0  0  0  0  0  0  0  0
    1.5000    0.0000    0.0000 N   0  0  0  0  0  0  0  0  0  0  0  0
    0.7500    1.2990    0.0000 C   0  0  0  0  0  0  0  0  0  0  0  0
   -0.7500    1.2990    0.0000 N   0  0  0  0  0  0  0  0  0  0  0  0
   -1.5000    0.0000    0.0000 C   0  0  0  0  0  0  0  0  0  0  0  0
   -3.0000    0.0000    0.0000 N   0  0  0  0  0  0  0  0  0  0  0  0
   -0.7500   -1.2990    0.0000 C   0  0  0  0  0  0  0  0  0  0  0  0
   -3.7548   -2.1855    0.0000 C   0  0  0  0  0  0  0  0  0  0  0  0
   -5.1814   -2.6490    0.0000 C   0  0  0  0  0  0  0  0  0  0  0  0
   -9.7730   -5.5068    0.0000 C   0  0  0  0  0  0  0  0  0  0  0  0
   -8.6583   -6.5105    0.0000 O   0  0  0  0  0  0  0  0  0  0  0  0
  -11.1996   -5.9703    0.0000 C   0  0  0  0  0  0  0  0  0  0  0  0
  -11.5115   -7.4375    0.0000 C   0  0  0  0  0  0  0  0  0  0  0  0
  -12.9381   -7.9010    0.0000 C   0  0  0  0  0  0  0  0  0  0  0  0
  -13.2499   -9.3683    0.0000 C   0  0  0  0  0  0  0  0  0  0  0  0
  -12.1352  -10.3720    0.0000 C   0  0  0  0  0  0  0  0  0  0  0  0
  -12.4471  -11.8392    0.0000 F   0  0  0  0  0  0  0  0  0  0  0  0
  -10.7086   -9.9084    0.0000 C   0  0  0  0  0  0  0  0  0  0  0  0
  -10.3968   -8.4412    0.0000 C   0  0  0  0  0  0  0  0  0  0  0  0
  -12.3143   -4.9666    0.0000 C   0  0  0  0  0  0  0  0  0  0  0  0
  1  2  1  0
  2  3  1  0
  3  4  1  0
  4  5  1  0
  5  6  1  0
  6  7  1  0
  7  8  2  0
  8  9  1  0
  9 10  2  0
  9 11  1  0
 11 12  1  0
 12 13  2  0
 13 14  1  0
 14 15  2  0
 15 16  1  0
 16 17  2  0
 17 18  1  0
 18 19  1  0
 18 20  1  0
 20 21  2  0
 21 22  1  0
 22 23  2  0
 23 24  1  0
 24 25  1  0
 24 26  2  0
 15 27  1  0
 27 28  2  0
  8 29  1  0
 29 30  2  0
 29 31  1  0
 31 32  1  0
 32 33  2  0
 33 34  1  0
 34 35  2  0
 35 36  1  0
 35 37  1  0
 37 38  2  0
 31 39  2  0
 39  6  1  0
 28 12  1  0
 38 32  1  0
 26 16  1  0
 26 20  1  0
M  END
>  <Compound_ID>  (20) 
CHEMBL4851027

>  <Molecule Name>  (20) 
nan

>  <Molecular Weight>  (20) 
526.57

>  <AlogP>  (20) 
4.47

>  <Smiles>  (20) 
COCCCn1cc(C(=O)Nc2ccc(-c3cn(C)c4ncnc(N)c34)cc2)c(=O)c(-c2ccc(F)cc2)c1

>  <Standard Type>  (20) 
IC50

>  <Standard Relation>  (20) 
'='

>  <Standard Units>  (20) 
nM

>  <Standard Value>  (20) 
16.7

>  <Assay ChEMBL ID>  (20) 
CHEMBL4838187

>  <Assay Description>  (20) 
Inhibition of c-MET (unknown origin) by ELISA

>  <BAO Format ID>  (20) 
BAO_0000357

>  <BAO Label>  (20) 
single protein format

>  <Assay Organism>  (20) 
Homo sapiens

>  <Target ChEMBL ID>  (20) 
CHEMBL3717

>  <Target Name>  (20) 
Hepatocyte growth factor receptor

>  <Target Organism>  (20) 
Homo sapiens

>  <Target Type>  (20) 
SINGLE PROTEIN

>  <Document ChEMBL ID>  (20) 
CHEMBL4837207

>  <Source Description>  (20) 
Scientific Literature

>  <Document Journal>  (20) 
Eur J Med Chem

>  <Document Year>  (20) 
2021.0

>  <Active>  (20) 
1.0

>  <bits>  (20) 
<rdkit.DataStructs.cDataStructs.ExplicitBitVect object at 0x000001CFA8035930>

>  <Group>  (20) 
G1

$$$$

     RDKit          2D

 40 45  0  0  0  0  0  0  0  0999 V2000
    3.0000   -5.1962    0.0000 C   0  0  0  0  0  0  0  0  0  0  0  0
    1.5000   -5.1962    0.0000 O   0  0  0  0  0  0  0  0  0  0  0  0
    0.7500   -3.8971    0.0000 C   0  0  0  0  0  0  0  0  0  0  0  0
    1.5000   -2.5981    0.0000 C   0  0  0  0  0  0  0  0  0  0  0  0
    0.7500   -1.2990    0.0000 C   0  0  0  0  0  0  0  0  0  0  0  0
    1.5000    0.0000    0.0000 N   0  0  0  0  0  0  0  0  0  0  0  0
    0.7500    1.2990    0.0000 C   0  0  0  0  0  0  0  0  0  0  0  0
   -0.7500    1.2990    0.0000 N   0  0  0  0  0  0  0  0  0  0  0  0
   -1.5000    0.0000    0.0000 C   0  0  0  0  0  0  0  0  0  0  0  0
   -3.0000    0.0000    0.0000 O   0  0  0  0  0  0  0  0  0  0  0  0
   -3.7500    1.2990    0.0000 C   0  0  0  0  0  0  0  0  0  0  0  0
   -3.0000    2.5981    0.0000 C   0  0  0  0  0  0  0  0  0  0  0  0
   -3.7500    3.8971    0.0000 C   0  0  0  0  0  0  0  0  0  0  0  0
   -5.2500    3.8971    0.0000 C   0  0  0  0  0  0  0  0  0  0  0  0
   -6.0000    5.1962    0.0000 N   0  0  0  0  0  0  0  0  0  0  0  0
   -5.2500    6.4952    0.0000 C   0  0  0  0  0  0  0  0  0  0  0  0
   -3.7500    6.4952    0.0000 N   0  0  0  0  0  0  0  0  0  0  0  0
   -3.0000    7.7942    0.0000 C   0  0  0  0  0  0  0  0  0  0  0  0
   -3.7500    9.0933    0.0000 C   0  0  0  0  0  0  0  0  0  0  0  0
   -5.2500    9.0933    0.0000 C   0  0  0  0  0  0  0  0  0  0  0  0
   -6.0000   10.3923    0.0000 N   0  0  0  0  0  0  0  0  0  0  0  0
   -7.5000   10.3923    0.0000 C   0  0  0  0  0  0  0  0  0  0  0  0
   -8.2500    9.0933    0.0000 C   0  0  0  0  0  0  0  0  0  0  0  0
   -9.7500    9.0933    0.0000 C   0  0  0  0  0  0  0  0  0  0  0  0
  -10.5000   10.3923    0.0000 C   0  0  0  0  0  0  0  0  0  0  0  0
  -12.0000   10.3923    0.0000 C   0  0  0  0  0  0  0  0  0  0  0  0
  -12.7500    9.0933    0.0000 C   0  0  0  0  0  0  0  0  0  0  0  0
  -14.2500    9.0933    0.0000 F   0  0  0  0  0  0  0  0  0  0  0  0
  -12.0000    7.7942    0.0000 C   0  0  0  0  0  0  0  0  0  0  0  0
  -10.5000    7.7942    0.0000 C   0  0  0  0  0  0  0  0  0  0  0  0
   -7.5000    7.7942    0.0000 C   0  0  0  0  0  0  0  0  0  0  0  0
   -8.2500    6.4952    0.0000 O   0  0  0  0  0  0  0  0  0  0  0  0
   -6.0000    7.7942    0.0000 C   0  0  0  0  0  0  0  0  0  0  0  0
   -6.0000    2.5981    0.0000 C   0  0  0  0  0  0  0  0  0  0  0  0
   -5.2500    1.2990    0.0000 C   0  0  0  0  0  0  0  0  0  0  0  0
   -0.7500   -1.2990    0.0000 C   0  0  0  0  0  0  0  0  0  0  0  0
   -1.5000   -2.5981    0.0000 C   0  0  0  0  0  0  0  0  0  0  0  0
   -0.7500   -3.8971    0.0000 C   0  0  0  0  0  0  0  0  0  0  0  0
   -1.5000   -5.1962    0.0000 O   0  0  0  0  0  0  0  0  0  0  0  0
   -3.0000   -5.1962    0.0000 C   0  0  0  0  0  0  0  0  0  0  0  0
  1  2  1  0
  2  3  1  0
  3  4  2  0
  4  5  1  0
  5  6  2  0
  6  7  1  0
  7  8  2  0
  8  9  1  0
  9 10  1  0
 10 11  1  0
 11 12  2  0
 12 13  1  0
 13 14  2  0
 14 15  1  0
 15 16  1  0
 16 17  2  0
 17 18  1  0
 18 19  2  0
 19 20  1  0
 20 21  1  0
 21 22  1  0
 22 23  2  0
 23 24  1  0
 24 25  2  0
 25 26  1  0
 26 27  2  0
 27 28  1  0
 27 29  1  0
 29 30  2  0
 23 31  1  0
 31 32  2  0
 31 33  1  0
 14 34  1  0
 34 35  2  0
  9 36  2  0
 36 37  1  0
 37 38  2  0
 38 39  1  0
 39 40  1  0
 38  3  1  0
 36  5  1  0
 35 11  1  0
 33 16  1  0
 33 20  2  0
 30 24  1  0
M  END
>  <Compound_ID>  (21) 
CHEMBL4784431

>  <Molecule Name>  (21) 
nan

>  <Molecular Weight>  (21) 
535.54

>  <AlogP>  (21) 
6.23

>  <Smiles>  (21) 
COc1cc2ncnc(Oc3ccc(Nc4nccc5[nH]cc(-c6ccc(F)cc6)c(=O)c45)cc3)c2cc1OC

>  <Standard Type>  (21) 
IC50

>  <Standard Relation>  (21) 
'='

>  <Standard Units>  (21) 
nM

>  <Standard Value>  (21) 
9.0

>  <Assay ChEMBL ID>  (21) 
CHEMBL4774498

>  <Assay Description>  (21) 
Inhibition of recombinant MET kinase domain (unknown origin)

>  <BAO Format ID>  (21) 
BAO_0000357

>  <BAO Label>  (21) 
single protein format

>  <Assay Organism>  (21) 
Homo sapiens

>  <Target ChEMBL ID>  (21) 
CHEMBL3717

>  <Target Name>  (21) 
Hepatocyte growth factor receptor

>  <Target Organism>  (21) 
Homo sapiens

>  <Target Type>  (21) 
SINGLE PROTEIN

>  <Document ChEMBL ID>  (21) 
CHEMBL4765445

>  <Source Description>  (21) 
Scientific Literature

>  <Document Journal>  (21) 
Eur J Med Chem

>  <Document Year>  (21) 
2020.0

>  <Active>  (21) 
1.0

>  <bits>  (21) 
<rdkit.DataStructs.cDataStructs.ExplicitBitVect object at 0x000001CFA80358C0>

>  <Group>  (21) 
G1

$$$$

     RDKit          2D

 28 31  0  0  0  0  0  0  0  0999 V2000
    4.5000   -0.0000    0.0000 C   0  0  0  0  0  3  0  0  0  0  0  0
    3.7500   -1.2990    0.0000 N   0  0  0  0  0  4  0  0  0  0  0  0
    3.0000   -2.5981    0.0000 C   0  0  0  0  0  0  0  0  0  0  0  0
    3.7500   -3.8971    0.0000 C   0  0  0  0  0  0  0  0  0  0  0  0
    5.2500   -3.8971    0.0000 C   0  0  0  0  0  0  0  0  0  0  0  0
    6.0000   -5.1962    0.0000 C   0  0  0  0  0  0  0  0  0  0  0  0
    7.5000   -5.1962    0.0000 C   0  0  0  0  0  0  0  0  0  0  0  0
    8.2500   -3.8971    0.0000 C   0  0  0  0  0  0  0  0  0  0  0  0
    9.7500   -3.8971    0.0000 F   0  0  0  0  0  0  0  0  0  0  0  0
    7.5000   -2.5981    0.0000 C   0  0  0  0  0  0  0  0  0  0  0  0
    6.0000   -2.5981    0.0000 C   0  0  0  0  0  0  0  0  0  0  0  0
    3.0000   -5.1962    0.0000 N   0  0  0  0  0  0  0  0  0  0  0  0
    1.5000   -5.1962    0.0000 C   0  0  0  0  0  0  0  0  0  0  0  0
    0.7500   -6.4952    0.0000 C   0  0  0  0  0  0  0  0  0  0  0  0
    0.7500   -3.8971    0.0000 C   0  0  0  0  0  0  0  0  0  0  0  0
   -0.7500   -3.8971    0.0000 C   0  0  0  0  0  0  0  0  0  0  0  0
   -2.2500   -3.8971    0.0000 N   0  0  0  0  0  0  0  0  0  0  0  0
    1.5000   -2.5981    0.0000 C   0  0  0  0  0  0  0  0  0  0  0  0
    0.7500   -1.2990    0.0000 C   0  0  0  0  0  0  0  0  0  0  0  0
    1.5000    0.0000    0.0000 C   0  0  0  0  0  0  0  0  0  0  0  0
    0.7500    1.2990    0.0000 C   0  0  0  0  0  0  0  0  0  0  0  0
   -0.7500    1.2990    0.0000 C   0  0  0  0  0  0  0  0  0  0  0  0
   -1.7537    2.4138    0.0000 N   0  0  0  0  0  0  0  0  0  0  0  0
   -3.1240    1.8037    0.0000 N   0  0  0  0  0  0  0  0  0  0  0  0
   -2.9672    0.3119    0.0000 C   0  0  0  0  0  0  0  0  0  0  0  0
   -4.0819   -0.6918    0.0000 C   0  0  0  0  0  0  0  0  0  0  0  0
   -1.5000    0.0000    0.0000 C   0  0  0  0  0  0  0  0  0  0  0  0
   -0.7500   -1.2990    0.0000 C   0  0  0  0  0  0  0  0  0  0  0  0
  1  2  3  0
  2  3  1  0
  3  4  2  0
  4  5  1  0
  5  6  2  0
  6  7  1  0
  7  8  2  0
  8  9  1  0
  8 10  1  0
 10 11  2  0
  4 12  1  0
 12 13  1  0
 13 14  1  0
 13 15  2  0
 15 16  1  0
 16 17  3  0
 15 18  1  0
 18 19  1  0
 19 20  2  0
 20 21  1  0
 21 22  2  0
 22 23  1  0
 23 24  1  0
 24 25  2  0
 25 26  1  0
 25 27  1  0
 27 28  2  0
 18  3  1  0
 28 19  1  0
 11  5  1  0
 27 22  1  0
M  CHG  2   1  -1   2   1
M  END
>  <Compound_ID>  (22) 
CHEMBL3703577

>  <Molecule Name>  (22) 
nan

>  <Molecular Weight>  (22) 
369.4

>  <AlogP>  (22) 
4.78

>  <Smiles>  (22) 
[C-]#[N+]C1=C(c2ccc(F)cc2)NC(C)=C(C#N)C1c1ccc2[nH]nc(C)c2c1

>  <Standard Type>  (22) 
IC50

>  <Standard Relation>  (22) 
'='

>  <Standard Units>  (22) 
nM

>  <Standard Value>  (22) 
15.0

>  <Assay ChEMBL ID>  (22) 
CHEMBL3705919

>  <Assay Description>  (22) 
Receptor Tyrosine Kinase Activity Assay: Recombinant human c-Met protein (Invitrogen, Carlsbad, Calif., USA) is used. As substrate for the kinase reaction the peptide KKKSPGEYVNIEFG (JPT, Germany) is used. For the assay, 1 uL of a 51-fold concentrated solution of the test compound in DMSO is pipetted into a white 384-well microtiter plate (Greiner Bio-One, Frickenhausen, Germany). 25 uL of a solution of c-Met (final concentration 30 nM) and pyruvate kinase/lactate dehydrogenase (Roche Diagnostics, Mannheim, Germany; final concentration 8 mg/L) in assay buffer [3-(N-morpholino)propanesulfonic acid (MOPS), 50 mM, pH 7; MgCl2, 10 mM; bovine serum albumin (BSA), 0.01%; Triton X 100, 0.01%; DTT, 2 mM] are added, and the mixture is incubated for 5 min at room temperature. Then, the kinase reaction is started by the addition of 25 uL of a solution of adenosine triphosphate (ATP, final concentration 30 uM), substrate (final concentration 100 uM), nicotinamide adenine dinucleotide.

>  <BAO Format ID>  (22) 
BAO_0000357

>  <BAO Label>  (22) 
single protein format

>  <Assay Organism>  (22) 
Homo sapiens

>  <Target ChEMBL ID>  (22) 
CHEMBL3717

>  <Target Name>  (22) 
Hepatocyte growth factor receptor

>  <Target Organism>  (22) 
Homo sapiens

>  <Target Type>  (22) 
SINGLE PROTEIN

>  <Document ChEMBL ID>  (22) 
CHEMBL3639051

>  <Source Description>  (22) 
BindingDB Database

>  <Document Journal>  (22) 
nan

>  <Document Year>  (22) 
2015.0

>  <Active>  (22) 
1.0

>  <bits>  (22) 
<rdkit.DataStructs.cDataStructs.ExplicitBitVect object at 0x000001CFA8035850>

>  <Group>  (22) 
G1

$$$$

     RDKit          2D

 26 30  0  0  0  0  0  0  0  0999 V2000
  -12.7782   -4.2970    0.0000 Cl  0  0  0  0  0  0  0  0  0  0  0  0
  -11.2864   -4.1402    0.0000 C   0  0  0  0  0  0  0  0  0  0  0  0
  -10.6763   -2.7699    0.0000 C   0  0  0  0  0  0  0  0  0  0  0  0
   -9.1846   -2.6131    0.0000 C   0  0  0  0  0  0  0  0  0  0  0  0
   -8.3029   -3.8266    0.0000 C   0  0  0  0  0  0  0  0  0  0  0  0
   -8.9130   -5.1969    0.0000 C   0  0  0  0  0  0  0  0  0  0  0  0
   -8.0313   -6.4104    0.0000 N   0  0  0  0  0  0  0  0  0  0  0  0
   -6.5395   -6.2536    0.0000 C   0  0  0  0  0  0  0  0  0  0  0  0
   -5.7895   -4.9546    0.0000 N   0  0  0  0  0  0  0  0  0  0  0  0
   -4.3223   -5.2665    0.0000 N   0  0  0  0  0  0  0  0  0  0  0  0
   -2.9520   -4.6564    0.0000 C   0  0  0  0  0  0  0  0  0  0  0  0
   -2.6401   -3.1891    0.0000 C   0  0  0  0  0  0  0  0  0  0  0  0
   -1.2135   -2.7256    0.0000 N   0  0  0  0  0  0  0  0  0  0  0  0
   -0.0000   -3.6073    0.0000 C   0  0  0  0  0  0  0  0  0  0  0  0
    1.2135   -2.7256    0.0000 C   0  0  0  0  0  0  0  0  0  0  0  0
    0.7500   -1.2990    0.0000 C   0  0  0  0  0  0  0  0  0  0  0  0
    1.5000    0.0000    0.0000 N   0  0  0  0  0  0  0  0  0  0  0  0
    0.7500    1.2990    0.0000 C   0  0  0  0  0  0  0  0  0  0  0  0
   -0.7500    1.2990    0.0000 C   0  0  0  0  0  0  0  0  0  0  0  0
   -1.5000    0.0000    0.0000 C   0  0  0  0  0  0  0  0  0  0  0  0
   -0.7500   -1.2990    0.0000 C   0  0  0  0  0  0  0  0  0  0  0  0
   -1.9483   -5.7711    0.0000 N   0  0  0  0  0  0  0  0  0  0  0  0
   -2.6983   -7.0701    0.0000 N   0  0  0  0  0  0  0  0  0  0  0  0
   -4.1655   -6.7583    0.0000 C   0  0  0  0  0  0  0  0  0  0  0  0
   -5.5358   -7.3684    0.0000 S   0  0  0  0  0  0  0  0  0  0  0  0
  -10.4048   -5.3537    0.0000 C   0  0  0  0  0  0  0  0  0  0  0  0
  1  2  1  0
  2  3  2  0
  3  4  1  0
  4  5  2  0
  5  6  1  0
  6  7  1  0
  7  8  1  0
  8  9  2  0
  9 10  1  0
 10 11  1  0
 11 12  1  0
 12 13  1  0
 13 14  1  0
 14 15  2  0
 15 16  1  0
 16 17  2  0
 17 18  1  0
 18 19  2  0
 19 20  1  0
 20 21  2  0
 11 22  2  0
 22 23  1  0
 23 24  2  0
 24 25  1  0
  6 26  2  0
 26  2  1  0
 25  8  1  0
 24 10  1  0
 21 13  1  0
 21 16  1  0
M  END
>  <Compound_ID>  (23) 
CHEMBL4786582

>  <Molecule Name>  (23) 
nan

>  <Molecular Weight>  (23) 
381.85

>  <AlogP>  (23) 
3.98

>  <Smiles>  (23) 
Clc1cccc(Nc2nn3c(Cn4ccc5ncccc54)nnc3s2)c1

>  <Standard Type>  (23) 
Ki

>  <Standard Relation>  (23) 
'='

>  <Standard Units>  (23) 
nM

>  <Standard Value>  (23) 
40.0

>  <Assay ChEMBL ID>  (23) 
CHEMBL4715301

>  <Assay Description>  (23) 
Inhibition of c-Met (unknown origin) using poly Glu-Tyr as substrate preincubated for 10 mins followed by ATP addition by phosphoenolpyruvate/pyruvate kinase/lactate dehydrogenase coupled radiometric assay

>  <BAO Format ID>  (23) 
BAO_0000357

>  <BAO Label>  (23) 
single protein format

>  <Assay Organism>  (23) 
Homo sapiens

>  <Target ChEMBL ID>  (23) 
CHEMBL3717

>  <Target Name>  (23) 
Hepatocyte growth factor receptor

>  <Target Organism>  (23) 
Homo sapiens

>  <Target Type>  (23) 
SINGLE PROTEIN

>  <Document ChEMBL ID>  (23) 
CHEMBL4706768

>  <Source Description>  (23) 
Scientific Literature

>  <Document Journal>  (23) 
ACS Med Chem Lett

>  <Document Year>  (23) 
2021.0

>  <Active>  (23) 
1.0

>  <bits>  (23) 
<rdkit.DataStructs.cDataStructs.ExplicitBitVect object at 0x000001CFA80357E0>

>  <Group>  (23) 
G1

$$$$

     RDKit          2D

 28 31  0  0  0  0  0  0  0  0999 V2000
    5.6399   -9.2561    0.0000 C   0  0  0  0  0  0  0  0  0  0  0  0
    4.5251  -10.2598    0.0000 C   0  0  0  0  0  0  0  0  0  0  0  0
    4.8370  -11.7270    0.0000 N   0  0  0  0  0  0  0  0  0  0  0  0
    6.2636  -12.1905    0.0000 O   0  0  0  0  0  0  0  0  0  0  0  0
    6.5755  -13.6577    0.0000 C   0  0  0  0  0  0  0  0  0  0  0  0
    8.0020  -14.1213    0.0000 C   0  0  0  0  0  0  0  0  0  0  0  0
    8.3139  -15.5885    0.0000 O   0  0  0  0  0  0  0  0  0  0  0  0
    3.0986   -9.7963    0.0000 C   0  0  0  0  0  0  0  0  0  0  0  0
    1.9838  -10.8000    0.0000 C   0  0  0  0  0  0  0  0  0  0  0  0
    0.5573  -10.3364    0.0000 N   0  0  0  0  0  0  0  0  0  0  0  0
    0.2454   -8.8692    0.0000 C   0  0  0  0  0  0  0  0  0  0  0  0
   -1.0537   -8.1192    0.0000 N   0  0  0  0  0  0  0  0  0  0  0  0
   -0.7418   -6.6520    0.0000 N   0  0  0  0  0  0  0  0  0  0  0  0
    0.7500   -6.4952    0.0000 N   0  0  0  0  0  0  0  0  0  0  0  0
    1.5000   -5.1962    0.0000 C   0  0  0  0  0  0  0  0  0  0  0  0
    0.7500   -3.8971    0.0000 C   0  0  0  0  0  0  0  0  0  0  0  0
    1.5000   -2.5981    0.0000 C   0  0  0  0  0  0  0  0  0  0  0  0
    0.7500   -1.2990    0.0000 C   0  0  0  0  0  0  0  0  0  0  0  0
    1.5000    0.0000    0.0000 C   0  0  0  0  0  0  0  0  0  0  0  0
    0.7500    1.2990    0.0000 C   0  0  0  0  0  0  0  0  0  0  0  0
   -0.7500    1.2990    0.0000 C   0  0  0  0  0  0  0  0  0  0  0  0
   -1.5000    0.0000    0.0000 N   0  0  0  0  0  0  0  0  0  0  0  0
   -0.7500   -1.2990    0.0000 C   0  0  0  0  0  0  0  0  0  0  0  0
   -1.5000   -2.5981    0.0000 C   0  0  0  0  0  0  0  0  0  0  0  0
   -0.7500   -3.8971    0.0000 C   0  0  0  0  0  0  0  0  0  0  0  0
   -1.5000   -5.1962    0.0000 F   0  0  0  0  0  0  0  0  0  0  0  0
    1.3601   -7.8655    0.0000 C   0  0  0  0  0  0  0  0  0  0  0  0
    2.7867   -8.3290    0.0000 N   0  0  0  0  0  0  0  0  0  0  0  0
  1  2  1  0
  2  3  2  0
  3  4  1  0
  4  5  1  0
  5  6  1  0
  6  7  1  0
  2  8  1  0
  8  9  2  0
  9 10  1  0
 10 11  2  0
 11 12  1  0
 12 13  2  0
 13 14  1  0
 14 15  1  0
 15 16  1  0
 16 17  2  0
 17 18  1  0
 18 19  2  0
 19 20  1  0
 20 21  2  0
 21 22  1  0
 22 23  2  0
 23 24  1  0
 24 25  2  0
 25 26  1  0
 14 27  1  0
 27 28  2  0
 28  8  1  0
 27 11  1  0
 25 16  1  0
 23 18  1  0
M  END
>  <Compound_ID>  (24) 
CHEMBL3648234

>  <Molecule Name>  (24) 
nan

>  <Molecular Weight>  (24) 
381.37

>  <AlogP>  (24) 
1.69

>  <Smiles>  (24) 
C/C(=N\OCCO)c1cnc2nnn(Cc3cc4cccnc4cc3F)c2n1

>  <Standard Type>  (24) 
IC50

>  <Standard Relation>  (24) 
'='

>  <Standard Units>  (24) 
nM

>  <Standard Value>  (24) 
2.8

>  <Assay ChEMBL ID>  (24) 
CHEMBL3705316

>  <Assay Description>  (24) 
Kinase Assay: The kinase assay is based on the LanthaScreen technology. LanthaScreen is the detection of Time-Resolved Fluorescence Resonance Energy Transfer (TR-FRET) using lanthanide chelates to measure interactions between various binding partners.

>  <BAO Format ID>  (24) 
BAO_0000357

>  <BAO Label>  (24) 
single protein format

>  <Assay Organism>  (24) 
Homo sapiens

>  <Target ChEMBL ID>  (24) 
CHEMBL3717

>  <Target Name>  (24) 
Hepatocyte growth factor receptor

>  <Target Organism>  (24) 
Homo sapiens

>  <Target Type>  (24) 
SINGLE PROTEIN

>  <Document ChEMBL ID>  (24) 
CHEMBL3638682

>  <Source Description>  (24) 
BindingDB Database

>  <Document Journal>  (24) 
nan

>  <Document Year>  (24) 
2013.0

>  <Active>  (24) 
1.0

>  <bits>  (24) 
<rdkit.DataStructs.cDataStructs.ExplicitBitVect object at 0x000001CFA8035770>

>  <Group>  (24) 
G1

$$$$

     RDKit          2D

 28 31  0  0  0  0  0  0  0  0999 V2000
   -5.6399   -9.2561    0.0000 C   0  0  0  0  0  0  0  0  0  0  0  0
   -4.5251  -10.2598    0.0000 C   0  0  0  0  0  0  0  0  0  0  0  0
   -4.8370  -11.7270    0.0000 N   0  0  0  0  0  0  0  0  0  0  0  0
   -6.2636  -12.1905    0.0000 N   0  0  0  0  0  0  0  0  0  0  0  0
   -6.5755  -13.6577    0.0000 C   0  0  0  0  0  0  0  0  0  0  0  0
   -8.0020  -14.1213    0.0000 N   0  0  0  0  0  0  0  0  0  0  0  0
   -5.4607  -14.6614    0.0000 O   0  0  0  0  0  0  0  0  0  0  0  0
   -3.0986   -9.7963    0.0000 C   0  0  0  0  0  0  0  0  0  0  0  0
   -1.9838  -10.8000    0.0000 C   0  0  0  0  0  0  0  0  0  0  0  0
   -0.5573  -10.3364    0.0000 C   0  0  0  0  0  0  0  0  0  0  0  0
   -0.2454   -8.8692    0.0000 C   0  0  0  0  0  0  0  0  0  0  0  0
    1.0537   -8.1192    0.0000 N   0  0  0  0  0  0  0  0  0  0  0  0
    0.7418   -6.6520    0.0000 C   0  0  0  0  0  0  0  0  0  0  0  0
   -0.7500   -6.4952    0.0000 C   0  0  0  0  0  0  0  0  0  0  0  0
   -1.5000   -5.1962    0.0000 C   0  0  0  0  0  0  0  0  0  0  0  0
   -3.0000   -5.1962    0.0000 C   0  0  0  0  0  0  0  0  0  0  0  0
   -0.7500   -3.8971    0.0000 C   0  0  0  0  0  0  0  0  0  0  0  0
    0.7500   -3.8971    0.0000 C   0  0  0  0  0  0  0  0  0  0  0  0
    1.5000   -2.5981    0.0000 C   0  0  0  0  0  0  0  0  0  0  0  0
    0.7500   -1.2990    0.0000 C   0  0  0  0  0  0  0  0  0  0  0  0
    1.5000    0.0000    0.0000 N   0  0  0  0  0  0  0  0  0  0  0  0
    0.7500    1.2990    0.0000 C   0  0  0  0  0  0  0  0  0  0  0  0
   -0.7500    1.2990    0.0000 C   0  0  0  0  0  0  0  0  0  0  0  0
   -1.5000    0.0000    0.0000 C   0  0  0  0  0  0  0  0  0  0  0  0
   -0.7500   -1.2990    0.0000 C   0  0  0  0  0  0  0  0  0  0  0  0
   -1.5000   -2.5981    0.0000 C   0  0  0  0  0  0  0  0  0  0  0  0
   -1.3601   -7.8655    0.0000 N   0  0  0  0  0  0  0  0  0  0  0  0
   -2.7867   -8.3290    0.0000 N   0  0  0  0  0  0  0  0  0  0  0  0
  1  2  1  0
  2  3  2  0
  3  4  1  0
  4  5  1  0
  5  6  1  0
  5  7  2  0
  2  8  1  0
  8  9  1  0
  9 10  2  0
 10 11  1  0
 11 12  2  0
 12 13  1  0
 13 14  2  0
 14 15  1  0
 15 16  1  1
 15 17  1  0
 17 18  2  0
 18 19  1  0
 19 20  2  0
 20 21  1  0
 21 22  2  0
 22 23  1  0
 23 24  2  0
 24 25  1  0
 25 26  2  0
 14 27  1  0
 27 28  1  0
 28  8  2  0
 27 11  1  0
 26 17  1  0
 25 20  1  0
M  END
>  <Compound_ID>  (25) 
CHEMBL3674505

>  <Molecule Name>  (25) 
nan

>  <Molecular Weight>  (25) 
373.42

>  <AlogP>  (25) 
2.82

>  <Smiles>  (25) 
C/C(=N\NC(N)=O)c1ccc2ncc([C@@H](C)c3ccc4ncccc4c3)n2n1

>  <Standard Type>  (25) 
IC50

>  <Standard Relation>  (25) 
'='

>  <Standard Units>  (25) 
nM

>  <Standard Value>  (25) 
0.4

>  <Assay ChEMBL ID>  (25) 
CHEMBL3705294

>  <Assay Description>  (25) 
Time-Resolved Fluorescence Resonance Energy Transfer (TR-FRET) Assay: The kinase assay is based on the LanthaScreen technology. LanthaScreen is the detection of Time-Resolved Fluorescence Resonance Energy Transfer (TR-FRET) using lanthanide chelates to measure interactions between various binding partners.

>  <BAO Format ID>  (25) 
BAO_0000357

>  <BAO Label>  (25) 
single protein format

>  <Assay Organism>  (25) 
Homo sapiens

>  <Target ChEMBL ID>  (25) 
CHEMBL3717

>  <Target Name>  (25) 
Hepatocyte growth factor receptor

>  <Target Organism>  (25) 
Homo sapiens

>  <Target Type>  (25) 
SINGLE PROTEIN

>  <Document ChEMBL ID>  (25) 
CHEMBL3638663

>  <Source Description>  (25) 
BindingDB Database

>  <Document Journal>  (25) 
nan

>  <Document Year>  (25) 
2013.0

>  <Active>  (25) 
1.0

>  <bits>  (25) 
<rdkit.DataStructs.cDataStructs.ExplicitBitVect object at 0x000001CFA8035700>

>  <Group>  (25) 
G1

$$$$

     RDKit          2D

 36 39  0  0  0  0  0  0  0  0999 V2000
   -3.5898   -0.7046    0.0000 C   0  0  0  0  0  0  0  0  0  0  0  0
   -3.1476   -2.1380    0.0000 C   0  0  0  0  0  0  0  0  0  0  0  0
   -1.6852   -2.4718    0.0000 N   0  0  0  0  0  0  0  0  0  0  0  0
   -1.3515   -3.9342    0.0000 C   0  0  0  0  0  0  0  0  0  0  0  0
   -2.5242   -4.8694    0.0000 O   0  0  0  0  0  0  0  0  0  0  0  0
   -0.0000   -4.5850    0.0000 C   0  0  0  0  0  0  0  0  0  0  0  0
    1.3515   -3.9342    0.0000 C   0  0  0  0  0  0  0  0  0  0  0  0
    1.6852   -2.4718    0.0000 C   0  0  0  0  0  0  0  0  0  0  0  0
    0.7500   -1.2990    0.0000 C   0  0  0  0  0  0  0  0  0  0  0  0
    1.5000    0.0000    0.0000 C   0  0  0  0  0  0  0  0  0  0  0  0
    0.7500    1.2990    0.0000 C   0  0  0  0  0  0  0  0  0  0  0  0
    1.5000    2.5981    0.0000 N   0  0  0  0  0  0  0  0  0  0  0  0
    3.0000    2.5981    0.0000 C   0  0  0  0  0  0  0  0  0  0  0  0
    3.7500    1.2990    0.0000 O   0  0  0  0  0  0  0  0  0  0  0  0
    3.7500    3.8971    0.0000 C   0  0  0  0  0  0  0  0  0  0  0  0
    5.2500    3.8971    0.0000 C   0  0  0  0  0  0  0  0  0  0  0  0
    6.0000    5.1962    0.0000 C   0  0  0  0  0  0  0  0  0  0  0  0
    7.5000    5.1962    0.0000 O   0  0  0  0  0  0  0  0  0  0  0  0
    8.2500    3.8971    0.0000 C   0  0  0  0  0  0  0  0  0  0  0  0
    7.5000    2.5981    0.0000 C   0  0  0  0  0  0  0  0  0  0  0  0
    9.7500    3.8971    0.0000 C   0  0  0  0  0  0  0  0  0  0  0  0
   10.5000    5.1962    0.0000 C   0  0  0  0  0  0  0  0  0  0  0  0
    9.7500    6.4952    0.0000 Cl  0  0  0  0  0  0  0  0  0  0  0  0
   12.0000    5.1962    0.0000 C   0  0  0  0  0  0  0  0  0  0  0  0
   12.7500    3.8971    0.0000 C   0  0  0  0  0  0  0  0  0  0  0  0
   12.0000    2.5981    0.0000 C   0  0  0  0  0  0  0  0  0  0  0  0
   12.7500    1.2990    0.0000 F   0  0  0  0  0  0  0  0  0  0  0  0
   10.5000    2.5981    0.0000 C   0  0  0  0  0  0  0  0  0  0  0  0
    9.7500    1.2990    0.0000 Cl  0  0  0  0  0  0  0  0  0  0  0  0
    5.2500    6.4952    0.0000 C   0  0  0  0  0  0  0  0  0  0  0  0
    3.7500    6.4952    0.0000 N   0  0  0  0  0  0  0  0  0  0  0  0
    3.0000    5.1962    0.0000 C   0  0  0  0  0  0  0  0  0  0  0  0
    1.5000    5.1962    0.0000 O   0  0  0  0  0  0  0  0  0  0  0  0
   -0.7500    1.2990    0.0000 C   0  0  0  0  0  0  0  0  0  0  0  0
   -1.5000    0.0000    0.0000 C   0  0  0  0  0  0  0  0  0  0  0  0
   -0.7500   -1.2990    0.0000 C   0  0  0  0  0  0  0  0  0  0  0  0
  1  2  1  0
  2  3  1  0
  3  4  1  0
  4  5  2  0
  4  6  1  0
  6  7  1  0
  7  8  1  0
  8  9  1  0
  9 10  2  0
 10 11  1  0
 11 12  1  0
 12 13  1  0
 13 14  2  0
 13 15  1  0
 15 16  2  0
 16 17  1  0
 17 18  1  0
 18 19  1  0
 19 20  1  1
 19 21  1  0
 21 22  2  0
 22 23  1  0
 22 24  1  0
 24 25  2  0
 25 26  1  0
 26 27  1  0
 26 28  2  0
 28 29  1  0
 17 30  2  0
 30 31  1  0
 31 32  1  0
 32 33  2  0
 11 34  2  0
 34 35  1  0
 35 36  2  0
 36  3  1  0
 36  9  1  0
 32 15  1  0
 28 21  1  0
M  END
>  <Compound_ID>  (26) 
CHEMBL2376634

>  <Molecule Name>  (26) 
nan

>  <Molecular Weight>  (26) 
532.4

>  <AlogP>  (26) 
5.9

>  <Smiles>  (26) 
CCN1C(=O)CCCc2cc(NC(=O)c3cc(O[C@H](C)c4c(Cl)ccc(F)c4Cl)c[nH]c3=O)ccc21

>  <Standard Type>  (26) 
IC50

>  <Standard Relation>  (26) 
'='

>  <Standard Units>  (26) 
nM

>  <Standard Value>  (26) 
75.0

>  <Assay ChEMBL ID>  (26) 
CHEMBL2379920

>  <Assay Description>  (26) 
Inhibition of c-MET (unknown origin) after 60 mins by ELISA

>  <BAO Format ID>  (26) 
BAO_0000357

>  <BAO Label>  (26) 
single protein format

>  <Assay Organism>  (26) 
Homo sapiens

>  <Target ChEMBL ID>  (26) 
CHEMBL3717

>  <Target Name>  (26) 
Hepatocyte growth factor receptor

>  <Target Organism>  (26) 
Homo sapiens

>  <Target Type>  (26) 
SINGLE PROTEIN

>  <Document ChEMBL ID>  (26) 
CHEMBL2375342

>  <Source Description>  (26) 
Scientific Literature

>  <Document Journal>  (26) 
Bioorg Med Chem Lett

>  <Document Year>  (26) 
2013.0

>  <Active>  (26) 
1.0

>  <bits>  (26) 
<rdkit.DataStructs.cDataStructs.ExplicitBitVect object at 0x000001CFA8035690>

>  <Group>  (26) 
G1

$$$$

     RDKit          2D

 26 29  0  0  0  0  0  0  0  0999 V2000
   -5.4874  -11.3515    0.0000 C   0  0  0  0  0  0  0  0  0  0  0  0
   -4.3727  -10.3478    0.0000 C   0  0  0  0  0  0  0  0  0  0  0  0
   -2.9461  -10.8113    0.0000 N   0  0  0  0  0  0  0  0  0  0  0  0
   -2.6342  -12.2786    0.0000 O   0  0  0  0  0  0  0  0  0  0  0  0
   -4.6845   -8.8806    0.0000 C   0  0  0  0  0  0  0  0  0  0  0  0
   -6.1111   -8.4171    0.0000 C   0  0  0  0  0  0  0  0  0  0  0  0
   -6.4230   -6.9498    0.0000 C   0  0  0  0  0  0  0  0  0  0  0  0
   -5.3083   -5.9462    0.0000 C   0  0  0  0  0  0  0  0  0  0  0  0
   -5.3083   -4.4462    0.0000 N   0  0  0  0  0  0  0  0  0  0  0  0
   -3.8817   -3.9826    0.0000 N   0  0  0  0  0  0  0  0  0  0  0  0
   -3.0000   -5.1962    0.0000 C   0  0  0  0  0  0  0  0  0  0  0  0
   -1.5000   -5.1962    0.0000 C   0  0  0  0  0  0  0  0  0  0  0  0
   -0.7500   -3.8971    0.0000 C   0  0  0  0  0  0  0  0  0  0  0  0
    0.7500   -3.8971    0.0000 C   0  0  0  0  0  0  0  0  0  0  0  0
    1.5000   -5.1962    0.0000 F   0  0  0  0  0  0  0  0  0  0  0  0
    1.5000   -2.5981    0.0000 C   0  0  0  0  0  0  0  0  0  0  0  0
    0.7500   -1.2990    0.0000 C   0  0  0  0  0  0  0  0  0  0  0  0
    1.5000    0.0000    0.0000 N   0  0  0  0  0  0  0  0  0  0  0  0
    0.7500    1.2990    0.0000 C   0  0  0  0  0  0  0  0  0  0  0  0
   -0.7500    1.2990    0.0000 C   0  0  0  0  0  0  0  0  0  0  0  0
   -1.5000    0.0000    0.0000 C   0  0  0  0  0  0  0  0  0  0  0  0
   -0.7500   -1.2990    0.0000 C   0  0  0  0  0  0  0  0  0  0  0  0
   -1.5000   -2.5981    0.0000 C   0  0  0  0  0  0  0  0  0  0  0  0
   -3.0000   -2.5981    0.0000 F   0  0  0  0  0  0  0  0  0  0  0  0
   -3.8817   -6.4097    0.0000 N   0  0  0  0  0  0  0  0  0  0  0  0
   -3.5698   -7.8769    0.0000 N   0  0  0  0  0  0  0  0  0  0  0  0
  1  2  1  0
  2  3  1  0
  3  4  2  0
  2  5  1  0
  5  6  1  0
  6  7  2  0
  7  8  1  0
  8  9  2  0
  9 10  1  0
 10 11  2  0
 11 12  1  0
 12 13  1  0
 13 14  2  0
 14 15  1  0
 14 16  1  0
 16 17  2  0
 17 18  1  0
 18 19  2  0
 19 20  1  0
 20 21  2  0
 21 22  1  0
 22 23  2  0
 23 24  1  0
 11 25  1  0
 25 26  1  0
 26  5  2  0
 25  8  1  0
 23 13  1  0
 22 17  1  0
M  END
>  <Compound_ID>  (27) 
CHEMBL3651418

>  <Molecule Name>  (27) 
nan

>  <Molecular Weight>  (27) 
354.32

>  <AlogP>  (27) 
3.37

>  <Smiles>  (27) 
CC(N=O)c1ccc2nnc(Cc3c(F)cc4ncccc4c3F)n2n1

>  <Standard Type>  (27) 
IC50

>  <Standard Relation>  (27) 
'='

>  <Standard Units>  (27) 
nM

>  <Standard Value>  (27) 
0.4

>  <Assay ChEMBL ID>  (27) 
CHEMBL3705316

>  <Assay Description>  (27) 
Kinase Assay: The kinase assay is based on the LanthaScreen technology. LanthaScreen is the detection of Time-Resolved Fluorescence Resonance Energy Transfer (TR-FRET) using lanthanide chelates to measure interactions between various binding partners.

>  <BAO Format ID>  (27) 
BAO_0000357

>  <BAO Label>  (27) 
single protein format

>  <Assay Organism>  (27) 
Homo sapiens

>  <Target ChEMBL ID>  (27) 
CHEMBL3717

>  <Target Name>  (27) 
Hepatocyte growth factor receptor

>  <Target Organism>  (27) 
Homo sapiens

>  <Target Type>  (27) 
SINGLE PROTEIN

>  <Document ChEMBL ID>  (27) 
CHEMBL3638682

>  <Source Description>  (27) 
BindingDB Database

>  <Document Journal>  (27) 
nan

>  <Document Year>  (27) 
2013.0

>  <Active>  (27) 
1.0

>  <bits>  (27) 
<rdkit.DataStructs.cDataStructs.ExplicitBitVect object at 0x000001CFA8035540>

>  <Group>  (27) 
G1

$$$$

     RDKit          2D

 43 47  0  0  0  0  0  0  0  0999 V2000
    8.2500   -3.8971    0.0000 C   0  0  0  0  0  0  0  0  0  0  0  0
    7.5000   -2.5981    0.0000 C   0  0  0  0  0  0  0  0  0  0  0  0
    6.0000   -2.5981    0.0000 N   0  0  0  0  0  0  0  0  0  0  0  0
    5.2500   -3.8971    0.0000 C   0  0  0  0  0  0  0  0  0  0  0  0
    6.0000   -5.1962    0.0000 C   0  0  0  0  0  0  0  0  0  0  0  0
    5.2500   -1.2990    0.0000 C   0  0  0  0  0  0  0  0  0  0  0  0
    3.7500   -1.2990    0.0000 C   0  0  0  0  0  0  0  0  0  0  0  0
    3.0000    0.0000    0.0000 O   0  0  0  0  0  0  0  0  0  0  0  0
    1.5000    0.0000    0.0000 C   0  0  0  0  0  0  0  0  0  0  0  0
    0.7500   -1.2990    0.0000 C   0  0  0  0  0  0  0  0  0  0  0  0
   -0.7500   -1.2990    0.0000 C   0  0  0  0  0  0  0  0  0  0  0  0
   -1.5000    0.0000    0.0000 C   0  0  0  0  0  0  0  0  0  0  0  0
   -3.0000    0.0000    0.0000 N   0  0  0  0  0  0  0  0  0  0  0  0
   -3.7500    1.2990    0.0000 C   0  0  0  0  0  0  0  0  0  0  0  0
   -3.0000    2.5981    0.0000 N   0  0  0  0  0  0  0  0  0  0  0  0
   -3.7500    3.8971    0.0000 C   0  0  0  0  0  0  0  0  0  0  0  0
   -5.2500    3.8971    0.0000 C   0  0  0  0  0  0  0  0  0  0  0  0
   -6.0000    2.5981    0.0000 C   0  0  0  0  0  0  0  0  0  0  0  0
   -7.5000    2.5981    0.0000 C   0  0  0  0  0  0  0  0  0  0  0  0
   -8.3817    1.3846    0.0000 N   0  0  0  0  0  0  0  0  0  0  0  0
   -9.8083    1.8481    0.0000 C   0  0  0  0  0  0  0  0  0  0  0  0
  -11.0218    0.9664    0.0000 C   0  0  0  0  0  0  0  0  0  0  0  0
  -12.3921    1.5765    0.0000 C   0  0  0  0  0  0  0  0  0  0  0  0
  -12.5489    3.0683    0.0000 Cl  0  0  0  0  0  0  0  0  0  0  0  0
  -13.6056    0.6948    0.0000 C   0  0  0  0  0  0  0  0  0  0  0  0
  -13.4488   -0.7970    0.0000 C   0  0  0  0  0  0  0  0  0  0  0  0
  -14.6624   -1.6786    0.0000 C   0  0  0  0  0  0  0  0  0  0  0  0
  -16.0327   -1.0685    0.0000 O   0  0  0  0  0  0  0  0  0  0  0  0
  -12.0785   -1.4071    0.0000 C   0  0  0  0  0  0  0  0  0  0  0  0
  -10.8650   -0.5254    0.0000 C   0  0  0  0  0  0  0  0  0  0  0  0
   -9.4947   -1.1355    0.0000 Cl  0  0  0  0  0  0  0  0  0  0  0  0
   -9.8083    3.3481    0.0000 N   0  0  0  0  0  0  0  0  0  0  0  0
   -8.3817    3.8116    0.0000 C   0  0  0  0  0  0  0  0  0  0  0  0
   -7.9182    5.2382    0.0000 C   0  0  0  0  0  0  0  0  0  0  0  0
   -6.4509    5.5501    0.0000 C   0  0  0  0  0  0  0  0  0  0  0  0
   -5.9874    6.9766    0.0000 C   0  0  0  0  0  0  0  0  0  0  0  0
   -6.9911    8.0914    0.0000 C   0  0  0  0  0  0  0  0  0  0  0  0
   -8.4583    7.7795    0.0000 C   0  0  0  0  0  0  0  0  0  0  0  0
   -9.4620    8.8942    0.0000 Cl  0  0  0  0  0  0  0  0  0  0  0  0
   -8.9218    6.3529    0.0000 C   0  0  0  0  0  0  0  0  0  0  0  0
   -5.2500    1.2990    0.0000 N   0  0  0  0  0  0  0  0  0  0  0  0
   -0.7500    1.2990    0.0000 C   0  0  0  0  0  0  0  0  0  0  0  0
    0.7500    1.2990    0.0000 C   0  0  0  0  0  0  0  0  0  0  0  0
  1  2  1  0
  2  3  1  0
  3  4  1  0
  4  5  1  0
  3  6  1  0
  6  7  1  0
  7  8  1  0
  8  9  1  0
  9 10  2  0
 10 11  1  0
 11 12  2  0
 12 13  1  0
 13 14  1  0
 14 15  2  0
 15 16  1  0
 16 17  2  0
 17 18  1  0
 18 19  1  0
 19 20  1  0
 20 21  1  0
 21 22  1  0
 22 23  2  0
 23 24  1  0
 23 25  1  0
 25 26  2  0
 26 27  1  0
 27 28  1  0
 26 29  1  0
 29 30  2  0
 30 31  1  0
 21 32  2  0
 32 33  1  0
 33 34  1  0
 34 35  2  0
 35 36  1  0
 36 37  2  0
 37 38  1  0
 38 39  1  0
 38 40  2  0
 18 41  2  0
 12 42  1  0
 42 43  2  0
 43  9  1  0
 41 14  1  0
 33 19  2  0
 40 34  1  0
 30 22  1  0
M  END
>  <Compound_ID>  (28) 
CHEMBL1822790

>  <Molecule Name>  (28) 
nan

>  <Molecular Weight>  (28) 
638.0

>  <AlogP>  (28) 
8.12

>  <Smiles>  (28) 
CCN(CC)CCOc1ccc(Nc2nccc(-c3[nH]c(-c4c(Cl)cc(CO)cc4Cl)nc3-c3cccc(Cl)c3)n2)cc1

>  <Standard Type>  (28) 
IC50

>  <Standard Relation>  (28) 
'='

>  <Standard Units>  (28) 
nM

>  <Standard Value>  (28) 
4.0

>  <Assay ChEMBL ID>  (28) 
CHEMBL1826790

>  <Assay Description>  (28) 
Inhibition of human c-MET

>  <BAO Format ID>  (28) 
BAO_0000357

>  <BAO Label>  (28) 
single protein format

>  <Assay Organism>  (28) 
Homo sapiens

>  <Target ChEMBL ID>  (28) 
CHEMBL3717

>  <Target Name>  (28) 
Hepatocyte growth factor receptor

>  <Target Organism>  (28) 
Homo sapiens

>  <Target Type>  (28) 
SINGLE PROTEIN

>  <Document ChEMBL ID>  (28) 
CHEMBL1821609

>  <Source Description>  (28) 
Scientific Literature

>  <Document Journal>  (28) 
Eur J Med Chem

>  <Document Year>  (28) 
2011.0

>  <Active>  (28) 
1.0

>  <bits>  (28) 
<rdkit.DataStructs.cDataStructs.ExplicitBitVect object at 0x000001CFA80354D0>

>  <Group>  (28) 
G1

$$$$

     RDKit          2D

 36 39  0  0  0  0  0  0  0  0999 V2000
   -3.0000  -12.9904    0.0000 C   0  0  0  0  0  0  0  0  0  0  0  0
   -1.5000  -12.9904    0.0000 O   0  0  0  0  0  0  0  0  0  0  0  0
   -0.7500  -11.6913    0.0000 C   0  0  0  0  0  0  0  0  0  0  0  0
   -1.5000  -10.3923    0.0000 C   0  0  0  0  0  0  0  0  0  0  0  0
   -0.7500   -9.0933    0.0000 C   0  0  0  0  0  0  0  0  0  0  0  0
    0.7500   -9.0933    0.0000 C   0  0  0  0  0  0  0  0  0  0  0  0
    1.5000   -7.7942    0.0000 N   0  0  0  0  0  0  0  0  0  0  0  0
    0.7500   -6.4952    0.0000 C   0  0  0  0  0  0  0  0  0  0  0  0
   -0.7500   -6.4952    0.0000 O   0  0  0  0  0  0  0  0  0  0  0  0
    1.5000   -5.1962    0.0000 C   0  0  0  0  0  0  0  0  0  0  0  0
    0.7500   -3.8971    0.0000 C   0  0  0  0  0  0  0  0  0  0  0  0
   -0.7500   -3.8971    0.0000 O   0  0  0  0  0  0  0  0  0  0  0  0
    1.5000   -2.5981    0.0000 N   0  0  0  0  0  0  0  0  0  0  0  0
    0.7500   -1.2990    0.0000 C   0  0  0  0  0  0  0  0  0  0  0  0
    1.5000    0.0000    0.0000 C   0  0  0  0  0  0  0  0  0  0  0  0
    0.7500    1.2990    0.0000 C   0  0  0  0  0  0  0  0  0  0  0  0
   -0.7500    1.2990    0.0000 C   0  0  0  0  0  0  0  0  0  0  0  0
   -1.5000    0.0000    0.0000 C   0  0  0  0  0  0  0  0  0  0  0  0
   -0.7500   -1.2990    0.0000 C   0  0  0  0  0  0  0  0  0  0  0  0
   -2.9672    0.3119    0.0000 N   0  0  0  0  0  0  0  0  0  0  0  0
   -3.1240    1.8037    0.0000 C   0  0  0  0  0  0  0  0  0  0  0  0
   -4.4231    2.5537    0.0000 O   0  0  0  0  0  0  0  0  0  0  0  0
   -1.7537    2.4138    0.0000 C   0  0  0  0  0  0  0  0  0  0  0  0
   -1.4418    3.8810    0.0000 C   0  0  0  0  0  0  0  0  0  0  0  0
   -2.5565    4.8847    0.0000 C   0  0  0  0  0  0  0  0  0  0  0  0
   -4.0238    4.5728    0.0000 N   0  0  0  0  0  0  0  0  0  0  0  0
   -4.7738    5.8718    0.0000 C   0  0  0  0  0  0  0  0  0  0  0  0
   -6.2655    6.0286    0.0000 C   0  0  0  0  0  0  0  0  0  0  0  0
   -3.7701    6.9866    0.0000 C   0  0  0  0  0  0  0  0  0  0  0  0
   -4.0819    8.4538    0.0000 C   0  0  0  0  0  0  0  0  0  0  0  0
   -5.5085    8.9173    0.0000 O   0  0  0  0  0  0  0  0  0  0  0  0
   -2.9672    9.4575    0.0000 O   0  0  0  0  0  0  0  0  0  0  0  0
   -2.3998    6.3765    0.0000 C   0  0  0  0  0  0  0  0  0  0  0  0
   -1.1007    7.1265    0.0000 C   0  0  0  0  0  0  0  0  0  0  0  0
    1.5000  -10.3923    0.0000 C   0  0  0  0  0  0  0  0  0  0  0  0
    0.7500  -11.6913    0.0000 C   0  0  0  0  0  0  0  0  0  0  0  0
  1  2  1  0
  2  3  1  0
  3  4  2  0
  4  5  1  0
  5  6  2  0
  6  7  1  0
  7  8  1  0
  8  9  2  0
  8 10  1  0
 10 11  1  0
 11 12  2  0
 11 13  1  0
 13 14  1  0
 14 15  2  0
 15 16  1  0
 16 17  2  0
 17 18  1  0
 18 19  2  0
 18 20  1  0
 20 21  1  0
 21 22  2  0
 21 23  1  0
 23 24  2  0
 24 25  1  0
 25 26  1  0
 26 27  1  0
 27 28  1  0
 27 29  2  0
 29 30  1  0
 30 31  2  0
 30 32  1  0
 29 33  1  0
 33 34  1  0
  6 35  1  0
 35 36  2  0
 36  3  1  0
 19 14  1  0
 33 25  2  0
 23 17  1  0
M  END
>  <Compound_ID>  (29) 
CHEMBL3322565

>  <Molecule Name>  (29) 
nan

>  <Molecular Weight>  (29) 
488.5

>  <AlogP>  (29) 
3.8

>  <Smiles>  (29) 
COc1ccc(NC(=O)CC(=O)Nc2ccc3c(c2)NC(=O)/C3=C\c2[nH]c(C)c(C(=O)O)c2C)cc1

>  <Standard Type>  (29) 
IC50

>  <Standard Relation>  (29) 
'='

>  <Standard Units>  (29) 
nM

>  <Standard Value>  (29) 
31.1

>  <Assay ChEMBL ID>  (29) 
CHEMBL3362112

>  <Assay Description>  (29) 
Inhibition of c-Met (unknown origin) using KKKSPGEYVNIEFG substrate by radioisotope-based P81 filter-binding assay

>  <BAO Format ID>  (29) 
BAO_0000357

>  <BAO Label>  (29) 
single protein format

>  <Assay Organism>  (29) 
Homo sapiens

>  <Target ChEMBL ID>  (29) 
CHEMBL3717

>  <Target Name>  (29) 
Hepatocyte growth factor receptor

>  <Target Organism>  (29) 
Homo sapiens

>  <Target Type>  (29) 
SINGLE PROTEIN

>  <Document ChEMBL ID>  (29) 
CHEMBL3351387

>  <Source Description>  (29) 
Scientific Literature

>  <Document Journal>  (29) 
Eur J Med Chem

>  <Document Year>  (29) 
2014.0

>  <Active>  (29) 
1.0

>  <bits>  (29) 
<rdkit.DataStructs.cDataStructs.ExplicitBitVect object at 0x000001CFA8035460>

>  <Group>  (29) 
G1

$$$$

     RDKit          2D

 21 23  0  0  0  0  0  0  0  0999 V2000
   -1.8373   -5.6601    0.0000 O   0  0  0  0  0  0  0  0  0  0  0  0
   -3.2638   -6.1236    0.0000 N   0  0  0  0  0  4  0  0  0  0  0  0
   -3.5757   -7.5908    0.0000 O   0  0  0  0  0  1  0  0  0  0  0  0
   -4.3786   -5.1199    0.0000 C   0  0  0  0  0  0  0  0  0  0  0  0
   -5.8051   -5.5834    0.0000 C   0  0  0  0  0  0  0  0  0  0  0  0
   -6.9199   -4.5797    0.0000 C   0  0  0  0  0  0  0  0  0  0  0  0
   -6.6080   -3.1125    0.0000 C   0  0  0  0  0  0  0  0  0  0  0  0
   -5.1814   -2.6490    0.0000 C   0  0  0  0  0  0  0  0  0  0  0  0
   -4.0667   -3.6527    0.0000 C   0  0  0  0  0  0  0  0  0  0  0  0
   -2.6401   -3.1891    0.0000 S   0  0  0  0  0  0  0  0  0  0  0  0
   -3.1036   -1.7626    0.0000 O   0  0  0  0  0  0  0  0  0  0  0  0
   -2.1766   -4.6157    0.0000 O   0  0  0  0  0  0  0  0  0  0  0  0
   -1.2135   -2.7256    0.0000 N   0  0  0  0  0  0  0  0  0  0  0  0
   -0.0000   -3.6073    0.0000 C   0  0  0  0  0  0  0  0  0  0  0  0
    1.2135   -2.7256    0.0000 C   0  0  0  0  0  0  0  0  0  0  0  0
    0.7500   -1.2990    0.0000 C   0  0  0  0  0  0  0  0  0  0  0  0
    1.5000    0.0000    0.0000 N   0  0  0  0  0  0  0  0  0  0  0  0
    0.7500    1.2990    0.0000 C   0  0  0  0  0  0  0  0  0  0  0  0
   -0.7500    1.2990    0.0000 C   0  0  0  0  0  0  0  0  0  0  0  0
   -1.5000    0.0000    0.0000 C   0  0  0  0  0  0  0  0  0  0  0  0
   -0.7500   -1.2990    0.0000 C   0  0  0  0  0  0  0  0  0  0  0  0
  1  2  2  0
  2  3  1  0
  2  4  1  0
  4  5  2  0
  5  6  1  0
  6  7  2  0
  7  8  1  0
  8  9  2  0
  9 10  1  0
 10 11  2  0
 10 12  2  0
 10 13  1  0
 13 14  1  0
 14 15  2  0
 15 16  1  0
 16 17  2  0
 17 18  1  0
 18 19  2  0
 19 20  1  0
 20 21  2  0
  9  4  1  0
 21 13  1  0
 21 16  1  0
M  CHG  2   2   1   3  -1
M  END
>  <Compound_ID>  (30) 
CHEMBL550305

>  <Molecule Name>  (30) 
nan

>  <Molecular Weight>  (30) 
303.3

>  <AlogP>  (30) 
2.18

>  <Smiles>  (30) 
O=[N+]([O-])c1ccccc1S(=O)(=O)n1ccc2ncccc21

>  <Standard Type>  (30) 
IC50

>  <Standard Relation>  (30) 
'='

>  <Standard Units>  (30) 
nM

>  <Standard Value>  (30) 
20.0

>  <Assay ChEMBL ID>  (30) 
CHEMBL1062250

>  <Assay Description>  (30) 
Inhibition of human recombinant His-tagged c-Met by TR-FRET assay

>  <BAO Format ID>  (30) 
BAO_0000357

>  <BAO Label>  (30) 
single protein format

>  <Assay Organism>  (30) 
Homo sapiens

>  <Target ChEMBL ID>  (30) 
CHEMBL3717

>  <Target Name>  (30) 
Hepatocyte growth factor receptor

>  <Target Organism>  (30) 
Homo sapiens

>  <Target Type>  (30) 
SINGLE PROTEIN

>  <Document ChEMBL ID>  (30) 
CHEMBL1152913

>  <Source Description>  (30) 
Scientific Literature

>  <Document Journal>  (30) 
Bioorg Med Chem Lett

>  <Document Year>  (30) 
2009.0

>  <Active>  (30) 
1.0

>  <bits>  (30) 
<rdkit.DataStructs.cDataStructs.ExplicitBitVect object at 0x000001CFA80353F0>

>  <Group>  (30) 
G1

$$$$

     RDKit          2D

 38 42  0  0  0  0  0  0  0  0999 V2000
  -20.7411   -0.8752    0.0000 C   0  0  0  0  0  0  0  0  0  0  0  0
  -19.6264   -1.8789    0.0000 N   0  0  0  0  0  0  0  0  0  0  0  0
  -18.1998   -1.4153    0.0000 C   0  0  0  0  0  0  0  0  0  0  0  0
  -17.0851   -2.4190    0.0000 C   0  0  0  0  0  0  0  0  0  0  0  0
  -17.3969   -3.8863    0.0000 N   0  0  0  0  0  0  0  0  0  0  0  0
  -16.2822   -4.8900    0.0000 C   0  0  0  0  0  0  0  0  0  0  0  0
  -14.8556   -4.4264    0.0000 C   0  0  0  0  0  0  0  0  0  0  0  0
  -13.7409   -5.4301    0.0000 C   0  0  0  0  0  0  0  0  0  0  0  0
  -12.3143   -4.9666    0.0000 O   0  0  0  0  0  0  0  0  0  0  0  0
  -11.1996   -5.9703    0.0000 C   0  0  0  0  0  0  0  0  0  0  0  0
  -11.5115   -7.4375    0.0000 O   0  0  0  0  0  0  0  0  0  0  0  0
   -9.7730   -5.5068    0.0000 N   0  0  0  0  0  0  0  0  0  0  0  0
   -8.6583   -6.5105    0.0000 C   0  0  0  0  0  0  0  0  0  0  0  0
   -8.9702   -7.9777    0.0000 C   0  0  0  0  0  0  0  0  0  0  0  0
   -7.8555   -8.9814    0.0000 C   0  0  0  0  0  0  0  0  0  0  0  0
   -6.4289   -8.5179    0.0000 C   0  0  0  0  0  0  0  0  0  0  0  0
   -6.1170   -7.0506    0.0000 C   0  0  0  0  0  0  0  0  0  0  0  0
   -4.6904   -6.5871    0.0000 C   0  0  0  0  0  0  0  0  0  0  0  0
   -4.3786   -5.1199    0.0000 N   0  0  0  0  0  0  0  0  0  0  0  0
   -2.9520   -4.6564    0.0000 N   0  0  0  0  0  0  0  0  0  0  0  0
   -2.6401   -3.1891    0.0000 C   0  0  0  0  0  0  0  0  0  0  0  0
   -1.2135   -2.7256    0.0000 N   0  0  0  0  0  0  0  0  0  0  0  0
   -0.0000   -3.6073    0.0000 C   0  0  0  0  0  0  0  0  0  0  0  0
    1.2135   -2.7256    0.0000 C   0  0  0  0  0  0  0  0  0  0  0  0
    0.7500   -1.2990    0.0000 C   0  0  0  0  0  0  0  0  0  0  0  0
    1.5000    0.0000    0.0000 C   0  0  0  0  0  0  0  0  0  0  0  0
    0.7500    1.2990    0.0000 C   0  0  0  0  0  0  0  0  0  0  0  0
   -0.7500    1.2990    0.0000 C   0  0  0  0  0  0  0  0  0  0  0  0
   -1.5000    2.5981    0.0000 F   0  0  0  0  0  0  0  0  0  0  0  0
   -1.5000    0.0000    0.0000 C   0  0  0  0  0  0  0  0  0  0  0  0
   -0.7500   -1.2990    0.0000 C   0  0  0  0  0  0  0  0  0  0  0  0
   -3.7548   -2.1855    0.0000 C   0  0  0  0  0  0  0  0  0  0  0  0
   -5.1814   -2.6490    0.0000 C   0  0  0  0  0  0  0  0  0  0  0  0
   -5.4933   -4.1162    0.0000 C   0  0  0  0  0  0  0  0  0  0  0  0
   -6.9199   -4.5797    0.0000 O   0  0  0  0  0  0  0  0  0  0  0  0
   -7.2317   -6.0469    0.0000 C   0  0  0  0  0  0  0  0  0  0  0  0
  -18.8235   -4.3498    0.0000 C   0  0  0  0  0  0  0  0  0  0  0  0
  -19.9382   -3.3461    0.0000 C   0  0  0  0  0  0  0  0  0  0  0  0
  1  2  1  0
  2  3  1  0
  3  4  1  0
  4  5  1  0
  5  6  1  0
  6  7  1  0
  7  8  1  0
  8  9  1  0
  9 10  1  0
 10 11  2  0
 10 12  1  0
 12 13  1  0
 13 14  2  0
 14 15  1  0
 15 16  2  0
 16 17  1  0
 17 18  1  0
 18 19  1  0
 19 20  1  0
 20 21  2  0
 21 22  1  0
 22 23  1  0
 23 24  2  0
 24 25  1  0
 25 26  2  0
 26 27  1  0
 27 28  2  0
 28 29  1  0
 28 30  1  0
 30 31  2  0
 21 32  1  0
 32 33  2  0
 33 34  1  0
 34 35  2  0
 17 36  2  0
  5 37  1  0
 37 38  1  0
 38  2  1  0
 36 13  1  0
 34 19  1  0
 31 22  1  0
 31 25  1  0
M  END
>  <Compound_ID>  (31) 
CHEMBL3417482

>  <Molecule Name>  (31) 
nan

>  <Molecular Weight>  (31) 
518.59

>  <AlogP>  (31) 
3.56

>  <Smiles>  (31) 
CN1CCN(CCCOC(=O)Nc2cccc(Cn3nc(-n4ccc5ccc(F)cc54)ccc3=O)c2)CC1

>  <Standard Type>  (31) 
IC50

>  <Standard Relation>  (31) 
'='

>  <Standard Units>  (31) 
nM

>  <Standard Value>  (31) 
9.0

>  <Assay ChEMBL ID>  (31) 
CHEMBL3420280

>  <Assay Description>  (31) 
Inhibition of recombinant c-Met (unknown origin) using poly (Glu,Tyr)4:1 substrate incubated for 60 mins by ELISA method

>  <BAO Format ID>  (31) 
BAO_0000357

>  <BAO Label>  (31) 
single protein format

>  <Assay Organism>  (31) 
Homo sapiens

>  <Target ChEMBL ID>  (31) 
CHEMBL3717

>  <Target Name>  (31) 
Hepatocyte growth factor receptor

>  <Target Organism>  (31) 
Homo sapiens

>  <Target Type>  (31) 
SINGLE PROTEIN

>  <Document ChEMBL ID>  (31) 
CHEMBL3414492

>  <Source Description>  (31) 
Scientific Literature

>  <Document Journal>  (31) 
Eur J Med Chem

>  <Document Year>  (31) 
2015.0

>  <Active>  (31) 
1.0

>  <bits>  (31) 
<rdkit.DataStructs.cDataStructs.ExplicitBitVect object at 0x000001CFA8035380>

>  <Group>  (31) 
G1

$$$$

     RDKit          2D

 40 44  0  0  0  0  0  0  0  0999 V2000
    3.7500   -1.2990    0.0000 C   0  0  0  0  0  0  0  0  0  0  0  0
    3.0000    0.0000    0.0000 O   0  0  0  0  0  0  0  0  0  0  0  0
    1.5000    0.0000    0.0000 C   0  0  0  0  0  0  0  0  0  0  0  0
    0.7500   -1.2990    0.0000 C   0  0  0  0  0  0  0  0  0  0  0  0
   -0.7500   -1.2990    0.0000 C   0  0  0  0  0  0  0  0  0  0  0  0
   -1.5000    0.0000    0.0000 C   0  0  0  0  0  0  0  0  0  0  0  0
   -3.0000    0.0000    0.0000 C   0  0  0  0  0  0  0  0  0  0  0  0
   -3.7500   -1.2990    0.0000 O   0  0  0  0  0  0  0  0  0  0  0  0
   -5.2500   -1.2990    0.0000 C   0  0  0  0  0  0  0  0  0  0  0  0
   -6.0000    0.0000    0.0000 C   0  0  0  0  0  0  0  0  0  0  0  0
   -7.5000    0.0000    0.0000 C   0  0  0  0  0  0  0  0  0  0  0  0
   -8.2500   -1.2990    0.0000 C   0  0  0  0  0  0  0  0  0  0  0  0
   -9.7500   -1.2990    0.0000 N   0  0  0  0  0  0  0  0  0  0  0  0
  -10.5000    0.0000    0.0000 C   0  0  0  0  0  0  0  0  0  0  0  0
   -9.7500    1.2990    0.0000 O   0  0  0  0  0  0  0  0  0  0  0  0
  -12.0000    0.0000    0.0000 C   0  0  0  0  0  0  0  0  0  0  0  0
  -12.8817   -1.2135    0.0000 C   0  0  0  0  0  0  0  0  0  0  0  0
  -12.4182   -2.6401    0.0000 C   0  0  0  0  0  0  0  0  0  0  0  0
  -14.3083   -0.7500    0.0000 N   0  0  0  0  0  0  0  0  0  0  0  0
  -15.5218   -1.6317    0.0000 C   0  0  0  0  0  0  0  0  0  0  0  0
  -15.3650   -3.1235    0.0000 C   0  0  0  0  0  0  0  0  0  0  0  0
  -16.5785   -4.0051    0.0000 C   0  0  0  0  0  0  0  0  0  0  0  0
  -13.9947   -3.7336    0.0000 O   0  0  0  0  0  0  0  0  0  0  0  0
  -14.3083    0.7500    0.0000 N   0  0  0  0  0  0  0  0  0  0  0  0
  -15.5218    1.6317    0.0000 C   0  0  0  0  0  0  0  0  0  0  0  0
  -15.3650    3.1235    0.0000 C   0  0  0  0  0  0  0  0  0  0  0  0
  -16.5785    4.0051    0.0000 C   0  0  0  0  0  0  0  0  0  0  0  0
  -17.9488    3.3950    0.0000 C   0  0  0  0  0  0  0  0  0  0  0  0
  -18.1056    1.9033    0.0000 C   0  0  0  0  0  0  0  0  0  0  0  0
  -16.8921    1.0216    0.0000 C   0  0  0  0  0  0  0  0  0  0  0  0
  -12.8817    1.2135    0.0000 C   0  0  0  0  0  0  0  0  0  0  0  0
  -12.4182    2.6401    0.0000 O   0  0  0  0  0  0  0  0  0  0  0  0
   -7.5000   -2.5981    0.0000 C   0  0  0  0  0  0  0  0  0  0  0  0
   -6.0000   -2.5981    0.0000 C   0  0  0  0  0  0  0  0  0  0  0  0
   -5.2500   -3.8971    0.0000 F   0  0  0  0  0  0  0  0  0  0  0  0
   -3.7500    1.2990    0.0000 C   0  0  0  0  0  0  0  0  0  0  0  0
   -3.0000    2.5981    0.0000 C   0  0  0  0  0  0  0  0  0  0  0  0
   -1.5000    2.5981    0.0000 N   0  0  0  0  0  0  0  0  0  0  0  0
   -0.7500    1.2990    0.0000 C   0  0  0  0  0  0  0  0  0  0  0  0
    0.7500    1.2990    0.0000 C   0  0  0  0  0  0  0  0  0  0  0  0
  1  2  1  0
  2  3  1  0
  3  4  2  0
  4  5  1  0
  5  6  2  0
  6  7  1  0
  7  8  1  0
  8  9  1  0
  9 10  2  0
 10 11  1  0
 11 12  2  0
 12 13  1  0
 13 14  1  0
 14 15  2  0
 14 16  1  0
 16 17  2  0
 17 18  1  0
 17 19  1  0
 19 20  1  0
 20 21  1  0
 21 22  1  0
 21 23  1  0
 19 24  1  0
 24 25  1  0
 25 26  2  0
 26 27  1  0
 27 28  2  0
 28 29  1  0
 29 30  2  0
 24 31  1  0
 31 32  2  0
 12 33  1  0
 33 34  2  0
 34 35  1  0
  7 36  2  0
 36 37  1  0
 37 38  2  0
 38 39  1  0
 39 40  2  0
 40  3  1  0
 39  6  1  0
 34  9  1  0
 31 16  1  0
 30 25  1  0
M  END
>  <Compound_ID>  (32) 
CHEMBL2032028

>  <Molecule Name>  (32) 
nan

>  <Molecular Weight>  (32) 
542.57

>  <AlogP>  (32) 
5.07

>  <Smiles>  (32) 
COc1ccc2c(Oc3ccc(NC(=O)c4c(C)n(CC(C)O)n(-c5ccccc5)c4=O)cc3F)ccnc2c1

>  <Standard Type>  (32) 
Ki

>  <Standard Relation>  (32) 
'='

>  <Standard Units>  (32) 
nM

>  <Standard Value>  (32) 
1.9

>  <Assay ChEMBL ID>  (32) 
CHEMBL2034704

>  <Assay Description>  (32) 
Inhibition of c-Met by HTRF assay

>  <BAO Format ID>  (32) 
BAO_0000357

>  <BAO Label>  (32) 
single protein format

>  <Assay Organism>  (32) 
None

>  <Target ChEMBL ID>  (32) 
CHEMBL3717

>  <Target Name>  (32) 
Hepatocyte growth factor receptor

>  <Target Organism>  (32) 
Homo sapiens

>  <Target Type>  (32) 
SINGLE PROTEIN

>  <Document ChEMBL ID>  (32) 
CHEMBL2029218

>  <Source Description>  (32) 
Scientific Literature

>  <Document Journal>  (32) 
J Med Chem

>  <Document Year>  (32) 
2012.0

>  <Active>  (32) 
1.0

>  <bits>  (32) 
<rdkit.DataStructs.cDataStructs.ExplicitBitVect object at 0x000001CFA8035310>

>  <Group>  (32) 
G1

$$$$

     RDKit          2D

 31 35  0  0  0  0  0  0  0  0999 V2000
    3.7500   -1.2990    0.0000 C   0  0  0  0  0  0  0  0  0  0  0  0
    3.0000    0.0000    0.0000 O   0  0  0  0  0  0  0  0  0  0  0  0
    1.5000    0.0000    0.0000 C   0  0  0  0  0  0  0  0  0  0  0  0
    0.7500   -1.2990    0.0000 C   0  0  0  0  0  0  0  0  0  0  0  0
   -0.7500   -1.2990    0.0000 N   0  0  0  0  0  0  0  0  0  0  0  0
   -1.5000    0.0000    0.0000 C   0  0  0  0  0  0  0  0  0  0  0  0
   -3.0000    0.0000    0.0000 C   0  0  0  0  0  0  0  0  0  0  0  0
   -3.7500    1.2990    0.0000 C   0  0  0  0  0  0  0  0  0  0  0  0
   -3.0000    2.5981    0.0000 C   0  0  0  0  0  0  0  0  0  0  0  0
   -3.7500    3.8971    0.0000 C   0  0  0  0  0  0  0  0  0  0  0  0
   -3.0000    5.1962    0.0000 N   0  0  0  0  0  0  0  0  0  0  0  0
   -1.5082    5.3529    0.0000 N   0  0  0  0  0  0  0  0  0  0  0  0
   -1.1963    6.8202    0.0000 N   0  0  0  0  0  0  0  0  0  0  0  0
   -2.4954    7.5702    0.0000 C   0  0  0  0  0  0  0  0  0  0  0  0
   -2.8073    9.0374    0.0000 C   0  0  0  0  0  0  0  0  0  0  0  0
   -4.2338    9.5009    0.0000 C   0  0  0  0  0  0  0  0  0  0  0  0
   -5.3486    8.4972    0.0000 N   0  0  0  0  0  0  0  0  0  0  0  0
   -6.7751    8.9607    0.0000 C   0  0  0  0  0  0  0  0  0  0  0  0
   -7.0870   10.4280    0.0000 C   0  0  0  0  0  0  0  0  0  0  0  0
   -8.5136   10.8915    0.0000 C   0  0  0  0  0  0  0  0  0  0  0  0
   -8.8255   12.3587    0.0000 F   0  0  0  0  0  0  0  0  0  0  0  0
   -9.6283    9.8878    0.0000 C   0  0  0  0  0  0  0  0  0  0  0  0
   -9.3164    8.4206    0.0000 C   0  0  0  0  0  0  0  0  0  0  0  0
  -10.4312    7.4169    0.0000 F   0  0  0  0  0  0  0  0  0  0  0  0
   -7.8899    7.9570    0.0000 C   0  0  0  0  0  0  0  0  0  0  0  0
   -5.0367    7.0300    0.0000 C   0  0  0  0  0  0  0  0  0  0  0  0
   -6.1514    6.0263    0.0000 O   0  0  0  0  0  0  0  0  0  0  0  0
   -3.6101    6.5665    0.0000 C   0  0  0  0  0  0  0  0  0  0  0  0
   -1.5000    2.5981    0.0000 C   0  0  0  0  0  0  0  0  0  0  0  0
   -0.7500    1.2990    0.0000 C   0  0  0  0  0  0  0  0  0  0  0  0
    0.7500    1.2990    0.0000 C   0  0  0  0  0  0  0  0  0  0  0  0
  1  2  1  0
  2  3  1  0
  3  4  2  0
  4  5  1  0
  5  6  2  0
  6  7  1  0
  7  8  2  0
  8  9  1  0
  9 10  1  0
 10 11  1  0
 11 12  1  0
 12 13  2  0
 13 14  1  0
 14 15  1  0
 15 16  2  0
 16 17  1  0
 17 18  1  0
 18 19  2  0
 19 20  1  0
 20 21  1  0
 20 22  2  0
 22 23  1  0
 23 24  1  0
 23 25  2  0
 17 26  1  0
 26 27  2  0
 26 28  1  0
  9 29  2  0
 29 30  1  0
 30 31  2  0
 31  3  1  0
 30  6  1  0
 28 11  1  0
 28 14  2  0
 25 18  1  0
M  END
>  <Compound_ID>  (33) 
CHEMBL2029684

>  <Molecule Name>  (33) 
nan

>  <Molecular Weight>  (33) 
419.39

>  <AlogP>  (33) 
3.47

>  <Smiles>  (33) 
COc1cnc2ccc(Cn3nnc4ccn(-c5cc(F)cc(F)c5)c(=O)c43)cc2c1

>  <Standard Type>  (33) 
IC50

>  <Standard Relation>  (33) 
'='

>  <Standard Units>  (33) 
nM

>  <Standard Value>  (33) 
12.0

>  <Assay ChEMBL ID>  (33) 
CHEMBL2034583

>  <Assay Description>  (33) 
Inhibition of c-Met

>  <BAO Format ID>  (33) 
BAO_0000357

>  <BAO Label>  (33) 
single protein format

>  <Assay Organism>  (33) 
None

>  <Target ChEMBL ID>  (33) 
CHEMBL3717

>  <Target Name>  (33) 
Hepatocyte growth factor receptor

>  <Target Organism>  (33) 
Homo sapiens

>  <Target Type>  (33) 
SINGLE PROTEIN

>  <Document ChEMBL ID>  (33) 
CHEMBL2029295

>  <Source Description>  (33) 
Scientific Literature

>  <Document Journal>  (33) 
Bioorg Med Chem Lett

>  <Document Year>  (33) 
2012.0

>  <Active>  (33) 
1.0

>  <bits>  (33) 
<rdkit.DataStructs.cDataStructs.ExplicitBitVect object at 0x000001CFA80352A0>

>  <Group>  (33) 
G1

$$$$

     RDKit          2D

 32 35  0  0  0  0  0  0  0  0999 V2000
    3.7500   -6.4952    0.0000 C   0  0  0  0  0  0  0  0  0  0  0  0
    3.0000   -5.1962    0.0000 N   0  0  0  0  0  0  0  0  0  0  0  0
    1.5000   -5.1962    0.0000 C   0  0  0  0  0  0  0  0  0  0  0  0
    0.7500   -3.8971    0.0000 C   0  0  0  0  0  0  0  0  0  0  0  0
    1.5000   -2.5981    0.0000 N   0  0  0  0  0  0  0  0  0  0  0  0
    0.7500   -1.2990    0.0000 C   0  0  0  0  0  0  0  0  0  0  0  0
    1.5000    0.0000    0.0000 C   0  0  0  0  0  0  0  0  0  0  0  0
    0.7500    1.2990    0.0000 N   0  0  0  0  0  0  0  0  0  0  0  0
   -0.7500    1.2990    0.0000 C   0  0  0  0  0  0  0  0  0  0  0  0
   -1.5000    2.5981    0.0000 C   0  0  0  0  0  0  0  0  0  0  0  0
   -3.0000    2.5981    0.0000 C   0  0  0  0  0  0  0  0  0  0  0  0
   -3.7500    3.8971    0.0000 C   0  0  0  0  0  0  0  0  0  0  0  0
   -4.5000    5.1962    0.0000 F   0  0  0  0  0  0  0  0  0  0  0  0
   -2.4510    4.6471    0.0000 F   0  0  0  0  0  0  0  0  0  0  0  0
   -5.0490    3.1471    0.0000 F   0  0  0  0  0  0  0  0  0  0  0  0
   -3.7500    1.2990    0.0000 C   0  0  0  0  0  0  0  0  0  0  0  0
   -3.0000    0.0000    0.0000 C   0  0  0  0  0  0  0  0  0  0  0  0
   -3.7500   -1.2990    0.0000 O   0  0  0  0  0  0  0  0  0  0  0  0
   -5.2500   -1.2990    0.0000 C   0  0  0  0  0  0  0  0  0  0  0  0
   -6.0000   -2.5981    0.0000 C   0  0  0  0  0  0  0  0  0  0  0  0
   -7.5000   -2.5981    0.0000 C   0  0  0  0  0  0  0  0  0  0  0  0
   -8.2500   -3.8971    0.0000 C   0  0  0  0  0  0  0  0  0  0  0  0
   -7.5000   -5.1962    0.0000 C   0  0  0  0  0  0  0  0  0  0  0  0
   -6.0000   -5.1962    0.0000 C   0  0  0  0  0  0  0  0  0  0  0  0
   -5.2500   -6.4952    0.0000 N   0  0  0  0  0  4  0  0  0  0  0  0
   -3.7500   -6.4952    0.0000 O   0  0  0  0  0  0  0  0  0  0  0  0
   -6.0000   -7.7942    0.0000 O   0  0  0  0  0  1  0  0  0  0  0  0
   -5.2500   -3.8971    0.0000 C   0  0  0  0  0  0  0  0  0  0  0  0
   -1.5000    0.0000    0.0000 C   0  0  0  0  0  0  0  0  0  0  0  0
   -0.7500   -1.2990    0.0000 C   0  0  0  0  0  0  0  0  0  0  0  0
    3.0000   -2.5981    0.0000 C   0  0  0  0  0  0  0  0  0  0  0  0
    3.7500   -3.8971    0.0000 C   0  0  0  0  0  0  0  0  0  0  0  0
  1  2  1  0
  2  3  1  0
  3  4  1  0
  4  5  1  0
  5  6  1  0
  6  7  2  0
  7  8  1  0
  8  9  2  0
  9 10  1  0
 10 11  2  0
 11 12  1  0
 12 13  1  0
 12 14  1  0
 12 15  1  0
 11 16  1  0
 16 17  2  0
 17 18  1  0
 18 19  1  0
 19 20  1  0
 20 21  2  0
 21 22  1  0
 22 23  2  0
 23 24  1  0
 24 25  1  0
 25 26  2  0
 25 27  1  0
 24 28  2  0
 17 29  1  0
 29 30  2  0
  5 31  1  0
 31 32  1  0
 32  2  1  0
 30  6  1  0
 29  9  1  0
 28 20  1  0
M  CHG  2  25   1  27  -1
M  END
>  <Compound_ID>  (34) 
CHEMBL1766541

>  <Molecule Name>  (34) 
nan

>  <Molecular Weight>  (34) 
446.43

>  <AlogP>  (34) 
4.49

>  <Smiles>  (34) 
CN1CCN(c2cnc3cc(C(F)(F)F)cc(OCc4cccc([N+](=O)[O-])c4)c3c2)CC1

>  <Standard Type>  (34) 
IC50

>  <Standard Relation>  (34) 
'='

>  <Standard Units>  (34) 
nM

>  <Standard Value>  (34) 
2.7

>  <Assay ChEMBL ID>  (34) 
CHEMBL1768668

>  <Assay Description>  (34) 
Inhibition of purified recombinant c-Met after 60 mins by ELISA

>  <BAO Format ID>  (34) 
BAO_0000357

>  <BAO Label>  (34) 
single protein format

>  <Assay Organism>  (34) 
None

>  <Target ChEMBL ID>  (34) 
CHEMBL3717

>  <Target Name>  (34) 
Hepatocyte growth factor receptor

>  <Target Organism>  (34) 
Homo sapiens

>  <Target Type>  (34) 
SINGLE PROTEIN

>  <Document ChEMBL ID>  (34) 
CHEMBL1765011

>  <Source Description>  (34) 
Scientific Literature

>  <Document Journal>  (34) 
J Med Chem

>  <Document Year>  (34) 
2011.0

>  <Active>  (34) 
1.0

>  <bits>  (34) 
<rdkit.DataStructs.cDataStructs.ExplicitBitVect object at 0x000001CFA8035230>

>  <Group>  (34) 
G1

$$$$

     RDKit          2D

 31 35  0  0  0  0  0  0  0  0999 V2000
    3.0000    0.0000    0.0000 O   0  0  0  0  0  0  0  0  0  0  0  0
    1.5000    0.0000    0.0000 C   0  0  0  0  0  0  0  0  0  0  0  0
    0.7500   -1.2990    0.0000 N   0  0  0  0  0  0  0  0  0  0  0  0
   -0.7500   -1.2990    0.0000 C   0  0  0  0  0  0  0  0  0  0  0  0
   -1.5000    0.0000    0.0000 N   0  0  0  0  0  0  0  0  0  0  0  0
   -0.7500    1.2990    0.0000 C   0  0  0  0  0  0  0  0  0  0  0  0
   -1.2135    2.7256    0.0000 N   0  0  0  0  0  0  0  0  0  0  0  0
   -0.0000    3.6073    0.0000 C   0  0  0  0  0  0  0  0  0  0  0  0
   -0.0000    5.1073    0.0000 C   0  0  0  0  0  0  0  0  0  0  0  0
    1.2990    5.8573    0.0000 C   0  0  0  0  0  0  0  0  0  0  0  0
    1.2990    7.3573    0.0000 C   0  0  0  0  0  0  0  0  0  0  0  0
   -0.0000    8.1073    0.0000 N   0  0  0  0  0  0  0  0  0  0  0  0
   -1.2990    7.3573    0.0000 C   0  0  0  0  0  0  0  0  0  0  0  0
   -2.5981    8.1073    0.0000 C   0  0  0  0  0  0  0  0  0  0  0  0
   -2.5981    9.6073    0.0000 C   0  0  0  0  0  0  0  0  0  0  0  0
   -3.8971   10.3573    0.0000 C   0  0  0  0  0  0  0  0  0  0  0  0
   -3.8971   11.8573    0.0000 C   0  0  0  0  0  0  0  0  0  0  0  0
   -5.1962   12.6073    0.0000 C   0  0  0  0  0  0  0  0  0  0  0  0
   -6.4952   11.8573    0.0000 C   0  0  0  0  0  0  0  0  0  0  0  0
   -7.7942   12.6073    0.0000 C   0  0  0  0  0  0  0  0  0  0  0  0
   -7.7942   14.1073    0.0000 N   0  0  0  0  0  0  0  0  0  0  0  0
   -6.4952   14.8573    0.0000 C   0  0  0  0  0  0  0  0  0  0  0  0
   -6.4952   16.3573    0.0000 C   0  0  0  0  0  0  0  0  0  0  0  0
   -7.7942   17.1073    0.0000 O   0  0  0  0  0  0  0  0  0  0  0  0
   -9.0933   16.3573    0.0000 C   0  0  0  0  0  0  0  0  0  0  0  0
   -9.0933   14.8573    0.0000 C   0  0  0  0  0  0  0  0  0  0  0  0
   -6.4952   10.3573    0.0000 C   0  0  0  0  0  0  0  0  0  0  0  0
   -5.1962    9.6073    0.0000 C   0  0  0  0  0  0  0  0  0  0  0  0
   -1.2990    5.8573    0.0000 C   0  0  0  0  0  0  0  0  0  0  0  0
    1.2135    2.7256    0.0000 C   0  0  0  0  0  0  0  0  0  0  0  0
    0.7500    1.2990    0.0000 C   0  0  0  0  0  0  0  0  0  0  0  0
  1  2  2  0
  2  3  1  0
  3  4  1  0
  4  5  2  0
  5  6  1  0
  6  7  1  0
  7  8  1  0
  8  9  1  0
  9 10  2  0
 10 11  1  0
 11 12  2  0
 12 13  1  0
 13 14  1  0
 14 15  2  0
 15 16  1  0
 16 17  2  0
 17 18  1  0
 18 19  2  0
 19 20  1  0
 20 21  1  0
 21 22  1  0
 22 23  1  0
 23 24  1  0
 24 25  1  0
 25 26  1  0
 19 27  1  0
 27 28  2  0
 13 29  2  0
  8 30  2  0
 30 31  1  0
 31  2  1  0
 31  6  2  0
 29  9  1  0
 28 16  1  0
 26 21  1  0
M  END
>  <Compound_ID>  (35) 
CHEMBL461139

>  <Molecule Name>  (35) 
nan

>  <Molecular Weight>  (35) 
413.48

>  <AlogP>  (35) 
3.32

>  <Smiles>  (35) 
O=c1[nH]cnc2[nH]c(-c3ccnc(/C=C/c4ccc(CN5CCOCC5)cc4)c3)cc12

>  <Standard Type>  (35) 
IC50

>  <Standard Relation>  (35) 
'='

>  <Standard Units>  (35) 
nM

>  <Standard Value>  (35) 
85.0

>  <Assay ChEMBL ID>  (35) 
CHEMBL956584

>  <Assay Description>  (35) 
Inhibition of c-Met

>  <BAO Format ID>  (35) 
BAO_0000357

>  <BAO Label>  (35) 
single protein format

>  <Assay Organism>  (35) 
None

>  <Target ChEMBL ID>  (35) 
CHEMBL3717

>  <Target Name>  (35) 
Hepatocyte growth factor receptor

>  <Target Organism>  (35) 
Homo sapiens

>  <Target Type>  (35) 
SINGLE PROTEIN

>  <Document ChEMBL ID>  (35) 
CHEMBL1152141

>  <Source Description>  (35) 
Scientific Literature

>  <Document Journal>  (35) 
Bioorg Med Chem Lett

>  <Document Year>  (35) 
2008.0

>  <Active>  (35) 
1.0

>  <bits>  (35) 
<rdkit.DataStructs.cDataStructs.ExplicitBitVect object at 0x000001CFA80351C0>

>  <Group>  (35) 
G1

$$$$

     RDKit          2D

 37 40  0  0  0  0  0  0  0  0999 V2000
   -3.7500    3.8971    0.0000 C   0  0  0  0  0  0  0  0  0  0  0  0
   -2.2500    3.8971    0.0000 C   0  0  0  0  0  0  0  0  0  0  0  0
   -1.5000    5.1962    0.0000 C   0  0  0  0  0  0  0  0  0  0  0  0
   -1.5000    2.5981    0.0000 S   0  0  0  0  0  0  0  0  0  0  0  0
   -0.2010    3.3481    0.0000 O   0  0  0  0  0  0  0  0  0  0  0  0
   -2.7990    1.8481    0.0000 O   0  0  0  0  0  0  0  0  0  0  0  0
   -0.7500    1.2990    0.0000 C   0  0  0  0  0  0  0  0  0  0  0  0
   -1.5000   -0.0000    0.0000 C   0  0  0  0  0  0  0  0  0  0  0  0
   -0.7500   -1.2990    0.0000 C   0  0  0  0  0  0  0  0  0  0  0  0
    0.7500   -1.2990    0.0000 C   0  0  0  0  0  0  0  0  0  0  0  0
    1.5000   -0.0000    0.0000 C   0  0  0  0  0  0  0  0  0  0  0  0
    0.7500    1.2990    0.0000 C   0  0  0  0  0  0  0  0  0  0  0  0
    1.5000    2.5981    0.0000 N   0  0  0  0  0  0  0  0  0  0  0  0
    3.0000    2.5981    0.0000 C   0  0  0  0  0  0  0  0  0  0  0  0
    3.7500    1.2990    0.0000 N   0  0  0  0  0  0  0  0  0  0  0  0
    5.2500    1.2990    0.0000 C   0  0  0  0  0  0  0  0  0  0  0  0
    6.0000   -0.0000    0.0000 N   0  0  0  0  0  0  0  0  0  0  0  0
    7.5000   -0.0000    0.0000 C   0  0  0  0  0  0  0  0  0  0  0  0
    8.2500   -1.2990    0.0000 C   0  0  0  0  0  0  0  0  0  0  0  0
    9.7500   -1.2990    0.0000 C   0  0  0  0  0  0  0  0  0  0  0  0
   10.5000   -0.0000    0.0000 C   0  0  0  0  0  0  0  0  0  0  0  0
    9.7500    1.2990    0.0000 C   0  0  0  0  0  0  0  0  0  0  0  0
   10.5000    2.5981    0.0000 N   0  0  0  0  0  0  0  0  0  0  0  0
   12.0000    2.5981    0.0000 C   0  0  0  0  0  0  0  0  0  0  0  0
   12.7500    1.2990    0.0000 O   0  0  0  0  0  0  0  0  0  0  0  0
   12.7500    3.8971    0.0000 C   0  0  0  0  0  0  0  0  0  0  0  0
   14.2500    3.8971    0.0000 N   0  0  0  0  0  0  0  0  0  0  0  0
   15.0000    2.5981    0.0000 C   0  0  0  0  0  0  0  0  0  0  0  0
   16.5000    2.5981    0.0000 C   0  0  0  0  0  0  0  0  0  0  0  0
   17.2500    3.8971    0.0000 N   0  0  0  0  0  0  0  0  0  0  0  0
   16.5000    5.1962    0.0000 C   0  0  0  0  0  0  0  0  0  0  0  0
   15.0000    5.1962    0.0000 C   0  0  0  0  0  0  0  0  0  0  0  0
    8.2500    1.2990    0.0000 C   0  0  0  0  0  0  0  0  0  0  0  0
    6.0000    2.5981    0.0000 N   0  0  0  0  0  0  0  0  0  0  0  0
    5.2500    3.8971    0.0000 C   0  0  0  0  0  0  0  0  0  0  0  0
    3.7500    3.8971    0.0000 C   0  0  0  0  0  0  0  0  0  0  0  0
    3.0000    5.1962    0.0000 Cl  0  0  0  0  0  0  0  0  0  0  0  0
  1  2  1  0
  2  3  1  0
  2  4  1  0
  4  5  2  0
  4  6  2  0
  4  7  1  0
  7  8  2  0
  8  9  1  0
  9 10  2  0
 10 11  1  0
 11 12  2  0
 12 13  1  0
 13 14  1  0
 14 15  2  0
 15 16  1  0
 16 17  1  0
 17 18  1  0
 18 19  2  0
 19 20  1  0
 20 21  2  0
 21 22  1  0
 22 23  1  0
 23 24  1  0
 24 25  2  0
 24 26  1  0
 26 27  1  0
 27 28  1  0
 28 29  1  0
 29 30  1  0
 30 31  1  0
 31 32  1  0
 22 33  2  0
 16 34  2  0
 34 35  1  0
 35 36  2  0
 36 37  1  0
 12  7  1  0
 36 14  1  0
 33 18  1  0
 32 27  1  0
M  END
>  <Compound_ID>  (36) 
CHEMBL3357455

>  <Molecule Name>  (36) 
nan

>  <Molecular Weight>  (36) 
544.08

>  <AlogP>  (36) 
3.64

>  <Smiles>  (36) 
CC(C)S(=O)(=O)c1ccccc1Nc1nc(Nc2cccc(NC(=O)CN3CCNCC3)c2)ncc1Cl

>  <Standard Type>  (36) 
IC50

>  <Standard Relation>  (36) 
'='

>  <Standard Units>  (36) 
nM

>  <Standard Value>  (36) 
31.7

>  <Assay ChEMBL ID>  (36) 
CHEMBL3364271

>  <Assay Description>  (36) 
Inhibition of c-Met kinase (unknown origin) after 60 mins by ELISA

>  <BAO Format ID>  (36) 
BAO_0000357

>  <BAO Label>  (36) 
single protein format

>  <Assay Organism>  (36) 
Homo sapiens

>  <Target ChEMBL ID>  (36) 
CHEMBL3717

>  <Target Name>  (36) 
Hepatocyte growth factor receptor

>  <Target Organism>  (36) 
Homo sapiens

>  <Target Type>  (36) 
SINGLE PROTEIN

>  <Document ChEMBL ID>  (36) 
CHEMBL3351234

>  <Source Description>  (36) 
Scientific Literature

>  <Document Journal>  (36) 
J Med Chem

>  <Document Year>  (36) 
2015.0

>  <Active>  (36) 
1.0

>  <bits>  (36) 
<rdkit.DataStructs.cDataStructs.ExplicitBitVect object at 0x000001CFA8035150>

>  <Group>  (36) 
G1

$$$$

     RDKit          2D

 32 35  0  0  0  0  0  0  0  0999 V2000
    3.0000   -5.1962    0.0000 C   0  0  0  0  0  0  0  0  0  0  0  0
    1.5000   -5.1962    0.0000 C   0  0  0  0  0  0  0  0  0  0  0  0
    0.7500   -3.8971    0.0000 N   0  0  0  0  0  0  0  0  0  0  0  0
    1.5000   -2.5981    0.0000 C   0  0  0  0  0  0  0  0  0  0  0  0
    3.0000   -2.5981    0.0000 O   0  0  0  0  0  0  0  0  0  0  0  0
    0.7500   -1.2990    0.0000 C   0  0  0  0  0  0  0  0  0  0  0  0
    1.5000    0.0000    0.0000 C   0  0  0  0  0  0  0  0  0  0  0  0
    0.7500    1.2990    0.0000 C   0  0  0  0  0  0  0  0  0  0  0  0
    1.5000    2.5981    0.0000 C   0  0  0  0  0  0  0  0  0  0  0  0
    0.8899    3.9684    0.0000 C   0  0  0  0  0  0  0  0  0  0  0  0
    2.0046    4.9721    0.0000 N   0  0  0  0  0  0  0  0  0  0  0  0
    3.3037    4.2221    0.0000 N   0  0  0  0  0  0  0  0  0  0  0  0
    4.6740    4.8322    0.0000 C   0  0  0  0  0  0  0  0  0  0  0  0
    5.8875    3.9505    0.0000 C   0  0  0  0  0  0  0  0  0  0  0  0
    7.2578    4.5606    0.0000 C   0  0  0  0  0  0  0  0  0  0  0  0
    7.4146    6.0524    0.0000 O   0  0  0  0  0  0  0  0  0  0  0  0
    6.2011    6.9341    0.0000 C   0  0  0  0  0  0  0  0  0  0  0  0
    4.8308    6.3240    0.0000 C   0  0  0  0  0  0  0  0  0  0  0  0
    2.9918    2.7549    0.0000 C   0  0  0  0  0  0  0  0  0  0  0  0
   -0.7500    1.2990    0.0000 C   0  0  0  0  0  0  0  0  0  0  0  0
   -1.5000    0.0000    0.0000 N   0  0  0  0  0  0  0  0  0  0  0  0
   -0.7500   -1.2990    0.0000 C   0  0  0  0  0  0  0  0  0  0  0  0
   -1.5000   -2.5981    0.0000 N   0  0  0  0  0  0  0  0  0  0  0  0
    0.7500   -6.4952    0.0000 C   0  0  0  0  0  0  0  0  0  0  0  0
   -0.7500   -6.4952    0.0000 C   0  0  0  0  0  0  0  0  0  0  0  0
   -1.5000   -5.1962    0.0000 Cl  0  0  0  0  0  0  0  0  0  0  0  0
   -1.5000   -7.7942    0.0000 C   0  0  0  0  0  0  0  0  0  0  0  0
   -0.7500   -9.0933    0.0000 C   0  0  0  0  0  0  0  0  0  0  0  0
    0.7500   -9.0933    0.0000 C   0  0  0  0  0  0  0  0  0  0  0  0
    1.5000  -10.3923    0.0000 F   0  0  0  0  0  0  0  0  0  0  0  0
    1.5000   -7.7942    0.0000 C   0  0  0  0  0  0  0  0  0  0  0  0
    3.0000   -7.7942    0.0000 Cl  0  0  0  0  0  0  0  0  0  0  0  0
  2  1  1  1
  2  3  1  0
  3  4  1  0
  4  5  2  0
  4  6  1  0
  6  7  2  0
  7  8  1  0
  8  9  1  0
  9 10  1  0
 10 11  2  0
 11 12  1  0
 12 13  1  0
 13 14  1  0
 14 15  1  0
 15 16  1  0
 16 17  1  0
 17 18  1  0
 12 19  1  0
  8 20  2  0
 20 21  1  0
 21 22  2  0
 22 23  1  0
  2 24  1  0
 24 25  2  0
 25 26  1  0
 25 27  1  0
 27 28  2  0
 28 29  1  0
 29 30  1  0
 29 31  2  0
 31 32  1  0
 22  6  1  0
 31 24  1  0
 19  9  2  0
 18 13  1  0
M  END
>  <Compound_ID>  (37) 
CHEMBL2071457

>  <Molecule Name>  (37) 
nan

>  <Molecular Weight>  (37) 
478.36

>  <AlogP>  (37) 
4.82

>  <Smiles>  (37) 
C[C@H](NC(=O)c1cc(-c2cnn(C3CCOCC3)c2)cnc1N)c1c(Cl)ccc(F)c1Cl

>  <Standard Type>  (37) 
IC50

>  <Standard Relation>  (37) 
'='

>  <Standard Units>  (37) 
nM

>  <Standard Value>  (37) 
22.0

>  <Assay ChEMBL ID>  (37) 
CHEMBL2072589

>  <Assay Description>  (37) 
Inhibition of c-Met incubated for 60 mins at spectrophotometry

>  <BAO Format ID>  (37) 
BAO_0000357

>  <BAO Label>  (37) 
single protein format

>  <Assay Organism>  (37) 
Homo sapiens

>  <Target ChEMBL ID>  (37) 
CHEMBL3717

>  <Target Name>  (37) 
Hepatocyte growth factor receptor

>  <Target Organism>  (37) 
Homo sapiens

>  <Target Type>  (37) 
SINGLE PROTEIN

>  <Document ChEMBL ID>  (37) 
CHEMBL2069216

>  <Source Description>  (37) 
Scientific Literature

>  <Document Journal>  (37) 
Bioorg Med Chem

>  <Document Year>  (37) 
2012.0

>  <Active>  (37) 
1.0

>  <bits>  (37) 
<rdkit.DataStructs.cDataStructs.ExplicitBitVect object at 0x000001CFA80350E0>

>  <Group>  (37) 
G1

$$$$

     RDKit          2D

 27 31  0  0  0  0  0  0  0  0999 V2000
   -2.0444  -13.4534    0.0000 C   0  0  0  0  0  0  0  0  0  0  0  0
   -3.1591  -12.4497    0.0000 N   0  0  0  0  0  0  0  0  0  0  0  0
   -3.0023  -10.9579    0.0000 C   0  0  0  0  0  0  0  0  0  0  0  0
   -4.3727  -10.3478    0.0000 C   0  0  0  0  0  0  0  0  0  0  0  0
   -4.6845   -8.8806    0.0000 C   0  0  0  0  0  0  0  0  0  0  0  0
   -6.1111   -8.4171    0.0000 C   0  0  0  0  0  0  0  0  0  0  0  0
   -6.4230   -6.9498    0.0000 C   0  0  0  0  0  0  0  0  0  0  0  0
   -7.8496   -6.4863    0.0000 F   0  0  0  0  0  0  0  0  0  0  0  0
   -5.3083   -5.9462    0.0000 C   0  0  0  0  0  0  0  0  0  0  0  0
   -5.3083   -4.4462    0.0000 N   0  0  0  0  0  0  0  0  0  0  0  0
   -3.8817   -3.9826    0.0000 N   0  0  0  0  0  0  0  0  0  0  0  0
   -3.0000   -5.1962    0.0000 C   0  0  0  0  0  0  0  0  0  0  0  0
   -1.5000   -5.1962    0.0000 C   0  0  0  0  0  0  0  0  0  0  0  0
   -0.7500   -3.8971    0.0000 C   0  0  0  0  0  0  0  0  0  0  0  0
    0.7500   -3.8971    0.0000 C   0  0  0  0  0  0  0  0  0  0  0  0
    1.5000   -2.5981    0.0000 C   0  0  0  0  0  0  0  0  0  0  0  0
    0.7500   -1.2990    0.0000 C   0  0  0  0  0  0  0  0  0  0  0  0
    1.5000    0.0000    0.0000 N   0  0  0  0  0  0  0  0  0  0  0  0
    0.7500    1.2990    0.0000 C   0  0  0  0  0  0  0  0  0  0  0  0
   -0.7500    1.2990    0.0000 C   0  0  0  0  0  0  0  0  0  0  0  0
   -1.5000    0.0000    0.0000 C   0  0  0  0  0  0  0  0  0  0  0  0
   -0.7500   -1.2990    0.0000 C   0  0  0  0  0  0  0  0  0  0  0  0
   -1.5000   -2.5981    0.0000 C   0  0  0  0  0  0  0  0  0  0  0  0
   -3.8817   -6.4097    0.0000 N   0  0  0  0  0  0  0  0  0  0  0  0
   -3.5698   -7.8769    0.0000 C   0  0  0  0  0  0  0  0  0  0  0  0
   -5.3764  -11.4625    0.0000 C   0  0  0  0  0  0  0  0  0  0  0  0
   -4.6264  -12.7616    0.0000 N   0  0  0  0  0  0  0  0  0  0  0  0
  1  2  1  0
  2  3  1  0
  3  4  2  0
  4  5  1  0
  5  6  1  0
  6  7  2  0
  7  8  1  0
  7  9  1  0
  9 10  2  0
 10 11  1  0
 11 12  2  0
 12 13  1  0
 13 14  1  0
 14 15  2  0
 15 16  1  0
 16 17  2  0
 17 18  1  0
 18 19  2  0
 19 20  1  0
 20 21  2  0
 21 22  1  0
 22 23  2  0
 12 24  1  0
 24 25  1  0
  4 26  1  0
 26 27  2  0
 27  2  1  0
 25  5  2  0
 24  9  1  0
 23 14  1  0
 22 17  1  0
M  END
>  <Compound_ID>  (38) 
CHEMBL3414741

>  <Molecule Name>  (38) 
nan

>  <Molecular Weight>  (38) 
358.38

>  <AlogP>  (38) 
3.41

>  <Smiles>  (38) 
Cn1cc(-c2cc(F)c3nnc(Cc4ccc5ncccc5c4)n3c2)cn1

>  <Standard Type>  (38) 
IC50

>  <Standard Relation>  (38) 
'='

>  <Standard Units>  (38) 
nM

>  <Standard Value>  (38) 
18.0

>  <Assay ChEMBL ID>  (38) 
CHEMBL3418289

>  <Assay Description>  (38) 
Inhibition of recombinant c-Met kinase domain (unknown origin) incubated for 30 mins using gastrin peptide substrate by HTRF assay

>  <BAO Format ID>  (38) 
BAO_0000357

>  <BAO Label>  (38) 
single protein format

>  <Assay Organism>  (38) 
Homo sapiens

>  <Target ChEMBL ID>  (38) 
CHEMBL3717

>  <Target Name>  (38) 
Hepatocyte growth factor receptor

>  <Target Organism>  (38) 
Homo sapiens

>  <Target Type>  (38) 
SINGLE PROTEIN

>  <Document ChEMBL ID>  (38) 
CHEMBL3414463

>  <Source Description>  (38) 
Scientific Literature

>  <Document Journal>  (38) 
J Med Chem

>  <Document Year>  (38) 
2015.0

>  <Active>  (38) 
1.0

>  <bits>  (38) 
<rdkit.DataStructs.cDataStructs.ExplicitBitVect object at 0x000001CFA8035070>

>  <Group>  (38) 
G1

$$$$

     RDKit          2D

 38 42  0  0  0  0  0  0  0  0999 V2000
    2.4446    4.6115    0.0000 O   0  0  0  0  0  0  0  0  0  0  0  0
    1.3299    5.6152    0.0000 C   0  0  0  0  0  0  0  0  0  0  0  0
   -0.0967    5.1517    0.0000 C   0  0  0  0  0  0  0  0  0  0  0  0
   -0.4086    3.6844    0.0000 C   0  0  0  0  0  0  0  0  0  0  0  0
   -1.8351    3.2209    0.0000 C   0  0  0  0  0  0  0  0  0  0  0  0
   -2.1470    1.7537    0.0000 C   0  0  0  0  0  0  0  0  0  0  0  0
   -1.0323    0.7500    0.0000 C   0  0  0  0  0  0  0  0  0  0  0  0
    0.3943    1.2135    0.0000 C   0  0  0  0  0  0  0  0  0  0  0  0
    0.7062    2.6807    0.0000 C   0  0  0  0  0  0  0  0  0  0  0  0
    1.2760    0.0000    0.0000 C   0  0  0  0  0  0  0  0  0  0  0  0
    0.3943   -1.2135    0.0000 C   0  0  0  0  0  0  0  0  0  0  0  0
   -1.0323   -0.7500    0.0000 O   0  0  0  0  0  0  0  0  0  0  0  0
    1.6418    7.0824    0.0000 N   0  0  0  0  0  0  0  0  0  0  0  0
    3.0684    7.5459    0.0000 N   0  0  0  0  0  0  0  0  0  0  0  0
    3.3802    9.0132    0.0000 C   0  0  0  0  0  0  0  0  0  0  0  0
    4.7505    9.6233    0.0000 C   0  0  0  0  0  0  0  0  0  0  0  0
    6.0496    8.8733    0.0000 O   0  0  0  0  0  0  0  0  0  0  0  0
    4.5937   11.1150    0.0000 N   0  0  0  0  0  0  0  0  0  0  0  0
    3.1265   11.4269    0.0000 C   0  0  0  0  0  0  0  0  0  0  0  0
    2.3765   12.7260    0.0000 C   0  0  0  0  0  0  0  0  0  0  0  0
    0.8765   12.7260    0.0000 C   0  0  0  0  0  0  0  0  0  0  0  0
    0.1265   14.0250    0.0000 C   0  0  0  0  0  0  0  0  0  0  0  0
   -1.3735   14.0250    0.0000 O   0  0  0  0  0  0  0  0  0  0  0  0
    0.8765   15.3240    0.0000 N   0  0  0  0  0  0  0  0  0  0  0  0
    0.1265   16.6231    0.0000 C   0  0  0  0  0  0  0  0  0  0  0  0
    0.8765   17.9221    0.0000 C   0  0  0  0  0  0  0  0  0  0  0  0
    0.1265   19.2211    0.0000 C   0  0  0  0  0  0  0  0  0  0  0  0
    0.8765   20.5202    0.0000 N   0  0  0  0  0  0  0  0  0  0  0  0
    0.2664   21.8905    0.0000 C   0  0  0  0  0  0  0  0  0  0  0  0
    1.3811   22.8942    0.0000 C   0  0  0  0  0  0  0  0  0  0  0  0
    2.6802   22.1442    0.0000 C   0  0  0  0  0  0  0  0  0  0  0  0
    2.3683   20.6770    0.0000 C   0  0  0  0  0  0  0  0  0  0  0  0
    3.3720   19.5623    0.0000 C   0  0  0  0  0  0  0  0  0  0  0  0
    4.8392   19.8741    0.0000 O   0  0  0  0  0  0  0  0  0  0  0  0
    0.1265   11.4269    0.0000 C   0  0  0  0  0  0  0  0  0  0  0  0
    0.8765   10.1279    0.0000 C   0  0  0  0  0  0  0  0  0  0  0  0
    0.1265    8.8288    0.0000 Br  0  0  0  0  0  0  0  0  0  0  0  0
    2.3765   10.1279    0.0000 C   0  0  0  0  0  0  0  0  0  0  0  0
  1  2  2  0
  2  3  1  0
  3  4  1  0
  4  5  2  0
  5  6  1  0
  6  7  2  0
  7  8  1  0
  8  9  2  0
  8 10  1  0
 10 11  1  0
 11 12  1  0
  2 13  1  0
 13 14  1  0
 14 15  2  0
 15 16  1  0
 16 17  2  0
 16 18  1  0
 18 19  1  0
 19 20  2  0
 20 21  1  0
 21 22  1  0
 22 23  2  0
 22 24  1  0
 24 25  1  0
 25 26  1  0
 26 27  1  0
 27 28  1  0
 28 29  1  0
 29 30  1  0
 30 31  1  0
 31 32  1  0
 32 33  1  1
 33 34  1  0
 21 35  2  0
 35 36  1  0
 36 37  1  0
 36 38  2  0
  9  4  1  0
 38 15  1  0
 12  7  1  0
 38 19  1  0
 32 28  1  0
M  END
>  <Compound_ID>  (39) 
CHEMBL1821773

>  <Molecule Name>  (39) 
nan

>  <Molecular Weight>  (39) 
584.47

>  <AlogP>  (39) 
1.98

>  <Smiles>  (39) 
O=C(Cc1ccc2c(c1)CCO2)N/N=C1/C(=O)Nc2cc(C(=O)NCCCN3CCC[C@H]3CO)cc(Br)c21

>  <Standard Type>  (39) 
IC50

>  <Standard Relation>  (39) 
'='

>  <Standard Units>  (39) 
nM

>  <Standard Value>  (39) 
6.0

>  <Assay ChEMBL ID>  (39) 
CHEMBL1826790

>  <Assay Description>  (39) 
Inhibition of human c-MET

>  <BAO Format ID>  (39) 
BAO_0000357

>  <BAO Label>  (39) 
single protein format

>  <Assay Organism>  (39) 
Homo sapiens

>  <Target ChEMBL ID>  (39) 
CHEMBL3717

>  <Target Name>  (39) 
Hepatocyte growth factor receptor

>  <Target Organism>  (39) 
Homo sapiens

>  <Target Type>  (39) 
SINGLE PROTEIN

>  <Document ChEMBL ID>  (39) 
CHEMBL1821609

>  <Source Description>  (39) 
Scientific Literature

>  <Document Journal>  (39) 
Eur J Med Chem

>  <Document Year>  (39) 
2011.0

>  <Active>  (39) 
1.0

>  <bits>  (39) 
<rdkit.DataStructs.cDataStructs.ExplicitBitVect object at 0x000001CFA8035000>

>  <Group>  (39) 
G1

$$$$

     RDKit          2D

 27 31  0  0  0  0  0  0  0  0999 V2000
   -2.7990   -4.4462    0.0000 F   0  0  0  0  0  0  0  0  0  0  0  0
   -1.5000   -5.1962    0.0000 C   0  0  0  0  0  0  0  0  0  0  0  0
   -0.2010   -5.9462    0.0000 F   0  0  0  0  0  0  0  0  0  0  0  0
   -0.7500   -3.8971    0.0000 C   0  0  0  0  0  0  0  0  0  0  0  0
    0.7500   -3.8971    0.0000 C   0  0  0  0  0  0  0  0  0  0  0  0
    1.5000   -2.5981    0.0000 C   0  0  0  0  0  0  0  0  0  0  0  0
    0.7500   -1.2990    0.0000 C   0  0  0  0  0  0  0  0  0  0  0  0
    1.5000    0.0000    0.0000 N   0  0  0  0  0  0  0  0  0  0  0  0
    0.7500    1.2990    0.0000 C   0  0  0  0  0  0  0  0  0  0  0  0
   -0.7500    1.2990    0.0000 C   0  0  0  0  0  0  0  0  0  0  0  0
   -1.5000    0.0000    0.0000 C   0  0  0  0  0  0  0  0  0  0  0  0
   -0.7500   -1.2990    0.0000 C   0  0  0  0  0  0  0  0  0  0  0  0
   -1.5000   -2.5981    0.0000 C   0  0  0  0  0  0  0  0  0  0  0  0
   -2.2500   -6.4952    0.0000 C   0  0  0  0  0  0  0  0  0  0  0  0
   -3.7418   -6.6520    0.0000 N   0  0  0  0  0  0  0  0  0  0  0  0
   -4.0537   -8.1192    0.0000 N   0  0  0  0  0  0  0  0  0  0  0  0
   -2.7546   -8.8692    0.0000 C   0  0  0  0  0  0  0  0  0  0  0  0
   -2.4427  -10.3364    0.0000 N   0  0  0  0  0  0  0  0  0  0  0  0
   -1.0162  -10.8000    0.0000 C   0  0  0  0  0  0  0  0  0  0  0  0
    0.0986   -9.7963    0.0000 C   0  0  0  0  0  0  0  0  0  0  0  0
    1.5251  -10.2598    0.0000 C   0  0  0  0  0  0  0  0  0  0  0  0
    2.7387   -9.3781    0.0000 C   0  0  0  0  0  0  0  0  0  0  0  0
    3.9522  -10.2598    0.0000 C   0  0  0  0  0  0  0  0  0  0  0  0
    3.4887  -11.6864    0.0000 C   0  0  0  0  0  0  0  0  0  0  0  0
    1.9887  -11.6864    0.0000 S   0  0  0  0  0  0  0  0  0  0  0  0
   -0.2133   -8.3290    0.0000 N   0  0  0  0  0  0  0  0  0  0  0  0
   -1.6399   -7.8655    0.0000 N   0  0  0  0  0  0  0  0  0  0  0  0
  1  2  1  0
  2  3  1  0
  2  4  1  0
  4  5  2  0
  5  6  1  0
  6  7  2  0
  7  8  1  0
  8  9  2  0
  9 10  1  0
 10 11  2  0
 11 12  1  0
 12 13  2  0
  2 14  1  0
 14 15  2  0
 15 16  1  0
 16 17  2  0
 17 18  1  0
 18 19  2  0
 19 20  1  0
 20 21  1  0
 21 22  2  0
 22 23  1  0
 23 24  2  0
 24 25  1  0
 20 26  2  0
 26 27  1  0
 13  4  1  0
 27 14  1  0
 12  7  1  0
 27 17  1  0
 25 21  1  0
M  END
>  <Compound_ID>  (40) 
CHEMBL3797871

>  <Molecule Name>  (40) 
nan

>  <Molecular Weight>  (40) 
380.38

>  <AlogP>  (40) 
3.94

>  <Smiles>  (40) 
FC(F)(c1ccc2ncccc2c1)c1nnc2ncc(-c3cccs3)nn12

>  <Standard Type>  (40) 
IC50

>  <Standard Relation>  (40) 
'='

>  <Standard Units>  (40) 
nM

>  <Standard Value>  (40) 
1.4

>  <Assay ChEMBL ID>  (40) 
CHEMBL3801041

>  <Assay Description>  (40) 
Inhibition of recombinant c-Met (unknown origin) using poly (Glu, Tyr) 4:1 as substrate incubated for 60 mins by ELISA

>  <BAO Format ID>  (40) 
BAO_0000357

>  <BAO Label>  (40) 
single protein format

>  <Assay Organism>  (40) 
Homo sapiens

>  <Target ChEMBL ID>  (40) 
CHEMBL3717

>  <Target Name>  (40) 
Hepatocyte growth factor receptor

>  <Target Organism>  (40) 
Homo sapiens

>  <Target Type>  (40) 
SINGLE PROTEIN

>  <Document ChEMBL ID>  (40) 
CHEMBL3797175

>  <Source Description>  (40) 
Scientific Literature

>  <Document Journal>  (40) 
Eur J Med Chem

>  <Document Year>  (40) 
2016.0

>  <Active>  (40) 
1.0

>  <bits>  (40) 
<rdkit.DataStructs.cDataStructs.ExplicitBitVect object at 0x000001CFA8034F90>

>  <Group>  (40) 
G1

$$$$

     RDKit          2D

 32 36  0  0  0  0  0  0  0  0999 V2000
    0.2152    6.6189    0.0000 C   0  0  0  0  0  3  0  0  0  0  0  0
   -0.0967    5.1517    0.0000 N   0  0  0  0  0  4  0  0  0  0  0  0
   -0.4086    3.6844    0.0000 C   0  0  0  0  0  0  0  0  0  0  0  0
   -1.8351    3.2209    0.0000 C   0  0  0  0  0  0  0  0  0  0  0  0
   -2.9499    4.2246    0.0000 C   0  0  0  0  0  0  0  0  0  0  0  0
   -2.1470    1.7537    0.0000 N   0  0  0  0  0  0  0  0  0  0  0  0
   -1.0323    0.7500    0.0000 C   0  0  0  0  0  0  0  0  0  0  0  0
    0.3943    1.2135    0.0000 C   0  0  0  0  0  0  0  0  0  0  0  0
    1.2760    0.0000    0.0000 C   0  0  0  0  0  0  0  0  0  0  0  0
    2.7760    0.0000    0.0000 O   0  0  0  0  0  0  0  0  0  0  0  0
    0.3943   -1.2135    0.0000 O   0  0  0  0  0  0  0  0  0  0  0  0
   -1.0323   -0.7500    0.0000 C   0  0  0  0  0  0  0  0  0  0  0  0
    0.7062    2.6807    0.0000 C   0  0  0  0  0  0  0  0  0  0  0  0
    2.1328    3.1443    0.0000 C   0  0  0  0  0  0  0  0  0  0  0  0
    3.2475    2.1406    0.0000 C   0  0  0  0  0  0  0  0  0  0  0  0
    4.6741    2.6041    0.0000 C   0  0  0  0  0  0  0  0  0  0  0  0
    4.9859    4.0713    0.0000 C   0  0  0  0  0  0  0  0  0  0  0  0
    6.2850    4.8213    0.0000 N   0  0  0  0  0  0  0  0  0  0  0  0
    5.9731    6.2885    0.0000 N   0  0  0  0  0  0  0  0  0  0  0  0
    4.4813    6.4453    0.0000 C   0  0  0  0  0  0  0  0  0  0  0  0
    3.7313    7.7444    0.0000 C   0  0  0  0  0  0  0  0  0  0  0  0
    4.4813    9.0434    0.0000 C   0  0  0  0  0  0  0  0  0  0  0  0
    3.7313   10.3425    0.0000 C   0  0  0  0  0  0  0  0  0  0  0  0
    2.2313   10.3425    0.0000 C   0  0  0  0  0  0  0  0  0  0  0  0
    1.4813   11.6415    0.0000 O   0  0  0  0  0  0  0  0  0  0  0  0
    2.2313   12.9405    0.0000 C   0  0  0  0  0  0  0  0  0  0  0  0
    1.4813   14.2396    0.0000 C   0  0  0  0  0  0  0  0  0  0  0  0
    3.7313   12.9405    0.0000 C   0  0  0  0  0  0  0  0  0  0  0  0
    1.4813    9.0434    0.0000 N   0  0  0  0  0  0  0  0  0  0  0  0
    2.2313    7.7444    0.0000 C   0  0  0  0  0  0  0  0  0  0  0  0
    3.8712    5.0750    0.0000 C   0  0  0  0  0  0  0  0  0  0  0  0
    2.4446    4.6115    0.0000 C   0  0  0  0  0  0  0  0  0  0  0  0
  1  2  3  0
  2  3  1  0
  3  4  1  0
  4  5  1  0
  4  6  2  0
  6  7  1  0
  7  8  2  0
  8  9  1  0
  9 10  2  0
  9 11  1  0
 11 12  1  0
  8 13  1  0
 13 14  1  0
 14 15  2  0
 15 16  1  0
 16 17  2  0
 17 18  1  0
 18 19  1  0
 19 20  2  0
 20 21  1  0
 21 22  2  0
 22 23  1  0
 23 24  2  0
 24 25  1  0
 25 26  1  0
 26 27  1  0
 26 28  1  0
 24 29  1  0
 29 30  2  0
 20 31  1  0
 31 32  2  0
 13  3  1  0
 32 14  1  0
 12  7  1  0
 31 17  1  0
 30 21  1  0
M  CHG  2   1  -1   2   1
M  END
>  <Compound_ID>  (41) 
CHEMBL3685757

>  <Molecule Name>  (41) 
nan

>  <Molecular Weight>  (41) 
427.46

>  <AlogP>  (41) 
4.07

>  <Smiles>  (41) 
[C-]#[N+]C1C(C)=NC2=C(C(=O)OC2)C1c1ccc2[nH]nc(-c3ccc(OC(C)C)nc3)c2c1

>  <Standard Type>  (41) 
IC50

>  <Standard Relation>  (41) 
'='

>  <Standard Units>  (41) 
nM

>  <Standard Value>  (41) 
9.0

>  <Assay ChEMBL ID>  (41) 
CHEMBL3705222

>  <Assay Description>  (41) 
Tyrosine Kinase Activity Assay: Recombinant human c-Met protein (Invitrogen, Carlsbad, Calif., USA) is used. As substrate for the kinase reaction the peptide KKKSPGEYVNIEFG (JPT, Germany) is used. For the assay, 1 uL of a 51-fold concentrated solution of the test compound in DMSO is pipetted into a white 384-well microtiter plate (Greiner Bio-One, Frickenhausen, Germany). 25 uL of a solution of c-Met (final concentration 30 nM) and pyruvate kinase/lactate dehydrogenase (Roche Diagnostics, Mannheim, Germany; final concentration 8 mg/L) in assay buffer [3-(N-morpholino)propane-sulfonic acid (MOPS), 50 mM, pH 7; MgCl2, 10 mM; bovine serum albumin (BSA), 0.01%; Triton X 100, 0.01%; DTT, 2 mM] are added, and the mixture is incubated for 5 min at room temperature. Then, the kinase reaction is started by the addition of 25 uL of a solution of adenosine triphosphate (ATP, final concentration 30 uM), substrate (final concentration 100 uM), nicotinamide adenine dinucleotide.

>  <BAO Format ID>  (41) 
BAO_0000357

>  <BAO Label>  (41) 
single protein format

>  <Assay Organism>  (41) 
Homo sapiens

>  <Target ChEMBL ID>  (41) 
CHEMBL3717

>  <Target Name>  (41) 
Hepatocyte growth factor receptor

>  <Target Organism>  (41) 
Homo sapiens

>  <Target Type>  (41) 
SINGLE PROTEIN

>  <Document ChEMBL ID>  (41) 
CHEMBL3638484

>  <Source Description>  (41) 
BindingDB Database

>  <Document Journal>  (41) 
nan

>  <Document Year>  (41) 
2014.0

>  <Active>  (41) 
1.0

>  <bits>  (41) 
<rdkit.DataStructs.cDataStructs.ExplicitBitVect object at 0x000001CFA8034F20>

>  <Group>  (41) 
G1

$$$$

     RDKit          2D

 29 33  0  0  0  0  0  0  0  0999 V2000
   -4.0646    5.2283    0.0000 C   0  0  0  0  0  3  0  0  0  0  0  0
   -2.9499    4.2246    0.0000 N   0  0  0  0  0  4  0  0  0  0  0  0
   -1.8351    3.2209    0.0000 C   0  0  0  0  0  0  0  0  0  0  0  0
   -0.4086    3.6844    0.0000 C   0  0  0  0  0  0  0  0  0  0  0  0
   -0.0967    5.1517    0.0000 C   0  0  0  0  0  0  0  0  0  0  0  0
    1.3299    5.6152    0.0000 C   0  0  0  0  0  0  0  0  0  0  0  0
    1.6418    7.0824    0.0000 C   0  0  0  0  0  0  0  0  0  0  0  0
    0.5271    8.0861    0.0000 C   0  0  0  0  0  0  0  0  0  0  0  0
    0.8389    9.5533    0.0000 F   0  0  0  0  0  0  0  0  0  0  0  0
   -0.8995    7.6226    0.0000 C   0  0  0  0  0  0  0  0  0  0  0  0
   -1.2114    6.1554    0.0000 C   0  0  0  0  0  0  0  0  0  0  0  0
    0.7062    2.6807    0.0000 N   0  0  0  0  0  0  0  0  0  0  0  0
    0.3943    1.2135    0.0000 C   0  0  0  0  0  0  0  0  0  0  0  0
    1.2760    0.0000    0.0000 C   0  0  0  0  0  0  0  0  0  0  0  0
    0.3943   -1.2135    0.0000 O   0  0  0  0  0  0  0  0  0  0  0  0
   -1.0323   -0.7500    0.0000 C   0  0  0  0  0  0  0  0  0  0  0  0
   -2.2458   -1.6317    0.0000 O   0  0  0  0  0  0  0  0  0  0  0  0
   -1.0323    0.7500    0.0000 C   0  0  0  0  0  0  0  0  0  0  0  0
   -2.1470    1.7537    0.0000 C   0  0  0  0  0  0  0  0  0  0  0  0
   -3.5736    1.2902    0.0000 C   0  0  0  0  0  0  0  0  0  0  0  0
   -3.8855   -0.1771    0.0000 C   0  0  0  0  0  0  0  0  0  0  0  0
   -5.3120   -0.6406    0.0000 C   0  0  0  0  0  0  0  0  0  0  0  0
   -5.9221   -2.0109    0.0000 C   0  0  0  0  0  0  0  0  0  0  0  0
   -7.4139   -1.8541    0.0000 N   0  0  0  0  0  0  0  0  0  0  0  0
   -7.7258   -0.3869    0.0000 N   0  0  0  0  0  0  0  0  0  0  0  0
   -6.4268    0.3631    0.0000 C   0  0  0  0  0  0  0  0  0  0  0  0
   -6.1149    1.8303    0.0000 C   0  0  0  0  0  0  0  0  0  0  0  0
   -4.6883    2.2939    0.0000 C   0  0  0  0  0  0  0  0  0  0  0  0
   -4.3764    3.7611    0.0000 F   0  0  0  0  0  0  0  0  0  0  0  0
  1  2  3  0
  2  3  1  0
  3  4  2  0
  4  5  1  0
  5  6  2  0
  6  7  1  0
  7  8  2  0
  8  9  1  0
  8 10  1  0
 10 11  2  0
  4 12  1  0
 12 13  2  0
 13 14  1  0
 14 15  1  0
 15 16  1  0
 16 17  2  0
 16 18  1  0
 18 19  1  0
 19 20  1  0
 20 21  2  0
 21 22  1  0
 22 23  1  0
 23 24  2  0
 24 25  1  0
 25 26  1  0
 26 27  1  0
 27 28  2  0
 28 29  1  0
 19  3  1  0
 28 20  1  0
 11  5  1  0
 18 13  1  0
 26 22  2  0
M  CHG  2   1  -1   2   1
M  END
>  <Compound_ID>  (42) 
CHEMBL3685760

>  <Molecule Name>  (42) 
nan

>  <Molecular Weight>  (42) 
390.35

>  <AlogP>  (42) 
3.84

>  <Smiles>  (42) 
[C-]#[N+]C1=C(c2ccc(F)cc2)N=C2COC(=O)C2C1c1cc2cn[nH]c2cc1F

>  <Standard Type>  (42) 
IC50

>  <Standard Relation>  (42) 
'='

>  <Standard Units>  (42) 
nM

>  <Standard Value>  (42) 
19.0

>  <Assay ChEMBL ID>  (42) 
CHEMBL3705222

>  <Assay Description>  (42) 
Tyrosine Kinase Activity Assay: Recombinant human c-Met protein (Invitrogen, Carlsbad, Calif., USA) is used. As substrate for the kinase reaction the peptide KKKSPGEYVNIEFG (JPT, Germany) is used. For the assay, 1 uL of a 51-fold concentrated solution of the test compound in DMSO is pipetted into a white 384-well microtiter plate (Greiner Bio-One, Frickenhausen, Germany). 25 uL of a solution of c-Met (final concentration 30 nM) and pyruvate kinase/lactate dehydrogenase (Roche Diagnostics, Mannheim, Germany; final concentration 8 mg/L) in assay buffer [3-(N-morpholino)propane-sulfonic acid (MOPS), 50 mM, pH 7; MgCl2, 10 mM; bovine serum albumin (BSA), 0.01%; Triton X 100, 0.01%; DTT, 2 mM] are added, and the mixture is incubated for 5 min at room temperature. Then, the kinase reaction is started by the addition of 25 uL of a solution of adenosine triphosphate (ATP, final concentration 30 uM), substrate (final concentration 100 uM), nicotinamide adenine dinucleotide.

>  <BAO Format ID>  (42) 
BAO_0000357

>  <BAO Label>  (42) 
single protein format

>  <Assay Organism>  (42) 
Homo sapiens

>  <Target ChEMBL ID>  (42) 
CHEMBL3717

>  <Target Name>  (42) 
Hepatocyte growth factor receptor

>  <Target Organism>  (42) 
Homo sapiens

>  <Target Type>  (42) 
SINGLE PROTEIN

>  <Document ChEMBL ID>  (42) 
CHEMBL3638484

>  <Source Description>  (42) 
BindingDB Database

>  <Document Journal>  (42) 
nan

>  <Document Year>  (42) 
2014.0

>  <Active>  (42) 
1.0

>  <bits>  (42) 
<rdkit.DataStructs.cDataStructs.ExplicitBitVect object at 0x000001CFA8034EB0>

>  <Group>  (42) 
G1

$$$$

     RDKit          2D

 22 24  0  0  0  0  0  0  0  0999 V2000
    3.8971   -4.3573    0.0000 C   0  0  0  0  0  3  0  0  0  0  0  0
    2.5981   -5.1073    0.0000 N   0  0  0  0  0  4  0  0  0  0  0  0
    1.2990   -5.8573    0.0000 C   0  0  0  0  0  0  0  0  0  0  0  0
    1.2990   -7.3573    0.0000 C   0  0  0  0  0  0  0  0  0  0  0  0
    2.5981   -8.1073    0.0000 C   0  0  0  0  0  0  0  0  0  0  0  0
   -0.0000   -8.1073    0.0000 N   0  0  0  0  0  0  0  0  0  0  0  0
   -1.2990   -7.3573    0.0000 C   0  0  0  0  0  0  0  0  0  0  0  0
   -2.5981   -8.1073    0.0000 C   0  0  0  0  0  0  0  0  0  0  0  0
   -1.2990   -5.8573    0.0000 C   0  0  0  0  0  0  0  0  0  0  0  0
   -2.5981   -5.1073    0.0000 C   0  0  0  0  0  0  0  0  0  0  0  0
   -3.8971   -4.3573    0.0000 N   0  0  0  0  0  0  0  0  0  0  0  0
   -0.0000   -5.1073    0.0000 C   0  0  0  0  0  0  0  0  0  0  0  0
   -0.0000   -3.6073    0.0000 C   0  0  0  0  0  0  0  0  0  0  0  0
    1.2135   -2.7256    0.0000 C   0  0  0  0  0  0  0  0  0  0  0  0
    0.7500   -1.2990    0.0000 C   0  0  0  0  0  0  0  0  0  0  0  0
    1.5000    0.0000    0.0000 C   0  0  0  0  0  0  0  0  0  0  0  0
    3.0000    0.0000    0.0000 N   0  0  0  0  0  0  0  0  0  0  0  0
    0.7500    1.2990    0.0000 N   0  0  0  0  0  0  0  0  0  0  0  0
   -0.7500    1.2990    0.0000 C   0  0  0  0  0  0  0  0  0  0  0  0
   -1.5000    0.0000    0.0000 C   0  0  0  0  0  0  0  0  0  0  0  0
   -0.7500   -1.2990    0.0000 C   0  0  0  0  0  0  0  0  0  0  0  0
   -1.2135   -2.7256    0.0000 O   0  0  0  0  0  0  0  0  0  0  0  0
  1  2  3  0
  2  3  1  0
  3  4  2  0
  4  5  1  0
  4  6  1  0
  6  7  2  0
  7  8  1  0
  7  9  1  0
  9 10  1  0
 10 11  3  0
  9 12  1  0
 12 13  1  0
 13 14  2  0
 14 15  1  0
 15 16  2  0
 16 17  1  0
 16 18  1  0
 18 19  2  0
 19 20  1  0
 20 21  2  0
 21 22  1  0
 12  3  1  0
 22 13  1  0
 21 15  1  0
M  CHG  2   1  -1   2   1
M  END
>  <Compound_ID>  (43) 
CHEMBL3680042

>  <Molecule Name>  (43) 
nan

>  <Molecular Weight>  (43) 
291.31

>  <AlogP>  (43) 
3.26

>  <Smiles>  (43) 
[C-]#[N+]C1=C(C)N=C(C)C(C#N)C1c1cc2c(N)nccc2o1

>  <Standard Type>  (43) 
IC50

>  <Standard Relation>  (43) 
'='

>  <Standard Units>  (43) 
nM

>  <Standard Value>  (43) 
23.0

>  <Assay ChEMBL ID>  (43) 
CHEMBL3705632

>  <Assay Description>  (43) 
Tyrosine Kinase Activity Assay: Tyrosine kinase activity assay (NADH Read-Out)using human c-Met protein (Invitrogen, Carlsbad, Calif., USA). The amount of phosphorylated substrate is evaluated by measurement of the decrease of NADH fluorescence.

>  <BAO Format ID>  (43) 
BAO_0000357

>  <BAO Label>  (43) 
single protein format

>  <Assay Organism>  (43) 
Homo sapiens

>  <Target ChEMBL ID>  (43) 
CHEMBL3717

>  <Target Name>  (43) 
Hepatocyte growth factor receptor

>  <Target Organism>  (43) 
Homo sapiens

>  <Target Type>  (43) 
SINGLE PROTEIN

>  <Document ChEMBL ID>  (43) 
CHEMBL3639154

>  <Source Description>  (43) 
BindingDB Database

>  <Document Journal>  (43) 
nan

>  <Document Year>  (43) 
2013.0

>  <Active>  (43) 
1.0

>  <bits>  (43) 
<rdkit.DataStructs.cDataStructs.ExplicitBitVect object at 0x000001CFA8034E40>

>  <Group>  (43) 
G1

$$$$

     RDKit          2D

 33 37  0  0  0  0  0  0  0  0999 V2000
   -2.6401   -3.1891    0.0000 N   0  0  0  0  0  0  0  0  0  0  0  0
   -1.2135   -2.7256    0.0000 C   0  0  0  0  0  0  0  0  0  0  0  0
   -0.0000   -3.6073    0.0000 N   0  0  0  0  0  0  0  0  0  0  0  0
    1.2135   -2.7256    0.0000 O   0  0  0  0  0  0  0  0  0  0  0  0
    0.7500   -1.2990    0.0000 C   0  0  0  0  0  0  0  0  0  0  0  0
    1.5000    0.0000    0.0000 C   0  0  0  0  0  0  0  0  0  0  0  0
    0.7500    1.2990    0.0000 C   0  0  0  0  0  0  0  0  0  0  0  0
   -0.7500    1.2990    0.0000 C   0  0  0  0  0  0  0  0  0  0  0  0
   -1.5000    0.0000    0.0000 C   0  0  0  0  0  0  0  0  0  0  0  0
   -3.0000    0.0000    0.0000 C   0  0  0  0  0  0  0  0  0  0  0  0
   -3.7500    1.2990    0.0000 C   0  0  0  0  0  0  0  0  0  0  0  0
   -5.2500    1.2990    0.0000 C   0  0  0  0  0  0  0  0  0  0  0  0
   -6.0000    0.0000    0.0000 C   0  0  0  0  0  0  0  0  0  0  0  0
   -7.5000    0.0000    0.0000 N   0  0  0  0  0  0  0  0  0  0  0  0
   -8.2500    1.2990    0.0000 C   0  0  0  0  0  0  0  0  0  0  0  0
   -7.5000    2.5981    0.0000 O   0  0  0  0  0  0  0  0  0  0  0  0
   -9.7500    1.2990    0.0000 C   0  0  0  0  0  0  0  0  0  0  0  0
  -10.0105   -0.1782    0.0000 C   0  0  0  0  0  0  0  0  0  0  0  0
   -8.8614   -1.1424    0.0000 O   0  0  0  0  0  0  0  0  0  0  0  0
  -11.4200   -0.6912    0.0000 N   0  0  0  0  0  0  0  0  0  0  0  0
  -11.6805   -2.1684    0.0000 C   0  0  0  0  0  0  0  0  0  0  0  0
  -13.0900   -2.6814    0.0000 C   0  0  0  0  0  0  0  0  0  0  0  0
  -13.3505   -4.1587    0.0000 C   0  0  0  0  0  0  0  0  0  0  0  0
  -12.2014   -5.1228    0.0000 C   0  0  0  0  0  0  0  0  0  0  0  0
  -12.4619   -6.6001    0.0000 F   0  0  0  0  0  0  0  0  0  0  0  0
  -10.7919   -4.6098    0.0000 C   0  0  0  0  0  0  0  0  0  0  0  0
   -9.6428   -5.5740    0.0000 F   0  0  0  0  0  0  0  0  0  0  0  0
  -10.5314   -3.1326    0.0000 C   0  0  0  0  0  0  0  0  0  0  0  0
  -11.1595    1.8121    0.0000 C   0  0  0  0  0  0  0  0  0  0  0  0
  -10.0105    2.7762    0.0000 C   0  0  0  0  0  0  0  0  0  0  0  0
   -5.2500   -1.2990    0.0000 C   0  0  0  0  0  0  0  0  0  0  0  0
   -3.7500   -1.2990    0.0000 C   0  0  0  0  0  0  0  0  0  0  0  0
   -0.7500   -1.2990    0.0000 C   0  0  0  0  0  0  0  0  0  0  0  0
  1  2  1  0
  2  3  2  0
  3  4  1  0
  4  5  1  0
  5  6  2  0
  6  7  1  0
  7  8  2  0
  8  9  1  0
  9 10  1  0
 10 11  2  0
 11 12  1  0
 12 13  2  0
 13 14  1  0
 14 15  1  0
 15 16  2  0
 15 17  1  0
 17 18  1  0
 18 19  2  0
 18 20  1  0
 20 21  1  0
 21 22  2  0
 22 23  1  0
 23 24  2  0
 24 25  1  0
 24 26  1  0
 26 27  1  0
 26 28  2  0
 17 29  1  0
 29 30  1  0
 13 31  1  0
 31 32  2  0
  9 33  2  0
 33  2  1  0
 33  5  1  0
 32 10  1  0
 30 17  1  0
 28 21  1  0
M  END
>  <Compound_ID>  (44) 
CHEMBL3394456

>  <Molecule Name>  (44) 
nan

>  <Molecular Weight>  (44) 
448.43

>  <AlogP>  (44) 
4.71

>  <Smiles>  (44) 
Nc1noc2cccc(-c3ccc(NC(=O)C4(C(=O)Nc5ccc(F)c(F)c5)CC4)cc3)c12

>  <Standard Type>  (44) 
IC50

>  <Standard Relation>  (44) 
'='

>  <Standard Units>  (44) 
nM

>  <Standard Value>  (44) 
76.2

>  <Assay ChEMBL ID>  (44) 
CHEMBL3396121

>  <Assay Description>  (44) 
Inhibition of purified recombinant c-MET (unknown origin) using poly (Glu, Tyr) substrate after 60 mins by ELISA

>  <BAO Format ID>  (44) 
BAO_0000357

>  <BAO Label>  (44) 
single protein format

>  <Assay Organism>  (44) 
Homo sapiens

>  <Target ChEMBL ID>  (44) 
CHEMBL3717

>  <Target Name>  (44) 
Hepatocyte growth factor receptor

>  <Target Organism>  (44) 
Homo sapiens

>  <Target Type>  (44) 
SINGLE PROTEIN

>  <Document ChEMBL ID>  (44) 
CHEMBL3392979

>  <Source Description>  (44) 
Scientific Literature

>  <Document Journal>  (44) 
Bioorg Med Chem

>  <Document Year>  (44) 
2015.0

>  <Active>  (44) 
1.0

>  <bits>  (44) 
<rdkit.DataStructs.cDataStructs.ExplicitBitVect object at 0x000001CFA8034DD0>

>  <Group>  (44) 
G1

$$$$

     RDKit          2D

 30 34  0  0  0  0  0  0  0  0999 V2000
    2.5981   -5.1073    0.0000 N   0  0  0  0  0  0  0  0  0  0  0  0
    1.2990   -5.8573    0.0000 C   0  0  0  0  0  0  0  0  0  0  0  0
    1.2990   -7.3573    0.0000 N   0  0  0  0  0  0  0  0  0  0  0  0
   -0.0000   -8.1073    0.0000 C   0  0  0  0  0  0  0  0  0  0  0  0
   -1.2990   -7.3573    0.0000 C   0  0  0  0  0  0  0  0  0  0  0  0
   -2.5981   -8.1073    0.0000 C   0  0  0  0  0  0  0  0  0  0  0  0
   -2.7549   -9.5991    0.0000 C   0  0  0  0  0  0  0  0  0  0  0  0
   -4.2221   -9.9110    0.0000 N   0  0  0  0  0  0  0  0  0  0  0  0
   -4.9721   -8.6119    0.0000 N   0  0  0  0  0  0  0  0  0  0  0  0
   -6.4639   -8.4551    0.0000 C   0  0  0  0  0  0  0  0  0  0  0  0
   -7.0740   -7.0848    0.0000 C   0  0  0  0  0  0  0  0  0  0  0  0
   -8.5658   -6.9280    0.0000 O   0  0  0  0  0  0  0  0  0  0  0  0
   -3.9684   -7.4972    0.0000 C   0  0  0  0  0  0  0  0  0  0  0  0
   -1.2990   -5.8573    0.0000 C   0  0  0  0  0  0  0  0  0  0  0  0
   -0.0000   -5.1073    0.0000 C   0  0  0  0  0  0  0  0  0  0  0  0
   -0.0000   -3.6073    0.0000 C   0  0  0  0  0  0  0  0  0  0  0  0
    1.2135   -2.7256    0.0000 N   0  0  0  0  0  0  0  0  0  0  0  0
    0.7500   -1.2990    0.0000 C   0  0  0  0  0  0  0  0  0  0  0  0
    1.5000    0.0000    0.0000 C   0  0  0  0  0  0  0  0  0  0  0  0
    0.7500    1.2990    0.0000 C   0  0  0  0  0  0  0  0  0  0  0  0
   -0.7500    1.2990    0.0000 C   0  0  0  0  0  0  0  0  0  0  0  0
   -1.5000    0.0000    0.0000 C   0  0  0  0  0  0  0  0  0  0  0  0
   -3.0000    0.0000    0.0000 C   0  0  0  0  0  0  0  0  0  0  0  0
   -3.7500    1.2990    0.0000 C   0  0  0  0  0  0  0  0  0  0  0  0
   -5.2500    1.2990    0.0000 C   0  0  0  0  0  0  0  0  0  0  0  0
   -6.0000    0.0000    0.0000 C   0  0  0  0  0  0  0  0  0  0  0  0
   -5.2500   -1.2990    0.0000 C   0  0  0  0  0  0  0  0  0  0  0  0
   -3.7500   -1.2990    0.0000 N   0  0  0  0  0  0  0  0  0  0  0  0
   -0.7500   -1.2990    0.0000 C   0  0  0  0  0  0  0  0  0  0  0  0
   -1.2135   -2.7256    0.0000 O   0  0  0  0  0  0  0  0  0  0  0  0
  1  2  1  0
  2  3  2  0
  3  4  1  0
  4  5  2  0
  5  6  1  0
  6  7  1  0
  7  8  2  0
  8  9  1  0
  9 10  1  0
 10 11  1  0
 11 12  1  0
  9 13  1  0
  5 14  1  0
 14 15  2  0
 15 16  1  0
 16 17  2  0
 17 18  1  0
 18 19  2  0
 19 20  1  0
 20 21  2  0
 21 22  1  0
 22 23  1  0
 23 24  2  0
 24 25  1  0
 25 26  2  0
 26 27  1  0
 27 28  2  0
 22 29  2  0
 29 30  1  0
 15  2  1  0
 30 16  1  0
 13  6  2  0
 29 18  1  0
 28 23  1  0
M  END
>  <Compound_ID>  (45) 
CHEMBL2032297

>  <Molecule Name>  (45) 
nan

>  <Molecular Weight>  (45) 
512.45

>  <AlogP>  (45) 
3.39

>  <Smiles>  (45) 
Nc1ncc(-c2cnn(CCO)c2)cc1-c1nc2cccc(-c3ccccn3)c2o1

>  <Standard Type>  (45) 
IC50

>  <Standard Relation>  (45) 
'='

>  <Standard Units>  (45) 
nM

>  <Standard Value>  (45) 
53.0

>  <Assay ChEMBL ID>  (45) 
CHEMBL2034187

>  <Assay Description>  (45) 
Inhibition of recombinant c-Met by time resolved-fluorescence resonance energy transfer analysis

>  <BAO Format ID>  (45) 
BAO_0000357

>  <BAO Label>  (45) 
single protein format

>  <Assay Organism>  (45) 
None

>  <Target ChEMBL ID>  (45) 
CHEMBL3717

>  <Target Name>  (45) 
Hepatocyte growth factor receptor

>  <Target Organism>  (45) 
Homo sapiens

>  <Target Type>  (45) 
SINGLE PROTEIN

>  <Document ChEMBL ID>  (45) 
CHEMBL2029247

>  <Source Description>  (45) 
Scientific Literature

>  <Document Journal>  (45) 
Bioorg Med Chem Lett

>  <Document Year>  (45) 
2012.0

>  <Active>  (45) 
1.0

>  <bits>  (45) 
<rdkit.DataStructs.cDataStructs.ExplicitBitVect object at 0x000001CFA8034D60>

>  <Group>  (45) 
G1

$$$$

     RDKit          2D

 34 39  0  0  0  0  0  0  0  0999 V2000
    0.7500   -3.8971    0.0000 C   0  0  0  0  0  0  0  0  0  0  0  0
    1.5000   -2.5981    0.0000 C   0  0  0  0  0  0  0  0  0  0  0  0
    0.7500   -1.2990    0.0000 C   0  0  0  0  0  0  0  0  0  0  0  0
    1.5000    0.0000    0.0000 C   0  0  0  0  0  0  0  0  0  0  0  0
    0.7500    1.2990    0.0000 C   0  0  0  0  0  0  0  0  0  0  0  0
   -0.7500    1.2990    0.0000 C   0  0  0  0  0  0  0  0  0  0  0  0
   -1.5000    2.5981    0.0000 N   0  0  0  0  0  0  0  0  0  0  0  0
   -3.0000    2.5981    0.0000 C   0  0  0  0  0  0  0  0  0  0  0  0
   -3.7500    1.2990    0.0000 C   0  0  0  0  0  0  0  0  0  0  0  0
   -5.2500    1.2990    0.0000 C   0  0  0  0  0  0  0  0  0  0  0  0
   -6.0000    2.5981    0.0000 C   0  0  0  0  0  0  0  0  0  0  0  0
   -7.5000    2.5981    0.0000 C   0  0  0  0  0  0  0  0  0  0  0  0
   -8.2500    1.2990    0.0000 C   0  0  0  0  0  0  0  0  0  0  0  0
   -9.7500    1.2990    0.0000 F   0  0  0  0  0  0  0  0  0  0  0  0
   -7.5000    0.0000    0.0000 C   0  0  0  0  0  0  0  0  0  0  0  0
   -6.0000    0.0000    0.0000 C   0  0  0  0  0  0  0  0  0  0  0  0
   -3.0000    0.0000    0.0000 C   0  0  0  0  0  0  0  0  0  0  0  0
   -1.5000    0.0000    0.0000 C   0  0  0  0  0  0  0  0  0  0  0  0
   -0.7500   -1.2990    0.0000 C   0  0  0  0  0  0  0  0  0  0  0  0
    3.0000   -2.5981    0.0000 N   0  0  0  0  0  0  0  0  0  0  0  0
    3.8817   -1.3846    0.0000 N   0  0  0  0  0  0  0  0  0  0  0  0
    5.3083   -1.8481    0.0000 N   0  0  0  0  0  0  0  0  0  0  0  0
    5.3083   -3.3481    0.0000 C   0  0  0  0  0  0  0  0  0  0  0  0
    6.4230   -4.3518    0.0000 N   0  0  0  0  0  0  0  0  0  0  0  0
    6.1111   -5.8190    0.0000 C   0  0  0  0  0  0  0  0  0  0  0  0
    4.6845   -6.2825    0.0000 C   0  0  0  0  0  0  0  0  0  0  0  0
    4.3727   -7.7497    0.0000 C   0  0  0  0  0  0  0  0  0  0  0  0
    2.9461   -8.2133    0.0000 C   0  0  0  0  0  0  0  0  0  0  0  0
    2.6342   -9.6805    0.0000 C   0  0  0  0  0  0  0  0  0  0  0  0
    3.7489  -10.6842    0.0000 N   0  0  0  0  0  0  0  0  0  0  0  0
    5.1755  -10.2207    0.0000 C   0  0  0  0  0  0  0  0  0  0  0  0
    5.4874   -8.7534    0.0000 C   0  0  0  0  0  0  0  0  0  0  0  0
    3.5698   -5.2788    0.0000 N   0  0  0  0  0  0  0  0  0  0  0  0
    3.8817   -3.8116    0.0000 C   0  0  0  0  0  0  0  0  0  0  0  0
  1  2  1  0
  2  3  1  0
  3  4  2  0
  4  5  1  0
  5  6  2  0
  6  7  1  0
  7  8  2  0
  8  9  1  0
  9 10  1  0
 10 11  2  0
 11 12  1  0
 12 13  2  0
 13 14  1  0
 13 15  1  0
 15 16  2  0
  9 17  2  0
 17 18  1  0
 18 19  2  0
  2 20  1  0
 20 21  1  0
 21 22  2  0
 22 23  1  0
 23 24  2  0
 24 25  1  0
 25 26  2  0
 26 27  1  0
 27 28  2  0
 28 29  1  0
 29 30  2  0
 30 31  1  0
 31 32  2  0
 26 33  1  0
 33 34  2  0
 19  3  1  0
 34 20  1  0
 18  6  1  0
 34 23  1  0
 16 10  1  0
 32 27  1  0
M  END
>  <Compound_ID>  (46) 
CHEMBL4072776

>  <Molecule Name>  (46) 
nan

>  <Molecular Weight>  (46) 
447.48

>  <AlogP>  (46) 
5.25

>  <Smiles>  (46) 
CC(c1ccc2ncc(-c3ccc(F)cc3)cc2c1)n1nnc2ncc(-c3ccncc3)nc21

>  <Standard Type>  (46) 
IC50

>  <Standard Relation>  (46) 
'='

>  <Standard Units>  (46) 
nM

>  <Standard Value>  (46) 
2.6

>  <Assay ChEMBL ID>  (46) 
CHEMBL4021199

>  <Assay Description>  (46) 
Inhibition of c-MET (unknown origin) using TK substrate-biotin peptide as substrate preincubated for 5 to 10 mins followed by ATP addition measured after 30 mins by HTRF assay

>  <BAO Format ID>  (46) 
BAO_0000357

>  <BAO Label>  (46) 
single protein format

>  <Assay Organism>  (46) 
Homo sapiens

>  <Target ChEMBL ID>  (46) 
CHEMBL3717

>  <Target Name>  (46) 
Hepatocyte growth factor receptor

>  <Target Organism>  (46) 
Homo sapiens

>  <Target Type>  (46) 
SINGLE PROTEIN

>  <Document ChEMBL ID>  (46) 
CHEMBL4020721

>  <Source Description>  (46) 
Scientific Literature

>  <Document Journal>  (46) 
Eur J Med Chem

>  <Document Year>  (46) 
2017.0

>  <Active>  (46) 
1.0

>  <bits>  (46) 
<rdkit.DataStructs.cDataStructs.ExplicitBitVect object at 0x000001CFA8034CF0>

>  <Group>  (46) 
G1

$$$$

     RDKit          2D

 36 39  0  0  0  0  0  0  0  0999 V2000
   -2.8171   11.0972    0.0000 C   0  0  0  0  0  0  0  0  0  0  0  0
   -4.2437   10.6337    0.0000 C   0  0  0  0  0  0  0  0  0  0  0  0
   -4.5556    9.1664    0.0000 C   0  0  0  0  0  0  0  0  0  0  0  0
   -5.9821    8.7029    0.0000 C   0  0  0  0  0  0  0  0  0  0  0  0
   -6.2940    7.2357    0.0000 C   0  0  0  0  0  0  0  0  0  0  0  0
   -7.7206    6.7722    0.0000 C   0  0  0  0  0  0  0  0  0  0  0  0
   -8.8353    7.7759    0.0000 N   0  0  0  0  0  0  0  0  0  0  0  0
   -8.5234    9.2431    0.0000 S   0  0  0  0  0  0  0  0  0  0  0  0
   -7.0562    8.9312    0.0000 O   0  0  0  0  0  0  0  0  0  0  0  0
   -9.9907    9.5550    0.0000 O   0  0  0  0  0  0  0  0  0  0  0  0
   -8.2116   10.7103    0.0000 C   0  0  0  0  0  0  0  0  0  0  0  0
   -9.3263   11.7140    0.0000 C   0  0  0  0  0  0  0  0  0  0  0  0
  -10.7529   11.2505    0.0000 C   0  0  0  0  0  0  0  0  0  0  0  0
  -11.8676   12.2542    0.0000 C   0  0  0  0  0  0  0  0  0  0  0  0
  -11.5557   13.7214    0.0000 C   0  0  0  0  0  0  0  0  0  0  0  0
  -12.6704   14.7251    0.0000 F   0  0  0  0  0  0  0  0  0  0  0  0
  -10.1291   14.1849    0.0000 C   0  0  0  0  0  0  0  0  0  0  0  0
   -9.0144   13.1812    0.0000 C   0  0  0  0  0  0  0  0  0  0  0  0
   -8.0325    5.3050    0.0000 N   0  0  0  0  0  0  0  0  0  0  0  0
   -6.9177    4.3013    0.0000 C   0  0  0  0  0  0  0  0  0  0  0  0
   -7.2296    2.8340    0.0000 C   0  0  0  0  0  0  0  0  0  0  0  0
   -6.1149    1.8303    0.0000 C   0  0  0  0  0  0  0  0  0  0  0  0
   -4.6883    2.2939    0.0000 C   0  0  0  0  0  0  0  0  0  0  0  0
   -3.5736    1.2902    0.0000 O   0  0  0  0  0  0  0  0  0  0  0  0
   -2.1470    1.7537    0.0000 C   0  0  0  0  0  0  0  0  0  0  0  0
   -1.8351    3.2209    0.0000 N   0  0  0  0  0  0  0  0  0  0  0  0
   -0.4086    3.6844    0.0000 C   0  0  0  0  0  0  0  0  0  0  0  0
    0.7062    2.6807    0.0000 N   0  0  0  0  0  0  0  0  0  0  0  0
    0.3943    1.2135    0.0000 C   0  0  0  0  0  0  0  0  0  0  0  0
    1.2760    0.0000    0.0000 C   0  0  0  0  0  0  0  0  0  0  0  0
    0.3943   -1.2135    0.0000 C   0  0  0  0  0  0  0  0  0  0  0  0
   -1.0323   -0.7500    0.0000 S   0  0  0  0  0  0  0  0  0  0  0  0
   -1.0323    0.7500    0.0000 C   0  0  0  0  0  0  0  0  0  0  0  0
   -4.3764    3.7611    0.0000 C   0  0  0  0  0  0  0  0  0  0  0  0
   -2.9499    4.2246    0.0000 F   0  0  0  0  0  0  0  0  0  0  0  0
   -5.4912    4.7648    0.0000 C   0  0  0  0  0  0  0  0  0  0  0  0
  1  2  1  0
  2  3  1  0
  3  4  1  0
  4  5  1  0
  5  6  1  0
  6  7  2  0
  7  8  1  0
  8  9  2  0
  8 10  2  0
  8 11  1  0
 11 12  1  0
 12 13  2  0
 13 14  1  0
 14 15  2  0
 15 16  1  0
 15 17  1  0
 17 18  2  0
  6 19  1  0
 19 20  1  0
 20 21  2  0
 21 22  1  0
 22 23  2  0
 23 24  1  0
 24 25  1  0
 25 26  2  0
 26 27  1  0
 27 28  2  0
 28 29  1  0
 29 30  1  0
 30 31  2  0
 31 32  1  0
 32 33  1  0
 23 34  1  0
 34 35  1  0
 34 36  2  0
 18 12  1  0
 36 20  1  0
 33 25  1  0
 33 29  2  0
M  END
>  <Compound_ID>  (47) 
CHEMBL4776160

>  <Molecule Name>  (47) 
nan

>  <Molecular Weight>  (47) 
530.62

>  <AlogP>  (47) 
6.68

>  <Smiles>  (47) 
CCCCC/C(=N\S(=O)(=O)Cc1ccc(F)cc1)Nc1ccc(Oc2ncnc3ccsc23)c(F)c1

>  <Standard Type>  (47) 
IC50

>  <Standard Relation>  (47) 
'='

>  <Standard Units>  (47) 
nM

>  <Standard Value>  (47) 
42.48

>  <Assay ChEMBL ID>  (47) 
CHEMBL4771042

>  <Assay Description>  (47) 
Inhibition of c-MET (unknown origin) using poly (Glu, Tyr)4:1 as substrate in presence of ATP measured after 30 mins by HTRF assay

>  <BAO Format ID>  (47) 
BAO_0000357

>  <BAO Label>  (47) 
single protein format

>  <Assay Organism>  (47) 
Homo sapiens

>  <Target ChEMBL ID>  (47) 
CHEMBL3717

>  <Target Name>  (47) 
Hepatocyte growth factor receptor

>  <Target Organism>  (47) 
Homo sapiens

>  <Target Type>  (47) 
SINGLE PROTEIN

>  <Document ChEMBL ID>  (47) 
CHEMBL4765349

>  <Source Description>  (47) 
Scientific Literature

>  <Document Journal>  (47) 
Eur J Med Chem

>  <Document Year>  (47) 
2020.0

>  <Active>  (47) 
1.0

>  <bits>  (47) 
<rdkit.DataStructs.cDataStructs.ExplicitBitVect object at 0x000001CFA8034C80>

>  <Group>  (47) 
G1

$$$$

     RDKit          2D

 44 50  0  0  0  0  0  0  0  0999 V2000
    4.6740   -4.8322    0.0000 C   0  0  0  0  0  0  0  0  0  0  0  0
    3.3037   -4.2221    0.0000 N   0  0  0  0  0  0  0  0  0  0  0  0
    2.9918   -2.7549    0.0000 C   0  0  0  0  0  0  0  0  0  0  0  0
    1.5000   -2.5981    0.0000 C   0  0  0  0  0  0  0  0  0  0  0  0
    0.7500   -1.2990    0.0000 C   0  0  0  0  0  0  0  0  0  0  0  0
    1.5000    0.0000    0.0000 C   0  0  0  0  0  0  0  0  0  0  0  0
    0.7500    1.2990    0.0000 N   0  0  0  0  0  0  0  0  0  0  0  0
   -0.7500    1.2990    0.0000 C   0  0  0  0  0  0  0  0  0  0  0  0
   -1.7537    2.4138    0.0000 N   0  0  0  0  0  0  0  0  0  0  0  0
   -3.1240    1.8037    0.0000 N   0  0  0  0  0  0  0  0  0  0  0  0
   -2.9672    0.3119    0.0000 N   0  0  0  0  0  0  0  0  0  0  0  0
   -4.0819   -0.6918    0.0000 C   0  0  0  0  0  0  0  0  0  0  0  0
   -5.5085   -0.2283    0.0000 C   0  0  0  0  0  0  0  0  0  0  0  0
   -5.8204    1.2389    0.0000 C   0  0  0  0  0  0  0  0  0  0  0  0
   -7.2470    1.7024    0.0000 N   0  0  0  0  0  0  0  0  0  0  0  0
   -7.5588    3.1697    0.0000 C   0  0  0  0  0  0  0  0  0  0  0  0
   -6.4441    4.1734    0.0000 N   0  0  0  0  0  0  0  0  0  0  0  0
   -6.7560    5.6406    0.0000 C   0  0  0  0  0  0  0  0  0  0  0  0
   -8.1826    6.1041    0.0000 C   0  0  0  0  0  0  0  0  0  0  0  0
   -8.4944    7.5713    0.0000 C   0  0  0  0  0  0  0  0  0  0  0  0
   -7.3797    8.5750    0.0000 C   0  0  0  0  0  0  0  0  0  0  0  0
   -7.6916   10.0422    0.0000 C   0  0  0  0  0  0  0  0  0  0  0  0
   -9.1182   10.5058    0.0000 C   0  0  0  0  0  0  0  0  0  0  0  0
   -9.4300   11.9730    0.0000 O   0  0  0  0  0  0  0  0  0  0  0  0
   -8.3153   12.9767    0.0000 C   0  0  0  0  0  0  0  0  0  0  0  0
   -8.6272   14.4439    0.0000 C   0  0  0  0  0  0  0  0  0  0  0  0
   -7.5125   15.4476    0.0000 N   0  0  0  0  0  0  0  0  0  0  0  0
   -6.0859   14.9841    0.0000 C   0  0  0  0  0  0  0  0  0  0  0  0
   -4.9712   15.9878    0.0000 C   0  0  0  0  0  0  0  0  0  0  0  0
   -5.2830   17.4550    0.0000 O   0  0  0  0  0  0  0  0  0  0  0  0
   -6.7096   17.9185    0.0000 C   0  0  0  0  0  0  0  0  0  0  0  0
   -7.8243   16.9148    0.0000 C   0  0  0  0  0  0  0  0  0  0  0  0
  -10.2329    9.5021    0.0000 C   0  0  0  0  0  0  0  0  0  0  0  0
  -11.6595    9.9656    0.0000 F   0  0  0  0  0  0  0  0  0  0  0  0
   -9.9210    8.0349    0.0000 C   0  0  0  0  0  0  0  0  0  0  0  0
   -9.2973    5.1004    0.0000 C   0  0  0  0  0  0  0  0  0  0  0  0
   -8.9854    3.6332    0.0000 N   0  0  0  0  0  0  0  0  0  0  0  0
   -8.3617    0.6987    0.0000 C   0  0  0  0  0  0  0  0  0  0  0  0
   -8.0498   -0.7685    0.0000 C   0  0  0  0  0  0  0  0  0  0  0  0
   -6.6232   -1.2320    0.0000 O   0  0  0  0  0  0  0  0  0  0  0  0
   -1.5000    0.0000    0.0000 C   0  0  0  0  0  0  0  0  0  0  0  0
   -0.7500   -1.2990    0.0000 N   0  0  0  0  0  0  0  0  0  0  0  0
    0.8899   -3.9684    0.0000 C   0  0  0  0  0  0  0  0  0  0  0  0
    2.0046   -4.9721    0.0000 N   0  0  0  0  0  0  0  0  0  0  0  0
  1  2  1  0
  2  3  1  0
  3  4  2  0
  4  5  1  0
  5  6  2  0
  6  7  1  0
  7  8  2  0
  8  9  1  0
  9 10  2  0
 10 11  1  0
 11 12  1  0
 13 12  1  1
 13 14  1  0
 14 15  1  0
 15 16  1  0
 16 17  2  0
 17 18  1  0
 18 19  2  0
 19 20  1  0
 20 21  2  0
 21 22  1  0
 22 23  2  0
 23 24  1  0
 24 25  1  0
 25 26  1  0
 26 27  1  0
 27 28  1  0
 28 29  1  0
 29 30  1  0
 30 31  1  0
 31 32  1  0
 23 33  1  0
 33 34  1  0
 33 35  2  0
 19 36  1  0
 36 37  2  0
 15 38  1  0
 38 39  1  0
 39 40  1  0
 11 41  1  0
 41 42  2  0
  4 43  1  0
 43 44  2  0
 44  2  1  0
 42  5  1  0
 41  8  1  0
 40 13  1  0
 37 16  1  0
 35 20  1  0
 32 27  1  0
M  END
>  <Compound_ID>  (48) 
CHEMBL3944274

>  <Molecule Name>  (48) 
nan

>  <Molecular Weight>  (48) 
601.65

>  <AlogP>  (48) 
1.83

>  <Smiles>  (48) 
Cn1cc(-c2cnc3nnn(C[C@@H]4CN(c5ncc(-c6ccc(OCCN7CCOCC7)c(F)c6)cn5)CCO4)c3n2)cn1

>  <Standard Type>  (48) 
IC50

>  <Standard Relation>  (48) 
'='

>  <Standard Units>  (48) 
nM

>  <Standard Value>  (48) 
15.0

>  <Assay ChEMBL ID>  (48) 
CHEMBL3888808

>  <Assay Description>  (48) 
Lanthanide Fluoro-Immunoassay: The c-Met kinase inhibitory activity was analyzed using dissociation enhanced lanthanide fluoro-immunoassay (DELFIA, Perkin Elmer), which is a kind of time-resolved fluorescence (TRF). 10 mL of the compound prepared in the present invention, as a test compound, was put in a Greiner 96-well V-shaped bottom plate, and a tyrosin kinase buffer (20 mL) mixed with a c-Met enzyme was added thereto, and then the enzyme and the test compound were stirred for 15 minutes, followed by culturing. An ATP solution (10 mL) was added thereto to proceed with a kinase reaction at room temperature for 30 minutes, and then a 50 mM ethylene diamine acetic acid solution (EDTA, 40 mL) was added to stop the reaction. After that, the reaction mixture was transferred to a plate coated with Streptavidin, followed by culturing under shaking. After 2 hours, the cultured material was washed three times with a PBS-T buffer (PBS 0.05% Tween 20). The europium-labeled anti-phosphotyrosine antibody was diluted to 1:2,500, and 100 mL of the diluent was added per well, followed by culturing under shaking. After 1 hour, the cultured material was washed three times with a PBS-T buffer (PBS 0.05% Tween 20). 100 mL of an enhancement solution was added, followed by shaking culturing for 5 minutes, and then the reaction material was read out within a wavelength range of 615/665 nm using a Wallac Envision 2103 device.

>  <BAO Format ID>  (48) 
BAO_0000357

>  <BAO Label>  (48) 
single protein format

>  <Assay Organism>  (48) 
Homo sapiens

>  <Target ChEMBL ID>  (48) 
CHEMBL3717

>  <Target Name>  (48) 
Hepatocyte growth factor receptor

>  <Target Organism>  (48) 
Homo sapiens

>  <Target Type>  (48) 
SINGLE PROTEIN

>  <Document ChEMBL ID>  (48) 
CHEMBL3886840

>  <Source Description>  (48) 
BindingDB Database

>  <Document Journal>  (48) 
nan

>  <Document Year>  (48) 
2016.0

>  <Active>  (48) 
1.0

>  <bits>  (48) 
<rdkit.DataStructs.cDataStructs.ExplicitBitVect object at 0x000001CFA8034C10>

>  <Group>  (48) 
G1

$$$$

     RDKit          2D

 25 27  0  0  0  0  0  0  0  0999 V2000
    3.7500   -1.2990    0.0000 C   0  0  0  0  0  0  0  0  0  0  0  0
    3.0000    0.0000    0.0000 O   0  0  0  0  0  0  0  0  0  0  0  0
    1.5000    0.0000    0.0000 C   0  0  0  0  0  0  0  0  0  0  0  0
    0.7500   -1.2990    0.0000 C   0  0  0  0  0  0  0  0  0  0  0  0
   -0.7500   -1.2990    0.0000 C   0  0  0  0  0  0  0  0  0  0  0  0
   -1.5000    0.0000    0.0000 C   0  0  0  0  0  0  0  0  0  0  0  0
   -0.7500    1.2990    0.0000 C   0  0  0  0  0  0  0  0  0  0  0  0
    0.7500    1.2990    0.0000 C   0  0  0  0  0  0  0  0  0  0  0  0
    1.5000    2.5981    0.0000 Cl  0  0  0  0  0  0  0  0  0  0  0  0
   -1.7537    2.4138    0.0000 C   0  0  0  0  0  0  0  0  0  0  0  0
   -1.4418    3.8810    0.0000 N   0  0  0  0  0  0  0  0  0  0  0  0
   -2.5565    4.8847    0.0000 N   0  0  0  0  0  0  0  0  0  0  0  0
   -2.2447    6.3519    0.0000 C   0  0  0  0  0  0  0  0  0  0  0  0
   -0.8181    6.8154    0.0000 O   0  0  0  0  0  0  0  0  0  0  0  0
   -3.3594    7.3556    0.0000 C   0  0  0  0  0  0  0  0  0  0  0  0
   -3.0475    8.8228    0.0000 C   0  0  0  0  0  0  0  0  0  0  0  0
   -1.6209    9.2863    0.0000 C   0  0  0  0  0  0  0  0  0  0  0  0
   -1.3091   10.7536    0.0000 C   0  0  0  0  0  0  0  0  0  0  0  0
   -2.4238   11.7573    0.0000 C   0  0  0  0  0  0  0  0  0  0  0  0
   -2.1119   13.2245    0.0000 O   0  0  0  0  0  0  0  0  0  0  0  0
   -3.8504   11.2937    0.0000 C   0  0  0  0  0  0  0  0  0  0  0  0
   -4.1622    9.8265    0.0000 C   0  0  0  0  0  0  0  0  0  0  0  0
   -3.1240    1.8037    0.0000 C   0  0  0  0  0  0  0  0  0  0  0  0
   -4.4231    2.5537    0.0000 O   0  0  0  0  0  0  0  0  0  0  0  0
   -2.9672    0.3119    0.0000 N   0  0  0  0  0  0  0  0  0  0  0  0
  1  2  1  0
  2  3  1  0
  3  4  2  0
  4  5  1  0
  5  6  2  0
  6  7  1  0
  7  8  2  0
  8  9  1  0
  7 10  1  0
 10 11  2  0
 11 12  1  0
 12 13  1  0
 13 14  2  0
 13 15  1  0
 15 16  1  0
 16 17  2  0
 17 18  1  0
 18 19  2  0
 19 20  1  0
 19 21  1  0
 21 22  2  0
 10 23  1  0
 23 24  2  0
 23 25  1  0
  8  3  1  0
 22 16  1  0
 25  6  1  0
M  END
>  <Compound_ID>  (49) 
CHEMBL1822973

>  <Molecule Name>  (49) 
nan

>  <Molecular Weight>  (49) 
359.77

>  <AlogP>  (49) 
2.07

>  <Smiles>  (49) 
COc1ccc2c(c1Cl)/C(=N/NC(=O)Cc1ccc(O)cc1)C(=O)N2

>  <Standard Type>  (49) 
IC50

>  <Standard Relation>  (49) 
'='

>  <Standard Units>  (49) 
nM

>  <Standard Value>  (49) 
21.0

>  <Assay ChEMBL ID>  (49) 
CHEMBL1826790

>  <Assay Description>  (49) 
Inhibition of human c-MET

>  <BAO Format ID>  (49) 
BAO_0000357

>  <BAO Label>  (49) 
single protein format

>  <Assay Organism>  (49) 
Homo sapiens

>  <Target ChEMBL ID>  (49) 
CHEMBL3717

>  <Target Name>  (49) 
Hepatocyte growth factor receptor

>  <Target Organism>  (49) 
Homo sapiens

>  <Target Type>  (49) 
SINGLE PROTEIN

>  <Document ChEMBL ID>  (49) 
CHEMBL1821609

>  <Source Description>  (49) 
Scientific Literature

>  <Document Journal>  (49) 
Eur J Med Chem

>  <Document Year>  (49) 
2011.0

>  <Active>  (49) 
1.0

>  <bits>  (49) 
<rdkit.DataStructs.cDataStructs.ExplicitBitVect object at 0x000001CFA8034BA0>

>  <Group>  (49) 
G1

$$$$

     RDKit          2D

 40 44  0  0  0  0  0  0  0  0999 V2000
    5.7997    1.0344    0.0000 C   0  0  0  0  0  0  0  0  0  0  0  0
    4.7960    2.1491    0.0000 C   0  0  0  0  0  0  0  0  0  0  0  0
    5.2595    3.5757    0.0000 C   0  0  0  0  0  0  0  0  0  0  0  0
    6.7267    3.8876    0.0000 C   0  0  0  0  0  0  0  0  0  0  0  0
    7.7304    2.7729    0.0000 C   0  0  0  0  0  0  0  0  0  0  0  0
    7.2669    1.3463    0.0000 F   0  0  0  0  0  0  0  0  0  0  0  0
    9.1976    3.0847    0.0000 C   0  0  0  0  0  0  0  0  0  0  0  0
   10.2013    1.9700    0.0000 F   0  0  0  0  0  0  0  0  0  0  0  0
    9.6612    4.5113    0.0000 C   0  0  0  0  0  0  0  0  0  0  0  0
    8.6575    5.6260    0.0000 C   0  0  0  0  0  0  0  0  0  0  0  0
    9.1210    7.0526    0.0000 F   0  0  0  0  0  0  0  0  0  0  0  0
    7.1902    5.3142    0.0000 C   0  0  0  0  0  0  0  0  0  0  0  0
    6.1865    6.4289    0.0000 F   0  0  0  0  0  0  0  0  0  0  0  0
    3.3287    1.8373    0.0000 N   0  0  0  0  0  0  0  0  0  0  0  0
    2.3250    2.9520    0.0000 C   0  0  0  0  0  0  0  0  0  0  0  0
    2.7886    4.3786    0.0000 C   0  0  0  0  0  0  0  0  0  0  0  0
    1.7849    5.4933    0.0000 C   0  0  0  0  0  0  0  0  0  0  0  0
    0.3177    5.1814    0.0000 N   0  0  0  0  0  0  0  0  0  0  0  0
   -0.1459    3.7548    0.0000 C   0  0  0  0  0  0  0  0  0  0  0  0
   -1.6131    3.4430    0.0000 O   0  0  0  0  0  0  0  0  0  0  0  0
    0.8578    2.6401    0.0000 C   0  0  0  0  0  0  0  0  0  0  0  0
    0.3943    1.2135    0.0000 C   0  0  0  0  0  0  0  0  0  0  0  0
    1.2760    0.0000    0.0000 N   0  0  0  0  0  0  0  0  0  0  0  0
    0.3943   -1.2135    0.0000 C   0  0  0  0  0  0  0  0  0  0  0  0
    0.7062   -2.6807    0.0000 C   0  0  0  0  0  0  0  0  0  0  0  0
   -0.4086   -3.6844    0.0000 C   0  0  0  0  0  0  0  0  0  0  0  0
   -1.8351   -3.2209    0.0000 C   0  0  0  0  0  0  0  0  0  0  0  0
   -2.1470   -1.7537    0.0000 C   0  0  0  0  0  0  0  0  0  0  0  0
   -1.0323   -0.7500    0.0000 C   0  0  0  0  0  0  0  0  0  0  0  0
   -1.0323    0.7500    0.0000 N   0  0  0  0  0  0  0  0  0  0  0  0
   -2.7168   -4.4344    0.0000 C   0  0  0  0  0  0  0  0  0  0  0  0
   -4.2168   -4.4344    0.0000 O   0  0  0  0  0  0  0  0  0  0  0  0
   -1.8351   -5.6480    0.0000 N   0  0  0  0  0  0  0  0  0  0  0  0
   -2.2987   -7.0746    0.0000 C   0  0  0  0  0  0  0  0  0  0  0  0
   -3.7659   -7.3864    0.0000 C   0  0  0  0  0  0  0  0  0  0  0  0
   -4.2294   -8.8130    0.0000 N   0  0  0  0  0  0  0  0  0  0  0  0
   -5.6966   -9.1249    0.0000 C   0  0  0  0  0  0  0  0  0  0  0  0
   -3.2257   -9.9277    0.0000 C   0  0  0  0  0  0  0  0  0  0  0  0
   -0.4086   -5.1844    0.0000 C   0  0  0  0  0  0  0  0  0  0  0  0
    0.8050   -6.0661    0.0000 O   0  0  0  0  0  0  0  0  0  0  0  0
  2  1  1  6
  2  3  1  0
  3  4  1  0
  4  5  2  0
  5  6  1  0
  5  7  1  0
  7  8  1  0
  7  9  2  0
  9 10  1  0
 10 11  1  0
 10 12  2  0
 12 13  1  0
  2 14  1  0
 14 15  1  0
 15 16  1  0
 16 17  2  0
 17 18  1  0
 18 19  1  0
 19 20  2  0
 19 21  1  0
 21 22  1  0
 22 23  2  0
 23 24  1  0
 24 25  2  0
 25 26  1  0
 26 27  2  0
 27 28  1  0
 28 29  2  0
 29 30  1  0
 27 31  1  0
 31 32  2  0
 31 33  1  0
 33 34  1  0
 34 35  1  0
 35 36  1  0
 36 37  1  0
 36 38  1  0
 33 39  1  0
 39 40  2  0
 12  4  1  0
 21 15  2  0
 30 22  1  0
 29 24  1  0
 39 26  1  0
M  END
>  <Compound_ID>  (50) 
CHEMBL3671310

>  <Molecule Name>  (50) 
nan

>  <Molecular Weight>  (50) 
556.52

>  <AlogP>  (50) 
3.68

>  <Smiles>  (50) 
C[C@@H](Cc1c(F)c(F)cc(F)c1F)Nc1cc[nH]c(=O)c1-c1nc2cc3c(cc2[nH]1)C(=O)N(CCN(C)C)C3=O

>  <Standard Type>  (50) 
IC50

>  <Standard Relation>  (50) 
'='

>  <Standard Units>  (50) 
nM

>  <Standard Value>  (50) 
14.03

>  <Assay ChEMBL ID>  (50) 
CHEMBL3707777

>  <Assay Description>  (50) 
In Vitro Kinase Activity Assay: Compounds to be tested were dissolved in 100% DMSO in a range of concentrations from 10-8 to 10-3 M including negative control (DMSO), then diluted with Kinase Buffer (50 mM HEPES, pH 7.5, 1 mM EGTA, 10 mM MgCl2, 0.01% Tween-20, and 2 mM DTT, added fresh) to 4x the final concentration. The final curve included 11 concentrations (10-11 to 10-5 M) plus negative control DMSO tested in triplicate.Kinase and ATP concentrations necessary for optimal activity were determined in separate experiments. (Table 2). Briefly, increasing concentrations of kinase were incubated in a fixed concentration of ATP (200 uM) in Kinase Buffer to determine maximal activity at various time points (30-120 min). The concentration of kinase that resulted in maximal activity with the shortest incubation time was then incubated in Kinase Buffer with increasing concentrations of ATP.

>  <BAO Format ID>  (50) 
BAO_0000357

>  <BAO Label>  (50) 
single protein format

>  <Assay Organism>  (50) 
Homo sapiens

>  <Target ChEMBL ID>  (50) 
CHEMBL3717

>  <Target Name>  (50) 
Hepatocyte growth factor receptor

>  <Target Organism>  (50) 
Homo sapiens

>  <Target Type>  (50) 
SINGLE PROTEIN

>  <Document ChEMBL ID>  (50) 
CHEMBL3639188

>  <Source Description>  (50) 
BindingDB Database

>  <Document Journal>  (50) 
nan

>  <Document Year>  (50) 
2014.0

>  <Active>  (50) 
1.0

>  <bits>  (50) 
<rdkit.DataStructs.cDataStructs.ExplicitBitVect object at 0x000001CFA8034B30>

>  <Group>  (50) 
G1

$$$$
