
     RDKit          2D

 33 36  0  0  0  0  0  0  0  0999 V2000
    3.0000    0.0000    0.0000 C   0  0  0  0  0  0  0  0  0  0  0  0
    1.5000    0.0000    0.0000 C   0  0  0  0  0  0  0  0  0  0  0  0
    0.7500   -1.2990    0.0000 N   0  0  0  0  0  0  0  0  0  0  0  0
   -0.7500   -1.2990    0.0000 C   0  0  0  0  0  0  0  0  0  0  0  0
   -1.5000   -2.5981    0.0000 N   0  0  0  0  0  0  0  0  0  0  0  0
   -3.0000   -2.5981    0.0000 C   0  0  0  0  0  0  0  0  0  0  0  0
   -3.8817   -3.8116    0.0000 N   0  0  0  0  0  0  0  0  0  0  0  0
   -5.3083   -3.3481    0.0000 C   0  0  0  0  0  0  0  0  0  0  0  0
   -5.3083   -1.8481    0.0000 C   0  0  0  0  0  0  0  0  0  0  0  0
   -6.5218   -0.9664    0.0000 C   0  0  0  0  0  0  0  0  0  0  0  0
   -7.8921   -1.5765    0.0000 O   0  0  0  0  0  0  0  0  0  0  0  0
   -6.3650    0.5254    0.0000 N   0  0  0  0  0  0  0  0  0  0  0  0
   -7.5785    1.4071    0.0000 C   0  0  0  0  0  0  0  0  0  0  0  0
   -7.4217    2.8988    0.0000 C   0  0  0  0  0  0  0  0  0  0  0  0
   -6.0514    3.5090    0.0000 C   0  0  0  0  0  0  0  0  0  0  0  0
   -8.6353    3.7805    0.0000 C   0  0  0  0  0  0  0  0  0  0  0  0
  -10.0056    3.1704    0.0000 C   0  0  0  0  0  0  0  0  0  0  0  0
  -10.1624    1.6786    0.0000 C   0  0  0  0  0  0  0  0  0  0  0  0
   -8.9488    0.7970    0.0000 C   0  0  0  0  0  0  0  0  0  0  0  0
   -9.1056   -0.6948    0.0000 Cl  0  0  0  0  0  0  0  0  0  0  0  0
   -3.8817   -1.3846    0.0000 S   0  0  0  0  0  0  0  0  0  0  0  0
   -1.5000    0.0000    0.0000 C   0  0  0  0  0  0  0  0  0  0  0  0
   -0.7500    1.2990    0.0000 C   0  0  0  0  0  0  0  0  0  0  0  0
   -1.5000    2.5981    0.0000 N   0  0  0  0  0  0  0  0  0  0  0  0
   -0.7500    3.8971    0.0000 C   0  0  0  0  0  0  0  0  0  0  0  0
   -1.5000    5.1962    0.0000 C   0  0  0  0  0  0  0  0  0  0  0  0
   -3.0000    5.1962    0.0000 N   0  0  0  0  0  0  0  0  0  0  0  0
   -3.7500    6.4952    0.0000 C   0  0  0  0  0  0  0  0  0  0  0  0
   -3.0000    7.7942    0.0000 C   0  0  0  0  0  0  0  0  0  0  0  0
   -3.7500    9.0933    0.0000 O   0  0  0  0  0  0  0  0  0  0  0  0
   -3.7500    3.8971    0.0000 C   0  0  0  0  0  0  0  0  0  0  0  0
   -3.0000    2.5981    0.0000 C   0  0  0  0  0  0  0  0  0  0  0  0
    0.7500    1.2990    0.0000 N   0  0  0  0  0  0  0  0  0  0  0  0
  1  2  1  0
  2  3  2  0
  3  4  1  0
  4  5  1  0
  5  6  1  0
  6  7  2  0
  7  8  1  0
  8  9  2  0
  9 10  1  0
 10 11  2  0
 10 12  1  0
 12 13  1  0
 13 14  2  0
 14 15  1  0
 14 16  1  0
 16 17  2  0
 17 18  1  0
 18 19  2  0
 19 20  1  0
  9 21  1  0
  4 22  2  0
 22 23  1  0
 23 24  1  0
 24 25  1  0
 25 26  1  0
 26 27  1  0
 27 28  1  0
 28 29  1  0
 29 30  1  0
 27 31  1  0
 31 32  1  0
 23 33  2  0
 33  2  1  0
 21  6  1  0
 32 24  1  0
 19 13  1  0
M  END
>  <Compound_ID>  (1) 
CHEMBL1421

>  <Active>  (1) 
1

>  <Smiles>  (1) 
Cc1nc(Nc2ncc(C(=O)Nc3c(C)cccc3Cl)s2)cc(N2CCN(CCO)CC2)n1

>  <canonical_smi>  (1) 
Cc1nc(Nc2ncc(C(=O)Nc3c(C)cccc3Cl)s2)cc(N2CCN(CCO)CC2)n1

>  <Set>  (1) 
G1 active

>  <Set_type>  (1) 
G1

>  <MW>  (1) 
488.02

>  <HBD>  (1) 
3

>  <HBA>  (1) 
8

>  <NRB>  (1) 
7

>  <NR>  (1) 
4

>  <NAR>  (1) 
3

>  <PSA>  (1) 
106.51

>  <Standard Type>  (1) 
nan

>  <Standard Relation>  (1) 
nan

>  <Standard Units>  (1) 
nan

>  <Standard Value>  (1) 
nan

>  <Assay ChEMBL ID>  (1) 
nan

>  <Assay Description>  (1) 
nan

>  <BAO Label>  (1) 
nan

>  <bits>  (1) 
<rdkit.DataStructs.cDataStructs.ExplicitBitVect object at 0x000002A7EE0EE730>

>  <Group>  (1) 
G1

$$$$

     RDKit          2D

 32 35  0  0  0  0  0  0  0  0999 V2000
    3.0000    0.0000    0.0000 C   0  0  0  0  0  0  0  0  0  0  0  0
    1.5000    0.0000    0.0000 N   0  0  0  0  0  0  0  0  0  0  0  0
    0.7500   -1.2990    0.0000 C   0  0  0  0  0  0  0  0  0  0  0  0
   -0.7500   -1.2990    0.0000 C   0  0  0  0  0  0  0  0  0  0  0  0
   -1.5000   -2.5981    0.0000 C   0  0  0  0  0  0  0  0  0  0  0  0
   -3.0000   -2.5981    0.0000 C   0  0  0  0  0  0  0  0  0  0  0  0
   -3.7500   -3.8971    0.0000 C   0  0  0  0  0  0  0  0  0  0  0  0
   -3.0000   -5.1962    0.0000 C   0  0  0  0  0  0  0  0  0  0  0  0
   -3.7500   -6.4952    0.0000 N   0  0  0  0  0  0  0  0  0  0  0  0
   -5.2500   -6.4952    0.0000 C   0  0  0  0  0  0  0  0  0  0  0  0
   -6.0000   -5.1962    0.0000 O   0  0  0  0  0  0  0  0  0  0  0  0
   -6.0000   -7.7942    0.0000 C   0  0  0  0  0  0  0  0  0  0  0  0
   -5.3899   -9.1645    0.0000 N   0  0  0  0  0  0  0  0  0  0  0  0
   -6.5046  -10.1682    0.0000 C   0  0  0  0  0  0  0  0  0  0  0  0
   -6.3478  -11.6600    0.0000 C   0  0  0  0  0  0  0  0  0  0  0  0
   -6.1910  -13.1518    0.0000 N   0  0  0  0  0  0  0  0  0  0  0  0
   -7.8037   -9.4182    0.0000 C   0  0  0  0  0  0  0  0  0  0  0  0
   -7.4918   -7.9510    0.0000 N   0  0  0  0  0  0  0  0  0  0  0  0
   -1.5000   -5.1962    0.0000 C   0  0  0  0  0  0  0  0  0  0  0  0
   -0.7500   -6.4952    0.0000 C   0  0  0  0  0  0  0  0  0  0  0  0
   -1.5000   -7.7942    0.0000 C   0  0  0  0  0  0  0  0  0  0  0  0
   -0.7500   -9.0933    0.0000 C   0  0  0  0  0  0  0  0  0  0  0  0
    0.7500   -9.0933    0.0000 C   0  0  0  0  0  0  0  0  0  0  0  0
    1.5000   -7.7942    0.0000 C   0  0  0  0  0  0  0  0  0  0  0  0
    0.7500   -6.4952    0.0000 C   0  0  0  0  0  0  0  0  0  0  0  0
   -0.7500   -3.8971    0.0000 C   0  0  0  0  0  0  0  0  0  0  0  0
   -1.5000    0.0000    0.0000 C   0  0  0  0  0  0  0  0  0  0  0  0
   -0.7500    1.2990    0.0000 N   0  0  0  0  0  0  0  0  0  0  0  0
   -1.5000    2.5981    0.0000 C   0  0  0  0  0  0  0  0  0  0  0  0
    0.7500    1.2990    0.0000 S   0  0  0  0  0  0  0  0  0  0  0  0
    0.4895    2.7762    0.0000 O   0  0  0  0  0  0  0  0  0  0  0  0
    2.1595    1.8121    0.0000 O   0  0  0  0  0  0  0  0  0  0  0  0
  1  2  1  0
  2  3  1  0
  3  4  1  0
  4  5  1  0
  5  6  2  0
  6  7  1  0
  7  8  2  0
  8  9  1  0
  9 10  1  0
 10 11  2  0
 10 12  1  0
 12 13  2  0
 13 14  1  0
 14 15  1  0
 15 16  3  0
 14 17  2  0
 17 18  1  0
  8 19  1  0
 19 20  1  0
 20 21  2  0
 21 22  1  0
 22 23  1  0
 23 24  1  0
 24 25  1  0
 19 26  2  0
  4 27  1  0
 27 28  1  0
 28 29  1  0
 28 30  1  0
 30 31  2  0
 30 32  2  0
 30  2  1  0
 26  5  1  0
 18 12  1  0
 25 20  1  0
M  END
>  <Compound_ID>  (2) 
CHEMBL1171607

>  <Active>  (2) 
1

>  <Smiles>  (2) 
CN1CC(c2ccc(NC(=O)c3nc(C#N)c[nH]3)c(C3=CCCCC3)c2)CN(C)S1(=O)=O

>  <canonical_smi>  (2) 
CN1CC(c2ccc(NC(=O)c3nc(C#N)c[nH]3)c(C3=CCCCC3)c2)CN(C)S1(=O)=O

>  <Set>  (2) 
G1 active

>  <Set_type>  (2) 
G1

>  <MW>  (2) 
454.56

>  <HBD>  (2) 
2

>  <HBA>  (2) 
5

>  <NRB>  (2) 
4

>  <NR>  (2) 
4

>  <NAR>  (2) 
2

>  <PSA>  (2) 
122.19

>  <Standard Type>  (2) 
nan

>  <Standard Relation>  (2) 
nan

>  <Standard Units>  (2) 
nan

>  <Standard Value>  (2) 
nan

>  <Assay ChEMBL ID>  (2) 
nan

>  <Assay Description>  (2) 
nan

>  <BAO Label>  (2) 
nan

>  <bits>  (2) 
<rdkit.DataStructs.cDataStructs.ExplicitBitVect object at 0x000002A7EE0EE5E0>

>  <Group>  (2) 
G1

$$$$

     RDKit          2D

 30 33  0  0  0  0  0  0  0  0999 V2000
   -2.6401   -3.1891    0.0000 N   0  0  0  0  0  0  0  0  0  0  0  0
   -1.2135   -2.7256    0.0000 C   0  0  0  0  0  0  0  0  0  0  0  0
   -0.0000   -3.6073    0.0000 N   0  0  0  0  0  0  0  0  0  0  0  0
    1.2135   -2.7256    0.0000 N   0  0  0  0  0  0  0  0  0  0  0  0
    0.7500   -1.2990    0.0000 C   0  0  0  0  0  0  0  0  0  0  0  0
    1.5000    0.0000    0.0000 N   0  0  0  0  0  0  0  0  0  0  0  0
    0.7500    1.2990    0.0000 C   0  0  0  0  0  0  0  0  0  0  0  0
   -0.7500    1.2990    0.0000 C   0  0  0  0  0  0  0  0  0  0  0  0
   -1.5000    0.0000    0.0000 C   0  0  0  0  0  0  0  0  0  0  0  0
   -3.0000    0.0000    0.0000 C   0  0  0  0  0  0  0  0  0  0  0  0
   -3.7500    1.2990    0.0000 C   0  0  0  0  0  0  0  0  0  0  0  0
   -5.2500    1.2990    0.0000 C   0  0  0  0  0  0  0  0  0  0  0  0
   -6.0000    0.0000    0.0000 C   0  0  0  0  0  0  0  0  0  0  0  0
   -7.5000    0.0000    0.0000 N   0  0  0  0  0  0  0  0  0  0  0  0
   -8.2500    1.2990    0.0000 C   0  0  0  0  0  0  0  0  0  0  0  0
   -7.5000    2.5981    0.0000 O   0  0  0  0  0  0  0  0  0  0  0  0
   -9.7500    1.2990    0.0000 N   0  0  0  0  0  0  0  0  0  0  0  0
  -10.5000    2.5981    0.0000 C   0  0  0  0  0  0  0  0  0  0  0  0
   -9.7500    3.8971    0.0000 C   0  0  0  0  0  0  0  0  0  0  0  0
  -10.5000    5.1962    0.0000 C   0  0  0  0  0  0  0  0  0  0  0  0
  -12.0000    5.1962    0.0000 C   0  0  0  0  0  0  0  0  0  0  0  0
  -12.7500    3.8971    0.0000 C   0  0  0  0  0  0  0  0  0  0  0  0
  -14.2500    3.8971    0.0000 C   0  0  0  0  0  0  0  0  0  0  0  0
  -15.7500    3.8971    0.0000 F   0  0  0  0  0  0  0  0  0  0  0  0
  -14.2500    5.3971    0.0000 F   0  0  0  0  0  0  0  0  0  0  0  0
  -14.2500    2.3971    0.0000 F   0  0  0  0  0  0  0  0  0  0  0  0
  -12.0000    2.5981    0.0000 C   0  0  0  0  0  0  0  0  0  0  0  0
   -5.2500   -1.2990    0.0000 C   0  0  0  0  0  0  0  0  0  0  0  0
   -3.7500   -1.2990    0.0000 C   0  0  0  0  0  0  0  0  0  0  0  0
   -0.7500   -1.2990    0.0000 C   0  0  0  0  0  0  0  0  0  0  0  0
  1  2  1  0
  2  3  2  0
  3  4  1  0
  4  5  1  0
  5  6  2  0
  6  7  1  0
  7  8  2  0
  8  9  1  0
  9 10  1  0
 10 11  2  0
 11 12  1  0
 12 13  2  0
 13 14  1  0
 14 15  1  0
 15 16  2  0
 15 17  1  0
 17 18  1  0
 18 19  2  0
 19 20  1  0
 20 21  2  0
 21 22  1  0
 22 23  1  0
 23 24  1  0
 23 25  1  0
 23 26  1  0
 22 27  2  0
 13 28  1  0
 28 29  2  0
  9 30  2  0
 30  2  1  0
 30  5  1  0
 29 10  1  0
 27 18  1  0
M  END
>  <Compound_ID>  (3) 
CHEMBL255955

>  <Active>  (3) 
1

>  <Smiles>  (3) 
Nc1n[nH]c2nccc(-c3ccc(NC(=O)Nc4cccc(C(F)(F)F)c4)cc3)c12

>  <canonical_smi>  (3) 
Nc1n[nH]c2nccc(-c3ccc(NC(=O)Nc4cccc(C(F)(F)F)c4)cc3)c12

>  <Set>  (3) 
G1 active

>  <Set_type>  (3) 
G1

>  <MW>  (3) 
412.38

>  <HBD>  (3) 
4

>  <HBA>  (3) 
4

>  <NRB>  (3) 
3

>  <NR>  (3) 
4

>  <NAR>  (3) 
4

>  <PSA>  (3) 
108.72

>  <Standard Type>  (3) 
nan

>  <Standard Relation>  (3) 
nan

>  <Standard Units>  (3) 
nan

>  <Standard Value>  (3) 
nan

>  <Assay ChEMBL ID>  (3) 
nan

>  <Assay Description>  (3) 
nan

>  <BAO Label>  (3) 
nan

>  <bits>  (3) 
<rdkit.DataStructs.cDataStructs.ExplicitBitVect object at 0x000002A7EE0EE570>

>  <Group>  (3) 
G1

$$$$

     RDKit          2D

 30 33  0  0  0  0  0  0  0  0999 V2000
   -8.3617   -0.6987    0.0000 C   0  0  0  0  0  0  0  0  0  0  0  0
   -8.0498    0.7685    0.0000 C   0  0  0  0  0  0  0  0  0  0  0  0
   -9.1645    1.7722    0.0000 C   0  0  0  0  0  0  0  0  0  0  0  0
   -8.8527    3.2394    0.0000 C   0  0  0  0  0  0  0  0  0  0  0  0
   -7.4261    3.7029    0.0000 C   0  0  0  0  0  0  0  0  0  0  0  0
   -6.3114    2.6992    0.0000 C   0  0  0  0  0  0  0  0  0  0  0  0
   -4.8848    3.1627    0.0000 C   0  0  0  0  0  0  0  0  0  0  0  0
   -6.6232    1.2320    0.0000 C   0  0  0  0  0  0  0  0  0  0  0  0
   -5.5085    0.2283    0.0000 C   0  0  0  0  0  0  0  0  0  0  0  0
   -4.0819    0.6918    0.0000 C   0  0  0  0  0  0  0  0  0  0  0  0
   -2.9672   -0.3119    0.0000 N   0  0  0  0  0  0  0  0  0  0  0  0
   -3.1240   -1.8037    0.0000 C   0  0  0  0  0  0  0  0  0  0  0  0
   -1.7537   -2.4138    0.0000 N   0  0  0  0  0  0  0  0  0  0  0  0
   -0.7500   -1.2990    0.0000 C   0  0  0  0  0  0  0  0  0  0  0  0
    0.7500   -1.2990    0.0000 C   0  0  0  0  0  0  0  0  0  0  0  0
    1.5000   -2.5981    0.0000 N   0  0  0  0  0  0  0  0  0  0  0  0
    3.0000   -2.5981    0.0000 C   0  0  0  0  0  0  0  0  0  0  0  0
    3.7500   -3.8971    0.0000 C   0  0  0  0  0  0  0  0  0  0  0  0
    5.2500   -3.8971    0.0000 C   0  0  0  0  0  0  0  0  0  0  0  0
    6.0000   -2.5981    0.0000 C   0  0  0  0  0  0  0  0  0  0  0  0
    7.5000   -2.5981    0.0000 P   0  0  0  0  0  0  0  0  0  0  0  0
    7.5000   -1.0981    0.0000 C   0  0  0  0  0  0  0  0  0  0  0  0
    7.5000   -4.0981    0.0000 C   0  0  0  0  0  0  0  0  0  0  0  0
    9.0000   -2.5981    0.0000 O   0  0  0  0  0  0  0  0  0  0  0  0
    5.2500   -1.2990    0.0000 C   0  0  0  0  0  0  0  0  0  0  0  0
    3.7500   -1.2990    0.0000 C   0  0  0  0  0  0  0  0  0  0  0  0
    1.5000    0.0000    0.0000 N   0  0  0  0  0  0  0  0  0  0  0  0
    0.7500    1.2990    0.0000 C   0  0  0  0  0  0  0  0  0  0  0  0
   -0.7500    1.2990    0.0000 N   0  0  0  0  0  0  0  0  0  0  0  0
   -1.5000    0.0000    0.0000 C   0  0  0  0  0  0  0  0  0  0  0  0
  1  2  1  0
  2  3  2  0
  3  4  1  0
  4  5  2  0
  5  6  1  0
  6  7  1  0
  6  8  2  0
  8  9  1  0
  9 10  2  0
 10 11  1  0
 11 12  1  0
 12 13  2  0
 13 14  1  0
 14 15  2  0
 15 16  1  0
 16 17  1  0
 17 18  2  0
 18 19  1  0
 19 20  2  0
 20 21  1  0
 21 22  1  0
 21 23  1  0
 21 24  2  0
 20 25  1  0
 25 26  2  0
 15 27  1  0
 27 28  2  0
 28 29  1  0
 29 30  2  0
  8  2  1  0
 30 11  1  0
 30 14  1  0
 26 17  1  0
M  END
>  <Compound_ID>  (4) 
CHEMBL488840

>  <Active>  (4) 
1

>  <Smiles>  (4) 
Cc1cccc(C)c1/C=C/n1cnc2c(Nc3ccc(P(C)(C)=O)cc3)ncnc21

>  <canonical_smi>  (4) 
Cc1cccc(C)c1/C=C/n1cnc2c(Nc3ccc(P(C)(C)=O)cc3)ncnc21

>  <Set>  (4) 
G1 active

>  <Set_type>  (4) 
G1

>  <MW>  (4) 
417.45

>  <HBD>  (4) 
1

>  <HBA>  (4) 
5

>  <NRB>  (4) 
5

>  <NR>  (4) 
4

>  <NAR>  (4) 
4

>  <PSA>  (4) 
72.7

>  <Standard Type>  (4) 
nan

>  <Standard Relation>  (4) 
nan

>  <Standard Units>  (4) 
nan

>  <Standard Value>  (4) 
nan

>  <Assay ChEMBL ID>  (4) 
nan

>  <Assay Description>  (4) 
nan

>  <BAO Label>  (4) 
nan

>  <bits>  (4) 
<rdkit.DataStructs.cDataStructs.ExplicitBitVect object at 0x000002A7EE0EE500>

>  <Group>  (4) 
G1

$$$$

     RDKit          2D

 29 33  0  0  0  0  0  0  0  0999 V2000
    3.3037  -15.8202    0.0000 C   0  0  0  0  0  0  0  0  0  0  0  0
    3.3037  -14.3202    0.0000 N   0  0  0  0  0  0  0  0  0  0  0  0
    2.0046  -13.5702    0.0000 C   0  0  0  0  0  0  0  0  0  0  0  0
    2.0046  -12.0702    0.0000 C   0  0  0  0  0  0  0  0  0  0  0  0
    3.3037  -11.3202    0.0000 N   0  0  0  0  0  0  0  0  0  0  0  0
    3.3037   -9.8202    0.0000 C   0  0  0  0  0  0  0  0  0  0  0  0
    4.6027   -9.0702    0.0000 C   0  0  0  0  0  0  0  0  0  0  0  0
    4.6027   -7.5702    0.0000 C   0  0  0  0  0  0  0  0  0  0  0  0
    3.3037   -6.8202    0.0000 C   0  0  0  0  0  0  0  0  0  0  0  0
    2.9918   -5.3529    0.0000 N   0  0  0  0  0  0  0  0  0  0  0  0
    1.5000   -5.1962    0.0000 C   0  0  0  0  0  0  0  0  0  0  0  0
    0.7500   -3.8971    0.0000 C   0  0  0  0  0  0  0  0  0  0  0  0
    1.5000   -2.5981    0.0000 C   0  0  0  0  0  0  0  0  0  0  0  0
    3.0000   -2.5981    0.0000 N   0  0  0  0  0  0  0  0  0  0  0  0
    0.7500   -1.2990    0.0000 C   0  0  0  0  0  0  0  0  0  0  0  0
    1.5000    0.0000    0.0000 C   0  0  0  0  0  0  0  0  0  0  0  0
    3.0000    0.0000    0.0000 F   0  0  0  0  0  0  0  0  0  0  0  0
    0.7500    1.2990    0.0000 C   0  0  0  0  0  0  0  0  0  0  0  0
   -0.7500    1.2990    0.0000 C   0  0  0  0  0  0  0  0  0  0  0  0
   -1.5000    0.0000    0.0000 C   0  0  0  0  0  0  0  0  0  0  0  0
   -0.7500   -1.2990    0.0000 C   0  0  0  0  0  0  0  0  0  0  0  0
   -1.5000   -2.5981    0.0000 N   0  0  0  0  0  0  0  0  0  0  0  0
   -0.7500   -3.8971    0.0000 C   0  0  0  0  0  0  0  0  0  0  0  0
   -1.5000   -5.1962    0.0000 O   0  0  0  0  0  0  0  0  0  0  0  0
    0.8899   -6.5665    0.0000 N   0  0  0  0  0  0  0  0  0  0  0  0
    2.0046   -7.5702    0.0000 C   0  0  0  0  0  0  0  0  0  0  0  0
    2.0046   -9.0702    0.0000 C   0  0  0  0  0  0  0  0  0  0  0  0
    4.6027  -12.0702    0.0000 C   0  0  0  0  0  0  0  0  0  0  0  0
    4.6027  -13.5702    0.0000 C   0  0  0  0  0  0  0  0  0  0  0  0
  1  2  1  0
  2  3  1  0
  3  4  1  0
  4  5  1  0
  5  6  1  0
  6  7  2  0
  7  8  1  0
  8  9  2  0
  9 10  1  0
 10 11  2  0
 11 12  1  0
 12 13  2  0
 13 14  1  0
 13 15  1  0
 15 16  2  0
 16 17  1  0
 16 18  1  0
 18 19  2  0
 19 20  1  0
 20 21  2  0
 21 22  1  0
 22 23  1  0
 23 24  2  0
 11 25  1  0
 25 26  1  0
 26 27  2  0
  5 28  1  0
 28 29  1  0
 29  2  1  0
 27  6  1  0
 26  9  1  0
 23 12  1  0
 21 15  1  0
M  END
>  <Compound_ID>  (5) 
CHEMBL522892

>  <Active>  (5) 
1

>  <Smiles>  (5) 
CN1CCN(c2ccc3nc(-c4c(N)c5c(F)cccc5[nH]c4=O)[nH]c3c2)CC1

>  <canonical_smi>  (5) 
CN1CCN(c2ccc3nc(-c4c(N)c5c(F)cccc5[nH]c4=O)[nH]c3c2)CC1

>  <Set>  (5) 
G1 active

>  <Set_type>  (5) 
G1

>  <MW>  (5) 
392.44

>  <HBD>  (5) 
3

>  <HBA>  (5) 
5

>  <NRB>  (5) 
2

>  <NR>  (5) 
5

>  <NAR>  (5) 
4

>  <PSA>  (5) 
94.04

>  <Standard Type>  (5) 
nan

>  <Standard Relation>  (5) 
nan

>  <Standard Units>  (5) 
nan

>  <Standard Value>  (5) 
nan

>  <Assay ChEMBL ID>  (5) 
nan

>  <Assay Description>  (5) 
nan

>  <BAO Label>  (5) 
nan

>  <bits>  (5) 
<rdkit.DataStructs.cDataStructs.ExplicitBitVect object at 0x000002A7EE0EE490>

>  <Group>  (5) 
G1

$$$$

     RDKit          2D

 32 35  0  0  0  0  0  0  0  0999 V2000
   -2.0882   -8.4404    0.0000 C   0  0  0  0  0  0  0  0  0  0  0  0
   -2.6983   -7.0701    0.0000 C   0  0  0  0  0  0  0  0  0  0  0  0
   -1.9483   -5.7711    0.0000 N   0  0  0  0  0  0  0  0  0  0  0  0
   -2.9520   -4.6564    0.0000 C   0  0  0  0  0  0  0  0  0  0  0  0
   -2.6401   -3.1891    0.0000 C   0  0  0  0  0  0  0  0  0  0  0  0
   -1.2135   -2.7256    0.0000 C   0  0  0  0  0  0  0  0  0  0  0  0
   -0.0000   -3.6073    0.0000 C   0  0  0  0  0  0  0  0  0  0  0  0
    0.0000   -5.1073    0.0000 O   0  0  0  0  0  0  0  0  0  0  0  0
    1.2135   -2.7256    0.0000 N   0  0  0  0  0  0  0  0  0  0  0  0
    0.7500   -1.2990    0.0000 C   0  0  0  0  0  0  0  0  0  0  0  0
    1.5000    0.0000    0.0000 C   0  0  0  0  0  0  0  0  0  0  0  0
    0.7500    1.2990    0.0000 C   0  0  0  0  0  0  0  0  0  0  0  0
   -0.7500    1.2990    0.0000 C   0  0  0  0  0  0  0  0  0  0  0  0
   -1.5000    2.5981    0.0000 F   0  0  0  0  0  0  0  0  0  0  0  0
   -1.5000    0.0000    0.0000 C   0  0  0  0  0  0  0  0  0  0  0  0
   -0.7500   -1.2990    0.0000 C   0  0  0  0  0  0  0  0  0  0  0  0
   -4.3223   -5.2665    0.0000 C   0  0  0  0  0  0  0  0  0  0  0  0
   -5.6213   -4.5165    0.0000 C   0  0  0  0  0  0  0  0  0  0  0  0
   -4.1655   -6.7583    0.0000 C   0  0  0  0  0  0  0  0  0  0  0  0
   -5.2802   -7.7620    0.0000 C   0  0  0  0  0  0  0  0  0  0  0  0
   -4.9684   -9.2292    0.0000 O   0  0  0  0  0  0  0  0  0  0  0  0
   -6.7068   -7.2984    0.0000 N   0  0  0  0  0  0  0  0  0  0  0  0
   -7.8215   -8.3021    0.0000 C   0  0  0  0  0  0  0  0  0  0  0  0
   -9.2481   -7.8386    0.0000 C   0  0  0  0  0  0  0  0  0  0  0  0
   -9.5600   -6.3714    0.0000 O   0  0  0  0  0  0  0  0  0  0  0  0
  -10.3628   -8.8423    0.0000 C   0  0  0  0  0  0  0  0  0  0  0  0
  -11.7894   -8.3788    0.0000 N   0  0  0  0  0  0  0  0  0  0  0  0
  -12.1013   -6.9115    0.0000 C   0  0  0  0  0  0  0  0  0  0  0  0
  -13.5279   -6.4480    0.0000 C   0  0  0  0  0  0  0  0  0  0  0  0
  -14.6426   -7.4517    0.0000 O   0  0  0  0  0  0  0  0  0  0  0  0
  -14.3307   -8.9189    0.0000 C   0  0  0  0  0  0  0  0  0  0  0  0
  -12.9041   -9.3825    0.0000 C   0  0  0  0  0  0  0  0  0  0  0  0
  1  2  1  0
  2  3  1  0
  3  4  1  0
  4  5  1  0
  5  6  2  0
  6  7  1  0
  7  8  2  0
  7  9  1  0
  9 10  1  0
 10 11  2  0
 11 12  1  0
 12 13  2  0
 13 14  1  0
 13 15  1  0
 15 16  2  0
  4 17  2  0
 17 18  1  0
 17 19  1  0
 19 20  1  0
 20 21  2  0
 20 22  1  0
 22 23  1  0
 23 24  1  0
 24 25  1  0
 24 26  1  0
 26 27  1  0
 27 28  1  0
 28 29  1  0
 29 30  1  0
 30 31  1  0
 31 32  1  0
 19  2  2  0
 32 27  1  0
 16  6  1  0
 16 10  1  0
M  END
>  <Compound_ID>  (6) 
CHEMBL573577

>  <Active>  (6) 
1

>  <Smiles>  (6) 
Cc1[nH]c(/C=C2\C(=O)Nc3ccc(F)cc32)c(C)c1C(=O)NCC(O)CN1CCOCC1

>  <canonical_smi>  (6) 
Cc1[nH]c(/C=C2\C(=O)Nc3ccc(F)cc32)c(C)c1C(=O)NCC(O)CN1CCOCC1

>  <Set>  (6) 
G1 active

>  <Set_type>  (6) 
G1

>  <MW>  (6) 
442.49

>  <HBD>  (6) 
4

>  <HBA>  (6) 
5

>  <NRB>  (6) 
6

>  <NR>  (6) 
4

>  <NAR>  (6) 
2

>  <PSA>  (6) 
106.69

>  <Standard Type>  (6) 
nan

>  <Standard Relation>  (6) 
nan

>  <Standard Units>  (6) 
nan

>  <Standard Value>  (6) 
nan

>  <Assay ChEMBL ID>  (6) 
nan

>  <Assay Description>  (6) 
nan

>  <BAO Label>  (6) 
nan

>  <bits>  (6) 
<rdkit.DataStructs.cDataStructs.ExplicitBitVect object at 0x000002A7EE0EE420>

>  <Group>  (6) 
G1

$$$$

     RDKit          2D

 41 45  0  0  0  0  0  0  0  0999 V2000
   -5.2500   -3.8971    0.0000 C   0  0  0  0  0  0  0  0  0  0  0  0
   -3.7500   -3.8971    0.0000 O   0  0  0  0  0  0  0  0  0  0  0  0
   -3.0000   -2.5981    0.0000 C   0  0  0  0  0  0  0  0  0  0  0  0
   -1.5000   -2.5981    0.0000 C   0  0  0  0  0  0  0  0  0  0  0  0
   -0.7500   -1.2990    0.0000 C   0  0  0  0  0  0  0  0  0  0  0  0
    0.7500   -1.2990    0.0000 C   0  0  0  0  0  0  0  0  0  0  0  0
    1.5000   -2.5981    0.0000 N   0  0  0  0  0  0  0  0  0  0  0  0
    0.7500   -3.8971    0.0000 C   0  0  0  0  0  0  0  0  0  0  0  0
    1.5000   -5.1962    0.0000 C   0  0  0  0  0  0  0  0  0  0  0  0
    3.0000   -5.1962    0.0000 N   0  0  0  0  0  0  0  0  0  0  0  0
    3.7500   -6.4952    0.0000 C   0  0  0  0  0  0  0  0  0  0  0  0
    5.2500   -6.4952    0.0000 O   0  0  0  0  0  0  0  0  0  0  0  0
    3.0000   -7.7942    0.0000 N   0  0  0  0  0  0  0  0  0  0  0  0
    3.7500   -9.0933    0.0000 C   0  0  0  0  0  0  0  0  0  0  0  0
    3.0000  -10.3923    0.0000 C   0  0  0  0  0  0  0  0  0  0  0  0
    3.7500  -11.6913    0.0000 C   0  0  0  0  0  0  0  0  0  0  0  0
    5.2500  -11.6913    0.0000 C   0  0  0  0  0  0  0  0  0  0  0  0
    6.0000  -12.9904    0.0000 O   0  0  0  0  0  0  0  0  0  0  0  0
    5.2500  -14.2894    0.0000 C   0  0  0  0  0  0  0  0  0  0  0  0
    6.0000  -15.5885    0.0000 C   0  0  0  0  0  0  0  0  0  0  0  0
    3.7500  -14.2894    0.0000 C   0  0  0  0  0  0  0  0  0  0  0  0
    6.0000  -10.3923    0.0000 C   0  0  0  0  0  0  0  0  0  0  0  0
    5.2500   -9.0933    0.0000 C   0  0  0  0  0  0  0  0  0  0  0  0
    3.7500   -3.8971    0.0000 C   0  0  0  0  0  0  0  0  0  0  0  0
    3.0000   -2.5981    0.0000 C   0  0  0  0  0  0  0  0  0  0  0  0
    1.5000    0.0000    0.0000 N   0  0  0  0  0  0  0  0  0  0  0  0
    0.7500    1.2990    0.0000 C   0  0  0  0  0  0  0  0  0  0  0  0
   -0.7500    1.2990    0.0000 N   0  0  0  0  0  0  0  0  0  0  0  0
   -1.5000    0.0000    0.0000 C   0  0  0  0  0  0  0  0  0  0  0  0
   -3.0000    0.0000    0.0000 C   0  0  0  0  0  0  0  0  0  0  0  0
   -3.7500   -1.2990    0.0000 C   0  0  0  0  0  0  0  0  0  0  0  0
   -5.2500   -1.2990    0.0000 O   0  0  0  0  0  0  0  0  0  0  0  0
   -6.0000    0.0000    0.0000 C   0  0  0  0  0  0  0  0  0  0  0  0
   -7.5000    0.0000    0.0000 C   0  0  0  0  0  0  0  0  0  0  0  0
   -8.2500    1.2990    0.0000 C   0  0  0  0  0  0  0  0  0  0  0  0
   -9.7500    1.2990    0.0000 N   0  0  0  0  0  0  0  0  0  0  0  0
  -10.5000    2.5981    0.0000 C   0  0  0  0  0  0  0  0  0  0  0  0
  -12.0000    2.5981    0.0000 C   0  0  0  0  0  0  0  0  0  0  0  0
  -12.7500    1.2990    0.0000 C   0  0  0  0  0  0  0  0  0  0  0  0
  -12.0000    0.0000    0.0000 C   0  0  0  0  0  0  0  0  0  0  0  0
  -10.5000    0.0000    0.0000 C   0  0  0  0  0  0  0  0  0  0  0  0
  1  2  1  0
  2  3  1  0
  3  4  2  0
  4  5  1  0
  5  6  2  0
  6  7  1  0
  7  8  1  0
  8  9  1  0
  9 10  1  0
 10 11  1  0
 11 12  2  0
 11 13  1  0
 13 14  1  0
 14 15  2  0
 15 16  1  0
 16 17  2  0
 17 18  1  0
 18 19  1  0
 19 20  1  0
 19 21  1  0
 17 22  1  0
 22 23  2  0
 10 24  1  0
 24 25  1  0
  6 26  1  0
 26 27  2  0
 27 28  1  0
 28 29  2  0
 29 30  1  0
 30 31  2  0
 31 32  1  0
 32 33  1  0
 33 34  1  0
 34 35  1  0
 35 36  1  0
 36 37  1  0
 37 38  1  0
 38 39  1  0
 39 40  1  0
 40 41  1  0
 31  3  1  0
 41 36  1  0
 29  5  1  0
 25  7  1  0
 23 14  1  0
M  END
>  <Compound_ID>  (7) 
CHEMBL124660

>  <Active>  (7) 
1

>  <Smiles>  (7) 
COc1cc2c(N3CCN(C(=O)Nc4ccc(OC(C)C)cc4)CC3)ncnc2cc1OCCCN1CCCCC1

>  <canonical_smi>  (7) 
COc1cc2c(N3CCN(C(=O)Nc4ccc(OC(C)C)cc4)CC3)ncnc2cc1OCCCN1CCCCC1

>  <Set>  (7) 
G1 active

>  <Set_type>  (7) 
G1

>  <MW>  (7) 
562.72

>  <HBD>  (7) 
1

>  <HBA>  (7) 
8

>  <NRB>  (7) 
10

>  <NR>  (7) 
5

>  <NAR>  (7) 
3

>  <PSA>  (7) 
92.29

>  <Standard Type>  (7) 
nan

>  <Standard Relation>  (7) 
nan

>  <Standard Units>  (7) 
nan

>  <Standard Value>  (7) 
nan

>  <Assay ChEMBL ID>  (7) 
nan

>  <Assay Description>  (7) 
nan

>  <BAO Label>  (7) 
nan

>  <bits>  (7) 
<rdkit.DataStructs.cDataStructs.ExplicitBitVect object at 0x000002A7EE0EE340>

>  <Group>  (7) 
G1

$$$$

     RDKit          2D

 38 41  0  0  0  0  0  0  0  0999 V2000
    3.7500   -1.2990    0.0000 C   0  0  0  0  0  0  0  0  0  0  0  0
    3.0000    0.0000    0.0000 C   0  0  0  0  0  0  0  0  0  0  0  0
    1.5000    0.0000    0.0000 N   0  0  0  0  0  0  0  0  0  0  0  0
    0.7500   -1.2990    0.0000 C   0  0  0  0  0  0  0  0  0  0  0  0
   -0.7500   -1.2990    0.0000 C   0  0  0  0  0  0  0  0  0  0  0  0
   -1.5000    0.0000    0.0000 N   0  0  0  0  0  0  0  0  0  0  0  0
   -3.0000    0.0000    0.0000 C   0  0  0  0  0  0  0  0  0  0  0  0
   -3.7500    1.2990    0.0000 C   0  0  0  0  0  0  0  0  0  0  0  0
   -3.0000    2.5981    0.0000 C   0  0  0  0  0  0  0  0  0  0  0  0
   -3.7500    3.8971    0.0000 C   0  0  0  0  0  0  0  0  0  0  0  0
   -5.2500    3.8971    0.0000 C   0  0  0  0  0  0  0  0  0  0  0  0
   -6.0000    5.1962    0.0000 N   0  0  0  0  0  0  0  0  0  0  0  0
   -5.2500    6.4952    0.0000 C   0  0  0  0  0  0  0  0  0  0  0  0
   -3.7500    6.4952    0.0000 O   0  0  0  0  0  0  0  0  0  0  0  0
   -6.0000    7.7942    0.0000 N   0  0  0  0  0  0  0  0  0  0  0  0
   -5.2500    9.0933    0.0000 C   0  0  0  0  0  0  0  0  0  0  0  0
   -3.7500    9.0933    0.0000 C   0  0  0  0  0  0  0  0  0  0  0  0
   -3.0000   10.3923    0.0000 C   0  0  0  0  0  0  0  0  0  0  0  0
   -3.7500   11.6913    0.0000 C   0  0  0  0  0  0  0  0  0  0  0  0
   -3.0000   12.9904    0.0000 O   0  0  0  0  0  0  0  0  0  0  0  0
   -1.5000   12.9904    0.0000 C   0  0  0  0  0  0  0  0  0  0  0  0
   -0.7500   11.6913    0.0000 C   0  0  0  0  0  0  0  0  0  0  0  0
    0.7500   11.6913    0.0000 C   0  0  0  0  0  0  0  0  0  0  0  0
    1.5000   10.3923    0.0000 N   0  0  0  0  0  0  0  0  0  0  0  0
    0.7500    9.0933    0.0000 C   0  0  0  0  0  0  0  0  0  0  0  0
    1.5000   12.9904    0.0000 N   0  0  0  0  0  0  0  0  0  0  0  0
    0.7500   14.2894    0.0000 C   0  0  0  0  0  0  0  0  0  0  0  0
   -0.7500   14.2894    0.0000 N   0  0  0  0  0  0  0  0  0  0  0  0
   -5.2500   11.6913    0.0000 C   0  0  0  0  0  0  0  0  0  0  0  0
   -6.0000   10.3923    0.0000 C   0  0  0  0  0  0  0  0  0  0  0  0
   -6.0000    2.5981    0.0000 C   0  0  0  0  0  0  0  0  0  0  0  0
   -5.2500    1.2990    0.0000 C   0  0  0  0  0  0  0  0  0  0  0  0
   -6.0000    0.0000    0.0000 C   0  0  0  0  0  0  0  0  0  0  0  0
   -6.7500   -1.2990    0.0000 F   0  0  0  0  0  0  0  0  0  0  0  0
   -7.2990    0.7500    0.0000 F   0  0  0  0  0  0  0  0  0  0  0  0
   -4.7010   -0.7500    0.0000 F   0  0  0  0  0  0  0  0  0  0  0  0
   -0.7500    1.2990    0.0000 C   0  0  0  0  0  0  0  0  0  0  0  0
    0.7500    1.2990    0.0000 C   0  0  0  0  0  0  0  0  0  0  0  0
  1  2  1  0
  2  3  1  0
  3  4  1  0
  4  5  1  0
  5  6  1  0
  6  7  1  0
  7  8  1  0
  8  9  2  0
  9 10  1  0
 10 11  2  0
 11 12  1  0
 12 13  1  0
 13 14  2  0
 13 15  1  0
 15 16  1  0
 16 17  2  0
 17 18  1  0
 18 19  2  0
 19 20  1  0
 20 21  1  0
 21 22  2  0
 22 23  1  0
 23 24  1  0
 24 25  1  0
 23 26  2  0
 26 27  1  0
 27 28  2  0
 19 29  1  0
 29 30  2  0
 11 31  1  0
 31 32  2  0
 32 33  1  0
 33 34  1  0
 33 35  1  0
 33 36  1  0
  6 37  1  0
 37 38  1  0
 38  3  1  0
 32  8  1  0
 30 16  1  0
 28 21  1  0
M  END
>  <Compound_ID>  (8) 
CHEMBL574738

>  <Active>  (8) 
1

>  <Smiles>  (8) 
CCN1CCN(Cc2ccc(NC(=O)Nc3ccc(Oc4cc(NC)ncn4)cc3)cc2C(F)(F)F)CC1

>  <canonical_smi>  (8) 
CCN1CCN(Cc2ccc(NC(=O)Nc3ccc(Oc4cc(NC)ncn4)cc3)cc2C(F)(F)F)CC1

>  <Set>  (8) 
G1 active

>  <Set_type>  (8) 
G1

>  <MW>  (8) 
529.57

>  <HBD>  (8) 
3

>  <HBA>  (8) 
7

>  <NRB>  (8) 
8

>  <NR>  (8) 
4

>  <NAR>  (8) 
3

>  <PSA>  (8) 
94.65

>  <Standard Type>  (8) 
nan

>  <Standard Relation>  (8) 
nan

>  <Standard Units>  (8) 
nan

>  <Standard Value>  (8) 
nan

>  <Assay ChEMBL ID>  (8) 
nan

>  <Assay Description>  (8) 
nan

>  <BAO Label>  (8) 
nan

>  <bits>  (8) 
<rdkit.DataStructs.cDataStructs.ExplicitBitVect object at 0x000002A7EE0EE2D0>

>  <Group>  (8) 
G1

$$$$

     RDKit          2D

 31 34  0  0  0  0  0  0  0  0999 V2000
    3.0000  -10.3923    0.0000 C   0  0  0  0  0  0  0  0  0  0  0  0
    3.7500   -9.0933    0.0000 C   0  0  0  0  0  0  0  0  0  0  0  0
    3.0000   -7.7942    0.0000 C   0  0  0  0  0  0  0  0  0  0  0  0
    3.7500   -6.4952    0.0000 C   0  0  0  0  0  0  0  0  0  0  0  0
    5.2500   -6.4952    0.0000 C   0  0  0  0  0  0  0  0  0  0  0  0
    6.0000   -5.1962    0.0000 N   0  0  0  0  0  0  0  0  0  0  0  0
    5.2500   -3.8971    0.0000 C   0  0  0  0  0  0  0  0  0  0  0  0
    6.0000   -2.5981    0.0000 N   0  0  0  0  0  0  0  0  0  0  0  0
    5.2500   -1.2990    0.0000 C   0  0  0  0  0  0  0  0  0  0  0  0
    3.7500   -1.2990    0.0000 C   0  0  0  0  0  0  0  0  0  0  0  0
    3.0000   -2.5981    0.0000 C   0  0  0  0  0  0  0  0  0  0  0  0
    1.5000   -2.5981    0.0000 N   0  0  0  0  0  0  0  0  0  0  0  0
    0.7500   -3.8971    0.0000 C   0  0  0  0  0  0  0  0  0  0  0  0
    0.7500   -1.2990    0.0000 C   0  0  0  0  0  0  0  0  0  0  0  0
    1.5000    0.0000    0.0000 C   0  0  0  0  0  0  0  0  0  0  0  0
    0.7500    1.2990    0.0000 C   0  0  0  0  0  0  0  0  0  0  0  0
   -0.7500    1.2990    0.0000 C   0  0  0  0  0  0  0  0  0  0  0  0
   -1.7537    2.4138    0.0000 C   0  0  0  0  0  0  0  0  0  0  0  0
   -1.4418    3.8810    0.0000 C   0  0  0  0  0  0  0  0  0  0  0  0
   -3.1240    1.8037    0.0000 N   0  0  0  0  0  0  0  0  0  0  0  0
   -4.4231    2.5537    0.0000 C   0  0  0  0  0  0  0  0  0  0  0  0
   -2.9672    0.3119    0.0000 N   0  0  0  0  0  0  0  0  0  0  0  0
   -1.5000    0.0000    0.0000 C   0  0  0  0  0  0  0  0  0  0  0  0
   -0.7500   -1.2990    0.0000 C   0  0  0  0  0  0  0  0  0  0  0  0
    3.7500   -3.8971    0.0000 N   0  0  0  0  0  0  0  0  0  0  0  0
    6.0000   -7.7942    0.0000 C   0  0  0  0  0  0  0  0  0  0  0  0
    5.2500   -9.0933    0.0000 C   0  0  0  0  0  0  0  0  0  0  0  0
    6.0000  -10.3923    0.0000 S   0  0  0  0  0  0  0  0  0  0  0  0
    6.7500  -11.6913    0.0000 N   0  0  0  0  0  0  0  0  0  0  0  0
    7.2990   -9.6423    0.0000 O   0  0  0  0  0  0  0  0  0  0  0  0
    4.7010  -11.1423    0.0000 O   0  0  0  0  0  0  0  0  0  0  0  0
  1  2  1  0
  2  3  2  0
  3  4  1  0
  4  5  2  0
  5  6  1  0
  6  7  1  0
  7  8  2  0
  8  9  1  0
  9 10  2  0
 10 11  1  0
 11 12  1  0
 12 13  1  0
 12 14  1  0
 14 15  1  0
 15 16  2  0
 16 17  1  0
 17 18  2  0
 18 19  1  0
 18 20  1  0
 20 21  1  0
 20 22  1  0
 22 23  2  0
 23 24  1  0
 11 25  2  0
  5 26  1  0
 26 27  2  0
 27 28  1  0
 28 29  1  0
 28 30  2  0
 28 31  2  0
 27  2  1  0
 25  7  1  0
 24 14  2  0
 23 17  1  0
M  END
>  <Compound_ID>  (9) 
CHEMBL477772

>  <Active>  (9) 
1

>  <Smiles>  (9) 
Cc1ccc(Nc2nccc(N(C)c3ccc4c(C)n(C)nc4c3)n2)cc1S(N)(=O)=O

>  <canonical_smi>  (9) 
Cc1ccc(Nc2nccc(N(C)c3ccc4c(C)n(C)nc4c3)n2)cc1S(N)(=O)=O

>  <Set>  (9) 
G1 active

>  <Set_type>  (9) 
G1

>  <MW>  (9) 
437.53

>  <HBD>  (9) 
2

>  <HBA>  (9) 
7

>  <NRB>  (9) 
5

>  <NR>  (9) 
4

>  <NAR>  (9) 
4

>  <PSA>  (9) 
119.03

>  <Standard Type>  (9) 
nan

>  <Standard Relation>  (9) 
nan

>  <Standard Units>  (9) 
nan

>  <Standard Value>  (9) 
nan

>  <Assay ChEMBL ID>  (9) 
nan

>  <Assay Description>  (9) 
nan

>  <BAO Label>  (9) 
nan

>  <bits>  (9) 
<rdkit.DataStructs.cDataStructs.ExplicitBitVect object at 0x000002A7EE0EE260>

>  <Group>  (9) 
G1

$$$$

     RDKit          2D

 35 40  0  0  0  0  0  0  0  0999 V2000
   -1.5000   -7.7942    0.0000 C   0  0  0  0  0  0  0  0  0  0  0  0
   -0.7500   -6.4952    0.0000 N   0  0  0  0  0  0  0  0  0  0  0  0
   -1.5000   -5.1962    0.0000 C   0  0  0  0  0  0  0  0  0  0  0  0
   -0.7500   -3.8971    0.0000 C   0  0  0  0  0  0  0  0  0  0  0  0
    0.7500   -3.8971    0.0000 N   0  0  0  0  0  0  0  0  0  0  0  0
    1.5000   -2.5981    0.0000 C   0  0  0  0  0  0  0  0  0  0  0  0
    0.7500   -1.2990    0.0000 C   0  0  0  0  0  0  0  0  0  0  0  0
    1.5000    0.0000    0.0000 C   0  0  0  0  0  0  0  0  0  0  0  0
    0.7500    1.2990    0.0000 C   0  0  0  0  0  0  0  0  0  0  0  0
   -0.7500    1.2990    0.0000 C   0  0  0  0  0  0  0  0  0  0  0  0
   -1.5000    0.0000    0.0000 C   0  0  0  0  0  0  0  0  0  0  0  0
   -0.7500   -1.2990    0.0000 C   0  0  0  0  0  0  0  0  0  0  0  0
   -2.9672    0.3119    0.0000 C   0  0  0  0  0  0  0  0  0  0  0  0
   -3.1240    1.8037    0.0000 C   0  0  0  0  0  0  0  0  0  0  0  0
   -4.1277    2.9184    0.0000 C   0  0  0  0  0  0  0  0  0  0  0  0
   -5.6195    2.7616    0.0000 C   0  0  0  0  0  0  0  0  0  0  0  0
   -6.3695    1.4625    0.0000 C   0  0  0  0  0  0  0  0  0  0  0  0
   -7.8367    1.7744    0.0000 S   0  0  0  0  0  0  0  0  0  0  0  0
   -7.9935    3.2662    0.0000 C   0  0  0  0  0  0  0  0  0  0  0  0
   -9.2925    4.0162    0.0000 C   0  0  0  0  0  0  0  0  0  0  0  0
  -10.5916    4.7662    0.0000 C   0  0  0  0  0  0  0  0  0  0  0  0
  -11.8906    5.5162    0.0000 C   0  0  0  0  0  0  0  0  0  0  0  0
  -11.8906    7.0162    0.0000 O   0  0  0  0  0  0  0  0  0  0  0  0
  -13.1897    7.7662    0.0000 C   0  0  0  0  0  0  0  0  0  0  0  0
  -13.1897    9.2662    0.0000 C   0  0  0  0  0  0  0  0  0  0  0  0
  -14.4887   10.0162    0.0000 C   0  0  0  0  0  0  0  0  0  0  0  0
  -15.7877    9.2662    0.0000 C   0  0  0  0  0  0  0  0  0  0  0  0
  -15.7877    7.7662    0.0000 C   0  0  0  0  0  0  0  0  0  0  0  0
  -14.4887    7.0162    0.0000 C   0  0  0  0  0  0  0  0  0  0  0  0
   -6.6232    3.8763    0.0000 C   0  0  0  0  0  0  0  0  0  0  0  0
   -3.3777    4.2174    0.0000 N   0  0  0  0  0  0  0  0  0  0  0  0
   -1.9105    3.9055    0.0000 N   0  0  0  0  0  0  0  0  0  0  0  0
   -1.7537    2.4138    0.0000 C   0  0  0  0  0  0  0  0  0  0  0  0
    1.5000   -5.1962    0.0000 C   0  0  0  0  0  0  0  0  0  0  0  0
    0.7500   -6.4952    0.0000 C   0  0  0  0  0  0  0  0  0  0  0  0
  1  2  1  0
  2  3  1  0
  3  4  1  0
  4  5  1  0
  5  6  1  0
  6  7  1  0
  7  8  2  0
  8  9  1  0
  9 10  2  0
 10 11  1  0
 11 12  2  0
 11 13  1  0
 13 14  1  0
 14 15  1  0
 15 16  1  0
 16 17  2  0
 17 18  1  0
 18 19  1  0
 19 20  1  0
 20 21  3  0
 21 22  1  0
 22 23  1  0
 23 24  1  0
 24 25  2  0
 25 26  1  0
 26 27  2  0
 27 28  1  0
 28 29  2  0
 19 30  2  0
 15 31  2  0
 31 32  1  0
 32 33  1  0
  5 34  1  0
 34 35  1  0
 35  2  1  0
 12  7  1  0
 33 14  2  0
 33 10  1  0
 30 16  1  0
 29 24  1  0
M  END
>  <Compound_ID>  (10) 
CHEMBL390156

>  <Active>  (10) 
1

>  <Smiles>  (10) 
CN1CCN(Cc2ccc3c(c2)Cc2c(-c4csc(C#CCOc5ccccc5)c4)n[nH]c2-3)CC1

>  <canonical_smi>  (10) 
CN1CCN(Cc2ccc3c(c2)Cc2c(-c4csc(C#CCOc5ccccc5)c4)n[nH]c2-3)CC1

>  <Set>  (10) 
G1 active

>  <Set_type>  (10) 
G1

>  <MW>  (10) 
480.64

>  <HBD>  (10) 
1

>  <HBA>  (10) 
4

>  <NRB>  (10) 
5

>  <NR>  (10) 
6

>  <NAR>  (10) 
5

>  <PSA>  (10) 
44.39

>  <Standard Type>  (10) 
nan

>  <Standard Relation>  (10) 
nan

>  <Standard Units>  (10) 
nan

>  <Standard Value>  (10) 
nan

>  <Assay ChEMBL ID>  (10) 
nan

>  <Assay Description>  (10) 
nan

>  <BAO Label>  (10) 
nan

>  <bits>  (10) 
<rdkit.DataStructs.cDataStructs.ExplicitBitVect object at 0x000002A7EE0EE1F0>

>  <Group>  (10) 
G1

$$$$

     RDKit          2D

 34 38  0  0  0  0  0  0  0  0999 V2000
  -16.1520  -11.8002    0.0000 C   0  0  0  0  0  0  0  0  0  0  0  0
  -15.4020  -13.0993    0.0000 C   0  0  0  0  0  0  0  0  0  0  0  0
  -14.6520  -14.3983    0.0000 C   0  0  0  0  0  0  0  0  0  0  0  0
  -16.7010  -13.8493    0.0000 C   0  0  0  0  0  0  0  0  0  0  0  0
  -14.1030  -12.3493    0.0000 C   0  0  0  0  0  0  0  0  0  0  0  0
  -12.7326  -12.9594    0.0000 C   0  0  0  0  0  0  0  0  0  0  0  0
  -11.7289  -11.8447    0.0000 C   0  0  0  0  0  0  0  0  0  0  0  0
  -10.2372  -12.0015    0.0000 N   0  0  0  0  0  0  0  0  0  0  0  0
   -9.3555  -10.7879    0.0000 C   0  0  0  0  0  0  0  0  0  0  0  0
   -9.9656   -9.4176    0.0000 O   0  0  0  0  0  0  0  0  0  0  0  0
   -7.8637  -10.9447    0.0000 N   0  0  0  0  0  0  0  0  0  0  0  0
   -6.9820   -9.7312    0.0000 C   0  0  0  0  0  0  0  0  0  0  0  0
   -5.4902   -9.8880    0.0000 C   0  0  0  0  0  0  0  0  0  0  0  0
   -4.6086   -8.6745    0.0000 C   0  0  0  0  0  0  0  0  0  0  0  0
   -5.2187   -7.3041    0.0000 C   0  0  0  0  0  0  0  0  0  0  0  0
   -4.3370   -6.0906    0.0000 N   0  0  0  0  0  0  0  0  0  0  0  0
   -2.8452   -6.2474    0.0000 C   0  0  0  0  0  0  0  0  0  0  0  0
   -2.2351   -7.6177    0.0000 O   0  0  0  0  0  0  0  0  0  0  0  0
   -1.9635   -5.0339    0.0000 C   0  0  0  0  0  0  0  0  0  0  0  0
   -2.4271   -3.6073    0.0000 C   0  0  0  0  0  0  0  0  0  0  0  0
   -1.2135   -2.7256    0.0000 N   0  0  0  0  0  0  0  0  0  0  0  0
   -0.0000   -3.6073    0.0000 C   0  0  0  0  0  0  0  0  0  0  0  0
   -0.4635   -5.0339    0.0000 N   0  0  0  0  0  0  0  0  0  0  0  0
    1.2135   -2.7256    0.0000 S   0  0  0  0  0  0  0  0  0  0  0  0
    0.7500   -1.2990    0.0000 C   0  0  0  0  0  0  0  0  0  0  0  0
    1.5000    0.0000    0.0000 C   0  0  0  0  0  0  0  0  0  0  0  0
    0.7500    1.2990    0.0000 C   0  0  0  0  0  0  0  0  0  0  0  0
   -0.7500    1.2990    0.0000 C   0  0  0  0  0  0  0  0  0  0  0  0
   -1.5000    0.0000    0.0000 C   0  0  0  0  0  0  0  0  0  0  0  0
   -0.7500   -1.2990    0.0000 C   0  0  0  0  0  0  0  0  0  0  0  0
   -6.7104   -7.1474    0.0000 C   0  0  0  0  0  0  0  0  0  0  0  0
   -7.5921   -8.3609    0.0000 C   0  0  0  0  0  0  0  0  0  0  0  0
  -12.4789  -10.5456    0.0000 N   0  0  0  0  0  0  0  0  0  0  0  0
  -13.9462  -10.8575    0.0000 O   0  0  0  0  0  0  0  0  0  0  0  0
  1  2  1  0
  2  3  1  0
  2  4  1  0
  2  5  1  0
  5  6  2  0
  6  7  1  0
  7  8  1  0
  8  9  1  0
  9 10  2  0
  9 11  1  0
 11 12  1  0
 12 13  2  0
 13 14  1  0
 14 15  2  0
 15 16  1  0
 16 17  1  0
 17 18  2  0
 17 19  1  0
 19 20  2  0
 20 21  1  0
 21 22  1  0
 22 23  2  0
 22 24  1  0
 24 25  1  0
 25 26  2  0
 26 27  1  0
 27 28  2  0
 28 29  1  0
 29 30  2  0
 15 31  1  0
 31 32  2  0
  7 33  2  0
 33 34  1  0
 34  5  1  0
 32 12  1  0
 23 19  1  0
 30 25  1  0
 30 21  1  0
M  END
>  <Compound_ID>  (11) 
CHEMBL575925

>  <Active>  (11) 
1

>  <Smiles>  (11) 
CC(C)(C)c1cc(NC(=O)Nc2ccc(NC(=O)c3cn4c(n3)sc3ccccc34)cc2)no1

>  <canonical_smi>  (11) 
CC(C)(C)c1cc(NC(=O)Nc2ccc(NC(=O)c3cn4c(n3)sc3ccccc34)cc2)no1

>  <Set>  (11) 
G1 active

>  <Set_type>  (11) 
G1

>  <MW>  (11) 
474.55

>  <HBD>  (11) 
3

>  <HBA>  (11) 
5

>  <NRB>  (11) 
4

>  <NR>  (11) 
5

>  <NAR>  (11) 
5

>  <PSA>  (11) 
113.56

>  <Standard Type>  (11) 
nan

>  <Standard Relation>  (11) 
nan

>  <Standard Units>  (11) 
nan

>  <Standard Value>  (11) 
nan

>  <Assay ChEMBL ID>  (11) 
nan

>  <Assay Description>  (11) 
nan

>  <BAO Label>  (11) 
nan

>  <bits>  (11) 
<rdkit.DataStructs.cDataStructs.ExplicitBitVect object at 0x000002A7EE0EE180>

>  <Group>  (11) 
G1

$$$$

     RDKit          2D

 28 31  0  0  0  0  0  0  0  0999 V2000
  -10.6670    6.5618    0.0000 O   0  0  0  0  0  0  0  0  0  0  0  0
  -11.5487    5.3483    0.0000 C   0  0  0  0  0  0  0  0  0  0  0  0
  -13.0405    5.5051    0.0000 N   0  0  0  0  0  0  0  0  0  0  0  0
  -13.6506    6.8754    0.0000 C   0  0  0  0  0  0  0  0  0  0  0  0
  -12.7689    8.0890    0.0000 C   0  0  0  0  0  0  0  0  0  0  0  0
  -13.3790    9.4593    0.0000 C   0  0  0  0  0  0  0  0  0  0  0  0
  -14.8708    9.6161    0.0000 C   0  0  0  0  0  0  0  0  0  0  0  0
  -15.7525    8.4025    0.0000 C   0  0  0  0  0  0  0  0  0  0  0  0
  -17.2443    8.5593    0.0000 Cl  0  0  0  0  0  0  0  0  0  0  0  0
  -15.1424    7.0322    0.0000 C   0  0  0  0  0  0  0  0  0  0  0  0
  -10.9386    3.9780    0.0000 N   0  0  0  0  0  0  0  0  0  0  0  0
   -9.4468    3.8212    0.0000 C   0  0  0  0  0  0  0  0  0  0  0  0
   -8.4431    4.9359    0.0000 N   0  0  0  0  0  0  0  0  0  0  0  0
   -7.0728    4.3258    0.0000 C   0  0  0  0  0  0  0  0  0  0  0  0
   -7.2296    2.8340    0.0000 C   0  0  0  0  0  0  0  0  0  0  0  0
   -6.1149    1.8303    0.0000 C   0  0  0  0  0  0  0  0  0  0  0  0
   -4.6883    2.2939    0.0000 C   0  0  0  0  0  0  0  0  0  0  0  0
   -3.5736    1.2902    0.0000 N   0  0  0  0  0  0  0  0  0  0  0  0
   -2.1470    1.7537    0.0000 C   0  0  0  0  0  0  0  0  0  0  0  0
   -1.8351    3.2209    0.0000 N   0  0  0  0  0  0  0  0  0  0  0  0
   -0.4086    3.6844    0.0000 C   0  0  0  0  0  0  0  0  0  0  0  0
    0.7062    2.6807    0.0000 N   0  0  0  0  0  0  0  0  0  0  0  0
    0.3943    1.2135    0.0000 C   0  0  0  0  0  0  0  0  0  0  0  0
    1.2760    0.0000    0.0000 C   0  0  0  0  0  0  0  0  0  0  0  0
    0.3943   -1.2135    0.0000 C   0  0  0  0  0  0  0  0  0  0  0  0
   -1.0323   -0.7500    0.0000 S   0  0  0  0  0  0  0  0  0  0  0  0
   -1.0323    0.7500    0.0000 C   0  0  0  0  0  0  0  0  0  0  0  0
   -8.6968    2.5222    0.0000 S   0  0  0  0  0  0  0  0  0  0  0  0
  1  2  2  0
  2  3  1  0
  3  4  1  0
  4  5  2  0
  5  6  1  0
  6  7  2  0
  7  8  1  0
  8  9  1  0
  8 10  2  0
  2 11  1  0
 11 12  1  0
 12 13  2  0
 13 14  1  0
 14 15  2  0
 15 16  1  0
 16 17  1  0
 17 18  1  0
 18 19  1  0
 19 20  2  0
 20 21  1  0
 21 22  2  0
 22 23  1  0
 23 24  1  0
 24 25  2  0
 25 26  1  0
 26 27  1  0
 15 28  1  0
 10  4  1  0
 28 12  1  0
 27 19  1  0
 27 23  2  0
M  END
>  <Compound_ID>  (12) 
CHEMBL518051

>  <Active>  (12) 
1

>  <Smiles>  (12) 
O=C(Nc1cccc(Cl)c1)Nc1ncc(CCNc2ncnc3ccsc23)s1

>  <canonical_smi>  (12) 
O=C(Nc1cccc(Cl)c1)Nc1ncc(CCNc2ncnc3ccsc23)s1

>  <Set>  (12) 
G1 active

>  <Set_type>  (12) 
G1

>  <MW>  (12) 
430.95

>  <HBD>  (12) 
3

>  <HBA>  (12) 
5

>  <NRB>  (12) 
6

>  <NR>  (12) 
4

>  <NAR>  (12) 
4

>  <PSA>  (12) 
91.83

>  <Standard Type>  (12) 
nan

>  <Standard Relation>  (12) 
nan

>  <Standard Units>  (12) 
nan

>  <Standard Value>  (12) 
nan

>  <Assay ChEMBL ID>  (12) 
nan

>  <Assay Description>  (12) 
nan

>  <BAO Label>  (12) 
nan

>  <bits>  (12) 
<rdkit.DataStructs.cDataStructs.ExplicitBitVect object at 0x000002A7EE0EE110>

>  <Group>  (12) 
G1

$$$$

     RDKit          2D

 25 28  0  0  0  0  0  0  0  0999 V2000
   -6.0000   -7.7942    0.0000 Cl  0  0  0  0  0  0  0  0  0  0  0  0
   -5.2500   -6.4952    0.0000 C   0  0  0  0  0  0  0  0  0  0  0  0
   -6.0000   -5.1962    0.0000 C   0  0  0  0  0  0  0  0  0  0  0  0
   -5.2500   -3.8971    0.0000 C   0  0  0  0  0  0  0  0  0  0  0  0
   -3.7500   -3.8971    0.0000 C   0  0  0  0  0  0  0  0  0  0  0  0
   -3.0000   -2.5981    0.0000 N   0  0  0  0  0  0  0  0  0  0  0  0
   -1.5000   -2.5981    0.0000 C   0  0  0  0  0  0  0  0  0  0  0  0
   -0.7500   -3.8971    0.0000 N   0  0  0  0  0  0  0  0  0  0  0  0
    0.7500   -3.8971    0.0000 N   0  0  0  0  0  0  0  0  0  0  0  0
    1.5000   -2.5981    0.0000 C   0  0  0  0  0  0  0  0  0  0  0  0
    3.0000   -2.5981    0.0000 C   0  0  0  0  0  0  0  0  0  0  0  0
    3.7500   -3.8971    0.0000 C   0  0  0  0  0  0  0  0  0  0  0  0
    3.0000   -5.1962    0.0000 C   0  0  0  0  0  0  0  0  0  0  0  0
    3.7500   -6.4952    0.0000 C   0  0  0  0  0  0  0  0  0  0  0  0
    5.2500   -6.4952    0.0000 N   0  0  0  0  0  0  0  0  0  0  0  0
    6.0000   -5.1962    0.0000 C   0  0  0  0  0  0  0  0  0  0  0  0
    5.2500   -3.8971    0.0000 C   0  0  0  0  0  0  0  0  0  0  0  0
    0.7500   -1.2990    0.0000 C   0  0  0  0  0  0  0  0  0  0  0  0
    1.5000    0.0000    0.0000 C   0  0  0  0  0  0  0  0  0  0  0  0
    0.7500    1.2990    0.0000 C   0  0  0  0  0  0  0  0  0  0  0  0
   -0.7500    1.2990    0.0000 C   0  0  0  0  0  0  0  0  0  0  0  0
   -1.5000    0.0000    0.0000 C   0  0  0  0  0  0  0  0  0  0  0  0
   -0.7500   -1.2990    0.0000 C   0  0  0  0  0  0  0  0  0  0  0  0
   -3.0000   -5.1962    0.0000 C   0  0  0  0  0  0  0  0  0  0  0  0
   -3.7500   -6.4952    0.0000 C   0  0  0  0  0  0  0  0  0  0  0  0
  1  2  1  0
  2  3  2  0
  3  4  1  0
  4  5  2  0
  5  6  1  0
  6  7  1  0
  7  8  2  0
  8  9  1  0
  9 10  2  0
 10 11  1  0
 11 12  1  0
 12 13  2  0
 13 14  1  0
 14 15  2  0
 15 16  1  0
 16 17  2  0
 10 18  1  0
 18 19  2  0
 19 20  1  0
 20 21  2  0
 21 22  1  0
 22 23  2  0
  5 24  1  0
 24 25  2  0
 25  2  1  0
 23  7  1  0
 17 12  1  0
 23 18  1  0
M  END
>  <Compound_ID>  (13) 
CHEMBL101253

>  <Active>  (13) 
1

>  <Smiles>  (13) 
Clc1ccc(Nc2nnc(Cc3ccncc3)c3ccccc23)cc1

>  <canonical_smi>  (13) 
Clc1ccc(Nc2nnc(Cc3ccncc3)c3ccccc23)cc1

>  <Set>  (13) 
G1 active

>  <Set_type>  (13) 
G1

>  <MW>  (13) 
346.82

>  <HBD>  (13) 
1

>  <HBA>  (13) 
4

>  <NRB>  (13) 
4

>  <NR>  (13) 
4

>  <NAR>  (13) 
4

>  <PSA>  (13) 
50.7

>  <Standard Type>  (13) 
nan

>  <Standard Relation>  (13) 
nan

>  <Standard Units>  (13) 
nan

>  <Standard Value>  (13) 
nan

>  <Assay ChEMBL ID>  (13) 
nan

>  <Assay Description>  (13) 
nan

>  <BAO Label>  (13) 
nan

>  <bits>  (13) 
<rdkit.DataStructs.cDataStructs.ExplicitBitVect object at 0x000002A7EE0EE0A0>

>  <Group>  (13) 
G1

$$$$

     RDKit          2D

 32 34  0  0  0  0  0  0  0  0999 V2000
    5.2500   -1.2990    0.0000 C   0  0  0  0  0  0  0  0  0  0  0  0
    3.7500   -1.2990    0.0000 N   0  0  0  0  0  0  0  0  0  0  0  0
    3.0000    0.0000    0.0000 C   0  0  0  0  0  0  0  0  0  0  0  0
    3.7500    1.2990    0.0000 O   0  0  0  0  0  0  0  0  0  0  0  0
    1.5000    0.0000    0.0000 C   0  0  0  0  0  0  0  0  0  0  0  0
    0.7500   -1.2990    0.0000 C   0  0  0  0  0  0  0  0  0  0  0  0
   -0.7500   -1.2990    0.0000 C   0  0  0  0  0  0  0  0  0  0  0  0
   -1.5000   -2.5981    0.0000 O   0  0  0  0  0  0  0  0  0  0  0  0
   -3.0000   -2.5981    0.0000 C   0  0  0  0  0  0  0  0  0  0  0  0
   -3.7500   -1.2990    0.0000 C   0  0  0  0  0  0  0  0  0  0  0  0
   -5.2500   -1.2990    0.0000 C   0  0  0  0  0  0  0  0  0  0  0  0
   -6.0000   -2.5981    0.0000 C   0  0  0  0  0  0  0  0  0  0  0  0
   -7.5000   -2.5981    0.0000 N   0  0  0  0  0  0  0  0  0  0  0  0
   -8.2500   -1.2990    0.0000 C   0  0  0  0  0  0  0  0  0  0  0  0
   -7.5000    0.0000    0.0000 O   0  0  0  0  0  0  0  0  0  0  0  0
   -9.7500   -1.2990    0.0000 N   0  0  0  0  0  0  0  0  0  0  0  0
  -10.5000    0.0000    0.0000 C   0  0  0  0  0  0  0  0  0  0  0  0
   -9.7500    1.2990    0.0000 C   0  0  0  0  0  0  0  0  0  0  0  0
  -10.5000    2.5981    0.0000 C   0  0  0  0  0  0  0  0  0  0  0  0
  -12.0000    2.5981    0.0000 C   0  0  0  0  0  0  0  0  0  0  0  0
  -12.7500    3.8971    0.0000 Cl  0  0  0  0  0  0  0  0  0  0  0  0
  -12.7500    1.2990    0.0000 C   0  0  0  0  0  0  0  0  0  0  0  0
  -14.2500    1.2990    0.0000 C   0  0  0  0  0  0  0  0  0  0  0  0
  -15.7500    1.2990    0.0000 F   0  0  0  0  0  0  0  0  0  0  0  0
  -14.2500   -0.2010    0.0000 F   0  0  0  0  0  0  0  0  0  0  0  0
  -14.2500    2.7990    0.0000 F   0  0  0  0  0  0  0  0  0  0  0  0
  -12.0000    0.0000    0.0000 C   0  0  0  0  0  0  0  0  0  0  0  0
   -5.2500   -3.8971    0.0000 C   0  0  0  0  0  0  0  0  0  0  0  0
   -3.7500   -3.8971    0.0000 C   0  0  0  0  0  0  0  0  0  0  0  0
   -1.5000    0.0000    0.0000 C   0  0  0  0  0  0  0  0  0  0  0  0
   -0.7500    1.2990    0.0000 C   0  0  0  0  0  0  0  0  0  0  0  0
    0.7500    1.2990    0.0000 N   0  0  0  0  0  0  0  0  0  0  0  0
  1  2  1  0
  2  3  1  0
  3  4  2  0
  3  5  1  0
  5  6  2  0
  6  7  1  0
  7  8  1  0
  8  9  1  0
  9 10  2  0
 10 11  1  0
 11 12  2  0
 12 13  1  0
 13 14  1  0
 14 15  2  0
 14 16  1  0
 16 17  1  0
 17 18  2  0
 18 19  1  0
 19 20  2  0
 20 21  1  0
 20 22  1  0
 22 23  1  0
 23 24  1  0
 23 25  1  0
 23 26  1  0
 22 27  2  0
 12 28  1  0
 28 29  2  0
  7 30  2  0
 30 31  1  0
 31 32  2  0
 32  5  1  0
 29  9  1  0
 27 17  1  0
M  END
>  <Compound_ID>  (14) 
CHEMBL1336

>  <Active>  (14) 
1

>  <Smiles>  (14) 
CNC(=O)c1cc(Oc2ccc(NC(=O)Nc3ccc(Cl)c(C(F)(F)F)c3)cc2)ccn1

>  <canonical_smi>  (14) 
CNC(=O)c1cc(Oc2ccc(NC(=O)Nc3ccc(Cl)c(C(F)(F)F)c3)cc2)ccn1

>  <Set>  (14) 
G1 active

>  <Set_type>  (14) 
G1

>  <MW>  (14) 
464.83

>  <HBD>  (14) 
3

>  <HBA>  (14) 
4

>  <NRB>  (14) 
5

>  <NR>  (14) 
3

>  <NAR>  (14) 
3

>  <PSA>  (14) 
92.35

>  <Standard Type>  (14) 
nan

>  <Standard Relation>  (14) 
nan

>  <Standard Units>  (14) 
nan

>  <Standard Value>  (14) 
nan

>  <Assay ChEMBL ID>  (14) 
nan

>  <Assay Description>  (14) 
nan

>  <BAO Label>  (14) 
nan

>  <bits>  (14) 
<rdkit.DataStructs.cDataStructs.ExplicitBitVect object at 0x000002A7EE0EE030>

>  <Group>  (14) 
G1

$$$$

     RDKit          2D

 35 39  0  0  0  0  0  0  0  0999 V2000
    3.0000   -5.1962    0.0000 C   0  0  0  0  0  0  0  0  0  0  0  0
    1.5000   -5.1962    0.0000 O   0  0  0  0  0  0  0  0  0  0  0  0
    0.7500   -3.8971    0.0000 C   0  0  0  0  0  0  0  0  0  0  0  0
    1.5000   -2.5981    0.0000 C   0  0  0  0  0  0  0  0  0  0  0  0
    0.7500   -1.2990    0.0000 C   0  0  0  0  0  0  0  0  0  0  0  0
    1.5000    0.0000    0.0000 N   0  0  0  0  0  0  0  0  0  0  0  0
    0.7500    1.2990    0.0000 C   0  0  0  0  0  0  0  0  0  0  0  0
   -0.7500    1.2990    0.0000 C   0  0  0  0  0  0  0  0  0  0  0  0
   -1.5000    0.0000    0.0000 C   0  0  0  0  0  0  0  0  0  0  0  0
   -3.0000    0.0000    0.0000 O   0  0  0  0  0  0  0  0  0  0  0  0
   -3.7500    1.2990    0.0000 C   0  0  0  0  0  0  0  0  0  0  0  0
   -3.0000    2.5981    0.0000 C   0  0  0  0  0  0  0  0  0  0  0  0
   -3.7500    3.8971    0.0000 C   0  0  0  0  0  0  0  0  0  0  0  0
   -5.2500    3.8971    0.0000 C   0  0  0  0  0  0  0  0  0  0  0  0
   -6.0000    5.1962    0.0000 C   0  0  0  0  0  0  0  0  0  0  0  0
   -5.2500    6.4952    0.0000 C   0  0  0  0  0  0  0  0  0  0  0  0
   -3.7500    6.4952    0.0000 O   0  0  0  0  0  0  0  0  0  0  0  0
   -6.0000    7.7942    0.0000 N   0  0  0  0  0  0  0  0  0  0  0  0
   -5.2500    9.0933    0.0000 C   0  0  0  0  0  0  0  0  0  0  0  0
   -3.7500    9.0933    0.0000 C   0  0  0  0  0  0  0  0  0  0  0  0
   -3.0000   10.3923    0.0000 C   0  0  0  0  0  0  0  0  0  0  0  0
   -3.7500   11.6913    0.0000 C   0  0  0  0  0  0  0  0  0  0  0  0
   -3.0000   12.9904    0.0000 Cl  0  0  0  0  0  0  0  0  0  0  0  0
   -5.2500   11.6913    0.0000 C   0  0  0  0  0  0  0  0  0  0  0  0
   -6.0000   10.3923    0.0000 C   0  0  0  0  0  0  0  0  0  0  0  0
   -7.5000    5.1962    0.0000 C   0  0  0  0  0  0  0  0  0  0  0  0
   -8.2500    3.8971    0.0000 C   0  0  0  0  0  0  0  0  0  0  0  0
   -7.5000    2.5981    0.0000 C   0  0  0  0  0  0  0  0  0  0  0  0
   -6.0000    2.5981    0.0000 C   0  0  0  0  0  0  0  0  0  0  0  0
   -5.2500    1.2990    0.0000 C   0  0  0  0  0  0  0  0  0  0  0  0
   -0.7500   -1.2990    0.0000 C   0  0  0  0  0  0  0  0  0  0  0  0
   -1.5000   -2.5981    0.0000 C   0  0  0  0  0  0  0  0  0  0  0  0
   -0.7500   -3.8971    0.0000 C   0  0  0  0  0  0  0  0  0  0  0  0
   -1.5000   -5.1962    0.0000 O   0  0  0  0  0  0  0  0  0  0  0  0
   -3.0000   -5.1962    0.0000 C   0  0  0  0  0  0  0  0  0  0  0  0
  1  2  1  0
  2  3  1  0
  3  4  2  0
  4  5  1  0
  5  6  2  0
  6  7  1  0
  7  8  2  0
  8  9  1  0
  9 10  1  0
 10 11  1  0
 11 12  2  0
 12 13  1  0
 13 14  2  0
 14 15  1  0
 15 16  1  0
 16 17  2  0
 16 18  1  0
 18 19  1  0
 19 20  2  0
 20 21  1  0
 21 22  2  0
 22 23  1  0
 22 24  1  0
 24 25  2  0
 15 26  2  0
 26 27  1  0
 27 28  2  0
 28 29  1  0
 29 30  2  0
  9 31  2  0
 31 32  1  0
 32 33  2  0
 33 34  1  0
 34 35  1  0
 33  3  1  0
 31  5  1  0
 30 11  1  0
 29 14  1  0
 25 19  1  0
M  END
>  <Compound_ID>  (15) 
CHEMBL429743

>  <Active>  (15) 
1

>  <Smiles>  (15) 
COc1cc2nccc(Oc3ccc4c(C(=O)Nc5ccc(Cl)cc5)cccc4c3)c2cc1OC

>  <canonical_smi>  (15) 
COc1cc2nccc(Oc3ccc4c(C(=O)Nc5ccc(Cl)cc5)cccc4c3)c2cc1OC

>  <Set>  (15) 
G1 active

>  <Set_type>  (15) 
G1

>  <MW>  (15) 
484.94

>  <HBD>  (15) 
1

>  <HBA>  (15) 
5

>  <NRB>  (15) 
6

>  <NR>  (15) 
5

>  <NAR>  (15) 
5

>  <PSA>  (15) 
69.68

>  <Standard Type>  (15) 
nan

>  <Standard Relation>  (15) 
nan

>  <Standard Units>  (15) 
nan

>  <Standard Value>  (15) 
nan

>  <Assay ChEMBL ID>  (15) 
nan

>  <Assay Description>  (15) 
nan

>  <BAO Label>  (15) 
nan

>  <bits>  (15) 
<rdkit.DataStructs.cDataStructs.ExplicitBitVect object at 0x000002A7EE0EDFC0>

>  <Group>  (15) 
G1

$$$$

     RDKit          2D

 39 43  0  0  0  0  0  0  0  0999 V2000
    4.9947   -6.3316    0.0000 O   0  0  0  0  0  0  0  0  0  0  0  0
    6.3650   -5.7215    0.0000 C   0  0  0  0  0  0  0  0  0  0  0  0
    6.5218   -4.2298    0.0000 C   0  0  0  0  0  0  0  0  0  0  0  0
    5.3083   -3.3481    0.0000 N   0  0  0  0  0  0  0  0  0  0  0  0
    3.8817   -3.8116    0.0000 C   0  0  0  0  0  0  0  0  0  0  0  0
    3.0000   -2.5981    0.0000 C   0  0  0  0  0  0  0  0  0  0  0  0
    1.5000   -2.5981    0.0000 N   0  0  0  0  0  0  0  0  0  0  0  0
    0.7500   -1.2990    0.0000 C   0  0  0  0  0  0  0  0  0  0  0  0
    1.5000    0.0000    0.0000 N   0  0  0  0  0  0  0  0  0  0  0  0
    0.7500    1.2990    0.0000 N   0  0  0  0  0  0  0  0  0  0  0  0
   -0.7500    1.2990    0.0000 C   0  0  0  0  0  0  0  0  0  0  0  0
   -1.5000    0.0000    0.0000 C   0  0  0  0  0  0  0  0  0  0  0  0
   -3.0000    0.0000    0.0000 C   0  0  0  0  0  0  0  0  0  0  0  0
   -3.7500   -1.2990    0.0000 C   0  0  0  0  0  0  0  0  0  0  0  0
   -5.2500   -1.2990    0.0000 O   0  0  0  0  0  0  0  0  0  0  0  0
   -6.0000    0.0000    0.0000 C   0  0  0  0  0  0  0  0  0  0  0  0
   -7.5000   -0.0000    0.0000 C   0  0  0  0  0  0  0  0  0  0  0  0
   -8.2500    1.2990    0.0000 C   0  0  0  0  0  0  0  0  0  0  0  0
   -9.7500    1.2990    0.0000 N   0  0  0  0  0  0  0  0  0  0  0  0
  -10.6317    0.0855    0.0000 C   0  0  0  0  0  0  0  0  0  0  0  0
  -12.0583    0.5490    0.0000 C   0  0  0  0  0  0  0  0  0  0  0  0
  -12.0583    2.0490    0.0000 C   0  0  0  0  0  0  0  0  0  0  0  0
  -10.6317    2.5126    0.0000 C   0  0  0  0  0  0  0  0  0  0  0  0
  -10.1682    3.9391    0.0000 C   0  0  0  0  0  0  0  0  0  0  0  0
  -11.1718    5.0539    0.0000 O   0  0  0  0  0  0  0  0  0  0  0  0
   -3.0000   -2.5981    0.0000 C   0  0  0  0  0  0  0  0  0  0  0  0
   -1.5000   -2.5981    0.0000 C   0  0  0  0  0  0  0  0  0  0  0  0
   -0.7500   -1.2990    0.0000 C   0  0  0  0  0  0  0  0  0  0  0  0
    3.8817   -1.3846    0.0000 C   0  0  0  0  0  0  0  0  0  0  0  0
    5.3083   -1.8481    0.0000 N   0  0  0  0  0  0  0  0  0  0  0  0
    7.5785   -6.6032    0.0000 N   0  0  0  0  0  0  0  0  0  0  0  0
    7.4217   -8.0950    0.0000 C   0  0  0  0  0  0  0  0  0  0  0  0
    6.0514   -8.7051    0.0000 C   0  0  0  0  0  0  0  0  0  0  0  0
    5.8946  -10.1969    0.0000 C   0  0  0  0  0  0  0  0  0  0  0  0
    7.1081  -11.0786    0.0000 C   0  0  0  0  0  0  0  0  0  0  0  0
    8.4785  -10.4685    0.0000 C   0  0  0  0  0  0  0  0  0  0  0  0
    9.6920  -11.3501    0.0000 F   0  0  0  0  0  0  0  0  0  0  0  0
    8.6353   -8.9767    0.0000 C   0  0  0  0  0  0  0  0  0  0  0  0
   10.0056   -8.3666    0.0000 F   0  0  0  0  0  0  0  0  0  0  0  0
  1  2  2  0
  2  3  1  0
  3  4  1  0
  4  5  1  0
  5  6  2  0
  6  7  1  0
  7  8  1  0
  8  9  2  0
  9 10  1  0
 10 11  2  0
 11 12  1  0
 12 13  2  0
 13 14  1  0
 14 15  1  0
 15 16  1  0
 16 17  1  0
 17 18  1  0
 18 19  1  0
 19 20  1  0
 20 21  1  0
 21 22  1  0
 22 23  1  0
 23 24  1  6
 24 25  1  0
 14 26  2  0
 26 27  1  0
 27 28  2  0
  6 29  1  0
 29 30  2  0
  2 31  1  0
 31 32  1  0
 32 33  2  0
 33 34  1  0
 34 35  2  0
 35 36  1  0
 36 37  1  0
 36 38  2  0
 38 39  1  0
 30  4  1  0
 38 32  1  0
 28  8  1  0
 28 12  1  0
 23 19  1  0
M  END
>  <Compound_ID>  (16) 
CHEMBL253968

>  <Active>  (16) 
1

>  <Smiles>  (16) 
O=C(Cn1cc(Nc2nncc3cc(OCCCN4CCC[C@@H]4CO)ccc23)cn1)Nc1cccc(F)c1F

>  <canonical_smi>  (16) 
O=C(Cn1cc(Nc2nncc3cc(OCCCN4CCC[C@@H]4CO)ccc23)cn1)Nc1cccc(F)c1F

>  <Set>  (16) 
G1 active

>  <Set_type>  (16) 
G1

>  <MW>  (16) 
537.57

>  <HBD>  (16) 
3

>  <HBA>  (16) 
8

>  <NRB>  (16) 
11

>  <NR>  (16) 
5

>  <NAR>  (16) 
4

>  <PSA>  (16) 
117.43

>  <Standard Type>  (16) 
nan

>  <Standard Relation>  (16) 
nan

>  <Standard Units>  (16) 
nan

>  <Standard Value>  (16) 
nan

>  <Assay ChEMBL ID>  (16) 
nan

>  <Assay Description>  (16) 
nan

>  <BAO Label>  (16) 
nan

>  <bits>  (16) 
<rdkit.DataStructs.cDataStructs.ExplicitBitVect object at 0x000002A7EE0EDF50>

>  <Group>  (16) 
G1

$$$$

     RDKit          2D

 36 40  0  0  0  0  0  0  0  0999 V2000
    3.0000    0.0000    0.0000 N   0  0  0  0  0  0  0  0  0  0  0  0
    1.5000    0.0000    0.0000 C   0  0  0  0  0  0  0  0  0  0  0  0
    0.7500   -1.2990    0.0000 N   0  0  0  0  0  0  0  0  0  0  0  0
   -0.7500   -1.2990    0.0000 C   0  0  0  0  0  0  0  0  0  0  0  0
   -1.5000    0.0000    0.0000 C   0  0  0  0  0  0  0  0  0  0  0  0
   -3.0000    0.0000    0.0000 C   0  0  0  0  0  0  0  0  0  0  0  0
   -3.7500    1.2990    0.0000 C   0  0  0  0  0  0  0  0  0  0  0  0
   -5.2500    1.2990    0.0000 C   0  0  0  0  0  0  0  0  0  0  0  0
   -6.0000    0.0000    0.0000 C   0  0  0  0  0  0  0  0  0  0  0  0
   -7.5000    0.0000    0.0000 C   0  0  0  0  0  0  0  0  0  0  0  0
   -8.2500   -1.2990    0.0000 O   0  0  0  0  0  0  0  0  0  0  0  0
   -8.2500    1.2990    0.0000 N   0  0  0  0  0  0  0  0  0  0  0  0
   -9.7418    1.4558    0.0000 C   0  0  0  0  0  0  0  0  0  0  0  0
  -10.0537    2.9231    0.0000 C   0  0  0  0  0  0  0  0  0  0  0  0
   -8.7546    3.6731    0.0000 C   0  0  0  0  0  0  0  0  0  0  0  0
   -7.6399    2.6694    0.0000 C   0  0  0  0  0  0  0  0  0  0  0  0
   -6.1727    2.9812    0.0000 C   0  0  0  0  0  0  0  0  0  0  0  0
   -5.7091    4.4078    0.0000 N   0  0  0  0  0  0  0  0  0  0  0  0
   -6.5908    5.6213    0.0000 C   0  0  0  0  0  0  0  0  0  0  0  0
   -5.7091    6.8349    0.0000 C   0  0  0  0  0  0  0  0  0  0  0  0
   -4.2826    6.3713    0.0000 C   0  0  0  0  0  0  0  0  0  0  0  0
   -4.2826    4.8713    0.0000 C   0  0  0  0  0  0  0  0  0  0  0  0
   -5.2500   -1.2990    0.0000 C   0  0  0  0  0  0  0  0  0  0  0  0
   -3.7500   -1.2990    0.0000 C   0  0  0  0  0  0  0  0  0  0  0  0
   -0.7500    1.2990    0.0000 N   0  0  0  0  0  0  0  0  0  0  0  0
    0.7500    1.2990    0.0000 C   0  0  0  0  0  0  0  0  0  0  0  0
    1.5000    2.5981    0.0000 N   0  0  0  0  0  0  0  0  0  0  0  0
    0.7500    3.8971    0.0000 C   0  0  0  0  0  0  0  0  0  0  0  0
    1.5000    5.1962    0.0000 C   0  0  0  0  0  0  0  0  0  0  0  0
    3.0000    5.1962    0.0000 C   0  0  0  0  0  0  0  0  0  0  0  0
    3.7500    3.8971    0.0000 Cl  0  0  0  0  0  0  0  0  0  0  0  0
    3.7500    6.4952    0.0000 C   0  0  0  0  0  0  0  0  0  0  0  0
    3.0000    7.7942    0.0000 C   0  0  0  0  0  0  0  0  0  0  0  0
    1.5000    7.7942    0.0000 C   0  0  0  0  0  0  0  0  0  0  0  0
    0.7500    6.4952    0.0000 C   0  0  0  0  0  0  0  0  0  0  0  0
   -0.7500    6.4952    0.0000 Cl  0  0  0  0  0  0  0  0  0  0  0  0
  1  2  1  0
  2  3  2  0
  3  4  1  0
  4  5  2  0
  5  6  1  0
  6  7  2  0
  7  8  1  0
  8  9  2  0
  9 10  1  0
 10 11  2  0
 10 12  1  0
 12 13  1  0
 13 14  1  0
 14 15  1  0
 15 16  1  0
 16 17  1  1
 17 18  1  0
 18 19  1  0
 19 20  1  0
 20 21  1  0
 21 22  1  0
  9 23  1  0
 23 24  2  0
  5 25  1  0
 25 26  2  0
 26 27  1  0
 27 28  1  0
 28 29  1  0
 29 30  2  0
 30 31  1  0
 30 32  1  0
 32 33  2  0
 33 34  1  0
 34 35  2  0
 35 36  1  0
 26  2  1  0
 35 29  1  0
 24  6  1  0
 16 12  1  0
 22 18  1  0
M  END
>  <Compound_ID>  (17) 
CHEMBL1088598

>  <Active>  (17) 
1

>  <Smiles>  (17) 
Nc1ncc(-c2ccc(C(=O)N3CCC[C@H]3CN3CCCC3)cc2)nc1NCc1c(Cl)cccc1Cl

>  <canonical_smi>  (17) 
Nc1ncc(-c2ccc(C(=O)N3CCC[C@H]3CN3CCCC3)cc2)nc1NCc1c(Cl)cccc1Cl

>  <Set>  (17) 
G1 active

>  <Set_type>  (17) 
G1

>  <MW>  (17) 
525.48

>  <HBD>  (17) 
2

>  <HBA>  (17) 
6

>  <NRB>  (17) 
7

>  <NR>  (17) 
5

>  <NAR>  (17) 
3

>  <PSA>  (17) 
87.38

>  <Standard Type>  (17) 
nan

>  <Standard Relation>  (17) 
nan

>  <Standard Units>  (17) 
nan

>  <Standard Value>  (17) 
nan

>  <Assay ChEMBL ID>  (17) 
nan

>  <Assay Description>  (17) 
nan

>  <BAO Label>  (17) 
nan

>  <bits>  (17) 
<rdkit.DataStructs.cDataStructs.ExplicitBitVect object at 0x000002A7EE0EDEE0>

>  <Group>  (17) 
G1

$$$$

     RDKit          2D

 33 36  0  0  0  0  0  0  0  0999 V2000
    3.7500   -1.2990    0.0000 C   0  0  0  0  0  0  0  0  0  0  0  0
    3.0000    0.0000    0.0000 O   0  0  0  0  0  0  0  0  0  0  0  0
    1.5000    0.0000    0.0000 C   0  0  0  0  0  0  0  0  0  0  0  0
    0.7500   -1.2990    0.0000 C   0  0  0  0  0  0  0  0  0  0  0  0
   -0.7500   -1.2990    0.0000 C   0  0  0  0  0  0  0  0  0  0  0  0
   -1.5000    0.0000    0.0000 C   0  0  0  0  0  0  0  0  0  0  0  0
   -3.0000    0.0000    0.0000 C   0  0  0  0  0  0  0  0  0  0  0  0
   -3.7500    1.2990    0.0000 O   0  0  0  0  0  0  0  0  0  0  0  0
   -5.2500    1.2990    0.0000 C   0  0  0  0  0  0  0  0  0  0  0  0
   -6.0000    2.5981    0.0000 C   0  0  0  0  0  0  0  0  0  0  0  0
   -7.5000    2.5981    0.0000 C   0  0  0  0  0  0  0  0  0  0  0  0
   -8.2500    1.2990    0.0000 C   0  0  0  0  0  0  0  0  0  0  0  0
   -9.7500    1.2990    0.0000 C   0  0  0  0  0  0  0  0  0  0  0  0
  -10.5000    2.5981    0.0000 O   0  0  0  0  0  0  0  0  0  0  0  0
  -12.0000    2.5981    0.0000 C   0  0  0  0  0  0  0  0  0  0  0  0
  -12.7500    3.8971    0.0000 N   0  0  0  0  0  0  0  0  0  0  0  0
  -14.2500    3.8971    0.0000 C   0  0  0  0  0  0  0  0  0  0  0  0
  -15.0000    5.1962    0.0000 C   0  0  0  0  0  0  0  0  0  0  0  0
  -16.4918    5.3529    0.0000 C   0  0  0  0  0  0  0  0  0  0  0  0
  -16.8037    6.8202    0.0000 N   0  0  0  0  0  0  0  0  0  0  0  0
  -15.5046    7.5702    0.0000 N   0  0  0  0  0  0  0  0  0  0  0  0
  -15.3478    9.0619    0.0000 C   0  0  0  0  0  0  0  0  0  0  0  0
  -14.3899    6.5665    0.0000 C   0  0  0  0  0  0  0  0  0  0  0  0
  -15.0000    2.5981    0.0000 C   0  0  0  0  0  0  0  0  0  0  0  0
  -14.2500    1.2990    0.0000 N   0  0  0  0  0  0  0  0  0  0  0  0
  -12.7500    1.2990    0.0000 C   0  0  0  0  0  0  0  0  0  0  0  0
  -12.0000    0.0000    0.0000 N   0  0  0  0  0  0  0  0  0  0  0  0
   -7.5000    0.0000    0.0000 C   0  0  0  0  0  0  0  0  0  0  0  0
   -6.0000    0.0000    0.0000 C   0  0  0  0  0  0  0  0  0  0  0  0
   -5.2500   -1.2990    0.0000 O   0  0  0  0  0  0  0  0  0  0  0  0
   -6.0000   -2.5981    0.0000 C   0  0  0  0  0  0  0  0  0  0  0  0
   -0.7500    1.2990    0.0000 C   0  0  0  0  0  0  0  0  0  0  0  0
    0.7500    1.2990    0.0000 C   0  0  0  0  0  0  0  0  0  0  0  0
  1  2  1  0
  2  3  1  0
  3  4  2  0
  4  5  1  0
  5  6  2  0
  6  7  1  0
  7  8  1  0
  8  9  1  0
  9 10  2  0
 10 11  1  0
 11 12  2  0
 12 13  1  0
 13 14  1  0
 14 15  1  0
 15 16  2  0
 16 17  1  0
 17 18  1  0
 18 19  1  0
 19 20  2  0
 20 21  1  0
 21 22  1  0
 21 23  1  0
 17 24  2  0
 24 25  1  0
 25 26  2  0
 26 27  1  0
 12 28  1  0
 28 29  2  0
 29 30  1  0
 30 31  1  0
  6 32  1  0
 32 33  2  0
 33  3  1  0
 29  9  1  0
 26 15  1  0
 23 18  2  0
M  END
>  <Compound_ID>  (18) 
CHEMBL1087661

>  <Active>  (18) 
1

>  <Smiles>  (18) 
COc1ccc(COc2ccc(COc3nc(-c4cnn(C)c4)cnc3N)cc2OC)cc1

>  <canonical_smi>  (18) 
COc1ccc(COc2ccc(COc3nc(-c4cnn(C)c4)cnc3N)cc2OC)cc1

>  <Set>  (18) 
G1 active

>  <Set_type>  (18) 
G1

>  <MW>  (18) 
447.5

>  <HBD>  (18) 
1

>  <HBA>  (18) 
8

>  <NRB>  (18) 
9

>  <NR>  (18) 
4

>  <NAR>  (18) 
4

>  <PSA>  (18) 
106.54

>  <Standard Type>  (18) 
nan

>  <Standard Relation>  (18) 
nan

>  <Standard Units>  (18) 
nan

>  <Standard Value>  (18) 
nan

>  <Assay ChEMBL ID>  (18) 
nan

>  <Assay Description>  (18) 
nan

>  <BAO Label>  (18) 
nan

>  <bits>  (18) 
<rdkit.DataStructs.cDataStructs.ExplicitBitVect object at 0x000002A7EE0EDE70>

>  <Group>  (18) 
G1

$$$$

     RDKit          2D

 30 33  0  0  0  0  0  0  0  0999 V2000
   -1.0323   -3.7500    0.0000 O   0  0  0  0  0  0  0  0  0  0  0  0
   -2.3313   -3.0000    0.0000 C   0  0  0  0  0  0  0  0  0  0  0  0
   -3.6304   -3.7500    0.0000 N   0  0  0  0  0  0  0  0  0  0  0  0
   -3.6304   -5.2500    0.0000 C   0  0  0  0  0  0  0  0  0  0  0  0
   -4.9294   -6.0000    0.0000 C   0  0  0  0  0  0  0  0  0  0  0  0
   -4.9294   -7.5000    0.0000 N   0  0  0  0  0  0  0  0  0  0  0  0
   -3.6304   -8.2500    0.0000 C   0  0  0  0  0  0  0  0  0  0  0  0
   -2.3313   -7.5000    0.0000 N   0  0  0  0  0  0  0  0  0  0  0  0
   -2.3313   -6.0000    0.0000 C   0  0  0  0  0  0  0  0  0  0  0  0
   -2.3313   -1.5000    0.0000 C   0  0  0  0  0  0  0  0  0  0  0  0
   -3.6304   -0.7500    0.0000 C   0  0  0  0  0  0  0  0  0  0  0  0
   -4.9294   -1.5000    0.0000 Cl  0  0  0  0  0  0  0  0  0  0  0  0
   -3.6304    0.7500    0.0000 C   0  0  0  0  0  0  0  0  0  0  0  0
   -2.3313    1.5000    0.0000 C   0  0  0  0  0  0  0  0  0  0  0  0
   -1.0323    0.7500    0.0000 C   0  0  0  0  0  0  0  0  0  0  0  0
    0.3943    1.2135    0.0000 C   0  0  0  0  0  0  0  0  0  0  0  0
    0.8578    2.6401    0.0000 N   0  0  0  0  0  0  0  0  0  0  0  0
    2.3250    2.9520    0.0000 C   0  0  0  0  0  0  0  0  0  0  0  0
    3.3287    1.8373    0.0000 C   0  0  0  0  0  0  0  0  0  0  0  0
    4.7960    2.1491    0.0000 C   0  0  0  0  0  0  0  0  0  0  0  0
    5.2595    3.5757    0.0000 C   0  0  0  0  0  0  0  0  0  0  0  0
    4.2558    4.6904    0.0000 C   0  0  0  0  0  0  0  0  0  0  0  0
    4.7193    6.1170    0.0000 C   0  0  0  0  0  0  0  0  0  0  0  0
    5.1828    7.5436    0.0000 F   0  0  0  0  0  0  0  0  0  0  0  0
    6.1459    5.6535    0.0000 F   0  0  0  0  0  0  0  0  0  0  0  0
    3.2927    6.5805    0.0000 F   0  0  0  0  0  0  0  0  0  0  0  0
    2.7886    4.3786    0.0000 C   0  0  0  0  0  0  0  0  0  0  0  0
    1.2760    0.0000    0.0000 N   0  0  0  0  0  0  0  0  0  0  0  0
    0.3943   -1.2135    0.0000 O   0  0  0  0  0  0  0  0  0  0  0  0
   -1.0323   -0.7500    0.0000 C   0  0  0  0  0  0  0  0  0  0  0  0
  1  2  2  0
  2  3  1  0
  3  4  1  0
  4  5  2  0
  5  6  1  0
  6  7  2  0
  7  8  1  0
  8  9  2  0
  2 10  1  0
 10 11  2  0
 11 12  1  0
 11 13  1  0
 13 14  2  0
 14 15  1  0
 15 16  1  0
 16 17  1  0
 17 18  1  0
 18 19  2  0
 19 20  1  0
 20 21  2  0
 21 22  1  0
 22 23  1  0
 23 24  1  0
 23 25  1  0
 23 26  1  0
 22 27  2  0
 16 28  2  0
 28 29  1  0
 29 30  1  0
  9  4  1  0
 30 10  1  0
 30 15  2  0
 27 18  1  0
M  END
>  <Compound_ID>  (19) 
CHEMBL491429

>  <Active>  (19) 
1

>  <Smiles>  (19) 
O=C(Nc1cncnc1)c1c(Cl)ccc2c(Nc3cccc(C(F)(F)F)c3)noc12

>  <canonical_smi>  (19) 
O=C(Nc1cncnc1)c1c(Cl)ccc2c(Nc3cccc(C(F)(F)F)c3)noc12

>  <Set>  (19) 
G1 active

>  <Set_type>  (19) 
G1

>  <MW>  (19) 
433.78

>  <HBD>  (19) 
2

>  <HBA>  (19) 
6

>  <NRB>  (19) 
4

>  <NR>  (19) 
4

>  <NAR>  (19) 
4

>  <PSA>  (19) 
92.94

>  <Standard Type>  (19) 
nan

>  <Standard Relation>  (19) 
nan

>  <Standard Units>  (19) 
nan

>  <Standard Value>  (19) 
nan

>  <Assay ChEMBL ID>  (19) 
nan

>  <Assay Description>  (19) 
nan

>  <BAO Label>  (19) 
nan

>  <bits>  (19) 
<rdkit.DataStructs.cDataStructs.ExplicitBitVect object at 0x000002A7EE0EDE00>

>  <Group>  (19) 
G1

$$$$

     RDKit          2D

 36 40  0  0  0  0  0  0  0  0999 V2000
   -5.2500   -3.8971    0.0000 C   0  0  0  0  0  0  0  0  0  0  0  0
   -3.7500   -3.8971    0.0000 N   0  0  0  0  0  0  0  0  0  0  0  0
   -3.0000   -5.1962    0.0000 C   0  0  0  0  0  0  0  0  0  0  0  0
   -3.7500   -6.4952    0.0000 O   0  0  0  0  0  0  0  0  0  0  0  0
   -1.5000   -5.1962    0.0000 C   0  0  0  0  0  0  0  0  0  0  0  0
   -0.7500   -3.8971    0.0000 C   0  0  0  0  0  0  0  0  0  0  0  0
    0.7500   -3.8971    0.0000 C   0  0  0  0  0  0  0  0  0  0  0  0
    1.5000   -2.5981    0.0000 O   0  0  0  0  0  0  0  0  0  0  0  0
    0.7500   -1.2990    0.0000 C   0  0  0  0  0  0  0  0  0  0  0  0
    1.5000    0.0000    0.0000 C   0  0  0  0  0  0  0  0  0  0  0  0
    0.7500    1.2990    0.0000 C   0  0  0  0  0  0  0  0  0  0  0  0
   -0.7500    1.2990    0.0000 C   0  0  0  0  0  0  0  0  0  0  0  0
   -1.7537    2.4138    0.0000 O   0  0  0  0  0  0  0  0  0  0  0  0
   -3.1240    1.8037    0.0000 C   0  0  0  0  0  0  0  0  0  0  0  0
   -4.4231    2.5537    0.0000 N   0  0  0  0  0  0  0  0  0  0  0  0
   -4.4231    4.0537    0.0000 C   0  0  0  0  0  0  0  0  0  0  0  0
   -3.1240    4.8037    0.0000 C   0  0  0  0  0  0  0  0  0  0  0  0
   -3.1240    6.3037    0.0000 C   0  0  0  0  0  0  0  0  0  0  0  0
   -4.4231    7.0537    0.0000 C   0  0  0  0  0  0  0  0  0  0  0  0
   -4.4231    8.5537    0.0000 Cl  0  0  0  0  0  0  0  0  0  0  0  0
   -5.7221    6.3037    0.0000 C   0  0  0  0  0  0  0  0  0  0  0  0
   -7.0211    7.0537    0.0000 O   0  0  0  0  0  0  0  0  0  0  0  0
   -8.3202    6.3037    0.0000 C   0  0  0  0  0  0  0  0  0  0  0  0
   -9.6192    7.0537    0.0000 C   0  0  0  0  0  0  0  0  0  0  0  0
  -10.9895    6.4435    0.0000 C   0  0  0  0  0  0  0  0  0  0  0  0
  -11.9932    7.5583    0.0000 C   0  0  0  0  0  0  0  0  0  0  0  0
  -11.2432    8.8573    0.0000 C   0  0  0  0  0  0  0  0  0  0  0  0
   -9.7760    8.5454    0.0000 N   0  0  0  0  0  0  0  0  0  0  0  0
   -8.6613    9.5491    0.0000 C   0  0  0  0  0  0  0  0  0  0  0  0
   -5.7221    4.8037    0.0000 C   0  0  0  0  0  0  0  0  0  0  0  0
   -2.9672    0.3119    0.0000 N   0  0  0  0  0  0  0  0  0  0  0  0
   -1.5000    0.0000    0.0000 C   0  0  0  0  0  0  0  0  0  0  0  0
   -0.7500   -1.2990    0.0000 C   0  0  0  0  0  0  0  0  0  0  0  0
    1.5000   -5.1962    0.0000 C   0  0  0  0  0  0  0  0  0  0  0  0
    0.7500   -6.4952    0.0000 C   0  0  0  0  0  0  0  0  0  0  0  0
   -0.7500   -6.4952    0.0000 N   0  0  0  0  0  0  0  0  0  0  0  0
  1  2  1  0
  2  3  1  0
  3  4  2  0
  3  5  1  0
  5  6  2  0
  6  7  1  0
  7  8  1  0
  8  9  1  0
  9 10  2  0
 10 11  1  0
 11 12  2  0
 12 13  1  0
 13 14  1  0
 14 15  1  0
 15 16  1  0
 16 17  2  0
 17 18  1  0
 18 19  2  0
 19 20  1  0
 19 21  1  0
 21 22  1  0
 22 23  1  0
 24 23  1  6
 24 25  1  0
 25 26  1  0
 26 27  1  0
 27 28  1  0
 28 29  1  0
 21 30  2  0
 14 31  2  0
 31 32  1  0
 32 33  2  0
  7 34  2  0
 34 35  1  0
 35 36  2  0
 36  5  1  0
 33  9  1  0
 32 12  1  0
 30 16  1  0
 28 24  1  0
M  END
>  <Compound_ID>  (20) 
CHEMBL231568

>  <Active>  (20) 
1

>  <Smiles>  (20) 
CNC(=O)c1cc(Oc2ccc3oc(Nc4ccc(Cl)c(OC[C@@H]5CCCN5C)c4)nc3c2)ccn1

>  <canonical_smi>  (20) 
CNC(=O)c1cc(Oc2ccc3oc(Nc4ccc(Cl)c(OC[C@@H]5CCCN5C)c4)nc3c2)ccn1

>  <Set>  (20) 
G1 active

>  <Set_type>  (20) 
G1

>  <MW>  (20) 
507.98

>  <HBD>  (20) 
2

>  <HBA>  (20) 
8

>  <NRB>  (20) 
8

>  <NR>  (20) 
5

>  <NAR>  (20) 
4

>  <PSA>  (20) 
101.75

>  <Standard Type>  (20) 
nan

>  <Standard Relation>  (20) 
nan

>  <Standard Units>  (20) 
nan

>  <Standard Value>  (20) 
nan

>  <Assay ChEMBL ID>  (20) 
nan

>  <Assay Description>  (20) 
nan

>  <BAO Label>  (20) 
nan

>  <bits>  (20) 
<rdkit.DataStructs.cDataStructs.ExplicitBitVect object at 0x000002A7EE0EDD20>

>  <Group>  (20) 
G1

$$$$

     RDKit          2D

 26 29  0  0  0  0  0  0  0  0999 V2000
   -8.2500   -1.2990    0.0000 C   0  0  0  0  0  0  0  0  0  0  0  0
   -7.5000   -2.5981    0.0000 C   0  0  0  0  0  0  0  0  0  0  0  0
   -6.0000   -2.5981    0.0000 C   0  0  0  0  0  0  0  0  0  0  0  0
   -5.2500   -1.2990    0.0000 C   0  0  0  0  0  0  0  0  0  0  0  0
   -3.7500   -1.2990    0.0000 C   0  0  0  0  0  0  0  0  0  0  0  0
   -3.0000   -2.5981    0.0000 C   0  0  0  0  0  0  0  0  0  0  0  0
   -1.5000   -2.5981    0.0000 C   0  0  0  0  0  0  0  0  0  0  0  0
   -0.7500   -3.8971    0.0000 C   0  0  0  0  0  0  0  0  0  0  0  0
   -1.5000   -5.1962    0.0000 C   0  0  0  0  0  0  0  0  0  0  0  0
   -0.8899   -6.5665    0.0000 C   0  0  0  0  0  0  0  0  0  0  0  0
   -2.0046   -7.5702    0.0000 C   0  0  0  0  0  0  0  0  0  0  0  0
   -1.8478   -9.0619    0.0000 C   0  0  0  0  0  0  0  0  0  0  0  0
   -3.3037   -6.8202    0.0000 N   0  0  0  0  0  0  0  0  0  0  0  0
   -2.9918   -5.3529    0.0000 O   0  0  0  0  0  0  0  0  0  0  0  0
    0.7500   -3.8971    0.0000 C   0  0  0  0  0  0  0  0  0  0  0  0
    1.5000   -5.1962    0.0000 O   0  0  0  0  0  0  0  0  0  0  0  0
    1.5000   -2.5981    0.0000 N   0  0  0  0  0  0  0  0  0  0  0  0
    0.7500   -1.2990    0.0000 C   0  0  0  0  0  0  0  0  0  0  0  0
    1.5000    0.0000    0.0000 C   0  0  0  0  0  0  0  0  0  0  0  0
    0.7500    1.2990    0.0000 C   0  0  0  0  0  0  0  0  0  0  0  0
   -0.7500    1.2990    0.0000 C   0  0  0  0  0  0  0  0  0  0  0  0
   -1.5000    2.5981    0.0000 Cl  0  0  0  0  0  0  0  0  0  0  0  0
   -1.5000    0.0000    0.0000 C   0  0  0  0  0  0  0  0  0  0  0  0
   -0.7500   -1.2990    0.0000 C   0  0  0  0  0  0  0  0  0  0  0  0
   -3.7500   -3.8971    0.0000 C   0  0  0  0  0  0  0  0  0  0  0  0
   -5.2500   -3.8971    0.0000 C   0  0  0  0  0  0  0  0  0  0  0  0
  1  2  1  0
  2  3  1  0
  3  4  2  0
  4  5  1  0
  5  6  2  0
  6  7  1  0
  7  8  2  0
  8  9  1  0
  9 10  2  0
 10 11  1  0
 11 12  1  0
 11 13  2  0
 13 14  1  0
  8 15  1  0
 15 16  2  0
 15 17  1  0
 17 18  1  0
 18 19  2  0
 19 20  1  0
 20 21  2  0
 21 22  1  0
 21 23  1  0
 23 24  2  0
  6 25  1  0
 25 26  2  0
 26  3  1  0
 24  7  1  0
 14  9  1  0
 24 18  1  0
M  END
>  <Compound_ID>  (21) 
CHEMBL255213

>  <Active>  (21) 
1

>  <Smiles>  (21) 
CCc1ccc(-c2c(-c3cc(C)no3)c(=O)[nH]c3ccc(Cl)cc23)cc1

>  <canonical_smi>  (21) 
CCc1ccc(-c2c(-c3cc(C)no3)c(=O)[nH]c3ccc(Cl)cc23)cc1

>  <Set>  (21) 
G1 active

>  <Set_type>  (21) 
G1

>  <MW>  (21) 
364.83

>  <HBD>  (21) 
1

>  <HBA>  (21) 
3

>  <NRB>  (21) 
3

>  <NR>  (21) 
4

>  <NAR>  (21) 
4

>  <PSA>  (21) 
58.89

>  <Standard Type>  (21) 
nan

>  <Standard Relation>  (21) 
nan

>  <Standard Units>  (21) 
nan

>  <Standard Value>  (21) 
nan

>  <Assay ChEMBL ID>  (21) 
nan

>  <Assay Description>  (21) 
nan

>  <BAO Label>  (21) 
nan

>  <bits>  (21) 
<rdkit.DataStructs.cDataStructs.ExplicitBitVect object at 0x000002A7EE0EDCB0>

>  <Group>  (21) 
G1

$$$$

     RDKit          2D

 18 20  0  0  0  0  0  0  0  0999 V2000
   -1.9679   -3.6517    0.0000 C   0  0  0  0  0  0  0  0  0  0  0  0
   -3.0826   -2.6480    0.0000 C   0  0  0  0  0  0  0  0  0  0  0  0
   -4.5092   -3.1115    0.0000 C   0  0  0  0  0  0  0  0  0  0  0  0
   -5.6239   -2.1078    0.0000 C   0  0  0  0  0  0  0  0  0  0  0  0
   -5.3120   -0.6406    0.0000 C   0  0  0  0  0  0  0  0  0  0  0  0
   -3.8855   -0.1771    0.0000 C   0  0  0  0  0  0  0  0  0  0  0  0
   -3.5736    1.2902    0.0000 N   0  0  0  0  0  0  0  0  0  0  0  0
   -4.6883    2.2939    0.0000 C   0  0  0  0  0  0  0  0  0  0  0  0
   -2.1470    1.7537    0.0000 C   0  0  0  0  0  0  0  0  0  0  0  0
   -1.8351    3.2209    0.0000 N   0  0  0  0  0  0  0  0  0  0  0  0
   -0.4086    3.6844    0.0000 C   0  0  0  0  0  0  0  0  0  0  0  0
    0.7062    2.6807    0.0000 N   0  0  0  0  0  0  0  0  0  0  0  0
    0.3943    1.2135    0.0000 C   0  0  0  0  0  0  0  0  0  0  0  0
    1.2760    0.0000    0.0000 N   0  0  0  0  0  0  0  0  0  0  0  0
    0.3943   -1.2135    0.0000 N   0  0  0  0  0  0  0  0  0  0  0  0
   -1.0323   -0.7500    0.0000 C   0  0  0  0  0  0  0  0  0  0  0  0
   -1.0323    0.7500    0.0000 C   0  0  0  0  0  0  0  0  0  0  0  0
   -2.7707   -1.1807    0.0000 C   0  0  0  0  0  0  0  0  0  0  0  0
  1  2  1  0
  2  3  2  0
  3  4  1  0
  4  5  2  0
  5  6  1  0
  6  7  1  0
  7  8  1  0
  7  9  1  0
  9 10  1  0
 10 11  1  0
 11 12  2  0
 12 13  1  0
 13 14  2  0
 14 15  1  0
 15 16  2  0
 16 17  1  0
  6 18  2  0
 18  2  1  0
 17  9  2  0
 17 13  1  0
M  END
>  <Compound_ID>  (22) 
CHEMBL136011

>  <Active>  (22) 
1

>  <Smiles>  (22) 
Cc1cccc(N(C)c2[nH]cnc3nncc2-3)c1

>  <canonical_smi>  (22) 
Cc1cccc(N(C)c2[nH]cnc3nncc2-3)c1

>  <Set>  (22) 
G1 active

>  <Set_type>  (22) 
G1

>  <MW>  (22) 
239.28

>  <HBD>  (22) 
1

>  <HBA>  (22) 
4

>  <NRB>  (22) 
2

>  <NR>  (22) 
3

>  <NAR>  (22) 
3

>  <PSA>  (22) 
57.7

>  <Standard Type>  (22) 
nan

>  <Standard Relation>  (22) 
nan

>  <Standard Units>  (22) 
nan

>  <Standard Value>  (22) 
nan

>  <Assay ChEMBL ID>  (22) 
nan

>  <Assay Description>  (22) 
nan

>  <BAO Label>  (22) 
nan

>  <bits>  (22) 
<rdkit.DataStructs.cDataStructs.ExplicitBitVect object at 0x000002A7EE0EDC40>

>  <Group>  (22) 
G1

$$$$

     RDKit          2D

 23 25  0  0  0  0  0  0  0  0999 V2000
    3.0000   -5.1962    0.0000 C   0  0  0  0  0  0  0  0  0  0  0  0
    1.5000   -5.1962    0.0000 O   0  0  0  0  0  0  0  0  0  0  0  0
    0.7500   -3.8971    0.0000 C   0  0  0  0  0  0  0  0  0  0  0  0
    1.5000   -2.5981    0.0000 C   0  0  0  0  0  0  0  0  0  0  0  0
    0.7500   -1.2990    0.0000 C   0  0  0  0  0  0  0  0  0  0  0  0
    1.5000    0.0000    0.0000 N   0  0  0  0  0  0  0  0  0  0  0  0
    0.7500    1.2990    0.0000 C   0  0  0  0  0  0  0  0  0  0  0  0
   -0.7500    1.2990    0.0000 N   0  0  0  0  0  0  0  0  0  0  0  0
   -1.5000    0.0000    0.0000 C   0  0  0  0  0  0  0  0  0  0  0  0
   -3.0000    0.0000    0.0000 N   0  0  0  0  0  0  0  0  0  0  0  0
   -3.7500    1.2990    0.0000 C   0  0  0  0  0  0  0  0  0  0  0  0
   -3.7500   -1.2990    0.0000 C   0  0  0  0  0  0  0  0  0  0  0  0
   -5.2500   -1.2990    0.0000 C   0  0  0  0  0  0  0  0  0  0  0  0
   -6.0000   -2.5981    0.0000 C   0  0  0  0  0  0  0  0  0  0  0  0
   -5.2500   -3.8971    0.0000 C   0  0  0  0  0  0  0  0  0  0  0  0
   -3.7500   -3.8971    0.0000 C   0  0  0  0  0  0  0  0  0  0  0  0
   -3.0000   -5.1962    0.0000 C   0  0  0  0  0  0  0  0  0  0  0  0
   -3.0000   -2.5981    0.0000 C   0  0  0  0  0  0  0  0  0  0  0  0
   -0.7500   -1.2990    0.0000 C   0  0  0  0  0  0  0  0  0  0  0  0
   -1.5000   -2.5981    0.0000 C   0  0  0  0  0  0  0  0  0  0  0  0
   -0.7500   -3.8971    0.0000 C   0  0  0  0  0  0  0  0  0  0  0  0
   -1.5000   -5.1962    0.0000 O   0  0  0  0  0  0  0  0  0  0  0  0
   -0.7500   -6.4952    0.0000 C   0  0  0  0  0  0  0  0  0  0  0  0
  1  2  1  0
  2  3  1  0
  3  4  2  0
  4  5  1  0
  5  6  2  0
  6  7  1  0
  7  8  2  0
  8  9  1  0
  9 10  1  0
 10 11  1  0
 10 12  1  0
 12 13  2  0
 13 14  1  0
 14 15  2  0
 15 16  1  0
 16 17  1  0
 16 18  2  0
  9 19  2  0
 19 20  1  0
 20 21  2  0
 21 22  1  0
 22 23  1  0
 21  3  1  0
 19  5  1  0
 18 12  1  0
M  END
>  <Compound_ID>  (23) 
CHEMBL553523

>  <Active>  (23) 
1

>  <Smiles>  (23) 
COc1cc2ncnc(N(C)c3cccc(C)c3)c2cc1OC

>  <canonical_smi>  (23) 
COc1cc2ncnc(N(C)c3cccc(C)c3)c2cc1OC

>  <Set>  (23) 
G1 active

>  <Set_type>  (23) 
G1

>  <MW>  (23) 
309.37

>  <HBD>  (23) 
0

>  <HBA>  (23) 
5

>  <NRB>  (23) 
4

>  <NR>  (23) 
3

>  <NAR>  (23) 
3

>  <PSA>  (23) 
47.48

>  <Standard Type>  (23) 
nan

>  <Standard Relation>  (23) 
nan

>  <Standard Units>  (23) 
nan

>  <Standard Value>  (23) 
nan

>  <Assay ChEMBL ID>  (23) 
nan

>  <Assay Description>  (23) 
nan

>  <BAO Label>  (23) 
nan

>  <bits>  (23) 
<rdkit.DataStructs.cDataStructs.ExplicitBitVect object at 0x000002A7EE0EDBD0>

>  <Group>  (23) 
G1

$$$$

     RDKit          2D

 29 32  0  0  0  0  0  0  0  0999 V2000
    0.7500   -9.0933    0.0000 C   0  0  0  0  0  0  0  0  0  0  0  0
    1.5000   -7.7942    0.0000 C   0  0  0  0  0  0  0  0  0  0  0  0
    0.7500   -6.4952    0.0000 O   0  0  0  0  0  0  0  0  0  0  0  0
    1.5000   -5.1962    0.0000 C   0  0  0  0  0  0  0  0  0  0  0  0
    3.0000   -5.1962    0.0000 O   0  0  0  0  0  0  0  0  0  0  0  0
    0.7500   -3.8971    0.0000 C   0  0  0  0  0  0  0  0  0  0  0  0
    1.5000   -2.5981    0.0000 N   0  0  0  0  0  0  0  0  0  0  0  0
    0.7500   -1.2990    0.0000 C   0  0  0  0  0  0  0  0  0  0  0  0
    1.5000    0.0000    0.0000 C   0  0  0  0  0  0  0  0  0  0  0  0
    0.7500    1.2990    0.0000 N   0  0  0  0  0  0  0  0  0  0  0  0
   -0.7500    1.2990    0.0000 C   0  0  0  0  0  0  0  0  0  0  0  0
   -1.5000    2.5981    0.0000 N   0  0  0  0  0  0  0  0  0  0  0  0
   -0.7500    3.8971    0.0000 C   0  0  0  0  0  0  0  0  0  0  0  0
    0.7500    3.8971    0.0000 C   0  0  0  0  0  0  0  0  0  0  0  0
    1.5000    5.1962    0.0000 C   0  0  0  0  0  0  0  0  0  0  0  0
    0.7500    6.4952    0.0000 C   0  0  0  0  0  0  0  0  0  0  0  0
   -0.7500    6.4952    0.0000 C   0  0  0  0  0  0  0  0  0  0  0  0
   -1.5000    5.1962    0.0000 C   0  0  0  0  0  0  0  0  0  0  0  0
   -1.5000    0.0000    0.0000 N   0  0  0  0  0  0  0  0  0  0  0  0
   -0.7500   -1.2990    0.0000 C   0  0  0  0  0  0  0  0  0  0  0  0
   -1.5000   -2.5981    0.0000 N   0  0  0  0  0  0  0  0  0  0  0  0
   -3.0000   -2.5981    0.0000 C   0  0  0  0  0  0  0  0  0  0  0  0
   -3.7500   -1.2990    0.0000 C   0  0  0  0  0  0  0  0  0  0  0  0
   -5.2500   -1.2990    0.0000 C   0  0  0  0  0  0  0  0  0  0  0  0
   -6.0000   -2.5981    0.0000 C   0  0  0  0  0  0  0  0  0  0  0  0
   -5.2500   -3.8971    0.0000 C   0  0  0  0  0  0  0  0  0  0  0  0
   -3.7500   -3.8971    0.0000 C   0  0  0  0  0  0  0  0  0  0  0  0
   -0.7500   -3.8971    0.0000 C   0  0  0  0  0  0  0  0  0  0  0  0
   -1.5000   -5.1962    0.0000 O   0  0  0  0  0  0  0  0  0  0  0  0
  1  2  1  0
  2  3  1  0
  3  4  1  0
  4  5  2  0
  4  6  1  0
  6  7  2  0
  7  8  1  0
  8  9  2  0
  9 10  1  0
 10 11  2  0
 11 12  1  0
 12 13  1  0
 13 14  2  0
 14 15  1  0
 15 16  2  0
 16 17  1  0
 17 18  2  0
 11 19  1  0
 19 20  2  0
 20 21  1  0
 21 22  1  0
 22 23  2  0
 23 24  1  0
 24 25  2  0
 25 26  1  0
 26 27  2  0
 21 28  1  0
 28 29  2  0
 28  6  1  0
 20  8  1  0
 27 22  1  0
 18 13  1  0
M  END
>  <Compound_ID>  (24) 
CHEMBL258365

>  <Active>  (24) 
1

>  <Smiles>  (24) 
CCOC(=O)c1nc2cnc(Nc3ccccc3)nc2n(-c2ccccc2)c1=O

>  <canonical_smi>  (24) 
CCOC(=O)c1nc2cnc(Nc3ccccc3)nc2n(-c2ccccc2)c1=O

>  <Set>  (24) 
G1 active

>  <Set_type>  (24) 
G1

>  <MW>  (24) 
387.4

>  <HBD>  (24) 
1

>  <HBA>  (24) 
7

>  <NRB>  (24) 
5

>  <NR>  (24) 
4

>  <NAR>  (24) 
4

>  <PSA>  (24) 
99.0

>  <Standard Type>  (24) 
nan

>  <Standard Relation>  (24) 
nan

>  <Standard Units>  (24) 
nan

>  <Standard Value>  (24) 
nan

>  <Assay ChEMBL ID>  (24) 
nan

>  <Assay Description>  (24) 
nan

>  <BAO Label>  (24) 
nan

>  <bits>  (24) 
<rdkit.DataStructs.cDataStructs.ExplicitBitVect object at 0x000002A7EE0EDB60>

>  <Group>  (24) 
G1

$$$$

     RDKit          2D

 40 44  0  0  0  0  0  0  0  0999 V2000
    3.7500   -1.2990    0.0000 C   0  0  0  0  0  0  0  0  0  0  0  0
    3.0000    0.0000    0.0000 O   0  0  0  0  0  0  0  0  0  0  0  0
    1.5000    0.0000    0.0000 C   0  0  0  0  0  0  0  0  0  0  0  0
    0.7500   -1.2990    0.0000 C   0  0  0  0  0  0  0  0  0  0  0  0
   -0.7500   -1.2990    0.0000 C   0  0  0  0  0  0  0  0  0  0  0  0
   -1.5000    0.0000    0.0000 C   0  0  0  0  0  0  0  0  0  0  0  0
   -3.0000    0.0000    0.0000 C   0  0  0  0  0  0  0  0  0  0  0  0
   -3.7500   -1.2990    0.0000 O   0  0  0  0  0  0  0  0  0  0  0  0
   -5.2500   -1.2990    0.0000 C   0  0  0  0  0  0  0  0  0  0  0  0
   -6.0000    0.0000    0.0000 C   0  0  0  0  0  0  0  0  0  0  0  0
   -7.5000    0.0000    0.0000 C   0  0  0  0  0  0  0  0  0  0  0  0
   -8.2500   -1.2990    0.0000 C   0  0  0  0  0  0  0  0  0  0  0  0
   -9.7500   -1.2990    0.0000 N   0  0  0  0  0  0  0  0  0  0  0  0
  -10.5000    0.0000    0.0000 C   0  0  0  0  0  0  0  0  0  0  0  0
   -9.7500    1.2990    0.0000 O   0  0  0  0  0  0  0  0  0  0  0  0
  -12.0000    0.0000    0.0000 C   0  0  0  0  0  0  0  0  0  0  0  0
  -12.8817   -1.2135    0.0000 C   0  0  0  0  0  0  0  0  0  0  0  0
  -12.4182   -2.6401    0.0000 C   0  0  0  0  0  0  0  0  0  0  0  0
  -14.3083   -0.7500    0.0000 N   0  0  0  0  0  0  0  0  0  0  0  0
  -15.5218   -1.6317    0.0000 C   0  0  0  0  0  0  0  0  0  0  0  0
  -16.8921   -1.0216    0.0000 C   0  0  0  0  0  0  0  0  0  0  0  0
  -16.2820    0.3487    0.0000 C   0  0  0  0  0  0  0  0  0  0  0  0
  -17.5022   -2.3919    0.0000 C   0  0  0  0  0  0  0  0  0  0  0  0
  -18.2624   -0.4115    0.0000 O   0  0  0  0  0  0  0  0  0  0  0  0
  -14.3083    0.7500    0.0000 N   0  0  0  0  0  0  0  0  0  0  0  0
  -15.5218    1.6317    0.0000 C   0  0  0  0  0  0  0  0  0  0  0  0
  -15.3650    3.1235    0.0000 C   0  0  0  0  0  0  0  0  0  0  0  0
  -16.5785    4.0051    0.0000 C   0  0  0  0  0  0  0  0  0  0  0  0
  -17.9488    3.3950    0.0000 C   0  0  0  0  0  0  0  0  0  0  0  0
  -18.1056    1.9033    0.0000 C   0  0  0  0  0  0  0  0  0  0  0  0
  -16.8921    1.0216    0.0000 C   0  0  0  0  0  0  0  0  0  0  0  0
  -12.8817    1.2135    0.0000 C   0  0  0  0  0  0  0  0  0  0  0  0
  -12.4182    2.6401    0.0000 O   0  0  0  0  0  0  0  0  0  0  0  0
   -7.5000   -2.5981    0.0000 N   0  0  0  0  0  0  0  0  0  0  0  0
   -6.0000   -2.5981    0.0000 C   0  0  0  0  0  0  0  0  0  0  0  0
   -3.7500    1.2990    0.0000 C   0  0  0  0  0  0  0  0  0  0  0  0
   -3.0000    2.5981    0.0000 C   0  0  0  0  0  0  0  0  0  0  0  0
   -1.5000    2.5981    0.0000 N   0  0  0  0  0  0  0  0  0  0  0  0
   -0.7500    1.2990    0.0000 C   0  0  0  0  0  0  0  0  0  0  0  0
    0.7500    1.2990    0.0000 C   0  0  0  0  0  0  0  0  0  0  0  0
  1  2  1  0
  2  3  1  0
  3  4  2  0
  4  5  1  0
  5  6  2  0
  6  7  1  0
  7  8  1  0
  8  9  1  0
  9 10  2  0
 10 11  1  0
 11 12  2  0
 12 13  1  0
 13 14  1  0
 14 15  2  0
 14 16  1  0
 16 17  2  0
 17 18  1  0
 17 19  1  0
 19 20  1  0
 20 21  1  0
 21 22  1  0
 21 23  1  0
 21 24  1  0
 19 25  1  0
 25 26  1  0
 26 27  2  0
 27 28  1  0
 28 29  2  0
 29 30  1  0
 30 31  2  0
 25 32  1  0
 32 33  2  0
 12 34  1  0
 34 35  2  0
  7 36  2  0
 36 37  1  0
 37 38  2  0
 38 39  1  0
 39 40  2  0
 40  3  1  0
 39  6  1  0
 35  9  1  0
 32 16  1  0
 31 26  1  0
M  END
>  <Compound_ID>  (25) 
CHEMBL460472

>  <Active>  (25) 
1

>  <Smiles>  (25) 
COc1ccc2c(Oc3ccc(NC(=O)c4c(C)n(CC(C)(C)O)n(-c5ccccc5)c4=O)nc3)ccnc2c1

>  <canonical_smi>  (25) 
COc1ccc2c(Oc3ccc(NC(=O)c4c(C)n(CC(C)(C)O)n(-c5ccccc5)c4=O)nc3)ccnc2c1

>  <Set>  (25) 
G1 active

>  <Set_type>  (25) 
G1

>  <MW>  (25) 
539.59

>  <HBD>  (25) 
2

>  <HBA>  (25) 
7

>  <NRB>  (25) 
8

>  <NR>  (25) 
5

>  <NAR>  (25) 
5

>  <PSA>  (25) 
120.5

>  <Standard Type>  (25) 
nan

>  <Standard Relation>  (25) 
nan

>  <Standard Units>  (25) 
nan

>  <Standard Value>  (25) 
nan

>  <Assay ChEMBL ID>  (25) 
nan

>  <Assay Description>  (25) 
nan

>  <BAO Label>  (25) 
nan

>  <bits>  (25) 
<rdkit.DataStructs.cDataStructs.ExplicitBitVect object at 0x000002A7EE0EDAF0>

>  <Group>  (25) 
G1

$$$$

     RDKit          2D

 37 41  0  0  0  0  0  0  0  0999 V2000
   -2.6401   -3.1891    0.0000 C   0  0  0  0  0  0  0  0  0  0  0  0
   -1.2135   -2.7256    0.0000 N   0  0  0  0  0  0  0  0  0  0  0  0
   -0.0000   -3.6073    0.0000 C   0  0  0  0  0  0  0  0  0  0  0  0
   -0.0000   -5.1073    0.0000 N   0  0  0  0  0  0  0  0  0  0  0  0
   -1.2990   -5.8573    0.0000 C   0  0  0  0  0  0  0  0  0  0  0  0
   -2.5981   -5.1073    0.0000 C   0  0  0  0  0  0  0  0  0  0  0  0
   -3.8971   -5.8573    0.0000 C   0  0  0  0  0  0  0  0  0  0  0  0
   -3.8971   -7.3573    0.0000 C   0  0  0  0  0  0  0  0  0  0  0  0
   -5.1962   -8.1073    0.0000 C   0  0  0  0  0  0  0  0  0  0  0  0
   -6.4952   -8.8573    0.0000 F   0  0  0  0  0  0  0  0  0  0  0  0
   -5.9462   -6.8083    0.0000 F   0  0  0  0  0  0  0  0  0  0  0  0
   -4.4462   -9.4063    0.0000 F   0  0  0  0  0  0  0  0  0  0  0  0
   -2.5981   -8.1073    0.0000 C   0  0  0  0  0  0  0  0  0  0  0  0
   -1.2990   -7.3573    0.0000 C   0  0  0  0  0  0  0  0  0  0  0  0
    1.2135   -2.7256    0.0000 N   0  0  0  0  0  0  0  0  0  0  0  0
    0.7500   -1.2990    0.0000 C   0  0  0  0  0  0  0  0  0  0  0  0
    1.5000    0.0000    0.0000 C   0  0  0  0  0  0  0  0  0  0  0  0
    0.7500    1.2990    0.0000 C   0  0  0  0  0  0  0  0  0  0  0  0
    1.5000    2.5981    0.0000 O   0  0  0  0  0  0  0  0  0  0  0  0
    3.0000    2.5981    0.0000 C   0  0  0  0  0  0  0  0  0  0  0  0
    3.7500    1.2990    0.0000 C   0  0  0  0  0  0  0  0  0  0  0  0
    5.2500    1.2990    0.0000 C   0  0  0  0  0  0  0  0  0  0  0  0
    6.0000    2.5981    0.0000 N   0  0  0  0  0  0  0  0  0  0  0  0
    5.2500    3.8971    0.0000 C   0  0  0  0  0  0  0  0  0  0  0  0
    6.0000    5.1962    0.0000 C   0  0  0  0  0  0  0  0  0  0  0  0
    5.3899    6.5665    0.0000 N   0  0  0  0  0  0  0  0  0  0  0  0
    6.5046    7.5702    0.0000 C   0  0  0  0  0  0  0  0  0  0  0  0
    7.8037    6.8202    0.0000 C   0  0  0  0  0  0  0  0  0  0  0  0
    9.1740    7.4303    0.0000 C   0  0  0  0  0  0  0  0  0  0  0  0
   10.5443    8.0404    0.0000 F   0  0  0  0  0  0  0  0  0  0  0  0
    9.7841    6.0600    0.0000 F   0  0  0  0  0  0  0  0  0  0  0  0
    8.5639    8.8006    0.0000 F   0  0  0  0  0  0  0  0  0  0  0  0
    7.4918    5.3529    0.0000 N   0  0  0  0  0  0  0  0  0  0  0  0
    3.7500    3.8971    0.0000 C   0  0  0  0  0  0  0  0  0  0  0  0
   -0.7500    1.2990    0.0000 C   0  0  0  0  0  0  0  0  0  0  0  0
   -1.5000    0.0000    0.0000 C   0  0  0  0  0  0  0  0  0  0  0  0
   -0.7500   -1.2990    0.0000 C   0  0  0  0  0  0  0  0  0  0  0  0
  1  2  1  0
  2  3  1  0
  3  4  1  0
  4  5  1  0
  5  6  2  0
  6  7  1  0
  7  8  2  0
  8  9  1  0
  9 10  1  0
  9 11  1  0
  9 12  1  0
  8 13  1  0
 13 14  2  0
  3 15  2  0
 15 16  1  0
 16 17  2  0
 17 18  1  0
 18 19  1  0
 19 20  1  0
 20 21  2  0
 21 22  1  0
 22 23  2  0
 23 24  1  0
 24 25  1  0
 25 26  2  0
 26 27  1  0
 27 28  2  0
 28 29  1  0
 29 30  1  0
 29 31  1  0
 29 32  1  0
 28 33  1  0
 24 34  2  0
 18 35  2  0
 35 36  1  0
 36 37  2  0
 37  2  1  0
 14  5  1  0
 37 16  1  0
 34 20  1  0
 33 25  1  0
M  END
>  <Compound_ID>  (26) 
CHEMBL558752

>  <Active>  (26) 
1

>  <Smiles>  (26) 
Cn1c(Nc2ccc(C(F)(F)F)cc2)nc2cc(Oc3ccnc(-c4ncc(C(F)(F)F)[nH]4)c3)ccc21

>  <canonical_smi>  (26) 
Cn1c(Nc2ccc(C(F)(F)F)cc2)nc2cc(Oc3ccnc(-c4ncc(C(F)(F)F)[nH]4)c3)ccc21

>  <Set>  (26) 
G1 active

>  <Set_type>  (26) 
G1

>  <MW>  (26) 
518.42

>  <HBD>  (26) 
2

>  <HBA>  (26) 
5

>  <NRB>  (26) 
5

>  <NR>  (26) 
5

>  <NAR>  (26) 
5

>  <PSA>  (26) 
80.65

>  <Standard Type>  (26) 
nan

>  <Standard Relation>  (26) 
nan

>  <Standard Units>  (26) 
nan

>  <Standard Value>  (26) 
nan

>  <Assay ChEMBL ID>  (26) 
nan

>  <Assay Description>  (26) 
nan

>  <BAO Label>  (26) 
nan

>  <bits>  (26) 
<rdkit.DataStructs.cDataStructs.ExplicitBitVect object at 0x000002A7EE0EDA80>

>  <Group>  (26) 
G1

$$$$

     RDKit          2D

 18 21  0  0  0  0  0  0  0  0999 V2000
    2.1815   -8.6745    0.0000 C   0  0  0  0  0  0  0  0  0  0  0  0
    0.6897   -8.8313    0.0000 C   0  0  0  0  0  0  0  0  0  0  0  0
   -0.1920   -7.6177    0.0000 C   0  0  0  0  0  0  0  0  0  0  0  0
    0.4182   -6.2474    0.0000 C   0  0  0  0  0  0  0  0  0  0  0  0
   -0.4635   -5.0339    0.0000 C   0  0  0  0  0  0  0  0  0  0  0  0
   -1.9635   -5.0339    0.0000 N   0  0  0  0  0  0  0  0  0  0  0  0
   -2.4271   -3.6073    0.0000 N   0  0  0  0  0  0  0  0  0  0  0  0
   -1.2135   -2.7256    0.0000 C   0  0  0  0  0  0  0  0  0  0  0  0
   -0.0000   -3.6073    0.0000 C   0  0  0  0  0  0  0  0  0  0  0  0
    1.2135   -2.7256    0.0000 O   0  0  0  0  0  0  0  0  0  0  0  0
    0.7500   -1.2990    0.0000 C   0  0  0  0  0  0  0  0  0  0  0  0
    1.5000    0.0000    0.0000 C   0  0  0  0  0  0  0  0  0  0  0  0
    0.7500    1.2990    0.0000 C   0  0  0  0  0  0  0  0  0  0  0  0
   -0.7500    1.2990    0.0000 C   0  0  0  0  0  0  0  0  0  0  0  0
   -1.5000    0.0000    0.0000 C   0  0  0  0  0  0  0  0  0  0  0  0
   -0.7500   -1.2990    0.0000 C   0  0  0  0  0  0  0  0  0  0  0  0
    1.9099   -6.0906    0.0000 C   0  0  0  0  0  0  0  0  0  0  0  0
    2.7916   -7.3041    0.0000 C   0  0  0  0  0  0  0  0  0  0  0  0
  1  2  2  0
  2  3  1  0
  3  4  2  0
  4  5  1  0
  5  6  2  0
  6  7  1  0
  7  8  1  0
  8  9  2  0
  9 10  1  0
 10 11  1  0
 11 12  2  0
 12 13  1  0
 13 14  2  0
 14 15  1  0
 15 16  2  0
  4 17  1  0
 17 18  2  0
 18  1  1  0
  9  5  1  0
 16 11  1  0
 16  8  1  0
M  END
>  <Compound_ID>  (27) 
CHEMBL406375

>  <Active>  (27) 
1

>  <Smiles>  (27) 
c1ccc(-c2n[nH]c3c2oc2ccccc23)cc1

>  <canonical_smi>  (27) 
c1ccc(-c2n[nH]c3c2oc2ccccc23)cc1

>  <Set>  (27) 
G1 active

>  <Set_type>  (27) 
G1

>  <MW>  (27) 
234.26

>  <HBD>  (27) 
1

>  <HBA>  (27) 
2

>  <NRB>  (27) 
1

>  <NR>  (27) 
4

>  <NAR>  (27) 
4

>  <PSA>  (27) 
41.82

>  <Standard Type>  (27) 
nan

>  <Standard Relation>  (27) 
nan

>  <Standard Units>  (27) 
nan

>  <Standard Value>  (27) 
nan

>  <Assay ChEMBL ID>  (27) 
nan

>  <Assay Description>  (27) 
nan

>  <BAO Label>  (27) 
nan

>  <bits>  (27) 
<rdkit.DataStructs.cDataStructs.ExplicitBitVect object at 0x000002A7EE0EDA10>

>  <Group>  (27) 
G1

$$$$

     RDKit          2D

 27 29  0  0  0  0  0  0  0  0999 V2000
   -0.7500   -3.8971    0.0000 O   0  0  0  0  0  0  0  0  0  0  0  0
    0.7500   -3.8971    0.0000 C   0  0  0  0  0  0  0  0  0  0  0  0
    1.5000   -2.5981    0.0000 N   0  0  0  0  0  0  0  0  0  0  0  0
    0.7500   -1.2990    0.0000 C   0  0  0  0  0  0  0  0  0  0  0  0
    1.5000    0.0000    0.0000 C   0  0  0  0  0  0  0  0  0  0  0  0
    0.7500    1.2990    0.0000 C   0  0  0  0  0  0  0  0  0  0  0  0
   -0.7500    1.2990    0.0000 C   0  0  0  0  0  0  0  0  0  0  0  0
   -1.5000    0.0000    0.0000 C   0  0  0  0  0  0  0  0  0  0  0  0
   -3.0000    0.0000    0.0000 C   0  0  0  0  0  0  0  0  0  0  0  0
   -4.5000    0.0000    0.0000 F   0  0  0  0  0  0  0  0  0  0  0  0
   -3.0000    1.5000    0.0000 F   0  0  0  0  0  0  0  0  0  0  0  0
   -3.0000   -1.5000    0.0000 F   0  0  0  0  0  0  0  0  0  0  0  0
   -0.7500   -1.2990    0.0000 C   0  0  0  0  0  0  0  0  0  0  0  0
    1.5000   -5.1962    0.0000 C   0  0  0  0  0  0  0  0  0  0  0  0
    0.7500   -6.4952    0.0000 C   0  0  0  0  0  0  0  0  0  0  0  0
    1.5000   -7.7942    0.0000 C   0  0  0  0  0  0  0  0  0  0  0  0
    3.0000   -7.7942    0.0000 C   0  0  0  0  0  0  0  0  0  0  0  0
    3.7500   -6.4952    0.0000 C   0  0  0  0  0  0  0  0  0  0  0  0
    3.0000   -5.1962    0.0000 C   0  0  0  0  0  0  0  0  0  0  0  0
    3.7500   -3.8971    0.0000 N   0  0  0  0  0  0  0  0  0  0  0  0
    5.2500   -3.8971    0.0000 C   0  0  0  0  0  0  0  0  0  0  0  0
    6.0000   -2.5981    0.0000 C   0  0  0  0  0  0  0  0  0  0  0  0
    7.5000   -2.5981    0.0000 C   0  0  0  0  0  0  0  0  0  0  0  0
    8.2500   -1.2990    0.0000 C   0  0  0  0  0  0  0  0  0  0  0  0
    7.5000   -0.0000    0.0000 N   0  0  0  0  0  0  0  0  0  0  0  0
    6.0000   -0.0000    0.0000 C   0  0  0  0  0  0  0  0  0  0  0  0
    5.2500   -1.2990    0.0000 C   0  0  0  0  0  0  0  0  0  0  0  0
  1  2  2  0
  2  3  1  0
  3  4  1  0
  4  5  2  0
  5  6  1  0
  6  7  2  0
  7  8  1  0
  8  9  1  0
  9 10  1  0
  9 11  1  0
  9 12  1  0
  8 13  2  0
  2 14  1  0
 14 15  2  0
 15 16  1  0
 16 17  2  0
 17 18  1  0
 18 19  2  0
 19 20  1  0
 20 21  1  0
 21 22  1  0
 22 23  2  0
 23 24  1  0
 24 25  2  0
 25 26  1  0
 26 27  2  0
 13  4  1  0
 19 14  1  0
 27 22  1  0
M  END
>  <Compound_ID>  (28) 
CHEMBL153843

>  <Active>  (28) 
1

>  <Smiles>  (28) 
O=C(Nc1cccc(C(F)(F)F)c1)c1ccccc1NCc1ccncc1

>  <canonical_smi>  (28) 
O=C(Nc1cccc(C(F)(F)F)c1)c1ccccc1NCc1ccncc1

>  <Set>  (28) 
G1 active

>  <Set_type>  (28) 
G1

>  <MW>  (28) 
371.36

>  <HBD>  (28) 
2

>  <HBA>  (28) 
3

>  <NRB>  (28) 
5

>  <NR>  (28) 
3

>  <NAR>  (28) 
3

>  <PSA>  (28) 
54.02

>  <Standard Type>  (28) 
nan

>  <Standard Relation>  (28) 
nan

>  <Standard Units>  (28) 
nan

>  <Standard Value>  (28) 
nan

>  <Assay ChEMBL ID>  (28) 
nan

>  <Assay Description>  (28) 
nan

>  <BAO Label>  (28) 
nan

>  <bits>  (28) 
<rdkit.DataStructs.cDataStructs.ExplicitBitVect object at 0x000002A7EE0ED930>

>  <Group>  (28) 
G1

$$$$

     RDKit          2D

 34 38  0  0  0  0  0  0  0  0999 V2000
    3.7500   -1.2990    0.0000 C   0  0  0  0  0  0  0  0  0  0  0  0
    3.0000    0.0000    0.0000 O   0  0  0  0  0  0  0  0  0  0  0  0
    1.5000    0.0000    0.0000 C   0  0  0  0  0  0  0  0  0  0  0  0
    0.7500   -1.2990    0.0000 C   0  0  0  0  0  0  0  0  0  0  0  0
   -0.7500   -1.2990    0.0000 C   0  0  0  0  0  0  0  0  0  0  0  0
   -1.5000    0.0000    0.0000 C   0  0  0  0  0  0  0  0  0  0  0  0
   -3.0000    0.0000    0.0000 C   0  0  0  0  0  0  0  0  0  0  0  0
   -3.7500    1.2990    0.0000 C   0  0  0  0  0  0  0  0  0  0  0  0
   -5.2500    1.2990    0.0000 C   0  0  0  0  0  0  0  0  0  0  0  0
   -6.1317    0.0855    0.0000 C   0  0  0  0  0  0  0  0  0  0  0  0
   -5.6682   -1.3411    0.0000 C   0  0  0  0  0  0  0  0  0  0  0  0
   -6.6718   -2.4558    0.0000 C   0  0  0  0  0  0  0  0  0  0  0  0
   -6.2083   -3.8824    0.0000 C   0  0  0  0  0  0  0  0  0  0  0  0
   -4.7411   -4.1942    0.0000 N   0  0  0  0  0  0  0  0  0  0  0  0
   -3.7374   -3.0795    0.0000 C   0  0  0  0  0  0  0  0  0  0  0  0
   -4.2009   -1.6529    0.0000 C   0  0  0  0  0  0  0  0  0  0  0  0
   -7.5583    0.5490    0.0000 N   0  0  0  0  0  0  0  0  0  0  0  0
   -7.5583    2.0490    0.0000 C   0  0  0  0  0  0  0  0  0  0  0  0
   -8.7718    2.9307    0.0000 C   0  0  0  0  0  0  0  0  0  0  0  0
   -8.6150    4.4225    0.0000 C   0  0  0  0  0  0  0  0  0  0  0  0
   -9.8285    5.3042    0.0000 C   0  0  0  0  0  0  0  0  0  0  0  0
  -11.1988    4.6941    0.0000 C   0  0  0  0  0  0  0  0  0  0  0  0
  -12.4124    5.5757    0.0000 S   0  0  0  0  0  0  0  0  0  0  0  0
  -12.2556    7.0675    0.0000 C   0  0  0  0  0  0  0  0  0  0  0  0
  -13.7827    4.9656    0.0000 O   0  0  0  0  0  0  0  0  0  0  0  0
  -11.3556    3.2023    0.0000 C   0  0  0  0  0  0  0  0  0  0  0  0
  -10.1421    2.3206    0.0000 C   0  0  0  0  0  0  0  0  0  0  0  0
  -10.2989    0.8288    0.0000 C   0  0  0  0  0  0  0  0  0  0  0  0
   -6.1317    2.5126    0.0000 N   0  0  0  0  0  0  0  0  0  0  0  0
   -5.6682    3.9391    0.0000 C   0  0  0  0  0  0  0  0  0  0  0  0
   -3.0000    2.5981    0.0000 C   0  0  0  0  0  0  0  0  0  0  0  0
   -1.5000    2.5981    0.0000 C   0  0  0  0  0  0  0  0  0  0  0  0
   -0.7500    1.2990    0.0000 C   0  0  0  0  0  0  0  0  0  0  0  0
    0.7500    1.2990    0.0000 C   0  0  0  0  0  0  0  0  0  0  0  0
  1  2  1  0
  2  3  1  0
  3  4  2  0
  4  5  1  0
  5  6  2  0
  6  7  1  0
  7  8  2  0
  8  9  1  0
  9 10  2  0
 10 11  1  0
 11 12  2  0
 12 13  1  0
 13 14  2  0
 14 15  1  0
 15 16  2  0
 10 17  1  0
 17 18  2  0
 18 19  1  0
 19 20  2  0
 20 21  1  0
 21 22  2  0
 22 23  1  0
 23 24  1  0
 23 25  2  0
 22 26  1  0
 26 27  2  0
 27 28  1  0
 18 29  1  0
 29 30  1  0
  8 31  1  0
 31 32  2  0
 32 33  1  0
 33 34  2  0
 34  3  1  0
 33  6  1  0
 29  9  1  0
 16 11  1  0
 27 19  1  0
M  END
>  <Compound_ID>  (29) 
CHEMBL237570

>  <Active>  (29) 
1

>  <Smiles>  (29) 
COc1ccc2cc(-c3c(-c4ccncc4)nc(-c4ccc(S(C)=O)cc4C)n3C)ccc2c1

>  <canonical_smi>  (29) 
COc1ccc2cc(-c3c(-c4ccncc4)nc(-c4ccc(S(C)=O)cc4C)n3C)ccc2c1

>  <Set>  (29) 
G1 active

>  <Set_type>  (29) 
G1

>  <MW>  (29) 
467.59

>  <HBD>  (29) 
0

>  <HBA>  (29) 
4

>  <NRB>  (29) 
5

>  <NR>  (29) 
5

>  <NAR>  (29) 
5

>  <PSA>  (29) 
57.01

>  <Standard Type>  (29) 
nan

>  <Standard Relation>  (29) 
nan

>  <Standard Units>  (29) 
nan

>  <Standard Value>  (29) 
nan

>  <Assay ChEMBL ID>  (29) 
nan

>  <Assay Description>  (29) 
nan

>  <BAO Label>  (29) 
nan

>  <bits>  (29) 
<rdkit.DataStructs.cDataStructs.ExplicitBitVect object at 0x000002A7EE0ED8C0>

>  <Group>  (29) 
G1

$$$$

     RDKit          2D

 25 28  0  0  0  0  0  0  0  0999 V2000
    1.8478   -9.0619    0.0000 C   0  0  0  0  0  0  0  0  0  0  0  0
    2.0046   -7.5702    0.0000 N   0  0  0  0  0  0  0  0  0  0  0  0
    3.3037   -6.8202    0.0000 C   0  0  0  0  0  0  0  0  0  0  0  0
    2.9918   -5.3529    0.0000 N   0  0  0  0  0  0  0  0  0  0  0  0
    1.5000   -5.1962    0.0000 C   0  0  0  0  0  0  0  0  0  0  0  0
    0.7500   -3.8971    0.0000 C   0  0  0  0  0  0  0  0  0  0  0  0
    1.5000   -2.5981    0.0000 C   0  0  0  0  0  0  0  0  0  0  0  0
    3.0000   -2.5981    0.0000 C   0  0  0  0  0  0  0  0  0  0  0  0
    3.7500   -3.8971    0.0000 C   0  0  0  0  0  0  0  0  0  0  0  0
    5.2500   -3.8971    0.0000 C   0  0  0  0  0  0  0  0  0  0  0  0
    6.0000   -2.5981    0.0000 C   0  0  0  0  0  0  0  0  0  0  0  0
    5.2500   -1.2990    0.0000 C   0  0  0  0  0  0  0  0  0  0  0  0
    3.7500   -1.2990    0.0000 C   0  0  0  0  0  0  0  0  0  0  0  0
    0.7500   -1.2990    0.0000 C   0  0  0  0  0  0  0  0  0  0  0  0
    1.5000    0.0000    0.0000 C   0  0  0  0  0  0  0  0  0  0  0  0
    0.7500    1.2990    0.0000 C   0  0  0  0  0  0  0  0  0  0  0  0
    1.5000    2.5981    0.0000 C   0  0  0  0  0  0  0  0  0  0  0  0
    2.2500    3.8971    0.0000 N   0  0  0  0  0  0  0  0  0  0  0  0
   -0.7500    1.2990    0.0000 C   0  0  0  0  0  0  0  0  0  0  0  0
   -1.5000    0.0000    0.0000 C   0  0  0  0  0  0  0  0  0  0  0  0
   -0.7500   -1.2990    0.0000 C   0  0  0  0  0  0  0  0  0  0  0  0
   -1.5000   -2.5981    0.0000 N   0  0  0  0  0  0  0  0  0  0  0  0
   -0.7500   -3.8971    0.0000 C   0  0  0  0  0  0  0  0  0  0  0  0
   -1.5000   -5.1962    0.0000 O   0  0  0  0  0  0  0  0  0  0  0  0
    0.8899   -6.5665    0.0000 C   0  0  0  0  0  0  0  0  0  0  0  0
  1  2  1  0
  2  3  1  0
  3  4  2  0
  4  5  1  0
  5  6  1  0
  6  7  2  0
  7  8  1  0
  8  9  2  0
  9 10  1  0
 10 11  2  0
 11 12  1  0
 12 13  2  0
  7 14  1  0
 14 15  2  0
 15 16  1  0
 16 17  1  0
 17 18  3  0
 16 19  2  0
 19 20  1  0
 20 21  2  0
 21 22  1  0
 22 23  1  0
 23 24  2  0
  5 25  2  0
 25  2  1  0
 23  6  1  0
 13  8  1  0
 21 14  1  0
M  END
>  <Compound_ID>  (30) 
CHEMBL273011

>  <Active>  (30) 
1

>  <Smiles>  (30) 
Cn1cnc(-c2c(-c3ccccc3)c3cc(C#N)ccc3[nH]c2=O)c1

>  <canonical_smi>  (30) 
Cn1cnc(-c2c(-c3ccccc3)c3cc(C#N)ccc3[nH]c2=O)c1

>  <Set>  (30) 
G1 active

>  <Set_type>  (30) 
G1

>  <MW>  (30) 
326.36

>  <HBD>  (30) 
1

>  <HBA>  (30) 
3

>  <NRB>  (30) 
2

>  <NR>  (30) 
4

>  <NAR>  (30) 
4

>  <PSA>  (30) 
74.47

>  <Standard Type>  (30) 
nan

>  <Standard Relation>  (30) 
nan

>  <Standard Units>  (30) 
nan

>  <Standard Value>  (30) 
nan

>  <Assay ChEMBL ID>  (30) 
nan

>  <Assay Description>  (30) 
nan

>  <BAO Label>  (30) 
nan

>  <bits>  (30) 
<rdkit.DataStructs.cDataStructs.ExplicitBitVect object at 0x000002A7EE0ED7E0>

>  <Group>  (30) 
G1

$$$$

     RDKit          2D

 33 36  0  0  0  0  0  0  0  0999 V2000
    1.3299    5.6152    0.0000 C   0  0  0  0  0  0  0  0  0  0  0  0
   -0.0967    5.1517    0.0000 O   0  0  0  0  0  0  0  0  0  0  0  0
   -0.4086    3.6844    0.0000 C   0  0  0  0  0  0  0  0  0  0  0  0
    0.7062    2.6807    0.0000 C   0  0  0  0  0  0  0  0  0  0  0  0
    0.3943    1.2135    0.0000 C   0  0  0  0  0  0  0  0  0  0  0  0
    1.2760    0.0000    0.0000 N   0  0  0  0  0  0  0  0  0  0  0  0
    0.3943   -1.2135    0.0000 C   0  0  0  0  0  0  0  0  0  0  0  0
   -1.0323   -0.7500    0.0000 N   0  0  0  0  0  0  0  0  0  0  0  0
   -2.2458   -1.6317    0.0000 C   0  0  0  0  0  0  0  0  0  0  0  0
   -2.2458   -3.1317    0.0000 C   0  0  0  0  0  0  0  0  0  0  0  0
   -3.6724   -3.5952    0.0000 C   0  0  0  0  0  0  0  0  0  0  0  0
   -4.1359   -5.0218    0.0000 O   0  0  0  0  0  0  0  0  0  0  0  0
   -5.6031   -5.3337    0.0000 C   0  0  0  0  0  0  0  0  0  0  0  0
   -6.0667   -6.7602    0.0000 C   0  0  0  0  0  0  0  0  0  0  0  0
   -7.5339   -7.0721    0.0000 C   0  0  0  0  0  0  0  0  0  0  0  0
   -7.9974   -8.4987    0.0000 C   0  0  0  0  0  0  0  0  0  0  0  0
   -6.9937   -9.6134    0.0000 C   0  0  0  0  0  0  0  0  0  0  0  0
   -5.5265   -9.3015    0.0000 C   0  0  0  0  0  0  0  0  0  0  0  0
   -5.0630   -7.8750    0.0000 C   0  0  0  0  0  0  0  0  0  0  0  0
   -3.5958   -7.5631    0.0000 C   0  0  0  0  0  0  0  0  0  0  0  0
   -2.1285   -7.2512    0.0000 F   0  0  0  0  0  0  0  0  0  0  0  0
   -3.2839   -9.0303    0.0000 F   0  0  0  0  0  0  0  0  0  0  0  0
   -3.9076   -6.0959    0.0000 F   0  0  0  0  0  0  0  0  0  0  0  0
   -4.5541   -2.3817    0.0000 C   0  0  0  0  0  0  0  0  0  0  0  0
   -6.0541   -2.3817    0.0000 C   0  0  0  0  0  0  0  0  0  0  0  0
   -6.8041   -1.0826    0.0000 N   0  0  0  0  0  0  0  0  0  0  0  0
   -6.8041   -3.6807    0.0000 O   0  0  0  0  0  0  0  0  0  0  0  0
   -3.6724   -1.1682    0.0000 S   0  0  0  0  0  0  0  0  0  0  0  0
   -1.0323    0.7500    0.0000 C   0  0  0  0  0  0  0  0  0  0  0  0
   -2.1470    1.7537    0.0000 C   0  0  0  0  0  0  0  0  0  0  0  0
   -1.8351    3.2209    0.0000 C   0  0  0  0  0  0  0  0  0  0  0  0
   -2.9499    4.2246    0.0000 O   0  0  0  0  0  0  0  0  0  0  0  0
   -4.3764    3.7611    0.0000 C   0  0  0  0  0  0  0  0  0  0  0  0
  1  2  1  0
  2  3  1  0
  3  4  2  0
  4  5  1  0
  5  6  1  0
  6  7  2  0
  7  8  1  0
  8  9  1  0
  9 10  2  0
 10 11  1  0
 11 12  1  0
 12 13  1  0
 13 14  1  0
 14 15  2  0
 15 16  1  0
 16 17  2  0
 17 18  1  0
 18 19  2  0
 19 20  1  0
 20 21  1  0
 20 22  1  0
 20 23  1  0
 11 24  2  0
 24 25  1  0
 25 26  1  0
 25 27  2  0
 24 28  1  0
  8 29  1  0
 29 30  1  0
 30 31  2  0
 31 32  1  0
 32 33  1  0
 31  3  1  0
 29  5  2  0
 28  9  1  0
 19 14  1  0
M  END
>  <Compound_ID>  (31) 
CHEMBL514499

>  <Active>  (31) 
1

>  <Smiles>  (31) 
COc1cc2ncn(-c3cc(OCc4ccccc4C(F)(F)F)c(C(N)=O)s3)c2cc1OC

>  <canonical_smi>  (31) 
COc1cc2ncn(-c3cc(OCc4ccccc4C(F)(F)F)c(C(N)=O)s3)c2cc1OC

>  <Set>  (31) 
G1 active

>  <Set_type>  (31) 
G1

>  <MW>  (31) 
477.46

>  <HBD>  (31) 
1

>  <HBA>  (31) 
5

>  <NRB>  (31) 
7

>  <NR>  (31) 
4

>  <NAR>  (31) 
4

>  <PSA>  (31) 
88.6

>  <Standard Type>  (31) 
nan

>  <Standard Relation>  (31) 
nan

>  <Standard Units>  (31) 
nan

>  <Standard Value>  (31) 
nan

>  <Assay ChEMBL ID>  (31) 
nan

>  <Assay Description>  (31) 
nan

>  <BAO Label>  (31) 
nan

>  <bits>  (31) 
<rdkit.DataStructs.cDataStructs.ExplicitBitVect object at 0x000002A7EE0ED770>

>  <Group>  (31) 
G1

$$$$

     RDKit          2D

 27 29  0  0  0  0  0  0  0  0999 V2000
   -0.7500   -3.8971    0.0000 O   0  0  0  0  0  0  0  0  0  0  0  0
    0.7500   -3.8971    0.0000 C   0  0  0  0  0  0  0  0  0  0  0  0
    1.5000   -2.5981    0.0000 N   0  0  0  0  0  0  0  0  0  0  0  0
    0.7500   -1.2990    0.0000 C   0  0  0  0  0  0  0  0  0  0  0  0
    1.5000    0.0000    0.0000 C   0  0  0  0  0  0  0  0  0  0  0  0
    0.7500    1.2990    0.0000 C   0  0  0  0  0  0  0  0  0  0  0  0
   -0.7500    1.2990    0.0000 C   0  0  0  0  0  0  0  0  0  0  0  0
   -1.5000    2.5981    0.0000 Cl  0  0  0  0  0  0  0  0  0  0  0  0
   -1.5000    0.0000    0.0000 C   0  0  0  0  0  0  0  0  0  0  0  0
   -3.0000    0.0000    0.0000 C   0  0  0  0  0  0  0  0  0  0  0  0
   -3.7500   -1.2990    0.0000 O   0  0  0  0  0  0  0  0  0  0  0  0
   -3.7500    1.2990    0.0000 N   0  0  0  0  0  0  0  0  0  0  0  0
   -5.2500    1.2990    0.0000 C   0  0  0  0  0  0  0  0  0  0  0  0
   -6.0000    2.5981    0.0000 C   0  0  0  0  0  0  0  0  0  0  0  0
   -7.5000    2.5981    0.0000 C   0  0  0  0  0  0  0  0  0  0  0  0
   -8.2500    1.2990    0.0000 C   0  0  0  0  0  0  0  0  0  0  0  0
   -7.5000    0.0000    0.0000 N   0  0  0  0  0  0  0  0  0  0  0  0
   -6.0000    0.0000    0.0000 C   0  0  0  0  0  0  0  0  0  0  0  0
   -0.7500   -1.2990    0.0000 C   0  0  0  0  0  0  0  0  0  0  0  0
    1.5000   -5.1962    0.0000 C   0  0  0  0  0  0  0  0  0  0  0  0
    0.7500   -6.4952    0.0000 C   0  0  0  0  0  0  0  0  0  0  0  0
    1.5000   -7.7942    0.0000 C   0  0  0  0  0  0  0  0  0  0  0  0
    3.0000   -7.7942    0.0000 C   0  0  0  0  0  0  0  0  0  0  0  0
    3.7500   -9.0933    0.0000 Cl  0  0  0  0  0  0  0  0  0  0  0  0
    3.7500   -6.4952    0.0000 C   0  0  0  0  0  0  0  0  0  0  0  0
    5.2500   -6.4952    0.0000 Cl  0  0  0  0  0  0  0  0  0  0  0  0
    3.0000   -5.1962    0.0000 C   0  0  0  0  0  0  0  0  0  0  0  0
  1  2  2  0
  2  3  1  0
  3  4  1  0
  4  5  2  0
  5  6  1  0
  6  7  2  0
  7  8  1  0
  7  9  1  0
  9 10  1  0
 10 11  2  0
 10 12  1  0
 12 13  1  0
 13 14  2  0
 14 15  1  0
 15 16  2  0
 16 17  1  0
 17 18  2  0
  9 19  2  0
  2 20  1  0
 20 21  2  0
 21 22  1  0
 22 23  2  0
 23 24  1  0
 23 25  1  0
 25 26  1  0
 25 27  2  0
 19  4  1  0
 27 20  1  0
 18 13  1  0
M  END
>  <Compound_ID>  (32) 
CHEMBL461365

>  <Active>  (32) 
1

>  <Smiles>  (32) 
O=C(Nc1ccc(Cl)c(C(=O)Nc2cccnc2)c1)c1ccc(Cl)c(Cl)c1

>  <canonical_smi>  (32) 
O=C(Nc1ccc(Cl)c(C(=O)Nc2cccnc2)c1)c1ccc(Cl)c(Cl)c1

>  <Set>  (32) 
G2 active

>  <Set_type>  (32) 
Train

>  <MW>  (32) 
420.68

>  <HBD>  (32) 
2

>  <HBA>  (32) 
3

>  <NRB>  (32) 
4

>  <NR>  (32) 
3

>  <NAR>  (32) 
3

>  <PSA>  (32) 
71.09

>  <Standard Type>  (32) 
nan

>  <Standard Relation>  (32) 
nan

>  <Standard Units>  (32) 
nan

>  <Standard Value>  (32) 
nan

>  <Assay ChEMBL ID>  (32) 
nan

>  <Assay Description>  (32) 
nan

>  <BAO Label>  (32) 
nan

>  <bits>  (32) 
<rdkit.DataStructs.cDataStructs.ExplicitBitVect object at 0x000002A7EE0ED700>

>  <Group>  (32) 
G1

$$$$

     RDKit          2D

 27 30  0  0  0  0  0  0  0  0999 V2000
  -14.5438   -2.9592    0.0000 C   0  0  0  0  0  0  0  0  0  0  0  0
  -13.1172   -2.4957    0.0000 C   0  0  0  0  0  0  0  0  0  0  0  0
  -12.8053   -1.0285    0.0000 C   0  0  0  0  0  0  0  0  0  0  0  0
  -11.3787   -0.5649    0.0000 C   0  0  0  0  0  0  0  0  0  0  0  0
  -10.2640   -1.5686    0.0000 C   0  0  0  0  0  0  0  0  0  0  0  0
  -10.5759   -3.0359    0.0000 C   0  0  0  0  0  0  0  0  0  0  0  0
   -9.4612   -4.0396    0.0000 N   0  0  0  0  0  0  0  0  0  0  0  0
   -8.0346   -3.5760    0.0000 C   0  0  0  0  0  0  0  0  0  0  0  0
   -7.7227   -2.1088    0.0000 O   0  0  0  0  0  0  0  0  0  0  0  0
   -6.9199   -4.5797    0.0000 N   0  0  0  0  0  0  0  0  0  0  0  0
   -5.4933   -4.1162    0.0000 C   0  0  0  0  0  0  0  0  0  0  0  0
   -4.3786   -5.1199    0.0000 C   0  0  0  0  0  0  0  0  0  0  0  0
   -2.9520   -4.6564    0.0000 C   0  0  0  0  0  0  0  0  0  0  0  0
   -2.6401   -3.1891    0.0000 C   0  0  0  0  0  0  0  0  0  0  0  0
   -1.2135   -2.7256    0.0000 C   0  0  0  0  0  0  0  0  0  0  0  0
   -0.0000   -3.6073    0.0000 C   0  0  0  0  0  0  0  0  0  0  0  0
    1.2135   -2.7256    0.0000 S   0  0  0  0  0  0  0  0  0  0  0  0
    0.7500   -1.2990    0.0000 C   0  0  0  0  0  0  0  0  0  0  0  0
    1.5000    0.0000    0.0000 N   0  0  0  0  0  0  0  0  0  0  0  0
    0.7500    1.2990    0.0000 C   0  0  0  0  0  0  0  0  0  0  0  0
   -0.7500    1.2990    0.0000 N   0  0  0  0  0  0  0  0  0  0  0  0
   -1.5000    0.0000    0.0000 C   0  0  0  0  0  0  0  0  0  0  0  0
   -3.0000    0.0000    0.0000 N   0  0  0  0  0  0  0  0  0  0  0  0
   -0.7500   -1.2990    0.0000 C   0  0  0  0  0  0  0  0  0  0  0  0
   -3.7548   -2.1855    0.0000 C   0  0  0  0  0  0  0  0  0  0  0  0
   -5.1814   -2.6490    0.0000 C   0  0  0  0  0  0  0  0  0  0  0  0
  -12.0025   -3.4994    0.0000 C   0  0  0  0  0  0  0  0  0  0  0  0
  1  2  1  0
  2  3  2  0
  3  4  1  0
  4  5  2  0
  5  6  1  0
  6  7  1  0
  7  8  1  0
  8  9  2  0
  8 10  1  0
 10 11  1  0
 11 12  2  0
 12 13  1  0
 13 14  2  0
 14 15  1  0
 15 16  2  0
 16 17  1  0
 17 18  1  0
 18 19  2  0
 19 20  1  0
 20 21  2  0
 21 22  1  0
 22 23  1  0
 22 24  2  0
 14 25  1  0
 25 26  2  0
  6 27  2  0
 27  2  1  0
 26 11  1  0
 24 15  1  0
 24 18  1  0
M  END
>  <Compound_ID>  (33) 
CHEMBL196363

>  <Active>  (33) 
1

>  <Smiles>  (33) 
Cc1cccc(NC(=O)Nc2ccc(-c3csc4ncnc(N)c34)cc2)c1

>  <canonical_smi>  (33) 
Cc1cccc(NC(=O)Nc2ccc(-c3csc4ncnc(N)c34)cc2)c1

>  <Set>  (33) 
G2 active

>  <Set_type>  (33) 
Train

>  <MW>  (33) 
375.46

>  <HBD>  (33) 
3

>  <HBA>  (33) 
4

>  <NRB>  (33) 
3

>  <NR>  (33) 
4

>  <NAR>  (33) 
4

>  <PSA>  (33) 
92.93

>  <Standard Type>  (33) 
nan

>  <Standard Relation>  (33) 
nan

>  <Standard Units>  (33) 
nan

>  <Standard Value>  (33) 
nan

>  <Assay ChEMBL ID>  (33) 
nan

>  <Assay Description>  (33) 
nan

>  <BAO Label>  (33) 
nan

>  <bits>  (33) 
<rdkit.DataStructs.cDataStructs.ExplicitBitVect object at 0x000002A7EE0ED690>

>  <Group>  (33) 
G1

$$$$

     RDKit          2D

 28 31  0  0  0  0  0  0  0  0999 V2000
    3.7500  -14.2894    0.0000 C   0  0  0  0  0  0  0  0  0  0  0  0
    3.0000  -12.9904    0.0000 C   0  0  0  0  0  0  0  0  0  0  0  0
    1.5000  -12.9904    0.0000 C   0  0  0  0  0  0  0  0  0  0  0  0
    0.7500  -11.6913    0.0000 C   0  0  0  0  0  0  0  0  0  0  0  0
    1.5000  -10.3923    0.0000 C   0  0  0  0  0  0  0  0  0  0  0  0
    0.7500   -9.0933    0.0000 F   0  0  0  0  0  0  0  0  0  0  0  0
    3.0000  -10.3923    0.0000 C   0  0  0  0  0  0  0  0  0  0  0  0
    3.7500   -9.0933    0.0000 N   0  0  0  0  0  0  0  0  0  0  0  0
    3.0000   -7.7942    0.0000 C   0  0  0  0  0  0  0  0  0  0  0  0
    1.5000   -7.7942    0.0000 O   0  0  0  0  0  0  0  0  0  0  0  0
    3.7500   -6.4952    0.0000 N   0  0  0  0  0  0  0  0  0  0  0  0
    3.0000   -5.1962    0.0000 C   0  0  0  0  0  0  0  0  0  0  0  0
    3.7500   -3.8971    0.0000 C   0  0  0  0  0  0  0  0  0  0  0  0
    3.0000   -2.5981    0.0000 C   0  0  0  0  0  0  0  0  0  0  0  0
    1.5000   -2.5981    0.0000 C   0  0  0  0  0  0  0  0  0  0  0  0
    0.7500   -1.2990    0.0000 C   0  0  0  0  0  0  0  0  0  0  0  0
    1.5000    0.0000    0.0000 C   0  0  0  0  0  0  0  0  0  0  0  0
    0.7500    1.2990    0.0000 C   0  0  0  0  0  0  0  0  0  0  0  0
   -0.7500    1.2990    0.0000 C   0  0  0  0  0  0  0  0  0  0  0  0
   -1.5000    0.0000    0.0000 C   0  0  0  0  0  0  0  0  0  0  0  0
   -2.9672   -0.3119    0.0000 N   0  0  0  0  0  0  0  0  0  0  0  0
   -3.1240   -1.8037    0.0000 N   0  0  0  0  0  0  0  0  0  0  0  0
   -1.7537   -2.4138    0.0000 C   0  0  0  0  0  0  0  0  0  0  0  0
   -1.4418   -3.8810    0.0000 N   0  0  0  0  0  0  0  0  0  0  0  0
   -0.7500   -1.2990    0.0000 C   0  0  0  0  0  0  0  0  0  0  0  0
    0.7500   -3.8971    0.0000 C   0  0  0  0  0  0  0  0  0  0  0  0
    1.5000   -5.1962    0.0000 C   0  0  0  0  0  0  0  0  0  0  0  0
    3.7500  -11.6913    0.0000 C   0  0  0  0  0  0  0  0  0  0  0  0
  1  2  1  0
  2  3  2  0
  3  4  1  0
  4  5  2  0
  5  6  1  0
  5  7  1  0
  7  8  1  0
  8  9  1  0
  9 10  2  0
  9 11  1  0
 11 12  1  0
 12 13  2  0
 13 14  1  0
 14 15  2  0
 15 16  1  0
 16 17  2  0
 17 18  1  0
 18 19  2  0
 19 20  1  0
 20 21  1  0
 21 22  1  0
 22 23  2  0
 23 24  1  0
 23 25  1  0
 15 26  1  0
 26 27  2  0
  7 28  2  0
 28  2  1  0
 27 12  1  0
 25 16  1  0
 25 20  2  0
M  END
>  <Compound_ID>  (34) 
CHEMBL223360

>  <Active>  (34) 
1

>  <Smiles>  (34) 
Cc1ccc(F)c(NC(=O)Nc2ccc(-c3cccc4[nH]nc(N)c34)cc2)c1

>  <canonical_smi>  (34) 
Cc1ccc(F)c(NC(=O)Nc2ccc(-c3cccc4[nH]nc(N)c34)cc2)c1

>  <Set>  (34) 
G2 active

>  <Set_type>  (34) 
Train

>  <MW>  (34) 
375.41

>  <HBD>  (34) 
4

>  <HBA>  (34) 
3

>  <NRB>  (34) 
3

>  <NR>  (34) 
4

>  <NAR>  (34) 
4

>  <PSA>  (34) 
95.83

>  <Standard Type>  (34) 
nan

>  <Standard Relation>  (34) 
nan

>  <Standard Units>  (34) 
nan

>  <Standard Value>  (34) 
nan

>  <Assay ChEMBL ID>  (34) 
nan

>  <Assay Description>  (34) 
nan

>  <BAO Label>  (34) 
nan

>  <bits>  (34) 
<rdkit.DataStructs.cDataStructs.ExplicitBitVect object at 0x000002A7EE0ED620>

>  <Group>  (34) 
G1

$$$$

     RDKit          2D

 34 38  0  0  0  0  0  0  0  0999 V2000
    0.7500   -6.4952    0.0000 C   0  0  0  0  0  0  0  0  0  0  0  0
   -0.7500   -6.4952    0.0000 C   0  0  0  0  0  0  0  0  0  0  0  0
   -1.5000   -7.7942    0.0000 C   0  0  0  0  0  0  0  0  0  0  0  0
   -3.0000   -7.7942    0.0000 C   0  0  0  0  0  0  0  0  0  0  0  0
   -3.7500   -6.4952    0.0000 C   0  0  0  0  0  0  0  0  0  0  0  0
   -5.2500   -6.4952    0.0000 N   0  0  0  0  0  0  0  0  0  0  0  0
   -6.0000   -5.1962    0.0000 C   0  0  0  0  0  0  0  0  0  0  0  0
   -5.2500   -3.8971    0.0000 O   0  0  0  0  0  0  0  0  0  0  0  0
   -7.5000   -5.1962    0.0000 C   0  0  0  0  0  0  0  0  0  0  0  0
   -8.2500   -3.8971    0.0000 C   0  0  0  0  0  0  0  0  0  0  0  0
   -9.7500   -3.8971    0.0000 C   0  0  0  0  0  0  0  0  0  0  0  0
  -10.5000   -5.1962    0.0000 C   0  0  0  0  0  0  0  0  0  0  0  0
  -12.0000   -5.1962    0.0000 C   0  0  0  0  0  0  0  0  0  0  0  0
  -12.7500   -3.8971    0.0000 N   0  0  0  0  0  0  0  0  0  0  0  0
  -12.0000   -2.5981    0.0000 C   0  0  0  0  0  0  0  0  0  0  0  0
  -12.7500   -1.2990    0.0000 C   0  0  0  0  0  0  0  0  0  0  0  0
  -14.2500   -1.2990    0.0000 N   0  0  0  0  0  0  0  0  0  0  0  0
  -15.0000    0.0000    0.0000 C   0  0  0  0  0  0  0  0  0  0  0  0
  -15.0000   -2.5981    0.0000 C   0  0  0  0  0  0  0  0  0  0  0  0
  -14.2500   -3.8971    0.0000 C   0  0  0  0  0  0  0  0  0  0  0  0
   -9.7500   -6.4952    0.0000 C   0  0  0  0  0  0  0  0  0  0  0  0
   -8.2500   -6.4952    0.0000 C   0  0  0  0  0  0  0  0  0  0  0  0
   -3.0000   -5.1962    0.0000 C   0  0  0  0  0  0  0  0  0  0  0  0
   -1.5000   -5.1962    0.0000 C   0  0  0  0  0  0  0  0  0  0  0  0
   -0.7500   -3.8971    0.0000 C   0  0  0  0  0  0  0  0  0  0  0  0
    0.7500   -3.8971    0.0000 C   0  0  0  0  0  0  0  0  0  0  0  0
    1.5000   -2.5981    0.0000 C   0  0  0  0  0  0  0  0  0  0  0  0
    0.7500   -1.2990    0.0000 C   0  0  0  0  0  0  0  0  0  0  0  0
    1.5000    0.0000    0.0000 C   0  0  0  0  0  0  0  0  0  0  0  0
    0.7500    1.2990    0.0000 C   0  0  0  0  0  0  0  0  0  0  0  0
   -0.7500    1.2990    0.0000 N   0  0  0  0  0  0  0  0  0  0  0  0
   -1.5000    0.0000    0.0000 C   0  0  0  0  0  0  0  0  0  0  0  0
   -0.7500   -1.2990    0.0000 C   0  0  0  0  0  0  0  0  0  0  0  0
   -1.5000   -2.5981    0.0000 C   0  0  0  0  0  0  0  0  0  0  0  0
  1  2  1  0
  2  3  2  0
  3  4  1  0
  4  5  2  0
  5  6  1  0
  6  7  1  0
  7  8  2  0
  7  9  1  0
  9 10  2  0
 10 11  1  0
 11 12  2  0
 12 13  1  0
 13 14  1  0
 14 15  1  0
 15 16  1  0
 16 17  1  0
 17 18  1  0
 17 19  1  0
 19 20  1  0
 12 21  1  0
 21 22  2  0
  5 23  1  0
 23 24  2  0
 24 25  1  0
 25 26  2  0
 26 27  1  0
 27 28  2  0
 28 29  1  0
 29 30  2  0
 30 31  1  0
 31 32  2  0
 32 33  1  0
 33 34  2  0
 24  2  1  0
 34 25  1  0
 22  9  1  0
 33 28  1  0
 20 14  1  0
M  END
>  <Compound_ID>  (35) 
CHEMBL521887

>  <Active>  (35) 
1

>  <Smiles>  (35) 
Cc1ccc(NC(=O)c2ccc(CN3CCN(C)CC3)cc2)cc1-c1ccc2ccncc2c1

>  <canonical_smi>  (35) 
Cc1ccc(NC(=O)c2ccc(CN3CCN(C)CC3)cc2)cc1-c1ccc2ccncc2c1

>  <Set>  (35) 
G2 active

>  <Set_type>  (35) 
Train

>  <MW>  (35) 
450.59

>  <HBD>  (35) 
1

>  <HBA>  (35) 
4

>  <NRB>  (35) 
5

>  <NR>  (35) 
5

>  <NAR>  (35) 
4

>  <PSA>  (35) 
48.47

>  <Standard Type>  (35) 
nan

>  <Standard Relation>  (35) 
nan

>  <Standard Units>  (35) 
nan

>  <Standard Value>  (35) 
nan

>  <Assay ChEMBL ID>  (35) 
nan

>  <Assay Description>  (35) 
nan

>  <BAO Label>  (35) 
nan

>  <bits>  (35) 
<rdkit.DataStructs.cDataStructs.ExplicitBitVect object at 0x000002A7EE0ED5B0>

>  <Group>  (35) 
G1

$$$$

     RDKit          2D

 36 40  0  0  0  0  0  0  0  0999 V2000
   -5.2500   -6.4952    0.0000 C   0  0  0  0  0  0  0  0  0  0  0  0
   -3.7500   -6.4952    0.0000 O   0  0  0  0  0  0  0  0  0  0  0  0
   -3.0000   -5.1962    0.0000 N   0  0  0  0  0  0  0  0  0  0  0  0
   -1.5000   -5.1962    0.0000 C   0  0  0  0  0  0  0  0  0  0  0  0
   -0.7500   -6.4952    0.0000 O   0  0  0  0  0  0  0  0  0  0  0  0
   -0.7500   -3.8971    0.0000 C   0  0  0  0  0  0  0  0  0  0  0  0
    0.7500   -3.8971    0.0000 C   0  0  0  0  0  0  0  0  0  0  0  0
    1.5000   -2.5981    0.0000 N   0  0  0  0  0  0  0  0  0  0  0  0
    3.0000   -2.5981    0.0000 C   0  0  0  0  0  0  0  0  0  0  0  0
    3.7500   -3.8971    0.0000 C   0  0  0  0  0  0  0  0  0  0  0  0
    5.2500   -3.8971    0.0000 C   0  0  0  0  0  0  0  0  0  0  0  0
    6.0000   -2.5981    0.0000 C   0  0  0  0  0  0  0  0  0  0  0  0
    5.2500   -1.2990    0.0000 C   0  0  0  0  0  0  0  0  0  0  0  0
    3.7500   -1.2990    0.0000 C   0  0  0  0  0  0  0  0  0  0  0  0
    0.7500   -1.2990    0.0000 C   0  0  0  0  0  0  0  0  0  0  0  0
    1.5000    0.0000    0.0000 N   0  0  0  0  0  0  0  0  0  0  0  0
    0.7500    1.2990    0.0000 C   0  0  0  0  0  0  0  0  0  0  0  0
    1.5000    2.5981    0.0000 N   0  0  0  0  0  0  0  0  0  0  0  0
    3.0000    2.5981    0.0000 C   0  0  0  0  0  0  0  0  0  0  0  0
    3.7500    1.2990    0.0000 C   0  0  0  0  0  0  0  0  0  0  0  0
    5.2500    1.2990    0.0000 C   0  0  0  0  0  0  0  0  0  0  0  0
    6.0000    2.5981    0.0000 C   0  0  0  0  0  0  0  0  0  0  0  0
    7.5000    2.5981    0.0000 C   0  0  0  0  0  0  0  0  0  0  0  0
    8.2500    1.2990    0.0000 C   0  0  0  0  0  0  0  0  0  0  0  0
    9.7500    1.2990    0.0000 N   0  0  0  0  0  0  0  0  0  0  0  0
   10.6317    2.5126    0.0000 C   0  0  0  0  0  0  0  0  0  0  0  0
   12.0583    2.0490    0.0000 C   0  0  0  0  0  0  0  0  0  0  0  0
   12.0583    0.5490    0.0000 C   0  0  0  0  0  0  0  0  0  0  0  0
   10.6317    0.0855    0.0000 C   0  0  0  0  0  0  0  0  0  0  0  0
    5.2500    3.8971    0.0000 C   0  0  0  0  0  0  0  0  0  0  0  0
    3.7500    3.8971    0.0000 C   0  0  0  0  0  0  0  0  0  0  0  0
   -0.7500    1.2990    0.0000 N   0  0  0  0  0  0  0  0  0  0  0  0
   -1.5000    0.0000    0.0000 C   0  0  0  0  0  0  0  0  0  0  0  0
   -0.7500   -1.2990    0.0000 C   0  0  0  0  0  0  0  0  0  0  0  0
   -1.5000   -2.5981    0.0000 C   0  0  0  0  0  0  0  0  0  0  0  0
   -3.0000   -2.5981    0.0000 O   0  0  0  0  0  0  0  0  0  0  0  0
  1  2  1  0
  2  3  1  0
  3  4  1  0
  4  5  2  0
  4  6  1  0
  6  7  2  0
  7  8  1  0
  8  9  1  0
  9 10  1  0
 10 11  1  0
 11 12  1  0
 12 13  1  0
 13 14  1  0
  8 15  1  0
 15 16  2  0
 16 17  1  0
 17 18  1  0
 18 19  1  0
 19 20  2  0
 20 21  1  0
 21 22  2  0
 22 23  1  0
 23 24  1  0
 24 25  1  0
 25 26  1  0
 26 27  1  0
 27 28  1  0
 28 29  1  0
 22 30  1  0
 30 31  2  0
 17 32  2  0
 32 33  1  0
 33 34  2  0
 34 35  1  0
 35 36  2  0
 35  6  1  0
 14  9  1  0
 34 15  1  0
 31 19  1  0
 29 25  1  0
M  END
>  <Compound_ID>  (36) 
CHEMBL490080

>  <Active>  (36) 
1

>  <Smiles>  (36) 
CONC(=O)c1cn(C2CCCCC2)c2nc(Nc3ccc(CCN4CCCC4)cc3)ncc2c1=O

>  <canonical_smi>  (36) 
CONC(=O)c1cn(C2CCCCC2)c2nc(Nc3ccc(CCN4CCCC4)cc3)ncc2c1=O

>  <Set>  (36) 
G2 active

>  <Set_type>  (36) 
Train

>  <MW>  (36) 
490.61

>  <HBD>  (36) 
2

>  <HBA>  (36) 
7

>  <NRB>  (36) 
8

>  <NR>  (36) 
5

>  <NAR>  (36) 
3

>  <PSA>  (36) 
101.38

>  <Standard Type>  (36) 
nan

>  <Standard Relation>  (36) 
nan

>  <Standard Units>  (36) 
nan

>  <Standard Value>  (36) 
nan

>  <Assay ChEMBL ID>  (36) 
nan

>  <Assay Description>  (36) 
nan

>  <BAO Label>  (36) 
nan

>  <bits>  (36) 
<rdkit.DataStructs.cDataStructs.ExplicitBitVect object at 0x000002A7EE0ED540>

>  <Group>  (36) 
G1

$$$$

     RDKit          2D

 26 28  0  0  0  0  0  0  0  0999 V2000
    3.0000    0.0000    0.0000 C   0  0  0  0  0  0  0  0  0  0  0  0
    1.5000    0.0000    0.0000 C   0  0  0  0  0  0  0  0  0  0  0  0
    0.7500   -1.2990    0.0000 C   0  0  0  0  0  0  0  0  0  0  0  0
   -0.7500   -1.2990    0.0000 N   0  0  0  0  0  0  0  0  0  0  0  0
   -1.5000    0.0000    0.0000 C   0  0  0  0  0  0  0  0  0  0  0  0
   -0.7500    1.2990    0.0000 C   0  0  0  0  0  0  0  0  0  0  0  0
   -1.5000    2.5981    0.0000 C   0  0  0  0  0  0  0  0  0  0  0  0
   -3.0000    2.5981    0.0000 O   0  0  0  0  0  0  0  0  0  0  0  0
   -0.7500    3.8971    0.0000 N   0  0  0  0  0  0  0  0  0  0  0  0
   -1.5000    5.1962    0.0000 C   0  0  0  0  0  0  0  0  0  0  0  0
   -0.7500    6.4952    0.0000 C   0  0  0  0  0  0  0  0  0  0  0  0
   -1.5000    7.7942    0.0000 C   0  0  0  0  0  0  0  0  0  0  0  0
   -3.0000    7.7942    0.0000 C   0  0  0  0  0  0  0  0  0  0  0  0
   -3.7500    6.4952    0.0000 C   0  0  0  0  0  0  0  0  0  0  0  0
   -5.2500    6.4952    0.0000 C   0  0  0  0  0  0  0  0  0  0  0  0
   -6.0000    7.7942    0.0000 C   0  0  0  0  0  0  0  0  0  0  0  0
   -6.0000    5.1962    0.0000 N   0  0  0  0  0  0  0  0  0  0  0  0
   -7.5000    5.1962    0.0000 C   0  0  0  0  0  0  0  0  0  0  0  0
   -8.2500    6.4952    0.0000 C   0  0  0  0  0  0  0  0  0  0  0  0
   -9.7500    6.4952    0.0000 N   0  0  0  0  0  0  0  0  0  0  0  0
  -10.5000    5.1962    0.0000 C   0  0  0  0  0  0  0  0  0  0  0  0
   -9.7500    3.8971    0.0000 C   0  0  0  0  0  0  0  0  0  0  0  0
  -10.5000    2.5981    0.0000 Br  0  0  0  0  0  0  0  0  0  0  0  0
   -8.2500    3.8971    0.0000 C   0  0  0  0  0  0  0  0  0  0  0  0
   -3.0000    5.1962    0.0000 C   0  0  0  0  0  0  0  0  0  0  0  0
    0.7500    1.2990    0.0000 C   0  0  0  0  0  0  0  0  0  0  0  0
  1  2  1  0
  2  3  2  0
  3  4  1  0
  4  5  2  0
  5  6  1  0
  6  7  1  0
  7  8  2  0
  7  9  1  0
  9 10  1  0
 10 11  2  0
 11 12  1  0
 12 13  2  0
 13 14  1  0
 14 15  1  0
 15 16  1  1
 15 17  1  0
 17 18  1  0
 18 19  2  0
 19 20  1  0
 20 21  2  0
 21 22  1  0
 22 23  1  0
 22 24  2  0
 14 25  2  0
  6 26  2  0
 26  2  1  0
 25 10  1  0
 24 18  1  0
M  END
>  <Compound_ID>  (37) 
CHEMBL514619

>  <Active>  (37) 
1

>  <Smiles>  (37) 
Cc1cncc(C(=O)Nc2cccc([C@H](C)Nc3cncc(Br)c3)c2)c1

>  <canonical_smi>  (37) 
Cc1cncc(C(=O)Nc2cccc([C@H](C)Nc3cncc(Br)c3)c2)c1

>  <Set>  (37) 
G2 active

>  <Set_type>  (37) 
Train

>  <MW>  (37) 
411.3

>  <HBD>  (37) 
2

>  <HBA>  (37) 
4

>  <NRB>  (37) 
5

>  <NR>  (37) 
3

>  <NAR>  (37) 
3

>  <PSA>  (37) 
66.91

>  <Standard Type>  (37) 
nan

>  <Standard Relation>  (37) 
nan

>  <Standard Units>  (37) 
nan

>  <Standard Value>  (37) 
nan

>  <Assay ChEMBL ID>  (37) 
nan

>  <Assay Description>  (37) 
nan

>  <BAO Label>  (37) 
nan

>  <bits>  (37) 
<rdkit.DataStructs.cDataStructs.ExplicitBitVect object at 0x000002A7EE0ED4D0>

>  <Group>  (37) 
G1

$$$$

     RDKit          2D

 41 46  0  0  0  0  0  0  0  0999 V2000
   -8.1172   -6.0985    0.0000 C   0  0  0  0  0  0  0  0  0  0  0  0
   -6.9681   -5.1343    0.0000 C   0  0  0  0  0  0  0  0  0  0  0  0
   -5.5586   -5.6473    0.0000 N   0  0  0  0  0  0  0  0  0  0  0  0
   -5.2981   -7.1245    0.0000 C   0  0  0  0  0  0  0  0  0  0  0  0
   -3.8886   -7.6375    0.0000 C   0  0  0  0  0  0  0  0  0  0  0  0
   -2.7395   -6.6734    0.0000 C   0  0  0  0  0  0  0  0  0  0  0  0
   -3.0000   -5.1962    0.0000 C   0  0  0  0  0  0  0  0  0  0  0  0
   -2.7395   -3.7189    0.0000 O   0  0  0  0  0  0  0  0  0  0  0  0
   -1.5000   -5.1962    0.0000 C   0  0  0  0  0  0  0  0  0  0  0  0
   -0.7500   -6.4952    0.0000 C   0  0  0  0  0  0  0  0  0  0  0  0
    0.7500   -6.4952    0.0000 C   0  0  0  0  0  0  0  0  0  0  0  0
    1.5000   -5.1962    0.0000 C   0  0  0  0  0  0  0  0  0  0  0  0
    0.7500   -3.8971    0.0000 C   0  0  0  0  0  0  0  0  0  0  0  0
    1.5000   -2.5981    0.0000 N   0  0  0  0  0  0  0  0  0  0  0  0
    0.7500   -1.2990    0.0000 C   0  0  0  0  0  0  0  0  0  0  0  0
    1.5000    0.0000    0.0000 N   0  0  0  0  0  0  0  0  0  0  0  0
    0.7500    1.2990    0.0000 C   0  0  0  0  0  0  0  0  0  0  0  0
   -0.7500    1.2990    0.0000 C   0  0  0  0  0  0  0  0  0  0  0  0
   -1.5000    2.5981    0.0000 C   0  0  0  0  0  0  0  0  0  0  0  0
   -0.7500    3.8971    0.0000 O   0  0  0  0  0  0  0  0  0  0  0  0
   -3.0000    2.5981    0.0000 C   0  0  0  0  0  0  0  0  0  0  0  0
   -3.7500    3.8971    0.0000 C   0  0  0  0  0  0  0  0  0  0  0  0
   -5.2500    3.8971    0.0000 O   0  0  0  0  0  0  0  0  0  0  0  0
   -3.0000    5.1962    0.0000 N   0  0  0  0  0  0  0  0  0  0  0  0
   -3.7500    6.4952    0.0000 O   0  0  0  0  0  0  0  0  0  0  0  0
   -3.0000    7.7942    0.0000 C   0  0  0  0  0  0  0  0  0  0  0  0
   -3.7500    1.2990    0.0000 C   0  0  0  0  0  0  0  0  0  0  0  0
   -3.0000    0.0000    0.0000 N   0  0  0  0  0  0  0  0  0  0  0  0
   -3.7500   -1.2990    0.0000 C   0  0  0  0  0  0  0  0  0  0  0  0
   -3.0000   -2.5981    0.0000 C   0  0  0  0  0  0  0  0  0  0  0  0
   -3.7500   -3.8971    0.0000 N   0  0  0  0  0  0  0  0  0  0  0  0
   -5.2500   -3.8971    0.0000 C   0  0  0  0  0  0  0  0  0  0  0  0
   -6.0000   -2.5981    0.0000 C   0  0  0  0  0  0  0  0  0  0  0  0
   -5.2500   -1.2990    0.0000 C   0  0  0  0  0  0  0  0  0  0  0  0
   -7.4672   -2.9099    0.0000 C   0  0  0  0  0  0  0  0  0  0  0  0
   -7.6240   -4.4017    0.0000 C   0  0  0  0  0  0  0  0  0  0  0  0
   -6.2537   -5.0118    0.0000 C   0  0  0  0  0  0  0  0  0  0  0  0
   -1.5000    0.0000    0.0000 C   0  0  0  0  0  0  0  0  0  0  0  0
   -0.7500   -1.2990    0.0000 N   0  0  0  0  0  0  0  0  0  0  0  0
   -0.7500   -3.8971    0.0000 C   0  0  0  0  0  0  0  0  0  0  0  0
   -4.4095   -4.6831    0.0000 C   0  0  0  0  0  0  0  0  0  0  0  0
  1  2  1  0
  2  3  1  0
  3  4  1  0
  4  5  1  0
  5  6  1  0
  6  7  1  0
  7  8  1  0
  7  9  1  0
  9 10  2  0
 10 11  1  0
 11 12  2  0
 12 13  1  0
 13 14  1  0
 14 15  1  0
 15 16  2  0
 16 17  1  0
 17 18  2  0
 18 19  1  0
 19 20  2  0
 19 21  1  0
 21 22  1  0
 22 23  2  0
 22 24  1  0
 24 25  1  0
 25 26  1  0
 21 27  2  0
 27 28  1  0
 28 29  1  0
 29 30  2  0
 30 31  1  0
 31 32  2  0
 32 33  1  0
 33 34  2  0
 33 35  1  0
 35 36  1  0
 36 37  1  0
 28 38  1  0
 38 39  2  0
 13 40  2  0
  7 41  1  0
 41  3  1  0
 40  9  1  0
 39 15  1  0
 38 18  1  0
 34 29  1  0
 37 32  1  0
M  END
>  <Compound_ID>  (38) 
CHEMBL450914

>  <Active>  (38) 
1

>  <Smiles>  (38) 
CCN1CCCC(O)(c2cccc(Nc3ncc4c(=O)c(C(=O)NOC)cn(-c5cnc6c(c5)CCC6)c4n3)c2)C1

>  <canonical_smi>  (38) 
CCN1CCCC(O)(c2cccc(Nc3ncc4c(=O)c(C(=O)NOC)cn(-c5cnc6c(c5)CCC6)c4n3)c2)C1

>  <Set>  (38) 
G2 active

>  <Set_type>  (38) 
Train

>  <MW>  (38) 
555.64

>  <HBD>  (38) 
3

>  <HBA>  (38) 
9

>  <NRB>  (38) 
7

>  <NR>  (38) 
6

>  <NAR>  (38) 
4

>  <PSA>  (38) 
134.5

>  <Standard Type>  (38) 
nan

>  <Standard Relation>  (38) 
nan

>  <Standard Units>  (38) 
nan

>  <Standard Value>  (38) 
nan

>  <Assay ChEMBL ID>  (38) 
nan

>  <Assay Description>  (38) 
nan

>  <BAO Label>  (38) 
nan

>  <bits>  (38) 
<rdkit.DataStructs.cDataStructs.ExplicitBitVect object at 0x000002A7EE0ED3F0>

>  <Group>  (38) 
G1

$$$$

     RDKit          2D

 29 31  0  0  0  0  0  0  0  0999 V2000
    3.0000    0.0000    0.0000 C   0  0  0  0  0  0  0  0  0  0  0  0
    1.5000    0.0000    0.0000 C   0  0  0  0  0  0  0  0  0  0  0  0
    0.7500   -1.2990    0.0000 C   0  0  0  0  0  0  0  0  0  0  0  0
   -0.7500   -1.2990    0.0000 C   0  0  0  0  0  0  0  0  0  0  0  0
   -1.5000    0.0000    0.0000 C   0  0  0  0  0  0  0  0  0  0  0  0
   -3.0000    0.0000    0.0000 N   0  0  0  0  0  0  0  0  0  0  0  0
   -3.7500    1.2990    0.0000 C   0  0  0  0  0  0  0  0  0  0  0  0
   -3.0000    2.5981    0.0000 O   0  0  0  0  0  0  0  0  0  0  0  0
   -5.2500    1.2990    0.0000 C   0  0  0  0  0  0  0  0  0  0  0  0
   -6.0000    2.5981    0.0000 C   0  0  0  0  0  0  0  0  0  0  0  0
   -7.5000    2.5981    0.0000 C   0  0  0  0  0  0  0  0  0  0  0  0
   -8.2500    1.2990    0.0000 C   0  0  0  0  0  0  0  0  0  0  0  0
   -7.5000    0.0000    0.0000 C   0  0  0  0  0  0  0  0  0  0  0  0
   -8.2500   -1.2990    0.0000 C   0  0  0  0  0  0  0  0  0  0  0  0
   -9.0000   -2.5981    0.0000 F   0  0  0  0  0  0  0  0  0  0  0  0
   -9.5490   -0.5490    0.0000 F   0  0  0  0  0  0  0  0  0  0  0  0
   -6.9510   -2.0490    0.0000 F   0  0  0  0  0  0  0  0  0  0  0  0
   -6.0000    0.0000    0.0000 C   0  0  0  0  0  0  0  0  0  0  0  0
   -0.7500    1.2990    0.0000 C   0  0  0  0  0  0  0  0  0  0  0  0
    0.7500    1.2990    0.0000 C   0  0  0  0  0  0  0  0  0  0  0  0
    1.5000    2.5981    0.0000 N   0  0  0  0  0  0  0  0  0  0  0  0
    0.7500    3.8971    0.0000 C   0  0  0  0  0  0  0  0  0  0  0  0
   -0.7500    3.8971    0.0000 O   0  0  0  0  0  0  0  0  0  0  0  0
    1.5000    5.1962    0.0000 C   0  0  0  0  0  0  0  0  0  0  0  0
    3.0000    5.1962    0.0000 C   0  0  0  0  0  0  0  0  0  0  0  0
    3.7500    6.4952    0.0000 C   0  0  0  0  0  0  0  0  0  0  0  0
    3.0000    7.7942    0.0000 C   0  0  0  0  0  0  0  0  0  0  0  0
    1.5000    7.7942    0.0000 N   0  0  0  0  0  0  0  0  0  0  0  0
    0.7500    6.4952    0.0000 C   0  0  0  0  0  0  0  0  0  0  0  0
  1  2  1  0
  2  3  2  0
  3  4  1  0
  4  5  2  0
  5  6  1  0
  6  7  1  0
  7  8  2  0
  7  9  1  0
  9 10  2  0
 10 11  1  0
 11 12  2  0
 12 13  1  0
 13 14  1  0
 14 15  1  0
 14 16  1  0
 14 17  1  0
 13 18  2  0
  5 19  1  0
 19 20  2  0
 20 21  1  0
 21 22  1  0
 22 23  2  0
 22 24  1  0
 24 25  2  0
 25 26  1  0
 26 27  2  0
 27 28  1  0
 28 29  2  0
 20  2  1  0
 29 24  1  0
 18  9  1  0
M  END
>  <Compound_ID>  (39) 
CHEMBL507803

>  <Active>  (39) 
1

>  <Smiles>  (39) 
Cc1ccc(NC(=O)c2cccc(C(F)(F)F)c2)cc1NC(=O)c1cccnc1

>  <canonical_smi>  (39) 
Cc1ccc(NC(=O)c2cccc(C(F)(F)F)c2)cc1NC(=O)c1cccnc1

>  <Set>  (39) 
G2 active

>  <Set_type>  (39) 
Train

>  <MW>  (39) 
399.37

>  <HBD>  (39) 
2

>  <HBA>  (39) 
3

>  <NRB>  (39) 
4

>  <NR>  (39) 
3

>  <NAR>  (39) 
3

>  <PSA>  (39) 
71.09

>  <Standard Type>  (39) 
nan

>  <Standard Relation>  (39) 
nan

>  <Standard Units>  (39) 
nan

>  <Standard Value>  (39) 
nan

>  <Assay ChEMBL ID>  (39) 
nan

>  <Assay Description>  (39) 
nan

>  <BAO Label>  (39) 
nan

>  <bits>  (39) 
<rdkit.DataStructs.cDataStructs.ExplicitBitVect object at 0x000002A7EE0ED380>

>  <Group>  (39) 
G1

$$$$

     RDKit          2D

 31 34  0  0  0  0  0  0  0  0999 V2000
    3.7500   -1.2990    0.0000 C   0  0  0  0  0  0  0  0  0  0  0  0
    3.0000    0.0000    0.0000 O   0  0  0  0  0  0  0  0  0  0  0  0
    1.5000    0.0000    0.0000 C   0  0  0  0  0  0  0  0  0  0  0  0
    0.7500   -1.2990    0.0000 C   0  0  0  0  0  0  0  0  0  0  0  0
   -0.7500   -1.2990    0.0000 C   0  0  0  0  0  0  0  0  0  0  0  0
   -1.5000   -2.5981    0.0000 C   0  0  0  0  0  0  0  0  0  0  0  0
   -0.7500   -3.8971    0.0000 N   0  0  0  0  0  0  0  0  0  0  0  0
    0.7500   -3.8971    0.0000 C   0  0  0  0  0  0  0  0  0  0  0  0
    1.5000   -2.5981    0.0000 C   0  0  0  0  0  0  0  0  0  0  0  0
    3.0000   -2.5981    0.0000 C   0  0  0  0  0  0  0  0  0  0  0  0
    3.7500   -3.8971    0.0000 C   0  0  0  0  0  0  0  0  0  0  0  0
    5.2500   -3.8971    0.0000 F   0  0  0  0  0  0  0  0  0  0  0  0
    3.0000   -5.1962    0.0000 C   0  0  0  0  0  0  0  0  0  0  0  0
    1.5000   -5.1962    0.0000 C   0  0  0  0  0  0  0  0  0  0  0  0
    0.7500   -6.4952    0.0000 F   0  0  0  0  0  0  0  0  0  0  0  0
   -3.0000   -2.5981    0.0000 C   0  0  0  0  0  0  0  0  0  0  0  0
   -3.7500   -3.8971    0.0000 C   0  0  0  0  0  0  0  0  0  0  0  0
   -5.2500   -3.8971    0.0000 N   0  0  0  0  0  0  0  0  0  0  0  0
   -3.0000   -5.1962    0.0000 O   0  0  0  0  0  0  0  0  0  0  0  0
   -3.7500   -1.2990    0.0000 C   0  0  0  0  0  0  0  0  0  0  0  0
   -3.0000    0.0000    0.0000 N   0  0  0  0  0  0  0  0  0  0  0  0
   -1.5000    0.0000    0.0000 C   0  0  0  0  0  0  0  0  0  0  0  0
   -0.7500    1.2990    0.0000 C   0  0  0  0  0  0  0  0  0  0  0  0
    0.7500    1.2990    0.0000 C   0  0  0  0  0  0  0  0  0  0  0  0
    1.5000    2.5981    0.0000 N   0  0  0  0  0  0  0  0  0  0  0  0
    3.0000    2.5981    0.0000 C   0  0  0  0  0  0  0  0  0  0  0  0
    3.7500    3.8971    0.0000 C   0  0  0  0  0  0  0  0  0  0  0  0
    3.0000    5.1962    0.0000 N   0  0  0  0  0  0  0  0  0  0  0  0
    3.7500    6.4952    0.0000 C   0  0  0  0  0  0  0  0  0  0  0  0
    1.5000    5.1962    0.0000 C   0  0  0  0  0  0  0  0  0  0  0  0
    0.7500    3.8971    0.0000 C   0  0  0  0  0  0  0  0  0  0  0  0
  1  2  1  0
  2  3  1  0
  3  4  2  0
  4  5  1  0
  5  6  2  0
  6  7  1  0
  7  8  1  0
  8  9  2  0
  9 10  1  0
 10 11  2  0
 11 12  1  0
 11 13  1  0
 13 14  2  0
 14 15  1  0
  6 16  1  0
 16 17  1  0
 17 18  1  0
 17 19  2  0
 16 20  2  0
 20 21  1  0
 21 22  2  0
 22 23  1  0
 23 24  2  0
 24 25  1  0
 25 26  1  0
 26 27  1  0
 27 28  1  0
 28 29  1  0
 28 30  1  0
 30 31  1  0
 24  3  1  0
 31 25  1  0
 22  5  1  0
 14  8  1  0
M  END
>  <Compound_ID>  (40) 
CHEMBL480618

>  <Active>  (40) 
1

>  <Smiles>  (40) 
COc1cc2c(Nc3ccc(F)cc3F)c(C(N)=O)cnc2cc1N1CCN(C)CC1

>  <canonical_smi>  (40) 
COc1cc2c(Nc3ccc(F)cc3F)c(C(N)=O)cnc2cc1N1CCN(C)CC1

>  <Set>  (40) 
G2 active

>  <Set_type>  (40) 
Train

>  <MW>  (40) 
427.46

>  <HBD>  (40) 
2

>  <HBA>  (40) 
6

>  <NRB>  (40) 
5

>  <NR>  (40) 
4

>  <NAR>  (40) 
3

>  <PSA>  (40) 
83.72

>  <Standard Type>  (40) 
nan

>  <Standard Relation>  (40) 
nan

>  <Standard Units>  (40) 
nan

>  <Standard Value>  (40) 
nan

>  <Assay ChEMBL ID>  (40) 
nan

>  <Assay Description>  (40) 
nan

>  <BAO Label>  (40) 
nan

>  <bits>  (40) 
<rdkit.DataStructs.cDataStructs.ExplicitBitVect object at 0x000002A7EE0ED310>

>  <Group>  (40) 
G1

$$$$

     RDKit          2D

 35 42  0  0  0  0  0  0  0  0999 V2000
    7.0384   -5.9220    0.0000 C   0  0  0  0  0  0  0  0  0  0  0  0
    6.3474   -4.5907    0.0000 N   0  0  0  0  0  0  0  0  0  0  0  0
    4.8489   -4.5234    0.0000 C   0  0  0  0  0  0  0  0  0  0  0  0
    4.0414   -5.7874    0.0000 C   0  0  0  0  0  0  0  0  0  0  0  0
    2.5382   -5.8249    0.0000 C   0  0  0  0  0  0  0  0  0  0  0  0
    3.2490   -4.5040    0.0000 O   0  0  0  0  0  0  0  0  0  0  0  0
    2.6595   -3.1247    0.0000 C   0  0  0  0  0  0  0  0  0  0  0  0
    3.6464   -1.9951    0.0000 C   0  0  0  0  0  0  0  0  0  0  0  0
    4.1580   -3.1920    0.0000 C   0  0  0  0  0  0  0  0  0  0  0  0
    4.9655   -1.9279    0.0000 O   0  0  0  0  0  0  0  0  0  0  0  0
    6.4640   -1.9952    0.0000 C   0  0  0  0  0  0  0  0  0  0  0  0
    1.2135   -2.7256    0.0000 N   0  0  0  0  0  0  0  0  0  0  0  0
    0.7500   -1.2990    0.0000 C   0  0  0  0  0  0  0  0  0  0  0  0
    1.5000    0.0000    0.0000 C   0  0  0  0  0  0  0  0  0  0  0  0
    0.7500    1.2990    0.0000 C   0  0  0  0  0  0  0  0  0  0  0  0
   -0.7500    1.2990    0.0000 C   0  0  0  0  0  0  0  0  0  0  0  0
   -1.5000    0.0000    0.0000 C   0  0  0  0  0  0  0  0  0  0  0  0
   -0.7500   -1.2990    0.0000 C   0  0  0  0  0  0  0  0  0  0  0  0
   -1.2135   -2.7256    0.0000 C   0  0  0  0  0  0  0  0  0  0  0  0
   -2.5518   -3.5691    0.0000 C   0  0  0  0  0  0  0  0  0  0  0  0
   -2.6191   -5.0676    0.0000 C   0  0  0  0  0  0  0  0  0  0  0  0
   -1.3550   -5.8751    0.0000 C   0  0  0  0  0  0  0  0  0  0  0  0
   -1.0212   -7.3375    0.0000 C   0  0  0  0  0  0  0  0  0  0  0  0
   -1.8846   -8.5641    0.0000 C   0  0  0  0  0  0  0  0  0  0  0  0
   -1.2541   -9.9251    0.0000 C   0  0  0  0  0  0  0  0  0  0  0  0
    0.2399  -10.0596    0.0000 C   0  0  0  0  0  0  0  0  0  0  0  0
    1.1033   -8.8330    0.0000 C   0  0  0  0  0  0  0  0  0  0  0  0
    0.4728   -7.4720    0.0000 C   0  0  0  0  0  0  0  0  0  0  0  0
    1.0623   -6.0927    0.0000 N   0  0  0  0  0  0  0  0  0  0  0  0
   -0.0673   -5.1058    0.0000 C   0  0  0  0  0  0  0  0  0  0  0  0
   -0.0000   -3.6073    0.0000 C   0  0  0  0  0  0  0  0  0  0  0  0
   -4.0650   -5.4667    0.0000 C   0  0  0  0  0  0  0  0  0  0  0  0
   -4.5921   -6.8710    0.0000 O   0  0  0  0  0  0  0  0  0  0  0  0
   -4.8913   -4.2148    0.0000 N   0  0  0  0  0  0  0  0  0  0  0  0
   -3.9561   -3.0421    0.0000 C   0  0  0  0  0  0  0  0  0  0  0  0
  1  2  1  0
  3  2  1  6
  3  4  1  0
  4  5  1  0
  5  6  1  0
  6  7  1  0
  7  8  1  1
  7  9  1  0
  9 10  1  6
 10 11  1  0
  7 12  1  0
 12 13  1  0
 13 14  2  0
 14 15  1  0
 15 16  2  0
 16 17  1  0
 17 18  2  0
 18 19  1  0
 19 20  2  0
 20 21  1  0
 21 22  2  0
 22 23  1  0
 23 24  2  0
 24 25  1  0
 25 26  2  0
 26 27  1  0
 27 28  2  0
 28 29  1  0
 29 30  1  0
 30 31  2  0
 21 32  1  0
 32 33  2  0
 32 34  1  0
 34 35  1  0
  9  3  1  0
 31 12  1  0
 29  5  1  0
 18 13  1  0
 31 19  1  0
 35 20  1  0
 30 22  1  0
 28 23  1  0
M  END
>  <Compound_ID>  (41) 
CHEMBL162

>  <Active>  (41) 
1

>  <Smiles>  (41) 
CN[C@@H]1CC2O[C@@](C)([C@@H]1OC)n1c3ccccc3c3c4c(c5c6ccccc6n2c5c31)C(=O)NC4

>  <canonical_smi>  (41) 
CN[C@@H]1CC2O[C@@](C)([C@@H]1OC)n1c3ccccc3c3c4c(c5c6ccccc6n2c5c31)C(=O)NC4

>  <Set>  (41) 
G2 active

>  <Set_type>  (41) 
Train

>  <MW>  (41) 
466.54

>  <HBD>  (41) 
2

>  <HBA>  (41) 
4

>  <NRB>  (41) 
2

>  <NR>  (41) 
8

>  <NAR>  (41) 
5

>  <PSA>  (41) 
69.45

>  <Standard Type>  (41) 
nan

>  <Standard Relation>  (41) 
nan

>  <Standard Units>  (41) 
nan

>  <Standard Value>  (41) 
nan

>  <Assay ChEMBL ID>  (41) 
nan

>  <Assay Description>  (41) 
nan

>  <BAO Label>  (41) 
nan

>  <bits>  (41) 
<rdkit.DataStructs.cDataStructs.ExplicitBitVect object at 0x000002A7EE0ED2A0>

>  <Group>  (41) 
G1

$$$$

     RDKit          2D

 33 36  0  0  0  0  0  0  0  0999 V2000
    3.7500   -1.2990    0.0000 C   0  0  0  0  0  0  0  0  0  0  0  0
    3.0000    0.0000    0.0000 O   0  0  0  0  0  0  0  0  0  0  0  0
    1.5000    0.0000    0.0000 C   0  0  0  0  0  0  0  0  0  0  0  0
    0.7500   -1.2990    0.0000 C   0  0  0  0  0  0  0  0  0  0  0  0
   -0.7500   -1.2990    0.0000 C   0  0  0  0  0  0  0  0  0  0  0  0
   -1.5000   -2.5981    0.0000 C   0  0  0  0  0  0  0  0  0  0  0  0
   -0.7500   -3.8971    0.0000 N   0  0  0  0  0  0  0  0  0  0  0  0
    0.7500   -3.8971    0.0000 C   0  0  0  0  0  0  0  0  0  0  0  0
    1.5000   -2.5981    0.0000 C   0  0  0  0  0  0  0  0  0  0  0  0
    3.0000   -2.5981    0.0000 C   0  0  0  0  0  0  0  0  0  0  0  0
    3.7500   -3.8971    0.0000 C   0  0  0  0  0  0  0  0  0  0  0  0
    3.0000   -5.1962    0.0000 C   0  0  0  0  0  0  0  0  0  0  0  0
    3.7500   -6.4952    0.0000 Cl  0  0  0  0  0  0  0  0  0  0  0  0
    1.5000   -5.1962    0.0000 C   0  0  0  0  0  0  0  0  0  0  0  0
    0.7500   -6.4952    0.0000 Cl  0  0  0  0  0  0  0  0  0  0  0  0
   -3.0000   -2.5981    0.0000 C   0  0  0  0  0  0  0  0  0  0  0  0
   -3.7500   -3.8971    0.0000 C   0  0  0  0  0  0  0  0  0  0  0  0
   -5.2500   -3.8971    0.0000 N   0  0  0  0  0  0  0  0  0  0  0  0
   -3.0000   -5.1962    0.0000 O   0  0  0  0  0  0  0  0  0  0  0  0
   -3.7500   -1.2990    0.0000 C   0  0  0  0  0  0  0  0  0  0  0  0
   -3.0000    0.0000    0.0000 N   0  0  0  0  0  0  0  0  0  0  0  0
   -1.5000    0.0000    0.0000 C   0  0  0  0  0  0  0  0  0  0  0  0
   -0.7500    1.2990    0.0000 C   0  0  0  0  0  0  0  0  0  0  0  0
    0.7500    1.2990    0.0000 C   0  0  0  0  0  0  0  0  0  0  0  0
    1.5000    2.5981    0.0000 N   0  0  0  0  0  0  0  0  0  0  0  0
    3.0000    2.5981    0.0000 C   0  0  0  0  0  0  0  0  0  0  0  0
    3.7500    3.8971    0.0000 C   0  0  0  0  0  0  0  0  0  0  0  0
    5.2500    3.8971    0.0000 N   0  0  0  0  0  0  0  0  0  0  0  0
    6.0000    2.5981    0.0000 C   0  0  0  0  0  0  0  0  0  0  0  0
    7.5000    2.5981    0.0000 C   0  0  0  0  0  0  0  0  0  0  0  0
    8.2500    3.8971    0.0000 C   0  0  0  0  0  0  0  0  0  0  0  0
    7.5000    5.1962    0.0000 C   0  0  0  0  0  0  0  0  0  0  0  0
    6.0000    5.1962    0.0000 C   0  0  0  0  0  0  0  0  0  0  0  0
  1  2  1  0
  2  3  1  0
  3  4  2  0
  4  5  1  0
  5  6  2  0
  6  7  1  0
  7  8  1  0
  8  9  2  0
  9 10  1  0
 10 11  2  0
 11 12  1  0
 12 13  1  0
 12 14  2  0
 14 15  1  0
  6 16  1  0
 16 17  1  0
 17 18  1  0
 17 19  2  0
 16 20  2  0
 20 21  1  0
 21 22  2  0
 22 23  1  0
 23 24  2  0
 24 25  1  0
 25 26  1  0
 26 27  1  0
 27 28  1  0
 28 29  1  0
 29 30  1  0
 30 31  1  0
 31 32  1  0
 32 33  1  0
 24  3  1  0
 33 28  1  0
 22  5  1  0
 14  8  1  0
M  END
>  <Compound_ID>  (42) 
CHEMBL480813

>  <Active>  (42) 
1

>  <Smiles>  (42) 
COc1cc2c(Nc3cccc(Cl)c3Cl)c(C(N)=O)cnc2cc1NCCN1CCCCC1

>  <canonical_smi>  (42) 
COc1cc2c(Nc3cccc(Cl)c3Cl)c(C(N)=O)cnc2cc1NCCN1CCCCC1

>  <Set>  (42) 
G2 active

>  <Set_type>  (42) 
Train

>  <MW>  (42) 
488.42

>  <HBD>  (42) 
3

>  <HBA>  (42) 
6

>  <NRB>  (42) 
8

>  <NR>  (42) 
4

>  <NAR>  (42) 
3

>  <PSA>  (42) 
92.51

>  <Standard Type>  (42) 
nan

>  <Standard Relation>  (42) 
nan

>  <Standard Units>  (42) 
nan

>  <Standard Value>  (42) 
nan

>  <Assay ChEMBL ID>  (42) 
nan

>  <Assay Description>  (42) 
nan

>  <BAO Label>  (42) 
nan

>  <bits>  (42) 
<rdkit.DataStructs.cDataStructs.ExplicitBitVect object at 0x000002A7EE0ED230>

>  <Group>  (42) 
G1

$$$$

     RDKit          2D

 28 31  0  0  0  0  0  0  0  0999 V2000
    1.5658   -6.7500    0.0000 C   0  0  0  0  0  0  0  0  0  0  0  0
    0.2668   -6.0000    0.0000 S   0  0  0  0  0  0  0  0  0  0  0  0
    1.0168   -4.7010    0.0000 O   0  0  0  0  0  0  0  0  0  0  0  0
   -0.4832   -7.2990    0.0000 O   0  0  0  0  0  0  0  0  0  0  0  0
   -1.0323   -5.2500    0.0000 C   0  0  0  0  0  0  0  0  0  0  0  0
   -2.3313   -6.0000    0.0000 C   0  0  0  0  0  0  0  0  0  0  0  0
   -3.6304   -5.2500    0.0000 C   0  0  0  0  0  0  0  0  0  0  0  0
   -3.6304   -3.7500    0.0000 C   0  0  0  0  0  0  0  0  0  0  0  0
   -2.3313   -3.0000    0.0000 C   0  0  0  0  0  0  0  0  0  0  0  0
   -2.3313   -1.5000    0.0000 C   0  0  0  0  0  0  0  0  0  0  0  0
   -3.6304   -0.7500    0.0000 C   0  0  0  0  0  0  0  0  0  0  0  0
   -3.6304    0.7500    0.0000 N   0  0  0  0  0  0  0  0  0  0  0  0
   -2.3313    1.5000    0.0000 C   0  0  0  0  0  0  0  0  0  0  0  0
   -2.3313    3.0000    0.0000 N   0  0  0  0  0  0  0  0  0  0  0  0
   -1.0323    0.7500    0.0000 C   0  0  0  0  0  0  0  0  0  0  0  0
    0.3943    1.2135    0.0000 C   0  0  0  0  0  0  0  0  0  0  0  0
    0.8578    2.6401    0.0000 C   0  0  0  0  0  0  0  0  0  0  0  0
    2.3250    2.9520    0.0000 C   0  0  0  0  0  0  0  0  0  0  0  0
    2.7886    4.3786    0.0000 C   0  0  0  0  0  0  0  0  0  0  0  0
    1.7849    5.4933    0.0000 C   0  0  0  0  0  0  0  0  0  0  0  0
    2.2484    6.9199    0.0000 F   0  0  0  0  0  0  0  0  0  0  0  0
    0.3177    5.1814    0.0000 C   0  0  0  0  0  0  0  0  0  0  0  0
   -0.6860    6.2961    0.0000 Cl  0  0  0  0  0  0  0  0  0  0  0  0
   -0.1459    3.7548    0.0000 C   0  0  0  0  0  0  0  0  0  0  0  0
    1.2760    0.0000    0.0000 C   0  0  0  0  0  0  0  0  0  0  0  0
    0.3943   -1.2135    0.0000 S   0  0  0  0  0  0  0  0  0  0  0  0
   -1.0323   -0.7500    0.0000 C   0  0  0  0  0  0  0  0  0  0  0  0
   -1.0323   -3.7500    0.0000 C   0  0  0  0  0  0  0  0  0  0  0  0
  1  2  1  0
  2  3  2  0
  2  4  2  0
  2  5  1  0
  5  6  2  0
  6  7  1  0
  7  8  2  0
  8  9  1  0
  9 10  1  0
 10 11  2  0
 11 12  1  0
 12 13  2  0
 13 14  1  0
 13 15  1  0
 15 16  1  0
 16 17  1  0
 17 18  2  0
 18 19  1  0
 19 20  2  0
 20 21  1  0
 20 22  1  0
 22 23  1  0
 22 24  2  0
 16 25  2  0
 25 26  1  0
 26 27  1  0
  9 28  2  0
 28  5  1  0
 27 10  1  0
 27 15  2  0
 24 17  1  0
M  END
>  <Compound_ID>  (43) 
CHEMBL391691

>  <Active>  (43) 
1

>  <Smiles>  (43) 
CS(=O)(=O)c1cccc(-c2cnc(N)c3c(-c4ccc(F)c(Cl)c4)csc23)c1

>  <canonical_smi>  (43) 
CS(=O)(=O)c1cccc(-c2cnc(N)c3c(-c4ccc(F)c(Cl)c4)csc23)c1

>  <Set>  (43) 
G2 active

>  <Set_type>  (43) 
Train

>  <MW>  (43) 
432.93

>  <HBD>  (43) 
1

>  <HBA>  (43) 
4

>  <NRB>  (43) 
3

>  <NR>  (43) 
4

>  <NAR>  (43) 
4

>  <PSA>  (43) 
73.05

>  <Standard Type>  (43) 
nan

>  <Standard Relation>  (43) 
nan

>  <Standard Units>  (43) 
nan

>  <Standard Value>  (43) 
nan

>  <Assay ChEMBL ID>  (43) 
nan

>  <Assay Description>  (43) 
nan

>  <BAO Label>  (43) 
nan

>  <bits>  (43) 
<rdkit.DataStructs.cDataStructs.ExplicitBitVect object at 0x000002A7EE0ED1C0>

>  <Group>  (43) 
G1

$$$$

     RDKit          2D

 22 24  0  0  0  0  0  0  0  0999 V2000
    8.2943   -6.7413    0.0000 N   0  0  0  0  0  0  0  0  0  0  0  0
    6.9240   -6.1312    0.0000 C   0  0  0  0  0  0  0  0  0  0  0  0
    5.5537   -5.5211    0.0000 C   0  0  0  0  0  0  0  0  0  0  0  0
    4.2546   -6.2711    0.0000 C   0  0  0  0  0  0  0  0  0  0  0  0
    3.1399   -5.2674    0.0000 N   0  0  0  0  0  0  0  0  0  0  0  0
    3.7500   -3.8971    0.0000 C   0  0  0  0  0  0  0  0  0  0  0  0
    3.0000   -2.5981    0.0000 C   0  0  0  0  0  0  0  0  0  0  0  0
    3.7500   -1.2990    0.0000 O   0  0  0  0  0  0  0  0  0  0  0  0
    1.5000   -2.5981    0.0000 N   0  0  0  0  0  0  0  0  0  0  0  0
    0.7500   -1.2990    0.0000 C   0  0  0  0  0  0  0  0  0  0  0  0
    1.5000    0.0000    0.0000 C   0  0  0  0  0  0  0  0  0  0  0  0
    0.7500    1.2990    0.0000 C   0  0  0  0  0  0  0  0  0  0  0  0
   -0.7500    1.2990    0.0000 C   0  0  0  0  0  0  0  0  0  0  0  0
   -1.5000    0.0000    0.0000 C   0  0  0  0  0  0  0  0  0  0  0  0
   -0.7500   -1.2990    0.0000 C   0  0  0  0  0  0  0  0  0  0  0  0
   -1.5000   -2.5981    0.0000 N   0  0  0  0  0  0  0  0  0  0  0  0
   -3.0000   -2.5981    0.0000 C   0  0  0  0  0  0  0  0  0  0  0  0
   -3.7500   -3.8971    0.0000 C   0  0  0  0  0  0  0  0  0  0  0  0
   -3.0000   -5.1962    0.0000 C   0  0  0  0  0  0  0  0  0  0  0  0
   -1.5000   -5.1962    0.0000 C   0  0  0  0  0  0  0  0  0  0  0  0
   -0.7500   -3.8971    0.0000 C   0  0  0  0  0  0  0  0  0  0  0  0
    5.2418   -4.0539    0.0000 C   0  0  0  0  0  0  0  0  0  0  0  0
  1  2  3  0
  2  3  1  0
  3  4  2  0
  4  5  1  0
  5  6  1  0
  6  7  1  0
  7  8  2  0
  7  9  1  0
  9 10  1  0
 10 11  2  0
 11 12  1  0
 12 13  2  0
 13 14  1  0
 14 15  2  0
 15 16  1  0
 16 17  1  0
 17 18  1  0
 18 19  1  0
 19 20  1  0
 20 21  1  0
  6 22  2  0
 22  3  1  0
 15 10  1  0
 21 16  1  0
M  END
>  <Compound_ID>  (44) 
CHEMBL398933

>  <Active>  (44) 
1

>  <Smiles>  (44) 
N#Cc1c[nH]c(C(=O)Nc2ccccc2N2CCCCC2)c1

>  <canonical_smi>  (44) 
N#Cc1c[nH]c(C(=O)Nc2ccccc2N2CCCCC2)c1

>  <Set>  (44) 
G2 active

>  <Set_type>  (44) 
Train

>  <MW>  (44) 
294.36

>  <HBD>  (44) 
2

>  <HBA>  (44) 
3

>  <NRB>  (44) 
3

>  <NR>  (44) 
3

>  <NAR>  (44) 
2

>  <PSA>  (44) 
71.92

>  <Standard Type>  (44) 
nan

>  <Standard Relation>  (44) 
nan

>  <Standard Units>  (44) 
nan

>  <Standard Value>  (44) 
nan

>  <Assay ChEMBL ID>  (44) 
nan

>  <Assay Description>  (44) 
nan

>  <BAO Label>  (44) 
nan

>  <bits>  (44) 
<rdkit.DataStructs.cDataStructs.ExplicitBitVect object at 0x000002A7EE0ED150>

>  <Group>  (44) 
G1

$$$$

     RDKit          2D

 23 26  0  0  0  0  0  0  0  0999 V2000
    1.5000   -5.1962    0.0000 O   0  0  0  0  0  0  0  0  0  0  0  0
    0.7500   -3.8971    0.0000 C   0  0  0  0  0  0  0  0  0  0  0  0
    1.5000   -2.5981    0.0000 N   0  0  0  0  0  0  0  0  0  0  0  0
    0.7500   -1.2990    0.0000 C   0  0  0  0  0  0  0  0  0  0  0  0
    1.5000    0.0000    0.0000 C   0  0  0  0  0  0  0  0  0  0  0  0
    0.7500    1.2990    0.0000 C   0  0  0  0  0  0  0  0  0  0  0  0
   -0.7500    1.2990    0.0000 C   0  0  0  0  0  0  0  0  0  0  0  0
   -1.5000    2.5981    0.0000 Cl  0  0  0  0  0  0  0  0  0  0  0  0
   -1.5000    0.0000    0.0000 C   0  0  0  0  0  0  0  0  0  0  0  0
   -0.7500   -1.2990    0.0000 C   0  0  0  0  0  0  0  0  0  0  0  0
   -1.5000   -2.5981    0.0000 C   0  0  0  0  0  0  0  0  0  0  0  0
   -3.0000   -2.5981    0.0000 C   0  0  0  0  0  0  0  0  0  0  0  0
   -3.7500   -1.2990    0.0000 C   0  0  0  0  0  0  0  0  0  0  0  0
   -5.2500   -1.2990    0.0000 C   0  0  0  0  0  0  0  0  0  0  0  0
   -6.0000   -2.5981    0.0000 C   0  0  0  0  0  0  0  0  0  0  0  0
   -5.2500   -3.8971    0.0000 C   0  0  0  0  0  0  0  0  0  0  0  0
   -3.7500   -3.8971    0.0000 C   0  0  0  0  0  0  0  0  0  0  0  0
   -0.7500   -3.8971    0.0000 C   0  0  0  0  0  0  0  0  0  0  0  0
   -1.5000   -5.1962    0.0000 C   0  0  0  0  0  0  0  0  0  0  0  0
   -0.8899   -6.5665    0.0000 C   0  0  0  0  0  0  0  0  0  0  0  0
   -2.0046   -7.5702    0.0000 C   0  0  0  0  0  0  0  0  0  0  0  0
   -3.3037   -6.8202    0.0000 C   0  0  0  0  0  0  0  0  0  0  0  0
   -2.9918   -5.3529    0.0000 N   0  0  0  0  0  0  0  0  0  0  0  0
  1  2  2  0
  2  3  1  0
  3  4  1  0
  4  5  2  0
  5  6  1  0
  6  7  2  0
  7  8  1  0
  7  9  1  0
  9 10  2  0
 10 11  1  0
 11 12  1  0
 12 13  2  0
 13 14  1  0
 14 15  2  0
 15 16  1  0
 16 17  2  0
 11 18  2  0
 18 19  1  0
 19 20  2  0
 20 21  1  0
 21 22  2  0
 22 23  1  0
 18  2  1  0
 23 19  1  0
 10  4  1  0
 17 12  1  0
M  END
>  <Compound_ID>  (45) 
CHEMBL257456

>  <Active>  (45) 
1

>  <Smiles>  (45) 
O=c1[nH]c2ccc(Cl)cc2c(-c2ccccc2)c1-c1ccc[nH]1

>  <canonical_smi>  (45) 
O=c1[nH]c2ccc(Cl)cc2c(-c2ccccc2)c1-c1ccc[nH]1

>  <Set>  (45) 
G2 active

>  <Set_type>  (45) 
Train

>  <MW>  (45) 
320.78

>  <HBD>  (45) 
2

>  <HBA>  (45) 
1

>  <NRB>  (45) 
2

>  <NR>  (45) 
4

>  <NAR>  (45) 
4

>  <PSA>  (45) 
48.65

>  <Standard Type>  (45) 
nan

>  <Standard Relation>  (45) 
nan

>  <Standard Units>  (45) 
nan

>  <Standard Value>  (45) 
nan

>  <Assay ChEMBL ID>  (45) 
nan

>  <Assay Description>  (45) 
nan

>  <BAO Label>  (45) 
nan

>  <bits>  (45) 
<rdkit.DataStructs.cDataStructs.ExplicitBitVect object at 0x000002A7EE0ED0E0>

>  <Group>  (45) 
G1

$$$$

     RDKit          2D

 24 26  0  0  0  0  0  0  0  0999 V2000
    3.0000    0.0000    0.0000 C   0  0  0  0  0  0  0  0  0  0  0  0
    1.5000    0.0000    0.0000 N   0  0  0  0  0  0  0  0  0  0  0  0
    0.7500   -1.2990    0.0000 C   0  0  0  0  0  0  0  0  0  0  0  0
   -0.7500   -1.2990    0.0000 C   0  0  0  0  0  0  0  0  0  0  0  0
   -1.5000    0.0000    0.0000 N   0  0  0  0  0  0  0  0  0  0  0  0
   -3.0000    0.0000    0.0000 C   0  0  0  0  0  0  0  0  0  0  0  0
   -3.7500    1.2990    0.0000 C   0  0  0  0  0  0  0  0  0  0  0  0
   -5.2500    1.2990    0.0000 C   0  0  0  0  0  0  0  0  0  0  0  0
   -6.0000    0.0000    0.0000 C   0  0  0  0  0  0  0  0  0  0  0  0
   -5.2500   -1.2990    0.0000 C   0  0  0  0  0  0  0  0  0  0  0  0
   -3.7500   -1.2990    0.0000 C   0  0  0  0  0  0  0  0  0  0  0  0
   -3.0000   -2.5981    0.0000 N   0  0  0  0  0  0  0  0  0  0  0  0
   -3.7500   -3.8971    0.0000 C   0  0  0  0  0  0  0  0  0  0  0  0
   -5.2500   -3.8971    0.0000 O   0  0  0  0  0  0  0  0  0  0  0  0
   -3.0000   -5.1962    0.0000 C   0  0  0  0  0  0  0  0  0  0  0  0
   -1.5082   -5.3529    0.0000 C   0  0  0  0  0  0  0  0  0  0  0  0
   -1.1963   -6.8202    0.0000 C   0  0  0  0  0  0  0  0  0  0  0  0
   -2.4954   -7.5702    0.0000 C   0  0  0  0  0  0  0  0  0  0  0  0
   -2.6522   -9.0619    0.0000 N   0  0  0  0  0  4  0  0  0  0  0  0
   -1.4387   -9.9436    0.0000 O   0  0  0  0  0  0  0  0  0  0  0  0
   -4.0225   -9.6721    0.0000 O   0  0  0  0  0  1  0  0  0  0  0  0
   -3.6101   -6.5665    0.0000 O   0  0  0  0  0  0  0  0  0  0  0  0
   -0.7500    1.2990    0.0000 C   0  0  0  0  0  0  0  0  0  0  0  0
    0.7500    1.2990    0.0000 C   0  0  0  0  0  0  0  0  0  0  0  0
  1  2  1  0
  2  3  1  0
  3  4  1  0
  4  5  1  0
  5  6  1  0
  6  7  2  0
  7  8  1  0
  8  9  2  0
  9 10  1  0
 10 11  2  0
 11 12  1  0
 12 13  1  0
 13 14  2  0
 13 15  1  0
 15 16  2  0
 16 17  1  0
 17 18  2  0
 18 19  1  0
 19 20  2  0
 19 21  1  0
 18 22  1  0
  5 23  1  0
 23 24  1  0
 24  2  1  0
 11  6  1  0
 22 15  1  0
M  CHG  2  19   1  21  -1
M  END
>  <Compound_ID>  (46) 
CHEMBL251603

>  <Active>  (46) 
1

>  <Smiles>  (46) 
CN1CCN(c2ccccc2NC(=O)c2ccc([N+](=O)[O-])o2)CC1

>  <canonical_smi>  (46) 
CN1CCN(c2ccccc2NC(=O)c2ccc([N+](=O)[O-])o2)CC1

>  <Set>  (46) 
G2 active

>  <Set_type>  (46) 
Train

>  <MW>  (46) 
330.34

>  <HBD>  (46) 
1

>  <HBA>  (46) 
6

>  <NRB>  (46) 
4

>  <NR>  (46) 
3

>  <NAR>  (46) 
2

>  <PSA>  (46) 
91.86

>  <Standard Type>  (46) 
nan

>  <Standard Relation>  (46) 
nan

>  <Standard Units>  (46) 
nan

>  <Standard Value>  (46) 
nan

>  <Assay ChEMBL ID>  (46) 
nan

>  <Assay Description>  (46) 
nan

>  <BAO Label>  (46) 
nan

>  <bits>  (46) 
<rdkit.DataStructs.cDataStructs.ExplicitBitVect object at 0x000002A7EE0ED070>

>  <Group>  (46) 
G1

$$$$

     RDKit          2D

 35 39  0  0  0  0  0  0  0  0999 V2000
    1.8478   -6.4639    0.0000 C   0  0  0  0  0  0  0  0  0  0  0  0
    2.0046   -4.9721    0.0000 C   0  0  0  0  0  0  0  0  0  0  0  0
    3.3037   -4.2221    0.0000 N   0  0  0  0  0  0  0  0  0  0  0  0
    2.9918   -2.7549    0.0000 N   0  0  0  0  0  0  0  0  0  0  0  0
    1.5000   -2.5981    0.0000 C   0  0  0  0  0  0  0  0  0  0  0  0
    0.7500   -1.2990    0.0000 C   0  0  0  0  0  0  0  0  0  0  0  0
    1.5000    0.0000    0.0000 C   0  0  0  0  0  0  0  0  0  0  0  0
    0.7500    1.2990    0.0000 C   0  0  0  0  0  0  0  0  0  0  0  0
   -0.7500    1.2990    0.0000 C   0  0  0  0  0  0  0  0  0  0  0  0
   -1.5000    2.5981    0.0000 C   0  0  0  0  0  0  0  0  0  0  0  0
   -0.7500    3.8971    0.0000 C   0  0  0  0  0  0  0  0  0  0  0  0
   -1.5000    5.1962    0.0000 C   0  0  0  0  0  0  0  0  0  0  0  0
   -0.7500    6.4952    0.0000 C   0  0  0  0  0  0  0  0  0  0  0  0
   -1.5000    7.7942    0.0000 O   0  0  0  0  0  0  0  0  0  0  0  0
    0.7500    6.4952    0.0000 N   0  0  0  0  0  0  0  0  0  0  0  0
    1.5000    7.7942    0.0000 C   0  0  0  0  0  0  0  0  0  0  0  0
    3.0000    7.7942    0.0000 C   0  0  0  0  0  0  0  0  0  0  0  0
    3.7500    9.0933    0.0000 C   0  0  0  0  0  0  0  0  0  0  0  0
    3.0000   10.3923    0.0000 C   0  0  0  0  0  0  0  0  0  0  0  0
    1.5000   10.3923    0.0000 C   0  0  0  0  0  0  0  0  0  0  0  0
    0.7500   11.6913    0.0000 N   0  0  0  0  0  0  0  0  0  0  0  0
    1.5000   12.9904    0.0000 C   0  0  0  0  0  0  0  0  0  0  0  0
    0.7500   14.2894    0.0000 C   0  0  0  0  0  0  0  0  0  0  0  0
   -0.7500   14.2894    0.0000 O   0  0  0  0  0  0  0  0  0  0  0  0
   -1.5000   12.9904    0.0000 C   0  0  0  0  0  0  0  0  0  0  0  0
   -0.7500   11.6913    0.0000 C   0  0  0  0  0  0  0  0  0  0  0  0
    0.7500    9.0933    0.0000 C   0  0  0  0  0  0  0  0  0  0  0  0
   -3.0000    5.1962    0.0000 C   0  0  0  0  0  0  0  0  0  0  0  0
   -3.7500    3.8971    0.0000 C   0  0  0  0  0  0  0  0  0  0  0  0
   -3.0000    2.5981    0.0000 C   0  0  0  0  0  0  0  0  0  0  0  0
   -3.7500    1.2990    0.0000 C   0  0  0  0  0  0  0  0  0  0  0  0
   -1.5000    0.0000    0.0000 C   0  0  0  0  0  0  0  0  0  0  0  0
   -3.0000    0.0000    0.0000 C   0  0  0  0  0  0  0  0  0  0  0  0
   -0.7500   -1.2990    0.0000 C   0  0  0  0  0  0  0  0  0  0  0  0
    0.8899   -3.9684    0.0000 O   0  0  0  0  0  0  0  0  0  0  0  0
  1  2  1  0
  2  3  2  0
  3  4  1  0
  4  5  2  0
  5  6  1  0
  6  7  2  0
  7  8  1  0
  8  9  2  0
  9 10  1  0
 10 11  2  0
 11 12  1  0
 12 13  1  0
 13 14  2  0
 13 15  1  0
 15 16  1  0
 16 17  2  0
 17 18  1  0
 18 19  2  0
 19 20  1  0
 20 21  1  0
 21 22  1  0
 22 23  1  0
 23 24  1  0
 24 25  1  0
 25 26  1  0
 20 27  2  0
 12 28  2  0
 28 29  1  0
 29 30  2  0
 30 31  1  0
  9 32  1  0
 32 33  1  0
 32 34  2  0
  5 35  1  0
 35  2  1  0
 34  6  1  0
 30 10  1  0
 27 16  1  0
 26 21  1  0
M  END
>  <Compound_ID>  (47) 
CHEMBL523559

>  <Active>  (47) 
1

>  <Smiles>  (47) 
Cc1nnc(-c2ccc(-c3cc(C(=O)Nc4cccc(N5CCOCC5)c4)ccc3C)c(C)c2)o1

>  <canonical_smi>  (47) 
Cc1nnc(-c2ccc(-c3cc(C(=O)Nc4cccc(N5CCOCC5)c4)ccc3C)c(C)c2)o1

>  <Set>  (47) 
G2 active

>  <Set_type>  (47) 
Train

>  <MW>  (47) 
468.56

>  <HBD>  (47) 
1

>  <HBA>  (47) 
6

>  <NRB>  (47) 
5

>  <NR>  (47) 
5

>  <NAR>  (47) 
4

>  <PSA>  (47) 
80.49

>  <Standard Type>  (47) 
nan

>  <Standard Relation>  (47) 
nan

>  <Standard Units>  (47) 
nan

>  <Standard Value>  (47) 
nan

>  <Assay ChEMBL ID>  (47) 
nan

>  <Assay Description>  (47) 
nan

>  <BAO Label>  (47) 
nan

>  <bits>  (47) 
<rdkit.DataStructs.cDataStructs.ExplicitBitVect object at 0x000002A7EE0ED000>

>  <Group>  (47) 
G1

$$$$

     RDKit          2D

 32 35  0  0  0  0  0  0  0  0999 V2000
    3.0000    0.0000    0.0000 C   0  0  0  0  0  0  0  0  0  0  0  0
    1.5000    0.0000    0.0000 C   0  0  0  0  0  0  0  0  0  0  0  0
    0.7500   -1.2990    0.0000 C   0  0  0  0  0  0  0  0  0  0  0  0
   -0.7500   -1.2990    0.0000 C   0  0  0  0  0  0  0  0  0  0  0  0
   -1.5000    0.0000    0.0000 N   0  0  0  0  0  0  0  0  0  0  0  0
   -3.0000    0.0000    0.0000 C   0  0  0  0  0  0  0  0  0  0  0  0
   -3.7500    1.2990    0.0000 C   0  0  0  0  0  0  0  0  0  0  0  0
   -5.2500    1.2990    0.0000 C   0  0  0  0  0  0  0  0  0  0  0  0
   -6.0000    2.5981    0.0000 N   0  0  0  0  0  0  0  0  0  0  0  0
   -5.2500    3.8971    0.0000 C   0  0  0  0  0  0  0  0  0  0  0  0
   -6.0000    5.1962    0.0000 C   0  0  0  0  0  0  0  0  0  0  0  0
   -7.5000    5.1962    0.0000 N   0  0  0  0  0  0  0  0  0  0  0  0
   -8.2500    6.4952    0.0000 C   0  0  0  0  0  0  0  0  0  0  0  0
   -7.5000    7.7942    0.0000 C   0  0  0  0  0  0  0  0  0  0  0  0
   -8.2500    9.0933    0.0000 O   0  0  0  0  0  0  0  0  0  0  0  0
   -8.2500    3.8971    0.0000 C   0  0  0  0  0  0  0  0  0  0  0  0
   -7.5000    2.5981    0.0000 C   0  0  0  0  0  0  0  0  0  0  0  0
   -6.0000    0.0000    0.0000 C   0  0  0  0  0  0  0  0  0  0  0  0
   -5.2500   -1.2990    0.0000 C   0  0  0  0  0  0  0  0  0  0  0  0
   -3.7500   -1.2990    0.0000 C   0  0  0  0  0  0  0  0  0  0  0  0
   -3.0000   -2.5981    0.0000 N   0  0  0  0  0  0  0  0  0  0  0  0
   -3.7500   -3.8971    0.0000 C   0  0  0  0  0  0  0  0  0  0  0  0
   -5.2500   -3.8971    0.0000 O   0  0  0  0  0  0  0  0  0  0  0  0
   -3.0000   -5.1962    0.0000 C   0  0  0  0  0  0  0  0  0  0  0  0
   -1.5082   -5.3529    0.0000 C   0  0  0  0  0  0  0  0  0  0  0  0
   -1.1963   -6.8202    0.0000 C   0  0  0  0  0  0  0  0  0  0  0  0
   -2.4954   -7.5702    0.0000 C   0  0  0  0  0  0  0  0  0  0  0  0
   -2.6522   -9.0619    0.0000 C   0  0  0  0  0  0  0  0  0  0  0  0
   -2.8090  -10.5537    0.0000 N   0  0  0  0  0  0  0  0  0  0  0  0
   -3.6101   -6.5665    0.0000 O   0  0  0  0  0  0  0  0  0  0  0  0
   -0.7500    1.2990    0.0000 C   0  0  0  0  0  0  0  0  0  0  0  0
    0.7500    1.2990    0.0000 C   0  0  0  0  0  0  0  0  0  0  0  0
  1  2  1  0
  2  3  1  0
  3  4  1  0
  4  5  1  0
  5  6  1  0
  6  7  2  0
  7  8  1  0
  8  9  1  0
  9 10  1  0
 10 11  1  0
 11 12  1  0
 12 13  1  0
 13 14  1  0
 14 15  1  0
 12 16  1  0
 16 17  1  0
  8 18  2  0
 18 19  1  0
 19 20  2  0
 20 21  1  0
 21 22  1  0
 22 23  2  0
 22 24  1  0
 24 25  2  0
 25 26  1  0
 26 27  2  0
 27 28  1  0
 28 29  3  0
 27 30  1  0
  5 31  1  0
 31 32  1  0
 32  2  1  0
 20  6  1  0
 30 24  1  0
 17  9  1  0
M  END
>  <Compound_ID>  (48) 
CHEMBL398237

>  <Active>  (48) 
1

>  <Smiles>  (48) 
CC1CCN(c2cc(N3CCN(CCO)CC3)ccc2NC(=O)c2ccc(C#N)o2)CC1

>  <canonical_smi>  (48) 
CC1CCN(c2cc(N3CCN(CCO)CC3)ccc2NC(=O)c2ccc(C#N)o2)CC1

>  <Set>  (48) 
G2 active

>  <Set_type>  (48) 
Test

>  <MW>  (48) 
437.54

>  <HBD>  (48) 
2

>  <HBA>  (48) 
7

>  <NRB>  (48) 
6

>  <NR>  (48) 
4

>  <NAR>  (48) 
2

>  <PSA>  (48) 
95.98

>  <Standard Type>  (48) 
nan

>  <Standard Relation>  (48) 
nan

>  <Standard Units>  (48) 
nan

>  <Standard Value>  (48) 
nan

>  <Assay ChEMBL ID>  (48) 
nan

>  <Assay Description>  (48) 
nan

>  <BAO Label>  (48) 
nan

>  <bits>  (48) 
<rdkit.DataStructs.cDataStructs.ExplicitBitVect object at 0x000002A7EE0ECF90>

>  <Group>  (48) 
G1

$$$$

     RDKit          2D

 38 43  0  0  0  0  0  0  0  0999 V2000
   -7.5000   -7.7942    0.0000 C   0  0  0  0  0  0  0  0  0  0  0  0
   -6.0000   -7.7942    0.0000 N   0  0  0  0  0  0  0  0  0  0  0  0
   -5.2500   -6.4952    0.0000 C   0  0  0  0  0  0  0  0  0  0  0  0
   -3.7500   -6.4952    0.0000 C   0  0  0  0  0  0  0  0  0  0  0  0
   -3.0000   -7.7942    0.0000 N   0  0  0  0  0  0  0  0  0  0  0  0
   -1.5000   -7.7942    0.0000 C   0  0  0  0  0  0  0  0  0  0  0  0
   -0.7500   -6.4952    0.0000 C   0  0  0  0  0  0  0  0  0  0  0  0
    0.7500   -6.4952    0.0000 C   0  0  0  0  0  0  0  0  0  0  0  0
    1.5000   -5.1962    0.0000 C   0  0  0  0  0  0  0  0  0  0  0  0
    0.7500   -3.8971    0.0000 C   0  0  0  0  0  0  0  0  0  0  0  0
    1.5000   -2.5981    0.0000 N   0  0  0  0  0  0  0  0  0  0  0  0
    0.7500   -1.2990    0.0000 C   0  0  0  0  0  0  0  0  0  0  0  0
    1.5000    0.0000    0.0000 N   0  0  0  0  0  0  0  0  0  0  0  0
    0.7500    1.2990    0.0000 C   0  0  0  0  0  0  0  0  0  0  0  0
   -0.7500    1.2990    0.0000 C   0  0  0  0  0  0  0  0  0  0  0  0
   -1.5000    2.5981    0.0000 C   0  0  0  0  0  0  0  0  0  0  0  0
   -0.7500    3.8971    0.0000 O   0  0  0  0  0  0  0  0  0  0  0  0
   -3.0000    2.5981    0.0000 C   0  0  0  0  0  0  0  0  0  0  0  0
   -3.7500    3.8971    0.0000 C   0  0  0  0  0  0  0  0  0  0  0  0
   -3.0000    5.1962    0.0000 N   0  0  0  0  0  0  0  0  0  0  0  0
   -5.2500    3.8971    0.0000 O   0  0  0  0  0  0  0  0  0  0  0  0
   -3.7500    1.2990    0.0000 C   0  0  0  0  0  0  0  0  0  0  0  0
   -3.0000    0.0000    0.0000 N   0  0  0  0  0  0  0  0  0  0  0  0
   -3.7500   -1.2990    0.0000 C   0  0  0  0  0  0  0  0  0  0  0  0
   -3.0000   -2.5981    0.0000 C   0  0  0  0  0  0  0  0  0  0  0  0
   -3.7500   -3.8971    0.0000 C   0  0  0  0  0  0  0  0  0  0  0  0
   -5.2500   -3.8971    0.0000 C   0  0  0  0  0  0  0  0  0  0  0  0
   -6.0000   -2.5981    0.0000 C   0  0  0  0  0  0  0  0  0  0  0  0
   -5.2500   -1.2990    0.0000 C   0  0  0  0  0  0  0  0  0  0  0  0
   -7.4672   -2.9099    0.0000 C   0  0  0  0  0  0  0  0  0  0  0  0
   -7.6240   -4.4017    0.0000 C   0  0  0  0  0  0  0  0  0  0  0  0
   -6.2537   -5.0118    0.0000 C   0  0  0  0  0  0  0  0  0  0  0  0
   -1.5000    0.0000    0.0000 C   0  0  0  0  0  0  0  0  0  0  0  0
   -0.7500   -1.2990    0.0000 N   0  0  0  0  0  0  0  0  0  0  0  0
   -0.7500   -3.8971    0.0000 C   0  0  0  0  0  0  0  0  0  0  0  0
   -1.5000   -5.1962    0.0000 C   0  0  0  0  0  0  0  0  0  0  0  0
   -3.7500   -9.0933    0.0000 C   0  0  0  0  0  0  0  0  0  0  0  0
   -5.2500   -9.0933    0.0000 C   0  0  0  0  0  0  0  0  0  0  0  0
  1  2  1  0
  2  3  1  0
  3  4  1  0
  4  5  1  0
  5  6  1  0
  6  7  1  0
  7  8  2  0
  8  9  1  0
  9 10  2  0
 10 11  1  0
 11 12  1  0
 12 13  2  0
 13 14  1  0
 14 15  2  0
 15 16  1  0
 16 17  2  0
 16 18  1  0
 18 19  1  0
 19 20  1  0
 19 21  2  0
 18 22  2  0
 22 23  1  0
 23 24  1  0
 24 25  2  0
 25 26  1  0
 26 27  2  0
 27 28  1  0
 28 29  2  0
 28 30  1  0
 30 31  1  0
 31 32  1  0
 23 33  1  0
 33 34  2  0
 10 35  1  0
 35 36  2  0
  5 37  1  0
 37 38  1  0
 38  2  1  0
 36  7  1  0
 34 12  1  0
 33 15  1  0
 29 24  1  0
 32 27  1  0
M  END
>  <Compound_ID>  (49) 
CHEMBL256893

>  <Active>  (49) 
1

>  <Smiles>  (49) 
CN1CCN(Cc2ccc(Nc3ncc4c(=O)c(C(N)=O)cn(-c5ccc6c(c5)CCC6)c4n3)cc2)CC1

>  <canonical_smi>  (49) 
CN1CCN(Cc2ccc(Nc3ncc4c(=O)c(C(N)=O)cn(-c5ccc6c(c5)CCC6)c4n3)cc2)CC1

>  <Set>  (49) 
G2 active

>  <Set_type>  (49) 
Test

>  <MW>  (49) 
509.61

>  <HBD>  (49) 
2

>  <HBA>  (49) 
7

>  <NRB>  (49) 
6

>  <NR>  (49) 
6

>  <NAR>  (49) 
4

>  <PSA>  (49) 
109.38

>  <Standard Type>  (49) 
nan

>  <Standard Relation>  (49) 
nan

>  <Standard Units>  (49) 
nan

>  <Standard Value>  (49) 
nan

>  <Assay ChEMBL ID>  (49) 
nan

>  <Assay Description>  (49) 
nan

>  <BAO Label>  (49) 
nan

>  <bits>  (49) 
<rdkit.DataStructs.cDataStructs.ExplicitBitVect object at 0x000002A7EE0ECF20>

>  <Group>  (49) 
G1

$$$$

     RDKit          2D

 33 37  0  0  0  0  0  0  0  0999 V2000
   -3.0000   -5.1962    0.0000 N   0  0  0  0  0  0  0  0  0  0  0  0
   -1.5000   -5.1962    0.0000 C   0  0  0  0  0  0  0  0  0  0  0  0
   -0.7500   -6.4952    0.0000 O   0  0  0  0  0  0  0  0  0  0  0  0
   -0.7500   -3.8971    0.0000 C   0  0  0  0  0  0  0  0  0  0  0  0
    0.7500   -3.8971    0.0000 C   0  0  0  0  0  0  0  0  0  0  0  0
    1.5000   -2.5981    0.0000 N   0  0  0  0  0  0  0  0  0  0  0  0
    0.7500   -1.2990    0.0000 C   0  0  0  0  0  0  0  0  0  0  0  0
    1.5000    0.0000    0.0000 C   0  0  0  0  0  0  0  0  0  0  0  0
    0.7500    1.2990    0.0000 C   0  0  0  0  0  0  0  0  0  0  0  0
    1.5000    2.5981    0.0000 C   0  0  0  0  0  0  0  0  0  0  0  0
    3.0000    2.5981    0.0000 C   0  0  0  0  0  0  0  0  0  0  0  0
    3.7500    3.8971    0.0000 C   0  0  0  0  0  0  0  0  0  0  0  0
    3.0000    5.1962    0.0000 C   0  0  0  0  0  0  0  0  0  0  0  0
    3.7500    6.4952    0.0000 C   0  0  0  0  0  0  0  0  0  0  0  0
    3.0000    7.7942    0.0000 O   0  0  0  0  0  0  0  0  0  0  0  0
    5.2500    6.4952    0.0000 C   0  0  0  0  0  0  0  0  0  0  0  0
    6.1317    7.7087    0.0000 C   0  0  0  0  0  0  0  0  0  0  0  0
    7.5583    7.2452    0.0000 C   0  0  0  0  0  0  0  0  0  0  0  0
    7.5583    5.7452    0.0000 C   0  0  0  0  0  0  0  0  0  0  0  0
    6.1317    5.2817    0.0000 C   0  0  0  0  0  0  0  0  0  0  0  0
    1.5000    5.1962    0.0000 C   0  0  0  0  0  0  0  0  0  0  0  0
    0.7500    3.8971    0.0000 C   0  0  0  0  0  0  0  0  0  0  0  0
   -0.7500    1.2990    0.0000 C   0  0  0  0  0  0  0  0  0  0  0  0
   -1.5000    0.0000    0.0000 C   0  0  0  0  0  0  0  0  0  0  0  0
   -0.7500   -1.2990    0.0000 C   0  0  0  0  0  0  0  0  0  0  0  0
   -1.5000   -2.5981    0.0000 C   0  0  0  0  0  0  0  0  0  0  0  0
   -3.0000   -2.5981    0.0000 N   0  0  0  0  0  0  0  0  0  0  0  0
   -3.7500   -1.2990    0.0000 C   0  0  0  0  0  0  0  0  0  0  0  0
   -3.0000    0.0000    0.0000 C   0  0  0  0  0  0  0  0  0  0  0  0
   -3.7500    1.2990    0.0000 C   0  0  0  0  0  0  0  0  0  0  0  0
   -5.2500    1.2990    0.0000 C   0  0  0  0  0  0  0  0  0  0  0  0
   -6.0000    0.0000    0.0000 C   0  0  0  0  0  0  0  0  0  0  0  0
   -5.2500   -1.2990    0.0000 C   0  0  0  0  0  0  0  0  0  0  0  0
  1  2  1  0
  2  3  2  0
  2  4  1  0
  4  5  2  0
  5  6  1  0
  6  7  2  0
  7  8  1  0
  8  9  2  0
  9 10  1  0
 10 11  2  0
 11 12  1  0
 12 13  2  0
 13 14  1  0
 14 15  2  0
 14 16  1  0
 16 17  1  0
 17 18  1  0
 18 19  1  0
 19 20  1  0
 13 21  1  0
 21 22  2  0
  9 23  1  0
 23 24  2  0
 24 25  1  0
 25 26  2  0
 26 27  1  0
 27 28  1  0
 28 29  2  0
 29 30  1  0
 30 31  2  0
 31 32  1  0
 32 33  2  0
 26  4  1  0
 33 28  1  0
 25  7  1  0
 22 10  1  0
 20 16  1  0
M  END
>  <Compound_ID>  (50) 
CHEMBL249138

>  <Active>  (50) 
1

>  <Smiles>  (50) 
NC(=O)c1cnc2cc(-c3ccc(C(=O)C4CCCC4)cc3)ccc2c1Nc1ccccc1

>  <canonical_smi>  (50) 
NC(=O)c1cnc2cc(-c3ccc(C(=O)C4CCCC4)cc3)ccc2c1Nc1ccccc1

>  <Set>  (50) 
G2 active

>  <Set_type>  (50) 
Test

>  <MW>  (50) 
435.53

>  <HBD>  (50) 
2

>  <HBA>  (50) 
4

>  <NRB>  (50) 
6

>  <NR>  (50) 
5

>  <NAR>  (50) 
4

>  <PSA>  (50) 
85.08

>  <Standard Type>  (50) 
nan

>  <Standard Relation>  (50) 
nan

>  <Standard Units>  (50) 
nan

>  <Standard Value>  (50) 
nan

>  <Assay ChEMBL ID>  (50) 
nan

>  <Assay Description>  (50) 
nan

>  <BAO Label>  (50) 
nan

>  <bits>  (50) 
<rdkit.DataStructs.cDataStructs.ExplicitBitVect object at 0x000002A7EE0ECE40>

>  <Group>  (50) 
G1

$$$$
