
     RDKit          2D

 27 30  0  0  0  0  0  0  0  0999 V2000
   -7.8175    0.9250    0.0000 N   0  0  0  0  0  0  0  0  0  0  0  0
   -6.4268    0.3631    0.0000 C   0  0  0  0  0  0  0  0  0  0  0  0
   -7.2216   -0.9090    0.0000 C   0  0  0  0  0  0  0  0  0  0  0  0
   -6.5174   -2.2334    0.0000 O   0  0  0  0  0  0  0  0  0  0  0  0
   -8.7207   -0.8566    0.0000 N   0  0  0  0  0  0  0  0  0  0  0  0
   -9.5156   -2.1287    0.0000 C   0  0  0  0  0  0  0  0  0  0  0  0
  -11.0147   -2.0763    0.0000 C   0  0  0  0  0  0  0  0  0  0  0  0
  -11.7189   -0.7519    0.0000 C   0  0  0  0  0  0  0  0  0  0  0  0
  -13.2180   -0.6996    0.0000 C   0  0  0  0  0  0  0  0  0  0  0  0
  -14.0129   -1.9716    0.0000 C   0  0  0  0  0  0  0  0  0  0  0  0
  -15.5119   -1.9193    0.0000 Cl  0  0  0  0  0  0  0  0  0  0  0  0
  -13.3087   -3.2960    0.0000 C   0  0  0  0  0  0  0  0  0  0  0  0
  -11.8096   -3.3484    0.0000 C   0  0  0  0  0  0  0  0  0  0  0  0
   -5.3120   -0.6406    0.0000 C   0  0  0  0  0  0  0  0  0  0  0  0
   -3.8855   -0.1771    0.0000 C   0  0  0  0  0  0  0  0  0  0  0  0
   -3.5736    1.2902    0.0000 N   0  0  0  0  0  0  0  0  0  0  0  0
   -2.1470    1.7537    0.0000 C   0  0  0  0  0  0  0  0  0  0  0  0
   -1.8351    3.2209    0.0000 N   0  0  0  0  0  0  0  0  0  0  0  0
   -0.4086    3.6844    0.0000 C   0  0  0  0  0  0  0  0  0  0  0  0
    0.7062    2.6807    0.0000 N   0  0  0  0  0  0  0  0  0  0  0  0
    0.3943    1.2135    0.0000 C   0  0  0  0  0  0  0  0  0  0  0  0
    1.2760    0.0000    0.0000 N   0  0  0  0  0  0  0  0  0  0  0  0
    0.3943   -1.2135    0.0000 C   0  0  0  0  0  0  0  0  0  0  0  0
   -1.0323   -0.7500    0.0000 C   0  0  0  0  0  0  0  0  0  0  0  0
   -1.0323    0.7500    0.0000 C   0  0  0  0  0  0  0  0  0  0  0  0
   -4.6883    2.2939    0.0000 C   0  0  0  0  0  0  0  0  0  0  0  0
   -6.1149    1.8303    0.0000 C   0  0  0  0  0  0  0  0  0  0  0  0
  1  2  1  0
  2  3  1  0
  3  4  2  0
  3  5  1  0
  5  6  1  0
  6  7  1  0
  7  8  2  0
  8  9  1  0
  9 10  2  0
 10 11  1  0
 10 12  1  0
 12 13  2  0
  2 14  1  0
 14 15  1  0
 15 16  1  0
 16 17  1  0
 17 18  2  0
 18 19  1  0
 19 20  2  0
 20 21  1  0
 21 22  1  0
 22 23  1  0
 23 24  2  0
 24 25  1  0
 16 26  1  0
 26 27  1  0
 27  2  1  0
 13  7  1  0
 25 17  1  0
 25 21  2  0
M  END
>  <Compound_ID>  (1) 
CHEMBL598194

>  <Active>  (1) 
1

>  <Smiles>  (1) 
NC1(C(=O)NCc2ccc(Cl)cc2)CCN(c2ncnc3[nH]ccc23)CC1

>  <canonical_smi>  (1) 
NC1(C(=O)NCc2ccc(Cl)cc2)CCN(c2ncnc3[nH]ccc23)CC1

>  <Set>  (1) 
G1 active

>  <Set_type>  (1) 
G1

>  <MW>  (1) 
384.87

>  <HBD>  (1) 
3

>  <HBA>  (1) 
5

>  <NRB>  (1) 
4

>  <NR>  (1) 
4

>  <NAR>  (1) 
3

>  <PSA>  (1) 
99.93

>  <Standard Type>  (1) 
nan

>  <Standard Relation>  (1) 
nan

>  <Standard Units>  (1) 
nan

>  <Standard Value>  (1) 
nan

>  <Assay ChEMBL ID>  (1) 
nan

>  <Assay Description>  (1) 
nan

>  <BAO Label>  (1) 
nan

>  <bits>  (1) 
<rdkit.DataStructs.cDataStructs.ExplicitBitVect object at 0x000001A37F957F40>

>  <Group>  (1) 
G1

$$$$

     RDKit          2D

 44 51  0  0  0  0  0  0  0  0999 V2000
    2.7760    0.0000    0.0000 N   0  0  0  0  0  0  0  0  0  0  0  0
    1.2760    0.0000    0.0000 C   0  0  0  0  0  0  0  0  0  0  0  0
    0.3943    1.2135    0.0000 N   0  0  0  0  0  0  0  0  0  0  0  0
   -1.0323    0.7500    0.0000 N   0  0  0  0  0  0  0  0  0  0  0  0
   -1.0323   -0.7500    0.0000 C   0  0  0  0  0  0  0  0  0  0  0  0
   -2.1470   -1.7537    0.0000 C   0  0  0  0  0  0  0  0  0  0  0  0
   -3.5736   -1.2902    0.0000 C   0  0  0  0  0  0  0  0  0  0  0  0
   -4.6883   -2.2939    0.0000 C   0  0  0  0  0  0  0  0  0  0  0  0
   -6.1149   -1.8303    0.0000 C   0  0  0  0  0  0  0  0  0  0  0  0
   -6.4268   -0.3631    0.0000 C   0  0  0  0  0  0  0  0  0  0  0  0
   -7.8533    0.1004    0.0000 C   0  0  0  0  0  0  0  0  0  0  0  0
   -8.9681   -0.9033    0.0000 C   0  0  0  0  0  0  0  0  0  0  0  0
   -8.6562   -2.3705    0.0000 C   0  0  0  0  0  0  0  0  0  0  0  0
   -7.2296   -2.8340    0.0000 C   0  0  0  0  0  0  0  0  0  0  0  0
   -4.3764   -3.7611    0.0000 C   0  0  0  0  0  0  0  0  0  0  0  0
   -5.4912   -4.7648    0.0000 C   0  0  0  0  0  0  0  0  0  0  0  0
   -6.9177   -4.3013    0.0000 C   0  0  0  0  0  0  0  0  0  0  0  0
   -8.0325   -5.3050    0.0000 C   0  0  0  0  0  0  0  0  0  0  0  0
   -7.7206   -6.7722    0.0000 C   0  0  0  0  0  0  0  0  0  0  0  0
   -8.8353   -7.7759    0.0000 C   0  0  0  0  0  0  0  0  0  0  0  0
  -10.2619   -7.3123    0.0000 N   0  0  0  0  0  0  0  0  0  0  0  0
  -10.5738   -5.8451    0.0000 C   0  0  0  0  0  0  0  0  0  0  0  0
  -12.0003   -5.3816    0.0000 C   0  0  0  0  0  0  0  0  0  0  0  0
  -13.1151   -6.3853    0.0000 C   0  0  0  0  0  0  0  0  0  0  0  0
  -14.5416   -5.9218    0.0000 N   0  0  0  0  0  0  0  0  0  0  0  0
  -15.7552   -6.8034    0.0000 C   0  0  0  0  0  0  0  0  0  0  0  0
  -16.9687   -5.9218    0.0000 N   0  0  0  0  0  0  0  0  0  0  0  0
  -16.5052   -4.4952    0.0000 C   0  0  0  0  0  0  0  0  0  0  0  0
  -17.3868   -3.2817    0.0000 C   0  0  0  0  0  0  0  0  0  0  0  0
  -16.7767   -1.9113    0.0000 C   0  0  0  0  0  0  0  0  0  0  0  0
  -17.6584   -0.6978    0.0000 C   0  0  0  0  0  0  0  0  0  0  0  0
  -19.1502   -0.8546    0.0000 C   0  0  0  0  0  0  0  0  0  0  0  0
  -19.7603   -2.2249    0.0000 C   0  0  0  0  0  0  0  0  0  0  0  0
  -18.8786   -3.4385    0.0000 N   0  0  0  0  0  0  0  0  0  0  0  0
  -15.0052   -4.4952    0.0000 C   0  0  0  0  0  0  0  0  0  0  0  0
  -12.8032   -7.8525    0.0000 C   0  0  0  0  0  0  0  0  0  0  0  0
  -11.3766   -8.3160    0.0000 C   0  0  0  0  0  0  0  0  0  0  0  0
   -6.2940   -7.2357    0.0000 C   0  0  0  0  0  0  0  0  0  0  0  0
   -5.1793   -6.2320    0.0000 C   0  0  0  0  0  0  0  0  0  0  0  0
   -2.9499   -4.2246    0.0000 N   0  0  0  0  0  0  0  0  0  0  0  0
   -1.8351   -3.2209    0.0000 C   0  0  0  0  0  0  0  0  0  0  0  0
   -0.4086   -3.6844    0.0000 C   0  0  0  0  0  0  0  0  0  0  0  0
    0.7062   -2.6807    0.0000 C   0  0  0  0  0  0  0  0  0  0  0  0
    0.3943   -1.2135    0.0000 N   0  0  0  0  0  0  0  0  0  0  0  0
  1  2  1  0
  2  3  2  0
  3  4  1  0
  4  5  2  0
  5  6  1  0
  6  7  2  0
  7  8  1  0
  8  9  1  0
  9 10  2  0
 10 11  1  0
 11 12  2  0
 12 13  1  0
 13 14  2  0
  8 15  2  0
 15 16  1  0
 16 17  2  0
 17 18  1  0
 18 19  2  0
 19 20  1  0
 20 21  1  0
 21 22  1  0
 22 23  1  0
 23 24  1  0
 24 25  1  0
 25 26  1  0
 26 27  2  0
 27 28  1  0
 28 29  1  0
 29 30  2  0
 30 31  1  0
 31 32  2  0
 32 33  1  0
 33 34  2  0
 28 35  2  0
 24 36  1  0
 36 37  1  0
 19 38  1  0
 38 39  2  0
 15 40  1  0
 40 41  2  0
 41 42  1  0
 42 43  2  0
 43 44  1  0
 44  2  1  0
 44  5  1  0
 41  6  1  0
 14  9  1  0
 39 16  1  0
 37 21  1  0
 35 25  1  0
 34 29  1  0
M  END
>  <Compound_ID>  (2) 
CHEMBL508794

>  <Active>  (2) 
1

>  <Smiles>  (2) 
Nc1nnc2c3cc(-c4ccccc4)c(-c4ccc(CN5CCC(n6cnc(-c7ccccn7)c6)CC5)cc4)nc3ccn12

>  <canonical_smi>  (2) 
Nc1nnc2c3cc(-c4ccccc4)c(-c4ccc(CN5CCC(n6cnc(-c7ccccn7)c6)CC5)cc4)nc3ccn12

>  <Set>  (2) 
G1 active

>  <Set_type>  (2) 
G1

>  <MW>  (2) 
577.7

>  <HBD>  (2) 
1

>  <HBA>  (2) 
7

>  <NRB>  (2) 
6

>  <NR>  (2) 
8

>  <NAR>  (2) 
7

>  <PSA>  (2) 
103.05

>  <Standard Type>  (2) 
nan

>  <Standard Relation>  (2) 
nan

>  <Standard Units>  (2) 
nan

>  <Standard Value>  (2) 
nan

>  <Assay ChEMBL ID>  (2) 
nan

>  <Assay Description>  (2) 
nan

>  <BAO Label>  (2) 
nan

>  <bits>  (2) 
<rdkit.DataStructs.cDataStructs.ExplicitBitVect object at 0x000001A37F957ED0>

>  <Group>  (2) 
G1

$$$$

     RDKit          2D

 32 36  0  0  0  0  0  0  0  0999 V2000
    2.2500   -6.4952    0.0000 C   0  0  0  0  0  0  0  0  0  0  0  0
    0.7500   -6.4952    0.0000 C   0  0  0  0  0  0  0  0  0  0  0  0
   -0.7500   -6.4952    0.0000 C   0  0  0  0  0  0  0  0  0  0  0  0
   -1.5000   -7.7942    0.0000 N   0  0  0  0  0  0  0  0  0  0  0  0
   -3.0000   -7.7942    0.0000 C   0  0  0  0  0  0  0  0  0  0  0  0
   -3.7500   -6.4952    0.0000 C   0  0  0  0  0  0  0  0  0  0  0  0
   -5.2500   -6.4952    0.0000 O   0  0  0  0  0  0  0  0  0  0  0  0
   -6.0000   -5.1962    0.0000 C   0  0  0  0  0  0  0  0  0  0  0  0
   -7.5000   -5.1962    0.0000 C   0  0  0  0  0  0  0  0  0  0  0  0
   -8.2500   -6.4952    0.0000 N   0  0  0  0  0  0  0  0  0  0  0  0
   -8.2500   -3.8971    0.0000 C   0  0  0  0  0  0  0  0  0  0  0  0
   -9.7500   -3.8971    0.0000 C   0  0  0  0  0  0  0  0  0  0  0  0
  -10.6317   -5.1106    0.0000 C   0  0  0  0  0  0  0  0  0  0  0  0
  -12.0583   -4.6471    0.0000 N   0  0  0  0  0  0  0  0  0  0  0  0
  -12.0583   -3.1471    0.0000 C   0  0  0  0  0  0  0  0  0  0  0  0
  -13.1730   -2.1434    0.0000 C   0  0  0  0  0  0  0  0  0  0  0  0
  -12.8611   -0.6762    0.0000 C   0  0  0  0  0  0  0  0  0  0  0  0
  -11.4345   -0.2127    0.0000 C   0  0  0  0  0  0  0  0  0  0  0  0
  -10.3198   -1.2164    0.0000 C   0  0  0  0  0  0  0  0  0  0  0  0
  -10.6317   -2.6836    0.0000 C   0  0  0  0  0  0  0  0  0  0  0  0
   -3.0000   -5.1962    0.0000 C   0  0  0  0  0  0  0  0  0  0  0  0
   -1.5000   -5.1962    0.0000 C   0  0  0  0  0  0  0  0  0  0  0  0
   -0.7500   -3.8971    0.0000 C   0  0  0  0  0  0  0  0  0  0  0  0
    0.7500   -3.8971    0.0000 C   0  0  0  0  0  0  0  0  0  0  0  0
    1.5000   -2.5981    0.0000 C   0  0  0  0  0  0  0  0  0  0  0  0
    0.7500   -1.2990    0.0000 C   0  0  0  0  0  0  0  0  0  0  0  0
    1.5000    0.0000    0.0000 C   0  0  0  0  0  0  0  0  0  0  0  0
    0.7500    1.2990    0.0000 N   0  0  0  0  0  0  0  0  0  0  0  0
   -0.7500    1.2990    0.0000 C   0  0  0  0  0  0  0  0  0  0  0  0
   -1.5000    0.0000    0.0000 C   0  0  0  0  0  0  0  0  0  0  0  0
   -0.7500   -1.2990    0.0000 C   0  0  0  0  0  0  0  0  0  0  0  0
   -1.5000   -2.5981    0.0000 C   0  0  0  0  0  0  0  0  0  0  0  0
  1  2  3  0
  2  3  1  0
  3  4  2  0
  4  5  1  0
  5  6  2  0
  6  7  1  0
  7  8  1  0
  8  9  1  0
  9 10  1  1
  9 11  1  0
 11 12  1  0
 12 13  2  0
 13 14  1  0
 14 15  1  0
 15 16  2  0
 16 17  1  0
 17 18  2  0
 18 19  1  0
 19 20  2  0
  6 21  1  0
 21 22  2  0
 22 23  1  0
 23 24  2  0
 24 25  1  0
 25 26  2  0
 26 27  1  0
 27 28  2  0
 28 29  1  0
 29 30  2  0
 30 31  1  0
 31 32  2  0
 22  3  1  0
 32 23  1  0
 20 12  1  0
 31 26  1  0
 20 15  1  0
M  END
>  <Compound_ID>  (3) 
CHEMBL207544

>  <Active>  (3) 
1

>  <Smiles>  (3) 
C#Cc1ncc(OC[C@@H](N)Cc2c[nH]c3ccccc23)cc1-c1ccc2cnccc2c1

>  <canonical_smi>  (3) 
C#Cc1ncc(OC[C@@H](N)Cc2c[nH]c3ccccc23)cc1-c1ccc2cnccc2c1

>  <Set>  (3) 
G1 active

>  <Set_type>  (3) 
G1

>  <MW>  (3) 
418.5

>  <HBD>  (3) 
2

>  <HBA>  (3) 
4

>  <NRB>  (3) 
6

>  <NR>  (3) 
5

>  <NAR>  (3) 
5

>  <PSA>  (3) 
76.82

>  <Standard Type>  (3) 
nan

>  <Standard Relation>  (3) 
nan

>  <Standard Units>  (3) 
nan

>  <Standard Value>  (3) 
nan

>  <Assay ChEMBL ID>  (3) 
nan

>  <Assay Description>  (3) 
nan

>  <BAO Label>  (3) 
nan

>  <bits>  (3) 
<rdkit.DataStructs.cDataStructs.ExplicitBitVect object at 0x000001A37F957E60>

>  <Group>  (3) 
G1

$$$$

     RDKit          2D

 24 27  0  0  0  0  0  0  0  0999 V2000
   -7.8175    0.9250    0.0000 N   0  0  0  0  0  0  0  0  0  0  0  0
   -6.4268    0.3631    0.0000 C   0  0  0  0  0  0  0  0  0  0  0  0
   -7.2216   -0.9090    0.0000 C   0  0  0  0  0  0  0  0  0  0  0  0
   -8.7207   -0.8566    0.0000 C   0  0  0  0  0  0  0  0  0  0  0  0
   -9.4249    0.4678    0.0000 C   0  0  0  0  0  0  0  0  0  0  0  0
  -10.9240    0.5202    0.0000 C   0  0  0  0  0  0  0  0  0  0  0  0
  -11.7189   -0.7519    0.0000 C   0  0  0  0  0  0  0  0  0  0  0  0
  -13.2180   -0.6996    0.0000 Cl  0  0  0  0  0  0  0  0  0  0  0  0
  -11.0147   -2.0763    0.0000 C   0  0  0  0  0  0  0  0  0  0  0  0
   -9.5156   -2.1287    0.0000 C   0  0  0  0  0  0  0  0  0  0  0  0
   -5.3120   -0.6406    0.0000 C   0  0  0  0  0  0  0  0  0  0  0  0
   -3.8855   -0.1771    0.0000 C   0  0  0  0  0  0  0  0  0  0  0  0
   -3.5736    1.2902    0.0000 N   0  0  0  0  0  0  0  0  0  0  0  0
   -2.1470    1.7537    0.0000 C   0  0  0  0  0  0  0  0  0  0  0  0
   -1.8351    3.2209    0.0000 C   0  0  0  0  0  0  0  0  0  0  0  0
   -0.4086    3.6844    0.0000 C   0  0  0  0  0  0  0  0  0  0  0  0
    0.7062    2.6807    0.0000 N   0  0  0  0  0  0  0  0  0  0  0  0
    0.3943    1.2135    0.0000 C   0  0  0  0  0  0  0  0  0  0  0  0
    1.2760    0.0000    0.0000 N   0  0  0  0  0  0  0  0  0  0  0  0
    0.3943   -1.2135    0.0000 C   0  0  0  0  0  0  0  0  0  0  0  0
   -1.0323   -0.7500    0.0000 C   0  0  0  0  0  0  0  0  0  0  0  0
   -1.0323    0.7500    0.0000 C   0  0  0  0  0  0  0  0  0  0  0  0
   -4.6883    2.2939    0.0000 C   0  0  0  0  0  0  0  0  0  0  0  0
   -6.1149    1.8303    0.0000 C   0  0  0  0  0  0  0  0  0  0  0  0
  1  2  1  0
  2  3  1  0
  3  4  1  0
  4  5  2  0
  5  6  1  0
  6  7  2  0
  7  8  1  0
  7  9  1  0
  9 10  2  0
  2 11  1  0
 11 12  1  0
 12 13  1  0
 13 14  1  0
 14 15  2  0
 15 16  1  0
 16 17  2  0
 17 18  1  0
 18 19  1  0
 19 20  1  0
 20 21  2  0
 21 22  1  0
 13 23  1  0
 23 24  1  0
 24  2  1  0
 10  4  1  0
 22 14  1  0
 22 18  2  0
M  END
>  <Compound_ID>  (4) 
CHEMBL596991

>  <Active>  (4) 
1

>  <Smiles>  (4) 
NC1(Cc2ccc(Cl)cc2)CCN(c2ccnc3[nH]ccc23)CC1

>  <canonical_smi>  (4) 
NC1(Cc2ccc(Cl)cc2)CCN(c2ccnc3[nH]ccc23)CC1

>  <Set>  (4) 
G1 active

>  <Set_type>  (4) 
G1

>  <MW>  (4) 
340.86

>  <HBD>  (4) 
2

>  <HBA>  (4) 
3

>  <NRB>  (4) 
3

>  <NR>  (4) 
4

>  <NAR>  (4) 
3

>  <PSA>  (4) 
57.94

>  <Standard Type>  (4) 
nan

>  <Standard Relation>  (4) 
nan

>  <Standard Units>  (4) 
nan

>  <Standard Value>  (4) 
nan

>  <Assay ChEMBL ID>  (4) 
nan

>  <Assay Description>  (4) 
nan

>  <BAO Label>  (4) 
nan

>  <bits>  (4) 
<rdkit.DataStructs.cDataStructs.ExplicitBitVect object at 0x000001A37F957CA0>

>  <Group>  (4) 
G1

$$$$

     RDKit          2D

 35 42  0  0  0  0  0  0  0  0999 V2000
    7.0384   -5.9220    0.0000 C   0  0  0  0  0  0  0  0  0  0  0  0
    6.3474   -4.5907    0.0000 N   0  0  0  0  0  0  0  0  0  0  0  0
    4.8489   -4.5234    0.0000 C   0  0  0  0  0  0  0  0  0  0  0  0
    4.0414   -5.7874    0.0000 C   0  0  0  0  0  0  0  0  0  0  0  0
    2.5382   -5.8249    0.0000 C   0  0  0  0  0  0  0  0  0  0  0  0
    3.2490   -4.5040    0.0000 O   0  0  0  0  0  0  0  0  0  0  0  0
    2.6595   -3.1247    0.0000 C   0  0  0  0  0  0  0  0  0  0  0  0
    3.6464   -1.9951    0.0000 C   0  0  0  0  0  0  0  0  0  0  0  0
    4.1580   -3.1920    0.0000 C   0  0  0  0  0  0  0  0  0  0  0  0
    4.9655   -1.9279    0.0000 O   0  0  0  0  0  0  0  0  0  0  0  0
    6.4640   -1.9952    0.0000 C   0  0  0  0  0  0  0  0  0  0  0  0
    1.2135   -2.7256    0.0000 N   0  0  0  0  0  0  0  0  0  0  0  0
    0.7500   -1.2990    0.0000 C   0  0  0  0  0  0  0  0  0  0  0  0
    1.5000    0.0000    0.0000 C   0  0  0  0  0  0  0  0  0  0  0  0
    0.7500    1.2990    0.0000 C   0  0  0  0  0  0  0  0  0  0  0  0
   -0.7500    1.2990    0.0000 C   0  0  0  0  0  0  0  0  0  0  0  0
   -1.5000    0.0000    0.0000 C   0  0  0  0  0  0  0  0  0  0  0  0
   -0.7500   -1.2990    0.0000 C   0  0  0  0  0  0  0  0  0  0  0  0
   -1.2135   -2.7256    0.0000 C   0  0  0  0  0  0  0  0  0  0  0  0
   -2.5518   -3.5691    0.0000 C   0  0  0  0  0  0  0  0  0  0  0  0
   -2.6191   -5.0676    0.0000 C   0  0  0  0  0  0  0  0  0  0  0  0
   -1.3550   -5.8751    0.0000 C   0  0  0  0  0  0  0  0  0  0  0  0
   -1.0212   -7.3375    0.0000 C   0  0  0  0  0  0  0  0  0  0  0  0
   -1.8846   -8.5641    0.0000 C   0  0  0  0  0  0  0  0  0  0  0  0
   -1.2541   -9.9251    0.0000 C   0  0  0  0  0  0  0  0  0  0  0  0
    0.2399  -10.0596    0.0000 C   0  0  0  0  0  0  0  0  0  0  0  0
    1.1033   -8.8330    0.0000 C   0  0  0  0  0  0  0  0  0  0  0  0
    0.4728   -7.4720    0.0000 C   0  0  0  0  0  0  0  0  0  0  0  0
    1.0623   -6.0927    0.0000 N   0  0  0  0  0  0  0  0  0  0  0  0
   -0.0673   -5.1058    0.0000 C   0  0  0  0  0  0  0  0  0  0  0  0
   -0.0000   -3.6073    0.0000 C   0  0  0  0  0  0  0  0  0  0  0  0
   -4.0650   -5.4667    0.0000 C   0  0  0  0  0  0  0  0  0  0  0  0
   -4.5921   -6.8710    0.0000 O   0  0  0  0  0  0  0  0  0  0  0  0
   -4.8913   -4.2148    0.0000 N   0  0  0  0  0  0  0  0  0  0  0  0
   -3.9561   -3.0421    0.0000 C   0  0  0  0  0  0  0  0  0  0  0  0
  1  2  1  0
  3  2  1  6
  3  4  1  0
  4  5  1  0
  5  6  1  0
  6  7  1  0
  7  8  1  1
  7  9  1  0
  9 10  1  6
 10 11  1  0
  7 12  1  0
 12 13  1  0
 13 14  2  0
 14 15  1  0
 15 16  2  0
 16 17  1  0
 17 18  2  0
 18 19  1  0
 19 20  2  0
 20 21  1  0
 21 22  2  0
 22 23  1  0
 23 24  2  0
 24 25  1  0
 25 26  2  0
 26 27  1  0
 27 28  2  0
 28 29  1  0
 29 30  1  0
 30 31  2  0
 21 32  1  0
 32 33  2  0
 32 34  1  0
 34 35  1  0
  9  3  1  0
 31 12  1  0
 29  5  1  0
 18 13  1  0
 31 19  1  0
 35 20  1  0
 30 22  1  0
 28 23  1  0
M  END
>  <Compound_ID>  (5) 
CHEMBL162

>  <Active>  (5) 
1

>  <Smiles>  (5) 
CN[C@@H]1CC2O[C@@](C)([C@@H]1OC)n1c3ccccc3c3c4c(c5c6ccccc6n2c5c31)C(=O)NC4

>  <canonical_smi>  (5) 
CN[C@@H]1CC2O[C@@](C)([C@@H]1OC)n1c3ccccc3c3c4c(c5c6ccccc6n2c5c31)C(=O)NC4

>  <Set>  (5) 
G1 active

>  <Set_type>  (5) 
G1

>  <MW>  (5) 
466.54

>  <HBD>  (5) 
2

>  <HBA>  (5) 
4

>  <NRB>  (5) 
2

>  <NR>  (5) 
8

>  <NAR>  (5) 
5

>  <PSA>  (5) 
69.45

>  <Standard Type>  (5) 
nan

>  <Standard Relation>  (5) 
nan

>  <Standard Units>  (5) 
nan

>  <Standard Value>  (5) 
nan

>  <Assay ChEMBL ID>  (5) 
nan

>  <Assay Description>  (5) 
nan

>  <BAO Label>  (5) 
nan

>  <bits>  (5) 
<rdkit.DataStructs.cDataStructs.ExplicitBitVect object at 0x000001A37F957AE0>

>  <Group>  (5) 
G1

$$$$

     RDKit          2D

 29 32  0  0  0  0  0  0  0  0999 V2000
   -2.9520   -4.6564    0.0000 C   0  0  0  0  0  0  0  0  0  0  0  0
   -2.6401   -3.1891    0.0000 C   0  0  0  0  0  0  0  0  0  0  0  0
   -1.2135   -2.7256    0.0000 C   0  0  0  0  0  0  0  0  0  0  0  0
   -0.0000   -3.6073    0.0000 C   0  0  0  0  0  0  0  0  0  0  0  0
    1.2135   -2.7256    0.0000 N   0  0  0  0  0  0  0  0  0  0  0  0
    0.7500   -1.2990    0.0000 C   0  0  0  0  0  0  0  0  0  0  0  0
    1.5000    0.0000    0.0000 N   0  0  0  0  0  0  0  0  0  0  0  0
    0.7500    1.2990    0.0000 C   0  0  0  0  0  0  0  0  0  0  0  0
   -0.7500    1.2990    0.0000 N   0  0  0  0  0  0  0  0  0  0  0  0
   -1.5000    0.0000    0.0000 C   0  0  0  0  0  0  0  0  0  0  0  0
   -3.0000    0.0000    0.0000 N   0  0  0  0  0  0  0  0  0  0  0  0
   -3.8817   -1.2135    0.0000 C   0  0  0  0  0  0  0  0  0  0  0  0
   -5.3083   -0.7500    0.0000 C   0  0  0  0  0  0  0  0  0  0  0  0
   -5.3083    0.7500    0.0000 C   0  0  0  0  0  0  0  0  0  0  0  0
   -5.6201    2.2172    0.0000 N   0  0  0  0  0  0  0  0  0  0  0  0
   -6.8000    0.5932    0.0000 C   0  0  0  0  0  0  0  0  0  0  0  0
   -7.6817    1.8067    0.0000 N   0  0  0  0  0  0  0  0  0  0  0  0
   -9.1735    1.6499    0.0000 C   0  0  0  0  0  0  0  0  0  0  0  0
   -9.7836    0.2796    0.0000 O   0  0  0  0  0  0  0  0  0  0  0  0
  -10.0552    2.8635    0.0000 C   0  0  0  0  0  0  0  0  0  0  0  0
   -9.4451    4.2338    0.0000 C   0  0  0  0  0  0  0  0  0  0  0  0
  -10.3268    5.4473    0.0000 C   0  0  0  0  0  0  0  0  0  0  0  0
  -11.8185    5.2905    0.0000 C   0  0  0  0  0  0  0  0  0  0  0  0
  -12.7002    6.5040    0.0000 F   0  0  0  0  0  0  0  0  0  0  0  0
  -12.4286    3.9202    0.0000 C   0  0  0  0  0  0  0  0  0  0  0  0
  -11.5470    2.7067    0.0000 C   0  0  0  0  0  0  0  0  0  0  0  0
  -12.1571    1.3364    0.0000 F   0  0  0  0  0  0  0  0  0  0  0  0
   -3.8817    1.2135    0.0000 C   0  0  0  0  0  0  0  0  0  0  0  0
   -0.7500   -1.2990    0.0000 C   0  0  0  0  0  0  0  0  0  0  0  0
  1  2  1  0
  2  3  1  0
  3  4  2  0
  4  5  1  0
  5  6  1  0
  6  7  2  0
  7  8  1  0
  8  9  2  0
  9 10  1  0
 10 11  1  0
 11 12  1  0
 12 13  1  0
 13 14  1  0
 14 15  1  1
 14 16  1  0
 16 17  1  0
 17 18  1  0
 18 19  2  0
 18 20  1  0
 20 21  2  0
 21 22  1  0
 22 23  2  0
 23 24  1  0
 23 25  1  0
 25 26  2  0
 26 27  1  0
 14 28  1  0
 10 29  2  0
 29  3  1  0
 29  6  1  0
 28 11  1  0
 26 20  1  0
M  END
>  <Compound_ID>  (6) 
CHEMBL1171647

>  <Active>  (6) 
1

>  <Smiles>  (6) 
CCc1c[nH]c2ncnc(N3CC[C@](N)(CNC(=O)c4ccc(F)cc4F)C3)c12

>  <canonical_smi>  (6) 
CCc1c[nH]c2ncnc(N3CC[C@](N)(CNC(=O)c4ccc(F)cc4F)C3)c12

>  <Set>  (6) 
G1 active

>  <Set_type>  (6) 
G1

>  <MW>  (6) 
400.43

>  <HBD>  (6) 
3

>  <HBA>  (6) 
5

>  <NRB>  (6) 
5

>  <NR>  (6) 
4

>  <NAR>  (6) 
3

>  <PSA>  (6) 
99.93

>  <Standard Type>  (6) 
nan

>  <Standard Relation>  (6) 
nan

>  <Standard Units>  (6) 
nan

>  <Standard Value>  (6) 
nan

>  <Assay ChEMBL ID>  (6) 
nan

>  <Assay Description>  (6) 
nan

>  <BAO Label>  (6) 
nan

>  <bits>  (6) 
<rdkit.DataStructs.cDataStructs.ExplicitBitVect object at 0x000001A37F957A70>

>  <Group>  (6) 
G1

$$$$

     RDKit          2D

 31 36  0  0  0  0  0  0  0  0999 V2000
   -9.8390    6.6612    0.0000 N   0  0  0  0  0  0  0  0  0  0  0  0
   -8.8353    7.7759    0.0000 C   0  0  0  0  0  0  0  0  0  0  0  0
   -7.7206    6.7722    0.0000 C   0  0  0  0  0  0  0  0  0  0  0  0
   -8.0325    5.3050    0.0000 C   0  0  0  0  0  0  0  0  0  0  0  0
   -6.9177    4.3013    0.0000 C   0  0  0  0  0  0  0  0  0  0  0  0
   -5.4912    4.7648    0.0000 C   0  0  0  0  0  0  0  0  0  0  0  0
   -4.3764    3.7611    0.0000 C   0  0  0  0  0  0  0  0  0  0  0  0
   -2.9499    4.2246    0.0000 N   0  0  0  0  0  0  0  0  0  0  0  0
   -1.8351    3.2209    0.0000 C   0  0  0  0  0  0  0  0  0  0  0  0
   -0.4086    3.6844    0.0000 C   0  0  0  0  0  0  0  0  0  0  0  0
    0.7062    2.6807    0.0000 C   0  0  0  0  0  0  0  0  0  0  0  0
    0.3943    1.2135    0.0000 N   0  0  0  0  0  0  0  0  0  0  0  0
    1.2760    0.0000    0.0000 C   0  0  0  0  0  0  0  0  0  0  0  0
    2.7760    0.0000    0.0000 O   0  0  0  0  0  0  0  0  0  0  0  0
    0.3943   -1.2135    0.0000 N   0  0  0  0  0  0  0  0  0  0  0  0
   -1.0323   -0.7500    0.0000 N   0  0  0  0  0  0  0  0  0  0  0  0
   -1.0323    0.7500    0.0000 C   0  0  0  0  0  0  0  0  0  0  0  0
   -2.1470    1.7537    0.0000 C   0  0  0  0  0  0  0  0  0  0  0  0
   -3.5736    1.2902    0.0000 C   0  0  0  0  0  0  0  0  0  0  0  0
   -4.6883    2.2939    0.0000 C   0  0  0  0  0  0  0  0  0  0  0  0
   -6.1149    1.8303    0.0000 C   0  0  0  0  0  0  0  0  0  0  0  0
   -7.2296    2.8340    0.0000 C   0  0  0  0  0  0  0  0  0  0  0  0
   -8.6562    2.3705    0.0000 C   0  0  0  0  0  0  0  0  0  0  0  0
   -8.9681    0.9033    0.0000 C   0  0  0  0  0  0  0  0  0  0  0  0
   -7.8533   -0.1004    0.0000 C   0  0  0  0  0  0  0  0  0  0  0  0
   -6.4268    0.3631    0.0000 C   0  0  0  0  0  0  0  0  0  0  0  0
   -5.1793    6.2320    0.0000 C   0  0  0  0  0  0  0  0  0  0  0  0
   -6.2940    7.2357    0.0000 C   0  0  0  0  0  0  0  0  0  0  0  0
   -7.8316    8.8906    0.0000 C   0  0  0  0  0  0  0  0  0  0  0  0
   -8.9463    9.8943    0.0000 C   0  0  0  0  0  0  0  0  0  0  0  0
   -9.9500    8.7796    0.0000 C   0  0  0  0  0  0  0  0  0  0  0  0
  1  2  1  0
  2  3  1  0
  3  4  2  0
  4  5  1  0
  5  6  2  0
  6  7  1  0
  7  8  2  0
  8  9  1  0
  9 10  1  0
 10 11  2  0
 11 12  1  0
 12 13  1  0
 13 14  2  0
 13 15  1  0
 15 16  1  0
 16 17  2  0
 17 18  1  0
 18 19  1  0
 19 20  2  0
 20 21  1  0
 21 22  2  0
 22 23  1  0
 23 24  2  0
 24 25  1  0
 25 26  2  0
  6 27  1  0
 27 28  2  0
  2 29  1  0
 29 30  1  0
 30 31  1  0
 31  2  1  0
 28  3  1  0
 20  7  1  0
 26 21  1  0
 18  9  2  0
 17 12  1  0
M  END
>  <Compound_ID>  (7) 
CHEMBL1079175

>  <Active>  (7) 
1

>  <Smiles>  (7) 
NC1(c2ccc(-c3nc4ccn5c(=O)[nH]nc5c4cc3-c3ccccc3)cc2)CCC1

>  <canonical_smi>  (7) 
NC1(c2ccc(-c3nc4ccn5c(=O)[nH]nc5c4cc3-c3ccccc3)cc2)CCC1

>  <Set>  (7) 
G1 active

>  <Set_type>  (7) 
G1

>  <MW>  (7) 
407.48

>  <HBD>  (7) 
2

>  <HBA>  (7) 
4

>  <NRB>  (7) 
3

>  <NR>  (7) 
6

>  <NAR>  (7) 
5

>  <PSA>  (7) 
89.07

>  <Standard Type>  (7) 
nan

>  <Standard Relation>  (7) 
nan

>  <Standard Units>  (7) 
nan

>  <Standard Value>  (7) 
nan

>  <Assay ChEMBL ID>  (7) 
nan

>  <Assay Description>  (7) 
nan

>  <BAO Label>  (7) 
nan

>  <bits>  (7) 
<rdkit.DataStructs.cDataStructs.ExplicitBitVect object at 0x000001A37F957A00>

>  <Group>  (7) 
G1

$$$$

     RDKit          2D

 37 42  0  0  0  0  0  0  0  0999 V2000
   -9.9786  -11.0813    0.0000 C   0  0  0  0  0  0  0  0  0  0  0  0
  -10.8603   -9.8678    0.0000 C   0  0  0  0  0  0  0  0  0  0  0  0
  -12.3603   -9.8678    0.0000 O   0  0  0  0  0  0  0  0  0  0  0  0
  -12.8238   -8.4412    0.0000 C   0  0  0  0  0  0  0  0  0  0  0  0
  -11.6103   -7.5595    0.0000 C   0  0  0  0  0  0  0  0  0  0  0  0
  -10.3968   -8.4412    0.0000 C   0  0  0  0  0  0  0  0  0  0  0  0
   -8.9702   -7.9777    0.0000 C   0  0  0  0  0  0  0  0  0  0  0  0
   -7.8555   -8.9814    0.0000 N   0  0  0  0  0  0  0  0  0  0  0  0
   -6.4289   -8.5179    0.0000 C   0  0  0  0  0  0  0  0  0  0  0  0
   -5.3142   -9.5216    0.0000 N   0  0  0  0  0  0  0  0  0  0  0  0
   -6.1170   -7.0506    0.0000 C   0  0  0  0  0  0  0  0  0  0  0  0
   -4.6904   -6.5871    0.0000 O   0  0  0  0  0  0  0  0  0  0  0  0
   -4.3786   -5.1199    0.0000 C   0  0  0  0  0  0  0  0  0  0  0  0
   -2.9520   -4.6564    0.0000 C   0  0  0  0  0  0  0  0  0  0  0  0
   -1.8373   -5.6601    0.0000 N   0  0  0  0  0  0  0  0  0  0  0  0
   -2.6401   -3.1891    0.0000 C   0  0  0  0  0  0  0  0  0  0  0  0
   -1.2135   -2.7256    0.0000 C   0  0  0  0  0  0  0  0  0  0  0  0
   -0.0000   -3.6073    0.0000 C   0  0  0  0  0  0  0  0  0  0  0  0
    1.2135   -2.7256    0.0000 N   0  0  0  0  0  0  0  0  0  0  0  0
    0.7500   -1.2990    0.0000 C   0  0  0  0  0  0  0  0  0  0  0  0
    1.5000    0.0000    0.0000 C   0  0  0  0  0  0  0  0  0  0  0  0
    0.7500    1.2990    0.0000 C   0  0  0  0  0  0  0  0  0  0  0  0
   -0.7500    1.2990    0.0000 C   0  0  0  0  0  0  0  0  0  0  0  0
   -1.5000    0.0000    0.0000 C   0  0  0  0  0  0  0  0  0  0  0  0
   -0.7500   -1.2990    0.0000 C   0  0  0  0  0  0  0  0  0  0  0  0
   -7.2317   -6.0469    0.0000 C   0  0  0  0  0  0  0  0  0  0  0  0
   -8.6583   -6.5105    0.0000 C   0  0  0  0  0  0  0  0  0  0  0  0
   -9.7730   -5.5068    0.0000 C   0  0  0  0  0  0  0  0  0  0  0  0
  -11.1996   -5.9703    0.0000 C   0  0  0  0  0  0  0  0  0  0  0  0
  -12.3143   -4.9666    0.0000 N   0  0  0  0  0  0  0  0  0  0  0  0
  -12.0025   -3.4994    0.0000 C   0  0  0  0  0  0  0  0  0  0  0  0
  -12.8841   -2.2859    0.0000 N   0  0  0  0  0  0  0  0  0  0  0  0
  -12.0025   -1.0723    0.0000 N   0  0  0  0  0  0  0  0  0  0  0  0
  -10.5759   -1.5359    0.0000 C   0  0  0  0  0  0  0  0  0  0  0  0
   -9.3624   -0.6542    0.0000 C   0  0  0  0  0  0  0  0  0  0  0  0
  -10.5759   -3.0359    0.0000 C   0  0  0  0  0  0  0  0  0  0  0  0
   -9.4612   -4.0396    0.0000 C   0  0  0  0  0  0  0  0  0  0  0  0
  1  2  1  0
  2  3  1  0
  3  4  1  0
  4  5  2  0
  5  6  1  0
  6  7  1  0
  7  8  2  0
  8  9  1  0
  9 10  1  0
  9 11  2  0
 11 12  1  0
 12 13  1  0
 13 14  1  0
 14 15  1  6
 14 16  1  0
 16 17  1  0
 17 18  2  0
 18 19  1  0
 19 20  1  0
 20 21  2  0
 21 22  1  0
 22 23  2  0
 23 24  1  0
 24 25  2  0
 11 26  1  0
 26 27  2  0
 27 28  1  0
 28 29  2  0
 29 30  1  0
 30 31  2  0
 31 32  1  0
 32 33  1  0
 33 34  2  0
 34 35  1  0
 34 36  1  0
 36 37  2  0
  6  2  2  0
 27  7  1  0
 37 28  1  0
 25 17  1  0
 36 31  1  0
 25 20  1  0
M  END
>  <Compound_ID>  (8) 
CHEMBL593375

>  <Active>  (8) 
1

>  <Smiles>  (8) 
Cc1occc1-c1nc(N)c(OC[C@@H](N)Cc2c[nH]c3ccccc23)cc1-c1cnc2[nH]nc(C)c2c1

>  <canonical_smi>  (8) 
Cc1occc1-c1nc(N)c(OC[C@@H](N)Cc2c[nH]c3ccccc23)cc1-c1cnc2[nH]nc(C)c2c1

>  <Set>  (8) 
G1 active

>  <Set_type>  (8) 
G1

>  <MW>  (8) 
493.57

>  <HBD>  (8) 
4

>  <HBA>  (8) 
7

>  <NRB>  (8) 
7

>  <NR>  (8) 
6

>  <NAR>  (8) 
6

>  <PSA>  (8) 
144.66

>  <Standard Type>  (8) 
nan

>  <Standard Relation>  (8) 
nan

>  <Standard Units>  (8) 
nan

>  <Standard Value>  (8) 
nan

>  <Assay ChEMBL ID>  (8) 
nan

>  <Assay Description>  (8) 
nan

>  <BAO Label>  (8) 
nan

>  <bits>  (8) 
<rdkit.DataStructs.cDataStructs.ExplicitBitVect object at 0x000001A37F957990>

>  <Group>  (8) 
G1

$$$$

     RDKit          2D

 28 30  0  0  0  0  0  0  0  0999 V2000
    3.7500   -1.2990    0.0000 C   0  0  0  0  0  0  0  0  0  0  0  0
    3.0000    0.0000    0.0000 N   0  0  0  0  0  0  0  0  0  0  0  0
    1.5000    0.0000    0.0000 C   0  0  0  0  0  0  0  0  0  0  0  0
    0.7500   -1.2990    0.0000 N   0  0  0  0  0  0  0  0  0  0  0  0
   -0.7500   -1.2990    0.0000 C   0  0  0  0  0  0  0  0  0  0  0  0
   -1.5000    0.0000    0.0000 C   0  0  0  0  0  0  0  0  0  0  0  0
   -0.7500    1.2990    0.0000 C   0  0  0  0  0  0  0  0  0  0  0  0
   -1.5000    2.5981    0.0000 C   0  0  0  0  0  0  0  0  0  0  0  0
   -2.9918    2.7549    0.0000 C   0  0  0  0  0  0  0  0  0  0  0  0
   -3.3037    4.2221    0.0000 C   0  0  0  0  0  0  0  0  0  0  0  0
   -2.0046    4.9721    0.0000 C   0  0  0  0  0  0  0  0  0  0  0  0
   -1.8478    6.4639    0.0000 C   0  0  0  0  0  0  0  0  0  0  0  0
   -3.0613    7.3456    0.0000 O   0  0  0  0  0  0  0  0  0  0  0  0
   -0.4775    7.0740    0.0000 N   0  0  0  0  0  0  0  0  0  0  0  0
   -0.3207    8.5658    0.0000 C   0  0  0  0  0  0  0  0  0  0  0  0
   -1.5342    9.4474    0.0000 C   0  0  0  0  0  0  0  0  0  0  0  0
   -1.3774   10.9392    0.0000 N   0  0  0  0  0  0  0  0  0  0  0  0
    1.0496    9.1759    0.0000 C   0  0  0  0  0  0  0  0  0  0  0  0
    1.2064   10.6676    0.0000 C   0  0  0  0  0  0  0  0  0  0  0  0
   -0.0071   11.5493    0.0000 C   0  0  0  0  0  0  0  0  0  0  0  0
    0.1497   13.0411    0.0000 C   0  0  0  0  0  0  0  0  0  0  0  0
    1.5200   13.6512    0.0000 C   0  0  0  0  0  0  0  0  0  0  0  0
    1.6768   15.1430    0.0000 Cl  0  0  0  0  0  0  0  0  0  0  0  0
    2.7335   12.7695    0.0000 C   0  0  0  0  0  0  0  0  0  0  0  0
    2.5767   11.2778    0.0000 C   0  0  0  0  0  0  0  0  0  0  0  0
    3.7902   10.3961    0.0000 Cl  0  0  0  0  0  0  0  0  0  0  0  0
   -0.8899    3.9684    0.0000 S   0  0  0  0  0  0  0  0  0  0  0  0
    0.7500    1.2990    0.0000 N   0  0  0  0  0  0  0  0  0  0  0  0
  1  2  1  0
  2  3  1  0
  3  4  2  0
  4  5  1  0
  5  6  2  0
  6  7  1  0
  7  8  1  0
  8  9  2  0
  9 10  1  0
 10 11  2  0
 11 12  1  0
 12 13  2  0
 12 14  1  0
 14 15  1  0
 15 16  1  6
 16 17  1  0
 15 18  1  0
 18 19  1  0
 19 20  2  0
 20 21  1  0
 21 22  2  0
 22 23  1  0
 22 24  1  0
 24 25  2  0
 25 26  1  0
 11 27  1  0
  7 28  2  0
 28  3  1  0
 27  8  1  0
 25 19  1  0
M  END
>  <Compound_ID>  (9) 
CHEMBL213618

>  <Active>  (9) 
1

>  <Smiles>  (9) 
CNc1nccc(-c2ccc(C(=O)N[C@H](CN)Cc3ccc(Cl)cc3Cl)s2)n1

>  <canonical_smi>  (9) 
CNc1nccc(-c2ccc(C(=O)N[C@H](CN)Cc3ccc(Cl)cc3Cl)s2)n1

>  <Set>  (9) 
G1 active

>  <Set_type>  (9) 
G1

>  <MW>  (9) 
436.37

>  <HBD>  (9) 
3

>  <HBA>  (9) 
5

>  <NRB>  (9) 
7

>  <NR>  (9) 
3

>  <NAR>  (9) 
3

>  <PSA>  (9) 
92.93

>  <Standard Type>  (9) 
nan

>  <Standard Relation>  (9) 
nan

>  <Standard Units>  (9) 
nan

>  <Standard Value>  (9) 
nan

>  <Assay ChEMBL ID>  (9) 
nan

>  <Assay Description>  (9) 
nan

>  <BAO Label>  (9) 
nan

>  <bits>  (9) 
<rdkit.DataStructs.cDataStructs.ExplicitBitVect object at 0x000001A37F957920>

>  <Group>  (9) 
G1

$$$$

     RDKit          2D

 41 47  0  0  0  0  0  0  0  0999 V2000
    3.0000    0.0000    0.0000 O   0  0  0  0  0  0  0  0  0  0  0  0
    1.5000    0.0000    0.0000 C   0  0  0  0  0  0  0  0  0  0  0  0
    0.7500   -1.2990    0.0000 N   0  0  0  0  0  0  0  0  0  0  0  0
   -0.7500   -1.2990    0.0000 C   0  0  0  0  0  0  0  0  0  0  0  0
   -1.5000    0.0000    0.0000 C   0  0  0  0  0  0  0  0  0  0  0  0
   -0.7500    1.2990    0.0000 C   0  0  0  0  0  0  0  0  0  0  0  0
   -1.5000    2.5981    0.0000 N   0  0  0  0  0  0  0  0  0  0  0  0
   -0.7500    3.8971    0.0000 C   0  0  0  0  0  0  0  0  0  0  0  0
   -1.5000    5.1962    0.0000 C   0  0  0  0  0  0  0  0  0  0  0  0
   -0.7500    6.4952    0.0000 C   0  0  0  0  0  0  0  0  0  0  0  0
   -1.5000    7.7942    0.0000 C   0  0  0  0  0  0  0  0  0  0  0  0
   -3.0000    7.7942    0.0000 C   0  0  0  0  0  0  0  0  0  0  0  0
   -3.7500    9.0933    0.0000 C   0  0  0  0  0  0  0  0  0  0  0  0
   -3.0000   10.3923    0.0000 N   0  0  0  0  0  0  0  0  0  0  0  0
   -1.5000   10.3923    0.0000 C   0  0  0  0  0  0  0  0  0  0  0  0
   -0.7500   11.6913    0.0000 C   0  0  0  0  0  0  0  0  0  0  0  0
   -1.5000   12.9904    0.0000 C   0  0  0  0  0  0  0  0  0  0  0  0
   -0.7500   14.2894    0.0000 C   0  0  0  0  0  0  0  0  0  0  0  0
   -1.3601   15.6597    0.0000 N   0  0  0  0  0  0  0  0  0  0  0  0
   -0.2454   16.6634    0.0000 N   0  0  0  0  0  0  0  0  0  0  0  0
    1.0537   15.9134    0.0000 C   0  0  0  0  0  0  0  0  0  0  0  0
    2.4240   16.5235    0.0000 C   0  0  0  0  0  0  0  0  0  0  0  0
    3.6375   15.6419    0.0000 C   0  0  0  0  0  0  0  0  0  0  0  0
    5.0078   16.2520    0.0000 C   0  0  0  0  0  0  0  0  0  0  0  0
    5.1646   17.7437    0.0000 C   0  0  0  0  0  0  0  0  0  0  0  0
    3.9511   18.6254    0.0000 C   0  0  0  0  0  0  0  0  0  0  0  0
    2.5808   18.0153    0.0000 N   0  0  0  0  0  0  0  0  0  0  0  0
    0.7418   14.4462    0.0000 N   0  0  0  0  0  0  0  0  0  0  0  0
   -3.0000   12.9904    0.0000 C   0  0  0  0  0  0  0  0  0  0  0  0
   -3.7500   11.6913    0.0000 C   0  0  0  0  0  0  0  0  0  0  0  0
   -3.7500    6.4952    0.0000 C   0  0  0  0  0  0  0  0  0  0  0  0
   -3.0000    5.1962    0.0000 C   0  0  0  0  0  0  0  0  0  0  0  0
    0.7500    3.8971    0.0000 C   0  0  0  0  0  0  0  0  0  0  0  0
    1.5000    5.1962    0.0000 C   0  0  0  0  0  0  0  0  0  0  0  0
    3.0000    5.1962    0.0000 C   0  0  0  0  0  0  0  0  0  0  0  0
    3.7500    6.4952    0.0000 C   0  0  0  0  0  0  0  0  0  0  0  0
    3.0000    7.7942    0.0000 C   0  0  0  0  0  0  0  0  0  0  0  0
    1.5000    7.7942    0.0000 C   0  0  0  0  0  0  0  0  0  0  0  0
    0.7500    6.4952    0.0000 C   0  0  0  0  0  0  0  0  0  0  0  0
    1.5000    2.5981    0.0000 C   0  0  0  0  0  0  0  0  0  0  0  0
    0.7500    1.2990    0.0000 C   0  0  0  0  0  0  0  0  0  0  0  0
  1  2  2  0
  2  3  1  0
  3  4  2  0
  4  5  1  0
  5  6  2  0
  6  7  1  0
  7  8  2  0
  8  9  1  0
  9 10  2  0
 10 11  1  0
 11 12  2  0
 12 13  1  0
 13 14  1  0
 14 15  1  0
 15 16  1  0
 16 17  1  0
 17 18  1  0
 18 19  2  0
 19 20  1  0
 20 21  1  0
 21 22  1  0
 22 23  2  0
 23 24  1  0
 24 25  2  0
 25 26  1  0
 26 27  2  0
 21 28  2  0
 17 29  1  0
 29 30  1  0
 12 31  1  0
 31 32  2  0
  8 33  1  0
 33 34  1  0
 34 35  2  0
 35 36  1  0
 36 37  2  0
 37 38  1  0
 38 39  2  0
 33 40  2  0
 40 41  1  0
 41  2  1  0
 41  6  1  0
 32  9  1  0
 39 34  1  0
 30 14  1  0
 28 18  1  0
 27 22  1  0
M  END
>  <Compound_ID>  (10) 
CHEMBL262341

>  <Active>  (10) 
1

>  <Smiles>  (10) 
O=C1N=CC=C2N=C(c3ccc(CN4CCC(c5n[nH]c(-c6ccccn6)n5)CC4)cc3)C(c3ccccc3)=CC12

>  <canonical_smi>  (10) 
O=C1N=CC=C2N=C(c3ccc(CN4CCC(c5n[nH]c(-c6ccccn6)n5)CC4)cc3)C(c3ccccc3)=CC12

>  <Set>  (10) 
G1 active

>  <Set_type>  (10) 
G1

>  <MW>  (10) 
539.64

>  <HBD>  (10) 
1

>  <HBA>  (10) 
5

>  <NRB>  (10) 
6

>  <NR>  (10) 
7

>  <NAR>  (10) 
4

>  <PSA>  (10) 
99.49

>  <Standard Type>  (10) 
nan

>  <Standard Relation>  (10) 
nan

>  <Standard Units>  (10) 
nan

>  <Standard Value>  (10) 
nan

>  <Assay ChEMBL ID>  (10) 
nan

>  <Assay Description>  (10) 
nan

>  <BAO Label>  (10) 
nan

>  <bits>  (10) 
<rdkit.DataStructs.cDataStructs.ExplicitBitVect object at 0x000001A37F957840>

>  <Group>  (10) 
G1

$$$$

     RDKit          2D

 26 29  0  0  0  0  0  0  0  0999 V2000
    2.7395   -6.6734    0.0000 N   0  0  0  0  0  0  0  0  0  0  0  0
    3.0000   -5.1962    0.0000 C   0  0  0  0  0  0  0  0  0  0  0  0
    4.4095   -5.7092    0.0000 C   0  0  0  0  0  0  0  0  0  0  0  0
    4.6700   -7.1864    0.0000 C   0  0  0  0  0  0  0  0  0  0  0  0
    3.5209   -8.1506    0.0000 C   0  0  0  0  0  0  0  0  0  0  0  0
    3.7814   -9.6278    0.0000 C   0  0  0  0  0  0  0  0  0  0  0  0
    5.1910  -10.1408    0.0000 C   0  0  0  0  0  0  0  0  0  0  0  0
    5.4514  -11.6180    0.0000 Cl  0  0  0  0  0  0  0  0  0  0  0  0
    6.3400   -9.1766    0.0000 C   0  0  0  0  0  0  0  0  0  0  0  0
    6.0796   -7.6994    0.0000 C   0  0  0  0  0  0  0  0  0  0  0  0
    7.2286   -6.7352    0.0000 Cl  0  0  0  0  0  0  0  0  0  0  0  0
    3.7500   -3.8971    0.0000 C   0  0  0  0  0  0  0  0  0  0  0  0
    3.0000   -2.5981    0.0000 C   0  0  0  0  0  0  0  0  0  0  0  0
    1.5000   -2.5981    0.0000 N   0  0  0  0  0  0  0  0  0  0  0  0
    0.7500   -1.2990    0.0000 C   0  0  0  0  0  0  0  0  0  0  0  0
    1.5000    0.0000    0.0000 N   0  0  0  0  0  0  0  0  0  0  0  0
    0.7500    1.2990    0.0000 C   0  0  0  0  0  0  0  0  0  0  0  0
   -0.7500    1.2990    0.0000 N   0  0  0  0  0  0  0  0  0  0  0  0
   -1.5000    0.0000    0.0000 C   0  0  0  0  0  0  0  0  0  0  0  0
   -2.9672   -0.3119    0.0000 N   0  0  0  0  0  0  0  0  0  0  0  0
   -3.1240   -1.8037    0.0000 C   0  0  0  0  0  0  0  0  0  0  0  0
   -4.4231   -2.5537    0.0000 O   0  0  0  0  0  0  0  0  0  0  0  0
   -1.7537   -2.4138    0.0000 N   0  0  0  0  0  0  0  0  0  0  0  0
   -0.7500   -1.2990    0.0000 C   0  0  0  0  0  0  0  0  0  0  0  0
    0.7500   -3.8971    0.0000 C   0  0  0  0  0  0  0  0  0  0  0  0
    1.5000   -5.1962    0.0000 C   0  0  0  0  0  0  0  0  0  0  0  0
  1  2  1  0
  2  3  1  0
  3  4  1  0
  4  5  2  0
  5  6  1  0
  6  7  2  0
  7  8  1  0
  7  9  1  0
  9 10  2  0
 10 11  1  0
  2 12  1  0
 12 13  1  0
 13 14  1  0
 14 15  1  0
 15 16  2  0
 16 17  1  0
 17 18  2  0
 18 19  1  0
 19 20  1  0
 20 21  1  0
 21 22  2  0
 21 23  1  0
 23 24  1  0
 14 25  1  0
 25 26  1  0
 26  2  1  0
 10  4  1  0
 24 15  1  0
 24 19  2  0
M  END
>  <Compound_ID>  (11) 
CHEMBL590957

>  <Active>  (11) 
1

>  <Smiles>  (11) 
NC1(Cc2ccc(Cl)cc2Cl)CCN(c2ncnc3[nH]c(=O)[nH]c23)CC1

>  <canonical_smi>  (11) 
NC1(Cc2ccc(Cl)cc2Cl)CCN(c2ncnc3[nH]c(=O)[nH]c23)CC1

>  <Set>  (11) 
G1 active

>  <Set_type>  (11) 
G1

>  <MW>  (11) 
393.28

>  <HBD>  (11) 
3

>  <HBA>  (11) 
5

>  <NRB>  (11) 
3

>  <NR>  (11) 
4

>  <NAR>  (11) 
3

>  <PSA>  (11) 
103.69

>  <Standard Type>  (11) 
nan

>  <Standard Relation>  (11) 
nan

>  <Standard Units>  (11) 
nan

>  <Standard Value>  (11) 
nan

>  <Assay ChEMBL ID>  (11) 
nan

>  <Assay Description>  (11) 
nan

>  <BAO Label>  (11) 
nan

>  <bits>  (11) 
<rdkit.DataStructs.cDataStructs.ExplicitBitVect object at 0x000001A37F9577D0>

>  <Group>  (11) 
G1

$$$$

     RDKit          2D

 42 48  0  0  0  0  0  0  0  0999 V2000
    3.7500   -1.2990    0.0000 C   0  0  0  0  0  0  0  0  0  0  0  0
    3.0000    0.0000    0.0000 S   0  0  0  0  0  0  0  0  0  0  0  0
    1.5000    0.0000    0.0000 C   0  0  0  0  0  0  0  0  0  0  0  0
    0.7500   -1.2990    0.0000 N   0  0  0  0  0  0  0  0  0  0  0  0
   -0.7500   -1.2990    0.0000 C   0  0  0  0  0  0  0  0  0  0  0  0
   -1.5000    0.0000    0.0000 C   0  0  0  0  0  0  0  0  0  0  0  0
   -3.0000    0.0000    0.0000 C   0  0  0  0  0  0  0  0  0  0  0  0
   -3.7500    1.2990    0.0000 C   0  0  0  0  0  0  0  0  0  0  0  0
   -5.2500    1.2990    0.0000 C   0  0  0  0  0  0  0  0  0  0  0  0
   -6.0000    2.5981    0.0000 C   0  0  0  0  0  0  0  0  0  0  0  0
   -7.5000    2.5981    0.0000 C   0  0  0  0  0  0  0  0  0  0  0  0
   -8.2500    1.2990    0.0000 C   0  0  0  0  0  0  0  0  0  0  0  0
   -7.5000    0.0000    0.0000 C   0  0  0  0  0  0  0  0  0  0  0  0
   -6.0000    0.0000    0.0000 C   0  0  0  0  0  0  0  0  0  0  0  0
   -3.0000    2.5981    0.0000 C   0  0  0  0  0  0  0  0  0  0  0  0
   -3.7500    3.8971    0.0000 C   0  0  0  0  0  0  0  0  0  0  0  0
   -3.0000    5.1962    0.0000 C   0  0  0  0  0  0  0  0  0  0  0  0
   -3.7500    6.4952    0.0000 C   0  0  0  0  0  0  0  0  0  0  0  0
   -5.2500    6.4952    0.0000 C   0  0  0  0  0  0  0  0  0  0  0  0
   -6.0000    7.7942    0.0000 C   0  0  0  0  0  0  0  0  0  0  0  0
   -5.2500    9.0933    0.0000 N   0  0  0  0  0  0  0  0  0  0  0  0
   -3.7500    9.0933    0.0000 C   0  0  0  0  0  0  0  0  0  0  0  0
   -3.0000   10.3923    0.0000 C   0  0  0  0  0  0  0  0  0  0  0  0
   -3.7500   11.6913    0.0000 C   0  0  0  0  0  0  0  0  0  0  0  0
   -3.0000   12.9904    0.0000 C   0  0  0  0  0  0  0  0  0  0  0  0
   -3.6101   14.3607    0.0000 C   0  0  0  0  0  0  0  0  0  0  0  0
   -2.4954   15.3644    0.0000 C   0  0  0  0  0  0  0  0  0  0  0  0
   -2.6522   16.8562    0.0000 C   0  0  0  0  0  0  0  0  0  0  0  0
   -1.4387   17.7379    0.0000 C   0  0  0  0  0  0  0  0  0  0  0  0
   -1.5954   19.2296    0.0000 C   0  0  0  0  0  0  0  0  0  0  0  0
   -2.9658   19.8397    0.0000 N   0  0  0  0  0  0  0  0  0  0  0  0
   -4.1793   18.9581    0.0000 C   0  0  0  0  0  0  0  0  0  0  0  0
   -4.0225   17.4663    0.0000 C   0  0  0  0  0  0  0  0  0  0  0  0
   -1.1963   14.6144    0.0000 N   0  0  0  0  0  0  0  0  0  0  0  0
   -1.5082   13.1472    0.0000 N   0  0  0  0  0  0  0  0  0  0  0  0
   -5.2500   11.6913    0.0000 C   0  0  0  0  0  0  0  0  0  0  0  0
   -6.0000   10.3923    0.0000 C   0  0  0  0  0  0  0  0  0  0  0  0
   -6.0000    5.1962    0.0000 C   0  0  0  0  0  0  0  0  0  0  0  0
   -5.2500    3.8971    0.0000 C   0  0  0  0  0  0  0  0  0  0  0  0
   -1.5000    2.5981    0.0000 N   0  0  0  0  0  0  0  0  0  0  0  0
   -0.7500    1.2990    0.0000 C   0  0  0  0  0  0  0  0  0  0  0  0
    0.7500    1.2990    0.0000 N   0  0  0  0  0  0  0  0  0  0  0  0
  1  2  1  0
  2  3  1  0
  3  4  2  0
  4  5  1  0
  5  6  2  0
  6  7  1  0
  7  8  2  0
  8  9  1  0
  9 10  2  0
 10 11  1  0
 11 12  2  0
 12 13  1  0
 13 14  2  0
  8 15  1  0
 15 16  1  0
 16 17  2  0
 17 18  1  0
 18 19  2  0
 19 20  1  0
 20 21  1  0
 21 22  1  0
 22 23  1  0
 23 24  1  0
 24 25  1  0
 25 26  1  0
 26 27  2  0
 27 28  1  0
 28 29  2  0
 29 30  1  0
 30 31  2  0
 31 32  1  0
 32 33  2  0
 27 34  1  0
 34 35  1  0
 24 36  1  0
 36 37  1  0
 19 38  1  0
 38 39  2  0
 15 40  2  0
 40 41  1  0
 41 42  2  0
 42  3  1  0
 41  6  1  0
 14  9  1  0
 39 16  1  0
 37 21  1  0
 35 25  2  0
 33 28  1  0
M  END
>  <Compound_ID>  (12) 
CHEMBL404554

>  <Active>  (12) 
1

>  <Smiles>  (12) 
CSc1ncc2cc(-c3ccccc3)c(-c3ccc(CN4CCC(c5cc(-c6ccncc6)[nH]n5)CC4)cc3)nc2n1

>  <canonical_smi>  (12) 
CSc1ncc2cc(-c3ccccc3)c(-c3ccc(CN4CCC(c5cc(-c6ccncc6)[nH]n5)CC4)cc3)nc2n1

>  <Set>  (12) 
G1 active

>  <Set_type>  (12) 
G1

>  <MW>  (12) 
569.74

>  <HBD>  (12) 
1

>  <HBA>  (12) 
7

>  <NRB>  (12) 
7

>  <NR>  (12) 
7

>  <NAR>  (12) 
6

>  <PSA>  (12) 
83.48

>  <Standard Type>  (12) 
nan

>  <Standard Relation>  (12) 
nan

>  <Standard Units>  (12) 
nan

>  <Standard Value>  (12) 
nan

>  <Assay ChEMBL ID>  (12) 
nan

>  <Assay Description>  (12) 
nan

>  <BAO Label>  (12) 
nan

>  <bits>  (12) 
<rdkit.DataStructs.cDataStructs.ExplicitBitVect object at 0x000001A37F957760>

>  <Group>  (12) 
G1

$$$$

     RDKit          2D

 16 18  0  0  0  0  0  0  0  0999 V2000
   -7.8533   -0.1004    0.0000 N   0  0  0  0  0  0  0  0  0  0  0  0
   -6.4268    0.3631    0.0000 C   0  0  0  0  0  0  0  0  0  0  0  0
   -6.1149    1.8303    0.0000 C   0  0  0  0  0  0  0  0  0  0  0  0
   -4.6883    2.2939    0.0000 C   0  0  0  0  0  0  0  0  0  0  0  0
   -3.5736    1.2902    0.0000 N   0  0  0  0  0  0  0  0  0  0  0  0
   -2.1470    1.7537    0.0000 C   0  0  0  0  0  0  0  0  0  0  0  0
   -1.8351    3.2209    0.0000 N   0  0  0  0  0  0  0  0  0  0  0  0
   -0.4086    3.6844    0.0000 C   0  0  0  0  0  0  0  0  0  0  0  0
    0.7062    2.6807    0.0000 N   0  0  0  0  0  0  0  0  0  0  0  0
    0.3943    1.2135    0.0000 C   0  0  0  0  0  0  0  0  0  0  0  0
    1.2760    0.0000    0.0000 N   0  0  0  0  0  0  0  0  0  0  0  0
    0.3943   -1.2135    0.0000 C   0  0  0  0  0  0  0  0  0  0  0  0
   -1.0323   -0.7500    0.0000 C   0  0  0  0  0  0  0  0  0  0  0  0
   -1.0323    0.7500    0.0000 C   0  0  0  0  0  0  0  0  0  0  0  0
   -3.8855   -0.1771    0.0000 C   0  0  0  0  0  0  0  0  0  0  0  0
   -5.3120   -0.6406    0.0000 C   0  0  0  0  0  0  0  0  0  0  0  0
  1  2  1  0
  2  3  1  0
  3  4  1  0
  4  5  1  0
  5  6  1  0
  6  7  2  0
  7  8  1  0
  8  9  2  0
  9 10  1  0
 10 11  1  0
 11 12  1  0
 12 13  2  0
 13 14  1  0
  5 15  1  0
 15 16  1  0
 16  2  1  0
 14  6  1  0
 14 10  2  0
M  END
>  <Compound_ID>  (13) 
CHEMBL259141

>  <Active>  (13) 
1

>  <Smiles>  (13) 
NC1CCN(c2ncnc3[nH]ccc23)CC1

>  <canonical_smi>  (13) 
NC1CCN(c2ncnc3[nH]ccc23)CC1

>  <Set>  (13) 
G1 active

>  <Set_type>  (13) 
G1

>  <MW>  (13) 
217.28

>  <HBD>  (13) 
2

>  <HBA>  (13) 
4

>  <NRB>  (13) 
1

>  <NR>  (13) 
3

>  <NAR>  (13) 
2

>  <PSA>  (13) 
70.83

>  <Standard Type>  (13) 
nan

>  <Standard Relation>  (13) 
nan

>  <Standard Units>  (13) 
nan

>  <Standard Value>  (13) 
nan

>  <Assay ChEMBL ID>  (13) 
nan

>  <Assay Description>  (13) 
nan

>  <BAO Label>  (13) 
nan

>  <bits>  (13) 
<rdkit.DataStructs.cDataStructs.ExplicitBitVect object at 0x000001A37F9576F0>

>  <Group>  (13) 
G1

$$$$

     RDKit          2D

 29 32  0  0  0  0  0  0  0  0999 V2000
   -3.7548   -2.1855    0.0000 C   0  0  0  0  0  0  0  0  0  0  0  0
   -2.6401   -3.1891    0.0000 C   0  0  0  0  0  0  0  0  0  0  0  0
   -1.2135   -2.7256    0.0000 N   0  0  0  0  0  0  0  0  0  0  0  0
   -0.0000   -3.6073    0.0000 C   0  0  0  0  0  0  0  0  0  0  0  0
   -0.0000   -5.1073    0.0000 C   0  0  0  0  0  0  0  0  0  0  0  0
    1.2135   -5.9890    0.0000 N   0  0  0  0  0  0  0  0  0  0  0  0
    0.7500   -7.4156    0.0000 O   0  0  0  0  0  0  0  0  0  0  0  0
   -0.7500   -7.4156    0.0000 N   0  0  0  0  0  0  0  0  0  0  0  0
   -1.2135   -5.9890    0.0000 C   0  0  0  0  0  0  0  0  0  0  0  0
   -2.6401   -5.5255    0.0000 N   0  0  0  0  0  0  0  0  0  0  0  0
    1.2135   -2.7256    0.0000 N   0  0  0  0  0  0  0  0  0  0  0  0
    0.7500   -1.2990    0.0000 C   0  0  0  0  0  0  0  0  0  0  0  0
    1.5000    0.0000    0.0000 C   0  0  0  0  0  0  0  0  0  0  0  0
    3.0000    0.0000    0.0000 C   0  0  0  0  0  0  0  0  0  0  0  0
    4.5000    0.0000    0.0000 C   0  0  0  0  0  0  0  0  0  0  0  0
    6.0000    0.0000    0.0000 C   0  0  0  0  0  0  0  0  0  0  0  0
    6.0000   -1.5000    0.0000 C   0  0  0  0  0  0  0  0  0  0  0  0
    6.0000    1.5000    0.0000 C   0  0  0  0  0  0  0  0  0  0  0  0
    7.5000    0.0000    0.0000 O   0  0  0  0  0  0  0  0  0  0  0  0
    0.7500    1.2990    0.0000 N   0  0  0  0  0  0  0  0  0  0  0  0
   -0.7500    1.2990    0.0000 C   0  0  0  0  0  0  0  0  0  0  0  0
   -1.5000    2.5981    0.0000 C   0  0  0  0  0  0  0  0  0  0  0  0
   -0.7500    3.8971    0.0000 N   0  0  0  0  0  0  0  0  0  0  0  0
   -1.3601    5.2674    0.0000 C   0  0  0  0  0  0  0  0  0  0  0  0
   -0.2454    6.2711    0.0000 C   0  0  0  0  0  0  0  0  0  0  0  0
    1.0537    5.5211    0.0000 C   0  0  0  0  0  0  0  0  0  0  0  0
    0.7418    4.0539    0.0000 C   0  0  0  0  0  0  0  0  0  0  0  0
   -1.5000    0.0000    0.0000 C   0  0  0  0  0  0  0  0  0  0  0  0
   -0.7500   -1.2990    0.0000 C   0  0  0  0  0  0  0  0  0  0  0  0
  1  2  1  0
  2  3  1  0
  3  4  1  0
  4  5  1  0
  5  6  2  0
  6  7  1  0
  7  8  1  0
  8  9  2  0
  9 10  1  0
  4 11  2  0
 11 12  1  0
 12 13  2  0
 13 14  1  0
 14 15  3  0
 15 16  1  0
 16 17  1  0
 16 18  1  0
 16 19  1  0
 13 20  1  0
 20 21  2  0
 21 22  1  0
 22 23  1  0
 23 24  1  0
 24 25  1  0
 25 26  1  0
 26 27  1  0
 21 28  1  0
 28 29  2  0
 29  3  1  0
  9  5  1  0
 29 12  1  0
 27 23  1  0
M  END
>  <Compound_ID>  (14) 
CHEMBL1096290

>  <Active>  (14) 
1

>  <Smiles>  (14) 
CCn1c(-c2nonc2N)nc2c(C#CC(C)(C)O)nc(CN3CCCC3)cc21

>  <canonical_smi>  (14) 
CCn1c(-c2nonc2N)nc2c(C#CC(C)(C)O)nc(CN3CCCC3)cc21

>  <Set>  (14) 
G1 active

>  <Set_type>  (14) 
G1

>  <MW>  (14) 
395.47

>  <HBD>  (14) 
2

>  <HBA>  (14) 
8

>  <NRB>  (14) 
4

>  <NR>  (14) 
4

>  <NAR>  (14) 
3

>  <PSA>  (14) 
119.12

>  <Standard Type>  (14) 
nan

>  <Standard Relation>  (14) 
nan

>  <Standard Units>  (14) 
nan

>  <Standard Value>  (14) 
nan

>  <Assay ChEMBL ID>  (14) 
nan

>  <Assay Description>  (14) 
nan

>  <BAO Label>  (14) 
nan

>  <bits>  (14) 
<rdkit.DataStructs.cDataStructs.ExplicitBitVect object at 0x000001A37F957680>

>  <Group>  (14) 
G1

$$$$

     RDKit          2D

 23 26  0  0  0  0  0  0  0  0999 V2000
    1.5000    0.0000    0.0000 C   0  0  0  0  0  0  0  0  0  0  0  0
    0.7500   -1.2990    0.0000 C   0  0  0  0  0  0  0  0  0  0  0  0
   -0.7500   -1.2990    0.0000 C   0  0  0  0  0  0  0  0  0  0  0  0
   -1.5000    0.0000    0.0000 C   0  0  0  0  0  0  0  0  0  0  0  0
   -3.0000    0.0000    0.0000 C   0  0  0  0  0  0  0  0  0  0  0  0
   -2.7395   -1.4772    0.0000 C   0  0  0  0  0  0  0  0  0  0  0  0
   -3.8886   -2.4414    0.0000 C   0  0  0  0  0  0  0  0  0  0  0  0
   -3.6281   -3.9186    0.0000 C   0  0  0  0  0  0  0  0  0  0  0  0
   -2.2186   -4.4316    0.0000 C   0  0  0  0  0  0  0  0  0  0  0  0
   -1.9581   -5.9088    0.0000 C   0  0  0  0  0  0  0  0  0  0  0  0
   -0.6099   -6.5664    0.0000 C   0  0  0  0  0  0  0  0  0  0  0  0
   -0.8187   -8.0518    0.0000 N   0  0  0  0  0  0  0  0  0  0  0  0
   -2.2959   -8.3123    0.0000 N   0  0  0  0  0  0  0  0  0  0  0  0
   -3.0001   -6.9879    0.0000 C   0  0  0  0  0  0  0  0  0  0  0  0
   -1.0695   -3.4675    0.0000 C   0  0  0  0  0  0  0  0  0  0  0  0
   -1.3300   -1.9902    0.0000 C   0  0  0  0  0  0  0  0  0  0  0  0
   -2.7395    1.4772    0.0000 C   0  0  0  0  0  0  0  0  0  0  0  0
   -3.8886    2.4414    0.0000 C   0  0  0  0  0  0  0  0  0  0  0  0
   -5.2981    1.9284    0.0000 N   0  0  0  0  0  0  0  0  0  0  0  0
   -5.5586    0.4512    0.0000 C   0  0  0  0  0  0  0  0  0  0  0  0
   -4.4095   -0.5130    0.0000 C   0  0  0  0  0  0  0  0  0  0  0  0
   -0.7500    1.2990    0.0000 C   0  0  0  0  0  0  0  0  0  0  0  0
    0.7500    1.2990    0.0000 C   0  0  0  0  0  0  0  0  0  0  0  0
  1  2  2  0
  2  3  1  0
  3  4  2  0
  4  5  1  0
  5  6  1  0
  6  7  2  0
  7  8  1  0
  8  9  2  0
  9 10  1  0
 10 11  1  0
 11 12  2  0
 12 13  1  0
 13 14  1  0
  9 15  1  0
 15 16  2  0
  5 17  1  0
 17 18  1  0
 18 19  1  0
 19 20  1  0
 20 21  1  0
  4 22  1  0
 22 23  2  0
 23  1  1  0
 21  5  1  0
 16  6  1  0
 14 10  2  0
M  END
>  <Compound_ID>  (15) 
CHEMBL374742

>  <Active>  (15) 
1

>  <Smiles>  (15) 
c1ccc(C2(c3ccc(-c4cn[nH]c4)cc3)CCNCC2)cc1

>  <canonical_smi>  (15) 
c1ccc(C2(c3ccc(-c4cn[nH]c4)cc3)CCNCC2)cc1

>  <Set>  (15) 
G1 active

>  <Set_type>  (15) 
G1

>  <MW>  (15) 
303.41

>  <HBD>  (15) 
2

>  <HBA>  (15) 
2

>  <NRB>  (15) 
3

>  <NR>  (15) 
4

>  <NAR>  (15) 
3

>  <PSA>  (15) 
40.71

>  <Standard Type>  (15) 
nan

>  <Standard Relation>  (15) 
nan

>  <Standard Units>  (15) 
nan

>  <Standard Value>  (15) 
nan

>  <Assay ChEMBL ID>  (15) 
nan

>  <Assay Description>  (15) 
nan

>  <BAO Label>  (15) 
nan

>  <bits>  (15) 
<rdkit.DataStructs.cDataStructs.ExplicitBitVect object at 0x000001A37F957610>

>  <Group>  (15) 
G1

$$$$

     RDKit          2D

 40 46  0  0  0  0  0  0  0  0999 V2000
    3.0000   -7.7942    0.0000 C   0  0  0  0  0  0  0  0  0  0  0  0
    1.5000   -7.7942    0.0000 C   0  0  0  0  0  0  0  0  0  0  0  0
    0.7500   -6.4952    0.0000 C   0  0  0  0  0  0  0  0  0  0  0  0
    1.5000   -5.1962    0.0000 C   0  0  0  0  0  0  0  0  0  0  0  0
    0.7500   -3.8971    0.0000 C   0  0  0  0  0  0  0  0  0  0  0  0
    1.5000   -2.5981    0.0000 C   0  0  0  0  0  0  0  0  0  0  0  0
    0.7500   -1.2990    0.0000 C   0  0  0  0  0  0  0  0  0  0  0  0
    1.5000    0.0000    0.0000 C   0  0  0  0  0  0  0  0  0  0  0  0
    0.7500    1.2990    0.0000 C   0  0  0  0  0  0  0  0  0  0  0  0
   -0.7500    1.2990    0.0000 C   0  0  0  0  0  0  0  0  0  0  0  0
   -1.5000    0.0000    0.0000 N   0  0  0  0  0  0  0  0  0  0  0  0
   -0.7500   -1.2990    0.0000 C   0  0  0  0  0  0  0  0  0  0  0  0
   -1.5000   -2.5981    0.0000 N   0  0  0  0  0  0  0  0  0  0  0  0
   -0.7500   -3.8971    0.0000 C   0  0  0  0  0  0  0  0  0  0  0  0
   -1.5000   -5.1962    0.0000 C   0  0  0  0  0  0  0  0  0  0  0  0
   -3.0000   -5.1962    0.0000 C   0  0  0  0  0  0  0  0  0  0  0  0
   -3.7500   -6.4952    0.0000 C   0  0  0  0  0  0  0  0  0  0  0  0
   -3.0000   -7.7942    0.0000 C   0  0  0  0  0  0  0  0  0  0  0  0
   -3.7500   -9.0933    0.0000 C   0  0  0  0  0  0  0  0  0  0  0  0
   -5.2500   -9.0933    0.0000 N   0  0  0  0  0  0  0  0  0  0  0  0
   -6.0000   -7.7942    0.0000 C   0  0  0  0  0  0  0  0  0  0  0  0
   -7.5000   -7.7942    0.0000 C   0  0  0  0  0  0  0  0  0  0  0  0
   -8.2500   -9.0933    0.0000 C   0  0  0  0  0  0  0  0  0  0  0  0
   -9.7500   -9.0933    0.0000 C   0  0  0  0  0  0  0  0  0  0  0  0
  -10.6317  -10.3068    0.0000 N   0  0  0  0  0  0  0  0  0  0  0  0
  -12.0583   -9.8433    0.0000 N   0  0  0  0  0  0  0  0  0  0  0  0
  -12.0583   -8.3433    0.0000 C   0  0  0  0  0  0  0  0  0  0  0  0
  -13.2718   -7.4616    0.0000 C   0  0  0  0  0  0  0  0  0  0  0  0
  -13.1150   -5.9698    0.0000 C   0  0  0  0  0  0  0  0  0  0  0  0
  -14.3285   -5.0881    0.0000 C   0  0  0  0  0  0  0  0  0  0  0  0
  -15.6988   -5.6982    0.0000 C   0  0  0  0  0  0  0  0  0  0  0  0
  -15.8556   -7.1900    0.0000 C   0  0  0  0  0  0  0  0  0  0  0  0
  -14.6421   -8.0717    0.0000 N   0  0  0  0  0  0  0  0  0  0  0  0
  -10.6317   -7.8797    0.0000 N   0  0  0  0  0  0  0  0  0  0  0  0
   -7.5000  -10.3923    0.0000 C   0  0  0  0  0  0  0  0  0  0  0  0
   -6.0000  -10.3923    0.0000 C   0  0  0  0  0  0  0  0  0  0  0  0
   -1.5000   -7.7942    0.0000 C   0  0  0  0  0  0  0  0  0  0  0  0
   -0.7500   -6.4952    0.0000 C   0  0  0  0  0  0  0  0  0  0  0  0
    3.0000   -5.1962    0.0000 C   0  0  0  0  0  0  0  0  0  0  0  0
    3.7500   -6.4952    0.0000 C   0  0  0  0  0  0  0  0  0  0  0  0
  1  2  2  0
  2  3  1  0
  3  4  2  0
  4  5  1  0
  5  6  2  0
  6  7  1  0
  7  8  2  0
  8  9  1  0
  9 10  2  0
 10 11  1  0
 11 12  2  0
 12 13  1  0
 13 14  2  0
 14 15  1  0
 15 16  2  0
 16 17  1  0
 17 18  2  0
 18 19  1  0
 19 20  1  0
 20 21  1  0
 21 22  1  0
 22 23  1  0
 23 24  1  0
 24 25  2  0
 25 26  1  0
 26 27  1  0
 27 28  1  0
 28 29  2  0
 29 30  1  0
 30 31  2  0
 31 32  1  0
 32 33  2  0
 27 34  2  0
 23 35  1  0
 35 36  1  0
 18 37  1  0
 37 38  2  0
  4 39  1  0
 39 40  2  0
 40  1  1  0
 14  5  1  0
 38 15  1  0
 12  7  1  0
 36 20  1  0
 34 24  1  0
 33 28  1  0
M  END
>  <Compound_ID>  (16) 
CHEMBL260670

>  <Active>  (16) 
1

>  <Smiles>  (16) 
c1ccc(-c2cc3cccnc3nc2-c2ccc(CN3CCC(c4n[nH]c(-c5ccccn5)n4)CC3)cc2)cc1

>  <canonical_smi>  (16) 
c1ccc(-c2cc3cccnc3nc2-c2ccc(CN3CCC(c4n[nH]c(-c5ccccn5)n4)CC3)cc2)cc1

>  <Set>  (16) 
G1 active

>  <Set_type>  (16) 
G1

>  <MW>  (16) 
523.64

>  <HBD>  (16) 
1

>  <HBA>  (16) 
6

>  <NRB>  (16) 
6

>  <NR>  (16) 
7

>  <NAR>  (16) 
6

>  <PSA>  (16) 
83.48

>  <Standard Type>  (16) 
nan

>  <Standard Relation>  (16) 
nan

>  <Standard Units>  (16) 
nan

>  <Standard Value>  (16) 
nan

>  <Assay ChEMBL ID>  (16) 
nan

>  <Assay Description>  (16) 
nan

>  <BAO Label>  (16) 
nan

>  <bits>  (16) 
<rdkit.DataStructs.cDataStructs.ExplicitBitVect object at 0x000001A37F9575A0>

>  <Group>  (16) 
G1

$$$$

     RDKit          2D

 37 42  0  0  0  0  0  0  0  0999 V2000
    1.5000    0.0000    0.0000 C   0  0  0  0  0  0  0  0  0  0  0  0
    0.7500   -1.2990    0.0000 C   0  0  0  0  0  0  0  0  0  0  0  0
   -0.7500   -1.2990    0.0000 C   0  0  0  0  0  0  0  0  0  0  0  0
   -1.5000    0.0000    0.0000 C   0  0  0  0  0  0  0  0  0  0  0  0
   -3.0000    0.0000    0.0000 C   0  0  0  0  0  0  0  0  0  0  0  0
   -3.7500    1.2990    0.0000 C   0  0  0  0  0  0  0  0  0  0  0  0
   -5.2500    1.2990    0.0000 C   0  0  0  0  0  0  0  0  0  0  0  0
   -6.0000    2.5981    0.0000 C   0  0  0  0  0  0  0  0  0  0  0  0
   -7.4918    2.7549    0.0000 N   0  0  0  0  0  0  0  0  0  0  0  0
   -7.8037    4.2221    0.0000 N   0  0  0  0  0  0  0  0  0  0  0  0
   -6.5046    4.9721    0.0000 N   0  0  0  0  0  0  0  0  0  0  0  0
   -5.3899    3.9684    0.0000 N   0  0  0  0  0  0  0  0  0  0  0  0
   -6.0000    0.0000    0.0000 C   0  0  0  0  0  0  0  0  0  0  0  0
   -5.2500   -1.2990    0.0000 N   0  0  0  0  0  0  0  0  0  0  0  0
   -3.7500   -1.2990    0.0000 C   0  0  0  0  0  0  0  0  0  0  0  0
   -3.0000   -2.5981    0.0000 C   0  0  0  0  0  0  0  0  0  0  0  0
   -3.7500   -3.8971    0.0000 C   0  0  0  0  0  0  0  0  0  0  0  0
   -3.0000   -5.1962    0.0000 C   0  0  0  0  0  0  0  0  0  0  0  0
   -1.5000   -5.1962    0.0000 C   0  0  0  0  0  0  0  0  0  0  0  0
   -0.7500   -6.4952    0.0000 C   0  0  0  0  0  0  0  0  0  0  0  0
   -1.5000   -7.7942    0.0000 N   0  0  0  0  0  0  0  0  0  0  0  0
   -0.7500   -9.0933    0.0000 C   0  0  0  0  0  0  0  0  0  0  0  0
   -1.5000  -10.3923    0.0000 C   0  0  0  0  0  0  0  0  0  0  0  0
   -3.0000  -10.3923    0.0000 C   0  0  0  0  0  0  0  0  0  0  0  0
   -3.7500  -11.6913    0.0000 C   0  0  0  0  0  0  0  0  0  0  0  0
   -3.0000  -12.9904    0.0000 C   0  0  0  0  0  0  0  0  0  0  0  0
   -3.7500  -14.2894    0.0000 C   0  0  0  0  0  0  0  0  0  0  0  0
   -3.1399  -15.6597    0.0000 C   0  0  0  0  0  0  0  0  0  0  0  0
   -4.2546  -16.6634    0.0000 S   0  0  0  0  0  0  0  0  0  0  0  0
   -5.5537  -15.9134    0.0000 N   0  0  0  0  0  0  0  0  0  0  0  0
   -5.2418  -14.4462    0.0000 N   0  0  0  0  0  0  0  0  0  0  0  0
   -1.5000  -12.9904    0.0000 C   0  0  0  0  0  0  0  0  0  0  0  0
   -0.7500  -11.6913    0.0000 C   0  0  0  0  0  0  0  0  0  0  0  0
   -0.7500   -3.8971    0.0000 C   0  0  0  0  0  0  0  0  0  0  0  0
   -1.5000   -2.5981    0.0000 C   0  0  0  0  0  0  0  0  0  0  0  0
   -0.7500    1.2990    0.0000 C   0  0  0  0  0  0  0  0  0  0  0  0
    0.7500    1.2990    0.0000 C   0  0  0  0  0  0  0  0  0  0  0  0
  1  2  2  0
  2  3  1  0
  3  4  2  0
  4  5  1  0
  5  6  2  0
  6  7  1  0
  7  8  1  0
  8  9  1  0
  9 10  2  0
 10 11  1  0
 11 12  1  0
  7 13  2  0
 13 14  1  0
 14 15  2  0
 15 16  1  0
 16 17  2  0
 17 18  1  0
 18 19  2  0
 19 20  1  0
 20 21  1  0
 21 22  1  0
 22 23  1  0
 23 24  2  0
 24 25  1  0
 25 26  2  0
 26 27  1  0
 27 28  2  0
 28 29  1  0
 29 30  1  0
 30 31  2  0
 26 32  1  0
 32 33  2  0
 19 34  1  0
 34 35  2  0
  4 36  1  0
 36 37  2  0
 37  1  1  0
 15  5  1  0
 35 16  1  0
 12  8  2  0
 33 23  1  0
 31 27  1  0
M  END
>  <Compound_ID>  (17) 
CHEMBL425155

>  <Active>  (17) 
1

>  <Smiles>  (17) 
c1ccc(-c2cc(-c3nn[nH]n3)cnc2-c2ccc(CNCc3ccc(-c4csnn4)cc3)cc2)cc1

>  <canonical_smi>  (17) 
c1ccc(-c2cc(-c3nn[nH]n3)cnc2-c2ccc(CNCc3ccc(-c4csnn4)cc3)cc2)cc1

>  <Set>  (17) 
G1 active

>  <Set_type>  (17) 
G1

>  <MW>  (17) 
502.61

>  <HBD>  (17) 
2

>  <HBA>  (17) 
7

>  <NRB>  (17) 
8

>  <NR>  (17) 
6

>  <NAR>  (17) 
6

>  <PSA>  (17) 
105.16

>  <Standard Type>  (17) 
nan

>  <Standard Relation>  (17) 
nan

>  <Standard Units>  (17) 
nan

>  <Standard Value>  (17) 
nan

>  <Assay ChEMBL ID>  (17) 
nan

>  <Assay Description>  (17) 
nan

>  <BAO Label>  (17) 
nan

>  <bits>  (17) 
<rdkit.DataStructs.cDataStructs.ExplicitBitVect object at 0x000001A37F9574C0>

>  <Group>  (17) 
G1

$$$$

     RDKit          2D

 28 31  0  0  0  0  0  0  0  0999 V2000
   -1.8373   -5.6601    0.0000 N   0  0  0  0  0  0  0  0  0  0  0  0
   -2.9520   -4.6564    0.0000 C   0  0  0  0  0  0  0  0  0  0  0  0
   -4.3786   -5.1199    0.0000 C   0  0  0  0  0  0  0  0  0  0  0  0
   -4.6904   -6.5871    0.0000 O   0  0  0  0  0  0  0  0  0  0  0  0
   -6.1170   -7.0506    0.0000 C   0  0  0  0  0  0  0  0  0  0  0  0
   -7.2317   -6.0469    0.0000 C   0  0  0  0  0  0  0  0  0  0  0  0
   -8.6583   -6.5105    0.0000 N   0  0  0  0  0  0  0  0  0  0  0  0
   -8.9702   -7.9777    0.0000 C   0  0  0  0  0  0  0  0  0  0  0  0
   -7.8555   -8.9814    0.0000 C   0  0  0  0  0  0  0  0  0  0  0  0
   -8.1673  -10.4486    0.0000 C   0  0  0  0  0  0  0  0  0  0  0  0
   -9.5939  -10.9121    0.0000 C   0  0  0  0  0  0  0  0  0  0  0  0
   -9.9058  -12.3794    0.0000 C   0  0  0  0  0  0  0  0  0  0  0  0
  -11.3324  -12.8429    0.0000 C   0  0  0  0  0  0  0  0  0  0  0  0
  -11.6442  -14.3101    0.0000 C   0  0  0  0  0  0  0  0  0  0  0  0
  -10.5295  -15.3138    0.0000 N   0  0  0  0  0  0  0  0  0  0  0  0
   -9.1029  -14.8503    0.0000 C   0  0  0  0  0  0  0  0  0  0  0  0
   -8.7911  -13.3831    0.0000 C   0  0  0  0  0  0  0  0  0  0  0  0
   -6.4289   -8.5179    0.0000 C   0  0  0  0  0  0  0  0  0  0  0  0
   -2.6401   -3.1891    0.0000 C   0  0  0  0  0  0  0  0  0  0  0  0
   -1.2135   -2.7256    0.0000 C   0  0  0  0  0  0  0  0  0  0  0  0
   -0.0000   -3.6073    0.0000 C   0  0  0  0  0  0  0  0  0  0  0  0
    1.2135   -2.7256    0.0000 N   0  0  0  0  0  0  0  0  0  0  0  0
    0.7500   -1.2990    0.0000 C   0  0  0  0  0  0  0  0  0  0  0  0
    1.5000    0.0000    0.0000 C   0  0  0  0  0  0  0  0  0  0  0  0
    0.7500    1.2990    0.0000 C   0  0  0  0  0  0  0  0  0  0  0  0
   -0.7500    1.2990    0.0000 C   0  0  0  0  0  0  0  0  0  0  0  0
   -1.5000    0.0000    0.0000 C   0  0  0  0  0  0  0  0  0  0  0  0
   -0.7500   -1.2990    0.0000 C   0  0  0  0  0  0  0  0  0  0  0  0
  2  1  1  6
  2  3  1  0
  3  4  1  0
  4  5  1  0
  5  6  2  0
  6  7  1  0
  7  8  2  0
  8  9  1  0
  9 10  1  0
 10 11  2  0
 11 12  1  0
 12 13  2  0
 13 14  1  0
 14 15  2  0
 15 16  1  0
 16 17  2  0
  9 18  2  0
  2 19  1  0
 19 20  1  0
 20 21  2  0
 21 22  1  0
 22 23  1  0
 23 24  2  0
 24 25  1  0
 25 26  2  0
 26 27  1  0
 27 28  2  0
 18  5  1  0
 28 20  1  0
 17 12  1  0
 28 23  1  0
M  END
>  <Compound_ID>  (18) 
CHEMBL383541

>  <Active>  (18) 
1

>  <Smiles>  (18) 
N[C@H](COc1cncc(/C=C/c2ccncc2)c1)Cc1c[nH]c2ccccc12

>  <canonical_smi>  (18) 
N[C@H](COc1cncc(/C=C/c2ccncc2)c1)Cc1c[nH]c2ccccc12

>  <Set>  (18) 
G1 active

>  <Set_type>  (18) 
G1

>  <MW>  (18) 
370.46

>  <HBD>  (18) 
2

>  <HBA>  (18) 
4

>  <NRB>  (18) 
7

>  <NR>  (18) 
4

>  <NAR>  (18) 
4

>  <PSA>  (18) 
76.82

>  <Standard Type>  (18) 
nan

>  <Standard Relation>  (18) 
nan

>  <Standard Units>  (18) 
nan

>  <Standard Value>  (18) 
nan

>  <Assay ChEMBL ID>  (18) 
nan

>  <Assay Description>  (18) 
nan

>  <BAO Label>  (18) 
nan

>  <bits>  (18) 
<rdkit.DataStructs.cDataStructs.ExplicitBitVect object at 0x000001A37F957370>

>  <Group>  (18) 
G1

$$$$

     RDKit          2D

 28 30  0  0  0  0  0  0  0  0999 V2000
   -3.0000   -4.0981    0.0000 O   0  0  0  0  0  0  0  0  0  0  0  0
   -3.0000   -2.5981    0.0000 S   0  0  0  0  0  0  0  0  0  0  0  0
   -3.0000   -1.0981    0.0000 O   0  0  0  0  0  0  0  0  0  0  0  0
   -4.5000   -2.5981    0.0000 N   0  0  0  0  0  0  0  0  0  0  0  0
   -5.2500   -1.2990    0.0000 C   0  0  0  0  0  0  0  0  0  0  0  0
   -6.7500   -1.2990    0.0000 C   0  0  0  0  0  0  0  0  0  0  0  0
   -7.5000    0.0000    0.0000 N   0  0  0  0  0  0  0  0  0  0  0  0
   -9.0000    0.0000    0.0000 C   0  0  0  0  0  0  0  0  0  0  0  0
   -9.7500    1.2990    0.0000 C   0  0  0  0  0  0  0  0  0  0  0  0
  -11.2500    1.2990    0.0000 O   0  0  0  0  0  0  0  0  0  0  0  0
  -12.0000    2.5981    0.0000 C   0  0  0  0  0  0  0  0  0  0  0  0
  -13.5000    2.5981    0.0000 C   0  0  0  0  0  0  0  0  0  0  0  0
  -14.2500    3.8971    0.0000 C   0  0  0  0  0  0  0  0  0  0  0  0
  -15.7500    3.8971    0.0000 C   0  0  0  0  0  0  0  0  0  0  0  0
  -16.5000    2.5981    0.0000 C   0  0  0  0  0  0  0  0  0  0  0  0
  -18.0000    2.5981    0.0000 Cl  0  0  0  0  0  0  0  0  0  0  0  0
  -15.7500    1.2990    0.0000 C   0  0  0  0  0  0  0  0  0  0  0  0
  -14.2500    1.2990    0.0000 C   0  0  0  0  0  0  0  0  0  0  0  0
   -1.5000   -2.5981    0.0000 C   0  0  0  0  0  0  0  0  0  0  0  0
   -0.7500   -3.8971    0.0000 C   0  0  0  0  0  0  0  0  0  0  0  0
    0.7500   -3.8971    0.0000 C   0  0  0  0  0  0  0  0  0  0  0  0
    1.5000   -2.5981    0.0000 C   0  0  0  0  0  0  0  0  0  0  0  0
    0.7500   -1.2990    0.0000 C   0  0  0  0  0  0  0  0  0  0  0  0
    1.5000    0.0000    0.0000 C   0  0  0  0  0  0  0  0  0  0  0  0
    0.7500    1.2990    0.0000 N   0  0  0  0  0  0  0  0  0  0  0  0
   -0.7500    1.2990    0.0000 C   0  0  0  0  0  0  0  0  0  0  0  0
   -1.5000    0.0000    0.0000 C   0  0  0  0  0  0  0  0  0  0  0  0
   -0.7500   -1.2990    0.0000 C   0  0  0  0  0  0  0  0  0  0  0  0
  1  2  2  0
  2  3  2  0
  2  4  1  0
  4  5  1  0
  5  6  1  0
  6  7  1  0
  7  8  1  0
  8  9  1  0
  9 10  1  0
 10 11  1  0
 11 12  1  0
 12 13  2  0
 13 14  1  0
 14 15  2  0
 15 16  1  0
 15 17  1  0
 17 18  2  0
  2 19  1  0
 19 20  2  0
 20 21  1  0
 21 22  2  0
 22 23  1  0
 23 24  2  0
 24 25  1  0
 25 26  2  0
 26 27  1  0
 27 28  2  0
 18 12  1  0
 28 19  1  0
 28 23  1  0
M  END
>  <Compound_ID>  (19) 
CHEMBL227381

>  <Active>  (19) 
1

>  <Smiles>  (19) 
O=S(=O)(NCCNCCOCc1ccc(Cl)cc1)c1cccc2cnccc12

>  <canonical_smi>  (19) 
O=S(=O)(NCCNCCOCc1ccc(Cl)cc1)c1cccc2cnccc12

>  <Set>  (19) 
G1 active

>  <Set_type>  (19) 
G1

>  <MW>  (19) 
419.93

>  <HBD>  (19) 
2

>  <HBA>  (19) 
5

>  <NRB>  (19) 
10

>  <NR>  (19) 
3

>  <NAR>  (19) 
3

>  <PSA>  (19) 
80.32

>  <Standard Type>  (19) 
nan

>  <Standard Relation>  (19) 
nan

>  <Standard Units>  (19) 
nan

>  <Standard Value>  (19) 
nan

>  <Assay ChEMBL ID>  (19) 
nan

>  <Assay Description>  (19) 
nan

>  <BAO Label>  (19) 
nan

>  <bits>  (19) 
<rdkit.DataStructs.cDataStructs.ExplicitBitVect object at 0x000001A37F956F80>

>  <Group>  (19) 
G1

$$$$

     RDKit          2D

 16 18  0  0  0  0  0  0  0  0999 V2000
   -7.8533   -0.1004    0.0000 N   0  0  0  0  0  0  0  0  0  0  0  0
   -6.4268    0.3631    0.0000 C   0  0  0  0  0  0  0  0  0  0  0  0
   -6.1149    1.8303    0.0000 C   0  0  0  0  0  0  0  0  0  0  0  0
   -4.6883    2.2939    0.0000 C   0  0  0  0  0  0  0  0  0  0  0  0
   -3.5736    1.2902    0.0000 N   0  0  0  0  0  0  0  0  0  0  0  0
   -2.1470    1.7537    0.0000 C   0  0  0  0  0  0  0  0  0  0  0  0
   -1.8351    3.2209    0.0000 N   0  0  0  0  0  0  0  0  0  0  0  0
   -0.4086    3.6844    0.0000 C   0  0  0  0  0  0  0  0  0  0  0  0
    0.7062    2.6807    0.0000 N   0  0  0  0  0  0  0  0  0  0  0  0
    0.3943    1.2135    0.0000 C   0  0  0  0  0  0  0  0  0  0  0  0
    1.2760    0.0000    0.0000 N   0  0  0  0  0  0  0  0  0  0  0  0
    0.3943   -1.2135    0.0000 C   0  0  0  0  0  0  0  0  0  0  0  0
   -1.0323   -0.7500    0.0000 N   0  0  0  0  0  0  0  0  0  0  0  0
   -1.0323    0.7500    0.0000 C   0  0  0  0  0  0  0  0  0  0  0  0
   -3.8855   -0.1771    0.0000 C   0  0  0  0  0  0  0  0  0  0  0  0
   -5.3120   -0.6406    0.0000 C   0  0  0  0  0  0  0  0  0  0  0  0
  1  2  1  0
  2  3  1  0
  3  4  1  0
  4  5  1  0
  5  6  1  0
  6  7  2  0
  7  8  1  0
  8  9  2  0
  9 10  1  0
 10 11  1  0
 11 12  1  0
 12 13  2  0
 13 14  1  0
  5 15  1  0
 15 16  1  0
 16  2  1  0
 14  6  1  0
 14 10  2  0
M  END
>  <Compound_ID>  (20) 
CHEMBL261260

>  <Active>  (20) 
1

>  <Smiles>  (20) 
NC1CCN(c2ncnc3[nH]cnc23)CC1

>  <canonical_smi>  (20) 
NC1CCN(c2ncnc3[nH]cnc23)CC1

>  <Set>  (20) 
G1 active

>  <Set_type>  (20) 
G1

>  <MW>  (20) 
218.26

>  <HBD>  (20) 
2

>  <HBA>  (20) 
5

>  <NRB>  (20) 
1

>  <NR>  (20) 
3

>  <NAR>  (20) 
2

>  <PSA>  (20) 
83.72

>  <Standard Type>  (20) 
nan

>  <Standard Relation>  (20) 
nan

>  <Standard Units>  (20) 
nan

>  <Standard Value>  (20) 
nan

>  <Assay ChEMBL ID>  (20) 
nan

>  <Assay Description>  (20) 
nan

>  <BAO Label>  (20) 
nan

>  <bits>  (20) 
<rdkit.DataStructs.cDataStructs.ExplicitBitVect object at 0x000001A37F956F10>

>  <Group>  (20) 
G1

$$$$

     RDKit          2D

 21 23  0  0  0  0  0  0  0  0999 V2000
    3.7500   -3.8971    0.0000 N   0  0  0  0  0  0  0  0  0  0  0  0
    3.0000   -2.5981    0.0000 C   0  0  0  0  0  0  0  0  0  0  0  0
    1.5000   -2.5981    0.0000 C   0  0  0  0  0  0  0  0  0  0  0  0
    0.7500   -1.2990    0.0000 C   0  0  0  0  0  0  0  0  0  0  0  0
    1.5000    0.0000    0.0000 C   0  0  0  0  0  0  0  0  0  0  0  0
    0.7500    1.2990    0.0000 C   0  0  0  0  0  0  0  0  0  0  0  0
   -0.7500    1.2990    0.0000 C   0  0  0  0  0  0  0  0  0  0  0  0
   -1.5000    2.5981    0.0000 Cl  0  0  0  0  0  0  0  0  0  0  0  0
   -1.5000    0.0000    0.0000 C   0  0  0  0  0  0  0  0  0  0  0  0
   -0.7500   -1.2990    0.0000 C   0  0  0  0  0  0  0  0  0  0  0  0
    0.7500   -3.8971    0.0000 C   0  0  0  0  0  0  0  0  0  0  0  0
   -0.7500   -3.8971    0.0000 C   0  0  0  0  0  0  0  0  0  0  0  0
   -1.5000   -5.1962    0.0000 C   0  0  0  0  0  0  0  0  0  0  0  0
   -0.7500   -6.4952    0.0000 C   0  0  0  0  0  0  0  0  0  0  0  0
   -1.5000   -7.7942    0.0000 C   0  0  0  0  0  0  0  0  0  0  0  0
   -0.8899   -9.1645    0.0000 C   0  0  0  0  0  0  0  0  0  0  0  0
   -2.0046  -10.1682    0.0000 N   0  0  0  0  0  0  0  0  0  0  0  0
   -3.3037   -9.4182    0.0000 N   0  0  0  0  0  0  0  0  0  0  0  0
   -2.9918   -7.9510    0.0000 C   0  0  0  0  0  0  0  0  0  0  0  0
    0.7500   -6.4952    0.0000 C   0  0  0  0  0  0  0  0  0  0  0  0
    1.5000   -5.1962    0.0000 C   0  0  0  0  0  0  0  0  0  0  0  0
  1  2  1  0
  3  2  1  1
  3  4  1  0
  4  5  2  0
  5  6  1  0
  6  7  2  0
  7  8  1  0
  7  9  1  0
  9 10  2  0
  3 11  1  0
 11 12  2  0
 12 13  1  0
 13 14  2  0
 14 15  1  0
 15 16  1  0
 16 17  2  0
 17 18  1  0
 18 19  1  0
 14 20  1  0
 20 21  2  0
 10  4  1  0
 21 11  1  0
 19 15  2  0
M  END
>  <Compound_ID>  (21) 
CHEMBL223339

>  <Active>  (21) 
1

>  <Smiles>  (21) 
NC[C@H](c1ccc(Cl)cc1)c1ccc(-c2cn[nH]c2)cc1

>  <canonical_smi>  (21) 
NC[C@H](c1ccc(Cl)cc1)c1ccc(-c2cn[nH]c2)cc1

>  <Set>  (21) 
G1 active

>  <Set_type>  (21) 
G1

>  <MW>  (21) 
297.79

>  <HBD>  (21) 
2

>  <HBA>  (21) 
2

>  <NRB>  (21) 
4

>  <NR>  (21) 
3

>  <NAR>  (21) 
3

>  <PSA>  (21) 
54.7

>  <Standard Type>  (21) 
nan

>  <Standard Relation>  (21) 
nan

>  <Standard Units>  (21) 
nan

>  <Standard Value>  (21) 
nan

>  <Assay ChEMBL ID>  (21) 
nan

>  <Assay Description>  (21) 
nan

>  <BAO Label>  (21) 
nan

>  <bits>  (21) 
<rdkit.DataStructs.cDataStructs.ExplicitBitVect object at 0x000001A37F956E30>

>  <Group>  (21) 
G1

$$$$

     RDKit          2D

 27 29  0  0  0  0  0  0  0  0999 V2000
   -3.0000   -4.0981    0.0000 O   0  0  0  0  0  0  0  0  0  0  0  0
   -3.0000   -2.5981    0.0000 S   0  0  0  0  0  0  0  0  0  0  0  0
   -3.0000   -1.0981    0.0000 O   0  0  0  0  0  0  0  0  0  0  0  0
   -4.5000   -2.5981    0.0000 N   0  0  0  0  0  0  0  0  0  0  0  0
   -5.2500   -1.2990    0.0000 C   0  0  0  0  0  0  0  0  0  0  0  0
   -6.7500   -1.2990    0.0000 C   0  0  0  0  0  0  0  0  0  0  0  0
   -7.5000    0.0000    0.0000 N   0  0  0  0  0  0  0  0  0  0  0  0
   -9.0000    0.0000    0.0000 C   0  0  0  0  0  0  0  0  0  0  0  0
   -9.7500    1.2990    0.0000 C   0  0  0  0  0  0  0  0  0  0  0  0
  -11.2500    1.2990    0.0000 C   0  0  0  0  0  0  0  0  0  0  0  0
  -12.0000    2.5981    0.0000 C   0  0  0  0  0  0  0  0  0  0  0  0
  -11.2500    3.8971    0.0000 C   0  0  0  0  0  0  0  0  0  0  0  0
  -12.0000    5.1962    0.0000 C   0  0  0  0  0  0  0  0  0  0  0  0
  -13.5000    5.1962    0.0000 C   0  0  0  0  0  0  0  0  0  0  0  0
  -14.2500    6.4952    0.0000 Br  0  0  0  0  0  0  0  0  0  0  0  0
  -14.2500    3.8971    0.0000 C   0  0  0  0  0  0  0  0  0  0  0  0
  -13.5000    2.5981    0.0000 C   0  0  0  0  0  0  0  0  0  0  0  0
   -1.5000   -2.5981    0.0000 C   0  0  0  0  0  0  0  0  0  0  0  0
   -0.7500   -3.8971    0.0000 C   0  0  0  0  0  0  0  0  0  0  0  0
    0.7500   -3.8971    0.0000 C   0  0  0  0  0  0  0  0  0  0  0  0
    1.5000   -2.5981    0.0000 C   0  0  0  0  0  0  0  0  0  0  0  0
    0.7500   -1.2990    0.0000 C   0  0  0  0  0  0  0  0  0  0  0  0
    1.5000    0.0000    0.0000 C   0  0  0  0  0  0  0  0  0  0  0  0
    0.7500    1.2990    0.0000 N   0  0  0  0  0  0  0  0  0  0  0  0
   -0.7500    1.2990    0.0000 C   0  0  0  0  0  0  0  0  0  0  0  0
   -1.5000    0.0000    0.0000 C   0  0  0  0  0  0  0  0  0  0  0  0
   -0.7500   -1.2990    0.0000 C   0  0  0  0  0  0  0  0  0  0  0  0
  1  2  2  0
  2  3  2  0
  2  4  1  0
  4  5  1  0
  5  6  1  0
  6  7  1  0
  7  8  1  0
  8  9  1  0
  9 10  2  0
 10 11  1  0
 11 12  2  0
 12 13  1  0
 13 14  2  0
 14 15  1  0
 14 16  1  0
 16 17  2  0
  2 18  1  0
 18 19  2  0
 19 20  1  0
 20 21  2  0
 21 22  1  0
 22 23  2  0
 23 24  1  0
 24 25  2  0
 25 26  1  0
 26 27  2  0
 17 11  1  0
 27 18  1  0
 27 22  1  0
M  END
>  <Compound_ID>  (22) 
CHEMBL104264

>  <Active>  (22) 
1

>  <Smiles>  (22) 
O=S(=O)(NCCNC/C=C/c1ccc(Br)cc1)c1cccc2cnccc12

>  <canonical_smi>  (22) 
O=S(=O)(NCCNC/C=C/c1ccc(Br)cc1)c1cccc2cnccc12

>  <Set>  (22) 
G1 active

>  <Set_type>  (22) 
G1

>  <MW>  (22) 
446.37

>  <HBD>  (22) 
2

>  <HBA>  (22) 
4

>  <NRB>  (22) 
8

>  <NR>  (22) 
3

>  <NAR>  (22) 
3

>  <PSA>  (22) 
71.09

>  <Standard Type>  (22) 
nan

>  <Standard Relation>  (22) 
nan

>  <Standard Units>  (22) 
nan

>  <Standard Value>  (22) 
nan

>  <Assay ChEMBL ID>  (22) 
nan

>  <Assay Description>  (22) 
nan

>  <BAO Label>  (22) 
nan

>  <bits>  (22) 
<rdkit.DataStructs.cDataStructs.ExplicitBitVect object at 0x000001A37F9568F0>

>  <Group>  (22) 
G1

$$$$

     RDKit          2D

 40 46  0  0  0  0  0  0  0  0999 V2000
    3.0000    0.0000    0.0000 C   0  0  0  0  0  0  0  0  0  0  0  0
    1.5000    0.0000    0.0000 C   0  0  0  0  0  0  0  0  0  0  0  0
    0.7500   -1.2990    0.0000 C   0  0  0  0  0  0  0  0  0  0  0  0
   -0.7500   -1.2990    0.0000 C   0  0  0  0  0  0  0  0  0  0  0  0
   -1.5000    0.0000    0.0000 C   0  0  0  0  0  0  0  0  0  0  0  0
   -2.9672    0.3119    0.0000 N   0  0  0  0  0  0  0  0  0  0  0  0
   -3.1240    1.8037    0.0000 C   0  0  0  0  0  0  0  0  0  0  0  0
   -4.4231    2.5537    0.0000 C   0  0  0  0  0  0  0  0  0  0  0  0
   -4.4231    4.0537    0.0000 C   0  0  0  0  0  0  0  0  0  0  0  0
   -5.7221    4.8037    0.0000 C   0  0  0  0  0  0  0  0  0  0  0  0
   -7.0211    4.0537    0.0000 N   0  0  0  0  0  0  0  0  0  0  0  0
   -8.3202    4.8037    0.0000 C   0  0  0  0  0  0  0  0  0  0  0  0
   -8.3202    6.3037    0.0000 C   0  0  0  0  0  0  0  0  0  0  0  0
   -7.0211    7.0537    0.0000 C   0  0  0  0  0  0  0  0  0  0  0  0
   -7.0211    8.5537    0.0000 C   0  0  0  0  0  0  0  0  0  0  0  0
   -8.3202    9.3037    0.0000 C   0  0  0  0  0  0  0  0  0  0  0  0
   -8.3202   10.8037    0.0000 C   0  0  0  0  0  0  0  0  0  0  0  0
   -7.0211   11.5537    0.0000 N   0  0  0  0  0  0  0  0  0  0  0  0
   -7.0211   13.0537    0.0000 C   0  0  0  0  0  0  0  0  0  0  0  0
   -8.3202   13.8037    0.0000 C   0  0  0  0  0  0  0  0  0  0  0  0
   -8.3202   15.3037    0.0000 C   0  0  0  0  0  0  0  0  0  0  0  0
   -9.5337   16.1853    0.0000 N   0  0  0  0  0  0  0  0  0  0  0  0
   -9.0702   17.6119    0.0000 N   0  0  0  0  0  0  0  0  0  0  0  0
   -7.5702   17.6119    0.0000 N   0  0  0  0  0  0  0  0  0  0  0  0
   -7.1066   16.1853    0.0000 N   0  0  0  0  0  0  0  0  0  0  0  0
   -9.6192   13.0537    0.0000 C   0  0  0  0  0  0  0  0  0  0  0  0
   -9.6192   11.5537    0.0000 C   0  0  0  0  0  0  0  0  0  0  0  0
  -10.9182   10.8037    0.0000 C   0  0  0  0  0  0  0  0  0  0  0  0
  -12.2173   11.5537    0.0000 C   0  0  0  0  0  0  0  0  0  0  0  0
  -13.5163   10.8037    0.0000 C   0  0  0  0  0  0  0  0  0  0  0  0
  -13.5163    9.3037    0.0000 C   0  0  0  0  0  0  0  0  0  0  0  0
  -12.2173    8.5537    0.0000 C   0  0  0  0  0  0  0  0  0  0  0  0
  -10.9182    9.3037    0.0000 C   0  0  0  0  0  0  0  0  0  0  0  0
   -9.6192    8.5537    0.0000 C   0  0  0  0  0  0  0  0  0  0  0  0
   -9.6192    7.0537    0.0000 C   0  0  0  0  0  0  0  0  0  0  0  0
   -7.0211    2.5537    0.0000 C   0  0  0  0  0  0  0  0  0  0  0  0
   -5.7221    1.8037    0.0000 C   0  0  0  0  0  0  0  0  0  0  0  0
   -1.7537    2.4138    0.0000 N   0  0  0  0  0  0  0  0  0  0  0  0
   -0.7500    1.2990    0.0000 C   0  0  0  0  0  0  0  0  0  0  0  0
    0.7500    1.2990    0.0000 C   0  0  0  0  0  0  0  0  0  0  0  0
  1  2  1  0
  2  3  2  0
  3  4  1  0
  4  5  2  0
  5  6  1  0
  6  7  1  0
  7  8  1  0
  8  9  1  0
  9 10  1  0
 10 11  1  0
 11 12  1  0
 12 13  1  0
 13 14  2  0
 14 15  1  0
 15 16  2  0
 16 17  1  0
 17 18  2  0
 18 19  1  0
 19 20  2  0
 20 21  1  0
 21 22  1  0
 22 23  2  0
 23 24  1  0
 24 25  1  0
 20 26  1  0
 26 27  2  0
 27 28  1  0
 28 29  2  0
 29 30  1  0
 30 31  2  0
 31 32  1  0
 32 33  2  0
 16 34  1  0
 34 35  2  0
 11 36  1  0
 36 37  1  0
  7 38  2  0
 38 39  1  0
 39 40  2  0
 40  2  1  0
 39  5  1  0
 37  8  1  0
 35 13  1  0
 27 17  1  0
 33 28  1  0
 25 21  2  0
M  END
>  <Compound_ID>  (23) 
CHEMBL367601

>  <Active>  (23) 
1

>  <Smiles>  (23) 
Cc1ccc2[nH]c(C3CCN(Cc4ccc(-c5ncc(-c6nn[nH]n6)cc5-c5ccccc5)cc4)CC3)nc2c1

>  <canonical_smi>  (23) 
Cc1ccc2[nH]c(C3CCN(Cc4ccc(-c5ncc(-c6nn[nH]n6)cc5-c5ccccc5)cc4)CC3)nc2c1

>  <Set>  (23) 
G1 active

>  <Set_type>  (23) 
G1

>  <MW>  (23) 
526.65

>  <HBD>  (23) 
2

>  <HBA>  (23) 
6

>  <NRB>  (23) 
6

>  <NR>  (23) 
7

>  <NAR>  (23) 
6

>  <PSA>  (23) 
99.27

>  <Standard Type>  (23) 
nan

>  <Standard Relation>  (23) 
nan

>  <Standard Units>  (23) 
nan

>  <Standard Value>  (23) 
nan

>  <Assay ChEMBL ID>  (23) 
nan

>  <Assay Description>  (23) 
nan

>  <BAO Label>  (23) 
nan

>  <bits>  (23) 
<rdkit.DataStructs.cDataStructs.ExplicitBitVect object at 0x000001A37F956880>

>  <Group>  (23) 
G1

$$$$

     RDKit          2D

 24 27  0  0  0  0  0  0  0  0999 V2000
   -8.1652   -1.5676    0.0000 N   0  0  0  0  0  0  0  0  0  0  0  0
   -7.8533   -0.1004    0.0000 C   0  0  0  0  0  0  0  0  0  0  0  0
   -8.9681    0.9033    0.0000 C   0  0  0  0  0  0  0  0  0  0  0  0
  -10.3946    0.4398    0.0000 C   0  0  0  0  0  0  0  0  0  0  0  0
  -11.5094    1.4435    0.0000 C   0  0  0  0  0  0  0  0  0  0  0  0
  -12.9359    0.9799    0.0000 C   0  0  0  0  0  0  0  0  0  0  0  0
  -13.2478   -0.4873    0.0000 C   0  0  0  0  0  0  0  0  0  0  0  0
  -12.1331   -1.4910    0.0000 C   0  0  0  0  0  0  0  0  0  0  0  0
  -10.7065   -1.0275    0.0000 C   0  0  0  0  0  0  0  0  0  0  0  0
   -6.4268    0.3631    0.0000 C   0  0  0  0  0  0  0  0  0  0  0  0
   -5.3120   -0.6406    0.0000 C   0  0  0  0  0  0  0  0  0  0  0  0
   -3.8855   -0.1771    0.0000 C   0  0  0  0  0  0  0  0  0  0  0  0
   -3.5736    1.2902    0.0000 C   0  0  0  0  0  0  0  0  0  0  0  0
   -2.1470    1.7537    0.0000 C   0  0  0  0  0  0  0  0  0  0  0  0
   -1.8351    3.2209    0.0000 N   0  0  0  0  0  0  0  0  0  0  0  0
   -0.4086    3.6844    0.0000 C   0  0  0  0  0  0  0  0  0  0  0  0
    0.7062    2.6807    0.0000 N   0  0  0  0  0  0  0  0  0  0  0  0
    0.3943    1.2135    0.0000 C   0  0  0  0  0  0  0  0  0  0  0  0
    1.2760    0.0000    0.0000 N   0  0  0  0  0  0  0  0  0  0  0  0
    0.3943   -1.2135    0.0000 C   0  0  0  0  0  0  0  0  0  0  0  0
   -1.0323   -0.7500    0.0000 N   0  0  0  0  0  0  0  0  0  0  0  0
   -1.0323    0.7500    0.0000 C   0  0  0  0  0  0  0  0  0  0  0  0
   -4.6883    2.2939    0.0000 C   0  0  0  0  0  0  0  0  0  0  0  0
   -6.1149    1.8303    0.0000 C   0  0  0  0  0  0  0  0  0  0  0  0
  1  2  1  0
  2  3  1  0
  3  4  1  0
  4  5  2  0
  5  6  1  0
  6  7  2  0
  7  8  1  0
  8  9  2  0
  2 10  1  0
 10 11  2  0
 11 12  1  0
 12 13  2  0
 13 14  1  0
 14 15  2  0
 15 16  1  0
 16 17  2  0
 17 18  1  0
 18 19  1  0
 19 20  1  0
 20 21  2  0
 21 22  1  0
 13 23  1  0
 23 24  2  0
  9  4  1  0
 24 10  1  0
 22 14  1  0
 22 18  2  0
M  END
>  <Compound_ID>  (24) 
CHEMBL227605

>  <Active>  (24) 
1

>  <Smiles>  (24) 
NC(Cc1ccccc1)c1ccc(-c2ncnc3[nH]cnc23)cc1

>  <canonical_smi>  (24) 
NC(Cc1ccccc1)c1ccc(-c2ncnc3[nH]cnc23)cc1

>  <Set>  (24) 
G1 active

>  <Set_type>  (24) 
G1

>  <MW>  (24) 
315.38

>  <HBD>  (24) 
2

>  <HBA>  (24) 
4

>  <NRB>  (24) 
4

>  <NR>  (24) 
4

>  <NAR>  (24) 
4

>  <PSA>  (24) 
80.48

>  <Standard Type>  (24) 
nan

>  <Standard Relation>  (24) 
nan

>  <Standard Units>  (24) 
nan

>  <Standard Value>  (24) 
nan

>  <Assay ChEMBL ID>  (24) 
nan

>  <Assay Description>  (24) 
nan

>  <BAO Label>  (24) 
nan

>  <bits>  (24) 
<rdkit.DataStructs.cDataStructs.ExplicitBitVect object at 0x000001A37F956810>

>  <Group>  (24) 
G1

$$$$

     RDKit          2D

 34 38  0  0  0  0  0  0  0  0999 V2000
    3.7500   -1.2990    0.0000 C   0  0  0  0  0  0  0  0  0  0  0  0
    3.0000    0.0000    0.0000 S   0  0  0  0  0  0  0  0  0  0  0  0
    1.5000    0.0000    0.0000 C   0  0  0  0  0  0  0  0  0  0  0  0
    0.7500   -1.2990    0.0000 N   0  0  0  0  0  0  0  0  0  0  0  0
   -0.7500   -1.2990    0.0000 C   0  0  0  0  0  0  0  0  0  0  0  0
   -1.5000    0.0000    0.0000 C   0  0  0  0  0  0  0  0  0  0  0  0
   -3.0000    0.0000    0.0000 C   0  0  0  0  0  0  0  0  0  0  0  0
   -3.7500    1.2990    0.0000 C   0  0  0  0  0  0  0  0  0  0  0  0
   -5.2500    1.2990    0.0000 C   0  0  0  0  0  0  0  0  0  0  0  0
   -6.0000    2.5981    0.0000 C   0  0  0  0  0  0  0  0  0  0  0  0
   -7.5000    2.5981    0.0000 C   0  0  0  0  0  0  0  0  0  0  0  0
   -8.2500    1.2990    0.0000 C   0  0  0  0  0  0  0  0  0  0  0  0
   -7.5000    0.0000    0.0000 C   0  0  0  0  0  0  0  0  0  0  0  0
   -6.0000    0.0000    0.0000 C   0  0  0  0  0  0  0  0  0  0  0  0
   -3.0000    2.5981    0.0000 C   0  0  0  0  0  0  0  0  0  0  0  0
   -3.7500    3.8971    0.0000 C   0  0  0  0  0  0  0  0  0  0  0  0
   -3.0000    5.1962    0.0000 C   0  0  0  0  0  0  0  0  0  0  0  0
   -3.7500    6.4952    0.0000 C   0  0  0  0  0  0  0  0  0  0  0  0
   -5.2500    6.4952    0.0000 C   0  0  0  0  0  0  0  0  0  0  0  0
   -6.0000    7.7942    0.0000 C   0  0  0  0  0  0  0  0  0  0  0  0
   -5.2500    9.0933    0.0000 N   0  0  0  0  0  0  0  0  0  0  0  0
   -6.0000   10.3923    0.0000 C   0  0  0  0  0  0  0  0  0  0  0  0
   -5.2500   11.6913    0.0000 C   0  0  0  0  0  0  0  0  0  0  0  0
   -6.0000   12.9904    0.0000 C   0  0  0  0  0  0  0  0  0  0  0  0
   -7.4918   13.1472    0.0000 N   0  0  0  0  0  0  0  0  0  0  0  0
   -7.8037   14.6144    0.0000 N   0  0  0  0  0  0  0  0  0  0  0  0
   -6.5046   15.3644    0.0000 C   0  0  0  0  0  0  0  0  0  0  0  0
   -6.3478   16.8562    0.0000 N   0  0  0  0  0  0  0  0  0  0  0  0
   -5.3899   14.3607    0.0000 S   0  0  0  0  0  0  0  0  0  0  0  0
   -6.0000    5.1962    0.0000 C   0  0  0  0  0  0  0  0  0  0  0  0
   -5.2500    3.8971    0.0000 C   0  0  0  0  0  0  0  0  0  0  0  0
   -1.5000    2.5981    0.0000 N   0  0  0  0  0  0  0  0  0  0  0  0
   -0.7500    1.2990    0.0000 C   0  0  0  0  0  0  0  0  0  0  0  0
    0.7500    1.2990    0.0000 N   0  0  0  0  0  0  0  0  0  0  0  0
  1  2  1  0
  2  3  1  0
  3  4  2  0
  4  5  1  0
  5  6  2  0
  6  7  1  0
  7  8  2  0
  8  9  1  0
  9 10  2  0
 10 11  1  0
 11 12  2  0
 12 13  1  0
 13 14  2  0
  8 15  1  0
 15 16  1  0
 16 17  2  0
 17 18  1  0
 18 19  2  0
 19 20  1  0
 20 21  1  0
 21 22  1  0
 22 23  1  0
 23 24  1  0
 24 25  2  0
 25 26  1  0
 26 27  2  0
 27 28  1  0
 27 29  1  0
 19 30  1  0
 30 31  2  0
 15 32  2  0
 32 33  1  0
 33 34  2  0
 34  3  1  0
 33  6  1  0
 14  9  1  0
 31 16  1  0
 29 24  1  0
M  END
>  <Compound_ID>  (25) 
CHEMBL252455

>  <Active>  (25) 
1

>  <Smiles>  (25) 
CSc1ncc2cc(-c3ccccc3)c(-c3ccc(CNCCc4nnc(N)s4)cc3)nc2n1

>  <canonical_smi>  (25) 
CSc1ncc2cc(-c3ccccc3)c(-c3ccc(CNCCc4nnc(N)s4)cc3)nc2n1

>  <Set>  (25) 
G1 active

>  <Set_type>  (25) 
G1

>  <MW>  (25) 
485.64

>  <HBD>  (25) 
2

>  <HBA>  (25) 
8

>  <NRB>  (25) 
8

>  <NR>  (25) 
5

>  <NAR>  (25) 
5

>  <PSA>  (25) 
102.5

>  <Standard Type>  (25) 
nan

>  <Standard Relation>  (25) 
nan

>  <Standard Units>  (25) 
nan

>  <Standard Value>  (25) 
nan

>  <Assay ChEMBL ID>  (25) 
nan

>  <Assay Description>  (25) 
nan

>  <BAO Label>  (25) 
nan

>  <bits>  (25) 
<rdkit.DataStructs.cDataStructs.ExplicitBitVect object at 0x000001A37F9566C0>

>  <Group>  (25) 
G1

$$$$

     RDKit          2D

 14 15  0  0  0  0  0  0  0  0999 V2000
   -4.5000   -2.5981    0.0000 N   0  0  0  0  0  0  0  0  0  0  0  0
   -3.0000   -2.5981    0.0000 S   0  0  0  0  0  0  0  0  0  0  0  0
   -3.0000   -4.0981    0.0000 O   0  0  0  0  0  0  0  0  0  0  0  0
   -3.0000   -1.0981    0.0000 O   0  0  0  0  0  0  0  0  0  0  0  0
   -1.5000   -2.5981    0.0000 C   0  0  0  0  0  0  0  0  0  0  0  0
   -0.7500   -3.8971    0.0000 C   0  0  0  0  0  0  0  0  0  0  0  0
    0.7500   -3.8971    0.0000 C   0  0  0  0  0  0  0  0  0  0  0  0
    1.5000   -2.5981    0.0000 C   0  0  0  0  0  0  0  0  0  0  0  0
    0.7500   -1.2990    0.0000 C   0  0  0  0  0  0  0  0  0  0  0  0
    1.5000    0.0000    0.0000 C   0  0  0  0  0  0  0  0  0  0  0  0
    0.7500    1.2990    0.0000 N   0  0  0  0  0  0  0  0  0  0  0  0
   -0.7500    1.2990    0.0000 C   0  0  0  0  0  0  0  0  0  0  0  0
   -1.5000    0.0000    0.0000 C   0  0  0  0  0  0  0  0  0  0  0  0
   -0.7500   -1.2990    0.0000 C   0  0  0  0  0  0  0  0  0  0  0  0
  1  2  1  0
  2  3  2  0
  2  4  2  0
  2  5  1  0
  5  6  2  0
  6  7  1  0
  7  8  2  0
  8  9  1  0
  9 10  2  0
 10 11  1  0
 11 12  2  0
 12 13  1  0
 13 14  2  0
 14  5  1  0
 14  9  1  0
M  END
>  <Compound_ID>  (26) 
CHEMBL376726

>  <Active>  (26) 
1

>  <Smiles>  (26) 
NS(=O)(=O)c1cccc2cnccc12

>  <canonical_smi>  (26) 
NS(=O)(=O)c1cccc2cnccc12

>  <Set>  (26) 
G1 active

>  <Set_type>  (26) 
G1

>  <MW>  (26) 
208.24

>  <HBD>  (26) 
1

>  <HBA>  (26) 
3

>  <NRB>  (26) 
1

>  <NR>  (26) 
2

>  <NAR>  (26) 
2

>  <PSA>  (26) 
73.05

>  <Standard Type>  (26) 
nan

>  <Standard Relation>  (26) 
nan

>  <Standard Units>  (26) 
nan

>  <Standard Value>  (26) 
nan

>  <Assay ChEMBL ID>  (26) 
nan

>  <Assay Description>  (26) 
nan

>  <BAO Label>  (26) 
nan

>  <bits>  (26) 
<rdkit.DataStructs.cDataStructs.ExplicitBitVect object at 0x000001A37F956570>

>  <Group>  (26) 
G1

$$$$

     RDKit          2D

 29 33  0  0  0  0  0  0  0  0999 V2000
   -7.8175    0.9250    0.0000 N   0  0  0  0  0  0  0  0  0  0  0  0
   -6.4268    0.3631    0.0000 C   0  0  0  0  0  0  0  0  0  0  0  0
   -7.2216   -0.9090    0.0000 C   0  0  0  0  0  0  0  0  0  0  0  0
   -6.5174   -2.2334    0.0000 O   0  0  0  0  0  0  0  0  0  0  0  0
   -8.7207   -0.8566    0.0000 N   0  0  0  0  0  0  0  0  0  0  0  0
   -9.6442   -2.0386    0.0000 C   0  0  0  0  0  0  0  0  0  0  0  0
  -11.0538   -1.5256    0.0000 C   0  0  0  0  0  0  0  0  0  0  0  0
  -11.0014   -0.0265    0.0000 C   0  0  0  0  0  0  0  0  0  0  0  0
   -9.5595    0.3870    0.0000 C   0  0  0  0  0  0  0  0  0  0  0  0
   -9.0465    1.7965    0.0000 C   0  0  0  0  0  0  0  0  0  0  0  0
   -7.5693    2.0570    0.0000 C   0  0  0  0  0  0  0  0  0  0  0  0
   -7.0562    3.4665    0.0000 C   0  0  0  0  0  0  0  0  0  0  0  0
   -8.0204    4.6156    0.0000 C   0  0  0  0  0  0  0  0  0  0  0  0
   -9.4976    4.3551    0.0000 C   0  0  0  0  0  0  0  0  0  0  0  0
  -10.0107    2.9456    0.0000 C   0  0  0  0  0  0  0  0  0  0  0  0
   -5.3120   -0.6406    0.0000 C   0  0  0  0  0  0  0  0  0  0  0  0
   -3.8855   -0.1771    0.0000 C   0  0  0  0  0  0  0  0  0  0  0  0
   -3.5736    1.2902    0.0000 N   0  0  0  0  0  0  0  0  0  0  0  0
   -2.1470    1.7537    0.0000 C   0  0  0  0  0  0  0  0  0  0  0  0
   -1.8351    3.2209    0.0000 N   0  0  0  0  0  0  0  0  0  0  0  0
   -0.4086    3.6844    0.0000 C   0  0  0  0  0  0  0  0  0  0  0  0
    0.7062    2.6807    0.0000 N   0  0  0  0  0  0  0  0  0  0  0  0
    0.3943    1.2135    0.0000 C   0  0  0  0  0  0  0  0  0  0  0  0
    1.2760    0.0000    0.0000 N   0  0  0  0  0  0  0  0  0  0  0  0
    0.3943   -1.2135    0.0000 C   0  0  0  0  0  0  0  0  0  0  0  0
   -1.0323   -0.7500    0.0000 C   0  0  0  0  0  0  0  0  0  0  0  0
   -1.0323    0.7500    0.0000 C   0  0  0  0  0  0  0  0  0  0  0  0
   -4.6883    2.2939    0.0000 C   0  0  0  0  0  0  0  0  0  0  0  0
   -6.1149    1.8303    0.0000 C   0  0  0  0  0  0  0  0  0  0  0  0
  1  2  1  0
  2  3  1  0
  3  4  2  0
  3  5  1  0
  5  6  1  0
  6  7  1  0
  7  8  1  0
  8  9  1  0
  9 10  1  0
 10 11  2  0
 11 12  1  0
 12 13  2  0
 13 14  1  0
 14 15  2  0
  2 16  1  0
 16 17  1  0
 17 18  1  0
 18 19  1  0
 19 20  2  0
 20 21  1  0
 21 22  2  0
 22 23  1  0
 23 24  1  0
 24 25  1  0
 25 26  2  0
 26 27  1  0
 18 28  1  0
 28 29  1  0
 29  2  1  0
  9  5  1  0
 15 10  1  0
 27 19  1  0
 27 23  2  0
M  END
>  <Compound_ID>  (27) 
CHEMBL605326

>  <Active>  (27) 
1

>  <Smiles>  (27) 
NC1(C(=O)N2CCCC2c2ccccc2)CCN(c2ncnc3[nH]ccc23)CC1

>  <canonical_smi>  (27) 
NC1(C(=O)N2CCCC2c2ccccc2)CCN(c2ncnc3[nH]ccc23)CC1

>  <Set>  (27) 
G1 active

>  <Set_type>  (27) 
G1

>  <MW>  (27) 
390.49

>  <HBD>  (27) 
2

>  <HBA>  (27) 
5

>  <NRB>  (27) 
3

>  <NR>  (27) 
5

>  <NAR>  (27) 
3

>  <PSA>  (27) 
91.14

>  <Standard Type>  (27) 
nan

>  <Standard Relation>  (27) 
nan

>  <Standard Units>  (27) 
nan

>  <Standard Value>  (27) 
nan

>  <Assay ChEMBL ID>  (27) 
nan

>  <Assay Description>  (27) 
nan

>  <BAO Label>  (27) 
nan

>  <bits>  (27) 
<rdkit.DataStructs.cDataStructs.ExplicitBitVect object at 0x000001A37F956500>

>  <Group>  (27) 
G1

$$$$

     RDKit          2D

 25 28  0  0  0  0  0  0  0  0999 V2000
   -3.7548   -2.1855    0.0000 C   0  0  0  0  0  0  0  0  0  0  0  0
   -2.6401   -3.1891    0.0000 C   0  0  0  0  0  0  0  0  0  0  0  0
   -1.2135   -2.7256    0.0000 N   0  0  0  0  0  0  0  0  0  0  0  0
   -0.0000   -3.6073    0.0000 C   0  0  0  0  0  0  0  0  0  0  0  0
   -0.0000   -5.1073    0.0000 C   0  0  0  0  0  0  0  0  0  0  0  0
    1.2135   -5.9890    0.0000 N   0  0  0  0  0  0  0  0  0  0  0  0
    0.7500   -7.4156    0.0000 O   0  0  0  0  0  0  0  0  0  0  0  0
   -0.7500   -7.4156    0.0000 N   0  0  0  0  0  0  0  0  0  0  0  0
   -1.2135   -5.9890    0.0000 C   0  0  0  0  0  0  0  0  0  0  0  0
   -2.6401   -5.5255    0.0000 N   0  0  0  0  0  0  0  0  0  0  0  0
    1.2135   -2.7256    0.0000 N   0  0  0  0  0  0  0  0  0  0  0  0
    0.7500   -1.2990    0.0000 C   0  0  0  0  0  0  0  0  0  0  0  0
    1.5000    0.0000    0.0000 C   0  0  0  0  0  0  0  0  0  0  0  0
    0.7500    1.2990    0.0000 N   0  0  0  0  0  0  0  0  0  0  0  0
   -0.7500    1.2990    0.0000 C   0  0  0  0  0  0  0  0  0  0  0  0
   -1.5000    0.0000    0.0000 C   0  0  0  0  0  0  0  0  0  0  0  0
   -3.0000    0.0000    0.0000 C   0  0  0  0  0  0  0  0  0  0  0  0
   -3.7500    1.2990    0.0000 N   0  0  0  0  0  0  0  0  0  0  0  0
   -5.2500    1.2990    0.0000 C   0  0  0  0  0  0  0  0  0  0  0  0
   -6.0000    2.5981    0.0000 C   0  0  0  0  0  0  0  0  0  0  0  0
   -7.5000    2.5981    0.0000 C   0  0  0  0  0  0  0  0  0  0  0  0
   -8.2500    1.2990    0.0000 N   0  0  0  0  0  0  0  0  0  0  0  0
   -7.5000    0.0000    0.0000 C   0  0  0  0  0  0  0  0  0  0  0  0
   -6.0000    0.0000    0.0000 C   0  0  0  0  0  0  0  0  0  0  0  0
   -0.7500   -1.2990    0.0000 C   0  0  0  0  0  0  0  0  0  0  0  0
  1  2  1  0
  2  3  1  0
  3  4  1  0
  4  5  1  0
  5  6  2  0
  6  7  1  0
  7  8  1  0
  8  9  2  0
  9 10  1  0
  4 11  2  0
 11 12  1  0
 12 13  2  0
 13 14  1  0
 14 15  2  0
 15 16  1  0
 16 17  1  0
 17 18  1  0
 18 19  1  0
 19 20  1  0
 20 21  1  0
 21 22  1  0
 22 23  1  0
 23 24  1  0
 16 25  2  0
 25  3  1  0
  9  5  1  0
 25 12  1  0
 24 19  1  0
M  END
>  <Compound_ID>  (28) 
CHEMBL188434

>  <Active>  (28) 
1

>  <Smiles>  (28) 
CCn1c(-c2nonc2N)nc2cncc(CNC3CCNCC3)c21

>  <canonical_smi>  (28) 
CCn1c(-c2nonc2N)nc2cncc(CNC3CCNCC3)c21

>  <Set>  (28) 
G1 active

>  <Set_type>  (28) 
G1

>  <MW>  (28) 
342.41

>  <HBD>  (28) 
3

>  <HBA>  (28) 
8

>  <NRB>  (28) 
5

>  <NR>  (28) 
4

>  <NAR>  (28) 
3

>  <PSA>  (28) 
119.71

>  <Standard Type>  (28) 
nan

>  <Standard Relation>  (28) 
nan

>  <Standard Units>  (28) 
nan

>  <Standard Value>  (28) 
nan

>  <Assay ChEMBL ID>  (28) 
nan

>  <Assay Description>  (28) 
nan

>  <BAO Label>  (28) 
nan

>  <bits>  (28) 
<rdkit.DataStructs.cDataStructs.ExplicitBitVect object at 0x000001A37F956490>

>  <Group>  (28) 
G1

$$$$

     RDKit          2D

 16 18  0  0  0  0  0  0  0  0999 V2000
   -7.8533   -0.1004    0.0000 N   0  0  0  0  0  0  0  0  0  0  0  0
   -6.4268    0.3631    0.0000 C   0  0  0  0  0  0  0  0  0  0  0  0
   -6.1149    1.8303    0.0000 C   0  0  0  0  0  0  0  0  0  0  0  0
   -4.6883    2.2939    0.0000 C   0  0  0  0  0  0  0  0  0  0  0  0
   -3.5736    1.2902    0.0000 N   0  0  0  0  0  0  0  0  0  0  0  0
   -2.1470    1.7537    0.0000 C   0  0  0  0  0  0  0  0  0  0  0  0
   -1.8351    3.2209    0.0000 N   0  0  0  0  0  0  0  0  0  0  0  0
   -0.4086    3.6844    0.0000 C   0  0  0  0  0  0  0  0  0  0  0  0
    0.7062    2.6807    0.0000 N   0  0  0  0  0  0  0  0  0  0  0  0
    0.3943    1.2135    0.0000 C   0  0  0  0  0  0  0  0  0  0  0  0
    1.2760    0.0000    0.0000 N   0  0  0  0  0  0  0  0  0  0  0  0
    0.3943   -1.2135    0.0000 N   0  0  0  0  0  0  0  0  0  0  0  0
   -1.0323   -0.7500    0.0000 C   0  0  0  0  0  0  0  0  0  0  0  0
   -1.0323    0.7500    0.0000 C   0  0  0  0  0  0  0  0  0  0  0  0
   -3.8855   -0.1771    0.0000 C   0  0  0  0  0  0  0  0  0  0  0  0
   -5.3120   -0.6406    0.0000 C   0  0  0  0  0  0  0  0  0  0  0  0
  1  2  1  0
  2  3  1  0
  3  4  1  0
  4  5  1  0
  5  6  1  0
  6  7  2  0
  7  8  1  0
  8  9  2  0
  9 10  1  0
 10 11  1  0
 11 12  1  0
 12 13  2  0
 13 14  1  0
  5 15  1  0
 15 16  1  0
 16  2  1  0
 14  6  1  0
 14 10  2  0
M  END
>  <Compound_ID>  (29) 
CHEMBL265451

>  <Active>  (29) 
1

>  <Smiles>  (29) 
NC1CCN(c2ncnc3[nH]ncc23)CC1

>  <canonical_smi>  (29) 
NC1CCN(c2ncnc3[nH]ncc23)CC1

>  <Set>  (29) 
G1 active

>  <Set_type>  (29) 
G1

>  <MW>  (29) 
218.26

>  <HBD>  (29) 
2

>  <HBA>  (29) 
5

>  <NRB>  (29) 
1

>  <NR>  (29) 
3

>  <NAR>  (29) 
2

>  <PSA>  (29) 
83.72

>  <Standard Type>  (29) 
nan

>  <Standard Relation>  (29) 
nan

>  <Standard Units>  (29) 
nan

>  <Standard Value>  (29) 
nan

>  <Assay ChEMBL ID>  (29) 
nan

>  <Assay Description>  (29) 
nan

>  <BAO Label>  (29) 
nan

>  <bits>  (29) 
<rdkit.DataStructs.cDataStructs.ExplicitBitVect object at 0x000001A37F9563B0>

>  <Group>  (29) 
G1

$$$$

     RDKit          2D

 16 18  0  0  0  0  0  0  0  0999 V2000
   -7.8533   -0.1004    0.0000 N   0  0  0  0  0  0  0  0  0  0  0  0
   -6.4268    0.3631    0.0000 C   0  0  0  0  0  0  0  0  0  0  0  0
   -6.1149    1.8303    0.0000 C   0  0  0  0  0  0  0  0  0  0  0  0
   -4.6883    2.2939    0.0000 C   0  0  0  0  0  0  0  0  0  0  0  0
   -3.5736    1.2902    0.0000 N   0  0  0  0  0  0  0  0  0  0  0  0
   -2.1470    1.7537    0.0000 C   0  0  0  0  0  0  0  0  0  0  0  0
   -1.8351    3.2209    0.0000 C   0  0  0  0  0  0  0  0  0  0  0  0
   -0.4086    3.6844    0.0000 C   0  0  0  0  0  0  0  0  0  0  0  0
    0.7062    2.6807    0.0000 N   0  0  0  0  0  0  0  0  0  0  0  0
    0.3943    1.2135    0.0000 C   0  0  0  0  0  0  0  0  0  0  0  0
    1.2760    0.0000    0.0000 N   0  0  0  0  0  0  0  0  0  0  0  0
    0.3943   -1.2135    0.0000 C   0  0  0  0  0  0  0  0  0  0  0  0
   -1.0323   -0.7500    0.0000 C   0  0  0  0  0  0  0  0  0  0  0  0
   -1.0323    0.7500    0.0000 C   0  0  0  0  0  0  0  0  0  0  0  0
   -3.8855   -0.1771    0.0000 C   0  0  0  0  0  0  0  0  0  0  0  0
   -5.3120   -0.6406    0.0000 C   0  0  0  0  0  0  0  0  0  0  0  0
  1  2  1  0
  2  3  1  0
  3  4  1  0
  4  5  1  0
  5  6  1  0
  6  7  2  0
  7  8  1  0
  8  9  2  0
  9 10  1  0
 10 11  1  0
 11 12  1  0
 12 13  2  0
 13 14  1  0
  5 15  1  0
 15 16  1  0
 16  2  1  0
 14  6  1  0
 14 10  2  0
M  END
>  <Compound_ID>  (30) 
CHEMBL264965

>  <Active>  (30) 
1

>  <Smiles>  (30) 
NC1CCN(c2ccnc3[nH]ccc23)CC1

>  <canonical_smi>  (30) 
NC1CCN(c2ccnc3[nH]ccc23)CC1

>  <Set>  (30) 
G1 active

>  <Set_type>  (30) 
G1

>  <MW>  (30) 
216.29

>  <HBD>  (30) 
2

>  <HBA>  (30) 
3

>  <NRB>  (30) 
1

>  <NR>  (30) 
3

>  <NAR>  (30) 
2

>  <PSA>  (30) 
57.94

>  <Standard Type>  (30) 
nan

>  <Standard Relation>  (30) 
nan

>  <Standard Units>  (30) 
nan

>  <Standard Value>  (30) 
nan

>  <Assay ChEMBL ID>  (30) 
nan

>  <Assay Description>  (30) 
nan

>  <BAO Label>  (30) 
nan

>  <bits>  (30) 
<rdkit.DataStructs.cDataStructs.ExplicitBitVect object at 0x000001A37F956340>

>  <Group>  (30) 
G1

$$$$

     RDKit          2D

 34 37  0  0  0  0  0  0  0  0999 V2000
   -3.7548   -2.1855    0.0000 C   0  0  0  0  0  0  0  0  0  0  0  0
   -2.6401   -3.1891    0.0000 C   0  0  0  0  0  0  0  0  0  0  0  0
   -1.2135   -2.7256    0.0000 N   0  0  0  0  0  0  0  0  0  0  0  0
   -0.0000   -3.6073    0.0000 C   0  0  0  0  0  0  0  0  0  0  0  0
   -0.0000   -5.1073    0.0000 C   0  0  0  0  0  0  0  0  0  0  0  0
    1.2135   -5.9890    0.0000 N   0  0  0  0  0  0  0  0  0  0  0  0
    0.7500   -7.4156    0.0000 O   0  0  0  0  0  0  0  0  0  0  0  0
   -0.7500   -7.4156    0.0000 N   0  0  0  0  0  0  0  0  0  0  0  0
   -1.2135   -5.9890    0.0000 C   0  0  0  0  0  0  0  0  0  0  0  0
   -2.6401   -5.5255    0.0000 N   0  0  0  0  0  0  0  0  0  0  0  0
    1.2135   -2.7256    0.0000 N   0  0  0  0  0  0  0  0  0  0  0  0
    0.7500   -1.2990    0.0000 C   0  0  0  0  0  0  0  0  0  0  0  0
    1.5000    0.0000    0.0000 C   0  0  0  0  0  0  0  0  0  0  0  0
    3.0000    0.0000    0.0000 C   0  0  0  0  0  0  0  0  0  0  0  0
    4.5000    0.0000    0.0000 C   0  0  0  0  0  0  0  0  0  0  0  0
    6.0000    0.0000    0.0000 C   0  0  0  0  0  0  0  0  0  0  0  0
    6.0000   -1.5000    0.0000 C   0  0  0  0  0  0  0  0  0  0  0  0
    6.0000    1.5000    0.0000 C   0  0  0  0  0  0  0  0  0  0  0  0
    7.5000    0.0000    0.0000 O   0  0  0  0  0  0  0  0  0  0  0  0
    0.7500    1.2990    0.0000 N   0  0  0  0  0  0  0  0  0  0  0  0
   -0.7500    1.2990    0.0000 C   0  0  0  0  0  0  0  0  0  0  0  0
   -1.5000    2.5981    0.0000 O   0  0  0  0  0  0  0  0  0  0  0  0
   -0.7500    3.8971    0.0000 C   0  0  0  0  0  0  0  0  0  0  0  0
   -1.5000    5.1962    0.0000 C   0  0  0  0  0  0  0  0  0  0  0  0
   -3.0000    5.1962    0.0000 N   0  0  0  0  0  0  0  0  0  0  0  0
   -0.7500    6.4952    0.0000 C   0  0  0  0  0  0  0  0  0  0  0  0
   -1.5000    7.7942    0.0000 C   0  0  0  0  0  0  0  0  0  0  0  0
   -0.7500    9.0933    0.0000 C   0  0  0  0  0  0  0  0  0  0  0  0
   -1.5000   10.3923    0.0000 C   0  0  0  0  0  0  0  0  0  0  0  0
   -3.0000   10.3923    0.0000 C   0  0  0  0  0  0  0  0  0  0  0  0
   -3.7500    9.0933    0.0000 C   0  0  0  0  0  0  0  0  0  0  0  0
   -3.0000    7.7942    0.0000 C   0  0  0  0  0  0  0  0  0  0  0  0
   -1.5000    0.0000    0.0000 C   0  0  0  0  0  0  0  0  0  0  0  0
   -0.7500   -1.2990    0.0000 C   0  0  0  0  0  0  0  0  0  0  0  0
  1  2  1  0
  2  3  1  0
  3  4  1  0
  4  5  1  0
  5  6  2  0
  6  7  1  0
  7  8  1  0
  8  9  2  0
  9 10  1  0
  4 11  2  0
 11 12  1  0
 12 13  2  0
 13 14  1  0
 14 15  3  0
 15 16  1  0
 16 17  1  0
 16 18  1  0
 16 19  1  0
 13 20  1  0
 20 21  2  0
 21 22  1  0
 22 23  1  0
 23 24  1  0
 24 25  1  6
 24 26  1  0
 26 27  1  0
 27 28  2  0
 28 29  1  0
 29 30  2  0
 30 31  1  0
 31 32  2  0
 21 33  1  0
 33 34  2  0
 34  3  1  0
  9  5  1  0
 34 12  1  0
 32 27  1  0
M  END
>  <Compound_ID>  (31) 
CHEMBL1098938

>  <Active>  (31) 
1

>  <Smiles>  (31) 
CCn1c(-c2nonc2N)nc2c(C#CC(C)(C)O)nc(OC[C@H](N)Cc3ccccc3)cc21

>  <canonical_smi>  (31) 
CCn1c(-c2nonc2N)nc2c(C#CC(C)(C)O)nc(OC[C@H](N)Cc3ccccc3)cc21

>  <Set>  (31) 
G2 active

>  <Set_type>  (31) 
Train

>  <MW>  (31) 
461.53

>  <HBD>  (31) 
3

>  <HBA>  (31) 
9

>  <NRB>  (31) 
7

>  <NR>  (31) 
4

>  <NAR>  (31) 
4

>  <PSA>  (31) 
151.13

>  <Standard Type>  (31) 
nan

>  <Standard Relation>  (31) 
nan

>  <Standard Units>  (31) 
nan

>  <Standard Value>  (31) 
nan

>  <Assay ChEMBL ID>  (31) 
nan

>  <Assay Description>  (31) 
nan

>  <BAO Label>  (31) 
nan

>  <bits>  (31) 
<rdkit.DataStructs.cDataStructs.ExplicitBitVect object at 0x000001A37F9562D0>

>  <Group>  (31) 
G1

$$$$

     RDKit          2D

 25 28  0  0  0  0  0  0  0  0999 V2000
   -8.0263    2.4104    0.0000 N   0  0  0  0  0  0  0  0  0  0  0  0
   -7.8175    0.9250    0.0000 C   0  0  0  0  0  0  0  0  0  0  0  0
   -6.4268    0.3631    0.0000 C   0  0  0  0  0  0  0  0  0  0  0  0
   -7.2216   -0.9090    0.0000 C   0  0  0  0  0  0  0  0  0  0  0  0
   -8.7207   -0.8566    0.0000 C   0  0  0  0  0  0  0  0  0  0  0  0
   -9.4249    0.4678    0.0000 C   0  0  0  0  0  0  0  0  0  0  0  0
  -10.9240    0.5202    0.0000 C   0  0  0  0  0  0  0  0  0  0  0  0
  -11.7189   -0.7519    0.0000 C   0  0  0  0  0  0  0  0  0  0  0  0
  -13.2180   -0.6996    0.0000 Cl  0  0  0  0  0  0  0  0  0  0  0  0
  -11.0147   -2.0763    0.0000 C   0  0  0  0  0  0  0  0  0  0  0  0
   -9.5156   -2.1287    0.0000 C   0  0  0  0  0  0  0  0  0  0  0  0
   -5.3120   -0.6406    0.0000 C   0  0  0  0  0  0  0  0  0  0  0  0
   -3.8855   -0.1771    0.0000 C   0  0  0  0  0  0  0  0  0  0  0  0
   -3.5736    1.2902    0.0000 N   0  0  0  0  0  0  0  0  0  0  0  0
   -2.1470    1.7537    0.0000 C   0  0  0  0  0  0  0  0  0  0  0  0
   -1.8351    3.2209    0.0000 N   0  0  0  0  0  0  0  0  0  0  0  0
   -0.4086    3.6844    0.0000 C   0  0  0  0  0  0  0  0  0  0  0  0
    0.7062    2.6807    0.0000 N   0  0  0  0  0  0  0  0  0  0  0  0
    0.3943    1.2135    0.0000 C   0  0  0  0  0  0  0  0  0  0  0  0
    1.2760    0.0000    0.0000 N   0  0  0  0  0  0  0  0  0  0  0  0
    0.3943   -1.2135    0.0000 C   0  0  0  0  0  0  0  0  0  0  0  0
   -1.0323   -0.7500    0.0000 N   0  0  0  0  0  0  0  0  0  0  0  0
   -1.0323    0.7500    0.0000 C   0  0  0  0  0  0  0  0  0  0  0  0
   -4.6883    2.2939    0.0000 C   0  0  0  0  0  0  0  0  0  0  0  0
   -6.1149    1.8303    0.0000 C   0  0  0  0  0  0  0  0  0  0  0  0
  1  2  1  0
  2  3  1  0
  3  4  1  0
  4  5  1  0
  5  6  2  0
  6  7  1  0
  7  8  2  0
  8  9  1  0
  8 10  1  0
 10 11  2  0
  3 12  1  0
 12 13  1  0
 13 14  1  0
 14 15  1  0
 15 16  2  0
 16 17  1  0
 17 18  2  0
 18 19  1  0
 19 20  1  0
 20 21  1  0
 21 22  2  0
 22 23  1  0
 14 24  1  0
 24 25  1  0
 25  3  1  0
 11  5  1  0
 23 15  1  0
 23 19  2  0
M  END
>  <Compound_ID>  (32) 
CHEMBL409503

>  <Active>  (32) 
1

>  <Smiles>  (32) 
NCC1(Cc2ccc(Cl)cc2)CCN(c2ncnc3[nH]cnc23)CC1

>  <canonical_smi>  (32) 
NCC1(Cc2ccc(Cl)cc2)CCN(c2ncnc3[nH]cnc23)CC1

>  <Set>  (32) 
G2 active

>  <Set_type>  (32) 
Train

>  <MW>  (32) 
356.86

>  <HBD>  (32) 
2

>  <HBA>  (32) 
5

>  <NRB>  (32) 
4

>  <NR>  (32) 
4

>  <NAR>  (32) 
3

>  <PSA>  (32) 
83.72

>  <Standard Type>  (32) 
nan

>  <Standard Relation>  (32) 
nan

>  <Standard Units>  (32) 
nan

>  <Standard Value>  (32) 
nan

>  <Assay ChEMBL ID>  (32) 
nan

>  <Assay Description>  (32) 
nan

>  <BAO Label>  (32) 
nan

>  <bits>  (32) 
<rdkit.DataStructs.cDataStructs.ExplicitBitVect object at 0x000001A37F9561F0>

>  <Group>  (32) 
G1

$$$$

     RDKit          2D

 28 31  0  0  0  0  0  0  0  0999 V2000
    2.1156  -11.4947    0.0000 N   0  0  0  0  0  0  0  0  0  0  0  0
    1.5055  -10.1243    0.0000 C   0  0  0  0  0  0  0  0  0  0  0  0
    0.0137   -9.9676    0.0000 C   0  0  0  0  0  0  0  0  0  0  0  0
   -0.8680  -11.1811    0.0000 C   0  0  0  0  0  0  0  0  0  0  0  0
   -2.3597  -11.0243    0.0000 C   0  0  0  0  0  0  0  0  0  0  0  0
   -2.9699   -9.6540    0.0000 C   0  0  0  0  0  0  0  0  0  0  0  0
   -2.0882   -8.4404    0.0000 C   0  0  0  0  0  0  0  0  0  0  0  0
   -2.6983   -7.0701    0.0000 C   0  0  0  0  0  0  0  0  0  0  0  0
   -4.1655   -6.7583    0.0000 C   0  0  0  0  0  0  0  0  0  0  0  0
   -4.3223   -5.2665    0.0000 N   0  0  0  0  0  0  0  0  0  0  0  0
   -2.9520   -4.6564    0.0000 C   0  0  0  0  0  0  0  0  0  0  0  0
   -2.6401   -3.1891    0.0000 C   0  0  0  0  0  0  0  0  0  0  0  0
   -1.2135   -2.7256    0.0000 C   0  0  0  0  0  0  0  0  0  0  0  0
   -0.0000   -3.6073    0.0000 C   0  0  0  0  0  0  0  0  0  0  0  0
    0.0000   -5.1073    0.0000 O   0  0  0  0  0  0  0  0  0  0  0  0
    1.2135   -2.7256    0.0000 N   0  0  0  0  0  0  0  0  0  0  0  0
    0.7500   -1.2990    0.0000 C   0  0  0  0  0  0  0  0  0  0  0  0
    1.5000    0.0000    0.0000 C   0  0  0  0  0  0  0  0  0  0  0  0
    0.7500    1.2990    0.0000 C   0  0  0  0  0  0  0  0  0  0  0  0
   -0.7500    1.2990    0.0000 C   0  0  0  0  0  0  0  0  0  0  0  0
   -1.5000    2.5981    0.0000 N   0  0  0  0  0  0  0  0  0  0  0  0
   -0.7500    3.8971    0.0000 C   0  0  0  0  0  0  0  0  0  0  0  0
   -1.5000    5.1962    0.0000 N   0  0  0  0  0  0  0  0  0  0  0  0
    0.7500    3.8971    0.0000 O   0  0  0  0  0  0  0  0  0  0  0  0
   -1.5000    0.0000    0.0000 C   0  0  0  0  0  0  0  0  0  0  0  0
   -0.7500   -1.2990    0.0000 C   0  0  0  0  0  0  0  0  0  0  0  0
   -1.9483   -5.7711    0.0000 C   0  0  0  0  0  0  0  0  0  0  0  0
   -0.5964   -8.5972    0.0000 C   0  0  0  0  0  0  0  0  0  0  0  0
  1  2  1  0
  2  3  1  0
  3  4  2  0
  4  5  1  0
  5  6  2  0
  6  7  1  0
  7  8  1  0
  8  9  2  0
  9 10  1  0
 10 11  1  0
 11 12  1  0
 12 13  2  0
 13 14  1  0
 14 15  2  0
 14 16  1  0
 16 17  1  0
 17 18  2  0
 18 19  1  0
 19 20  2  0
 20 21  1  0
 21 22  1  0
 22 23  1  0
 22 24  2  0
 20 25  1  0
 25 26  2  0
 11 27  2  0
  7 28  2  0
 28  3  1  0
 27  8  1  0
 26 13  1  0
 26 17  1  0
M  END
>  <Compound_ID>  (33) 
CHEMBL228652

>  <Active>  (33) 
1

>  <Smiles>  (33) 
NCc1cccc(-c2c[nH]c(/C=C3\C(=O)Nc4ccc(NC(N)=O)cc43)c2)c1

>  <canonical_smi>  (33) 
NCc1cccc(-c2c[nH]c(/C=C3\C(=O)Nc4ccc(NC(N)=O)cc43)c2)c1

>  <Set>  (33) 
G2 active

>  <Set_type>  (33) 
Train

>  <MW>  (33) 
373.42

>  <HBD>  (33) 
5

>  <HBA>  (33) 
3

>  <NRB>  (33) 
4

>  <NR>  (33) 
4

>  <NAR>  (33) 
3

>  <PSA>  (33) 
126.03

>  <Standard Type>  (33) 
nan

>  <Standard Relation>  (33) 
nan

>  <Standard Units>  (33) 
nan

>  <Standard Value>  (33) 
nan

>  <Assay ChEMBL ID>  (33) 
nan

>  <Assay Description>  (33) 
nan

>  <BAO Label>  (33) 
nan

>  <bits>  (33) 
<rdkit.DataStructs.cDataStructs.ExplicitBitVect object at 0x000001A37F956110>

>  <Group>  (33) 
G1

$$$$

     RDKit          2D

 31 34  0  0  0  0  0  0  0  0999 V2000
   -3.7548   -2.1855    0.0000 C   0  0  0  0  0  0  0  0  0  0  0  0
   -2.6401   -3.1891    0.0000 C   0  0  0  0  0  0  0  0  0  0  0  0
   -1.2135   -2.7256    0.0000 C   0  0  0  0  0  0  0  0  0  0  0  0
   -0.0000   -3.6073    0.0000 C   0  0  0  0  0  0  0  0  0  0  0  0
    0.0000   -5.1073    0.0000 O   0  0  0  0  0  0  0  0  0  0  0  0
    1.2135   -2.7256    0.0000 N   0  0  0  0  0  0  0  0  0  0  0  0
    0.7500   -1.2990    0.0000 C   0  0  0  0  0  0  0  0  0  0  0  0
    1.5000    0.0000    0.0000 C   0  0  0  0  0  0  0  0  0  0  0  0
    0.7500    1.2990    0.0000 C   0  0  0  0  0  0  0  0  0  0  0  0
   -0.7500    1.2990    0.0000 C   0  0  0  0  0  0  0  0  0  0  0  0
   -1.5000    2.5981    0.0000 N   0  0  0  0  0  0  0  0  0  0  0  0
   -0.7500    3.8971    0.0000 C   0  0  0  0  0  0  0  0  0  0  0  0
   -1.5000    5.1962    0.0000 N   0  0  0  0  0  0  0  0  0  0  0  0
    0.7500    3.8971    0.0000 O   0  0  0  0  0  0  0  0  0  0  0  0
   -1.5000    0.0000    0.0000 C   0  0  0  0  0  0  0  0  0  0  0  0
   -0.7500   -1.2990    0.0000 C   0  0  0  0  0  0  0  0  0  0  0  0
   -2.9520   -4.6564    0.0000 C   0  0  0  0  0  0  0  0  0  0  0  0
   -1.9483   -5.7711    0.0000 C   0  0  0  0  0  0  0  0  0  0  0  0
   -2.6983   -7.0701    0.0000 C   0  0  0  0  0  0  0  0  0  0  0  0
   -2.0882   -8.4404    0.0000 C   0  0  0  0  0  0  0  0  0  0  0  0
   -2.9699   -9.6540    0.0000 N   0  0  0  0  0  0  0  0  0  0  0  0
   -2.3597  -11.0243    0.0000 C   0  0  0  0  0  0  0  0  0  0  0  0
   -0.8680  -11.1811    0.0000 O   0  0  0  0  0  0  0  0  0  0  0  0
   -3.2414  -12.2378    0.0000 C   0  0  0  0  0  0  0  0  0  0  0  0
   -4.7332  -12.0810    0.0000 C   0  0  0  0  0  0  0  0  0  0  0  0
   -5.6149  -13.2945    0.0000 C   0  0  0  0  0  0  0  0  0  0  0  0
   -5.0048  -14.6649    0.0000 N   0  0  0  0  0  0  0  0  0  0  0  0
   -3.5130  -14.8217    0.0000 C   0  0  0  0  0  0  0  0  0  0  0  0
   -2.6313  -13.6081    0.0000 C   0  0  0  0  0  0  0  0  0  0  0  0
   -4.1655   -6.7583    0.0000 C   0  0  0  0  0  0  0  0  0  0  0  0
   -4.3223   -5.2665    0.0000 N   0  0  0  0  0  0  0  0  0  0  0  0
  1  2  1  0
  2  3  2  0
  3  4  1  0
  4  5  2  0
  4  6  1  0
  6  7  1  0
  7  8  2  0
  8  9  1  0
  9 10  2  0
 10 11  1  0
 11 12  1  0
 12 13  1  0
 12 14  2  0
 10 15  1  0
 15 16  2  0
  2 17  1  0
 17 18  2  0
 18 19  1  0
 19 20  1  0
 20 21  1  0
 21 22  1  0
 22 23  2  0
 22 24  1  0
 24 25  2  0
 25 26  1  0
 26 27  2  0
 27 28  1  0
 28 29  2  0
 19 30  2  0
 30 31  1  0
 16  3  1  0
 31 17  1  0
 16  7  1  0
 29 24  1  0
M  END
>  <Compound_ID>  (34) 
CHEMBL228756

>  <Active>  (34) 
1

>  <Smiles>  (34) 
C/C(=C1/C(=O)Nc2ccc(NC(N)=O)cc21)c1cc(CNC(=O)c2ccncc2)c[nH]1

>  <canonical_smi>  (34) 
C/C(=C1/C(=O)Nc2ccc(NC(N)=O)cc21)c1cc(CNC(=O)c2ccncc2)c[nH]1

>  <Set>  (34) 
G2 active

>  <Set_type>  (34) 
Train

>  <MW>  (34) 
416.44

>  <HBD>  (34) 
5

>  <HBA>  (34) 
4

>  <NRB>  (34) 
5

>  <NR>  (34) 
4

>  <NAR>  (34) 
3

>  <PSA>  (34) 
142.0

>  <Standard Type>  (34) 
nan

>  <Standard Relation>  (34) 
nan

>  <Standard Units>  (34) 
nan

>  <Standard Value>  (34) 
nan

>  <Assay ChEMBL ID>  (34) 
nan

>  <Assay Description>  (34) 
nan

>  <BAO Label>  (34) 
nan

>  <bits>  (34) 
<rdkit.DataStructs.cDataStructs.ExplicitBitVect object at 0x000001A37F956030>

>  <Group>  (34) 
G1

$$$$

     RDKit          2D

 27 31  0  0  0  0  0  0  0  0999 V2000
   -2.7395   -3.7189    0.0000 N   0  0  0  0  0  0  0  0  0  0  0  0
   -3.0000   -5.1962    0.0000 C   0  0  0  0  0  0  0  0  0  0  0  0
   -1.5000   -5.1962    0.0000 C   0  0  0  0  0  0  0  0  0  0  0  0
   -0.7500   -3.8971    0.0000 C   0  0  0  0  0  0  0  0  0  0  0  0
    0.7500   -3.8971    0.0000 C   0  0  0  0  0  0  0  0  0  0  0  0
    1.5000   -2.5981    0.0000 C   0  0  0  0  0  0  0  0  0  0  0  0
    0.7500   -1.2990    0.0000 C   0  0  0  0  0  0  0  0  0  0  0  0
    1.5000    0.0000    0.0000 C   0  0  0  0  0  0  0  0  0  0  0  0
    0.7500    1.2990    0.0000 C   0  0  0  0  0  0  0  0  0  0  0  0
   -0.7500    1.2990    0.0000 C   0  0  0  0  0  0  0  0  0  0  0  0
   -1.5000    0.0000    0.0000 C   0  0  0  0  0  0  0  0  0  0  0  0
   -0.7500   -1.2990    0.0000 C   0  0  0  0  0  0  0  0  0  0  0  0
   -1.5000   -2.5981    0.0000 C   0  0  0  0  0  0  0  0  0  0  0  0
   -2.7395   -6.6734    0.0000 C   0  0  0  0  0  0  0  0  0  0  0  0
   -3.8886   -7.6375    0.0000 C   0  0  0  0  0  0  0  0  0  0  0  0
   -5.2981   -7.1245    0.0000 N   0  0  0  0  0  0  0  0  0  0  0  0
   -6.4472   -8.0887    0.0000 C   0  0  0  0  0  0  0  0  0  0  0  0
   -7.8567   -7.5757    0.0000 N   0  0  0  0  0  0  0  0  0  0  0  0
   -9.0058   -8.5398    0.0000 C   0  0  0  0  0  0  0  0  0  0  0  0
   -8.7453  -10.0171    0.0000 N   0  0  0  0  0  0  0  0  0  0  0  0
   -7.3358  -10.5301    0.0000 C   0  0  0  0  0  0  0  0  0  0  0  0
   -6.7739  -11.9209    0.0000 N   0  0  0  0  0  0  0  0  0  0  0  0
   -5.2775  -11.8162    0.0000 C   0  0  0  0  0  0  0  0  0  0  0  0
   -4.9147  -10.3608    0.0000 C   0  0  0  0  0  0  0  0  0  0  0  0
   -6.1867   -9.5659    0.0000 C   0  0  0  0  0  0  0  0  0  0  0  0
   -5.5586   -5.6473    0.0000 C   0  0  0  0  0  0  0  0  0  0  0  0
   -4.4095   -4.6831    0.0000 C   0  0  0  0  0  0  0  0  0  0  0  0
  1  2  1  0
  2  3  1  0
  3  4  1  0
  4  5  2  0
  5  6  1  0
  6  7  2  0
  7  8  1  0
  8  9  2  0
  9 10  1  0
 10 11  2  0
 11 12  1  0
 12 13  2  0
  2 14  1  0
 14 15  1  0
 15 16  1  0
 16 17  1  0
 17 18  2  0
 18 19  1  0
 19 20  2  0
 20 21  1  0
 21 22  1  0
 22 23  1  0
 23 24  2  0
 24 25  1  0
 16 26  1  0
 26 27  1  0
 27  2  1  0
 13  4  1  0
 25 17  1  0
 12  7  1  0
 25 21  2  0
M  END
>  <Compound_ID>  (35) 
CHEMBL603882

>  <Active>  (35) 
1

>  <Smiles>  (35) 
NC1(Cc2ccc3ccccc3c2)CCN(c2ncnc3[nH]ccc23)CC1

>  <canonical_smi>  (35) 
NC1(Cc2ccc3ccccc3c2)CCN(c2ncnc3[nH]ccc23)CC1

>  <Set>  (35) 
G2 active

>  <Set_type>  (35) 
Train

>  <MW>  (35) 
357.46

>  <HBD>  (35) 
2

>  <HBA>  (35) 
4

>  <NRB>  (35) 
3

>  <NR>  (35) 
5

>  <NAR>  (35) 
4

>  <PSA>  (35) 
70.83

>  <Standard Type>  (35) 
nan

>  <Standard Relation>  (35) 
nan

>  <Standard Units>  (35) 
nan

>  <Standard Value>  (35) 
nan

>  <Assay ChEMBL ID>  (35) 
nan

>  <Assay Description>  (35) 
nan

>  <BAO Label>  (35) 
nan

>  <bits>  (35) 
<rdkit.DataStructs.cDataStructs.ExplicitBitVect object at 0x000001A37F955FC0>

>  <Group>  (35) 
G1

$$$$

     RDKit          2D

 39 44  0  0  0  0  0  0  0  0999 V2000
   -9.9786  -11.0813    0.0000 C   0  0  0  0  0  0  0  0  0  0  0  0
  -10.8603   -9.8678    0.0000 C   0  0  0  0  0  0  0  0  0  0  0  0
  -12.3603   -9.8678    0.0000 O   0  0  0  0  0  0  0  0  0  0  0  0
  -12.8238   -8.4412    0.0000 C   0  0  0  0  0  0  0  0  0  0  0  0
  -11.6103   -7.5595    0.0000 C   0  0  0  0  0  0  0  0  0  0  0  0
  -10.3968   -8.4412    0.0000 C   0  0  0  0  0  0  0  0  0  0  0  0
   -8.9702   -7.9777    0.0000 C   0  0  0  0  0  0  0  0  0  0  0  0
   -7.8555   -8.9814    0.0000 N   0  0  0  0  0  0  0  0  0  0  0  0
   -6.4289   -8.5179    0.0000 C   0  0  0  0  0  0  0  0  0  0  0  0
   -5.3142   -9.5216    0.0000 N   0  0  0  0  0  0  0  0  0  0  0  0
   -6.1170   -7.0506    0.0000 C   0  0  0  0  0  0  0  0  0  0  0  0
   -4.6904   -6.5871    0.0000 O   0  0  0  0  0  0  0  0  0  0  0  0
   -4.3786   -5.1199    0.0000 C   0  0  0  0  0  0  0  0  0  0  0  0
   -2.9520   -4.6564    0.0000 C   0  0  0  0  0  0  0  0  0  0  0  0
   -1.8373   -5.6601    0.0000 N   0  0  0  0  0  0  0  0  0  0  0  0
   -2.6401   -3.1891    0.0000 C   0  0  0  0  0  0  0  0  0  0  0  0
   -1.2135   -2.7256    0.0000 C   0  0  0  0  0  0  0  0  0  0  0  0
   -0.0000   -3.6073    0.0000 C   0  0  0  0  0  0  0  0  0  0  0  0
    0.0000   -5.1073    0.0000 C   0  0  0  0  0  0  0  0  0  0  0  0
    0.0000   -6.6073    0.0000 N   0  0  0  0  0  0  0  0  0  0  0  0
    1.2135   -2.7256    0.0000 N   0  0  0  0  0  0  0  0  0  0  0  0
    0.7500   -1.2990    0.0000 C   0  0  0  0  0  0  0  0  0  0  0  0
    1.5000    0.0000    0.0000 C   0  0  0  0  0  0  0  0  0  0  0  0
    0.7500    1.2990    0.0000 C   0  0  0  0  0  0  0  0  0  0  0  0
   -0.7500    1.2990    0.0000 C   0  0  0  0  0  0  0  0  0  0  0  0
   -1.5000    0.0000    0.0000 C   0  0  0  0  0  0  0  0  0  0  0  0
   -0.7500   -1.2990    0.0000 C   0  0  0  0  0  0  0  0  0  0  0  0
   -7.2317   -6.0469    0.0000 C   0  0  0  0  0  0  0  0  0  0  0  0
   -8.6583   -6.5105    0.0000 C   0  0  0  0  0  0  0  0  0  0  0  0
   -9.7730   -5.5068    0.0000 C   0  0  0  0  0  0  0  0  0  0  0  0
  -11.1996   -5.9703    0.0000 C   0  0  0  0  0  0  0  0  0  0  0  0
  -12.3143   -4.9666    0.0000 N   0  0  0  0  0  0  0  0  0  0  0  0
  -12.0025   -3.4994    0.0000 C   0  0  0  0  0  0  0  0  0  0  0  0
  -12.8841   -2.2859    0.0000 N   0  0  0  0  0  0  0  0  0  0  0  0
  -12.0025   -1.0723    0.0000 N   0  0  0  0  0  0  0  0  0  0  0  0
  -10.5759   -1.5359    0.0000 C   0  0  0  0  0  0  0  0  0  0  0  0
   -9.3624   -0.6542    0.0000 C   0  0  0  0  0  0  0  0  0  0  0  0
  -10.5759   -3.0359    0.0000 C   0  0  0  0  0  0  0  0  0  0  0  0
   -9.4612   -4.0396    0.0000 N   0  0  0  0  0  0  0  0  0  0  0  0
  1  2  1  0
  2  3  1  0
  3  4  1  0
  4  5  2  0
  5  6  1  0
  6  7  1  0
  7  8  2  0
  8  9  1  0
  9 10  1  0
  9 11  2  0
 11 12  1  0
 12 13  1  0
 13 14  1  0
 14 15  1  6
 14 16  1  0
 16 17  1  0
 17 18  2  0
 18 19  1  0
 19 20  3  0
 18 21  1  0
 21 22  1  0
 22 23  2  0
 23 24  1  0
 24 25  2  0
 25 26  1  0
 26 27  2  0
 11 28  1  0
 28 29  2  0
 29 30  1  0
 30 31  2  0
 31 32  1  0
 32 33  2  0
 33 34  1  0
 34 35  1  0
 35 36  2  0
 36 37  1  0
 36 38  1  0
 38 39  2  0
  6  2  2  0
 29  7  1  0
 39 30  1  0
 27 17  1  0
 38 33  1  0
 27 22  1  0
M  END
>  <Compound_ID>  (36) 
CHEMBL605410

>  <Active>  (36) 
1

>  <Smiles>  (36) 
Cc1occc1-c1nc(N)c(OC[C@@H](N)Cc2c(C#N)[nH]c3ccccc23)cc1-c1cnc2[nH]nc(C)c2n1

>  <canonical_smi>  (36) 
Cc1occc1-c1nc(N)c(OC[C@@H](N)Cc2c(C#N)[nH]c3ccccc23)cc1-c1cnc2[nH]nc(C)c2n1

>  <Set>  (36) 
G2 active

>  <Set_type>  (36) 
Train

>  <MW>  (36) 
519.57

>  <HBD>  (36) 
4

>  <HBA>  (36) 
9

>  <NRB>  (36) 
7

>  <NR>  (36) 
6

>  <NAR>  (36) 
6

>  <PSA>  (36) 
181.34

>  <Standard Type>  (36) 
nan

>  <Standard Relation>  (36) 
nan

>  <Standard Units>  (36) 
nan

>  <Standard Value>  (36) 
nan

>  <Assay ChEMBL ID>  (36) 
nan

>  <Assay Description>  (36) 
nan

>  <BAO Label>  (36) 
nan

>  <bits>  (36) 
<rdkit.DataStructs.cDataStructs.ExplicitBitVect object at 0x000001A37F957DF0>

>  <Group>  (36) 
G1

$$$$

     RDKit          2D

 42 46  0  0  0  0  0  0  0  0999 V2000
   14.6109    2.9142    0.0000 C   0  0  0  0  0  0  0  0  0  0  0  0
   13.3309    2.1320    0.0000 C   0  0  0  0  0  0  0  0  0  0  0  0
   14.3235    1.0073    0.0000 C   0  0  0  0  0  0  0  0  0  0  0  0
   12.3957    0.9593    0.0000 C   0  0  0  0  0  0  0  0  0  0  0  0
   10.9125    1.1828    0.0000 C   0  0  0  0  0  0  0  0  0  0  0  0
   10.3644    2.5791    0.0000 C   0  0  0  0  0  0  0  0  0  0  0  0
   11.2997    3.7519    0.0000 N   0  0  0  0  0  0  0  0  0  0  0  0
   10.7517    5.1482    0.0000 C   0  0  0  0  0  0  0  0  0  0  0  0
   11.6869    6.3209    0.0000 C   0  0  0  0  0  0  0  0  0  0  0  0
   11.1389    7.7172    0.0000 C   0  0  0  0  0  0  0  0  0  0  0  0
    9.6556    7.9408    0.0000 C   0  0  0  0  0  0  0  0  0  0  0  0
    9.1076    9.3371    0.0000 O   0  0  0  0  0  0  0  0  0  0  0  0
    8.7204    6.7681    0.0000 C   0  0  0  0  0  0  0  0  0  0  0  0
    7.2372    6.9916    0.0000 C   0  0  0  0  0  0  0  0  0  0  0  0
    6.6892    8.3879    0.0000 O   0  0  0  0  0  0  0  0  0  0  0  0
    6.3019    5.8189    0.0000 C   0  0  0  0  0  0  0  0  0  0  0  0
    4.8187    6.0424    0.0000 C   0  0  0  0  0  0  0  0  0  0  0  0
    3.8835    4.8697    0.0000 C   0  0  0  0  0  0  0  0  0  0  0  0
    4.4315    3.4734    0.0000 C   0  0  0  0  0  0  0  0  0  0  0  0
    3.4962    2.3006    0.0000 C   0  0  0  0  0  0  0  0  0  0  0  0
    4.0442    0.9043    0.0000 O   0  0  0  0  0  0  0  0  0  0  0  0
    2.0130    2.5242    0.0000 N   0  0  0  0  0  0  0  0  0  0  0  0
    1.0777    1.3515    0.0000 C   0  0  0  0  0  0  0  0  0  0  0  0
    1.7286    0.0000    0.0000 C   0  0  0  0  0  0  0  0  0  0  0  0
    1.0777   -1.3515    0.0000 C   0  0  0  0  0  0  0  0  0  0  0  0
   -0.3846   -1.6852    0.0000 C   0  0  0  0  0  0  0  0  0  0  0  0
   -1.5574   -0.7500    0.0000 N   0  0  0  0  0  0  0  0  0  0  0  0
   -1.5574    0.7500    0.0000 C   0  0  0  0  0  0  0  0  0  0  0  0
   -0.3846    1.6852    0.0000 C   0  0  0  0  0  0  0  0  0  0  0  0
   -0.7184    3.1476    0.0000 N   0  0  0  0  0  0  0  0  0  0  0  0
   -2.1518    3.5898    0.0000 C   0  0  0  0  0  0  0  0  0  0  0  0
   -3.2514    2.5695    0.0000 O   0  0  0  0  0  0  0  0  0  0  0  0
   -2.4856    5.0522    0.0000 C   0  0  0  0  0  0  0  0  0  0  0  0
   -1.3860    6.0724    0.0000 C   0  0  0  0  0  0  0  0  0  0  0  0
   -1.7198    7.5348    0.0000 C   0  0  0  0  0  0  0  0  0  0  0  0
   -3.1531    7.9769    0.0000 N   0  0  0  0  0  0  0  0  0  0  0  0
   -4.2527    6.9567    0.0000 C   0  0  0  0  0  0  0  0  0  0  0  0
   -3.9189    5.4943    0.0000 C   0  0  0  0  0  0  0  0  0  0  0  0
    5.9147    3.2498    0.0000 C   0  0  0  0  0  0  0  0  0  0  0  0
    6.8499    4.4226    0.0000 C   0  0  0  0  0  0  0  0  0  0  0  0
    9.2684    5.3718    0.0000 C   0  0  0  0  0  0  0  0  0  0  0  0
   12.7829    3.5283    0.0000 C   0  0  0  0  0  0  0  0  0  0  0  0
  1  2  1  0
  2  3  1  0
  2  4  1  0
  4  5  1  0
  5  6  1  0
  6  7  1  0
  7  8  1  0
  8  9  2  0
  9 10  1  0
 10 11  2  0
 11 12  1  0
 11 13  1  0
 13 14  1  0
 14 15  2  0
 14 16  1  0
 16 17  2  0
 17 18  1  0
 18 19  2  0
 19 20  1  0
 20 21  2  0
 20 22  1  0
 23 22  1  6
 23 24  1  0
 24 25  1  0
 25 26  1  0
 26 27  1  0
 27 28  1  0
 28 29  1  0
 29 30  1  1
 30 31  1  0
 31 32  2  0
 31 33  1  0
 33 34  2  0
 34 35  1  0
 35 36  2  0
 36 37  1  0
 37 38  2  0
 19 39  1  0
 39 40  2  0
 13 41  2  0
  7 42  1  0
 42  2  1  0
 41  8  1  0
 40 16  1  0
 29 23  1  0
 38 33  1  0
M  END
>  <Compound_ID>  (37) 
CHEMBL534916

>  <Active>  (37) 
1

>  <Smiles>  (37) 
CC1(C)CCCN(c2ccc(O)c(C(=O)c3ccc(C(=O)N[C@@H]4CCCNC[C@H]4NC(=O)c4ccncc4)cc3)c2)C1

>  <canonical_smi>  (37) 
CC1(C)CCCN(c2ccc(O)c(C(=O)c3ccc(C(=O)N[C@@H]4CCCNC[C@H]4NC(=O)c4ccncc4)cc3)c2)C1

>  <Set>  (37) 
G2 active

>  <Set_type>  (37) 
Train

>  <MW>  (37) 
569.71

>  <HBD>  (37) 
4

>  <HBA>  (37) 
7

>  <NRB>  (37) 
7

>  <NR>  (37) 
5

>  <NAR>  (37) 
3

>  <PSA>  (37) 
123.66

>  <Standard Type>  (37) 
nan

>  <Standard Relation>  (37) 
nan

>  <Standard Units>  (37) 
nan

>  <Standard Value>  (37) 
nan

>  <Assay ChEMBL ID>  (37) 
nan

>  <Assay Description>  (37) 
nan

>  <BAO Label>  (37) 
nan

>  <bits>  (37) 
<rdkit.DataStructs.cDataStructs.ExplicitBitVect object at 0x000001A37F957D80>

>  <Group>  (37) 
G1

$$$$

     RDKit          2D

 31 34  0  0  0  0  0  0  0  0999 V2000
   -3.7548   -2.1855    0.0000 C   0  0  0  0  0  0  0  0  0  0  0  0
   -2.6401   -3.1891    0.0000 C   0  0  0  0  0  0  0  0  0  0  0  0
   -1.2135   -2.7256    0.0000 N   0  0  0  0  0  0  0  0  0  0  0  0
   -0.0000   -3.6073    0.0000 C   0  0  0  0  0  0  0  0  0  0  0  0
   -0.0000   -5.1073    0.0000 C   0  0  0  0  0  0  0  0  0  0  0  0
    1.2135   -5.9890    0.0000 N   0  0  0  0  0  0  0  0  0  0  0  0
    0.7500   -7.4156    0.0000 O   0  0  0  0  0  0  0  0  0  0  0  0
   -0.7500   -7.4156    0.0000 N   0  0  0  0  0  0  0  0  0  0  0  0
   -1.2135   -5.9890    0.0000 C   0  0  0  0  0  0  0  0  0  0  0  0
   -2.6401   -5.5255    0.0000 N   0  0  0  0  0  0  0  0  0  0  0  0
    1.2135   -2.7256    0.0000 N   0  0  0  0  0  0  0  0  0  0  0  0
    0.7500   -1.2990    0.0000 C   0  0  0  0  0  0  0  0  0  0  0  0
    1.5000    0.0000    0.0000 C   0  0  0  0  0  0  0  0  0  0  0  0
    3.0000    0.0000    0.0000 C   0  0  0  0  0  0  0  0  0  0  0  0
    4.5000    0.0000    0.0000 C   0  0  0  0  0  0  0  0  0  0  0  0
    6.0000    0.0000    0.0000 C   0  0  0  0  0  0  0  0  0  0  0  0
    6.0000   -1.5000    0.0000 C   0  0  0  0  0  0  0  0  0  0  0  0
    6.0000    1.5000    0.0000 C   0  0  0  0  0  0  0  0  0  0  0  0
    7.5000    0.0000    0.0000 O   0  0  0  0  0  0  0  0  0  0  0  0
    0.7500    1.2990    0.0000 N   0  0  0  0  0  0  0  0  0  0  0  0
   -0.7500    1.2990    0.0000 C   0  0  0  0  0  0  0  0  0  0  0  0
   -1.5000    0.0000    0.0000 C   0  0  0  0  0  0  0  0  0  0  0  0
   -3.0000    0.0000    0.0000 O   0  0  0  0  0  0  0  0  0  0  0  0
   -3.7500    1.2990    0.0000 C   0  0  0  0  0  0  0  0  0  0  0  0
   -5.2500    1.2990    0.0000 C   0  0  0  0  0  0  0  0  0  0  0  0
   -6.0000    2.5981    0.0000 C   0  0  0  0  0  0  0  0  0  0  0  0
   -7.5000    2.5981    0.0000 C   0  0  0  0  0  0  0  0  0  0  0  0
   -8.2500    1.2990    0.0000 N   0  0  0  0  0  0  0  0  0  0  0  0
   -7.5000    0.0000    0.0000 C   0  0  0  0  0  0  0  0  0  0  0  0
   -6.0000    0.0000    0.0000 C   0  0  0  0  0  0  0  0  0  0  0  0
   -0.7500   -1.2990    0.0000 C   0  0  0  0  0  0  0  0  0  0  0  0
  1  2  1  0
  2  3  1  0
  3  4  1  0
  4  5  1  0
  5  6  2  0
  6  7  1  0
  7  8  1  0
  8  9  2  0
  9 10  1  0
  4 11  2  0
 11 12  1  0
 12 13  2  0
 13 14  1  0
 14 15  3  0
 15 16  1  0
 16 17  1  0
 16 18  1  0
 16 19  1  0
 13 20  1  0
 20 21  2  0
 21 22  1  0
 22 23  1  0
 23 24  1  0
 24 25  1  0
 25 26  1  0
 26 27  1  0
 27 28  1  0
 28 29  1  0
 29 30  1  0
 22 31  2  0
 31  3  1  0
  9  5  1  0
 31 12  1  0
 30 25  1  0
M  END
>  <Compound_ID>  (38) 
CHEMBL521658

>  <Active>  (38) 
1

>  <Smiles>  (38) 
CCn1c(-c2nonc2N)nc2c(C#CC(C)(C)O)ncc(OCC3CCNCC3)c21

>  <canonical_smi>  (38) 
CCn1c(-c2nonc2N)nc2c(C#CC(C)(C)O)ncc(OCC3CCNCC3)c21

>  <Set>  (38) 
G2 active

>  <Set_type>  (38) 
Train

>  <MW>  (38) 
425.49

>  <HBD>  (38) 
3

>  <HBA>  (38) 
9

>  <NRB>  (38) 
5

>  <NR>  (38) 
4

>  <NAR>  (38) 
3

>  <PSA>  (38) 
137.14

>  <Standard Type>  (38) 
nan

>  <Standard Relation>  (38) 
nan

>  <Standard Units>  (38) 
nan

>  <Standard Value>  (38) 
nan

>  <Assay ChEMBL ID>  (38) 
nan

>  <Assay Description>  (38) 
nan

>  <BAO Label>  (38) 
nan

>  <bits>  (38) 
<rdkit.DataStructs.cDataStructs.ExplicitBitVect object at 0x000001A37F957D10>

>  <Group>  (38) 
G1

$$$$

     RDKit          2D

 24 27  0  0  0  0  0  0  0  0999 V2000
   -8.1652   -1.5676    0.0000 N   0  0  0  0  0  0  0  0  0  0  0  0
   -7.8533   -0.1004    0.0000 C   0  0  0  0  0  0  0  0  0  0  0  0
   -8.9681    0.9033    0.0000 C   0  0  0  0  0  0  0  0  0  0  0  0
   -8.6562    2.3705    0.0000 C   0  0  0  0  0  0  0  0  0  0  0  0
   -9.7709    3.3742    0.0000 C   0  0  0  0  0  0  0  0  0  0  0  0
  -11.1975    2.9107    0.0000 C   0  0  0  0  0  0  0  0  0  0  0  0
  -12.3122    3.9144    0.0000 Cl  0  0  0  0  0  0  0  0  0  0  0  0
  -11.5094    1.4435    0.0000 C   0  0  0  0  0  0  0  0  0  0  0  0
  -10.3946    0.4398    0.0000 C   0  0  0  0  0  0  0  0  0  0  0  0
   -6.4268    0.3631    0.0000 C   0  0  0  0  0  0  0  0  0  0  0  0
   -5.3120   -0.6406    0.0000 C   0  0  0  0  0  0  0  0  0  0  0  0
   -3.8855   -0.1771    0.0000 C   0  0  0  0  0  0  0  0  0  0  0  0
   -3.5736    1.2902    0.0000 C   0  0  0  0  0  0  0  0  0  0  0  0
   -2.1470    1.7537    0.0000 C   0  0  0  0  0  0  0  0  0  0  0  0
   -1.8351    3.2209    0.0000 N   0  0  0  0  0  0  0  0  0  0  0  0
   -0.4086    3.6844    0.0000 C   0  0  0  0  0  0  0  0  0  0  0  0
    0.7062    2.6807    0.0000 N   0  0  0  0  0  0  0  0  0  0  0  0
    0.3943    1.2135    0.0000 C   0  0  0  0  0  0  0  0  0  0  0  0
    1.2760    0.0000    0.0000 N   0  0  0  0  0  0  0  0  0  0  0  0
    0.3943   -1.2135    0.0000 C   0  0  0  0  0  0  0  0  0  0  0  0
   -1.0323   -0.7500    0.0000 N   0  0  0  0  0  0  0  0  0  0  0  0
   -1.0323    0.7500    0.0000 C   0  0  0  0  0  0  0  0  0  0  0  0
   -4.6883    2.2939    0.0000 C   0  0  0  0  0  0  0  0  0  0  0  0
   -6.1149    1.8303    0.0000 C   0  0  0  0  0  0  0  0  0  0  0  0
  1  2  1  0
  2  3  1  0
  3  4  2  0
  4  5  1  0
  5  6  2  0
  6  7  1  0
  6  8  1  0
  8  9  2  0
  2 10  1  0
 10 11  2  0
 11 12  1  0
 12 13  2  0
 13 14  1  0
 14 15  2  0
 15 16  1  0
 16 17  2  0
 17 18  1  0
 18 19  1  0
 19 20  1  0
 20 21  2  0
 21 22  1  0
 13 23  1  0
 23 24  2  0
  9  3  1  0
 24 10  1  0
 22 14  1  0
 22 18  2  0
M  END
>  <Compound_ID>  (39) 
CHEMBL226712

>  <Active>  (39) 
1

>  <Smiles>  (39) 
NC(c1ccc(Cl)cc1)c1ccc(-c2ncnc3[nH]cnc23)cc1

>  <canonical_smi>  (39) 
NC(c1ccc(Cl)cc1)c1ccc(-c2ncnc3[nH]cnc23)cc1

>  <Set>  (39) 
G2 active

>  <Set_type>  (39) 
Train

>  <MW>  (39) 
335.8

>  <HBD>  (39) 
2

>  <HBA>  (39) 
4

>  <NRB>  (39) 
3

>  <NR>  (39) 
4

>  <NAR>  (39) 
4

>  <PSA>  (39) 
80.48

>  <Standard Type>  (39) 
nan

>  <Standard Relation>  (39) 
nan

>  <Standard Units>  (39) 
nan

>  <Standard Value>  (39) 
nan

>  <Assay ChEMBL ID>  (39) 
nan

>  <Assay Description>  (39) 
nan

>  <BAO Label>  (39) 
nan

>  <bits>  (39) 
<rdkit.DataStructs.cDataStructs.ExplicitBitVect object at 0x000001A37F957C30>

>  <Group>  (39) 
G1

$$$$

     RDKit          2D

 31 34  0  0  0  0  0  0  0  0999 V2000
    5.2500   -1.2990    0.0000 N   0  0  0  0  0  0  0  0  0  0  0  0
    3.7500   -1.2990    0.0000 C   0  0  0  0  0  0  0  0  0  0  0  0
    3.0000   -2.5981    0.0000 O   0  0  0  0  0  0  0  0  0  0  0  0
    3.0000    0.0000    0.0000 N   0  0  0  0  0  0  0  0  0  0  0  0
    1.5000    0.0000    0.0000 C   0  0  0  0  0  0  0  0  0  0  0  0
    0.7500   -1.2990    0.0000 C   0  0  0  0  0  0  0  0  0  0  0  0
   -0.7500   -1.2990    0.0000 C   0  0  0  0  0  0  0  0  0  0  0  0
   -1.5000    0.0000    0.0000 C   0  0  0  0  0  0  0  0  0  0  0  0
   -0.7500    1.2990    0.0000 C   0  0  0  0  0  0  0  0  0  0  0  0
    0.7500    1.2990    0.0000 C   0  0  0  0  0  0  0  0  0  0  0  0
   -1.7537    2.4138    0.0000 C   0  0  0  0  0  0  0  0  0  0  0  0
   -1.4418    3.8810    0.0000 C   0  0  0  0  0  0  0  0  0  0  0  0
   -2.5565    4.8847    0.0000 C   0  0  0  0  0  0  0  0  0  0  0  0
   -4.0238    4.5728    0.0000 C   0  0  0  0  0  0  0  0  0  0  0  0
   -4.7738    5.8718    0.0000 C   0  0  0  0  0  0  0  0  0  0  0  0
   -6.2655    6.0286    0.0000 C   0  0  0  0  0  0  0  0  0  0  0  0
   -7.1472    4.8151    0.0000 O   0  0  0  0  0  0  0  0  0  0  0  0
   -6.8757    7.3990    0.0000 N   0  0  0  0  0  0  0  0  0  0  0  0
   -8.3674    7.5557    0.0000 C   0  0  0  0  0  0  0  0  0  0  0  0
   -8.9775    8.9261    0.0000 C   0  0  0  0  0  0  0  0  0  0  0  0
  -10.4693    9.0829    0.0000 N   0  0  0  0  0  0  0  0  0  0  0  0
  -11.0794   10.4532    0.0000 C   0  0  0  0  0  0  0  0  0  0  0  0
  -12.5712   10.6100    0.0000 C   0  0  0  0  0  0  0  0  0  0  0  0
  -13.4529    9.3964    0.0000 C   0  0  0  0  0  0  0  0  0  0  0  0
  -12.8428    8.0261    0.0000 C   0  0  0  0  0  0  0  0  0  0  0  0
  -11.3510    7.8693    0.0000 C   0  0  0  0  0  0  0  0  0  0  0  0
   -3.7701    6.9866    0.0000 C   0  0  0  0  0  0  0  0  0  0  0  0
   -2.3998    6.3765    0.0000 N   0  0  0  0  0  0  0  0  0  0  0  0
   -3.1240    1.8037    0.0000 C   0  0  0  0  0  0  0  0  0  0  0  0
   -4.4231    2.5537    0.0000 O   0  0  0  0  0  0  0  0  0  0  0  0
   -2.9672    0.3119    0.0000 N   0  0  0  0  0  0  0  0  0  0  0  0
  1  2  1  0
  2  3  2  0
  2  4  1  0
  4  5  1  0
  5  6  2  0
  6  7  1  0
  7  8  2  0
  8  9  1  0
  9 10  2  0
  9 11  1  0
 11 12  2  0
 12 13  1  0
 13 14  2  0
 14 15  1  0
 15 16  1  0
 16 17  2  0
 16 18  1  0
 18 19  1  0
 19 20  1  0
 20 21  1  0
 21 22  1  0
 22 23  1  0
 23 24  1  0
 24 25  1  0
 25 26  1  0
 15 27  2  0
 27 28  1  0
 11 29  1  0
 29 30  2  0
 29 31  1  0
 10  5  1  0
 28 13  1  0
 31  8  1  0
 26 21  1  0
M  END
>  <Compound_ID>  (40) 
CHEMBL228701

>  <Active>  (40) 
1

>  <Smiles>  (40) 
NC(=O)Nc1ccc2c(c1)/C(=C/c1cc(C(=O)NCCN3CCCCC3)c[nH]1)C(=O)N2

>  <canonical_smi>  (40) 
NC(=O)Nc1ccc2c(c1)/C(=C/c1cc(C(=O)NCCN3CCCCC3)c[nH]1)C(=O)N2

>  <Set>  (40) 
G2 active

>  <Set_type>  (40) 
Train

>  <MW>  (40) 
422.49

>  <HBD>  (40) 
5

>  <HBA>  (40) 
4

>  <NRB>  (40) 
6

>  <NR>  (40) 
4

>  <NAR>  (40) 
2

>  <PSA>  (40) 
132.35

>  <Standard Type>  (40) 
nan

>  <Standard Relation>  (40) 
nan

>  <Standard Units>  (40) 
nan

>  <Standard Value>  (40) 
nan

>  <Assay ChEMBL ID>  (40) 
nan

>  <Assay Description>  (40) 
nan

>  <BAO Label>  (40) 
nan

>  <bits>  (40) 
<rdkit.DataStructs.cDataStructs.ExplicitBitVect object at 0x000001A37F957BC0>

>  <Group>  (40) 
G1

$$$$

     RDKit          2D

 41 47  0  0  0  0  0  0  0  0999 V2000
    3.0000    0.0000    0.0000 O   0  0  0  0  0  0  0  0  0  0  0  0
    1.5000    0.0000    0.0000 C   0  0  0  0  0  0  0  0  0  0  0  0
    0.7500   -1.2990    0.0000 N   0  0  0  0  0  0  0  0  0  0  0  0
   -0.7500   -1.2990    0.0000 C   0  0  0  0  0  0  0  0  0  0  0  0
   -1.5000    0.0000    0.0000 C   0  0  0  0  0  0  0  0  0  0  0  0
   -0.7500    1.2990    0.0000 C   0  0  0  0  0  0  0  0  0  0  0  0
   -1.5000    2.5981    0.0000 N   0  0  0  0  0  0  0  0  0  0  0  0
   -0.7500    3.8971    0.0000 C   0  0  0  0  0  0  0  0  0  0  0  0
   -1.5000    5.1962    0.0000 C   0  0  0  0  0  0  0  0  0  0  0  0
   -0.7500    6.4952    0.0000 C   0  0  0  0  0  0  0  0  0  0  0  0
   -1.5000    7.7942    0.0000 C   0  0  0  0  0  0  0  0  0  0  0  0
   -3.0000    7.7942    0.0000 C   0  0  0  0  0  0  0  0  0  0  0  0
   -3.7500    9.0933    0.0000 C   0  0  0  0  0  0  0  0  0  0  0  0
   -3.0000   10.3923    0.0000 N   0  0  0  0  0  0  0  0  0  0  0  0
   -1.5000   10.3923    0.0000 C   0  0  0  0  0  0  0  0  0  0  0  0
   -0.7500   11.6913    0.0000 C   0  0  0  0  0  0  0  0  0  0  0  0
   -1.5000   12.9904    0.0000 C   0  0  0  0  0  0  0  0  0  0  0  0
   -0.7500   14.2894    0.0000 C   0  0  0  0  0  0  0  0  0  0  0  0
   -1.3601   15.6597    0.0000 N   0  0  0  0  0  0  0  0  0  0  0  0
   -0.2454   16.6634    0.0000 N   0  0  0  0  0  0  0  0  0  0  0  0
    1.0537   15.9134    0.0000 C   0  0  0  0  0  0  0  0  0  0  0  0
    2.4240   16.5235    0.0000 C   0  0  0  0  0  0  0  0  0  0  0  0
    3.6375   15.6419    0.0000 C   0  0  0  0  0  0  0  0  0  0  0  0
    5.0078   16.2520    0.0000 C   0  0  0  0  0  0  0  0  0  0  0  0
    5.1646   17.7437    0.0000 C   0  0  0  0  0  0  0  0  0  0  0  0
    3.9511   18.6254    0.0000 C   0  0  0  0  0  0  0  0  0  0  0  0
    2.5808   18.0153    0.0000 N   0  0  0  0  0  0  0  0  0  0  0  0
    0.7418   14.4462    0.0000 N   0  0  0  0  0  0  0  0  0  0  0  0
   -3.0000   12.9904    0.0000 C   0  0  0  0  0  0  0  0  0  0  0  0
   -3.7500   11.6913    0.0000 C   0  0  0  0  0  0  0  0  0  0  0  0
   -3.7500    6.4952    0.0000 C   0  0  0  0  0  0  0  0  0  0  0  0
   -3.0000    5.1962    0.0000 C   0  0  0  0  0  0  0  0  0  0  0  0
    0.7500    3.8971    0.0000 C   0  0  0  0  0  0  0  0  0  0  0  0
    1.5000    5.1962    0.0000 C   0  0  0  0  0  0  0  0  0  0  0  0
    3.0000    5.1962    0.0000 C   0  0  0  0  0  0  0  0  0  0  0  0
    3.7500    6.4952    0.0000 C   0  0  0  0  0  0  0  0  0  0  0  0
    3.0000    7.7942    0.0000 C   0  0  0  0  0  0  0  0  0  0  0  0
    1.5000    7.7942    0.0000 C   0  0  0  0  0  0  0  0  0  0  0  0
    0.7500    6.4952    0.0000 C   0  0  0  0  0  0  0  0  0  0  0  0
    1.5000    2.5981    0.0000 C   0  0  0  0  0  0  0  0  0  0  0  0
    0.7500    1.2990    0.0000 C   0  0  0  0  0  0  0  0  0  0  0  0
  1  2  2  0
  2  3  1  0
  3  4  1  0
  4  5  1  0
  5  6  1  0
  6  7  2  0
  7  8  1  0
  8  9  1  0
  9 10  2  0
 10 11  1  0
 11 12  2  0
 12 13  1  0
 13 14  1  0
 14 15  1  0
 15 16  1  0
 16 17  1  0
 17 18  1  0
 18 19  2  0
 19 20  1  0
 20 21  2  0
 21 22  1  0
 22 23  2  0
 23 24  1  0
 24 25  2  0
 25 26  1  0
 26 27  2  0
 21 28  1  0
 17 29  1  0
 29 30  1  0
 12 31  1  0
 31 32  2  0
  8 33  2  0
 33 34  1  0
 34 35  2  0
 35 36  1  0
 36 37  2  0
 37 38  1  0
 38 39  2  0
 33 40  1  0
 40 41  2  0
 41  2  1  0
 41  6  1  0
 32  9  1  0
 39 34  1  0
 30 14  1  0
 28 18  1  0
 27 22  1  0
M  END
>  <Compound_ID>  (41) 
CHEMBL446134

>  <Active>  (41) 
1

>  <Smiles>  (41) 
O=C1NCCc2nc(-c3ccc(CN4CCC(c5nnc(-c6ccccn6)[nH]5)CC4)cc3)c(-c3ccccc3)cc21

>  <canonical_smi>  (41) 
O=C1NCCc2nc(-c3ccc(CN4CCC(c5nnc(-c6ccccn6)[nH]5)CC4)cc3)c(-c3ccccc3)cc21

>  <Set>  (41) 
G2 active

>  <Set_type>  (41) 
Train

>  <MW>  (41) 
541.66

>  <HBD>  (41) 
2

>  <HBA>  (41) 
6

>  <NRB>  (41) 
6

>  <NR>  (41) 
7

>  <NAR>  (41) 
5

>  <PSA>  (41) 
99.69

>  <Standard Type>  (41) 
nan

>  <Standard Relation>  (41) 
nan

>  <Standard Units>  (41) 
nan

>  <Standard Value>  (41) 
nan

>  <Assay ChEMBL ID>  (41) 
nan

>  <Assay Description>  (41) 
nan

>  <BAO Label>  (41) 
nan

>  <bits>  (41) 
<rdkit.DataStructs.cDataStructs.ExplicitBitVect object at 0x000001A37F957B50>

>  <Group>  (41) 
G1

$$$$

     RDKit          2D

 40 46  0  0  0  0  0  0  0  0999 V2000
   -0.0000   -5.1073    0.0000 O   0  0  0  0  0  0  0  0  0  0  0  0
   -0.0000   -3.6073    0.0000 C   0  0  0  0  0  0  0  0  0  0  0  0
    1.2135   -2.7256    0.0000 N   0  0  0  0  0  0  0  0  0  0  0  0
    0.7500   -1.2990    0.0000 C   0  0  0  0  0  0  0  0  0  0  0  0
    1.5000    0.0000    0.0000 C   0  0  0  0  0  0  0  0  0  0  0  0
    0.7500    1.2990    0.0000 C   0  0  0  0  0  0  0  0  0  0  0  0
   -0.7500    1.2990    0.0000 C   0  0  0  0  0  0  0  0  0  0  0  0
   -1.5000    0.0000    0.0000 C   0  0  0  0  0  0  0  0  0  0  0  0
   -0.7500   -1.2990    0.0000 C   0  0  0  0  0  0  0  0  0  0  0  0
   -1.2135   -2.7256    0.0000 N   0  0  0  0  0  0  0  0  0  0  0  0
   -2.6401   -3.1891    0.0000 C   0  0  0  0  0  0  0  0  0  0  0  0
   -3.7548   -2.1855    0.0000 C   0  0  0  0  0  0  0  0  0  0  0  0
   -5.1814   -2.6490    0.0000 C   0  0  0  0  0  0  0  0  0  0  0  0
   -5.4933   -4.1162    0.0000 N   0  0  0  0  0  0  0  0  0  0  0  0
   -6.9199   -4.5797    0.0000 C   0  0  0  0  0  0  0  0  0  0  0  0
   -8.0346   -3.5760    0.0000 C   0  0  0  0  0  0  0  0  0  0  0  0
   -7.7227   -2.1088    0.0000 C   0  0  0  0  0  0  0  0  0  0  0  0
   -8.8374   -1.1051    0.0000 C   0  0  0  0  0  0  0  0  0  0  0  0
  -10.2640   -1.5686    0.0000 C   0  0  0  0  0  0  0  0  0  0  0  0
  -11.3787   -0.5649    0.0000 C   0  0  0  0  0  0  0  0  0  0  0  0
  -11.0669    0.9023    0.0000 N   0  0  0  0  0  0  0  0  0  0  0  0
  -12.1816    1.9060    0.0000 C   0  0  0  0  0  0  0  0  0  0  0  0
  -13.6082    1.4425    0.0000 C   0  0  0  0  0  0  0  0  0  0  0  0
  -14.7229    2.4461    0.0000 C   0  0  0  0  0  0  0  0  0  0  0  0
  -16.1901    2.1343    0.0000 N   0  0  0  0  0  0  0  0  0  0  0  0
  -16.9401    3.4333    0.0000 N   0  0  0  0  0  0  0  0  0  0  0  0
  -15.9364    4.5480    0.0000 N   0  0  0  0  0  0  0  0  0  0  0  0
  -14.5661    3.9379    0.0000 N   0  0  0  0  0  0  0  0  0  0  0  0
  -13.9200   -0.0248    0.0000 C   0  0  0  0  0  0  0  0  0  0  0  0
  -12.8053   -1.0285    0.0000 C   0  0  0  0  0  0  0  0  0  0  0  0
  -13.1172   -2.4957    0.0000 C   0  0  0  0  0  0  0  0  0  0  0  0
  -14.5438   -2.9592    0.0000 C   0  0  0  0  0  0  0  0  0  0  0  0
  -14.8556   -4.4264    0.0000 C   0  0  0  0  0  0  0  0  0  0  0  0
  -13.7409   -5.4301    0.0000 C   0  0  0  0  0  0  0  0  0  0  0  0
  -12.3143   -4.9666    0.0000 C   0  0  0  0  0  0  0  0  0  0  0  0
  -12.0025   -3.4994    0.0000 C   0  0  0  0  0  0  0  0  0  0  0  0
  -10.5759   -3.0359    0.0000 C   0  0  0  0  0  0  0  0  0  0  0  0
   -9.4612   -4.0396    0.0000 C   0  0  0  0  0  0  0  0  0  0  0  0
   -4.3786   -5.1199    0.0000 C   0  0  0  0  0  0  0  0  0  0  0  0
   -2.9520   -4.6564    0.0000 C   0  0  0  0  0  0  0  0  0  0  0  0
  1  2  2  0
  2  3  1  0
  3  4  1  0
  4  5  2  0
  5  6  1  0
  6  7  2  0
  7  8  1  0
  8  9  2  0
  9 10  1  0
 10 11  1  0
 11 12  1  0
 12 13  1  0
 13 14  1  0
 14 15  1  0
 15 16  1  0
 16 17  2  0
 17 18  1  0
 18 19  2  0
 19 20  1  0
 20 21  2  0
 21 22  1  0
 22 23  2  0
 23 24  1  0
 24 25  2  0
 25 26  1  0
 26 27  2  0
 27 28  1  0
 23 29  1  0
 29 30  2  0
 30 31  1  0
 31 32  2  0
 32 33  1  0
 33 34  2  0
 34 35  1  0
 35 36  2  0
 19 37  1  0
 37 38  2  0
 14 39  1  0
 39 40  1  0
 10  2  1  0
 40 11  1  0
  9  4  1  0
 38 16  1  0
 30 20  1  0
 36 31  1  0
 28 24  1  0
M  END
>  <Compound_ID>  (42) 
CHEMBL270847

>  <Active>  (42) 
1

>  <Smiles>  (42) 
O=c1[nH]c2ccccc2n1C1CCN(Cc2ccc(-c3ncc(-c4nnn[nH]4)cc3-c3ccccc3)cc2)CC1

>  <canonical_smi>  (42) 
O=c1[nH]c2ccccc2n1C1CCN(Cc2ccc(-c3ncc(-c4nnn[nH]4)cc3-c3ccccc3)cc2)CC1

>  <Set>  (42) 
G2 active

>  <Set_type>  (42) 
Train

>  <MW>  (42) 
528.62

>  <HBD>  (42) 
2

>  <HBA>  (42) 
6

>  <NRB>  (42) 
6

>  <NR>  (42) 
7

>  <NAR>  (42) 
6

>  <PSA>  (42) 
108.38

>  <Standard Type>  (42) 
nan

>  <Standard Relation>  (42) 
nan

>  <Standard Units>  (42) 
nan

>  <Standard Value>  (42) 
nan

>  <Assay ChEMBL ID>  (42) 
nan

>  <Assay Description>  (42) 
nan

>  <BAO Label>  (42) 
nan

>  <bits>  (42) 
<rdkit.DataStructs.cDataStructs.ExplicitBitVect object at 0x000001A37F9578B0>

>  <Group>  (42) 
G1

$$$$

     RDKit          2D

 41 47  0  0  0  0  0  0  0  0999 V2000
  -13.2671    4.6879    0.0000 C   0  0  0  0  0  0  0  0  0  0  0  0
  -14.5661    3.9379    0.0000 N   0  0  0  0  0  0  0  0  0  0  0  0
  -15.9364    4.5480    0.0000 N   0  0  0  0  0  0  0  0  0  0  0  0
  -16.9401    3.4333    0.0000 N   0  0  0  0  0  0  0  0  0  0  0  0
  -16.1901    2.1343    0.0000 N   0  0  0  0  0  0  0  0  0  0  0  0
  -14.7229    2.4461    0.0000 C   0  0  0  0  0  0  0  0  0  0  0  0
  -13.6082    1.4425    0.0000 C   0  0  0  0  0  0  0  0  0  0  0  0
  -13.9200   -0.0248    0.0000 C   0  0  0  0  0  0  0  0  0  0  0  0
  -12.8053   -1.0285    0.0000 N   0  0  0  0  0  0  0  0  0  0  0  0
  -11.3787   -0.5649    0.0000 C   0  0  0  0  0  0  0  0  0  0  0  0
  -10.2640   -1.5686    0.0000 C   0  0  0  0  0  0  0  0  0  0  0  0
  -10.5759   -3.0359    0.0000 C   0  0  0  0  0  0  0  0  0  0  0  0
   -9.4612   -4.0396    0.0000 C   0  0  0  0  0  0  0  0  0  0  0  0
   -8.0346   -3.5760    0.0000 C   0  0  0  0  0  0  0  0  0  0  0  0
   -6.9199   -4.5797    0.0000 C   0  0  0  0  0  0  0  0  0  0  0  0
   -5.4933   -4.1162    0.0000 N   0  0  0  0  0  0  0  0  0  0  0  0
   -4.3786   -5.1199    0.0000 C   0  0  0  0  0  0  0  0  0  0  0  0
   -2.9520   -4.6564    0.0000 C   0  0  0  0  0  0  0  0  0  0  0  0
   -2.6401   -3.1891    0.0000 C   0  0  0  0  0  0  0  0  0  0  0  0
   -1.2135   -2.7256    0.0000 N   0  0  0  0  0  0  0  0  0  0  0  0
   -0.0000   -3.6073    0.0000 C   0  0  0  0  0  0  0  0  0  0  0  0
    0.0000   -5.1073    0.0000 O   0  0  0  0  0  0  0  0  0  0  0  0
    1.2135   -2.7256    0.0000 N   0  0  0  0  0  0  0  0  0  0  0  0
    0.7500   -1.2990    0.0000 C   0  0  0  0  0  0  0  0  0  0  0  0
    1.5000    0.0000    0.0000 C   0  0  0  0  0  0  0  0  0  0  0  0
    0.7500    1.2990    0.0000 C   0  0  0  0  0  0  0  0  0  0  0  0
   -0.7500    1.2990    0.0000 C   0  0  0  0  0  0  0  0  0  0  0  0
   -1.5000    0.0000    0.0000 C   0  0  0  0  0  0  0  0  0  0  0  0
   -0.7500   -1.2990    0.0000 C   0  0  0  0  0  0  0  0  0  0  0  0
   -3.7548   -2.1855    0.0000 C   0  0  0  0  0  0  0  0  0  0  0  0
   -5.1814   -2.6490    0.0000 C   0  0  0  0  0  0  0  0  0  0  0  0
   -7.7227   -2.1088    0.0000 C   0  0  0  0  0  0  0  0  0  0  0  0
   -8.8374   -1.1051    0.0000 C   0  0  0  0  0  0  0  0  0  0  0  0
  -11.0669    0.9023    0.0000 C   0  0  0  0  0  0  0  0  0  0  0  0
   -9.6403    1.3658    0.0000 C   0  0  0  0  0  0  0  0  0  0  0  0
   -8.5256    0.3621    0.0000 C   0  0  0  0  0  0  0  0  0  0  0  0
   -7.0990    0.8256    0.0000 C   0  0  0  0  0  0  0  0  0  0  0  0
   -6.7871    2.2929    0.0000 C   0  0  0  0  0  0  0  0  0  0  0  0
   -7.9018    3.2966    0.0000 C   0  0  0  0  0  0  0  0  0  0  0  0
   -9.3284    2.8330    0.0000 C   0  0  0  0  0  0  0  0  0  0  0  0
  -12.1816    1.9060    0.0000 C   0  0  0  0  0  0  0  0  0  0  0  0
  1  2  1  0
  2  3  1  0
  3  4  2  0
  4  5  1  0
  5  6  2  0
  6  7  1  0
  7  8  2  0
  8  9  1  0
  9 10  2  0
 10 11  1  0
 11 12  2  0
 12 13  1  0
 13 14  2  0
 14 15  1  0
 15 16  1  0
 16 17  1  0
 17 18  1  0
 18 19  1  0
 19 20  1  0
 20 21  1  0
 21 22  1  0
 21 23  2  0
 23 24  1  0
 24 25  2  0
 25 26  1  0
 26 27  2  0
 27 28  1  0
 28 29  2  0
 19 30  1  0
 30 31  1  0
 14 32  1  0
 32 33  2  0
 10 34  1  0
 34 35  1  0
 35 36  2  0
 36 37  1  0
 37 38  2  0
 38 39  1  0
 39 40  2  0
 34 41  2  0
  6  2  1  0
 41  7  1  0
 33 11  1  0
 40 35  1  0
 31 16  1  0
 29 20  1  0
 29 24  1  0
M  END
>  <Compound_ID>  (43) 
CHEMBL182101

>  <Active>  (43) 
1

>  <Smiles>  (43) 
Cn1nnnc1-c1cnc(-c2ccc(CN3CCC(n4c(O)nc5ccccc54)CC3)cc2)c(-c2ccccc2)c1

>  <canonical_smi>  (43) 
Cn1nnnc1-c1cnc(-c2ccc(CN3CCC(n4c(O)nc5ccccc54)CC3)cc2)c(-c2ccccc2)c1

>  <Set>  (43) 
G2 active

>  <Set_type>  (43) 
Train

>  <MW>  (43) 
542.65

>  <HBD>  (43) 
1

>  <HBA>  (43) 
7

>  <NRB>  (43) 
6

>  <NR>  (43) 
7

>  <NAR>  (43) 
6

>  <PSA>  (43) 
97.78

>  <Standard Type>  (43) 
nan

>  <Standard Relation>  (43) 
nan

>  <Standard Units>  (43) 
nan

>  <Standard Value>  (43) 
nan

>  <Assay ChEMBL ID>  (43) 
nan

>  <Assay Description>  (43) 
nan

>  <BAO Label>  (43) 
nan

>  <bits>  (43) 
<rdkit.DataStructs.cDataStructs.ExplicitBitVect object at 0x000001A37F957530>

>  <Group>  (43) 
G1

$$$$

     RDKit          2D

 40 46  0  0  0  0  0  0  0  0999 V2000
    3.0000    0.0000    0.0000 N   0  0  0  0  0  0  0  0  0  0  0  0
    1.5000    0.0000    0.0000 C   0  0  0  0  0  0  0  0  0  0  0  0
    0.7500   -1.2990    0.0000 N   0  0  0  0  0  0  0  0  0  0  0  0
   -0.7500   -1.2990    0.0000 C   0  0  0  0  0  0  0  0  0  0  0  0
   -1.5000    0.0000    0.0000 N   0  0  0  0  0  0  0  0  0  0  0  0
   -0.7500    1.2990    0.0000 C   0  0  0  0  0  0  0  0  0  0  0  0
   -1.5000    2.5981    0.0000 N   0  0  0  0  0  0  0  0  0  0  0  0
   -0.7500    3.8971    0.0000 C   0  0  0  0  0  0  0  0  0  0  0  0
   -1.5000    5.1962    0.0000 C   0  0  0  0  0  0  0  0  0  0  0  0
   -0.7500    6.4952    0.0000 C   0  0  0  0  0  0  0  0  0  0  0  0
   -1.5000    7.7942    0.0000 C   0  0  0  0  0  0  0  0  0  0  0  0
   -3.0000    7.7942    0.0000 C   0  0  0  0  0  0  0  0  0  0  0  0
   -3.7500    9.0933    0.0000 C   0  0  0  0  0  0  0  0  0  0  0  0
   -3.0000   10.3923    0.0000 N   0  0  0  0  0  0  0  0  0  0  0  0
   -1.5000   10.3923    0.0000 C   0  0  0  0  0  0  0  0  0  0  0  0
   -0.7500   11.6913    0.0000 C   0  0  0  0  0  0  0  0  0  0  0  0
   -1.5000   12.9904    0.0000 C   0  0  0  0  0  0  0  0  0  0  0  0
   -0.7500   14.2894    0.0000 C   0  0  0  0  0  0  0  0  0  0  0  0
    0.7418   14.4462    0.0000 N   0  0  0  0  0  0  0  0  0  0  0  0
    1.0537   15.9134    0.0000 C   0  0  0  0  0  0  0  0  0  0  0  0
    2.3527   16.6634    0.0000 C   0  0  0  0  0  0  0  0  0  0  0  0
    2.3527   18.1634    0.0000 C   0  0  0  0  0  0  0  0  0  0  0  0
    1.0537   18.9134    0.0000 C   0  0  0  0  0  0  0  0  0  0  0  0
    1.0537   20.4134    0.0000 F   0  0  0  0  0  0  0  0  0  0  0  0
   -0.2454   18.1634    0.0000 C   0  0  0  0  0  0  0  0  0  0  0  0
   -0.2454   16.6634    0.0000 C   0  0  0  0  0  0  0  0  0  0  0  0
   -1.3601   15.6597    0.0000 N   0  0  0  0  0  0  0  0  0  0  0  0
   -3.0000   12.9904    0.0000 C   0  0  0  0  0  0  0  0  0  0  0  0
   -3.7500   11.6913    0.0000 C   0  0  0  0  0  0  0  0  0  0  0  0
   -3.7500    6.4952    0.0000 C   0  0  0  0  0  0  0  0  0  0  0  0
   -3.0000    5.1962    0.0000 C   0  0  0  0  0  0  0  0  0  0  0  0
    0.7500    3.8971    0.0000 C   0  0  0  0  0  0  0  0  0  0  0  0
    1.5000    5.1962    0.0000 C   0  0  0  0  0  0  0  0  0  0  0  0
    3.0000    5.1962    0.0000 C   0  0  0  0  0  0  0  0  0  0  0  0
    3.7500    6.4952    0.0000 C   0  0  0  0  0  0  0  0  0  0  0  0
    3.0000    7.7942    0.0000 C   0  0  0  0  0  0  0  0  0  0  0  0
    1.5000    7.7942    0.0000 C   0  0  0  0  0  0  0  0  0  0  0  0
    0.7500    6.4952    0.0000 C   0  0  0  0  0  0  0  0  0  0  0  0
    1.5000    2.5981    0.0000 C   0  0  0  0  0  0  0  0  0  0  0  0
    0.7500    1.2990    0.0000 C   0  0  0  0  0  0  0  0  0  0  0  0
  1  2  1  0
  2  3  2  0
  3  4  1  0
  4  5  2  0
  5  6  1  0
  6  7  2  0
  7  8  1  0
  8  9  1  0
  9 10  2  0
 10 11  1  0
 11 12  2  0
 12 13  1  0
 13 14  1  0
 14 15  1  0
 15 16  1  0
 16 17  1  0
 17 18  1  0
 18 19  2  0
 19 20  1  0
 20 21  2  0
 21 22  1  0
 22 23  2  0
 23 24  1  0
 23 25  1  0
 25 26  2  0
 26 27  1  0
 17 28  1  0
 28 29  1  0
 12 30  1  0
 30 31  2  0
  8 32  2  0
 32 33  1  0
 33 34  2  0
 34 35  1  0
 35 36  2  0
 36 37  1  0
 37 38  2  0
 32 39  1  0
 39 40  2  0
 40  2  1  0
 40  6  1  0
 31  9  1  0
 38 33  1  0
 29 14  1  0
 27 18  1  0
 26 20  1  0
M  END
>  <Compound_ID>  (44) 
CHEMBL253457

>  <Active>  (44) 
1

>  <Smiles>  (44) 
Nc1ncnc2nc(-c3ccc(CN4CCC(c5nc6ccc(F)cc6[nH]5)CC4)cc3)c(-c3ccccc3)cc12

>  <canonical_smi>  (44) 
Nc1ncnc2nc(-c3ccc(CN4CCC(c5nc6ccc(F)cc6[nH]5)CC4)cc3)c(-c3ccccc3)cc12

>  <Set>  (44) 
G2 active

>  <Set_type>  (44) 
Train

>  <MW>  (44) 
529.62

>  <HBD>  (44) 
2

>  <HBA>  (44) 
6

>  <NRB>  (44) 
5

>  <NR>  (44) 
7

>  <NAR>  (44) 
6

>  <PSA>  (44) 
96.61

>  <Standard Type>  (44) 
nan

>  <Standard Relation>  (44) 
nan

>  <Standard Units>  (44) 
nan

>  <Standard Value>  (44) 
nan

>  <Assay ChEMBL ID>  (44) 
nan

>  <Assay Description>  (44) 
nan

>  <BAO Label>  (44) 
nan

>  <bits>  (44) 
<rdkit.DataStructs.cDataStructs.ExplicitBitVect object at 0x000001A37F957450>

>  <Group>  (44) 
G1

$$$$

     RDKit          2D

 28 32  0  0  0  0  0  0  0  0999 V2000
   -2.7395   -3.7189    0.0000 N   0  0  0  0  0  0  0  0  0  0  0  0
   -3.0000   -5.1962    0.0000 C   0  0  0  0  0  0  0  0  0  0  0  0
   -1.5000   -5.1962    0.0000 C   0  0  0  0  0  0  0  0  0  0  0  0
   -0.7500   -6.4952    0.0000 O   0  0  0  0  0  0  0  0  0  0  0  0
   -0.7500   -3.8971    0.0000 N   0  0  0  0  0  0  0  0  0  0  0  0
    0.7500   -3.8971    0.0000 C   0  0  0  0  0  0  0  0  0  0  0  0
    1.5000   -2.5981    0.0000 C   0  0  0  0  0  0  0  0  0  0  0  0
    0.7500   -1.2990    0.0000 C   0  0  0  0  0  0  0  0  0  0  0  0
    1.5000    0.0000    0.0000 C   0  0  0  0  0  0  0  0  0  0  0  0
    0.7500    1.2990    0.0000 C   0  0  0  0  0  0  0  0  0  0  0  0
   -0.7500    1.2990    0.0000 C   0  0  0  0  0  0  0  0  0  0  0  0
   -1.5000    0.0000    0.0000 C   0  0  0  0  0  0  0  0  0  0  0  0
   -0.7500   -1.2990    0.0000 C   0  0  0  0  0  0  0  0  0  0  0  0
   -1.5000   -2.5981    0.0000 C   0  0  0  0  0  0  0  0  0  0  0  0
   -2.7395   -6.6734    0.0000 C   0  0  0  0  0  0  0  0  0  0  0  0
   -3.8886   -7.6375    0.0000 C   0  0  0  0  0  0  0  0  0  0  0  0
   -5.2981   -7.1245    0.0000 N   0  0  0  0  0  0  0  0  0  0  0  0
   -6.4472   -8.0887    0.0000 C   0  0  0  0  0  0  0  0  0  0  0  0
   -7.8567   -7.5757    0.0000 N   0  0  0  0  0  0  0  0  0  0  0  0
   -9.0058   -8.5398    0.0000 C   0  0  0  0  0  0  0  0  0  0  0  0
   -8.7453  -10.0171    0.0000 N   0  0  0  0  0  0  0  0  0  0  0  0
   -7.3358  -10.5301    0.0000 C   0  0  0  0  0  0  0  0  0  0  0  0
   -6.7739  -11.9209    0.0000 N   0  0  0  0  0  0  0  0  0  0  0  0
   -5.2775  -11.8162    0.0000 C   0  0  0  0  0  0  0  0  0  0  0  0
   -4.9147  -10.3608    0.0000 C   0  0  0  0  0  0  0  0  0  0  0  0
   -6.1867   -9.5659    0.0000 C   0  0  0  0  0  0  0  0  0  0  0  0
   -5.5586   -5.6473    0.0000 C   0  0  0  0  0  0  0  0  0  0  0  0
   -4.4095   -4.6831    0.0000 C   0  0  0  0  0  0  0  0  0  0  0  0
  1  2  1  0
  2  3  1  0
  3  4  2  0
  3  5  1  0
  5  6  1  0
  6  7  1  0
  7  8  1  0
  8  9  2  0
  9 10  1  0
 10 11  2  0
 11 12  1  0
 12 13  2  0
 13 14  1  0
  2 15  1  0
 15 16  1  0
 16 17  1  0
 17 18  1  0
 18 19  2  0
 19 20  1  0
 20 21  2  0
 21 22  1  0
 22 23  1  0
 23 24  1  0
 24 25  2  0
 25 26  1  0
 17 27  1  0
 27 28  1  0
 28  2  1  0
 14  5  1  0
 26 18  1  0
 13  8  1  0
 26 22  2  0
M  END
>  <Compound_ID>  (45) 
CHEMBL596990

>  <Active>  (45) 
1

>  <Smiles>  (45) 
NC1(C(=O)N2CCc3ccccc3C2)CCN(c2ncnc3[nH]ccc23)CC1

>  <canonical_smi>  (45) 
NC1(C(=O)N2CCc3ccccc3C2)CCN(c2ncnc3[nH]ccc23)CC1

>  <Set>  (45) 
G2 active

>  <Set_type>  (45) 
Train

>  <MW>  (45) 
376.46

>  <HBD>  (45) 
2

>  <HBA>  (45) 
5

>  <NRB>  (45) 
2

>  <NR>  (45) 
5

>  <NAR>  (45) 
3

>  <PSA>  (45) 
91.14

>  <Standard Type>  (45) 
nan

>  <Standard Relation>  (45) 
nan

>  <Standard Units>  (45) 
nan

>  <Standard Value>  (45) 
nan

>  <Assay ChEMBL ID>  (45) 
nan

>  <Assay Description>  (45) 
nan

>  <BAO Label>  (45) 
nan

>  <bits>  (45) 
<rdkit.DataStructs.cDataStructs.ExplicitBitVect object at 0x000001A37F9573E0>

>  <Group>  (45) 
G1

$$$$

     RDKit          2D

 40 45  0  0  0  0  0  0  0  0999 V2000
  -15.5257    4.9171    0.0000 C   0  0  0  0  0  0  0  0  0  0  0  0
  -14.4110    3.9134    0.0000 C   0  0  0  0  0  0  0  0  0  0  0  0
  -12.9844    4.3769    0.0000 C   0  0  0  0  0  0  0  0  0  0  0  0
  -14.7229    2.4461    0.0000 C   0  0  0  0  0  0  0  0  0  0  0  0
  -13.6082    1.4425    0.0000 C   0  0  0  0  0  0  0  0  0  0  0  0
  -12.1816    1.9060    0.0000 N   0  0  0  0  0  0  0  0  0  0  0  0
  -11.0669    0.9023    0.0000 C   0  0  0  0  0  0  0  0  0  0  0  0
   -9.6403    1.3658    0.0000 C   0  0  0  0  0  0  0  0  0  0  0  0
   -8.5256    0.3621    0.0000 C   0  0  0  0  0  0  0  0  0  0  0  0
   -7.0990    0.8256    0.0000 C   0  0  0  0  0  0  0  0  0  0  0  0
   -6.7871    2.2929    0.0000 C   0  0  0  0  0  0  0  0  0  0  0  0
   -7.9018    3.2966    0.0000 C   0  0  0  0  0  0  0  0  0  0  0  0
   -9.3284    2.8330    0.0000 C   0  0  0  0  0  0  0  0  0  0  0  0
  -11.3787   -0.5649    0.0000 C   0  0  0  0  0  0  0  0  0  0  0  0
  -10.2640   -1.5686    0.0000 C   0  0  0  0  0  0  0  0  0  0  0  0
  -10.5759   -3.0359    0.0000 C   0  0  0  0  0  0  0  0  0  0  0  0
   -9.4612   -4.0396    0.0000 C   0  0  0  0  0  0  0  0  0  0  0  0
   -8.0346   -3.5760    0.0000 C   0  0  0  0  0  0  0  0  0  0  0  0
   -6.9199   -4.5797    0.0000 C   0  0  0  0  0  0  0  0  0  0  0  0
   -5.4933   -4.1162    0.0000 N   0  0  0  0  0  0  0  0  0  0  0  0
   -4.3786   -5.1199    0.0000 C   0  0  0  0  0  0  0  0  0  0  0  0
   -2.9520   -4.6564    0.0000 C   0  0  0  0  0  0  0  0  0  0  0  0
   -2.6401   -3.1891    0.0000 C   0  0  0  0  0  0  0  0  0  0  0  0
   -1.2135   -2.7256    0.0000 N   0  0  0  0  0  0  0  0  0  0  0  0
   -0.0000   -3.6073    0.0000 C   0  0  0  0  0  0  0  0  0  0  0  0
    0.0000   -5.1073    0.0000 O   0  0  0  0  0  0  0  0  0  0  0  0
    1.2135   -2.7256    0.0000 N   0  0  0  0  0  0  0  0  0  0  0  0
    0.7500   -1.2990    0.0000 C   0  0  0  0  0  0  0  0  0  0  0  0
    1.5000    0.0000    0.0000 C   0  0  0  0  0  0  0  0  0  0  0  0
    0.7500    1.2990    0.0000 C   0  0  0  0  0  0  0  0  0  0  0  0
   -0.7500    1.2990    0.0000 C   0  0  0  0  0  0  0  0  0  0  0  0
   -1.5000    0.0000    0.0000 C   0  0  0  0  0  0  0  0  0  0  0  0
   -0.7500   -1.2990    0.0000 C   0  0  0  0  0  0  0  0  0  0  0  0
   -3.7548   -2.1855    0.0000 C   0  0  0  0  0  0  0  0  0  0  0  0
   -5.1814   -2.6490    0.0000 C   0  0  0  0  0  0  0  0  0  0  0  0
   -7.7227   -2.1088    0.0000 C   0  0  0  0  0  0  0  0  0  0  0  0
   -8.8374   -1.1051    0.0000 C   0  0  0  0  0  0  0  0  0  0  0  0
  -12.8053   -1.0285    0.0000 N   0  0  0  0  0  0  0  0  0  0  0  0
  -13.9200   -0.0248    0.0000 C   0  0  0  0  0  0  0  0  0  0  0  0
  -15.3466   -0.4883    0.0000 O   0  0  0  0  0  0  0  0  0  0  0  0
  1  2  1  0
  2  3  1  0
  2  4  1  0
  4  5  1  0
  5  6  2  0
  6  7  1  0
  7  8  1  0
  8  9  2  0
  9 10  1  0
 10 11  2  0
 11 12  1  0
 12 13  2  0
  7 14  2  0
 14 15  1  0
 15 16  2  0
 16 17  1  0
 17 18  2  0
 18 19  1  0
 19 20  1  0
 20 21  1  0
 21 22  1  0
 22 23  1  0
 23 24  1  0
 24 25  1  0
 25 26  1  0
 25 27  2  0
 27 28  1  0
 28 29  2  0
 29 30  1  0
 30 31  2  0
 31 32  1  0
 32 33  2  0
 23 34  1  0
 34 35  1  0
 18 36  1  0
 36 37  2  0
 14 38  1  0
 38 39  2  0
 39 40  1  0
 39  5  1  0
 13  8  1  0
 37 15  1  0
 35 20  1  0
 33 24  1  0
 33 28  1  0
M  END
>  <Compound_ID>  (46) 
CHEMBL178468

>  <Active>  (46) 
1

>  <Smiles>  (46) 
CC(C)Cc1nc(-c2ccccc2)c(-c2ccc(CN3CCC(n4c(O)nc5ccccc54)CC3)cc2)nc1O

>  <canonical_smi>  (46) 
CC(C)Cc1nc(-c2ccccc2)c(-c2ccc(CN3CCC(n4c(O)nc5ccccc54)CC3)cc2)nc1O

>  <Set>  (46) 
G2 active

>  <Set_type>  (46) 
Train

>  <MW>  (46) 
533.68

>  <HBD>  (46) 
2

>  <HBA>  (46) 
6

>  <NRB>  (46) 
7

>  <NR>  (46) 
6

>  <NAR>  (46) 
5

>  <PSA>  (46) 
87.3

>  <Standard Type>  (46) 
nan

>  <Standard Relation>  (46) 
nan

>  <Standard Units>  (46) 
nan

>  <Standard Value>  (46) 
nan

>  <Assay ChEMBL ID>  (46) 
nan

>  <Assay Description>  (46) 
nan

>  <BAO Label>  (46) 
nan

>  <bits>  (46) 
<rdkit.DataStructs.cDataStructs.ExplicitBitVect object at 0x000001A37F957300>

>  <Group>  (46) 
G1

$$$$

     RDKit          2D

 40 46  0  0  0  0  0  0  0  0999 V2000
    3.0000    0.0000    0.0000 N   0  0  0  0  0  0  0  0  0  0  0  0
    1.5000    0.0000    0.0000 C   0  0  0  0  0  0  0  0  0  0  0  0
    0.7500   -1.2990    0.0000 N   0  0  0  0  0  0  0  0  0  0  0  0
   -0.7500   -1.2990    0.0000 C   0  0  0  0  0  0  0  0  0  0  0  0
   -1.5000    0.0000    0.0000 N   0  0  0  0  0  0  0  0  0  0  0  0
   -0.7500    1.2990    0.0000 C   0  0  0  0  0  0  0  0  0  0  0  0
   -1.5000    2.5981    0.0000 N   0  0  0  0  0  0  0  0  0  0  0  0
   -0.7500    3.8971    0.0000 C   0  0  0  0  0  0  0  0  0  0  0  0
   -1.5000    5.1962    0.0000 C   0  0  0  0  0  0  0  0  0  0  0  0
   -0.7500    6.4952    0.0000 C   0  0  0  0  0  0  0  0  0  0  0  0
   -1.5000    7.7942    0.0000 C   0  0  0  0  0  0  0  0  0  0  0  0
   -3.0000    7.7942    0.0000 C   0  0  0  0  0  0  0  0  0  0  0  0
   -3.7500    9.0933    0.0000 C   0  0  0  0  0  0  0  0  0  0  0  0
   -3.0000   10.3923    0.0000 N   0  0  0  0  0  0  0  0  0  0  0  0
   -1.5000   10.3923    0.0000 C   0  0  0  0  0  0  0  0  0  0  0  0
   -0.7500   11.6913    0.0000 C   0  0  0  0  0  0  0  0  0  0  0  0
   -1.5000   12.9904    0.0000 C   0  0  0  0  0  0  0  0  0  0  0  0
   -0.7500   14.2894    0.0000 N   0  0  0  0  0  0  0  0  0  0  0  0
    0.7418   14.4462    0.0000 C   0  0  0  0  0  0  0  0  0  0  0  0
    1.0537   15.9134    0.0000 N   0  0  0  0  0  0  0  0  0  0  0  0
   -0.2454   16.6634    0.0000 C   0  0  0  0  0  0  0  0  0  0  0  0
   -0.5573   18.1307    0.0000 C   0  0  0  0  0  0  0  0  0  0  0  0
    0.5575   19.1344    0.0000 N   0  0  0  0  0  0  0  0  0  0  0  0
   -1.9838   18.5942    0.0000 N   0  0  0  0  0  0  0  0  0  0  0  0
   -3.0986   17.5905    0.0000 C   0  0  0  0  0  0  0  0  0  0  0  0
   -2.7867   16.1233    0.0000 N   0  0  0  0  0  0  0  0  0  0  0  0
   -1.3601   15.6597    0.0000 C   0  0  0  0  0  0  0  0  0  0  0  0
   -3.0000   12.9904    0.0000 C   0  0  0  0  0  0  0  0  0  0  0  0
   -3.7500   11.6913    0.0000 C   0  0  0  0  0  0  0  0  0  0  0  0
   -3.7500    6.4952    0.0000 C   0  0  0  0  0  0  0  0  0  0  0  0
   -3.0000    5.1962    0.0000 C   0  0  0  0  0  0  0  0  0  0  0  0
    0.7500    3.8971    0.0000 C   0  0  0  0  0  0  0  0  0  0  0  0
    1.5000    5.1962    0.0000 C   0  0  0  0  0  0  0  0  0  0  0  0
    3.0000    5.1962    0.0000 C   0  0  0  0  0  0  0  0  0  0  0  0
    3.7500    6.4952    0.0000 C   0  0  0  0  0  0  0  0  0  0  0  0
    3.0000    7.7942    0.0000 C   0  0  0  0  0  0  0  0  0  0  0  0
    1.5000    7.7942    0.0000 C   0  0  0  0  0  0  0  0  0  0  0  0
    0.7500    6.4952    0.0000 C   0  0  0  0  0  0  0  0  0  0  0  0
    1.5000    2.5981    0.0000 C   0  0  0  0  0  0  0  0  0  0  0  0
    0.7500    1.2990    0.0000 C   0  0  0  0  0  0  0  0  0  0  0  0
  1  2  1  0
  2  3  2  0
  3  4  1  0
  4  5  2  0
  5  6  1  0
  6  7  2  0
  7  8  1  0
  8  9  1  0
  9 10  2  0
 10 11  1  0
 11 12  2  0
 12 13  1  0
 13 14  1  0
 14 15  1  0
 15 16  1  0
 16 17  1  0
 17 18  1  0
 18 19  1  0
 19 20  2  0
 20 21  1  0
 21 22  2  0
 22 23  1  0
 22 24  1  0
 24 25  2  0
 25 26  1  0
 26 27  2  0
 17 28  1  0
 28 29  1  0
 12 30  1  0
 30 31  2  0
  8 32  2  0
 32 33  1  0
 33 34  2  0
 34 35  1  0
 35 36  2  0
 36 37  1  0
 37 38  2  0
 32 39  1  0
 39 40  2  0
 40  2  1  0
 40  6  1  0
 31  9  1  0
 38 33  1  0
 29 14  1  0
 27 18  1  0
 27 21  1  0
M  END
>  <Compound_ID>  (47) 
CHEMBL255360

>  <Active>  (47) 
1

>  <Smiles>  (47) 
Nc1ncnc2nc(-c3ccc(CN4CCC(n5cnc6c(N)ncnc65)CC4)cc3)c(-c3ccccc3)cc12

>  <canonical_smi>  (47) 
Nc1ncnc2nc(-c3ccc(CN4CCC(n5cnc6c(N)ncnc65)CC4)cc3)c(-c3ccccc3)cc12

>  <Set>  (47) 
G2 active

>  <Set_type>  (47) 
Train

>  <MW>  (47) 
528.62

>  <HBD>  (47) 
2

>  <HBA>  (47) 
9

>  <NRB>  (47) 
5

>  <NR>  (47) 
7

>  <NAR>  (47) 
6

>  <PSA>  (47) 
137.55

>  <Standard Type>  (47) 
nan

>  <Standard Relation>  (47) 
nan

>  <Standard Units>  (47) 
nan

>  <Standard Value>  (47) 
nan

>  <Assay ChEMBL ID>  (47) 
nan

>  <Assay Description>  (47) 
nan

>  <BAO Label>  (47) 
nan

>  <bits>  (47) 
<rdkit.DataStructs.cDataStructs.ExplicitBitVect object at 0x000001A37F957290>

>  <Group>  (47) 
G1

$$$$

     RDKit          2D

 29 32  0  0  0  0  0  0  0  0999 V2000
   -9.0638   -4.9905    0.0000 N   0  0  0  0  0  0  0  0  0  0  0  0
   -8.1821   -3.7770    0.0000 C   0  0  0  0  0  0  0  0  0  0  0  0
   -8.7923   -2.4067    0.0000 C   0  0  0  0  0  0  0  0  0  0  0  0
  -10.2840   -2.2499    0.0000 C   0  0  0  0  0  0  0  0  0  0  0  0
  -11.1657   -3.4634    0.0000 C   0  0  0  0  0  0  0  0  0  0  0  0
  -12.6575   -3.3066    0.0000 C   0  0  0  0  0  0  0  0  0  0  0  0
  -13.5392   -4.5201    0.0000 C   0  0  0  0  0  0  0  0  0  0  0  0
  -12.9291   -5.8905    0.0000 C   0  0  0  0  0  0  0  0  0  0  0  0
  -11.4373   -6.0472    0.0000 C   0  0  0  0  0  0  0  0  0  0  0  0
  -10.8272   -7.4176    0.0000 F   0  0  0  0  0  0  0  0  0  0  0  0
  -10.5556   -4.8337    0.0000 C   0  0  0  0  0  0  0  0  0  0  0  0
   -7.9106   -1.1931    0.0000 N   0  0  0  0  0  0  0  0  0  0  0  0
   -6.4188   -1.3499    0.0000 C   0  0  0  0  0  0  0  0  0  0  0  0
   -5.8087   -2.7203    0.0000 O   0  0  0  0  0  0  0  0  0  0  0  0
   -5.5371   -0.1364    0.0000 C   0  0  0  0  0  0  0  0  0  0  0  0
   -6.0006    1.2902    0.0000 C   0  0  0  0  0  0  0  0  0  0  0  0
   -4.7871    2.1718    0.0000 C   0  0  0  0  0  0  0  0  0  0  0  0
   -4.7871    3.6718    0.0000 Br  0  0  0  0  0  0  0  0  0  0  0  0
   -3.5736    1.2902    0.0000 C   0  0  0  0  0  0  0  0  0  0  0  0
   -2.1470    1.7537    0.0000 C   0  0  0  0  0  0  0  0  0  0  0  0
   -1.8351    3.2209    0.0000 C   0  0  0  0  0  0  0  0  0  0  0  0
   -0.4086    3.6844    0.0000 C   0  0  0  0  0  0  0  0  0  0  0  0
    0.7062    2.6807    0.0000 N   0  0  0  0  0  0  0  0  0  0  0  0
    0.3943    1.2135    0.0000 C   0  0  0  0  0  0  0  0  0  0  0  0
    1.2760    0.0000    0.0000 N   0  0  0  0  0  0  0  0  0  0  0  0
    0.3943   -1.2135    0.0000 C   0  0  0  0  0  0  0  0  0  0  0  0
   -1.0323   -0.7500    0.0000 C   0  0  0  0  0  0  0  0  0  0  0  0
   -1.0323    0.7500    0.0000 C   0  0  0  0  0  0  0  0  0  0  0  0
   -4.0371   -0.1364    0.0000 S   0  0  0  0  0  0  0  0  0  0  0  0
  1  2  1  0
  3  2  1  6
  3  4  1  0
  4  5  1  0
  5  6  2  0
  6  7  1  0
  7  8  2  0
  8  9  1  0
  9 10  1  0
  9 11  2  0
  3 12  1  0
 12 13  1  0
 13 14  2  0
 13 15  1  0
 15 16  2  0
 16 17  1  0
 17 18  1  0
 17 19  2  0
 19 20  1  0
 20 21  2  0
 21 22  1  0
 22 23  2  0
 23 24  1  0
 24 25  1  0
 25 26  1  0
 26 27  2  0
 27 28  1  0
 19 29  1  0
 11  5  1  0
 29 15  1  0
 28 20  1  0
 28 24  2  0
M  END
>  <Compound_ID>  (48) 
CHEMBL523586

>  <Active>  (48) 
1

>  <Smiles>  (48) 
NC[C@H](Cc1cccc(F)c1)NC(=O)c1cc(Br)c(-c2ccnc3[nH]ccc23)s1

>  <canonical_smi>  (48) 
NC[C@H](Cc1cccc(F)c1)NC(=O)c1cc(Br)c(-c2ccnc3[nH]ccc23)s1

>  <Set>  (48) 
G2 active

>  <Set_type>  (48) 
Test

>  <MW>  (48) 
473.37

>  <HBD>  (48) 
3

>  <HBA>  (48) 
3

>  <NRB>  (48) 
6

>  <NR>  (48) 
4

>  <NAR>  (48) 
4

>  <PSA>  (48) 
83.8

>  <Standard Type>  (48) 
nan

>  <Standard Relation>  (48) 
nan

>  <Standard Units>  (48) 
nan

>  <Standard Value>  (48) 
nan

>  <Assay ChEMBL ID>  (48) 
nan

>  <Assay Description>  (48) 
nan

>  <BAO Label>  (48) 
nan

>  <bits>  (48) 
<rdkit.DataStructs.cDataStructs.ExplicitBitVect object at 0x000001A37F957220>

>  <Group>  (48) 
G1

$$$$

     RDKit          2D

 35 40  0  0  0  0  0  0  0  0999 V2000
   -2.6401   -3.1891    0.0000 C   0  0  0  0  0  0  0  0  0  0  0  0
   -1.2135   -2.7256    0.0000 C   0  0  0  0  0  0  0  0  0  0  0  0
   -0.0000   -3.6073    0.0000 N   0  0  0  0  0  0  0  0  0  0  0  0
    1.2135   -2.7256    0.0000 N   0  0  0  0  0  0  0  0  0  0  0  0
    0.7500   -1.2990    0.0000 C   0  0  0  0  0  0  0  0  0  0  0  0
    1.5000    0.0000    0.0000 C   0  0  0  0  0  0  0  0  0  0  0  0
    0.7500    1.2990    0.0000 N   0  0  0  0  0  0  0  0  0  0  0  0
   -0.7500    1.2990    0.0000 C   0  0  0  0  0  0  0  0  0  0  0  0
   -1.5000    2.5981    0.0000 C   0  0  0  0  0  0  0  0  0  0  0  0
   -0.7500    3.8971    0.0000 C   0  0  0  0  0  0  0  0  0  0  0  0
   -1.5000    5.1962    0.0000 C   0  0  0  0  0  0  0  0  0  0  0  0
   -0.7500    6.4952    0.0000 O   0  0  0  0  0  0  0  0  0  0  0  0
    0.7500    6.4952    0.0000 C   0  0  0  0  0  0  0  0  0  0  0  0
    1.5000    7.7942    0.0000 C   0  0  0  0  0  0  0  0  0  0  0  0
    0.7500    9.0933    0.0000 N   0  0  0  0  0  0  0  0  0  0  0  0
    3.0000    7.7942    0.0000 C   0  0  0  0  0  0  0  0  0  0  0  0
    3.7500    9.0933    0.0000 C   0  0  0  0  0  0  0  0  0  0  0  0
    3.1399   10.4636    0.0000 C   0  0  0  0  0  0  0  0  0  0  0  0
    4.2546   11.4673    0.0000 N   0  0  0  0  0  0  0  0  0  0  0  0
    5.5537   10.7173    0.0000 C   0  0  0  0  0  0  0  0  0  0  0  0
    6.9802   11.1808    0.0000 C   0  0  0  0  0  0  0  0  0  0  0  0
    8.0950   10.1771    0.0000 C   0  0  0  0  0  0  0  0  0  0  0  0
    7.7831    8.7099    0.0000 C   0  0  0  0  0  0  0  0  0  0  0  0
    6.3565    8.2464    0.0000 C   0  0  0  0  0  0  0  0  0  0  0  0
    5.2418    9.2501    0.0000 C   0  0  0  0  0  0  0  0  0  0  0  0
   -3.0000    5.1962    0.0000 C   0  0  0  0  0  0  0  0  0  0  0  0
   -3.7500    3.8971    0.0000 N   0  0  0  0  0  0  0  0  0  0  0  0
   -3.0000    2.5981    0.0000 C   0  0  0  0  0  0  0  0  0  0  0  0
   -3.7500    1.2990    0.0000 C   0  0  0  0  0  0  0  0  0  0  0  0
   -3.1399   -0.0713    0.0000 C   0  0  0  0  0  0  0  0  0  0  0  0
   -4.2546   -1.0750    0.0000 C   0  0  0  0  0  0  0  0  0  0  0  0
   -5.5537   -0.3250    0.0000 O   0  0  0  0  0  0  0  0  0  0  0  0
   -5.2418    1.1422    0.0000 C   0  0  0  0  0  0  0  0  0  0  0  0
   -1.5000    0.0000    0.0000 C   0  0  0  0  0  0  0  0  0  0  0  0
   -0.7500   -1.2990    0.0000 C   0  0  0  0  0  0  0  0  0  0  0  0
  1  2  1  0
  2  3  2  0
  3  4  1  0
  4  5  1  0
  5  6  2  0
  6  7  1  0
  7  8  2  0
  8  9  1  0
  9 10  2  0
 10 11  1  0
 11 12  1  0
 12 13  1  0
 13 14  1  0
 14 15  1  1
 14 16  1  0
 16 17  1  0
 17 18  2  0
 18 19  1  0
 19 20  1  0
 20 21  2  0
 21 22  1  0
 22 23  2  0
 23 24  1  0
 24 25  2  0
 11 26  2  0
 26 27  1  0
 27 28  2  0
 28 29  1  0
 29 30  1  0
 30 31  2  0
 31 32  1  0
 32 33  1  0
  8 34  1  0
 34 35  2  0
 35  2  1  0
 35  5  1  0
 28  9  1  0
 33 29  2  0
 25 17  1  0
 25 20  1  0
M  END
>  <Compound_ID>  (49) 
CHEMBL594933

>  <Active>  (49) 
1

>  <Smiles>  (49) 
Cc1n[nH]c2cnc(-c3cc(OC[C@@H](N)Cc4c[nH]c5ccccc45)cnc3-c3ccoc3)cc12

>  <canonical_smi>  (49) 
Cc1n[nH]c2cnc(-c3cc(OC[C@@H](N)Cc4c[nH]c5ccccc45)cnc3-c3ccoc3)cc12

>  <Set>  (49) 
G2 active

>  <Set_type>  (49) 
Test

>  <MW>  (49) 
464.53

>  <HBD>  (49) 
3

>  <HBA>  (49) 
6

>  <NRB>  (49) 
7

>  <NR>  (49) 
6

>  <NAR>  (49) 
6

>  <PSA>  (49) 
118.64

>  <Standard Type>  (49) 
nan

>  <Standard Relation>  (49) 
nan

>  <Standard Units>  (49) 
nan

>  <Standard Value>  (49) 
nan

>  <Assay ChEMBL ID>  (49) 
nan

>  <Assay Description>  (49) 
nan

>  <BAO Label>  (49) 
nan

>  <bits>  (49) 
<rdkit.DataStructs.cDataStructs.ExplicitBitVect object at 0x000001A37F9571B0>

>  <Group>  (49) 
G1

$$$$

     RDKit          2D

 41 47  0  0  0  0  0  0  0  0999 V2000
    3.0000    0.0000    0.0000 O   0  0  0  0  0  0  0  0  0  0  0  0
    1.5000    0.0000    0.0000 C   0  0  0  0  0  0  0  0  0  0  0  0
    0.7500   -1.2990    0.0000 N   0  0  0  0  0  0  0  0  0  0  0  0
   -0.7500   -1.2990    0.0000 C   0  0  0  0  0  0  0  0  0  0  0  0
   -1.5000    0.0000    0.0000 C   0  0  0  0  0  0  0  0  0  0  0  0
   -0.7500    1.2990    0.0000 C   0  0  0  0  0  0  0  0  0  0  0  0
   -1.5000    2.5981    0.0000 N   0  0  0  0  0  0  0  0  0  0  0  0
   -0.7500    3.8971    0.0000 C   0  0  0  0  0  0  0  0  0  0  0  0
   -1.5000    5.1962    0.0000 C   0  0  0  0  0  0  0  0  0  0  0  0
   -0.7500    6.4952    0.0000 C   0  0  0  0  0  0  0  0  0  0  0  0
   -1.5000    7.7942    0.0000 C   0  0  0  0  0  0  0  0  0  0  0  0
   -3.0000    7.7942    0.0000 C   0  0  0  0  0  0  0  0  0  0  0  0
   -3.7500    9.0933    0.0000 C   0  0  0  0  0  0  0  0  0  0  0  0
   -3.0000   10.3923    0.0000 N   0  0  0  0  0  0  0  0  0  0  0  0
   -1.5000   10.3923    0.0000 C   0  0  0  0  0  0  0  0  0  0  0  0
   -0.7500   11.6913    0.0000 C   0  0  0  0  0  0  0  0  0  0  0  0
   -1.5000   12.9904    0.0000 C   0  0  0  0  0  0  0  0  0  0  0  0
   -0.7500   14.2894    0.0000 C   0  0  0  0  0  0  0  0  0  0  0  0
   -1.3601   15.6597    0.0000 N   0  0  0  0  0  0  0  0  0  0  0  0
   -0.2454   16.6634    0.0000 N   0  0  0  0  0  0  0  0  0  0  0  0
    1.0537   15.9134    0.0000 C   0  0  0  0  0  0  0  0  0  0  0  0
    2.4240   16.5235    0.0000 C   0  0  0  0  0  0  0  0  0  0  0  0
    3.6375   15.6419    0.0000 C   0  0  0  0  0  0  0  0  0  0  0  0
    5.0078   16.2520    0.0000 N   0  0  0  0  0  0  0  0  0  0  0  0
    5.1646   17.7437    0.0000 C   0  0  0  0  0  0  0  0  0  0  0  0
    3.9511   18.6254    0.0000 C   0  0  0  0  0  0  0  0  0  0  0  0
    2.5808   18.0153    0.0000 N   0  0  0  0  0  0  0  0  0  0  0  0
    0.7418   14.4462    0.0000 N   0  0  0  0  0  0  0  0  0  0  0  0
   -3.0000   12.9904    0.0000 C   0  0  0  0  0  0  0  0  0  0  0  0
   -3.7500   11.6913    0.0000 C   0  0  0  0  0  0  0  0  0  0  0  0
   -3.7500    6.4952    0.0000 C   0  0  0  0  0  0  0  0  0  0  0  0
   -3.0000    5.1962    0.0000 C   0  0  0  0  0  0  0  0  0  0  0  0
    0.7500    3.8971    0.0000 C   0  0  0  0  0  0  0  0  0  0  0  0
    1.5000    5.1962    0.0000 C   0  0  0  0  0  0  0  0  0  0  0  0
    3.0000    5.1962    0.0000 C   0  0  0  0  0  0  0  0  0  0  0  0
    3.7500    6.4952    0.0000 C   0  0  0  0  0  0  0  0  0  0  0  0
    3.0000    7.7942    0.0000 C   0  0  0  0  0  0  0  0  0  0  0  0
    1.5000    7.7942    0.0000 C   0  0  0  0  0  0  0  0  0  0  0  0
    0.7500    6.4952    0.0000 C   0  0  0  0  0  0  0  0  0  0  0  0
    1.5000    2.5981    0.0000 C   0  0  0  0  0  0  0  0  0  0  0  0
    0.7500    1.2990    0.0000 C   0  0  0  0  0  0  0  0  0  0  0  0
  1  2  2  0
  2  3  1  0
  3  4  1  0
  4  5  2  0
  5  6  1  0
  6  7  2  0
  7  8  1  0
  8  9  1  0
  9 10  2  0
 10 11  1  0
 11 12  2  0
 12 13  1  0
 13 14  1  0
 14 15  1  0
 15 16  1  0
 16 17  1  0
 17 18  1  0
 18 19  2  0
 19 20  1  0
 20 21  2  0
 21 22  1  0
 22 23  2  0
 23 24  1  0
 24 25  2  0
 25 26  1  0
 26 27  2  0
 21 28  1  0
 17 29  1  0
 29 30  1  0
 12 31  1  0
 31 32  2  0
  8 33  2  0
 33 34  1  0
 34 35  2  0
 35 36  1  0
 36 37  2  0
 37 38  1  0
 38 39  2  0
 33 40  1  0
 40 41  2  0
 41  2  1  0
 41  6  1  0
 32  9  1  0
 39 34  1  0
 30 14  1  0
 28 18  1  0
 27 22  1  0
M  END
>  <Compound_ID>  (50) 
CHEMBL444136

>  <Active>  (50) 
1

>  <Smiles>  (50) 
O=c1[nH]ccc2nc(-c3ccc(CN4CCC(c5nnc(-c6cnccn6)[nH]5)CC4)cc3)c(-c3ccccc3)cc12

>  <canonical_smi>  (50) 
O=c1[nH]ccc2nc(-c3ccc(CN4CCC(c5nnc(-c6cnccn6)[nH]5)CC4)cc3)c(-c3ccccc3)cc12

>  <Set>  (50) 
G2 active

>  <Set_type>  (50) 
Test

>  <MW>  (50) 
540.63

>  <HBD>  (50) 
2

>  <HBA>  (50) 
7

>  <NRB>  (50) 
6

>  <NR>  (50) 
7

>  <NAR>  (50) 
6

>  <PSA>  (50) 
116.34

>  <Standard Type>  (50) 
nan

>  <Standard Relation>  (50) 
nan

>  <Standard Units>  (50) 
nan

>  <Standard Value>  (50) 
nan

>  <Assay ChEMBL ID>  (50) 
nan

>  <Assay Description>  (50) 
nan

>  <BAO Label>  (50) 
nan

>  <bits>  (50) 
<rdkit.DataStructs.cDataStructs.ExplicitBitVect object at 0x000001A37F957140>

>  <Group>  (50) 
G1

$$$$
