
     RDKit          2D

 26 28  0  0  0  0  0  0  0  0999 V2000
   -3.4408    8.1628    0.0000 C   0  0  0  0  0  0  0  0  0  0  0  0
   -3.7527    6.6955    0.0000 C   0  0  0  0  0  0  0  0  0  0  0  0
   -2.6380    5.6918    0.0000 C   0  0  0  0  0  0  0  0  0  0  0  0
   -1.2114    6.1554    0.0000 C   0  0  0  0  0  0  0  0  0  0  0  0
   -0.8995    7.6226    0.0000 O   0  0  0  0  0  0  0  0  0  0  0  0
   -2.9499    4.2246    0.0000 N   0  0  0  0  0  0  0  0  0  0  0  0
   -1.8351    3.2209    0.0000 C   0  0  0  0  0  0  0  0  0  0  0  0
   -0.4086    3.6844    0.0000 N   0  0  0  0  0  0  0  0  0  0  0  0
    0.7062    2.6807    0.0000 C   0  0  0  0  0  0  0  0  0  0  0  0
    2.1328    3.1443    0.0000 N   0  0  0  0  0  0  0  0  0  0  0  0
    2.4446    4.6115    0.0000 C   0  0  0  0  0  0  0  0  0  0  0  0
    3.8712    5.0750    0.0000 C   0  0  0  0  0  0  0  0  0  0  0  0
    4.9859    4.0713    0.0000 C   0  0  0  0  0  0  0  0  0  0  0  0
    6.4125    4.5348    0.0000 C   0  0  0  0  0  0  0  0  0  0  0  0
    6.7244    6.0021    0.0000 C   0  0  0  0  0  0  0  0  0  0  0  0
    5.6097    7.0058    0.0000 C   0  0  0  0  0  0  0  0  0  0  0  0
    4.1831    6.5422    0.0000 C   0  0  0  0  0  0  0  0  0  0  0  0
    0.3943    1.2135    0.0000 C   0  0  0  0  0  0  0  0  0  0  0  0
    1.2760    0.0000    0.0000 N   0  0  0  0  0  0  0  0  0  0  0  0
    0.3943   -1.2135    0.0000 C   0  0  0  0  0  0  0  0  0  0  0  0
   -1.0323   -0.7500    0.0000 N   0  0  0  0  0  0  0  0  0  0  0  0
   -2.2458   -1.6317    0.0000 C   0  0  0  0  0  0  0  0  0  0  0  0
   -2.0890   -3.1235    0.0000 C   0  0  0  0  0  0  0  0  0  0  0  0
   -3.6161   -1.0216    0.0000 C   0  0  0  0  0  0  0  0  0  0  0  0
   -1.0323    0.7500    0.0000 C   0  0  0  0  0  0  0  0  0  0  0  0
   -2.1470    1.7537    0.0000 N   0  0  0  0  0  0  0  0  0  0  0  0
  1  2  1  0
  2  3  1  0
  3  4  1  0
  4  5  1  0
  3  6  1  0
  6  7  1  0
  7  8  2  0
  8  9  1  0
  9 10  1  0
 10 11  1  0
 11 12  1  0
 12 13  2  0
 13 14  1  0
 14 15  2  0
 15 16  1  0
 16 17  2  0
  9 18  2  0
 18 19  1  0
 19 20  2  0
 20 21  1  0
 21 22  1  0
 22 23  1  0
 22 24  1  0
 21 25  1  0
 25 26  2  0
 26  7  1  0
 17 12  1  0
 25 18  1  0
M  END
>  <Compound_ID>  (1) 
CHEMBL52387

>  <Active>  (1) 
1

>  <Smiles>  (1) 
CCC(CO)Nc1nc(NCc2ccccc2)c2ncn(C(C)C)c2n1

>  <canonical_smi>  (1) 
CCC(CO)Nc1nc(NCc2ccccc2)c2ncn(C(C)C)c2n1

>  <Set>  (1) 
G1 active

>  <Set_type>  (1) 
G1

>  <MW>  (1) 
354.46

>  <HBD>  (1) 
3

>  <HBA>  (1) 
6

>  <NRB>  (1) 
8

>  <NR>  (1) 
3

>  <NAR>  (1) 
3

>  <PSA>  (1) 
87.89

>  <Standard Type>  (1) 
nan

>  <Standard Relation>  (1) 
nan

>  <Standard Units>  (1) 
nan

>  <Standard Value>  (1) 
nan

>  <Assay ChEMBL ID>  (1) 
nan

>  <Assay Description>  (1) 
nan

>  <BAO Label>  (1) 
nan

$$$$

     RDKit          2D

 34 37  0  0  0  0  0  0  0  0999 V2000
    4.6740   -4.8322    0.0000 C   0  0  0  0  0  0  0  0  0  0  0  0
    3.3037   -4.2221    0.0000 C   0  0  0  0  0  0  0  0  0  0  0  0
    2.0046   -4.9721    0.0000 N   0  0  0  0  0  0  0  0  0  0  0  0
    0.8899   -3.9684    0.0000 C   0  0  0  0  0  0  0  0  0  0  0  0
    1.5000   -2.5981    0.0000 C   0  0  0  0  0  0  0  0  0  0  0  0
    0.7500   -1.2990    0.0000 C   0  0  0  0  0  0  0  0  0  0  0  0
    1.5000    0.0000    0.0000 N   0  0  0  0  0  0  0  0  0  0  0  0
    0.7500    1.2990    0.0000 C   0  0  0  0  0  0  0  0  0  0  0  0
    1.5000    2.5981    0.0000 N   0  0  0  0  0  0  0  0  0  0  0  0
    3.0000    2.5981    0.0000 C   0  0  0  0  0  0  0  0  0  0  0  0
    3.7500    1.2990    0.0000 C   0  0  0  0  0  0  0  0  0  0  0  0
    5.2500    1.2990    0.0000 C   0  0  0  0  0  0  0  0  0  0  0  0
    6.0000    2.5981    0.0000 C   0  0  0  0  0  0  0  0  0  0  0  0
    7.5000    2.5981    0.0000 C   0  0  0  0  0  0  0  0  0  0  0  0
    8.2500    3.8971    0.0000 O   0  0  0  0  0  0  0  0  0  0  0  0
    8.2500    1.2990    0.0000 N   0  0  0  0  0  0  0  0  0  0  0  0
    9.7500    1.2990    0.0000 C   0  0  0  0  0  0  0  0  0  0  0  0
   10.5000   -0.0000    0.0000 C   0  0  0  0  0  0  0  0  0  0  0  0
   12.0000   -0.0000    0.0000 C   0  0  0  0  0  0  0  0  0  0  0  0
   12.7500    1.2990    0.0000 N   0  0  0  0  0  0  0  0  0  0  0  0
   14.2500    1.2990    0.0000 C   0  0  0  0  0  0  0  0  0  0  0  0
   12.0000    2.5981    0.0000 C   0  0  0  0  0  0  0  0  0  0  0  0
   10.5000    2.5981    0.0000 C   0  0  0  0  0  0  0  0  0  0  0  0
    5.2500    3.8971    0.0000 C   0  0  0  0  0  0  0  0  0  0  0  0
    6.0000    5.1962    0.0000 F   0  0  0  0  0  0  0  0  0  0  0  0
    3.7500    3.8971    0.0000 C   0  0  0  0  0  0  0  0  0  0  0  0
   -0.7500    1.2990    0.0000 N   0  0  0  0  0  0  0  0  0  0  0  0
   -1.5000    0.0000    0.0000 C   0  0  0  0  0  0  0  0  0  0  0  0
   -0.7500   -1.2990    0.0000 C   0  0  0  0  0  0  0  0  0  0  0  0
   -1.5000   -2.5981    0.0000 F   0  0  0  0  0  0  0  0  0  0  0  0
    2.9918   -2.7549    0.0000 N   0  0  0  0  0  0  0  0  0  0  0  0
    3.9955   -1.6402    0.0000 C   0  0  0  0  0  0  0  0  0  0  0  0
    5.4627   -1.9520    0.0000 C   0  0  0  0  0  0  0  0  0  0  0  0
    3.5320   -0.2136    0.0000 C   0  0  0  0  0  0  0  0  0  0  0  0
  1  2  1  0
  2  3  2  0
  3  4  1  0
  4  5  2  0
  5  6  1  0
  6  7  2  0
  7  8  1  0
  8  9  1  0
  9 10  1  0
 10 11  2  0
 11 12  1  0
 12 13  2  0
 13 14  1  0
 14 15  2  0
 14 16  1  0
 16 17  1  0
 17 18  1  0
 18 19  1  0
 19 20  1  0
 20 21  1  0
 20 22  1  0
 22 23  1  0
 13 24  1  0
 24 25  1  0
 24 26  2  0
  8 27  2  0
 27 28  1  0
 28 29  2  0
 29 30  1  0
  5 31  1  0
 31 32  1  0
 32 33  1  0
 32 34  1  0
 31  2  1  0
 29  6  1  0
 26 10  1  0
 23 17  1  0
M  END
>  <Compound_ID>  (2) 
CHEMBL509406

>  <Active>  (2) 
1

>  <Smiles>  (2) 
Cc1ncc(-c2nc(Nc3ccc(C(=O)NC4CCN(C)CC4)c(F)c3)ncc2F)n1C(C)C

>  <canonical_smi>  (2) 
Cc1ncc(-c2nc(Nc3ccc(C(=O)NC4CCN(C)CC4)c(F)c3)ncc2F)n1C(C)C

>  <Set>  (2) 
G1 active

>  <Set_type>  (2) 
G1

>  <MW>  (2) 
469.54

>  <HBD>  (2) 
2

>  <HBA>  (2) 
6

>  <NRB>  (2) 
6

>  <NR>  (2) 
4

>  <NAR>  (2) 
3

>  <PSA>  (2) 
87.97

>  <Standard Type>  (2) 
nan

>  <Standard Relation>  (2) 
nan

>  <Standard Units>  (2) 
nan

>  <Standard Value>  (2) 
nan

>  <Assay ChEMBL ID>  (2) 
nan

>  <Assay Description>  (2) 
nan

>  <BAO Label>  (2) 
nan

$$$$

     RDKit          2D

 36 39  0  0  0  0  0  0  0  0999 V2000
    3.7500   -9.0933    0.0000 C   0  0  0  0  0  0  0  0  0  0  0  0
    3.0000   -7.7942    0.0000 O   0  0  0  0  0  0  0  0  0  0  0  0
    1.5000   -7.7942    0.0000 C   0  0  0  0  0  0  0  0  0  0  0  0
    0.7500   -9.0933    0.0000 C   0  0  0  0  0  0  0  0  0  0  0  0
   -0.7500   -9.0933    0.0000 C   0  0  0  0  0  0  0  0  0  0  0  0
   -1.5000   -7.7942    0.0000 C   0  0  0  0  0  0  0  0  0  0  0  0
   -0.7500   -6.4952    0.0000 C   0  0  0  0  0  0  0  0  0  0  0  0
   -1.5000   -5.1962    0.0000 O   0  0  0  0  0  0  0  0  0  0  0  0
   -3.0000   -5.1962    0.0000 C   0  0  0  0  0  0  0  0  0  0  0  0
    0.7500   -6.4952    0.0000 C   0  0  0  0  0  0  0  0  0  0  0  0
    1.5000   -5.1962    0.0000 C   0  0  0  0  0  0  0  0  0  0  0  0
    0.7500   -3.8971    0.0000 N   0  0  0  0  0  0  0  0  0  0  0  0
    1.5000   -2.5981    0.0000 C   0  0  0  0  0  0  0  0  0  0  0  0
    3.0000   -2.5981    0.0000 O   0  0  0  0  0  0  0  0  0  0  0  0
    0.7500   -1.2990    0.0000 C   0  0  0  0  0  0  0  0  0  0  0  0
    1.5000    0.0000    0.0000 C   0  0  0  0  0  0  0  0  0  0  0  0
    0.7500    1.2990    0.0000 C   0  0  0  0  0  0  0  0  0  0  0  0
   -0.7500    1.2990    0.0000 C   0  0  0  0  0  0  0  0  0  0  0  0
   -1.5000    0.0000    0.0000 C   0  0  0  0  0  0  0  0  0  0  0  0
   -0.7500   -1.2990    0.0000 C   0  0  0  0  0  0  0  0  0  0  0  0
   -2.9672    0.3119    0.0000 C   0  0  0  0  0  0  0  0  0  0  0  0
   -4.0819   -0.6918    0.0000 N   0  0  0  0  0  0  0  0  0  0  0  0
   -5.5085   -0.2283    0.0000 N   0  0  0  0  0  0  0  0  0  0  0  0
   -6.6232   -1.2320    0.0000 C   0  0  0  0  0  0  0  0  0  0  0  0
   -8.0498   -0.7685    0.0000 C   0  0  0  0  0  0  0  0  0  0  0  0
   -9.1645   -1.7722    0.0000 C   0  0  0  0  0  0  0  0  0  0  0  0
   -8.8527   -3.2394    0.0000 C   0  0  0  0  0  0  0  0  0  0  0  0
   -9.9674   -4.2431    0.0000 S   0  0  0  0  0  0  0  0  0  0  0  0
  -11.0821   -5.2468    0.0000 N   0  0  0  0  0  0  0  0  0  0  0  0
  -10.9711   -3.1284    0.0000 O   0  0  0  0  0  0  0  0  0  0  0  0
   -8.9637   -5.3578    0.0000 O   0  0  0  0  0  0  0  0  0  0  0  0
   -7.4261   -3.7029    0.0000 C   0  0  0  0  0  0  0  0  0  0  0  0
   -6.3114   -2.6992    0.0000 C   0  0  0  0  0  0  0  0  0  0  0  0
   -3.1240    1.8037    0.0000 C   0  0  0  0  0  0  0  0  0  0  0  0
   -4.4231    2.5537    0.0000 O   0  0  0  0  0  0  0  0  0  0  0  0
   -1.7537    2.4138    0.0000 N   0  0  0  0  0  0  0  0  0  0  0  0
  1  2  1  0
  2  3  1  0
  3  4  2  0
  4  5  1  0
  5  6  2  0
  6  7  1  0
  7  8  1  0
  8  9  1  0
  7 10  2  0
 10 11  1  0
 11 12  1  0
 12 13  1  0
 13 14  2  0
 13 15  1  0
 15 16  2  0
 16 17  1  0
 17 18  2  0
 18 19  1  0
 19 20  2  0
 19 21  1  0
 21 22  2  0
 22 23  1  0
 23 24  1  0
 24 25  2  0
 25 26  1  0
 26 27  2  0
 27 28  1  0
 28 29  1  0
 28 30  2  0
 28 31  2  0
 27 32  1  0
 32 33  2  0
 21 34  1  0
 34 35  2  0
 34 36  1  0
 10  3  1  0
 20 15  1  0
 33 24  1  0
 36 18  1  0
M  END
>  <Compound_ID>  (3) 
CHEMBL271136

>  <Active>  (3) 
1

>  <Smiles>  (3) 
COc1cccc(OC)c1CNC(=O)c1ccc2c(c1)/C(=N/Nc1ccc(S(N)(=O)=O)cc1)C(=O)N2

>  <canonical_smi>  (3) 
COc1cccc(OC)c1CNC(=O)c1ccc2c(c1)/C(=N/Nc1ccc(S(N)(=O)=O)cc1)C(=O)N2

>  <Set>  (3) 
G1 active

>  <Set_type>  (3) 
G1

>  <MW>  (3) 
509.54

>  <HBD>  (3) 
4

>  <HBA>  (3) 
7

>  <NRB>  (3) 
8

>  <NR>  (3) 
4

>  <NAR>  (3) 
3

>  <PSA>  (3) 
161.21

>  <Standard Type>  (3) 
nan

>  <Standard Relation>  (3) 
nan

>  <Standard Units>  (3) 
nan

>  <Standard Value>  (3) 
nan

>  <Assay ChEMBL ID>  (3) 
nan

>  <Assay Description>  (3) 
nan

>  <BAO Label>  (3) 
nan

$$$$

     RDKit          2D

 26 29  0  0  0  0  0  0  0  0999 V2000
   -4.7368    5.6908    0.0000 N   0  0  0  0  0  0  0  0  0  0  0  0
   -5.0487    4.2236    0.0000 S   0  0  0  0  0  0  0  0  0  0  0  0
   -3.5814    3.9117    0.0000 O   0  0  0  0  0  0  0  0  0  0  0  0
   -6.5159    4.5355    0.0000 O   0  0  0  0  0  0  0  0  0  0  0  0
   -5.3605    2.7564    0.0000 C   0  0  0  0  0  0  0  0  0  0  0  0
   -4.2458    1.7527    0.0000 C   0  0  0  0  0  0  0  0  0  0  0  0
   -4.5577    0.2855    0.0000 C   0  0  0  0  0  0  0  0  0  0  0  0
   -5.9843   -0.1781    0.0000 C   0  0  0  0  0  0  0  0  0  0  0  0
   -6.2961   -1.6453    0.0000 N   0  0  0  0  0  0  0  0  0  0  0  0
   -5.1814   -2.6490    0.0000 C   0  0  0  0  0  0  0  0  0  0  0  0
   -5.4933   -4.1162    0.0000 N   0  0  0  0  0  0  0  0  0  0  0  0
   -4.3786   -5.1199    0.0000 C   0  0  0  0  0  0  0  0  0  0  0  0
   -2.9520   -4.6564    0.0000 C   0  0  0  0  0  0  0  0  0  0  0  0
   -2.6401   -3.1891    0.0000 C   0  0  0  0  0  0  0  0  0  0  0  0
   -1.2135   -2.7256    0.0000 C   0  0  0  0  0  0  0  0  0  0  0  0
   -0.0000   -3.6073    0.0000 C   0  0  0  0  0  0  0  0  0  0  0  0
    1.2135   -2.7256    0.0000 N   0  0  0  0  0  0  0  0  0  0  0  0
    0.7500   -1.2990    0.0000 C   0  0  0  0  0  0  0  0  0  0  0  0
    1.5000    0.0000    0.0000 C   0  0  0  0  0  0  0  0  0  0  0  0
    0.7500    1.2990    0.0000 C   0  0  0  0  0  0  0  0  0  0  0  0
   -0.7500    1.2990    0.0000 C   0  0  0  0  0  0  0  0  0  0  0  0
   -1.5000    0.0000    0.0000 C   0  0  0  0  0  0  0  0  0  0  0  0
   -0.7500   -1.2990    0.0000 N   0  0  0  0  0  0  0  0  0  0  0  0
   -3.7548   -2.1855    0.0000 N   0  0  0  0  0  0  0  0  0  0  0  0
   -7.0990    0.8256    0.0000 C   0  0  0  0  0  0  0  0  0  0  0  0
   -6.7871    2.2929    0.0000 C   0  0  0  0  0  0  0  0  0  0  0  0
  1  2  1  0
  2  3  2  0
  2  4  2  0
  2  5  1  0
  5  6  2  0
  6  7  1  0
  7  8  2  0
  8  9  1  0
  9 10  1  0
 10 11  2  0
 11 12  1  0
 12 13  2  0
 13 14  1  0
 14 15  1  0
 15 16  2  0
 16 17  1  0
 17 18  2  0
 18 19  1  0
 19 20  2  0
 20 21  1  0
 21 22  2  0
 22 23  1  0
 14 24  2  0
  8 25  1  0
 25 26  2  0
 26  5  1  0
 24 10  1  0
 23 15  1  0
 23 18  1  0
M  END
>  <Compound_ID>  (4) 
CHEMBL73303

>  <Active>  (4) 
1

>  <Smiles>  (4) 
NS(=O)(=O)c1ccc(Nc2nccc(-c3cnc4ccccn34)n2)cc1

>  <canonical_smi>  (4) 
NS(=O)(=O)c1ccc(Nc2nccc(-c3cnc4ccccn34)n2)cc1

>  <Set>  (4) 
G1 active

>  <Set_type>  (4) 
G1

>  <MW>  (4) 
366.41

>  <HBD>  (4) 
2

>  <HBA>  (4) 
6

>  <NRB>  (4) 
4

>  <NR>  (4) 
4

>  <NAR>  (4) 
4

>  <PSA>  (4) 
115.27

>  <Standard Type>  (4) 
nan

>  <Standard Relation>  (4) 
nan

>  <Standard Units>  (4) 
nan

>  <Standard Value>  (4) 
nan

>  <Assay ChEMBL ID>  (4) 
nan

>  <Assay Description>  (4) 
nan

>  <BAO Label>  (4) 
nan

$$$$

     RDKit          2D

 25 27  0  0  0  0  0  0  0  0999 V2000
   -6.9204   -5.2665    0.0000 C   0  0  0  0  0  0  0  0  0  0  0  0
   -5.6213   -4.5165    0.0000 O   0  0  0  0  0  0  0  0  0  0  0  0
   -4.3223   -5.2665    0.0000 C   0  0  0  0  0  0  0  0  0  0  0  0
   -4.1655   -6.7583    0.0000 C   0  0  0  0  0  0  0  0  0  0  0  0
   -2.6983   -7.0701    0.0000 C   0  0  0  0  0  0  0  0  0  0  0  0
   -1.9483   -5.7711    0.0000 N   0  0  0  0  0  0  0  0  0  0  0  0
   -2.9520   -4.6564    0.0000 C   0  0  0  0  0  0  0  0  0  0  0  0
   -2.6401   -3.1891    0.0000 C   0  0  0  0  0  0  0  0  0  0  0  0
   -1.2135   -2.7256    0.0000 C   0  0  0  0  0  0  0  0  0  0  0  0
   -0.0000   -3.6073    0.0000 C   0  0  0  0  0  0  0  0  0  0  0  0
    0.0000   -5.1073    0.0000 O   0  0  0  0  0  0  0  0  0  0  0  0
    1.2135   -2.7256    0.0000 N   0  0  0  0  0  0  0  0  0  0  0  0
    0.7500   -1.2990    0.0000 C   0  0  0  0  0  0  0  0  0  0  0  0
    1.5000    0.0000    0.0000 C   0  0  0  0  0  0  0  0  0  0  0  0
    0.7500    1.2990    0.0000 C   0  0  0  0  0  0  0  0  0  0  0  0
   -0.7500    1.2990    0.0000 C   0  0  0  0  0  0  0  0  0  0  0  0
   -1.5000    2.5981    0.0000 F   0  0  0  0  0  0  0  0  0  0  0  0
   -1.5000    0.0000    0.0000 C   0  0  0  0  0  0  0  0  0  0  0  0
   -3.0000    0.0000    0.0000 C   0  0  0  0  0  0  0  0  0  0  0  0
   -4.5000    0.0000    0.0000 C   0  0  0  0  0  0  0  0  0  0  0  0
   -6.0000    0.0000    0.0000 C   0  0  0  0  0  0  0  0  0  0  0  0
   -6.7500   -1.2990    0.0000 N   0  0  0  0  0  0  0  0  0  0  0  0
   -6.7500    1.2990    0.0000 C   0  0  0  0  0  0  0  0  0  0  0  0
   -8.2500    1.2990    0.0000 O   0  0  0  0  0  0  0  0  0  0  0  0
   -0.7500   -1.2990    0.0000 C   0  0  0  0  0  0  0  0  0  0  0  0
  1  2  1  0
  2  3  1  0
  3  4  1  0
  4  5  2  0
  5  6  1  0
  6  7  1  0
  7  8  1  0
  8  9  2  0
  9 10  1  0
 10 11  2  0
 10 12  1  0
 12 13  1  0
 13 14  2  0
 14 15  1  0
 15 16  2  0
 16 17  1  0
 16 18  1  0
 18 19  1  0
 19 20  3  0
 20 21  1  0
 21 22  1  6
 21 23  1  0
 23 24  1  0
 18 25  2  0
  7  3  2  0
 25  9  1  0
 25 13  1  0
M  END
>  <Compound_ID>  (5) 
CHEMBL424207

>  <Active>  (5) 
1

>  <Smiles>  (5) 
COc1cc[nH]c1/C=C1\C(=O)Nc2ccc(F)c(C#C[C@H](N)CO)c21

>  <canonical_smi>  (5) 
COc1cc[nH]c1/C=C1\C(=O)Nc2ccc(F)c(C#C[C@H](N)CO)c21

>  <Set>  (5) 
G1 active

>  <Set_type>  (5) 
G1

>  <MW>  (5) 
341.34

>  <HBD>  (5) 
4

>  <HBA>  (5) 
4

>  <NRB>  (5) 
3

>  <NR>  (5) 
3

>  <NAR>  (5) 
2

>  <PSA>  (5) 
100.37

>  <Standard Type>  (5) 
nan

>  <Standard Relation>  (5) 
nan

>  <Standard Units>  (5) 
nan

>  <Standard Value>  (5) 
nan

>  <Assay ChEMBL ID>  (5) 
nan

>  <Assay Description>  (5) 
nan

>  <BAO Label>  (5) 
nan

$$$$

     RDKit          2D

 20 22  0  0  0  0  0  0  0  0999 V2000
    6.0000   -2.5981    0.0000 C   0  0  0  0  0  0  0  0  0  0  0  0
    5.2500   -1.2990    0.0000 C   0  0  0  0  0  0  0  0  0  0  0  0
    3.7500   -1.2990    0.0000 C   0  0  0  0  0  0  0  0  0  0  0  0
    3.0000    0.0000    0.0000 O   0  0  0  0  0  0  0  0  0  0  0  0
    1.5000    0.0000    0.0000 C   0  0  0  0  0  0  0  0  0  0  0  0
    0.7500   -1.2990    0.0000 C   0  0  0  0  0  0  0  0  0  0  0  0
   -0.7500   -1.2990    0.0000 C   0  0  0  0  0  0  0  0  0  0  0  0
   -1.5000    0.0000    0.0000 N   0  0  0  0  0  0  0  0  0  0  0  0
   -0.7500    1.2990    0.0000 C   0  0  0  0  0  0  0  0  0  0  0  0
   -1.2135    2.7256    0.0000 N   0  0  0  0  0  0  0  0  0  0  0  0
   -0.0000    3.6073    0.0000 C   0  0  0  0  0  0  0  0  0  0  0  0
    1.2135    2.7256    0.0000 C   0  0  0  0  0  0  0  0  0  0  0  0
    2.6401    3.1891    0.0000 C   0  0  0  0  0  0  0  0  0  0  0  0
    3.7548    2.1855    0.0000 C   0  0  0  0  0  0  0  0  0  0  0  0
    5.1814    2.6490    0.0000 C   0  0  0  0  0  0  0  0  0  0  0  0
    5.4933    4.1162    0.0000 N   0  0  0  0  0  0  0  0  0  0  0  0
    4.3786    5.1199    0.0000 C   0  0  0  0  0  0  0  0  0  0  0  0
    4.6904    6.5871    0.0000 N   0  0  0  0  0  0  0  0  0  0  0  0
    2.9520    4.6564    0.0000 N   0  0  0  0  0  0  0  0  0  0  0  0
    0.7500    1.2990    0.0000 C   0  0  0  0  0  0  0  0  0  0  0  0
  1  2  1  0
  2  3  1  0
  3  4  1  0
  4  5  1  0
  5  6  2  0
  6  7  1  0
  7  8  2  0
  8  9  1  0
  9 10  1  0
 10 11  1  0
 11 12  2  0
 12 13  1  0
 13 14  2  0
 14 15  1  0
 15 16  2  0
 16 17  1  0
 17 18  1  0
 17 19  2  0
 12 20  1  0
 20  5  1  0
 20  9  2  0
 19 13  1  0
M  END
>  <Compound_ID>  (6) 
CHEMBL270687

>  <Active>  (6) 
1

>  <Smiles>  (6) 
CCCOc1ccnc2[nH]cc(-c3ccnc(N)n3)c12

>  <canonical_smi>  (6) 
CCCOc1ccnc2[nH]cc(-c3ccnc(N)n3)c12

>  <Set>  (6) 
G1 active

>  <Set_type>  (6) 
G1

>  <MW>  (6) 
269.31

>  <HBD>  (6) 
2

>  <HBA>  (6) 
5

>  <NRB>  (6) 
4

>  <NR>  (6) 
3

>  <NAR>  (6) 
3

>  <PSA>  (6) 
89.71

>  <Standard Type>  (6) 
nan

>  <Standard Relation>  (6) 
nan

>  <Standard Units>  (6) 
nan

>  <Standard Value>  (6) 
nan

>  <Assay ChEMBL ID>  (6) 
nan

>  <Assay Description>  (6) 
nan

>  <BAO Label>  (6) 
nan

$$$$

     RDKit          2D

 30 35  0  0  0  0  0  0  0  0999 V2000
   -2.6113   -9.8118    0.0000 C   0  0  0  0  0  0  0  0  0  0  0  0
   -1.4817   -8.8249    0.0000 C   0  0  0  0  0  0  0  0  0  0  0  0
   -0.0193   -9.1586    0.0000 C   0  0  0  0  0  0  0  0  0  0  0  0
    0.7500   -7.8710    0.0000 C   0  0  0  0  0  0  0  0  0  0  0  0
   -0.7500   -7.8710    0.0000 C   0  0  0  0  0  0  0  0  0  0  0  0
   -2.1015   -7.2201    0.0000 N   0  0  0  0  0  0  0  0  0  0  0  0
   -3.0367   -6.0474    0.0000 C   0  0  0  0  0  0  0  0  0  0  0  0
   -3.3705   -4.5850    0.0000 C   0  0  0  0  0  0  0  0  0  0  0  0
   -3.0367   -3.1226    0.0000 N   0  0  0  0  0  0  0  0  0  0  0  0
   -2.1015   -1.9499    0.0000 N   0  0  0  0  0  0  0  0  0  0  0  0
   -0.7500   -1.2990    0.0000 C   0  0  0  0  0  0  0  0  0  0  0  0
    0.7500   -1.2990    0.0000 C   0  0  0  0  0  0  0  0  0  0  0  0
    1.5000    0.0000    0.0000 C   0  0  0  0  0  0  0  0  0  0  0  0
    0.7500    1.2990    0.0000 C   0  0  0  0  0  0  0  0  0  0  0  0
   -0.7500    1.2990    0.0000 C   0  0  0  0  0  0  0  0  0  0  0  0
   -1.5000    0.0000    0.0000 C   0  0  0  0  0  0  0  0  0  0  0  0
   -2.8269   -0.6995    0.0000 C   0  0  0  0  0  0  0  0  0  0  0  0
   -4.1728   -0.0372    0.0000 O   0  0  0  0  0  0  0  0  0  0  0  0
    2.1015   -1.9499    0.0000 C   0  0  0  0  0  0  0  0  0  0  0  0
    3.0367   -3.1226    0.0000 N   0  0  0  0  0  0  0  0  0  0  0  0
    3.3705   -4.5850    0.0000 C   0  0  0  0  0  0  0  0  0  0  0  0
    3.0367   -6.0474    0.0000 C   0  0  0  0  0  0  0  0  0  0  0  0
    4.1363   -7.0677    0.0000 C   0  0  0  0  0  0  0  0  0  0  0  0
    5.5696   -6.6255    0.0000 C   0  0  0  0  0  0  0  0  0  0  0  0
    5.9034   -5.1631    0.0000 C   0  0  0  0  0  0  0  0  0  0  0  0
    4.8038   -4.1429    0.0000 C   0  0  0  0  0  0  0  0  0  0  0  0
    4.6671   -2.3590    0.0000 N   0  0  0  0  0  0  0  0  0  0  0  0
    3.5024   -1.4138    0.0000 C   0  0  0  0  0  0  0  0  0  0  0  0
    3.7386    0.0675    0.0000 O   0  0  0  0  0  0  0  0  0  0  0  0
    2.1015   -7.2201    0.0000 O   0  0  0  0  0  0  0  0  0  0  0  0
  2  1  1  1
  2  3  1  0
  4  3  1  1
  4  5  1  0
  5  6  1  0
  6  7  1  0
  7  8  1  0
  8  9  1  0
  9 10  1  0
 10 11  2  0
 11 12  1  0
 12 13  2  0
 13 14  1  0
 14 15  2  0
 15 16  1  0
 16 17  2  0
 17 18  1  0
 12 19  1  0
 19 20  2  0
 20 21  1  0
 21 22  2  0
 22 23  1  0
 23 24  2  0
 24 25  1  0
 25 26  2  0
 26 27  1  0
 27 28  2  0
 28 29  1  0
 22 30  1  0
  6  2  1  0
 17  9  1  0
 28 19  1  0
 30  4  1  0
 16 11  1  0
 26 21  1  0
M  END
>  <Compound_ID>  (7) 
CHEMBL215803

>  <Active>  (7) 
1

>  <Smiles>  (7) 
C[C@@H]1C[C@H]2CN1CCn1nc3c(cccc3c1O)-c1nc3c(cccc3nc1O)O2

>  <canonical_smi>  (7) 
C[C@@H]1C[C@H]2CN1CCn1nc3c(cccc3c1O)-c1nc3c(cccc3nc1O)O2

>  <Set>  (7) 
G1 active

>  <Set_type>  (7) 
G1

>  <MW>  (7) 
403.44

>  <HBD>  (7) 
2

>  <HBA>  (7) 
7

>  <NRB>  (7) 
0

>  <NR>  (7) 
6

>  <NAR>  (7) 
4

>  <PSA>  (7) 
96.53

>  <Standard Type>  (7) 
nan

>  <Standard Relation>  (7) 
nan

>  <Standard Units>  (7) 
nan

>  <Standard Value>  (7) 
nan

>  <Assay ChEMBL ID>  (7) 
nan

>  <Assay Description>  (7) 
nan

>  <BAO Label>  (7) 
nan

$$$$

     RDKit          2D

 25 28  0  0  0  0  0  0  0  0999 V2000
   -4.6613    6.0728    0.0000 N   0  0  0  0  0  0  0  0  0  0  0  0
   -3.2910    5.4627    0.0000 C   0  0  0  0  0  0  0  0  0  0  0  0
   -2.0774    6.3444    0.0000 O   0  0  0  0  0  0  0  0  0  0  0  0
   -3.1342    3.9709    0.0000 C   0  0  0  0  0  0  0  0  0  0  0  0
   -4.2489    2.9672    0.0000 N   0  0  0  0  0  0  0  0  0  0  0  0
   -3.6388    1.5969    0.0000 N   0  0  0  0  0  0  0  0  0  0  0  0
   -4.3888    0.2979    0.0000 C   0  0  0  0  0  0  0  0  0  0  0  0
   -5.8888    0.2979    0.0000 C   0  0  0  0  0  0  0  0  0  0  0  0
   -6.6388   -1.0012    0.0000 C   0  0  0  0  0  0  0  0  0  0  0  0
   -5.8888   -2.3002    0.0000 C   0  0  0  0  0  0  0  0  0  0  0  0
   -6.6388   -3.5992    0.0000 S   0  0  0  0  0  0  0  0  0  0  0  0
   -7.3888   -4.8983    0.0000 N   0  0  0  0  0  0  0  0  0  0  0  0
   -7.9378   -2.8492    0.0000 O   0  0  0  0  0  0  0  0  0  0  0  0
   -5.3397   -4.3492    0.0000 O   0  0  0  0  0  0  0  0  0  0  0  0
   -4.3888   -2.3002    0.0000 C   0  0  0  0  0  0  0  0  0  0  0  0
   -3.6388   -1.0012    0.0000 C   0  0  0  0  0  0  0  0  0  0  0  0
   -2.1470    1.7537    0.0000 C   0  0  0  0  0  0  0  0  0  0  0  0
   -1.8351    3.2209    0.0000 C   0  0  0  0  0  0  0  0  0  0  0  0
   -0.4086    3.6844    0.0000 C   0  0  0  0  0  0  0  0  0  0  0  0
    0.7062    2.6807    0.0000 C   0  0  0  0  0  0  0  0  0  0  0  0
    0.3943    1.2135    0.0000 C   0  0  0  0  0  0  0  0  0  0  0  0
    1.2760    0.0000    0.0000 N   0  0  0  0  0  0  0  0  0  0  0  0
    0.3943   -1.2135    0.0000 N   0  0  0  0  0  0  0  0  0  0  0  0
   -1.0323   -0.7500    0.0000 C   0  0  0  0  0  0  0  0  0  0  0  0
   -1.0323    0.7500    0.0000 C   0  0  0  0  0  0  0  0  0  0  0  0
  1  2  1  0
  2  3  2  0
  2  4  1  0
  4  5  2  0
  5  6  1  0
  6  7  1  0
  7  8  2  0
  8  9  1  0
  9 10  2  0
 10 11  1  0
 11 12  1  0
 11 13  2  0
 11 14  2  0
 10 15  1  0
 15 16  2  0
  6 17  1  0
 17 18  2  0
 18 19  1  0
 19 20  1  0
 20 21  1  0
 21 22  1  0
 22 23  1  0
 23 24  2  0
 24 25  1  0
 18  4  1  0
 25 21  2  0
 16  7  1  0
 25 17  1  0
M  END
>  <Compound_ID>  (8) 
CHEMBL361862

>  <Active>  (8) 
1

>  <Smiles>  (8) 
NC(=O)c1nn(-c2ccc(S(N)(=O)=O)cc2)c2c1CCc1[nH]ncc1-2

>  <canonical_smi>  (8) 
NC(=O)c1nn(-c2ccc(S(N)(=O)=O)cc2)c2c1CCc1[nH]ncc1-2

>  <Set>  (8) 
G1 active

>  <Set_type>  (8) 
G1

>  <MW>  (8) 
358.38

>  <HBD>  (8) 
3

>  <HBA>  (8) 
5

>  <NRB>  (8) 
3

>  <NR>  (8) 
4

>  <NAR>  (8) 
3

>  <PSA>  (8) 
149.75

>  <Standard Type>  (8) 
nan

>  <Standard Relation>  (8) 
nan

>  <Standard Units>  (8) 
nan

>  <Standard Value>  (8) 
nan

>  <Assay ChEMBL ID>  (8) 
nan

>  <Assay Description>  (8) 
nan

>  <BAO Label>  (8) 
nan

$$$$

     RDKit          2D

 35 39  0  0  0  0  0  0  0  0999 V2000
   -8.8265   -8.2500    0.0000 C   0  0  0  0  0  0  0  0  0  0  0  0
   -8.8265   -6.7500    0.0000 N   0  0  0  0  0  0  0  0  0  0  0  0
  -10.1256   -6.0000    0.0000 C   0  0  0  0  0  0  0  0  0  0  0  0
   -7.5275   -6.0000    0.0000 S   0  0  0  0  0  0  0  0  0  0  0  0
   -8.2775   -4.7010    0.0000 O   0  0  0  0  0  0  0  0  0  0  0  0
   -6.7775   -7.2990    0.0000 O   0  0  0  0  0  0  0  0  0  0  0  0
   -6.2284   -5.2500    0.0000 C   0  0  0  0  0  0  0  0  0  0  0  0
   -6.2284   -3.7500    0.0000 C   0  0  0  0  0  0  0  0  0  0  0  0
   -4.9294   -3.0000    0.0000 C   0  0  0  0  0  0  0  0  0  0  0  0
   -3.6304   -3.7500    0.0000 C   0  0  0  0  0  0  0  0  0  0  0  0
   -2.3313   -3.0000    0.0000 N   0  0  0  0  0  0  0  0  0  0  0  0
   -2.3313   -1.5000    0.0000 C   0  0  0  0  0  0  0  0  0  0  0  0
   -3.6304   -0.7500    0.0000 C   0  0  0  0  0  0  0  0  0  0  0  0
   -3.6304    0.7500    0.0000 C   0  0  0  0  0  0  0  0  0  0  0  0
   -4.9294    1.5000    0.0000 N   0  0  0  0  0  0  0  0  0  0  0  0
   -4.9294    3.0000    0.0000 C   0  0  0  0  0  0  0  0  0  0  0  0
   -3.6304    3.7500    0.0000 C   0  0  0  0  0  0  0  0  0  0  0  0
   -3.6304    5.2500    0.0000 C   0  0  0  0  0  0  0  0  0  0  0  0
   -4.9294    6.0000    0.0000 C   0  0  0  0  0  0  0  0  0  0  0  0
   -4.9294    7.5000    0.0000 N   0  0  0  0  0  0  0  0  0  0  0  0
   -6.2284    5.2500    0.0000 C   0  0  0  0  0  0  0  0  0  0  0  0
   -6.2284    3.7500    0.0000 C   0  0  0  0  0  0  0  0  0  0  0  0
   -2.3313    1.5000    0.0000 N   0  0  0  0  0  0  0  0  0  0  0  0
   -1.0323    0.7500    0.0000 C   0  0  0  0  0  0  0  0  0  0  0  0
    0.3943    1.2135    0.0000 C   0  0  0  0  0  0  0  0  0  0  0  0
    0.8578    2.6401    0.0000 C   0  0  0  0  0  0  0  0  0  0  0  0
   -0.0239    3.8536    0.0000 C   0  0  0  0  0  0  0  0  0  0  0  0
    0.8578    5.0672    0.0000 C   0  0  0  0  0  0  0  0  0  0  0  0
    2.2844    4.6036    0.0000 C   0  0  0  0  0  0  0  0  0  0  0  0
    2.2844    3.1036    0.0000 C   0  0  0  0  0  0  0  0  0  0  0  0
    1.2760    0.0000    0.0000 C   0  0  0  0  0  0  0  0  0  0  0  0
    0.3943   -1.2135    0.0000 N   0  0  0  0  0  0  0  0  0  0  0  0
   -1.0323   -0.7500    0.0000 N   0  0  0  0  0  0  0  0  0  0  0  0
   -3.6304   -5.2500    0.0000 C   0  0  0  0  0  0  0  0  0  0  0  0
   -4.9294   -6.0000    0.0000 C   0  0  0  0  0  0  0  0  0  0  0  0
  1  2  1  0
  2  3  1  0
  2  4  1  0
  4  5  2  0
  4  6  2  0
  4  7  1  0
  7  8  2  0
  8  9  1  0
  9 10  2  0
 10 11  1  0
 11 12  1  0
 12 13  2  0
 13 14  1  0
 14 15  1  0
 15 16  1  0
 16 17  1  0
 17 18  1  0
 18 19  1  0
 19 20  1  0
 19 21  1  0
 21 22  1  0
 14 23  2  0
 23 24  1  0
 24 25  2  0
 25 26  1  0
 26 27  1  0
 27 28  1  0
 28 29  1  0
 29 30  1  0
 25 31  1  0
 31 32  2  0
 32 33  1  0
 10 34  1  0
 34 35  2  0
 35  7  1  0
 33 12  1  0
 22 16  1  0
 33 24  1  0
 30 26  1  0
M  END
>  <Compound_ID>  (9) 
CHEMBL178179

>  <Active>  (9) 
1

>  <Smiles>  (9) 
CN(C)S(=O)(=O)c1ccc(Nc2cc(NC3CCC(N)CC3)nc3c(C4CCCC4)cnn23)cc1

>  <canonical_smi>  (9) 
CN(C)S(=O)(=O)c1ccc(Nc2cc(NC3CCC(N)CC3)nc3c(C4CCCC4)cnn23)cc1

>  <Set>  (9) 
G1 active

>  <Set_type>  (9) 
G1

>  <MW>  (9) 
497.67

>  <HBD>  (9) 
3

>  <HBA>  (9) 
7

>  <NRB>  (9) 
7

>  <NR>  (9) 
5

>  <NAR>  (9) 
3

>  <PSA>  (9) 
117.65

>  <Standard Type>  (9) 
nan

>  <Standard Relation>  (9) 
nan

>  <Standard Units>  (9) 
nan

>  <Standard Value>  (9) 
nan

>  <Assay ChEMBL ID>  (9) 
nan

>  <Assay Description>  (9) 
nan

>  <BAO Label>  (9) 
nan

$$$$

     RDKit          2D

 28 32  0  0  0  0  0  0  0  0999 V2000
    3.3287    1.8373    0.0000 O   0  0  0  0  0  0  0  0  0  0  0  0
    2.3250    2.9520    0.0000 C   0  0  0  0  0  0  0  0  0  0  0  0
    0.8578    2.6401    0.0000 N   0  0  0  0  0  0  0  0  0  0  0  0
    0.3943    1.2135    0.0000 C   0  0  0  0  0  0  0  0  0  0  0  0
    1.2760    0.0000    0.0000 N   0  0  0  0  0  0  0  0  0  0  0  0
    0.3943   -1.2135    0.0000 N   0  0  0  0  0  0  0  0  0  0  0  0
   -1.0323   -0.7500    0.0000 C   0  0  0  0  0  0  0  0  0  0  0  0
   -2.3313   -1.5000    0.0000 N   0  0  0  0  0  0  0  0  0  0  0  0
   -3.6304   -0.7500    0.0000 C   0  0  0  0  0  0  0  0  0  0  0  0
   -4.9294   -1.5000    0.0000 C   0  0  0  0  0  0  0  0  0  0  0  0
   -6.2284   -0.7500    0.0000 C   0  0  0  0  0  0  0  0  0  0  0  0
   -7.5275   -1.5000    0.0000 C   0  0  0  0  0  0  0  0  0  0  0  0
   -7.5275   -3.0000    0.0000 C   0  0  0  0  0  0  0  0  0  0  0  0
   -8.8265   -3.7500    0.0000 O   0  0  0  0  0  0  0  0  0  0  0  0
   -6.2284   -3.7500    0.0000 C   0  0  0  0  0  0  0  0  0  0  0  0
   -4.9294   -3.0000    0.0000 C   0  0  0  0  0  0  0  0  0  0  0  0
   -3.6304    0.7500    0.0000 C   0  0  0  0  0  0  0  0  0  0  0  0
   -4.9294    1.5000    0.0000 C   0  0  0  0  0  0  0  0  0  0  0  0
   -4.9294    3.0000    0.0000 C   0  0  0  0  0  0  0  0  0  0  0  0
   -6.2284    3.7500    0.0000 C   0  0  0  0  0  0  0  0  0  0  0  0
   -7.5275    3.0000    0.0000 C   0  0  0  0  0  0  0  0  0  0  0  0
   -7.5275    1.5000    0.0000 C   0  0  0  0  0  0  0  0  0  0  0  0
   -6.2284    0.7500    0.0000 C   0  0  0  0  0  0  0  0  0  0  0  0
   -2.3313    1.5000    0.0000 C   0  0  0  0  0  0  0  0  0  0  0  0
   -1.0323    0.7500    0.0000 C   0  0  0  0  0  0  0  0  0  0  0  0
    2.7886    4.3786    0.0000 C   0  0  0  0  0  0  0  0  0  0  0  0
    2.4767    5.8458    0.0000 C   0  0  0  0  0  0  0  0  0  0  0  0
    3.9033    5.3823    0.0000 C   0  0  0  0  0  0  0  0  0  0  0  0
  1  2  2  0
  2  3  1  0
  3  4  1  0
  4  5  2  0
  5  6  1  0
  6  7  1  0
  7  8  2  0
  8  9  1  0
  9 10  1  0
 10 11  2  0
 11 12  1  0
 12 13  2  0
 13 14  1  0
 13 15  1  0
 15 16  2  0
  9 17  2  0
 17 18  1  0
 18 19  2  0
 19 20  1  0
 20 21  2  0
 21 22  1  0
 22 23  2  0
 17 24  1  0
 24 25  2  0
  2 26  1  0
 26 27  1  0
 27 28  1  0
 25  4  1  0
 28 26  1  0
 25  7  1  0
 16 10  1  0
 23 18  1  0
M  END
>  <Compound_ID>  (10) 
CHEMBL427909

>  <Active>  (10) 
1

>  <Smiles>  (10) 
O=C(Nc1n[nH]c2nc(-c3ccc(O)cc3)c(-c3ccccc3)cc12)C1CC1

>  <canonical_smi>  (10) 
O=C(Nc1n[nH]c2nc(-c3ccc(O)cc3)c(-c3ccccc3)cc12)C1CC1

>  <Set>  (10) 
G1 active

>  <Set_type>  (10) 
G1

>  <MW>  (10) 
370.41

>  <HBD>  (10) 
3

>  <HBA>  (10) 
4

>  <NRB>  (10) 
4

>  <NR>  (10) 
5

>  <NAR>  (10) 
4

>  <PSA>  (10) 
90.9

>  <Standard Type>  (10) 
nan

>  <Standard Relation>  (10) 
nan

>  <Standard Units>  (10) 
nan

>  <Standard Value>  (10) 
nan

>  <Assay ChEMBL ID>  (10) 
nan

>  <Assay Description>  (10) 
nan

>  <BAO Label>  (10) 
nan

$$$$

     RDKit          2D

 25 29  0  0  0  0  0  0  0  0999 V2000
   -0.0000   -5.1073    0.0000 O   0  0  0  0  0  0  0  0  0  0  0  0
   -0.0000   -3.6073    0.0000 C   0  0  0  0  0  0  0  0  0  0  0  0
    1.2135   -2.7256    0.0000 N   0  0  0  0  0  0  0  0  0  0  0  0
    0.7500   -1.2990    0.0000 C   0  0  0  0  0  0  0  0  0  0  0  0
    1.5000    0.0000    0.0000 C   0  0  0  0  0  0  0  0  0  0  0  0
    0.7500    1.2990    0.0000 C   0  0  0  0  0  0  0  0  0  0  0  0
   -0.7500    1.2990    0.0000 C   0  0  0  0  0  0  0  0  0  0  0  0
   -1.5000    2.5981    0.0000 F   0  0  0  0  0  0  0  0  0  0  0  0
   -1.5000    0.0000    0.0000 C   0  0  0  0  0  0  0  0  0  0  0  0
   -2.9769   -0.2986    0.0000 C   0  0  0  0  0  0  0  0  0  0  0  0
   -3.8586    0.9150    0.0000 S   0  0  0  0  0  0  0  0  0  0  0  0
   -5.3503    0.7582    0.0000 C   0  0  0  0  0  0  0  0  0  0  0  0
   -6.1003   -0.5409    0.0000 C   0  0  0  0  0  0  0  0  0  0  0  0
   -7.5676   -0.2290    0.0000 C   0  0  0  0  0  0  0  0  0  0  0  0
   -7.7244    1.2628    0.0000 N   0  0  0  0  0  0  0  0  0  0  0  0
   -6.3540    1.8729    0.0000 C   0  0  0  0  0  0  0  0  0  0  0  0
   -3.5870   -1.6689    0.0000 C   0  0  0  0  0  0  0  0  0  0  0  0
   -2.7053   -2.8824    0.0000 C   0  0  0  0  0  0  0  0  0  0  0  0
   -3.3154   -4.2527    0.0000 C   0  0  0  0  0  0  0  0  0  0  0  0
   -2.5654   -5.5518    0.0000 C   0  0  0  0  0  0  0  0  0  0  0  0
   -3.5691   -6.6665    0.0000 C   0  0  0  0  0  0  0  0  0  0  0  0
   -4.9394   -6.0564    0.0000 C   0  0  0  0  0  0  0  0  0  0  0  0
   -4.7826   -4.5646    0.0000 N   0  0  0  0  0  0  0  0  0  0  0  0
   -1.2135   -2.7256    0.0000 C   0  0  0  0  0  0  0  0  0  0  0  0
   -0.7500   -1.2990    0.0000 C   0  0  0  0  0  0  0  0  0  0  0  0
  1  2  2  0
  2  3  1  0
  3  4  1  0
  4  5  2  0
  5  6  1  0
  6  7  2  0
  7  8  1  0
  7  9  1  0
  9 10  2  0
 10 11  1  0
 12 11  1  1
 12 13  1  0
 13 14  1  0
 14 15  1  0
 15 16  1  0
 10 17  1  0
 17 18  2  0
 18 19  1  0
 19 20  2  0
 20 21  1  0
 21 22  2  0
 22 23  1  0
 18 24  1  0
 24 25  2  0
 24  2  1  0
 25  4  1  0
 25  9  1  0
 16 12  1  0
 23 19  1  0
M  END
>  <Compound_ID>  (11) 
CHEMBL79498

>  <Active>  (11) 
1

>  <Smiles>  (11) 
O=C1Nc2ccc(F)c3c(S[C@H]4CCNC4)cc(-c4ccc[nH]4)c1c23

>  <canonical_smi>  (11) 
O=C1Nc2ccc(F)c3c(S[C@H]4CCNC4)cc(-c4ccc[nH]4)c1c23

>  <Set>  (11) 
G1 active

>  <Set_type>  (11) 
G1

>  <MW>  (11) 
353.42

>  <HBD>  (11) 
3

>  <HBA>  (11) 
3

>  <NRB>  (11) 
3

>  <NR>  (11) 
5

>  <NAR>  (11) 
3

>  <PSA>  (11) 
56.92

>  <Standard Type>  (11) 
nan

>  <Standard Relation>  (11) 
nan

>  <Standard Units>  (11) 
nan

>  <Standard Value>  (11) 
nan

>  <Assay ChEMBL ID>  (11) 
nan

>  <Assay Description>  (11) 
nan

>  <BAO Label>  (11) 
nan

$$$$

     RDKit          2D

 25 27  0  0  0  0  0  0  0  0999 V2000
    7.5000   -2.5981    0.0000 O   0  0  0  0  0  0  0  0  0  0  0  0
    6.0000   -2.5981    0.0000 C   0  0  0  0  0  0  0  0  0  0  0  0
    5.2500   -1.2990    0.0000 C   0  0  0  0  0  0  0  0  0  0  0  0
    3.7500   -1.2990    0.0000 C   0  0  0  0  0  0  0  0  0  0  0  0
    3.0000    0.0000    0.0000 N   0  0  0  0  0  0  0  0  0  0  0  0
    1.5000    0.0000    0.0000 C   0  0  0  0  0  0  0  0  0  0  0  0
    0.7500   -1.2990    0.0000 C   0  0  0  0  0  0  0  0  0  0  0  0
   -0.7500   -1.2990    0.0000 C   0  0  0  0  0  0  0  0  0  0  0  0
   -1.5000   -2.5981    0.0000 C   0  0  0  0  0  0  0  0  0  0  0  0
   -3.0000   -2.5981    0.0000 N   0  0  0  0  0  0  0  0  0  0  0  0
   -3.7500   -3.8971    0.0000 C   0  0  0  0  0  0  0  0  0  0  0  0
   -3.0000   -5.1962    0.0000 N   0  0  0  0  0  0  0  0  0  0  0  0
   -1.5000   -5.1962    0.0000 C   0  0  0  0  0  0  0  0  0  0  0  0
   -0.7500   -6.4952    0.0000 N   0  0  0  0  0  0  0  0  0  0  0  0
   -1.5000   -7.7942    0.0000 C   0  0  0  0  0  0  0  0  0  0  0  0
   -3.0000   -7.7942    0.0000 C   0  0  0  0  0  0  0  0  0  0  0  0
   -3.7500   -9.0933    0.0000 C   0  0  0  0  0  0  0  0  0  0  0  0
   -3.0000  -10.3923    0.0000 C   0  0  0  0  0  0  0  0  0  0  0  0
   -1.5000  -10.3923    0.0000 C   0  0  0  0  0  0  0  0  0  0  0  0
   -0.7500  -11.6913    0.0000 Cl  0  0  0  0  0  0  0  0  0  0  0  0
   -0.7500   -9.0933    0.0000 C   0  0  0  0  0  0  0  0  0  0  0  0
   -0.7500   -3.8971    0.0000 N   0  0  0  0  0  0  0  0  0  0  0  0
   -1.5000    0.0000    0.0000 C   0  0  0  0  0  0  0  0  0  0  0  0
   -0.7500    1.2990    0.0000 C   0  0  0  0  0  0  0  0  0  0  0  0
    0.7500    1.2990    0.0000 N   0  0  0  0  0  0  0  0  0  0  0  0
  1  2  1  0
  2  3  1  0
  3  4  1  0
  4  5  1  0
  5  6  1  0
  6  7  2  0
  7  8  1  0
  8  9  1  0
  9 10  2  0
 10 11  1  0
 11 12  2  0
 12 13  1  0
 13 14  1  0
 14 15  1  0
 15 16  2  0
 16 17  1  0
 17 18  2  0
 18 19  1  0
 19 20  1  0
 19 21  2  0
 13 22  2  0
  8 23  2  0
 23 24  1  0
 24 25  2  0
 25  6  1  0
 22  9  1  0
 21 15  1  0
M  END
>  <Compound_ID>  (12) 
CHEMBL191336

>  <Active>  (12) 
1

>  <Smiles>  (12) 
OCCCNc1cc(-c2ncnc(Nc3cccc(Cl)c3)n2)ccn1

>  <canonical_smi>  (12) 
OCCCNc1cc(-c2ncnc(Nc3cccc(Cl)c3)n2)ccn1

>  <Set>  (12) 
G1 active

>  <Set_type>  (12) 
G1

>  <MW>  (12) 
356.82

>  <HBD>  (12) 
3

>  <HBA>  (12) 
7

>  <NRB>  (12) 
7

>  <NR>  (12) 
3

>  <NAR>  (12) 
3

>  <PSA>  (12) 
95.85

>  <Standard Type>  (12) 
nan

>  <Standard Relation>  (12) 
nan

>  <Standard Units>  (12) 
nan

>  <Standard Value>  (12) 
nan

>  <Assay ChEMBL ID>  (12) 
nan

>  <Assay Description>  (12) 
nan

>  <BAO Label>  (12) 
nan

$$$$

     RDKit          2D

 28 32  0  0  0  0  0  0  0  0999 V2000
    1.0037   -4.7220    0.0000 O   0  0  0  0  0  0  0  0  0  0  0  0
   -0.0000   -3.6073    0.0000 S   0  0  0  0  0  0  0  0  0  0  0  0
   -1.0037   -4.7220    0.0000 O   0  0  0  0  0  0  0  0  0  0  0  0
    1.2135   -2.7256    0.0000 C   0  0  0  0  0  0  0  0  0  0  0  0
    0.7500   -1.2990    0.0000 C   0  0  0  0  0  0  0  0  0  0  0  0
    1.5000    0.0000    0.0000 C   0  0  0  0  0  0  0  0  0  0  0  0
    0.7500    1.2990    0.0000 C   0  0  0  0  0  0  0  0  0  0  0  0
   -0.7500    1.2990    0.0000 C   0  0  0  0  0  0  0  0  0  0  0  0
   -1.5000    2.5981    0.0000 N   0  0  0  0  0  0  0  0  0  0  0  0
   -0.7500    3.8971    0.0000 C   0  0  0  0  0  0  0  0  0  0  0  0
   -1.5000    5.1962    0.0000 C   0  0  0  0  0  0  0  0  0  0  0  0
   -2.9918    5.3529    0.0000 C   0  0  0  0  0  0  0  0  0  0  0  0
   -3.9955    4.2382    0.0000 O   0  0  0  0  0  0  0  0  0  0  0  0
   -3.3037    6.8202    0.0000 N   0  0  0  0  0  0  0  0  0  0  0  0
   -2.0046    7.5702    0.0000 C   0  0  0  0  0  0  0  0  0  0  0  0
   -1.6927    9.0374    0.0000 C   0  0  0  0  0  0  0  0  0  0  0  0
   -0.2662    9.5009    0.0000 C   0  0  0  0  0  0  0  0  0  0  0  0
    0.8486    8.4972    0.0000 C   0  0  0  0  0  0  0  0  0  0  0  0
    2.2751    8.9607    0.0000 C   0  0  0  0  0  0  0  0  0  0  0  0
    2.7387   10.3873    0.0000 C   0  0  0  0  0  0  0  0  0  0  0  0
    4.2387   10.3873    0.0000 N   0  0  0  0  0  0  0  0  0  0  0  0
    4.7022    8.9607    0.0000 C   0  0  0  0  0  0  0  0  0  0  0  0
    3.4887    8.0791    0.0000 O   0  0  0  0  0  0  0  0  0  0  0  0
    0.5367    7.0300    0.0000 C   0  0  0  0  0  0  0  0  0  0  0  0
   -0.8899    6.5665    0.0000 C   0  0  0  0  0  0  0  0  0  0  0  0
   -1.5000    0.0000    0.0000 C   0  0  0  0  0  0  0  0  0  0  0  0
   -0.7500   -1.2990    0.0000 C   0  0  0  0  0  0  0  0  0  0  0  0
   -1.2135   -2.7256    0.0000 C   0  0  0  0  0  0  0  0  0  0  0  0
  1  2  2  0
  2  3  2  0
  2  4  1  0
  4  5  1  0
  5  6  2  0
  6  7  1  0
  7  8  2  0
  8  9  1  0
  9 10  2  0
 10 11  1  0
 11 12  2  0
 12 13  1  0
 12 14  1  0
 14 15  1  0
 15 16  2  0
 16 17  1  0
 17 18  2  0
 18 19  1  0
 19 20  2  0
 20 21  1  0
 21 22  2  0
 22 23  1  0
 18 24  1  0
 24 25  2  0
  8 26  1  0
 26 27  2  0
 27 28  1  0
 28  2  1  0
 27  5  1  0
 25 11  1  0
 25 15  1  0
 23 19  1  0
M  END
>  <Compound_ID>  (13) 
CHEMBL135029

>  <Active>  (13) 
1

>  <Smiles>  (13) 
O=S1(=O)Cc2ccc(/N=C/c3c(O)[nH]c4ccc(-c5cnco5)cc34)cc2C1

>  <canonical_smi>  (13) 
O=S1(=O)Cc2ccc(/N=C/c3c(O)[nH]c4ccc(-c5cnco5)cc34)cc2C1

>  <Set>  (13) 
G1 active

>  <Set_type>  (13) 
G1

>  <MW>  (13) 
393.42

>  <HBD>  (13) 
2

>  <HBA>  (13) 
5

>  <NRB>  (13) 
3

>  <NR>  (13) 
5

>  <NAR>  (13) 
4

>  <PSA>  (13) 
108.55

>  <Standard Type>  (13) 
nan

>  <Standard Relation>  (13) 
nan

>  <Standard Units>  (13) 
nan

>  <Standard Value>  (13) 
nan

>  <Assay ChEMBL ID>  (13) 
nan

>  <Assay Description>  (13) 
nan

>  <BAO Label>  (13) 
nan

$$$$

     RDKit          2D

 31 34  0  0  0  0  0  0  0  0999 V2000
  -10.0849   -6.9740    0.0000 N   0  0  0  0  0  0  0  0  0  0  0  0
   -8.6583   -6.5105    0.0000 S   0  0  0  0  0  0  0  0  0  0  0  0
   -9.1218   -5.0839    0.0000 O   0  0  0  0  0  0  0  0  0  0  0  0
   -8.1948   -7.9371    0.0000 O   0  0  0  0  0  0  0  0  0  0  0  0
   -7.2317   -6.0469    0.0000 C   0  0  0  0  0  0  0  0  0  0  0  0
   -6.9199   -4.5797    0.0000 C   0  0  0  0  0  0  0  0  0  0  0  0
   -5.4933   -4.1162    0.0000 C   0  0  0  0  0  0  0  0  0  0  0  0
   -4.3786   -5.1199    0.0000 C   0  0  0  0  0  0  0  0  0  0  0  0
   -2.9520   -4.6564    0.0000 N   0  0  0  0  0  0  0  0  0  0  0  0
   -2.6401   -3.1891    0.0000 N   0  0  0  0  0  0  0  0  0  0  0  0
   -1.2135   -2.7256    0.0000 C   0  0  0  0  0  0  0  0  0  0  0  0
   -0.0000   -3.6073    0.0000 C   0  0  0  0  0  0  0  0  0  0  0  0
    0.0000   -5.1073    0.0000 O   0  0  0  0  0  0  0  0  0  0  0  0
    1.2135   -2.7256    0.0000 N   0  0  0  0  0  0  0  0  0  0  0  0
    0.7500   -1.2990    0.0000 C   0  0  0  0  0  0  0  0  0  0  0  0
    1.5000    0.0000    0.0000 C   0  0  0  0  0  0  0  0  0  0  0  0
    0.7500    1.2990    0.0000 C   0  0  0  0  0  0  0  0  0  0  0  0
   -0.7500    1.2990    0.0000 C   0  0  0  0  0  0  0  0  0  0  0  0
   -1.5000    0.0000    0.0000 C   0  0  0  0  0  0  0  0  0  0  0  0
   -3.0000    0.0000    0.0000 C   0  0  0  0  0  0  0  0  0  0  0  0
   -3.7500    1.2990    0.0000 C   0  0  0  0  0  0  0  0  0  0  0  0
   -5.2500    1.2990    0.0000 C   0  0  0  0  0  0  0  0  0  0  0  0
   -6.0000    2.5981    0.0000 C   0  0  0  0  0  0  0  0  0  0  0  0
   -7.5000    2.5981    0.0000 C   0  0  0  0  0  0  0  0  0  0  0  0
   -8.2500    1.2990    0.0000 C   0  0  0  0  0  0  0  0  0  0  0  0
   -9.7500    1.2990    0.0000 O   0  0  0  0  0  0  0  0  0  0  0  0
   -7.5000    0.0000    0.0000 C   0  0  0  0  0  0  0  0  0  0  0  0
   -6.0000    0.0000    0.0000 C   0  0  0  0  0  0  0  0  0  0  0  0
   -0.7500   -1.2990    0.0000 C   0  0  0  0  0  0  0  0  0  0  0  0
   -4.6904   -6.5871    0.0000 C   0  0  0  0  0  0  0  0  0  0  0  0
   -6.1170   -7.0506    0.0000 C   0  0  0  0  0  0  0  0  0  0  0  0
  1  2  1  0
  2  3  2  0
  2  4  2  0
  2  5  1  0
  5  6  2  0
  6  7  1  0
  7  8  2  0
  8  9  1  0
  9 10  2  3
 10 11  1  0
 11 12  2  0
 12 13  1  0
 12 14  1  0
 14 15  1  0
 15 16  2  0
 16 17  1  0
 17 18  2  0
 18 19  1  0
 19 20  1  0
 20 21  2  0
 21 22  1  0
 22 23  2  0
 23 24  1  0
 24 25  2  0
 25 26  1  0
 25 27  1  0
 27 28  2  0
 19 29  2  0
  8 30  1  0
 30 31  2  0
 31  5  1  0
 29 11  1  0
 29 15  1  0
 28 22  1  0
M  END
>  <Compound_ID>  (14) 
CHEMBL136397

>  <Active>  (14) 
1

>  <Smiles>  (14) 
NS(=O)(=O)c1ccc(N=Nc2c(O)[nH]c3cccc(/C=C/c4ccc(O)cc4)c23)cc1

>  <canonical_smi>  (14) 
NS(=O)(=O)c1ccc(N=Nc2c(O)[nH]c3cccc(/C=C/c4ccc(O)cc4)c23)cc1

>  <Set>  (14) 
G1 active

>  <Set_type>  (14) 
G1

>  <MW>  (14) 
434.48

>  <HBD>  (14) 
4

>  <HBA>  (14) 
4

>  <NRB>  (14) 
5

>  <NR>  (14) 
4

>  <NAR>  (14) 
4

>  <PSA>  (14) 
141.13

>  <Standard Type>  (14) 
nan

>  <Standard Relation>  (14) 
nan

>  <Standard Units>  (14) 
nan

>  <Standard Value>  (14) 
nan

>  <Assay ChEMBL ID>  (14) 
nan

>  <Assay Description>  (14) 
nan

>  <BAO Label>  (14) 
nan

$$$$

     RDKit          2D

 25 28  0  0  0  0  0  0  0  0999 V2000
    1.5000    0.0000    0.0000 C   0  0  0  0  0  0  0  0  0  0  0  0
    0.7500   -1.2990    0.0000 C   0  0  0  0  0  0  0  0  0  0  0  0
   -0.7500   -1.2990    0.0000 C   0  0  0  0  0  0  0  0  0  0  0  0
   -1.5000    0.0000    0.0000 C   0  0  0  0  0  0  0  0  0  0  0  0
   -3.0000    0.0000    0.0000 N   0  0  0  0  0  0  0  0  0  0  0  0
   -3.7500    1.2990    0.0000 C   0  0  0  0  0  0  0  0  0  0  0  0
   -5.2418    1.4558    0.0000 N   0  0  0  0  0  0  0  0  0  0  0  0
   -5.5537    2.9231    0.0000 C   0  0  0  0  0  0  0  0  0  0  0  0
   -4.2546    3.6731    0.0000 C   0  0  0  0  0  0  0  0  0  0  0  0
   -4.0978    5.1648    0.0000 C   0  0  0  0  0  0  0  0  0  0  0  0
   -2.7275    5.7749    0.0000 C   0  0  0  0  0  0  0  0  0  0  0  0
   -2.5707    7.2667    0.0000 C   0  0  0  0  0  0  0  0  0  0  0  0
   -3.7842    8.1484    0.0000 N   0  0  0  0  0  0  0  0  0  0  0  0
   -5.1546    7.5383    0.0000 C   0  0  0  0  0  0  0  0  0  0  0  0
   -6.3681    8.4200    0.0000 O   0  0  0  0  0  0  0  0  0  0  0  0
   -6.2113    9.9118    0.0000 C   0  0  0  0  0  0  0  0  0  0  0  0
   -4.8410   10.5219    0.0000 C   0  0  0  0  0  0  0  0  0  0  0  0
   -4.6842   12.0136    0.0000 C   0  0  0  0  0  0  0  0  0  0  0  0
   -5.8977   12.8953    0.0000 C   0  0  0  0  0  0  0  0  0  0  0  0
   -7.2680   12.2852    0.0000 C   0  0  0  0  0  0  0  0  0  0  0  0
   -7.4248   10.7934    0.0000 C   0  0  0  0  0  0  0  0  0  0  0  0
   -5.3113    6.0465    0.0000 N   0  0  0  0  0  0  0  0  0  0  0  0
   -3.1399    2.6694    0.0000 S   0  0  0  0  0  0  0  0  0  0  0  0
   -0.7500    1.2990    0.0000 N   0  0  0  0  0  0  0  0  0  0  0  0
    0.7500    1.2990    0.0000 C   0  0  0  0  0  0  0  0  0  0  0  0
  1  2  2  0
  2  3  1  0
  3  4  2  0
  4  5  1  0
  5  6  1  0
  6  7  2  0
  7  8  1  0
  8  9  2  0
  9 10  1  0
 10 11  2  0
 11 12  1  0
 12 13  2  0
 13 14  1  0
 14 15  1  0
 15 16  1  0
 16 17  1  0
 17 18  1  0
 18 19  1  0
 19 20  1  0
 20 21  1  0
 14 22  2  0
  9 23  1  0
  4 24  1  0
 24 25  2  0
 25  1  1  0
 23  6  1  0
 22 10  1  0
 21 16  1  0
M  END
>  <Compound_ID>  (15) 
CHEMBL424696

>  <Active>  (15) 
1

>  <Smiles>  (15) 
c1ccc(Nc2ncc(-c3ccnc(OC4CCCCC4)n3)s2)nc1

>  <canonical_smi>  (15) 
c1ccc(Nc2ncc(-c3ccnc(OC4CCCCC4)n3)s2)nc1

>  <Set>  (15) 
G1 active

>  <Set_type>  (15) 
G1

>  <MW>  (15) 
353.45

>  <HBD>  (15) 
1

>  <HBA>  (15) 
6

>  <NRB>  (15) 
5

>  <NR>  (15) 
4

>  <NAR>  (15) 
3

>  <PSA>  (15) 
72.82

>  <Standard Type>  (15) 
nan

>  <Standard Relation>  (15) 
nan

>  <Standard Units>  (15) 
nan

>  <Standard Value>  (15) 
nan

>  <Assay ChEMBL ID>  (15) 
nan

>  <Assay Description>  (15) 
nan

>  <BAO Label>  (15) 
nan

$$$$

     RDKit          2D

 33 36  0  0  0  0  0  0  0  0999 V2000
    4.3622    1.1369    0.0000 N   0  0  0  0  0  0  0  0  0  0  0  0
    4.6741    2.6041    0.0000 C   0  0  0  0  0  0  0  0  0  0  0  0
    4.9859    4.0713    0.0000 N   0  0  0  0  0  0  0  0  0  0  0  0
    3.8712    5.0750    0.0000 C   0  0  0  0  0  0  0  0  0  0  0  0
    2.4446    4.6115    0.0000 C   0  0  0  0  0  0  0  0  0  0  0  0
    1.3299    5.6152    0.0000 C   0  0  0  0  0  0  0  0  0  0  0  0
    1.6418    7.0824    0.0000 C   0  0  0  0  0  0  0  0  0  0  0  0
    0.5271    8.0861    0.0000 N   0  0  0  0  0  0  0  0  0  0  0  0
   -0.8995    7.6226    0.0000 C   0  0  0  0  0  0  0  0  0  0  0  0
   -2.0143    8.6263    0.0000 N   0  0  0  0  0  0  0  0  0  0  0  0
   -3.4408    8.1628    0.0000 C   0  0  0  0  0  0  0  0  0  0  0  0
   -3.7527    6.6955    0.0000 C   0  0  0  0  0  0  0  0  0  0  0  0
   -5.1793    6.2320    0.0000 C   0  0  0  0  0  0  0  0  0  0  0  0
   -6.6059    5.7685    0.0000 F   0  0  0  0  0  0  0  0  0  0  0  0
   -5.6428    7.6586    0.0000 F   0  0  0  0  0  0  0  0  0  0  0  0
   -4.7158    4.8054    0.0000 F   0  0  0  0  0  0  0  0  0  0  0  0
   -2.6380    5.6918    0.0000 C   0  0  0  0  0  0  0  0  0  0  0  0
   -2.9499    4.2246    0.0000 N   0  0  0  0  0  0  0  0  0  0  0  0
   -1.8351    3.2209    0.0000 C   0  0  0  0  0  0  0  0  0  0  0  0
   -0.4086    3.6844    0.0000 C   0  0  0  0  0  0  0  0  0  0  0  0
    0.7062    2.6807    0.0000 C   0  0  0  0  0  0  0  0  0  0  0  0
    0.3943    1.2135    0.0000 C   0  0  0  0  0  0  0  0  0  0  0  0
    1.2760    0.0000    0.0000 N   0  0  0  0  0  0  0  0  0  0  0  0
    0.3943   -1.2135    0.0000 C   0  0  0  0  0  0  0  0  0  0  0  0
   -1.0323   -0.7500    0.0000 N   0  0  0  0  0  0  0  0  0  0  0  0
   -1.0323    0.7500    0.0000 C   0  0  0  0  0  0  0  0  0  0  0  0
   -2.1470    1.7537    0.0000 C   0  0  0  0  0  0  0  0  0  0  0  0
   -1.2114    6.1554    0.0000 N   0  0  0  0  0  0  0  0  0  0  0  0
    3.0684    7.5459    0.0000 C   0  0  0  0  0  0  0  0  0  0  0  0
    4.1831    6.5422    0.0000 C   0  0  0  0  0  0  0  0  0  0  0  0
    5.6097    7.0058    0.0000 N   0  0  0  0  0  0  0  0  0  0  0  0
    5.9215    8.4730    0.0000 C   0  0  0  0  0  0  0  0  0  0  0  0
    6.2334    9.9402    0.0000 N   0  0  0  0  0  0  0  0  0  0  0  0
  1  2  3  0
  2  3  1  0
  3  4  1  0
  4  5  2  0
  5  6  1  0
  6  7  2  0
  7  8  1  0
  8  9  1  0
  9 10  2  0
 10 11  1  0
 11 12  2  0
 12 13  1  0
 13 14  1  0
 13 15  1  0
 13 16  1  0
 12 17  1  0
 17 18  1  0
 18 19  1  0
 19 20  2  0
 20 21  1  0
 21 22  2  0
 22 23  1  0
 23 24  1  0
 24 25  2  0
 25 26  1  0
 26 27  2  0
 17 28  2  0
  7 29  1  0
 29 30  2  0
 30 31  1  0
 31 32  1  0
 32 33  3  0
 30  4  1  0
 28  9  1  0
 27 19  1  0
 26 22  1  0
M  END
>  <Compound_ID>  (16) 
CHEMBL195641

>  <Active>  (16) 
1

>  <Smiles>  (16) 
N#CNc1ccc(Nc2ncc(C(F)(F)F)c(Nc3ccc4[nH]cnc4c3)n2)cc1NC#N

>  <canonical_smi>  (16) 
N#CNc1ccc(Nc2ncc(C(F)(F)F)c(Nc3ccc4[nH]cnc4c3)n2)cc1NC#N

>  <Set>  (16) 
G1 active

>  <Set_type>  (16) 
G1

>  <MW>  (16) 
450.39

>  <HBD>  (16) 
5

>  <HBA>  (16) 
9

>  <NRB>  (16) 
6

>  <NR>  (16) 
4

>  <NAR>  (16) 
4

>  <PSA>  (16) 
150.16

>  <Standard Type>  (16) 
nan

>  <Standard Relation>  (16) 
nan

>  <Standard Units>  (16) 
nan

>  <Standard Value>  (16) 
nan

>  <Assay ChEMBL ID>  (16) 
nan

>  <Assay Description>  (16) 
nan

>  <BAO Label>  (16) 
nan

$$$$

     RDKit          2D

 24 27  0  0  0  0  0  0  0  0999 V2000
   -0.0967    5.1517    0.0000 C   0  0  0  0  0  0  0  0  0  0  0  0
   -0.4086    3.6844    0.0000 C   0  0  0  0  0  0  0  0  0  0  0  0
    0.7062    2.6807    0.0000 C   0  0  0  0  0  0  0  0  0  0  0  0
    0.3943    1.2135    0.0000 C   0  0  0  0  0  0  0  0  0  0  0  0
    1.2760    0.0000    0.0000 N   0  0  0  0  0  0  0  0  0  0  0  0
    0.3943   -1.2135    0.0000 C   0  0  0  0  0  0  0  0  0  0  0  0
   -1.0323   -0.7500    0.0000 N   0  0  0  0  0  0  0  0  0  0  0  0
   -2.2458   -1.6317    0.0000 C   0  0  0  0  0  0  0  0  0  0  0  0
   -2.0890   -3.1235    0.0000 C   0  0  0  0  0  0  0  0  0  0  0  0
   -0.7187   -3.7336    0.0000 O   0  0  0  0  0  0  0  0  0  0  0  0
   -3.3025   -4.0051    0.0000 N   0  0  0  0  0  0  0  0  0  0  0  0
   -3.1458   -5.4969    0.0000 C   0  0  0  0  0  0  0  0  0  0  0  0
   -1.8467   -6.2469    0.0000 N   0  0  0  0  0  0  0  0  0  0  0  0
   -2.1586   -7.7141    0.0000 C   0  0  0  0  0  0  0  0  0  0  0  0
   -3.6504   -7.8709    0.0000 C   0  0  0  0  0  0  0  0  0  0  0  0
   -4.4004   -9.1700    0.0000 C   0  0  0  0  0  0  0  0  0  0  0  0
   -5.8493   -9.5582    0.0000 C   0  0  0  0  0  0  0  0  0  0  0  0
   -5.4610  -11.0071    0.0000 C   0  0  0  0  0  0  0  0  0  0  0  0
   -4.0121  -10.6189    0.0000 C   0  0  0  0  0  0  0  0  0  0  0  0
   -4.2605   -6.5006    0.0000 S   0  0  0  0  0  0  0  0  0  0  0  0
   -1.0323    0.7500    0.0000 C   0  0  0  0  0  0  0  0  0  0  0  0
   -2.1470    1.7537    0.0000 C   0  0  0  0  0  0  0  0  0  0  0  0
   -1.8351    3.2209    0.0000 C   0  0  0  0  0  0  0  0  0  0  0  0
   -2.9499    4.2246    0.0000 C   0  0  0  0  0  0  0  0  0  0  0  0
  1  2  1  0
  2  3  2  0
  3  4  1  0
  4  5  1  0
  5  6  2  0
  6  7  1  0
  7  8  1  0
  8  9  1  0
  9 10  2  0
  9 11  1  0
 11 12  1  0
 12 13  2  0
 13 14  1  0
 14 15  2  0
 15 16  1  0
 16 17  1  0
 17 18  1  0
 18 19  1  0
 15 20  1  0
  7 21  1  0
 21 22  1  0
 22 23  2  0
 23 24  1  0
 23  2  1  0
 21  4  2  0
 20 12  1  0
 19 16  1  0
M  END
>  <Compound_ID>  (17) 
CHEMBL187903

>  <Active>  (17) 
1

>  <Smiles>  (17) 
Cc1cc2ncn(CC(=O)Nc3ncc(C4CCC4)s3)c2cc1C

>  <canonical_smi>  (17) 
Cc1cc2ncn(CC(=O)Nc3ncc(C4CCC4)s3)c2cc1C

>  <Set>  (17) 
G1 active

>  <Set_type>  (17) 
G1

>  <MW>  (17) 
340.45

>  <HBD>  (17) 
1

>  <HBA>  (17) 
3

>  <NRB>  (17) 
4

>  <NR>  (17) 
4

>  <NAR>  (17) 
3

>  <PSA>  (17) 
59.81

>  <Standard Type>  (17) 
nan

>  <Standard Relation>  (17) 
nan

>  <Standard Units>  (17) 
nan

>  <Standard Value>  (17) 
nan

>  <Assay ChEMBL ID>  (17) 
nan

>  <Assay Description>  (17) 
nan

>  <BAO Label>  (17) 
nan

$$$$

     RDKit          2D

 30 33  0  0  0  0  0  0  0  0999 V2000
   -0.0000   -5.1073    0.0000 N   0  0  0  0  0  0  0  0  0  0  0  0
   -0.0000   -3.6073    0.0000 C   0  0  0  0  0  0  0  0  0  0  0  0
    1.2135   -2.7256    0.0000 N   0  0  0  0  0  0  0  0  0  0  0  0
    0.7500   -1.2990    0.0000 C   0  0  0  0  0  0  0  0  0  0  0  0
    1.5000    0.0000    0.0000 C   0  0  0  0  0  0  0  0  0  0  0  0
    0.7500    1.2990    0.0000 C   0  0  0  0  0  0  0  0  0  0  0  0
   -0.7500    1.2990    0.0000 C   0  0  0  0  0  0  0  0  0  0  0  0
   -1.5000    2.5981    0.0000 C   0  0  0  0  0  0  0  0  0  0  0  0
   -3.0000    2.5981    0.0000 O   0  0  0  0  0  0  0  0  0  0  0  0
   -0.7500    3.8971    0.0000 C   0  0  0  0  0  0  0  0  0  0  0  0
    0.7500    3.8971    0.0000 C   0  0  0  0  0  0  0  0  0  0  0  0
    1.5000    2.5981    0.0000 F   0  0  0  0  0  0  0  0  0  0  0  0
    1.5000    5.1962    0.0000 C   0  0  0  0  0  0  0  0  0  0  0  0
    0.7500    6.4952    0.0000 C   0  0  0  0  0  0  0  0  0  0  0  0
   -0.7500    6.4952    0.0000 C   0  0  0  0  0  0  0  0  0  0  0  0
   -1.5000    5.1962    0.0000 C   0  0  0  0  0  0  0  0  0  0  0  0
   -3.0000    5.1962    0.0000 F   0  0  0  0  0  0  0  0  0  0  0  0
   -1.5000    0.0000    0.0000 C   0  0  0  0  0  0  0  0  0  0  0  0
   -0.7500   -1.2990    0.0000 N   0  0  0  0  0  0  0  0  0  0  0  0
   -1.2135   -2.7256    0.0000 C   0  0  0  0  0  0  0  0  0  0  0  0
   -2.6401   -3.1891    0.0000 C   0  0  0  0  0  0  0  0  0  0  0  0
   -2.9520   -4.6564    0.0000 S   0  0  0  0  0  0  0  0  0  0  0  0
   -3.7548   -2.1855    0.0000 C   0  0  0  0  0  0  0  0  0  0  0  0
   -3.4430   -0.7182    0.0000 C   0  0  0  0  0  0  0  0  0  0  0  0
   -2.2981   -0.0028    0.0000 F   0  0  0  0  0  0  0  0  0  0  0  0
   -4.5577    0.2855    0.0000 C   0  0  0  0  0  0  0  0  0  0  0  0
   -5.9843   -0.1781    0.0000 C   0  0  0  0  0  0  0  0  0  0  0  0
   -6.2961   -1.6453    0.0000 C   0  0  0  0  0  0  0  0  0  0  0  0
   -5.1814   -2.6490    0.0000 C   0  0  0  0  0  0  0  0  0  0  0  0
   -5.4933   -4.1162    0.0000 F   0  0  0  0  0  0  0  0  0  0  0  0
  1  2  1  0
  2  3  1  0
  3  4  2  0
  4  5  1  0
  5  6  2  0
  6  7  1  0
  7  8  1  0
  8  9  2  0
  8 10  1  0
 10 11  2  0
 11 12  1  0
 11 13  1  0
 13 14  2  0
 14 15  1  0
 15 16  2  0
 16 17  1  0
  7 18  2  0
 18 19  1  0
 19 20  1  0
 20 21  1  0
 21 22  2  0
 21 23  1  0
 23 24  2  0
 24 25  1  0
 24 26  1  0
 26 27  2  0
 27 28  1  0
 28 29  2  0
 29 30  1  0
 20  2  2  0
 29 23  1  0
 19  4  1  0
 16 10  1  0
M  END
>  <Compound_ID>  (18) 
CHEMBL186163

>  <Active>  (18) 
1

>  <Smiles>  (18) 
Nc1nc2ccc(C(=O)c3c(F)cccc3F)cn2c1C(=S)c1c(F)cccc1F

>  <canonical_smi>  (18) 
Nc1nc2ccc(C(=O)c3c(F)cccc3F)cn2c1C(=S)c1c(F)cccc1F

>  <Set>  (18) 
G1 active

>  <Set_type>  (18) 
G1

>  <MW>  (18) 
429.4

>  <HBD>  (18) 
1

>  <HBA>  (18) 
4

>  <NRB>  (18) 
4

>  <NR>  (18) 
4

>  <NAR>  (18) 
4

>  <PSA>  (18) 
60.39

>  <Standard Type>  (18) 
nan

>  <Standard Relation>  (18) 
nan

>  <Standard Units>  (18) 
nan

>  <Standard Value>  (18) 
nan

>  <Assay ChEMBL ID>  (18) 
nan

>  <Assay Description>  (18) 
nan

>  <BAO Label>  (18) 
nan

$$$$

     RDKit          2D

 20 22  0  0  0  0  0  0  0  0999 V2000
    3.7500   -1.2990    0.0000 C   0  0  0  0  0  0  0  0  0  0  0  0
    3.0000    0.0000    0.0000 O   0  0  0  0  0  0  0  0  0  0  0  0
    1.5000    0.0000    0.0000 C   0  0  0  0  0  0  0  0  0  0  0  0
    0.7500   -1.2990    0.0000 C   0  0  0  0  0  0  0  0  0  0  0  0
   -0.7500   -1.2990    0.0000 C   0  0  0  0  0  0  0  0  0  0  0  0
   -1.5000    0.0000    0.0000 C   0  0  0  0  0  0  0  0  0  0  0  0
   -0.7500    1.2990    0.0000 C   0  0  0  0  0  0  0  0  0  0  0  0
   -1.5000    2.5981    0.0000 C   0  0  0  0  0  0  0  0  0  0  0  0
   -0.7500    3.8971    0.0000 C   0  0  0  0  0  0  0  0  0  0  0  0
    0.7500    3.8971    0.0000 O   0  0  0  0  0  0  0  0  0  0  0  0
   -1.5000    5.1962    0.0000 N   0  0  0  0  0  0  0  0  0  0  0  0
   -0.7500    6.4952    0.0000 C   0  0  0  0  0  0  0  0  0  0  0  0
   -1.3601    7.8655    0.0000 C   0  0  0  0  0  0  0  0  0  0  0  0
   -0.2454    8.8692    0.0000 C   0  0  0  0  0  0  0  0  0  0  0  0
   -0.4022   10.3610    0.0000 C   0  0  0  0  0  0  0  0  0  0  0  0
   -1.2839   11.5745    0.0000 C   0  0  0  0  0  0  0  0  0  0  0  0
    0.2079   11.7313    0.0000 C   0  0  0  0  0  0  0  0  0  0  0  0
    1.0537    8.1192    0.0000 N   0  0  0  0  0  0  0  0  0  0  0  0
    0.7418    6.6520    0.0000 N   0  0  0  0  0  0  0  0  0  0  0  0
    0.7500    1.2990    0.0000 C   0  0  0  0  0  0  0  0  0  0  0  0
  1  2  1  0
  2  3  1  0
  3  4  2  0
  4  5  1  0
  5  6  2  0
  6  7  1  0
  7  8  1  0
  8  9  1  0
  9 10  2  0
  9 11  1  0
 11 12  1  0
 12 13  1  0
 13 14  2  0
 14 15  1  0
 15 16  1  0
 16 17  1  0
 14 18  1  0
 18 19  1  0
  7 20  2  0
 20  3  1  0
 19 12  2  0
 17 15  1  0
M  END
>  <Compound_ID>  (19) 
CHEMBL114917

>  <Active>  (19) 
1

>  <Smiles>  (19) 
COc1cccc(CC(=O)Nc2cc(C3CC3)[nH]n2)c1

>  <canonical_smi>  (19) 
COc1cccc(CC(=O)Nc2cc(C3CC3)[nH]n2)c1

>  <Set>  (19) 
G1 active

>  <Set_type>  (19) 
G1

>  <MW>  (19) 
271.32

>  <HBD>  (19) 
2

>  <HBA>  (19) 
3

>  <NRB>  (19) 
5

>  <NR>  (19) 
3

>  <NAR>  (19) 
2

>  <PSA>  (19) 
67.01

>  <Standard Type>  (19) 
nan

>  <Standard Relation>  (19) 
nan

>  <Standard Units>  (19) 
nan

>  <Standard Value>  (19) 
nan

>  <Assay ChEMBL ID>  (19) 
nan

>  <Assay Description>  (19) 
nan

>  <BAO Label>  (19) 
nan

$$$$

     RDKit          2D

 30 33  0  0  0  0  0  0  0  0999 V2000
    6.4125    4.5348    0.0000 C   0  0  0  0  0  0  0  0  0  0  0  0
    4.9859    4.0713    0.0000 N   0  0  0  0  0  0  0  0  0  0  0  0
    4.6741    2.6041    0.0000 C   0  0  0  0  0  0  0  0  0  0  0  0
    3.2475    2.1406    0.0000 C   0  0  0  0  0  0  0  0  0  0  0  0
    2.1328    3.1443    0.0000 C   0  0  0  0  0  0  0  0  0  0  0  0
    0.7062    2.6807    0.0000 C   0  0  0  0  0  0  0  0  0  0  0  0
   -0.4086    3.6844    0.0000 C   0  0  0  0  0  0  0  0  0  0  0  0
   -0.0967    5.1517    0.0000 O   0  0  0  0  0  0  0  0  0  0  0  0
   -1.8351    3.2209    0.0000 C   0  0  0  0  0  0  0  0  0  0  0  0
   -2.1470    1.7537    0.0000 C   0  0  0  0  0  0  0  0  0  0  0  0
   -3.5736    1.2902    0.0000 O   0  0  0  0  0  0  0  0  0  0  0  0
   -1.0323    0.7500    0.0000 C   0  0  0  0  0  0  0  0  0  0  0  0
    0.3943    1.2135    0.0000 C   0  0  0  0  0  0  0  0  0  0  0  0
    1.2760    0.0000    0.0000 O   0  0  0  0  0  0  0  0  0  0  0  0
    0.3943   -1.2135    0.0000 C   0  0  0  0  0  0  0  0  0  0  0  0
    0.8578   -2.6401    0.0000 C   0  0  0  0  0  0  0  0  0  0  0  0
    2.3250   -2.9520    0.0000 C   0  0  0  0  0  0  0  0  0  0  0  0
    2.7886   -4.3786    0.0000 C   0  0  0  0  0  0  0  0  0  0  0  0
    4.2558   -4.6904    0.0000 C   0  0  0  0  0  0  0  0  0  0  0  0
    5.2595   -3.5757    0.0000 C   0  0  0  0  0  0  0  0  0  0  0  0
    6.7267   -3.8876    0.0000 S   0  0  0  0  0  0  0  0  0  0  0  0
    8.1939   -4.1994    0.0000 N   0  0  0  0  0  0  0  0  0  0  0  0
    6.4148   -5.3548    0.0000 O   0  0  0  0  0  0  0  0  0  0  0  0
    7.0386   -2.4204    0.0000 O   0  0  0  0  0  0  0  0  0  0  0  0
    4.7960   -2.1491    0.0000 C   0  0  0  0  0  0  0  0  0  0  0  0
    3.3287   -1.8373    0.0000 C   0  0  0  0  0  0  0  0  0  0  0  0
   -1.0323   -0.7500    0.0000 C   0  0  0  0  0  0  0  0  0  0  0  0
   -2.2458   -1.6317    0.0000 O   0  0  0  0  0  0  0  0  0  0  0  0
    2.4446    4.6115    0.0000 C   0  0  0  0  0  0  0  0  0  0  0  0
    3.8712    5.0750    0.0000 C   0  0  0  0  0  0  0  0  0  0  0  0
  1  2  1  0
  2  3  1  0
  3  4  1  0
  4  5  1  0
  5  6  1  0
  6  7  2  0
  7  8  1  0
  7  9  1  0
  9 10  2  0
 10 11  1  0
 10 12  1  0
 12 13  2  0
 13 14  1  0
 14 15  1  0
 15 16  2  0
 16 17  1  0
 17 18  2  0
 18 19  1  0
 19 20  2  0
 20 21  1  0
 21 22  1  0
 21 23  2  0
 21 24  2  0
 20 25  1  0
 25 26  2  0
 15 27  1  0
 27 28  2  0
  5 29  1  0
 29 30  1  0
 30  2  1  0
 13  6  1  0
 26 17  1  0
 27 12  1  0
M  END
>  <Compound_ID>  (20) 
CHEMBL48362

>  <Active>  (20) 
1

>  <Smiles>  (20) 
CN1CCC(c2c(O)cc(O)c3c2O/C(=C\c2ccc(S(N)(=O)=O)cc2)C3=O)CC1

>  <canonical_smi>  (20) 
CN1CCC(c2c(O)cc(O)c3c2O/C(=C\c2ccc(S(N)(=O)=O)cc2)C3=O)CC1

>  <Set>  (20) 
G1 active

>  <Set_type>  (20) 
G1

>  <MW>  (20) 
430.48

>  <HBD>  (20) 
3

>  <HBA>  (20) 
7

>  <NRB>  (20) 
3

>  <NR>  (20) 
4

>  <NAR>  (20) 
2

>  <PSA>  (20) 
130.16

>  <Standard Type>  (20) 
nan

>  <Standard Relation>  (20) 
nan

>  <Standard Units>  (20) 
nan

>  <Standard Value>  (20) 
nan

>  <Assay ChEMBL ID>  (20) 
nan

>  <Assay Description>  (20) 
nan

>  <BAO Label>  (20) 
nan

$$$$

     RDKit          2D

 34 38  0  0  0  0  0  0  0  0999 V2000
   -4.0819    0.6918    0.0000 C   0  0  0  0  0  0  0  0  0  0  0  0
   -2.9672   -0.3119    0.0000 N   0  0  0  0  0  0  0  0  0  0  0  0
   -3.1240   -1.8037    0.0000 C   0  0  0  0  0  0  0  0  0  0  0  0
   -1.7537   -2.4138    0.0000 C   0  0  0  0  0  0  0  0  0  0  0  0
   -1.4418   -3.8810    0.0000 C   0  0  0  0  0  0  0  0  0  0  0  0
   -2.5565   -4.8847    0.0000 C   0  0  0  0  0  0  0  0  0  0  0  0
   -4.0238   -4.5728    0.0000 O   0  0  0  0  0  0  0  0  0  0  0  0
   -4.7738   -5.8718    0.0000 C   0  0  0  0  0  0  0  0  0  0  0  0
   -6.2410   -6.1837    0.0000 C   0  0  0  0  0  0  0  0  0  0  0  0
   -6.7045   -7.6103    0.0000 C   0  0  0  0  0  0  0  0  0  0  0  0
   -5.7008   -8.7250    0.0000 C   0  0  0  0  0  0  0  0  0  0  0  0
   -4.2336   -8.4131    0.0000 C   0  0  0  0  0  0  0  0  0  0  0  0
   -3.2299   -9.5279    0.0000 O   0  0  0  0  0  0  0  0  0  0  0  0
   -3.7701   -6.9866    0.0000 C   0  0  0  0  0  0  0  0  0  0  0  0
   -2.3998   -6.3765    0.0000 C   0  0  0  0  0  0  0  0  0  0  0  0
   -1.1007   -7.1265    0.0000 O   0  0  0  0  0  0  0  0  0  0  0  0
   -0.7500   -1.2990    0.0000 C   0  0  0  0  0  0  0  0  0  0  0  0
    0.7500   -1.2990    0.0000 C   0  0  0  0  0  0  0  0  0  0  0  0
    1.5000   -2.5981    0.0000 C   0  0  0  0  0  0  0  0  0  0  0  0
    0.7500   -3.8971    0.0000 C   0  0  0  0  0  0  0  0  0  0  0  0
    1.5000   -5.1962    0.0000 C   0  0  0  0  0  0  0  0  0  0  0  0
    3.0000   -5.1962    0.0000 C   0  0  0  0  0  0  0  0  0  0  0  0
    3.7500   -6.4952    0.0000 C   0  0  0  0  0  0  0  0  0  0  0  0
    5.2500   -6.4952    0.0000 O   0  0  0  0  0  0  0  0  0  0  0  0
    3.0000   -7.7942    0.0000 N   0  0  0  0  0  0  0  0  0  0  0  0
    3.7500   -9.0933    0.0000 C   0  0  0  0  0  0  0  0  0  0  0  0
    3.0000  -10.3923    0.0000 C   0  0  0  0  0  0  0  0  0  0  0  0
    3.7500  -11.6913    0.0000 O   0  0  0  0  0  0  0  0  0  0  0  0
    3.7500   -3.8971    0.0000 C   0  0  0  0  0  0  0  0  0  0  0  0
    3.0000   -2.5981    0.0000 C   0  0  0  0  0  0  0  0  0  0  0  0
    1.5000    0.0000    0.0000 C   0  0  0  0  0  0  0  0  0  0  0  0
    0.7500    1.2990    0.0000 C   0  0  0  0  0  0  0  0  0  0  0  0
   -0.7500    1.2990    0.0000 N   0  0  0  0  0  0  0  0  0  0  0  0
   -1.5000    0.0000    0.0000 C   0  0  0  0  0  0  0  0  0  0  0  0
  1  2  1  0
  2  3  1  0
  3  4  2  0
  4  5  1  0
  5  6  2  0
  6  7  1  0
  7  8  1  0
  8  9  2  0
  9 10  1  0
 10 11  2  0
 11 12  1  0
 12 13  1  0
 12 14  2  0
 14 15  1  0
 15 16  2  0
  4 17  1  0
 17 18  2  0
 18 19  1  0
 19 20  2  0
 20 21  1  0
 21 22  2  0
 22 23  1  0
 23 24  2  0
 23 25  1  0
 25 26  1  0
 26 27  1  0
 27 28  1  0
 22 29  1  0
 29 30  2  0
 18 31  1  0
 31 32  2  0
 32 33  1  0
 33 34  2  0
 34  2  1  0
 15  6  1  0
 34 17  1  0
 14  8  1  0
 30 19  1  0
M  END
>  <Compound_ID>  (21) 
CHEMBL1092754

>  <Active>  (21) 
1

>  <Smiles>  (21) 
Cn1cc(/C=C2\Oc3cccc(O)c3C2=O)c2c(-c3ccc(C(=O)NCCO)cc3)ccnc21

>  <canonical_smi>  (21) 
Cn1cc(/C=C2\Oc3cccc(O)c3C2=O)c2c(-c3ccc(C(=O)NCCO)cc3)ccnc21

>  <Set>  (21) 
G1 active

>  <Set_type>  (21) 
G1

>  <MW>  (21) 
455.47

>  <HBD>  (21) 
3

>  <HBA>  (21) 
6

>  <NRB>  (21) 
5

>  <NR>  (21) 
5

>  <NAR>  (21) 
4

>  <PSA>  (21) 
113.68

>  <Standard Type>  (21) 
nan

>  <Standard Relation>  (21) 
nan

>  <Standard Units>  (21) 
nan

>  <Standard Value>  (21) 
nan

>  <Assay ChEMBL ID>  (21) 
nan

>  <Assay Description>  (21) 
nan

>  <BAO Label>  (21) 
nan

$$$$

     RDKit          2D

 30 33  0  0  0  0  0  0  0  0999 V2000
   -9.7600  -15.0894    0.0000 C   0  0  0  0  0  0  0  0  0  0  0  0
   -8.2928  -15.4012    0.0000 C   0  0  0  0  0  0  0  0  0  0  0  0
   -7.2891  -14.2865    0.0000 C   0  0  0  0  0  0  0  0  0  0  0  0
   -5.8219  -14.5984    0.0000 C   0  0  0  0  0  0  0  0  0  0  0  0
   -4.8182  -13.4837    0.0000 N   0  0  0  0  0  0  0  0  0  0  0  0
   -3.3510  -13.7955    0.0000 C   0  0  0  0  0  0  0  0  0  0  0  0
   -2.8874  -15.2221    0.0000 O   0  0  0  0  0  0  0  0  0  0  0  0
   -2.3473  -12.6808    0.0000 N   0  0  0  0  0  0  0  0  0  0  0  0
   -0.8555  -12.8376    0.0000 C   0  0  0  0  0  0  0  0  0  0  0  0
   -0.2454  -11.4673    0.0000 C   0  0  0  0  0  0  0  0  0  0  0  0
    1.0537  -10.7173    0.0000 N   0  0  0  0  0  0  0  0  0  0  0  0
    0.7418   -9.2501    0.0000 N   0  0  0  0  0  0  0  0  0  0  0  0
   -0.7500   -9.0933    0.0000 C   0  0  0  0  0  0  0  0  0  0  0  0
   -1.5000   -7.7942    0.0000 N   0  0  0  0  0  0  0  0  0  0  0  0
   -0.7500   -6.4952    0.0000 C   0  0  0  0  0  0  0  0  0  0  0  0
    0.7500   -6.4952    0.0000 O   0  0  0  0  0  0  0  0  0  0  0  0
   -1.5000   -5.1962    0.0000 C   0  0  0  0  0  0  0  0  0  0  0  0
   -3.0000   -5.1962    0.0000 C   0  0  0  0  0  0  0  0  0  0  0  0
   -0.7500   -3.8971    0.0000 C   0  0  0  0  0  0  0  0  0  0  0  0
    0.7500   -3.8971    0.0000 C   0  0  0  0  0  0  0  0  0  0  0  0
    1.5000   -2.5981    0.0000 C   0  0  0  0  0  0  0  0  0  0  0  0
    0.7500   -1.2990    0.0000 C   0  0  0  0  0  0  0  0  0  0  0  0
    1.5000    0.0000    0.0000 C   0  0  0  0  0  0  0  0  0  0  0  0
    0.7500    1.2990    0.0000 C   0  0  0  0  0  0  0  0  0  0  0  0
   -0.7500    1.2990    0.0000 C   0  0  0  0  0  0  0  0  0  0  0  0
   -1.5000    0.0000    0.0000 C   0  0  0  0  0  0  0  0  0  0  0  0
   -0.7500   -1.2990    0.0000 C   0  0  0  0  0  0  0  0  0  0  0  0
   -1.5000   -2.5981    0.0000 C   0  0  0  0  0  0  0  0  0  0  0  0
   -1.3601  -10.4636    0.0000 C   0  0  0  0  0  0  0  0  0  0  0  0
   -2.6591  -11.2136    0.0000 C   0  0  0  0  0  0  0  0  0  0  0  0
  1  2  1  0
  2  3  1  0
  3  4  1  0
  4  5  1  0
  5  6  1  0
  6  7  2  0
  6  8  1  0
  8  9  1  0
  9 10  1  0
 10 11  2  0
 11 12  1  0
 12 13  1  0
 13 14  1  0
 14 15  1  0
 15 16  2  0
 15 17  1  0
 17 18  1  1
 17 19  1  0
 19 20  2  0
 20 21  1  0
 21 22  2  0
 22 23  1  0
 23 24  2  0
 24 25  1  0
 25 26  2  0
 26 27  1  0
 27 28  2  0
 13 29  2  0
 29 30  1  0
 30  8  1  0
 29 10  1  0
 28 19  1  0
 27 22  1  0
M  END
>  <Compound_ID>  (22) 
CHEMBL380946

>  <Active>  (22) 
1

>  <Smiles>  (22) 
CCCCNC(=O)N1Cc2n[nH]c(NC(=O)[C@@H](C)c3ccc4ccccc4c3)c2C1

>  <canonical_smi>  (22) 
CCCCNC(=O)N1Cc2n[nH]c(NC(=O)[C@@H](C)c3ccc4ccccc4c3)c2C1

>  <Set>  (22) 
G1 active

>  <Set_type>  (22) 
G1

>  <MW>  (22) 
405.5

>  <HBD>  (22) 
3

>  <HBA>  (22) 
3

>  <NRB>  (22) 
6

>  <NR>  (22) 
4

>  <NAR>  (22) 
3

>  <PSA>  (22) 
90.12

>  <Standard Type>  (22) 
nan

>  <Standard Relation>  (22) 
nan

>  <Standard Units>  (22) 
nan

>  <Standard Value>  (22) 
nan

>  <Assay ChEMBL ID>  (22) 
nan

>  <Assay Description>  (22) 
nan

>  <BAO Label>  (22) 
nan

$$$$

     RDKit          2D

 36 41  0  0  0  0  0  0  0  0999 V2000
    9.7500   -3.8971    0.0000 C   0  0  0  0  0  0  0  0  0  0  0  0
    8.2500   -3.8971    0.0000 N   0  0  0  0  0  0  0  0  0  0  0  0
    7.5000   -5.1962    0.0000 C   0  0  0  0  0  0  0  0  0  0  0  0
    6.0000   -5.1962    0.0000 C   0  0  0  0  0  0  0  0  0  0  0  0
    5.2500   -3.8971    0.0000 N   0  0  0  0  0  0  0  0  0  0  0  0
    3.7500   -3.8971    0.0000 C   0  0  0  0  0  0  0  0  0  0  0  0
    3.0000   -2.5981    0.0000 C   0  0  0  0  0  0  0  0  0  0  0  0
    3.7500   -1.2990    0.0000 O   0  0  0  0  0  0  0  0  0  0  0  0
    1.5000   -2.5981    0.0000 N   0  0  0  0  0  0  0  0  0  0  0  0
    0.7500   -1.2990    0.0000 C   0  0  0  0  0  0  0  0  0  0  0  0
    1.5000    0.0000    0.0000 C   0  0  0  0  0  0  0  0  0  0  0  0
    0.7500    1.2990    0.0000 C   0  0  0  0  0  0  0  0  0  0  0  0
   -0.7500    1.2990    0.0000 C   0  0  0  0  0  0  0  0  0  0  0  0
   -1.5000    0.0000    0.0000 C   0  0  0  0  0  0  0  0  0  0  0  0
   -0.7500   -1.2990    0.0000 C   0  0  0  0  0  0  0  0  0  0  0  0
   -1.7537   -2.4138    0.0000 C   0  0  0  0  0  0  0  0  0  0  0  0
   -1.4418   -3.8810    0.0000 O   0  0  0  0  0  0  0  0  0  0  0  0
   -3.1240   -1.8037    0.0000 C   0  0  0  0  0  0  0  0  0  0  0  0
   -4.5912   -2.1155    0.0000 C   0  0  0  0  0  0  0  0  0  0  0  0
   -5.2013   -3.4858    0.0000 C   0  0  0  0  0  0  0  0  0  0  0  0
   -6.6931   -3.6426    0.0000 C   0  0  0  0  0  0  0  0  0  0  0  0
   -7.3032   -5.0129    0.0000 C   0  0  0  0  0  0  0  0  0  0  0  0
   -6.4216   -6.2265    0.0000 C   0  0  0  0  0  0  0  0  0  0  0  0
   -7.0317   -7.5968    0.0000 N   0  0  0  0  0  0  0  0  0  0  0  0
   -8.5234   -7.7536    0.0000 C   0  0  0  0  0  0  0  0  0  0  0  0
   -9.1335   -9.1239    0.0000 C   0  0  0  0  0  0  0  0  0  0  0  0
   -8.2519  -10.3374    0.0000 O   0  0  0  0  0  0  0  0  0  0  0  0
   -6.7601  -10.1806    0.0000 C   0  0  0  0  0  0  0  0  0  0  0  0
   -6.1500   -8.8103    0.0000 C   0  0  0  0  0  0  0  0  0  0  0  0
   -4.9298   -6.0697    0.0000 C   0  0  0  0  0  0  0  0  0  0  0  0
   -4.3197   -4.6994    0.0000 C   0  0  0  0  0  0  0  0  0  0  0  0
   -5.3412   -0.8165    0.0000 N   0  0  0  0  0  0  0  0  0  0  0  0
   -4.3375    0.2982    0.0000 N   0  0  0  0  0  0  0  0  0  0  0  0
   -2.9672   -0.3119    0.0000 C   0  0  0  0  0  0  0  0  0  0  0  0
    6.0000   -2.5981    0.0000 C   0  0  0  0  0  0  0  0  0  0  0  0
    7.5000   -2.5981    0.0000 C   0  0  0  0  0  0  0  0  0  0  0  0
  1  2  1  0
  2  3  1  0
  3  4  1  0
  4  5  1  0
  5  6  1  0
  6  7  1  0
  7  8  2  0
  7  9  1  0
  9 10  1  0
 10 11  2  0
 11 12  1  0
 12 13  2  0
 13 14  1  0
 14 15  2  0
 15 16  1  0
 16 17  2  0
 16 18  1  0
 18 19  1  0
 19 20  1  0
 20 21  2  0
 21 22  1  0
 22 23  2  0
 23 24  1  0
 24 25  1  0
 25 26  1  0
 26 27  1  0
 27 28  1  0
 28 29  1  0
 23 30  1  0
 30 31  2  0
 19 32  2  0
 32 33  1  0
 33 34  1  0
  5 35  1  0
 35 36  1  0
 36  2  1  0
 15 10  1  0
 34 18  2  0
 34 14  1  0
 31 20  1  0
 29 24  1  0
M  END
>  <Compound_ID>  (23) 
CHEMBL147184

>  <Active>  (23) 
1

>  <Smiles>  (23) 
CN1CCN(CC(=O)Nc2cccc3c2C(=O)c2c(-c4ccc(N5CCOCC5)cc4)n[nH]c2-3)CC1

>  <canonical_smi>  (23) 
CN1CCN(CC(=O)Nc2cccc3c2C(=O)c2c(-c4ccc(N5CCOCC5)cc4)n[nH]c2-3)CC1

>  <Set>  (23) 
G1 active

>  <Set_type>  (23) 
G1

>  <MW>  (23) 
486.58

>  <HBD>  (23) 
2

>  <HBA>  (23) 
7

>  <NRB>  (23) 
5

>  <NR>  (23) 
6

>  <NAR>  (23) 
4

>  <PSA>  (23) 
93.8

>  <Standard Type>  (23) 
nan

>  <Standard Relation>  (23) 
nan

>  <Standard Units>  (23) 
nan

>  <Standard Value>  (23) 
nan

>  <Assay ChEMBL ID>  (23) 
nan

>  <Assay Description>  (23) 
nan

>  <BAO Label>  (23) 
nan

$$$$

     RDKit          2D

 25 27  0  0  0  0  0  0  0  0999 V2000
    6.5218   -4.2298    0.0000 C   0  0  0  0  0  0  0  0  0  0  0  0
    5.3083   -3.3481    0.0000 C   0  0  0  0  0  0  0  0  0  0  0  0
    3.8817   -3.8116    0.0000 C   0  0  0  0  0  0  0  0  0  0  0  0
    3.0000   -2.5981    0.0000 C   0  0  0  0  0  0  0  0  0  0  0  0
    1.5000   -2.5981    0.0000 N   0  0  0  0  0  0  0  0  0  0  0  0
    0.7500   -1.2990    0.0000 C   0  0  0  0  0  0  0  0  0  0  0  0
    1.5000    0.0000    0.0000 C   0  0  0  0  0  0  0  0  0  0  0  0
    0.7500    1.2990    0.0000 N   0  0  0  0  0  0  0  0  0  0  0  0
   -0.7500    1.2990    0.0000 C   0  0  0  0  0  0  0  0  0  0  0  0
   -1.5000    2.5981    0.0000 C   0  0  0  0  0  0  0  0  0  0  0  0
   -2.2500    3.8971    0.0000 N   0  0  0  0  0  0  0  0  0  0  0  0
   -1.5000    0.0000    0.0000 C   0  0  0  0  0  0  0  0  0  0  0  0
   -3.0000    0.0000    0.0000 N   0  0  0  0  0  0  0  0  0  0  0  0
   -3.7500   -1.2990    0.0000 C   0  0  0  0  0  0  0  0  0  0  0  0
   -5.2500   -1.2990    0.0000 C   0  0  0  0  0  0  0  0  0  0  0  0
   -3.0000   -2.5981    0.0000 C   0  0  0  0  0  0  0  0  0  0  0  0
   -3.7500   -3.8971    0.0000 N   0  0  0  0  0  0  0  0  0  0  0  0
   -3.0000   -5.1962    0.0000 C   0  0  0  0  0  0  0  0  0  0  0  0
   -1.5000   -5.1962    0.0000 C   0  0  0  0  0  0  0  0  0  0  0  0
   -0.7500   -6.4952    0.0000 F   0  0  0  0  0  0  0  0  0  0  0  0
   -0.7500   -3.8971    0.0000 C   0  0  0  0  0  0  0  0  0  0  0  0
   -1.5000   -2.5981    0.0000 N   0  0  0  0  0  0  0  0  0  0  0  0
   -0.7500   -1.2990    0.0000 N   0  0  0  0  0  0  0  0  0  0  0  0
    3.8817   -1.3846    0.0000 N   0  0  0  0  0  0  0  0  0  0  0  0
    5.3083   -1.8481    0.0000 N   0  0  0  0  0  0  0  0  0  0  0  0
  1  2  1  0
  2  3  2  0
  3  4  1  0
  4  5  1  0
  5  6  1  0
  6  7  2  0
  7  8  1  0
  8  9  2  0
  9 10  1  0
 10 11  3  0
  9 12  1  0
 12 13  1  0
 13 14  1  0
 14 15  1  6
 14 16  1  0
 16 17  2  0
 17 18  1  0
 18 19  2  0
 19 20  1  0
 19 21  1  0
 21 22  2  0
 12 23  2  0
  4 24  2  0
 24 25  1  0
 25  2  1  0
 23  6  1  0
 22 16  1  0
M  END
>  <Compound_ID>  (24) 
CHEMBL570002

>  <Active>  (24) 
1

>  <Smiles>  (24) 
Cc1cc(Nc2cnc(C#N)c(N[C@@H](C)c3ncc(F)cn3)n2)n[nH]1

>  <canonical_smi>  (24) 
Cc1cc(Nc2cnc(C#N)c(N[C@@H](C)c3ncc(F)cn3)n2)n[nH]1

>  <Set>  (24) 
G1 active

>  <Set_type>  (24) 
G1

>  <MW>  (24) 
339.34

>  <HBD>  (24) 
3

>  <HBA>  (24) 
8

>  <NRB>  (24) 
5

>  <NR>  (24) 
3

>  <NAR>  (24) 
3

>  <PSA>  (24) 
128.09

>  <Standard Type>  (24) 
nan

>  <Standard Relation>  (24) 
nan

>  <Standard Units>  (24) 
nan

>  <Standard Value>  (24) 
nan

>  <Assay ChEMBL ID>  (24) 
nan

>  <Assay Description>  (24) 
nan

>  <BAO Label>  (24) 
nan

$$$$

     RDKit          2D

 31 36  0  0  0  0  0  0  0  0999 V2000
    2.6401   -3.1891    0.0000 C   0  0  0  0  0  0  0  0  0  0  0  0
    1.2135   -2.7256    0.0000 N   0  0  0  0  0  0  0  0  0  0  0  0
    0.7500   -1.2990    0.0000 C   0  0  0  0  0  0  0  0  0  0  0  0
    1.5000    0.0000    0.0000 C   0  0  0  0  0  0  0  0  0  0  0  0
    0.7500    1.2990    0.0000 C   0  0  0  0  0  0  0  0  0  0  0  0
   -0.7500    1.2990    0.0000 C   0  0  0  0  0  0  0  0  0  0  0  0
   -1.5000    0.0000    0.0000 C   0  0  0  0  0  0  0  0  0  0  0  0
   -0.7500   -1.2990    0.0000 C   0  0  0  0  0  0  0  0  0  0  0  0
   -1.2135   -2.7256    0.0000 C   0  0  0  0  0  0  0  0  0  0  0  0
   -2.5838   -3.3357    0.0000 C   0  0  0  0  0  0  0  0  0  0  0  0
   -2.7406   -4.8275    0.0000 C   0  0  0  0  0  0  0  0  0  0  0  0
   -1.5271   -5.7092    0.0000 C   0  0  0  0  0  0  0  0  0  0  0  0
   -1.3703   -7.2010    0.0000 C   0  0  0  0  0  0  0  0  0  0  0  0
   -2.3740   -8.3157    0.0000 C   0  0  0  0  0  0  0  0  0  0  0  0
   -1.9105   -9.7423    0.0000 C   0  0  0  0  0  0  0  0  0  0  0  0
   -0.4433  -10.0541    0.0000 C   0  0  0  0  0  0  0  0  0  0  0  0
    0.5604   -8.9394    0.0000 C   0  0  0  0  0  0  0  0  0  0  0  0
    0.0969   -7.5128    0.0000 C   0  0  0  0  0  0  0  0  0  0  0  0
    0.8469   -6.2138    0.0000 N   0  0  0  0  0  0  0  0  0  0  0  0
    2.3387   -6.0570    0.0000 C   0  0  0  0  0  0  0  0  0  0  0  0
    3.2204   -7.2705    0.0000 C   0  0  0  0  0  0  0  0  0  0  0  0
    2.6103   -8.6409    0.0000 O   0  0  0  0  0  0  0  0  0  0  0  0
    4.7121   -7.1137    0.0000 C   0  0  0  0  0  0  0  0  0  0  0  0
    5.5938   -8.3273    0.0000 O   0  0  0  0  0  0  0  0  0  0  0  0
   -0.1568   -5.0991    0.0000 C   0  0  0  0  0  0  0  0  0  0  0  0
   -0.0000   -3.6073    0.0000 C   0  0  0  0  0  0  0  0  0  0  0  0
   -4.2079   -5.1394    0.0000 C   0  0  0  0  0  0  0  0  0  0  0  0
   -4.8180   -6.5097    0.0000 O   0  0  0  0  0  0  0  0  0  0  0  0
   -4.9579   -3.8403    0.0000 N   0  0  0  0  0  0  0  0  0  0  0  0
   -3.9542   -2.7256    0.0000 C   0  0  0  0  0  0  0  0  0  0  0  0
   -4.2660   -1.2584    0.0000 O   0  0  0  0  0  0  0  0  0  0  0  0
  1  2  1  0
  2  3  1  0
  3  4  2  0
  4  5  1  0
  5  6  2  0
  6  7  1  0
  7  8  2  0
  8  9  1  0
  9 10  2  0
 10 11  1  0
 11 12  2  0
 12 13  1  0
 13 14  2  0
 14 15  1  0
 15 16  2  0
 16 17  1  0
 17 18  2  0
 18 19  1  0
 19 20  1  0
 20 21  1  0
 21 22  1  0
 21 23  1  0
 23 24  1  0
 19 25  1  0
 25 26  2  0
 11 27  1  0
 27 28  2  0
 27 29  1  0
 29 30  1  0
 30 31  2  0
 26  2  1  0
  8  3  1  0
 26  9  1  0
 30 10  1  0
 25 12  1  0
 18 13  1  0
M  END
>  <Compound_ID>  (25) 
CHEMBL339948

>  <Active>  (25) 
1

>  <Smiles>  (25) 
Cn1c2ccccc2c2c3c(c4c5ccccc5n(CC(O)CO)c4c21)C(=O)NC3=O

>  <canonical_smi>  (25) 
Cn1c2ccccc2c2c3c(c4c5ccccc5n(CC(O)CO)c4c21)C(=O)NC3=O

>  <Set>  (25) 
G1 active

>  <Set_type>  (25) 
G1

>  <MW>  (25) 
413.43

>  <HBD>  (25) 
3

>  <HBA>  (25) 
4

>  <NRB>  (25) 
3

>  <NR>  (25) 
6

>  <NAR>  (25) 
5

>  <PSA>  (25) 
96.49

>  <Standard Type>  (25) 
nan

>  <Standard Relation>  (25) 
nan

>  <Standard Units>  (25) 
nan

>  <Standard Value>  (25) 
nan

>  <Assay ChEMBL ID>  (25) 
nan

>  <Assay Description>  (25) 
nan

>  <BAO Label>  (25) 
nan

$$$$

     RDKit          2D

 28 31  0  0  0  0  0  0  0  0999 V2000
    3.0000    0.0000    0.0000 C   0  0  0  0  0  0  0  0  0  0  0  0
    1.5000    0.0000    0.0000 C   0  0  0  0  0  0  0  0  0  0  0  0
    0.7500   -1.2990    0.0000 C   0  0  0  0  0  0  0  0  0  0  0  0
   -0.7500   -1.2990    0.0000 C   0  0  0  0  0  0  0  0  0  0  0  0
   -1.5000   -2.5981    0.0000 N   0  0  0  0  0  0  0  0  0  0  0  0
   -0.8899   -3.9684    0.0000 C   0  0  0  0  0  0  0  0  0  0  0  0
   -2.0046   -4.9721    0.0000 C   0  0  0  0  0  0  0  0  0  0  0  0
   -3.3037   -4.2221    0.0000 C   0  0  0  0  0  0  0  0  0  0  0  0
   -2.9918   -2.7549    0.0000 S   0  0  0  0  0  0  0  0  0  0  0  0
   -4.4836   -2.5981    0.0000 O   0  0  0  0  0  0  0  0  0  0  0  0
   -2.9918   -1.2549    0.0000 O   0  0  0  0  0  0  0  0  0  0  0  0
   -1.5000    0.0000    0.0000 C   0  0  0  0  0  0  0  0  0  0  0  0
   -3.0000    0.0000    0.0000 O   0  0  0  0  0  0  0  0  0  0  0  0
   -3.7500    1.2990    0.0000 C   0  0  0  0  0  0  0  0  0  0  0  0
   -5.2500    1.2990    0.0000 C   0  0  0  0  0  0  0  0  0  0  0  0
   -6.0000    2.5981    0.0000 C   0  0  0  0  0  0  0  0  0  0  0  0
   -7.5000    2.5981    0.0000 C   0  0  0  0  0  0  0  0  0  0  0  0
   -8.2500    1.2990    0.0000 C   0  0  0  0  0  0  0  0  0  0  0  0
   -9.7500    1.2990    0.0000 O   0  0  0  0  0  0  0  0  0  0  0  0
   -7.5000    0.0000    0.0000 C   0  0  0  0  0  0  0  0  0  0  0  0
   -8.2500   -1.2990    0.0000 Br  0  0  0  0  0  0  0  0  0  0  0  0
   -6.0000    0.0000    0.0000 C   0  0  0  0  0  0  0  0  0  0  0  0
   -3.0000    2.5981    0.0000 C   0  0  0  0  0  0  0  0  0  0  0  0
   -3.7500    3.8971    0.0000 O   0  0  0  0  0  0  0  0  0  0  0  0
   -1.5000    2.5981    0.0000 C   0  0  0  0  0  0  0  0  0  0  0  0
   -0.7500    3.8971    0.0000 O   0  0  0  0  0  0  0  0  0  0  0  0
   -0.7500    1.2990    0.0000 C   0  0  0  0  0  0  0  0  0  0  0  0
    0.7500    1.2990    0.0000 C   0  0  0  0  0  0  0  0  0  0  0  0
  1  2  1  0
  2  3  2  0
  3  4  1  0
  4  5  1  0
  5  6  1  0
  6  7  1  0
  7  8  1  0
  8  9  1  0
  9 10  2  0
  9 11  2  0
  4 12  2  0
 12 13  1  0
 13 14  1  0
 14 15  1  0
 15 16  2  0
 16 17  1  0
 17 18  2  0
 18 19  1  0
 18 20  1  0
 20 21  1  0
 20 22  2  0
 14 23  2  0
 23 24  1  0
 23 25  1  0
 25 26  2  0
 25 27  1  0
 27 28  2  0
 28  2  1  0
  9  5  1  0
 27 12  1  0
 22 15  1  0
M  END
>  <Compound_ID>  (26) 
CHEMBL392776

>  <Active>  (26) 
1

>  <Smiles>  (26) 
Cc1cc(N2CCCS2(=O)=O)c2oc(-c3ccc(O)c(Br)c3)c(O)c(=O)c2c1

>  <canonical_smi>  (26) 
Cc1cc(N2CCCS2(=O)=O)c2oc(-c3ccc(O)c(Br)c3)c(O)c(=O)c2c1

>  <Set>  (26) 
G1 active

>  <Set_type>  (26) 
G1

>  <MW>  (26) 
466.31

>  <HBD>  (26) 
2

>  <HBA>  (26) 
6

>  <NRB>  (26) 
2

>  <NR>  (26) 
4

>  <NAR>  (26) 
3

>  <PSA>  (26) 
108.05

>  <Standard Type>  (26) 
nan

>  <Standard Relation>  (26) 
nan

>  <Standard Units>  (26) 
nan

>  <Standard Value>  (26) 
nan

>  <Assay ChEMBL ID>  (26) 
nan

>  <Assay Description>  (26) 
nan

>  <BAO Label>  (26) 
nan

$$$$

     RDKit          2D

 16 18  0  0  0  0  0  0  0  0999 V2000
    1.6418    7.0824    0.0000 C   0  0  0  0  0  0  0  0  0  0  0  0
    1.3299    5.6152    0.0000 C   0  0  0  0  0  0  0  0  0  0  0  0
    2.4446    4.6115    0.0000 C   0  0  0  0  0  0  0  0  0  0  0  0
   -0.0967    5.1517    0.0000 C   0  0  0  0  0  0  0  0  0  0  0  0
   -0.4086    3.6844    0.0000 C   0  0  0  0  0  0  0  0  0  0  0  0
    0.7062    2.6807    0.0000 C   0  0  0  0  0  0  0  0  0  0  0  0
    0.3943    1.2135    0.0000 C   0  0  0  0  0  0  0  0  0  0  0  0
    1.2760    0.0000    0.0000 C   0  0  0  0  0  0  0  0  0  0  0  0
    0.3943   -1.2135    0.0000 N   0  0  0  0  0  0  0  0  0  0  0  0
   -1.0323   -0.7500    0.0000 N   0  0  0  0  0  0  0  0  0  0  0  0
   -1.0323    0.7500    0.0000 C   0  0  0  0  0  0  0  0  0  0  0  0
   -2.1470    1.7537    0.0000 C   0  0  0  0  0  0  0  0  0  0  0  0
   -3.6388    1.5969    0.0000 C   0  0  0  0  0  0  0  0  0  0  0  0
   -4.2489    2.9672    0.0000 N   0  0  0  0  0  0  0  0  0  0  0  0
   -3.1342    3.9709    0.0000 N   0  0  0  0  0  0  0  0  0  0  0  0
   -1.8351    3.2209    0.0000 C   0  0  0  0  0  0  0  0  0  0  0  0
  1  2  1  0
  2  3  1  0
  2  4  1  0
  4  5  1  0
  5  6  1  0
  6  7  1  0
  7  8  2  0
  8  9  1  0
  9 10  1  0
 10 11  2  0
 11 12  1  0
 12 13  2  0
 13 14  1  0
 14 15  1  0
 15 16  2  0
 16  5  1  0
 11  7  1  0
 16 12  1  0
M  END
>  <Compound_ID>  (27) 
CHEMBL178452

>  <Active>  (27) 
1

>  <Smiles>  (27) 
CC(C)CC1Cc2c[nH]nc2-c2c[nH]nc21

>  <canonical_smi>  (27) 
CC(C)CC1Cc2c[nH]nc2-c2c[nH]nc21

>  <Set>  (27) 
G1 active

>  <Set_type>  (27) 
G1

>  <MW>  (27) 
216.29

>  <HBD>  (27) 
2

>  <HBA>  (27) 
2

>  <NRB>  (27) 
2

>  <NR>  (27) 
3

>  <NAR>  (27) 
2

>  <PSA>  (27) 
57.36

>  <Standard Type>  (27) 
nan

>  <Standard Relation>  (27) 
nan

>  <Standard Units>  (27) 
nan

>  <Standard Value>  (27) 
nan

>  <Assay ChEMBL ID>  (27) 
nan

>  <Assay Description>  (27) 
nan

>  <BAO Label>  (27) 
nan

$$$$

     RDKit          2D

 22 24  0  0  0  0  0  0  0  0999 V2000
   -8.6562    2.3705    0.0000 C   0  0  0  0  0  0  0  0  0  0  0  0
   -7.2296    2.8340    0.0000 C   0  0  0  0  0  0  0  0  0  0  0  0
   -6.1149    1.8303    0.0000 C   0  0  0  0  0  0  0  0  0  0  0  0
   -4.6883    2.2939    0.0000 C   0  0  0  0  0  0  0  0  0  0  0  0
   -3.5736    1.2902    0.0000 O   0  0  0  0  0  0  0  0  0  0  0  0
   -2.1470    1.7537    0.0000 C   0  0  0  0  0  0  0  0  0  0  0  0
   -1.8351    3.2209    0.0000 C   0  0  0  0  0  0  0  0  0  0  0  0
   -2.9499    4.2246    0.0000 C   0  0  0  0  0  0  0  0  0  0  0  0
   -4.3764    3.7611    0.0000 O   0  0  0  0  0  0  0  0  0  0  0  0
   -2.6380    5.6918    0.0000 C   0  0  0  0  0  0  0  0  0  0  0  0
   -1.2114    6.1554    0.0000 C   0  0  0  0  0  0  0  0  0  0  0  0
   -0.8995    7.6226    0.0000 C   0  0  0  0  0  0  0  0  0  0  0  0
   -2.0143    8.6263    0.0000 C   0  0  0  0  0  0  0  0  0  0  0  0
   -3.4408    8.1628    0.0000 C   0  0  0  0  0  0  0  0  0  0  0  0
   -3.7527    6.6955    0.0000 C   0  0  0  0  0  0  0  0  0  0  0  0
   -0.4086    3.6844    0.0000 C   0  0  0  0  0  0  0  0  0  0  0  0
    0.7062    2.6807    0.0000 N   0  0  0  0  0  0  0  0  0  0  0  0
    0.3943    1.2135    0.0000 C   0  0  0  0  0  0  0  0  0  0  0  0
    1.2760    0.0000    0.0000 N   0  0  0  0  0  0  0  0  0  0  0  0
    0.3943   -1.2135    0.0000 N   0  0  0  0  0  0  0  0  0  0  0  0
   -1.0323   -0.7500    0.0000 C   0  0  0  0  0  0  0  0  0  0  0  0
   -1.0323    0.7500    0.0000 C   0  0  0  0  0  0  0  0  0  0  0  0
  1  2  1  0
  2  3  1  0
  3  4  1  0
  4  5  1  0
  5  6  1  0
  6  7  2  0
  7  8  1  0
  8  9  2  0
  8 10  1  0
 10 11  2  0
 11 12  1  0
 12 13  2  0
 13 14  1  0
 14 15  2  0
  7 16  1  0
 16 17  2  0
 17 18  1  0
 18 19  1  0
 19 20  1  0
 20 21  2  0
 21 22  1  0
 22  6  1  0
 15 10  1  0
 22 18  2  0
M  END
>  <Compound_ID>  (28) 
CHEMBL14619

>  <Active>  (28) 
1

>  <Smiles>  (28) 
CCCCOc1c(C(=O)c2ccccc2)cnc2[nH]ncc12

>  <canonical_smi>  (28) 
CCCCOc1c(C(=O)c2ccccc2)cnc2[nH]ncc12

>  <Set>  (28) 
G1 active

>  <Set_type>  (28) 
G1

>  <MW>  (28) 
295.34

>  <HBD>  (28) 
1

>  <HBA>  (28) 
4

>  <NRB>  (28) 
6

>  <NR>  (28) 
3

>  <NAR>  (28) 
3

>  <PSA>  (28) 
67.87

>  <Standard Type>  (28) 
nan

>  <Standard Relation>  (28) 
nan

>  <Standard Units>  (28) 
nan

>  <Standard Value>  (28) 
nan

>  <Assay ChEMBL ID>  (28) 
nan

>  <Assay Description>  (28) 
nan

>  <BAO Label>  (28) 
nan

$$$$

     RDKit          2D

 20 22  0  0  0  0  0  0  0  0999 V2000
   -4.6904   -6.5871    0.0000 C   0  0  0  0  0  0  0  0  0  0  0  0
   -4.3786   -5.1199    0.0000 C   0  0  0  0  0  0  0  0  0  0  0  0
   -2.9520   -4.6564    0.0000 C   0  0  0  0  0  0  0  0  0  0  0  0
   -2.6401   -3.1891    0.0000 C   0  0  0  0  0  0  0  0  0  0  0  0
   -1.2135   -2.7256    0.0000 C   0  0  0  0  0  0  0  0  0  0  0  0
   -0.0000   -3.6073    0.0000 C   0  0  0  0  0  0  0  0  0  0  0  0
   -0.0000   -5.1073    0.0000 C   0  0  0  0  0  0  0  0  0  0  0  0
   -1.2990   -5.8573    0.0000 C   0  0  0  0  0  0  0  0  0  0  0  0
   -1.2990   -7.3573    0.0000 C   0  0  0  0  0  0  0  0  0  0  0  0
   -0.0000   -8.1073    0.0000 C   0  0  0  0  0  0  0  0  0  0  0  0
   -0.0000   -9.6073    0.0000 O   0  0  0  0  0  0  0  0  0  0  0  0
    1.2990   -7.3573    0.0000 C   0  0  0  0  0  0  0  0  0  0  0  0
    1.2990   -5.8573    0.0000 C   0  0  0  0  0  0  0  0  0  0  0  0
    1.2135   -2.7256    0.0000 N   0  0  0  0  0  0  0  0  0  0  0  0
    0.7500   -1.2990    0.0000 C   0  0  0  0  0  0  0  0  0  0  0  0
    1.5000    0.0000    0.0000 N   0  0  0  0  0  0  0  0  0  0  0  0
    0.7500    1.2990    0.0000 C   0  0  0  0  0  0  0  0  0  0  0  0
   -0.7500    1.2990    0.0000 C   0  0  0  0  0  0  0  0  0  0  0  0
   -1.5000    0.0000    0.0000 N   0  0  0  0  0  0  0  0  0  0  0  0
   -0.7500   -1.2990    0.0000 C   0  0  0  0  0  0  0  0  0  0  0  0
  1  2  1  0
  2  3  1  0
  3  4  1  0
  4  5  1  0
  5  6  2  0
  6  7  1  0
  7  8  2  0
  8  9  1  0
  9 10  2  0
 10 11  1  0
 10 12  1  0
 12 13  2  0
  6 14  1  0
 14 15  1  0
 15 16  2  0
 16 17  1  0
 17 18  2  0
 18 19  1  0
 19 20  2  0
 20  5  1  0
 13  7  1  0
 20 15  1  0
M  END
>  <Compound_ID>  (29) 
CHEMBL75680

>  <Active>  (29) 
1

>  <Smiles>  (29) 
CCCCc1c(-c2ccc(O)cc2)[nH]c2nccnc12

>  <canonical_smi>  (29) 
CCCCc1c(-c2ccc(O)cc2)[nH]c2nccnc12

>  <Set>  (29) 
G1 active

>  <Set_type>  (29) 
G1

>  <MW>  (29) 
267.33

>  <HBD>  (29) 
2

>  <HBA>  (29) 
3

>  <NRB>  (29) 
4

>  <NR>  (29) 
3

>  <NAR>  (29) 
3

>  <PSA>  (29) 
61.8

>  <Standard Type>  (29) 
nan

>  <Standard Relation>  (29) 
nan

>  <Standard Units>  (29) 
nan

>  <Standard Value>  (29) 
nan

>  <Assay ChEMBL ID>  (29) 
nan

>  <Assay Description>  (29) 
nan

>  <BAO Label>  (29) 
nan

$$$$

     RDKit          2D

 32 36  0  0  0  0  0  0  0  0999 V2000
    7.4146   -6.0524    0.0000 N   0  0  0  0  0  0  0  0  0  0  0  0
    6.2011   -6.9341    0.0000 C   0  0  0  0  0  0  0  0  0  0  0  0
    4.8308   -6.3240    0.0000 C   0  0  0  0  0  0  0  0  0  0  0  0
    4.6740   -4.8322    0.0000 N   0  0  0  0  0  0  0  0  0  0  0  0
    3.3037   -4.2221    0.0000 C   0  0  0  0  0  0  0  0  0  0  0  0
    2.0046   -4.9721    0.0000 N   0  0  0  0  0  0  0  0  0  0  0  0
    0.8899   -3.9684    0.0000 N   0  0  0  0  0  0  0  0  0  0  0  0
    1.5000   -2.5981    0.0000 C   0  0  0  0  0  0  0  0  0  0  0  0
    0.7500   -1.2990    0.0000 C   0  0  0  0  0  0  0  0  0  0  0  0
    1.5000    0.0000    0.0000 C   0  0  0  0  0  0  0  0  0  0  0  0
    0.7500    1.2990    0.0000 C   0  0  0  0  0  0  0  0  0  0  0  0
   -0.7500    1.2990    0.0000 C   0  0  0  0  0  0  0  0  0  0  0  0
   -1.7537    2.4138    0.0000 N   0  0  0  0  0  0  0  0  0  0  0  0
   -3.1240    1.8037    0.0000 N   0  0  0  0  0  0  0  0  0  0  0  0
   -2.9672    0.3119    0.0000 C   0  0  0  0  0  0  0  0  0  0  0  0
   -4.0819   -0.6918    0.0000 C   0  0  0  0  0  0  0  0  0  0  0  0
   -4.5455   -2.1184    0.0000 C   0  0  0  0  0  0  0  0  0  0  0  0
   -5.5492   -1.0037    0.0000 C   0  0  0  0  0  0  0  0  0  0  0  0
   -1.5000    0.0000    0.0000 C   0  0  0  0  0  0  0  0  0  0  0  0
   -0.7500   -1.2990    0.0000 C   0  0  0  0  0  0  0  0  0  0  0  0
    2.9918   -2.7549    0.0000 S   0  0  0  0  0  0  0  0  0  0  0  0
    6.3579   -8.4259    0.0000 C   0  0  0  0  0  0  0  0  0  0  0  0
    7.7282   -9.0360    0.0000 C   0  0  0  0  0  0  0  0  0  0  0  0
    7.8850  -10.5278    0.0000 C   0  0  0  0  0  0  0  0  0  0  0  0
    9.2553  -11.1379    0.0000 C   0  0  0  0  0  0  0  0  0  0  0  0
   10.4688  -10.2562    0.0000 C   0  0  0  0  0  0  0  0  0  0  0  0
   11.8391  -10.8663    0.0000 C   0  0  0  0  0  0  0  0  0  0  0  0
   13.2095  -11.4764    0.0000 F   0  0  0  0  0  0  0  0  0  0  0  0
   11.2290  -12.2366    0.0000 F   0  0  0  0  0  0  0  0  0  0  0  0
   12.4492   -9.4960    0.0000 F   0  0  0  0  0  0  0  0  0  0  0  0
   10.3120   -8.7644    0.0000 C   0  0  0  0  0  0  0  0  0  0  0  0
    8.9417   -8.1543    0.0000 C   0  0  0  0  0  0  0  0  0  0  0  0
  2  1  1  1
  2  3  1  0
  3  4  1  0
  4  5  1  0
  5  6  2  0
  6  7  1  0
  7  8  2  0
  8  9  1  0
  9 10  2  0
 10 11  1  0
 11 12  2  0
 12 13  1  0
 13 14  1  0
 14 15  2  0
 15 16  1  0
 16 17  1  0
 17 18  1  0
 15 19  1  0
 19 20  2  0
  8 21  1  0
  2 22  1  0
 22 23  1  0
 23 24  2  0
 24 25  1  0
 25 26  2  0
 26 27  1  0
 27 28  1  0
 27 29  1  0
 27 30  1  0
 26 31  1  0
 31 32  2  0
 21  5  1  0
 32 23  1  0
 20  9  1  0
 19 12  1  0
 18 16  1  0
M  END
>  <Compound_ID>  (30) 
CHEMBL1081437

>  <Active>  (30) 
1

>  <Smiles>  (30) 
N[C@H](CNc1nnc(-c2ccc3[nH]nc(C4CC4)c3c2)s1)Cc1ccc(C(F)(F)F)cc1

>  <canonical_smi>  (30) 
N[C@H](CNc1nnc(-c2ccc3[nH]nc(C4CC4)c3c2)s1)Cc1ccc(C(F)(F)F)cc1

>  <Set>  (30) 
G1 active

>  <Set_type>  (30) 
G1

>  <MW>  (30) 
458.51

>  <HBD>  (30) 
3

>  <HBA>  (30) 
5

>  <NRB>  (30) 
7

>  <NR>  (30) 
5

>  <NAR>  (30) 
4

>  <PSA>  (30) 
92.51

>  <Standard Type>  (30) 
nan

>  <Standard Relation>  (30) 
nan

>  <Standard Units>  (30) 
nan

>  <Standard Value>  (30) 
nan

>  <Assay ChEMBL ID>  (30) 
nan

>  <Assay Description>  (30) 
nan

>  <BAO Label>  (30) 
nan

$$$$

     RDKit          2D

 33 35  0  0  0  0  0  0  0  0999 V2000
    3.0000    0.0000    0.0000 C   0  0  0  0  0  0  0  0  0  0  0  0
    1.5000    0.0000    0.0000 C   0  0  0  0  0  0  0  0  0  0  0  0
    0.7500   -1.2990    0.0000 C   0  0  0  0  0  0  0  0  0  0  0  0
   -0.7500   -1.2990    0.0000 C   0  0  0  0  0  0  0  0  0  0  0  0
   -1.5000    0.0000    0.0000 C   0  0  0  0  0  0  0  0  0  0  0  0
   -3.0000    0.0000    0.0000 Cl  0  0  0  0  0  0  0  0  0  0  0  0
   -0.7500    1.2990    0.0000 C   0  0  0  0  0  0  0  0  0  0  0  0
   -1.5000    2.5981    0.0000 N   0  0  0  0  0  0  0  0  0  0  0  0
   -0.7500    3.8971    0.0000 C   0  0  0  0  0  0  0  0  0  0  0  0
   -1.5000    5.1962    0.0000 C   0  0  0  0  0  0  0  0  0  0  0  0
   -2.2500    6.4952    0.0000 N   0  0  0  0  0  0  0  0  0  0  0  0
   -3.0000    2.5981    0.0000 C   0  0  0  0  0  0  0  0  0  0  0  0
   -3.7500    3.8971    0.0000 C   0  0  0  0  0  0  0  0  0  0  0  0
   -5.2500    3.8971    0.0000 C   0  0  0  0  0  0  0  0  0  0  0  0
   -6.0000    5.1962    0.0000 N   0  0  0  0  0  0  0  0  0  0  0  0
   -5.2500    6.4952    0.0000 C   0  0  0  0  0  0  0  0  0  0  0  0
   -3.7500    6.4952    0.0000 C   0  0  0  0  0  0  0  0  0  0  0  0
   -3.0000    7.7942    0.0000 C   0  0  0  0  0  0  0  0  0  0  0  0
   -3.7500    9.0933    0.0000 C   0  0  0  0  0  0  0  0  0  0  0  0
   -3.0000   10.3923    0.0000 O   0  0  0  0  0  0  0  0  0  0  0  0
   -1.5000   10.3923    0.0000 C   0  0  0  0  0  0  0  0  0  0  0  0
   -0.7500   11.6913    0.0000 C   0  0  0  0  0  0  0  0  0  0  0  0
   -1.5000   12.9904    0.0000 O   0  0  0  0  0  0  0  0  0  0  0  0
    0.7500   11.6913    0.0000 C   0  0  0  0  0  0  0  0  0  0  0  0
    1.5000   12.9904    0.0000 N   0  0  0  0  0  0  0  0  0  0  0  0
    3.0000   12.9904    0.0000 C   0  0  0  0  0  0  0  0  0  0  0  0
    0.7500   14.2894    0.0000 C   0  0  0  0  0  0  0  0  0  0  0  0
   -5.2500    9.0933    0.0000 C   0  0  0  0  0  0  0  0  0  0  0  0
   -6.0000    7.7942    0.0000 C   0  0  0  0  0  0  0  0  0  0  0  0
   -6.0000    2.5981    0.0000 N   0  0  0  0  0  0  0  0  0  0  0  0
   -5.2500    1.2990    0.0000 C   0  0  0  0  0  0  0  0  0  0  0  0
   -3.7500    1.2990    0.0000 N   0  0  0  0  0  0  0  0  0  0  0  0
    0.7500    1.2990    0.0000 C   0  0  0  0  0  0  0  0  0  0  0  0
  1  2  1  0
  2  3  2  0
  3  4  1  0
  4  5  2  0
  5  6  1  0
  5  7  1  0
  7  8  1  0
  8  9  1  0
  9 10  1  0
 10 11  3  0
  8 12  1  0
 12 13  2  0
 13 14  1  0
 14 15  1  0
 15 16  1  0
 16 17  2  0
 17 18  1  0
 18 19  2  0
 19 20  1  0
 20 21  1  0
 21 22  1  0
 22 23  1  1
 22 24  1  0
 24 25  1  0
 25 26  1  0
 25 27  1  0
 19 28  1  0
 28 29  2  0
 14 30  2  0
 30 31  1  0
 31 32  2  0
  7 33  2  0
 33  2  1  0
 32 12  1  0
 29 16  1  0
M  END
>  <Compound_ID>  (31) 
CHEMBL211514

>  <Active>  (31) 
1

>  <Smiles>  (31) 
Cc1ccc(Cl)c(N(CC#N)c2cc(Nc3ccc(OC[C@@H](O)CN(C)C)cc3)ncn2)c1

>  <canonical_smi>  (31) 
Cc1ccc(Cl)c(N(CC#N)c2cc(Nc3ccc(OC[C@@H](O)CN(C)C)cc3)ncn2)c1

>  <Set>  (31) 
G1 active

>  <Set_type>  (31) 
G1

>  <MW>  (31) 
466.97

>  <HBD>  (31) 
2

>  <HBA>  (31) 
8

>  <NRB>  (31) 
10

>  <NR>  (31) 
3

>  <NAR>  (31) 
3

>  <PSA>  (31) 
97.54

>  <Standard Type>  (31) 
nan

>  <Standard Relation>  (31) 
nan

>  <Standard Units>  (31) 
nan

>  <Standard Value>  (31) 
nan

>  <Assay ChEMBL ID>  (31) 
nan

>  <Assay Description>  (31) 
nan

>  <BAO Label>  (31) 
nan

$$$$

     RDKit          2D

 31 36  0  0  0  0  0  0  0  0999 V2000
   -4.3786   -5.1199    0.0000 N   0  0  0  0  0  0  0  0  0  0  0  0
   -2.9520   -4.6564    0.0000 C   0  0  0  0  0  0  0  0  0  0  0  0
   -2.6401   -3.1891    0.0000 C   0  0  0  0  0  0  0  0  0  0  0  0
   -1.2135   -2.7256    0.0000 N   0  0  0  0  0  0  0  0  0  0  0  0
   -0.0000   -3.6073    0.0000 C   0  0  0  0  0  0  0  0  0  0  0  0
    1.2135   -2.7256    0.0000 C   0  0  0  0  0  0  0  0  0  0  0  0
    2.6401   -3.1891    0.0000 C   0  0  0  0  0  0  0  0  0  0  0  0
    3.7548   -2.1855    0.0000 C   0  0  0  0  0  0  0  0  0  0  0  0
    5.1814   -2.6490    0.0000 C   0  0  0  0  0  0  0  0  0  0  0  0
    6.2961   -1.6453    0.0000 C   0  0  0  0  0  0  0  0  0  0  0  0
    7.7634   -1.9571    0.0000 C   0  0  0  0  0  0  0  0  0  0  0  0
    8.5134   -0.6581    0.0000 C   0  0  0  0  0  0  0  0  0  0  0  0
    9.9806   -0.3462    0.0000 C   0  0  0  0  0  0  0  0  0  0  0  0
   10.4441    1.0803    0.0000 C   0  0  0  0  0  0  0  0  0  0  0  0
    9.4404    2.1951    0.0000 C   0  0  0  0  0  0  0  0  0  0  0  0
    7.9732    1.8832    0.0000 C   0  0  0  0  0  0  0  0  0  0  0  0
    7.5097    0.4566    0.0000 C   0  0  0  0  0  0  0  0  0  0  0  0
    6.1393   -0.1535    0.0000 S   0  0  0  0  0  0  0  0  0  0  0  0
    5.4933   -4.1162    0.0000 C   0  0  0  0  0  0  0  0  0  0  0  0
    6.7923   -4.8662    0.0000 N   0  0  0  0  0  0  0  0  0  0  0  0
    6.4805   -6.3334    0.0000 N   0  0  0  0  0  0  0  0  0  0  0  0
    4.9887   -6.4902    0.0000 C   0  0  0  0  0  0  0  0  0  0  0  0
    4.3786   -5.1199    0.0000 C   0  0  0  0  0  0  0  0  0  0  0  0
    2.9520   -4.6564    0.0000 C   0  0  0  0  0  0  0  0  0  0  0  0
    0.7500   -1.2990    0.0000 C   0  0  0  0  0  0  0  0  0  0  0  0
    1.5000    0.0000    0.0000 N   0  0  0  0  0  0  0  0  0  0  0  0
    0.7500    1.2990    0.0000 C   0  0  0  0  0  0  0  0  0  0  0  0
    1.5000    2.5981    0.0000 N   0  0  0  0  0  0  0  0  0  0  0  0
   -0.7500    1.2990    0.0000 N   0  0  0  0  0  0  0  0  0  0  0  0
   -1.5000    0.0000    0.0000 C   0  0  0  0  0  0  0  0  0  0  0  0
   -0.7500   -1.2990    0.0000 C   0  0  0  0  0  0  0  0  0  0  0  0
  1  2  1  0
  2  3  1  0
  3  4  1  0
  4  5  1  0
  5  6  2  0
  6  7  1  0
  7  8  2  0
  8  9  1  0
  9 10  1  0
 10 11  2  0
 11 12  1  0
 12 13  2  0
 13 14  1  0
 14 15  2  0
 15 16  1  0
 16 17  2  0
 17 18  1  0
  9 19  2  0
 19 20  1  0
 20 21  1  0
 21 22  2  0
 22 23  1  0
 23 24  2  0
  6 25  1  0
 25 26  2  0
 26 27  1  0
 27 28  1  0
 27 29  2  0
 29 30  1  0
 30 31  2  0
 31  4  1  0
 24  7  1  0
 31 25  1  0
 18 10  1  0
 23 19  1  0
 17 12  1  0
M  END
>  <Compound_ID>  (32) 
CHEMBL590109

>  <Active>  (32) 
1

>  <Smiles>  (32) 
NCCn1cc(-c2cc(-c3cc4ccccc4s3)c3[nH]ncc3c2)c2nc(N)ncc21

>  <canonical_smi>  (32) 
NCCn1cc(-c2cc(-c3cc4ccccc4s3)c3[nH]ncc3c2)c2nc(N)ncc21

>  <Set>  (32) 
G1 active

>  <Set_type>  (32) 
G1

>  <MW>  (32) 
425.52

>  <HBD>  (32) 
3

>  <HBA>  (32) 
5

>  <NRB>  (32) 
4

>  <NR>  (32) 
6

>  <NAR>  (32) 
6

>  <PSA>  (32) 
111.43

>  <Standard Type>  (32) 
nan

>  <Standard Relation>  (32) 
nan

>  <Standard Units>  (32) 
nan

>  <Standard Value>  (32) 
nan

>  <Assay ChEMBL ID>  (32) 
nan

>  <Assay Description>  (32) 
nan

>  <BAO Label>  (32) 
nan

$$$$

     RDKit          2D

 21 24  0  0  0  0  0  0  0  0999 V2000
   -5.2500   -1.2990    0.0000 C   0  0  0  0  0  0  0  0  0  0  0  0
   -3.7500   -1.2990    0.0000 O   0  0  0  0  0  0  0  0  0  0  0  0
   -3.0000   -2.5981    0.0000 C   0  0  0  0  0  0  0  0  0  0  0  0
   -3.7500   -3.8971    0.0000 C   0  0  0  0  0  0  0  0  0  0  0  0
   -5.2500   -3.8971    0.0000 O   0  0  0  0  0  0  0  0  0  0  0  0
   -3.0000   -5.1962    0.0000 C   0  0  0  0  0  0  0  0  0  0  0  0
   -1.5000   -5.1962    0.0000 C   0  0  0  0  0  0  0  0  0  0  0  0
   -0.7500   -3.8971    0.0000 C   0  0  0  0  0  0  0  0  0  0  0  0
    0.7500   -3.8971    0.0000 C   0  0  0  0  0  0  0  0  0  0  0  0
    1.5000   -2.5981    0.0000 C   0  0  0  0  0  0  0  0  0  0  0  0
    0.7500   -1.2990    0.0000 C   0  0  0  0  0  0  0  0  0  0  0  0
    1.5000    0.0000    0.0000 C   0  0  0  0  0  0  0  0  0  0  0  0
    0.7500    1.2990    0.0000 C   0  0  0  0  0  0  0  0  0  0  0  0
   -0.7500    1.2990    0.0000 C   0  0  0  0  0  0  0  0  0  0  0  0
   -1.5000    2.5981    0.0000 O   0  0  0  0  0  0  0  0  0  0  0  0
   -1.5000    0.0000    0.0000 C   0  0  0  0  0  0  0  0  0  0  0  0
   -0.7500   -1.2990    0.0000 C   0  0  0  0  0  0  0  0  0  0  0  0
   -1.5000   -2.5981    0.0000 C   0  0  0  0  0  0  0  0  0  0  0  0
    1.0619   -5.3643    0.0000 N   0  0  0  0  0  0  0  0  0  0  0  0
   -0.2372   -6.1143    0.0000 C   0  0  0  0  0  0  0  0  0  0  0  0
   -0.3940   -7.6061    0.0000 O   0  0  0  0  0  0  0  0  0  0  0  0
  1  2  1  0
  2  3  1  0
  3  4  2  0
  4  5  1  0
  4  6  1  0
  6  7  2  0
  7  8  1  0
  8  9  2  0
  9 10  1  0
 10 11  2  0
 11 12  1  0
 12 13  2  0
 13 14  1  0
 14 15  1  0
 14 16  2  0
 16 17  1  0
 17 18  2  0
  9 19  1  0
 19 20  1  0
 20 21  2  0
 18  3  1  0
 20  7  1  0
 18  8  1  0
 17 11  1  0
M  END
>  <Compound_ID>  (33) 
CHEMBL388956

>  <Active>  (33) 
1

>  <Smiles>  (33) 
COc1c(O)cc2c3c(cc4ccc(O)cc4c13)NC2=O

>  <canonical_smi>  (33) 
COc1c(O)cc2c3c(cc4ccc(O)cc4c13)NC2=O

>  <Set>  (33) 
G1 active

>  <Set_type>  (33) 
G1

>  <MW>  (33) 
281.27

>  <HBD>  (33) 
3

>  <HBA>  (33) 
4

>  <NRB>  (33) 
1

>  <NR>  (33) 
4

>  <NAR>  (33) 
3

>  <PSA>  (33) 
78.79

>  <Standard Type>  (33) 
nan

>  <Standard Relation>  (33) 
nan

>  <Standard Units>  (33) 
nan

>  <Standard Value>  (33) 
nan

>  <Assay ChEMBL ID>  (33) 
nan

>  <Assay Description>  (33) 
nan

>  <BAO Label>  (33) 
nan

$$$$

     RDKit          2D

 35 40  0  0  0  0  0  0  0  0999 V2000
   -1.5000   -5.1962    0.0000 O   0  0  0  0  0  0  0  0  0  0  0  0
   -0.7500   -3.8971    0.0000 C   0  0  0  0  0  0  0  0  0  0  0  0
    0.7500   -3.8971    0.0000 C   0  0  0  0  0  0  0  0  0  0  0  0
    1.5000   -2.5981    0.0000 C   0  0  0  0  0  0  0  0  0  0  0  0
    0.7500   -1.2990    0.0000 C   0  0  0  0  0  0  0  0  0  0  0  0
    1.5000    0.0000    0.0000 C   0  0  0  0  0  0  0  0  0  0  0  0
    0.7500    1.2990    0.0000 N   0  0  0  0  0  0  0  0  0  0  0  0
   -0.7500    1.2990    0.0000 C   0  0  0  0  0  0  0  0  0  0  0  0
   -1.5000    2.5981    0.0000 N   0  0  0  0  0  0  0  0  0  0  0  0
   -0.7500    3.8971    0.0000 C   0  0  0  0  0  0  0  0  0  0  0  0
    0.7500    3.8971    0.0000 C   0  0  0  0  0  0  0  0  0  0  0  0
    1.5000    5.1962    0.0000 C   0  0  0  0  0  0  0  0  0  0  0  0
    0.7500    6.4952    0.0000 C   0  0  0  0  0  0  0  0  0  0  0  0
    1.5000    7.7942    0.0000 N   0  0  0  0  0  0  0  0  0  0  0  0
    3.0000    7.7942    0.0000 C   0  0  0  0  0  0  0  0  0  0  0  0
    3.7500    9.0933    0.0000 C   0  0  0  0  0  0  0  0  0  0  0  0
    3.0000   10.3923    0.0000 C   0  0  0  0  0  0  0  0  0  0  0  0
    3.7500   11.6913    0.0000 C   0  0  0  0  0  0  0  0  0  0  0  0
    5.2500   11.6913    0.0000 C   0  0  0  0  0  0  0  0  0  0  0  0
    6.0000   12.9904    0.0000 C   0  0  0  0  0  0  0  0  0  0  0  0
    7.5000   12.9904    0.0000 O   0  0  0  0  0  0  0  0  0  0  0  0
    1.5000   10.3923    0.0000 C   0  0  0  0  0  0  0  0  0  0  0  0
    0.7500    9.0933    0.0000 C   0  0  0  0  0  0  0  0  0  0  0  0
   -0.7500    6.4952    0.0000 C   0  0  0  0  0  0  0  0  0  0  0  0
   -1.5000    5.1962    0.0000 C   0  0  0  0  0  0  0  0  0  0  0  0
   -1.5000    0.0000    0.0000 N   0  0  0  0  0  0  0  0  0  0  0  0
   -0.7500   -1.2990    0.0000 C   0  0  0  0  0  0  0  0  0  0  0  0
   -1.5000   -2.5981    0.0000 N   0  0  0  0  0  0  0  0  0  0  0  0
   -3.0000   -2.5981    0.0000 C   0  0  0  0  0  0  0  0  0  0  0  0
   -3.8817   -1.3846    0.0000 C   0  0  0  0  0  0  0  0  0  0  0  0
   -5.3083   -1.8481    0.0000 C   0  0  0  0  0  0  0  0  0  0  0  0
   -6.1899   -3.0616    0.0000 C   0  0  0  0  0  0  0  0  0  0  0  0
   -5.3083   -4.2751    0.0000 C   0  0  0  0  0  0  0  0  0  0  0  0
   -3.8817   -3.8116    0.0000 C   0  0  0  0  0  0  0  0  0  0  0  0
   -3.8817   -2.3116    0.0000 C   0  0  0  0  0  0  0  0  0  0  0  0
  1  2  2  0
  2  3  1  0
  3  4  2  0
  4  5  1  0
  5  6  2  0
  6  7  1  0
  7  8  2  0
  8  9  1  0
  9 10  1  0
 10 11  2  0
 11 12  1  0
 12 13  2  0
 13 14  1  0
 14 15  1  0
 15 16  1  0
 16 17  1  0
 17 18  1  0
 18 19  1  0
 19 20  1  0
 20 21  1  0
 17 22  1  0
 22 23  1  0
 13 24  1  0
 24 25  2  0
  8 26  1  0
 26 27  2  0
 27 28  1  0
 28 29  1  0
 29 30  1  0
 30 31  1  0
 31 32  1  0
 32 33  1  0
 33 34  1  0
 34 35  1  0
 28  2  1  0
 34 29  1  0
 27  5  1  0
 35 31  1  0
 25 10  1  0
 23 14  1  0
M  END
>  <Compound_ID>  (34) 
CHEMBL139653

>  <Active>  (34) 
1

>  <Smiles>  (34) 
O=c1ccc2cnc(Nc3ccc(N4CCC(CCCO)CC4)cc3)nc2n1C1CC2CCC1C2

>  <canonical_smi>  (34) 
O=c1ccc2cnc(Nc3ccc(N4CCC(CCCO)CC4)cc3)nc2n1C1CC2CCC1C2

>  <Set>  (34) 
G1 active

>  <Set_type>  (34) 
G1

>  <MW>  (34) 
473.62

>  <HBD>  (34) 
2

>  <HBA>  (34) 
6

>  <NRB>  (34) 
7

>  <NR>  (34) 
6

>  <NAR>  (34) 
3

>  <PSA>  (34) 
83.28

>  <Standard Type>  (34) 
nan

>  <Standard Relation>  (34) 
nan

>  <Standard Units>  (34) 
nan

>  <Standard Value>  (34) 
nan

>  <Assay ChEMBL ID>  (34) 
nan

>  <Assay Description>  (34) 
nan

>  <BAO Label>  (34) 
nan

$$$$

     RDKit          2D

 17 19  0  0  0  0  0  0  0  0999 V2000
   -3.7548   -2.1855    0.0000 C   0  0  0  0  0  0  0  0  0  0  0  0
   -2.6401   -3.1891    0.0000 C   0  0  0  0  0  0  0  0  0  0  0  0
   -1.2135   -2.7256    0.0000 N   0  0  0  0  0  0  0  0  0  0  0  0
   -0.0000   -3.6073    0.0000 C   0  0  0  0  0  0  0  0  0  0  0  0
   -0.0000   -5.1073    0.0000 C   0  0  0  0  0  0  0  0  0  0  0  0
    1.2135   -5.9890    0.0000 N   0  0  0  0  0  0  0  0  0  0  0  0
    0.7500   -7.4156    0.0000 O   0  0  0  0  0  0  0  0  0  0  0  0
   -0.7500   -7.4156    0.0000 N   0  0  0  0  0  0  0  0  0  0  0  0
   -1.2135   -5.9890    0.0000 C   0  0  0  0  0  0  0  0  0  0  0  0
   -2.6401   -5.5255    0.0000 N   0  0  0  0  0  0  0  0  0  0  0  0
    1.2135   -2.7256    0.0000 N   0  0  0  0  0  0  0  0  0  0  0  0
    0.7500   -1.2990    0.0000 C   0  0  0  0  0  0  0  0  0  0  0  0
    1.5000    0.0000    0.0000 C   0  0  0  0  0  0  0  0  0  0  0  0
    0.7500    1.2990    0.0000 N   0  0  0  0  0  0  0  0  0  0  0  0
   -0.7500    1.2990    0.0000 C   0  0  0  0  0  0  0  0  0  0  0  0
   -1.5000    0.0000    0.0000 C   0  0  0  0  0  0  0  0  0  0  0  0
   -0.7500   -1.2990    0.0000 C   0  0  0  0  0  0  0  0  0  0  0  0
  1  2  1  0
  2  3  1  0
  3  4  1  0
  4  5  1  0
  5  6  2  0
  6  7  1  0
  7  8  1  0
  8  9  2  0
  9 10  1  0
  4 11  2  0
 11 12  1  0
 12 13  2  0
 13 14  1  0
 14 15  2  0
 15 16  1  0
 16 17  2  0
 17  3  1  0
  9  5  1  0
 17 12  1  0
M  END
>  <Compound_ID>  (35) 
CHEMBL189657

>  <Active>  (35) 
1

>  <Smiles>  (35) 
CCn1c(-c2nonc2N)nc2cnccc21

>  <canonical_smi>  (35) 
CCn1c(-c2nonc2N)nc2cnccc21

>  <Set>  (35) 
G1 active

>  <Set_type>  (35) 
G1

>  <MW>  (35) 
230.23

>  <HBD>  (35) 
1

>  <HBA>  (35) 
6

>  <NRB>  (35) 
2

>  <NR>  (35) 
3

>  <NAR>  (35) 
3

>  <PSA>  (35) 
95.65

>  <Standard Type>  (35) 
nan

>  <Standard Relation>  (35) 
nan

>  <Standard Units>  (35) 
nan

>  <Standard Value>  (35) 
nan

>  <Assay ChEMBL ID>  (35) 
nan

>  <Assay Description>  (35) 
nan

>  <BAO Label>  (35) 
nan

$$$$

     RDKit          2D

 29 32  0  0  0  0  0  0  0  0999 V2000
   -3.7500   -6.4952    0.0000 C   0  0  0  0  0  0  0  0  0  0  0  0
   -3.0000   -5.1962    0.0000 O   0  0  0  0  0  0  0  0  0  0  0  0
   -1.5000   -5.1962    0.0000 C   0  0  0  0  0  0  0  0  0  0  0  0
   -0.7500   -3.8971    0.0000 C   0  0  0  0  0  0  0  0  0  0  0  0
    0.7500   -3.8971    0.0000 C   0  0  0  0  0  0  0  0  0  0  0  0
    1.5000   -2.5981    0.0000 N   0  0  0  0  0  0  0  0  0  0  0  0
    0.7500   -1.2990    0.0000 C   0  0  0  0  0  0  0  0  0  0  0  0
    1.5000    0.0000    0.0000 N   0  0  0  0  0  0  0  0  0  0  0  0
    0.7500    1.2990    0.0000 C   0  0  0  0  0  0  0  0  0  0  0  0
   -0.7500    1.2990    0.0000 C   0  0  0  0  0  0  0  0  0  0  0  0
   -1.7537    2.4138    0.0000 C   0  0  0  0  0  0  0  0  0  0  0  0
   -1.4418    3.8810    0.0000 C   0  0  0  0  0  0  0  0  0  0  0  0
   -3.1240    1.8037    0.0000 N   0  0  0  0  0  0  0  0  0  0  0  0
   -2.9672    0.3119    0.0000 C   0  0  0  0  0  0  0  0  0  0  0  0
   -4.0819   -0.6918    0.0000 C   0  0  0  0  0  0  0  0  0  0  0  0
   -5.5085   -0.2283    0.0000 C   0  0  0  0  0  0  0  0  0  0  0  0
   -6.6232   -1.2320    0.0000 C   0  0  0  0  0  0  0  0  0  0  0  0
   -6.3114   -2.6992    0.0000 C   0  0  0  0  0  0  0  0  0  0  0  0
   -4.8848   -3.1627    0.0000 C   0  0  0  0  0  0  0  0  0  0  0  0
   -3.7701   -2.1590    0.0000 C   0  0  0  0  0  0  0  0  0  0  0  0
   -1.5000    0.0000    0.0000 N   0  0  0  0  0  0  0  0  0  0  0  0
   -0.7500   -1.2990    0.0000 N   0  0  0  0  0  0  0  0  0  0  0  0
    1.5000   -5.1962    0.0000 C   0  0  0  0  0  0  0  0  0  0  0  0
    0.7500   -6.4952    0.0000 C   0  0  0  0  0  0  0  0  0  0  0  0
    1.5000   -7.7942    0.0000 O   0  0  0  0  0  0  0  0  0  0  0  0
    0.7500   -9.0933    0.0000 C   0  0  0  0  0  0  0  0  0  0  0  0
   -0.7500   -6.4952    0.0000 C   0  0  0  0  0  0  0  0  0  0  0  0
   -1.5000   -7.7942    0.0000 O   0  0  0  0  0  0  0  0  0  0  0  0
   -3.0000   -7.7942    0.0000 C   0  0  0  0  0  0  0  0  0  0  0  0
  1  2  1  0
  2  3  1  0
  3  4  2  0
  4  5  1  0
  5  6  1  0
  6  7  1  0
  7  8  1  0
  8  9  2  0
  9 10  1  0
 10 11  2  0
 11 12  1  0
 11 13  1  0
 13 14  2  0
 14 15  1  0
 15 16  2  0
 16 17  1  0
 17 18  2  0
 18 19  1  0
 19 20  2  0
 14 21  1  0
 21 22  1  0
  5 23  2  0
 23 24  1  0
 24 25  1  0
 25 26  1  0
 24 27  2  0
 27 28  1  0
 28 29  1  0
 27  3  1  0
 22  7  2  0
 21 10  1  0
 20 15  1  0
M  END
>  <Compound_ID>  (36) 
CHEMBL519715

>  <Active>  (36) 
1

>  <Smiles>  (36) 
COc1cc(Nc2ncc3c(C)nc(-c4ccccc4)n3n2)cc(OC)c1OC

>  <canonical_smi>  (36) 
COc1cc(Nc2ncc3c(C)nc(-c4ccccc4)n3n2)cc(OC)c1OC

>  <Set>  (36) 
G1 active

>  <Set_type>  (36) 
G1

>  <MW>  (36) 
391.43

>  <HBD>  (36) 
1

>  <HBA>  (36) 
7

>  <NRB>  (36) 
6

>  <NR>  (36) 
4

>  <NAR>  (36) 
4

>  <PSA>  (36) 
82.8

>  <Standard Type>  (36) 
nan

>  <Standard Relation>  (36) 
nan

>  <Standard Units>  (36) 
nan

>  <Standard Value>  (36) 
nan

>  <Assay ChEMBL ID>  (36) 
nan

>  <Assay Description>  (36) 
nan

>  <BAO Label>  (36) 
nan

$$$$

     RDKit          2D

 16 18  0  0  0  0  0  0  0  0999 V2000
    3.0000    0.0000    0.0000 O   0  0  0  0  0  0  0  0  0  0  0  0
    1.5000    0.0000    0.0000 C   0  0  0  0  0  0  0  0  0  0  0  0
    0.7500   -1.2990    0.0000 N   0  0  0  0  0  0  0  0  0  0  0  0
   -0.7500   -1.2990    0.0000 C   0  0  0  0  0  0  0  0  0  0  0  0
   -1.5000    0.0000    0.0000 C   0  0  0  0  0  0  0  0  0  0  0  0
   -0.7500    1.2990    0.0000 C   0  0  0  0  0  0  0  0  0  0  0  0
   -1.2135    2.7256    0.0000 N   0  0  0  0  0  0  0  0  0  0  0  0
   -0.0000    3.6073    0.0000 C   0  0  0  0  0  0  0  0  0  0  0  0
   -0.0000    5.1073    0.0000 C   0  0  0  0  0  0  0  0  0  0  0  0
    1.2990    5.8573    0.0000 C   0  0  0  0  0  0  0  0  0  0  0  0
    1.2990    7.3573    0.0000 C   0  0  0  0  0  0  0  0  0  0  0  0
   -0.0000    8.1073    0.0000 N   0  0  0  0  0  0  0  0  0  0  0  0
   -1.2990    7.3573    0.0000 C   0  0  0  0  0  0  0  0  0  0  0  0
   -1.2990    5.8573    0.0000 C   0  0  0  0  0  0  0  0  0  0  0  0
    1.2135    2.7256    0.0000 C   0  0  0  0  0  0  0  0  0  0  0  0
    0.7500    1.2990    0.0000 C   0  0  0  0  0  0  0  0  0  0  0  0
  1  2  2  0
  2  3  1  0
  3  4  1  0
  4  5  1  0
  5  6  1  0
  6  7  1  0
  7  8  1  0
  8  9  1  0
  9 10  2  0
 10 11  1  0
 11 12  2  0
 12 13  1  0
 13 14  2  0
  8 15  2  0
 15 16  1  0
 16  2  1  0
 16  6  2  0
 14  9  1  0
M  END
>  <Compound_ID>  (37) 
CHEMBL225519

>  <Active>  (37) 
1

>  <Smiles>  (37) 
O=C1NCCc2[nH]c(-c3ccncc3)cc21

>  <canonical_smi>  (37) 
O=C1NCCc2[nH]c(-c3ccncc3)cc21

>  <Set>  (37) 
G1 active

>  <Set_type>  (37) 
G1

>  <MW>  (37) 
213.24

>  <HBD>  (37) 
2

>  <HBA>  (37) 
2

>  <NRB>  (37) 
1

>  <NR>  (37) 
3

>  <NAR>  (37) 
2

>  <PSA>  (37) 
57.78

>  <Standard Type>  (37) 
nan

>  <Standard Relation>  (37) 
nan

>  <Standard Units>  (37) 
nan

>  <Standard Value>  (37) 
nan

>  <Assay ChEMBL ID>  (37) 
nan

>  <Assay Description>  (37) 
nan

>  <BAO Label>  (37) 
nan

$$$$

     RDKit          2D

 42 45  0  0  0  0  0  0  0  0999 V2000
    8.2500   -9.0933    0.0000 C   0  0  0  0  0  0  0  0  0  0  0  0
    7.5000   -7.7942    0.0000 C   0  0  0  0  0  0  0  0  0  0  0  0
    8.2500   -6.4952    0.0000 C   0  0  0  0  0  0  0  0  0  0  0  0
    6.0000   -7.7942    0.0000 C   0  0  0  0  0  0  0  0  0  0  0  0
    5.2500   -6.4952    0.0000 C   0  0  0  0  0  0  0  0  0  0  0  0
    3.7500   -6.4952    0.0000 N   0  0  0  0  0  0  0  0  0  0  0  0
    3.0000   -5.1962    0.0000 C   0  0  0  0  0  0  0  0  0  0  0  0
    3.7500   -3.8971    0.0000 O   0  0  0  0  0  0  0  0  0  0  0  0
    1.5000   -5.1962    0.0000 C   0  0  0  0  0  0  0  0  0  0  0  0
    0.7500   -6.4952    0.0000 C   0  0  0  0  0  0  0  0  0  0  0  0
    0.7500   -3.8971    0.0000 N   0  0  0  0  0  0  0  0  0  0  0  0
    1.5000   -2.5981    0.0000 C   0  0  0  0  0  0  0  0  0  0  0  0
    3.0000   -2.5981    0.0000 O   0  0  0  0  0  0  0  0  0  0  0  0
    0.7500   -1.2990    0.0000 C   0  0  0  0  0  0  0  0  0  0  0  0
    1.5000    0.0000    0.0000 C   0  0  0  0  0  0  0  0  0  0  0  0
    0.7500    1.2990    0.0000 C   0  0  0  0  0  0  0  0  0  0  0  0
   -0.7500    1.2990    0.0000 C   0  0  0  0  0  0  0  0  0  0  0  0
   -1.5000    2.5981    0.0000 C   0  0  0  0  0  0  0  0  0  0  0  0
   -0.7500    3.8971    0.0000 C   0  0  0  0  0  0  0  0  0  0  0  0
    0.7500    3.8971    0.0000 C   0  0  0  0  0  0  0  0  0  0  0  0
    1.5000    5.1962    0.0000 C   0  0  0  0  0  0  0  0  0  0  0  0
    0.7500    6.4952    0.0000 N   0  0  0  0  0  0  0  0  0  0  0  0
   -0.7500    6.4952    0.0000 C   0  0  0  0  0  0  0  0  0  0  0  0
   -1.5000    5.1962    0.0000 C   0  0  0  0  0  0  0  0  0  0  0  0
   -1.5000    0.0000    0.0000 C   0  0  0  0  0  0  0  0  0  0  0  0
   -0.7500   -1.2990    0.0000 C   0  0  0  0  0  0  0  0  0  0  0  0
    6.0000   -5.1962    0.0000 C   0  0  0  0  0  0  0  0  0  0  0  0
    5.2500   -3.8971    0.0000 O   0  0  0  0  0  0  0  0  0  0  0  0
    7.5000   -5.1962    0.0000 N   0  0  0  0  0  0  0  0  0  0  0  0
    8.2500   -3.8971    0.0000 C   0  0  0  0  0  0  0  0  0  0  0  0
    7.5000   -2.5981    0.0000 C   0  0  0  0  0  0  0  0  0  0  0  0
    8.2500   -1.2990    0.0000 C   0  0  0  0  0  0  0  0  0  0  0  0
    9.7500   -1.2990    0.0000 C   0  0  0  0  0  0  0  0  0  0  0  0
   10.5000   -2.5981    0.0000 C   0  0  0  0  0  0  0  0  0  0  0  0
    9.7500   -3.8971    0.0000 C   0  0  0  0  0  0  0  0  0  0  0  0
   10.5000   -5.1962    0.0000 C   0  0  0  0  0  0  0  0  0  0  0  0
    9.7500   -6.4952    0.0000 C   0  0  0  0  0  0  0  0  0  0  0  0
   10.5000   -7.7942    0.0000 C   0  0  0  0  0  0  0  0  0  0  0  0
   12.0000   -7.7942    0.0000 C   0  0  0  0  0  0  0  0  0  0  0  0
   12.7500   -6.4952    0.0000 C   0  0  0  0  0  0  0  0  0  0  0  0
   14.2500   -6.4952    0.0000 Cl  0  0  0  0  0  0  0  0  0  0  0  0
   12.0000   -5.1962    0.0000 C   0  0  0  0  0  0  0  0  0  0  0  0
  1  2  1  0
  2  3  1  0
  2  4  1  0
  5  4  1  6
  5  6  1  0
  6  7  1  0
  7  8  2  0
  7  9  1  0
  9 10  1  6
  9 11  1  0
 11 12  1  0
 12 13  2  0
 12 14  1  0
 14 15  2  0
 15 16  1  0
 16 17  2  0
 17 18  1  0
 18 19  1  0
 19 20  1  0
 20 21  1  0
 21 22  1  0
 22 23  1  0
 23 24  1  0
 17 25  1  0
 25 26  2  0
  5 27  1  0
 27 28  2  0
 27 29  1  0
 30 29  1  6
 30 31  1  0
 31 32  1  0
 32 33  1  0
 33 34  1  0
 34 35  1  0
 35 36  1  1
 36 37  2  0
 37 38  1  0
 38 39  2  0
 39 40  1  0
 40 41  1  0
 40 42  2  0
 26 14  1  0
 35 30  1  0
 42 36  1  0
 24 19  1  0
M  END
>  <Compound_ID>  (38) 
CHEMBL380317

>  <Active>  (38) 
1

>  <Smiles>  (38) 
CC(C)C[C@H](NC(=O)[C@H](C)NC(=O)c1ccc(CC2CCNCC2)cc1)C(=O)N[C@@H]1CCCC[C@H]1c1cccc(Cl)c1

>  <canonical_smi>  (38) 
CC(C)C[C@H](NC(=O)[C@H](C)NC(=O)c1ccc(CC2CCNCC2)cc1)C(=O)N[C@@H]1CCCC[C@H]1c1cccc(Cl)c1

>  <Set>  (38) 
G1 active

>  <Set_type>  (38) 
G1

>  <MW>  (38) 
595.23

>  <HBD>  (38) 
4

>  <HBA>  (38) 
4

>  <NRB>  (38) 
11

>  <NR>  (38) 
4

>  <NAR>  (38) 
2

>  <PSA>  (38) 
99.33

>  <Standard Type>  (38) 
nan

>  <Standard Relation>  (38) 
nan

>  <Standard Units>  (38) 
nan

>  <Standard Value>  (38) 
nan

>  <Assay ChEMBL ID>  (38) 
nan

>  <Assay Description>  (38) 
nan

>  <BAO Label>  (38) 
nan

$$$$

     RDKit          2D

 24 27  0  0  0  0  0  0  0  0999 V2000
   -2.8273   -8.1774    0.0000 O   0  0  0  0  0  0  0  0  0  0  0  0
   -1.3601   -7.8655    0.0000 C   0  0  0  0  0  0  0  0  0  0  0  0
   -0.2454   -8.8692    0.0000 N   0  0  0  0  0  0  0  0  0  0  0  0
    1.0537   -8.1192    0.0000 C   0  0  0  0  0  0  0  0  0  0  0  0
    2.4240   -8.7293    0.0000 N   0  0  0  0  0  0  0  0  0  0  0  0
    2.5808  -10.2211    0.0000 C   0  0  0  0  0  0  0  0  0  0  0  0
    3.9511  -10.8312    0.0000 C   0  0  0  0  0  0  0  0  0  0  0  0
    5.2501  -10.0812    0.0000 C   0  0  0  0  0  0  0  0  0  0  0  0
    6.3648  -11.0849    0.0000 C   0  0  0  0  0  0  0  0  0  0  0  0
    5.7547  -12.4552    0.0000 C   0  0  0  0  0  0  0  0  0  0  0  0
    4.2629  -12.2984    0.0000 S   0  0  0  0  0  0  0  0  0  0  0  0
    0.7418   -6.6520    0.0000 S   0  0  0  0  0  0  0  0  0  0  0  0
   -0.7500   -6.4952    0.0000 C   0  0  0  0  0  0  0  0  0  0  0  0
   -1.5000   -5.1962    0.0000 C   0  0  0  0  0  0  0  0  0  0  0  0
   -0.7500   -3.8971    0.0000 C   0  0  0  0  0  0  0  0  0  0  0  0
    0.7500   -3.8971    0.0000 C   0  0  0  0  0  0  0  0  0  0  0  0
    1.5000   -2.5981    0.0000 C   0  0  0  0  0  0  0  0  0  0  0  0
    0.7500   -1.2990    0.0000 C   0  0  0  0  0  0  0  0  0  0  0  0
    1.5000    0.0000    0.0000 N   0  0  0  0  0  0  0  0  0  0  0  0
    0.7500    1.2990    0.0000 C   0  0  0  0  0  0  0  0  0  0  0  0
   -0.7500    1.2990    0.0000 C   0  0  0  0  0  0  0  0  0  0  0  0
   -1.5000    0.0000    0.0000 C   0  0  0  0  0  0  0  0  0  0  0  0
   -0.7500   -1.2990    0.0000 C   0  0  0  0  0  0  0  0  0  0  0  0
   -1.5000   -2.5981    0.0000 C   0  0  0  0  0  0  0  0  0  0  0  0
  1  2  2  0
  2  3  1  0
  3  4  2  0
  4  5  1  0
  5  6  1  0
  6  7  1  0
  7  8  2  0
  8  9  1  0
  9 10  2  0
 10 11  1  0
  4 12  1  0
 12 13  1  0
 13 14  2  0
 14 15  1  0
 15 16  2  0
 16 17  1  0
 17 18  2  0
 18 19  1  0
 19 20  2  0
 20 21  1  0
 21 22  2  0
 22 23  1  0
 23 24  2  0
 13  2  1  0
 24 15  1  0
 11  7  1  0
 23 18  1  0
M  END
>  <Compound_ID>  (39) 
CHEMBL393929

>  <Active>  (39) 
1

>  <Smiles>  (39) 
O=C1N=C(NCc2cccs2)S/C1=C\c1ccc2ncccc2c1

>  <canonical_smi>  (39) 
O=C1N=C(NCc2cccs2)S/C1=C\c1ccc2ncccc2c1

>  <Set>  (39) 
G1 active

>  <Set_type>  (39) 
G1

>  <MW>  (39) 
351.46

>  <HBD>  (39) 
1

>  <HBA>  (39) 
4

>  <NRB>  (39) 
3

>  <NR>  (39) 
4

>  <NAR>  (39) 
3

>  <PSA>  (39) 
54.35

>  <Standard Type>  (39) 
nan

>  <Standard Relation>  (39) 
nan

>  <Standard Units>  (39) 
nan

>  <Standard Value>  (39) 
nan

>  <Assay ChEMBL ID>  (39) 
nan

>  <Assay Description>  (39) 
nan

>  <BAO Label>  (39) 
nan

$$$$

     RDKit          2D

 11 12  0  0  0  0  0  0  0  0999 V2000
   -4.0667   -3.6527    0.0000 N   0  0  0  0  0  0  0  0  0  0  0  0
   -2.6401   -3.1891    0.0000 C   0  0  0  0  0  0  0  0  0  0  0  0
   -1.2135   -2.7256    0.0000 C   0  0  0  0  0  0  0  0  0  0  0  0
   -0.0000   -3.6073    0.0000 C   0  0  0  0  0  0  0  0  0  0  0  0
    1.2135   -2.7256    0.0000 N   0  0  0  0  0  0  0  0  0  0  0  0
    0.7500   -1.2990    0.0000 N   0  0  0  0  0  0  0  0  0  0  0  0
    1.5000    0.0000    0.0000 C   0  0  0  0  0  0  0  0  0  0  0  0
    0.7500    1.2990    0.0000 C   0  0  0  0  0  0  0  0  0  0  0  0
   -0.7500    1.2990    0.0000 C   0  0  0  0  0  0  0  0  0  0  0  0
   -1.5000    0.0000    0.0000 N   0  0  0  0  0  0  0  0  0  0  0  0
   -0.7500   -1.2990    0.0000 C   0  0  0  0  0  0  0  0  0  0  0  0
  1  2  3  0
  2  3  1  0
  3  4  1  0
  4  5  2  0
  5  6  1  0
  6  7  1  0
  7  8  2  0
  8  9  1  0
  9 10  2  0
 10 11  1  0
 11  3  2  0
 11  6  1  0
M  END
>  <Compound_ID>  (40) 
CHEMBL503917

>  <Active>  (40) 
1

>  <Smiles>  (40) 
N#Cc1cnn2cccnc12

>  <canonical_smi>  (40) 
N#Cc1cnn2cccnc12

>  <Set>  (40) 
G1 active

>  <Set_type>  (40) 
G1

>  <MW>  (40) 
144.14

>  <HBD>  (40) 
0

>  <HBA>  (40) 
3

>  <NRB>  (40) 
0

>  <NR>  (40) 
2

>  <NAR>  (40) 
2

>  <PSA>  (40) 
53.98

>  <Standard Type>  (40) 
nan

>  <Standard Relation>  (40) 
nan

>  <Standard Units>  (40) 
nan

>  <Standard Value>  (40) 
nan

>  <Assay ChEMBL ID>  (40) 
nan

>  <Assay Description>  (40) 
nan

>  <BAO Label>  (40) 
nan

$$$$

     RDKit          2D

 25 27  0  0  0  0  0  0  0  0999 V2000
    1.8478   -6.4639    0.0000 O   0  0  0  0  0  0  0  0  0  0  0  0
    2.0046   -4.9721    0.0000 C   0  0  0  0  0  0  0  0  0  0  0  0
    3.3037   -4.2221    0.0000 N   0  0  0  0  0  0  0  0  0  0  0  0
    2.9918   -2.7549    0.0000 C   0  0  0  0  0  0  0  0  0  0  0  0
    3.9088   -1.9578    0.0000 O   0  0  0  0  0  0  0  0  0  0  0  0
    1.5000   -2.5981    0.0000 C   0  0  0  0  0  0  0  0  0  0  0  0
    0.7500   -1.2990    0.0000 C   0  0  0  0  0  0  0  0  0  0  0  0
   -0.7500   -1.2990    0.0000 C   0  0  0  0  0  0  0  0  0  0  0  0
   -1.5000    0.0000    0.0000 C   0  0  0  0  0  0  0  0  0  0  0  0
   -0.7500    1.2990    0.0000 C   0  0  0  0  0  0  0  0  0  0  0  0
    0.7500    1.2990    0.0000 C   0  0  0  0  0  0  0  0  0  0  0  0
    1.5000    0.0000    0.0000 C   0  0  0  0  0  0  0  0  0  0  0  0
    3.0000    0.0000    0.0000 N   0  0  0  0  0  4  0  0  0  0  0  0
    3.7500    1.2990    0.0000 O   0  0  0  0  0  0  0  0  0  0  0  0
    3.7312   -0.9703    0.0000 O   0  0  0  0  0  1  0  0  0  0  0  0
    0.8899   -3.9684    0.0000 C   0  0  0  0  0  0  0  0  0  0  0  0
   -0.5773   -4.2803    0.0000 N   0  0  0  0  0  0  0  0  0  0  0  0
   -1.0409   -5.7068    0.0000 C   0  0  0  0  0  0  0  0  0  0  0  0
   -2.5081   -6.0187    0.0000 C   0  0  0  0  0  0  0  0  0  0  0  0
   -2.9716   -7.4453    0.0000 C   0  0  0  0  0  0  0  0  0  0  0  0
   -1.9679   -8.5600    0.0000 C   0  0  0  0  0  0  0  0  0  0  0  0
   -2.4314   -9.9866    0.0000 O   0  0  0  0  0  0  0  0  0  0  0  0
   -0.5007   -8.2481    0.0000 C   0  0  0  0  0  0  0  0  0  0  0  0
    0.5030   -9.3629    0.0000 Cl  0  0  0  0  0  0  0  0  0  0  0  0
   -0.0372   -6.8216    0.0000 C   0  0  0  0  0  0  0  0  0  0  0  0
  1  2  2  0
  2  3  1  0
  3  4  1  0
  4  5  2  0
  4  6  1  0
  6  7  1  0
  7  8  2  0
  8  9  1  0
  9 10  2  0
 10 11  1  0
 11 12  2  0
 12 13  1  0
 13 14  2  0
 13 15  1  0
  6 16  2  0
 16 17  1  0
 17 18  1  0
 18 19  2  0
 19 20  1  0
 20 21  2  0
 21 22  1  0
 21 23  1  0
 23 24  1  0
 23 25  2  0
 16  2  1  0
 25 18  1  0
 12  7  1  0
M  CHG  2  13   1  15  -1
M  END
>  <Compound_ID>  (41) 
CHEMBL322970

>  <Active>  (41) 
1

>  <Smiles>  (41) 
O=C1NC(=O)C(c2ccccc2[N+](=O)[O-])=C1Nc1ccc(O)c(Cl)c1

>  <canonical_smi>  (41) 
O=C1NC(=O)C(c2ccccc2[N+](=O)[O-])=C1Nc1ccc(O)c(Cl)c1

>  <Set>  (41) 
G1 active

>  <Set_type>  (41) 
G1

>  <MW>  (41) 
359.73

>  <HBD>  (41) 
3

>  <HBA>  (41) 
6

>  <NRB>  (41) 
4

>  <NR>  (41) 
3

>  <NAR>  (41) 
2

>  <PSA>  (41) 
121.57

>  <Standard Type>  (41) 
nan

>  <Standard Relation>  (41) 
nan

>  <Standard Units>  (41) 
nan

>  <Standard Value>  (41) 
nan

>  <Assay ChEMBL ID>  (41) 
nan

>  <Assay Description>  (41) 
nan

>  <BAO Label>  (41) 
nan

$$$$

     RDKit          2D

 36 39  0  0  0  0  0  0  0  0999 V2000
    3.5761  -17.7913    0.0000 N   0  0  0  0  0  0  0  0  0  0  0  0
    4.3261  -16.4922    0.0000 N   0  0  0  0  0  0  0  0  0  0  0  0
    3.5761  -15.1932    0.0000 C   0  0  0  0  0  0  0  0  0  0  0  0
    2.0761  -15.1932    0.0000 O   0  0  0  0  0  0  0  0  0  0  0  0
    4.3261  -13.8941    0.0000 C   0  0  0  0  0  0  0  0  0  0  0  0
    3.5761  -12.5951    0.0000 S   0  0  0  0  0  0  0  0  0  0  0  0
    4.3261  -11.2961    0.0000 C   0  0  0  0  0  0  0  0  0  0  0  0
    5.8179  -11.1393    0.0000 N   0  0  0  0  0  0  0  0  0  0  0  0
    6.1298   -9.6721    0.0000 N   0  0  0  0  0  0  0  0  0  0  0  0
    4.8308   -8.9221    0.0000 C   0  0  0  0  0  0  0  0  0  0  0  0
    4.6740   -7.4303    0.0000 C   0  0  0  0  0  0  0  0  0  0  0  0
    3.3037   -6.8202    0.0000 C   0  0  0  0  0  0  0  0  0  0  0  0
    2.0046   -7.5702    0.0000 C   0  0  0  0  0  0  0  0  0  0  0  0
    0.8899   -6.5665    0.0000 S   0  0  0  0  0  0  0  0  0  0  0  0
    1.5000   -5.1962    0.0000 C   0  0  0  0  0  0  0  0  0  0  0  0
    0.7500   -3.8971    0.0000 N   0  0  0  0  0  0  0  0  0  0  0  0
    1.5000   -2.5981    0.0000 C   0  0  0  0  0  0  0  0  0  0  0  0
    3.0000   -2.5981    0.0000 O   0  0  0  0  0  0  0  0  0  0  0  0
    0.7500   -1.2990    0.0000 C   0  0  0  0  0  0  0  0  0  0  0  0
    1.5000    0.0000    0.0000 C   0  0  0  0  0  0  0  0  0  0  0  0
    0.7500    1.2990    0.0000 C   0  0  0  0  0  0  0  0  0  0  0  0
   -0.7500    1.2990    0.0000 C   0  0  0  0  0  0  0  0  0  0  0  0
   -1.5000    0.0000    0.0000 C   0  0  0  0  0  0  0  0  0  0  0  0
   -0.7500   -1.2990    0.0000 C   0  0  0  0  0  0  0  0  0  0  0  0
    2.9918   -5.3529    0.0000 N   0  0  0  0  0  0  0  0  0  0  0  0
    3.7160   -9.9258    0.0000 N   0  0  0  0  0  0  0  0  0  0  0  0
    2.2488   -9.6139    0.0000 N   0  0  0  0  0  0  0  0  0  0  0  0
    1.2451  -10.7286    0.0000 C   0  0  0  0  0  0  0  0  0  0  0  0
    1.7087  -12.1552    0.0000 O   0  0  0  0  0  0  0  0  0  0  0  0
   -0.2221  -10.4167    0.0000 C   0  0  0  0  0  0  0  0  0  0  0  0
   -0.6856   -8.9901    0.0000 C   0  0  0  0  0  0  0  0  0  0  0  0
   -2.1528   -8.6783    0.0000 C   0  0  0  0  0  0  0  0  0  0  0  0
   -3.1565   -9.7930    0.0000 C   0  0  0  0  0  0  0  0  0  0  0  0
   -4.6238   -9.4811    0.0000 Cl  0  0  0  0  0  0  0  0  0  0  0  0
   -2.6930  -11.2196    0.0000 C   0  0  0  0  0  0  0  0  0  0  0  0
   -1.2258  -11.5314    0.0000 C   0  0  0  0  0  0  0  0  0  0  0  0
  1  2  1  0
  2  3  1  0
  3  4  2  0
  3  5  1  0
  5  6  1  0
  6  7  1  0
  7  8  2  0
  8  9  1  0
  9 10  2  0
 10 11  1  0
 11 12  1  0
 12 13  2  0
 13 14  1  0
 14 15  1  0
 15 16  1  0
 16 17  1  0
 17 18  2  0
 17 19  1  0
 19 20  2  0
 20 21  1  0
 21 22  2  0
 22 23  1  0
 23 24  2  0
 15 25  2  0
 10 26  1  0
 26 27  1  0
 27 28  1  0
 28 29  2  0
 28 30  1  0
 30 31  2  0
 31 32  1  0
 32 33  2  0
 33 34  1  0
 33 35  1  0
 35 36  2  0
 26  7  1  0
 36 30  1  0
 25 12  1  0
 24 19  1  0
M  END
>  <Compound_ID>  (42) 
CHEMBL398774

>  <Active>  (42) 
1

>  <Smiles>  (42) 
NNC(=O)CSc1nnc(Cc2csc(NC(=O)c3ccccc3)n2)n1NC(=O)c1ccc(Cl)cc1

>  <canonical_smi>  (42) 
NNC(=O)CSc1nnc(Cc2csc(NC(=O)c3ccccc3)n2)n1NC(=O)c1ccc(Cl)cc1

>  <Set>  (42) 
G1 active

>  <Set_type>  (42) 
G1

>  <MW>  (42) 
543.03

>  <HBD>  (42) 
4

>  <HBA>  (42) 
8

>  <NRB>  (42) 
9

>  <NR>  (42) 
4

>  <NAR>  (42) 
4

>  <PSA>  (42) 
156.92

>  <Standard Type>  (42) 
nan

>  <Standard Relation>  (42) 
nan

>  <Standard Units>  (42) 
nan

>  <Standard Value>  (42) 
nan

>  <Assay ChEMBL ID>  (42) 
nan

>  <Assay Description>  (42) 
nan

>  <BAO Label>  (42) 
nan

$$$$

     RDKit          2D

 24 26  0  0  0  0  0  0  0  0999 V2000
   -5.0490   -3.1471    0.0000 C   0  0  0  0  0  0  0  0  0  0  0  0
   -3.7500   -3.8971    0.0000 C   0  0  0  0  0  0  0  0  0  0  0  0
   -2.4510   -4.6471    0.0000 C   0  0  0  0  0  0  0  0  0  0  0  0
   -4.5000   -5.1962    0.0000 C   0  0  0  0  0  0  0  0  0  0  0  0
   -3.0000   -2.5981    0.0000 N   0  0  0  0  0  0  0  0  0  0  0  0
   -1.5000   -2.5981    0.0000 C   0  0  0  0  0  0  0  0  0  0  0  0
   -0.7500   -3.8971    0.0000 N   0  0  0  0  0  0  0  0  0  0  0  0
    0.7500   -3.8971    0.0000 C   0  0  0  0  0  0  0  0  0  0  0  0
    1.5000   -5.1962    0.0000 C   0  0  0  0  0  0  0  0  0  0  0  0
    2.2500   -6.4952    0.0000 F   0  0  0  0  0  0  0  0  0  0  0  0
    0.2010   -5.9462    0.0000 F   0  0  0  0  0  0  0  0  0  0  0  0
    2.7990   -4.4462    0.0000 F   0  0  0  0  0  0  0  0  0  0  0  0
    1.5000   -2.5981    0.0000 N   0  0  0  0  0  0  0  0  0  0  0  0
    0.7500   -1.2990    0.0000 C   0  0  0  0  0  0  0  0  0  0  0  0
    1.5000    0.0000    0.0000 C   0  0  0  0  0  0  0  0  0  0  0  0
    0.7500    1.2990    0.0000 C   0  0  0  0  0  0  0  0  0  0  0  0
   -0.7500    1.2990    0.0000 C   0  0  0  0  0  0  0  0  0  0  0  0
   -1.5000    2.5981    0.0000 C   0  0  0  0  0  0  0  0  0  0  0  0
   -2.9918    2.7549    0.0000 C   0  0  0  0  0  0  0  0  0  0  0  0
   -3.3037    4.2221    0.0000 C   0  0  0  0  0  0  0  0  0  0  0  0
   -2.0046    4.9721    0.0000 S   0  0  0  0  0  0  0  0  0  0  0  0
   -0.8899    3.9684    0.0000 C   0  0  0  0  0  0  0  0  0  0  0  0
   -1.5000    0.0000    0.0000 C   0  0  0  0  0  0  0  0  0  0  0  0
   -0.7500   -1.2990    0.0000 C   0  0  0  0  0  0  0  0  0  0  0  0
  1  2  1  0
  2  3  1  0
  2  4  1  0
  2  5  1  0
  5  6  1  0
  6  7  2  0
  7  8  1  0
  8  9  1  0
  9 10  1  0
  9 11  1  0
  9 12  1  0
  8 13  2  0
 13 14  1  0
 14 15  2  0
 15 16  1  0
 16 17  2  0
 17 18  1  0
 18 19  1  0
 19 20  2  0
 20 21  1  0
 21 22  1  0
 17 23  1  0
 23 24  2  0
 24  6  1  0
 24 14  1  0
 22 18  2  0
M  END
>  <Compound_ID>  (43) 
CHEMBL274456

>  <Active>  (43) 
1

>  <Smiles>  (43) 
CC(C)(C)Nc1nc(C(F)(F)F)nc2ccc(-c3ccsc3)cc12

>  <canonical_smi>  (43) 
CC(C)(C)Nc1nc(C(F)(F)F)nc2ccc(-c3ccsc3)cc12

>  <Set>  (43) 
G1 active

>  <Set_type>  (43) 
G1

>  <MW>  (43) 
351.4

>  <HBD>  (43) 
1

>  <HBA>  (43) 
3

>  <NRB>  (43) 
2

>  <NR>  (43) 
3

>  <NAR>  (43) 
3

>  <PSA>  (43) 
37.81

>  <Standard Type>  (43) 
nan

>  <Standard Relation>  (43) 
nan

>  <Standard Units>  (43) 
nan

>  <Standard Value>  (43) 
nan

>  <Assay ChEMBL ID>  (43) 
nan

>  <Assay Description>  (43) 
nan

>  <BAO Label>  (43) 
nan

$$$$

     RDKit          2D

 16 18  0  0  0  0  0  0  0  0999 V2000
    2.7760    0.0000    0.0000 C   0  0  0  0  0  0  0  0  0  0  0  0
    1.2760    0.0000    0.0000 C   0  0  0  0  0  0  0  0  0  0  0  0
    0.3943    1.2135    0.0000 N   0  0  0  0  0  0  0  0  0  0  0  0
   -1.0323    0.7500    0.0000 N   0  0  0  0  0  0  0  0  0  0  0  0
   -1.0323   -0.7500    0.0000 C   0  0  0  0  0  0  0  0  0  0  0  0
   -1.9140   -1.9635    0.0000 S   0  0  0  0  0  0  0  0  0  0  0  0
   -1.0323   -3.1771    0.0000 C   0  0  0  0  0  0  0  0  0  0  0  0
   -1.4958   -4.6036    0.0000 C   0  0  0  0  0  0  0  0  0  0  0  0
   -2.9630   -4.9155    0.0000 C   0  0  0  0  0  0  0  0  0  0  0  0
   -3.4266   -6.3421    0.0000 C   0  0  0  0  0  0  0  0  0  0  0  0
   -2.4229   -7.4568    0.0000 C   0  0  0  0  0  0  0  0  0  0  0  0
   -2.8864   -8.8834    0.0000 N   0  0  0  0  0  0  0  0  0  0  0  0
   -0.9556   -7.1449    0.0000 C   0  0  0  0  0  0  0  0  0  0  0  0
   -0.4921   -5.7184    0.0000 C   0  0  0  0  0  0  0  0  0  0  0  0
    0.3943   -2.7135    0.0000 N   0  0  0  0  0  0  0  0  0  0  0  0
    0.3943   -1.2135    0.0000 N   0  0  0  0  0  0  0  0  0  0  0  0
  1  2  1  0
  2  3  2  0
  3  4  1  0
  4  5  2  0
  5  6  1  0
  6  7  1  0
  7  8  1  0
  8  9  2  0
  9 10  1  0
 10 11  2  0
 11 12  1  0
 11 13  1  0
 13 14  2  0
  7 15  2  0
 15 16  1  0
 16  2  1  0
 16  5  1  0
 14  8  1  0
M  END
>  <Compound_ID>  (44) 
CHEMBL553906

>  <Active>  (44) 
1

>  <Smiles>  (44) 
Cc1nnc2sc(-c3ccc(N)cc3)nn12

>  <canonical_smi>  (44) 
Cc1nnc2sc(-c3ccc(N)cc3)nn12

>  <Set>  (44) 
G1 active

>  <Set_type>  (44) 
G1

>  <MW>  (44) 
231.28

>  <HBD>  (44) 
1

>  <HBA>  (44) 
4

>  <NRB>  (44) 
1

>  <NR>  (44) 
3

>  <NAR>  (44) 
3

>  <PSA>  (44) 
69.1

>  <Standard Type>  (44) 
nan

>  <Standard Relation>  (44) 
nan

>  <Standard Units>  (44) 
nan

>  <Standard Value>  (44) 
nan

>  <Assay ChEMBL ID>  (44) 
nan

>  <Assay Description>  (44) 
nan

>  <BAO Label>  (44) 
nan

$$$$

     RDKit          2D

 28 31  0  0  0  0  0  0  0  0999 V2000
   -2.9520   -4.6564    0.0000 C   0  0  0  0  0  0  0  0  0  0  0  0
   -2.6401   -3.1891    0.0000 C   0  0  0  0  0  0  0  0  0  0  0  0
   -1.2135   -2.7256    0.0000 C   0  0  0  0  0  0  0  0  0  0  0  0
   -0.0000   -3.6073    0.0000 N   0  0  0  0  0  0  0  0  0  0  0  0
    1.2135   -2.7256    0.0000 N   0  0  0  0  0  0  0  0  0  0  0  0
    2.6401   -3.1891    0.0000 C   0  0  0  0  0  0  0  0  0  0  0  0
    2.9520   -4.6564    0.0000 C   0  0  0  0  0  0  0  0  0  0  0  0
    1.8373   -5.6601    0.0000 Cl  0  0  0  0  0  0  0  0  0  0  0  0
    4.3786   -5.1199    0.0000 C   0  0  0  0  0  0  0  0  0  0  0  0
    5.4933   -4.1162    0.0000 C   0  0  0  0  0  0  0  0  0  0  0  0
    6.9199   -4.5797    0.0000 Cl  0  0  0  0  0  0  0  0  0  0  0  0
    5.1814   -2.6490    0.0000 C   0  0  0  0  0  0  0  0  0  0  0  0
    3.7548   -2.1855    0.0000 C   0  0  0  0  0  0  0  0  0  0  0  0
    3.4430   -0.7182    0.0000 Cl  0  0  0  0  0  0  0  0  0  0  0  0
    0.7500   -1.2990    0.0000 C   0  0  0  0  0  0  0  0  0  0  0  0
    1.5000    0.0000    0.0000 N   0  0  0  0  0  0  0  0  0  0  0  0
    0.7500    1.2990    0.0000 C   0  0  0  0  0  0  0  0  0  0  0  0
    1.5000    2.5981    0.0000 C   0  0  0  0  0  0  0  0  0  0  0  0
    3.0000    2.5981    0.0000 C   0  0  0  0  0  0  0  0  0  0  0  0
    3.7500    3.8971    0.0000 C   0  0  0  0  0  0  0  0  0  0  0  0
    3.1399    5.2674    0.0000 C   0  0  0  0  0  0  0  0  0  0  0  0
    4.2546    6.2711    0.0000 N   0  0  0  0  0  0  0  0  0  0  0  0
    5.5537    5.5211    0.0000 C   0  0  0  0  0  0  0  0  0  0  0  0
    5.2418    4.0539    0.0000 N   0  0  0  0  0  0  0  0  0  0  0  0
   -0.7500    1.2990    0.0000 N   0  0  0  0  0  0  0  0  0  0  0  0
   -1.5000    0.0000    0.0000 C   0  0  0  0  0  0  0  0  0  0  0  0
   -3.0000    0.0000    0.0000 O   0  0  0  0  0  0  0  0  0  0  0  0
   -0.7500   -1.2990    0.0000 C   0  0  0  0  0  0  0  0  0  0  0  0
  1  2  1  0
  2  3  1  0
  3  4  2  0
  4  5  1  0
  5  6  1  0
  6  7  2  0
  7  8  1  0
  7  9  1  0
  9 10  2  0
 10 11  1  0
 10 12  1  0
 12 13  2  0
 13 14  1  0
  5 15  1  0
 15 16  2  0
 16 17  1  0
 17 18  1  0
 18 19  1  0
 19 20  1  0
 20 21  2  0
 21 22  1  0
 22 23  1  0
 23 24  2  0
 17 25  2  0
 25 26  1  0
 26 27  1  0
 26 28  2  0
 28  3  1  0
 13  6  1  0
 28 15  1  0
 24 20  1  0
M  END
>  <Compound_ID>  (45) 
CHEMBL188102

>  <Active>  (45) 
1

>  <Smiles>  (45) 
CCc1nn(-c2c(Cl)cc(Cl)cc2Cl)c2nc(CCc3c[nH]cn3)nc(O)c12

>  <canonical_smi>  (45) 
CCc1nn(-c2c(Cl)cc(Cl)cc2Cl)c2nc(CCc3c[nH]cn3)nc(O)c12

>  <Set>  (45) 
G1 active

>  <Set_type>  (45) 
G1

>  <MW>  (45) 
437.72

>  <HBD>  (45) 
2

>  <HBA>  (45) 
5

>  <NRB>  (45) 
5

>  <NR>  (45) 
4

>  <NAR>  (45) 
4

>  <PSA>  (45) 
92.51

>  <Standard Type>  (45) 
nan

>  <Standard Relation>  (45) 
nan

>  <Standard Units>  (45) 
nan

>  <Standard Value>  (45) 
nan

>  <Assay ChEMBL ID>  (45) 
nan

>  <Assay Description>  (45) 
nan

>  <BAO Label>  (45) 
nan

$$$$

     RDKit          2D

 17 18  0  0  0  0  0  0  0  0999 V2000
    0.3207  -11.1638    0.0000 C   0  0  0  0  0  0  0  0  0  0  0  0
    0.4775   -9.6721    0.0000 C   0  0  0  0  0  0  0  0  0  0  0  0
   -0.7360   -8.7904    0.0000 O   0  0  0  0  0  0  0  0  0  0  0  0
    1.8478   -9.0619    0.0000 N   0  0  0  0  0  0  0  0  0  0  0  0
    2.0046   -7.5702    0.0000 C   0  0  0  0  0  0  0  0  0  0  0  0
    3.3037   -6.8202    0.0000 N   0  0  0  0  0  0  0  0  0  0  0  0
    2.9918   -5.3529    0.0000 C   0  0  0  0  0  0  0  0  0  0  0  0
    1.5000   -5.1962    0.0000 C   0  0  0  0  0  0  0  0  0  0  0  0
    0.7500   -3.8971    0.0000 S   0  0  0  0  0  0  0  0  0  0  0  0
    1.5000   -2.5981    0.0000 C   0  0  0  0  0  0  0  0  0  0  0  0
    0.7500   -1.2990    0.0000 C   0  0  0  0  0  0  0  0  0  0  0  0
    1.5000    0.0000    0.0000 C   0  0  0  0  0  0  0  0  0  0  0  0
    0.7500    1.2990    0.0000 C   0  0  0  0  0  0  0  0  0  0  0  0
   -0.7500    1.2990    0.0000 C   0  0  0  0  0  0  0  0  0  0  0  0
   -1.5000    0.0000    0.0000 N   0  0  0  0  0  0  0  0  0  0  0  0
   -0.7500   -1.2990    0.0000 C   0  0  0  0  0  0  0  0  0  0  0  0
    0.8899   -6.5665    0.0000 S   0  0  0  0  0  0  0  0  0  0  0  0
  1  2  1  0
  2  3  2  0
  2  4  1  0
  4  5  1  0
  5  6  2  0
  6  7  1  0
  7  8  2  0
  8  9  1  0
  9 10  1  0
 10 11  1  0
 11 12  2  0
 12 13  1  0
 13 14  2  0
 14 15  1  0
 15 16  2  0
  8 17  1  0
 17  5  1  0
 16 11  1  0
M  END
>  <Compound_ID>  (46) 
CHEMBL340741

>  <Active>  (46) 
1

>  <Smiles>  (46) 
CC(=O)Nc1ncc(SCc2cccnc2)s1

>  <canonical_smi>  (46) 
CC(=O)Nc1ncc(SCc2cccnc2)s1

>  <Set>  (46) 
G1 active

>  <Set_type>  (46) 
G1

>  <MW>  (46) 
265.36

>  <HBD>  (46) 
1

>  <HBA>  (46) 
4

>  <NRB>  (46) 
4

>  <NR>  (46) 
2

>  <NAR>  (46) 
2

>  <PSA>  (46) 
54.88

>  <Standard Type>  (46) 
nan

>  <Standard Relation>  (46) 
nan

>  <Standard Units>  (46) 
nan

>  <Standard Value>  (46) 
nan

>  <Assay ChEMBL ID>  (46) 
nan

>  <Assay Description>  (46) 
nan

>  <BAO Label>  (46) 
nan

$$$$

     RDKit          2D

 38 41  0  0  0  0  0  0  0  0999 V2000
    3.7500   -1.2990    0.0000 C   0  0  0  0  0  0  0  0  0  0  0  0
    3.0000    0.0000    0.0000 C   0  0  0  0  0  0  0  0  0  0  0  0
    1.5000    0.0000    0.0000 N   0  0  0  0  0  0  0  0  0  0  0  0
    0.7500   -1.2990    0.0000 C   0  0  0  0  0  0  0  0  0  0  0  0
   -0.7500   -1.2990    0.0000 C   0  0  0  0  0  0  0  0  0  0  0  0
   -1.5000    0.0000    0.0000 N   0  0  0  0  0  0  0  0  0  0  0  0
   -3.0000    0.0000    0.0000 C   0  0  0  0  0  0  0  0  0  0  0  0
   -3.7500    1.2990    0.0000 C   0  0  0  0  0  0  0  0  0  0  0  0
   -3.0000    2.5981    0.0000 C   0  0  0  0  0  0  0  0  0  0  0  0
   -3.7500    3.8971    0.0000 C   0  0  0  0  0  0  0  0  0  0  0  0
   -5.2500    3.8971    0.0000 C   0  0  0  0  0  0  0  0  0  0  0  0
   -6.0000    5.1962    0.0000 N   0  0  0  0  0  0  0  0  0  0  0  0
   -5.2500    6.4952    0.0000 C   0  0  0  0  0  0  0  0  0  0  0  0
   -3.7500    6.4952    0.0000 O   0  0  0  0  0  0  0  0  0  0  0  0
   -6.0000    7.7942    0.0000 N   0  0  0  0  0  0  0  0  0  0  0  0
   -5.2500    9.0933    0.0000 C   0  0  0  0  0  0  0  0  0  0  0  0
   -3.7500    9.0933    0.0000 C   0  0  0  0  0  0  0  0  0  0  0  0
   -3.0000   10.3923    0.0000 C   0  0  0  0  0  0  0  0  0  0  0  0
   -3.7500   11.6913    0.0000 C   0  0  0  0  0  0  0  0  0  0  0  0
   -3.0000   12.9904    0.0000 O   0  0  0  0  0  0  0  0  0  0  0  0
   -1.5000   12.9904    0.0000 C   0  0  0  0  0  0  0  0  0  0  0  0
   -0.7500   11.6913    0.0000 C   0  0  0  0  0  0  0  0  0  0  0  0
    0.7500   11.6913    0.0000 C   0  0  0  0  0  0  0  0  0  0  0  0
    1.5000   10.3923    0.0000 N   0  0  0  0  0  0  0  0  0  0  0  0
    0.7500    9.0933    0.0000 C   0  0  0  0  0  0  0  0  0  0  0  0
    1.5000   12.9904    0.0000 N   0  0  0  0  0  0  0  0  0  0  0  0
    0.7500   14.2894    0.0000 C   0  0  0  0  0  0  0  0  0  0  0  0
   -0.7500   14.2894    0.0000 N   0  0  0  0  0  0  0  0  0  0  0  0
   -5.2500   11.6913    0.0000 C   0  0  0  0  0  0  0  0  0  0  0  0
   -6.0000   10.3923    0.0000 C   0  0  0  0  0  0  0  0  0  0  0  0
   -6.0000    2.5981    0.0000 C   0  0  0  0  0  0  0  0  0  0  0  0
   -5.2500    1.2990    0.0000 C   0  0  0  0  0  0  0  0  0  0  0  0
   -6.0000    0.0000    0.0000 C   0  0  0  0  0  0  0  0  0  0  0  0
   -6.7500   -1.2990    0.0000 F   0  0  0  0  0  0  0  0  0  0  0  0
   -7.2990    0.7500    0.0000 F   0  0  0  0  0  0  0  0  0  0  0  0
   -4.7010   -0.7500    0.0000 F   0  0  0  0  0  0  0  0  0  0  0  0
   -0.7500    1.2990    0.0000 C   0  0  0  0  0  0  0  0  0  0  0  0
    0.7500    1.2990    0.0000 C   0  0  0  0  0  0  0  0  0  0  0  0
  1  2  1  0
  2  3  1  0
  3  4  1  0
  4  5  1  0
  5  6  1  0
  6  7  1  0
  7  8  1  0
  8  9  2  0
  9 10  1  0
 10 11  2  0
 11 12  1  0
 12 13  1  0
 13 14  2  0
 13 15  1  0
 15 16  1  0
 16 17  2  0
 17 18  1  0
 18 19  2  0
 19 20  1  0
 20 21  1  0
 21 22  2  0
 22 23  1  0
 23 24  1  0
 24 25  1  0
 23 26  2  0
 26 27  1  0
 27 28  2  0
 19 29  1  0
 29 30  2  0
 11 31  1  0
 31 32  2  0
 32 33  1  0
 33 34  1  0
 33 35  1  0
 33 36  1  0
  6 37  1  0
 37 38  1  0
 38  3  1  0
 32  8  1  0
 30 16  1  0
 28 21  1  0
M  END
>  <Compound_ID>  (47) 
CHEMBL574738

>  <Active>  (47) 
1

>  <Smiles>  (47) 
CCN1CCN(Cc2ccc(NC(=O)Nc3ccc(Oc4cc(NC)ncn4)cc3)cc2C(F)(F)F)CC1

>  <canonical_smi>  (47) 
CCN1CCN(Cc2ccc(NC(=O)Nc3ccc(Oc4cc(NC)ncn4)cc3)cc2C(F)(F)F)CC1

>  <Set>  (47) 
G1 active

>  <Set_type>  (47) 
G1

>  <MW>  (47) 
529.57

>  <HBD>  (47) 
3

>  <HBA>  (47) 
7

>  <NRB>  (47) 
8

>  <NR>  (47) 
4

>  <NAR>  (47) 
3

>  <PSA>  (47) 
94.65

>  <Standard Type>  (47) 
nan

>  <Standard Relation>  (47) 
nan

>  <Standard Units>  (47) 
nan

>  <Standard Value>  (47) 
nan

>  <Assay ChEMBL ID>  (47) 
nan

>  <Assay Description>  (47) 
nan

>  <BAO Label>  (47) 
nan

$$$$

     RDKit          2D

 37 40  0  0  0  0  0  0  0  0999 V2000
    3.0000    0.0000    0.0000 C   0  0  0  0  0  0  0  0  0  0  0  0
    1.5000    0.0000    0.0000 C   0  0  0  0  0  0  0  0  0  0  0  0
    0.7500   -1.2990    0.0000 N   0  0  0  0  0  0  0  0  0  0  0  0
   -0.7500   -1.2990    0.0000 C   0  0  0  0  0  0  0  0  0  0  0  0
   -1.5000   -2.5981    0.0000 S   0  0  0  0  0  0  0  0  0  0  0  0
   -0.2010   -3.3481    0.0000 O   0  0  0  0  0  0  0  0  0  0  0  0
   -2.7990   -1.8481    0.0000 O   0  0  0  0  0  0  0  0  0  0  0  0
   -2.2500   -3.8971    0.0000 C   0  0  0  0  0  0  0  0  0  0  0  0
   -1.5000   -5.1962    0.0000 C   0  0  0  0  0  0  0  0  0  0  0  0
   -2.2500   -6.4952    0.0000 C   0  0  0  0  0  0  0  0  0  0  0  0
   -1.5000   -7.7942    0.0000 C   0  0  0  0  0  0  0  0  0  0  0  0
   -0.0000   -7.7942    0.0000 C   0  0  0  0  0  0  0  0  0  0  0  0
    0.7500   -6.4952    0.0000 C   0  0  0  0  0  0  0  0  0  0  0  0
   -0.0000   -5.1962    0.0000 C   0  0  0  0  0  0  0  0  0  0  0  0
   -1.5000    0.0000    0.0000 N   0  0  0  0  0  0  0  0  0  0  0  0
   -0.7500    1.2990    0.0000 C   0  0  0  0  0  0  0  0  0  0  0  0
   -1.5000    2.5981    0.0000 C   0  0  0  0  0  0  0  0  0  0  0  0
   -0.7500    3.8971    0.0000 C   0  0  0  0  0  0  0  0  0  0  0  0
   -1.5000    5.1962    0.0000 C   0  0  0  0  0  0  0  0  0  0  0  0
   -3.0000    5.1962    0.0000 C   0  0  0  0  0  0  0  0  0  0  0  0
   -3.7500    6.4952    0.0000 O   0  0  0  0  0  0  0  0  0  0  0  0
   -3.7500    3.8971    0.0000 C   0  0  0  0  0  0  0  0  0  0  0  0
   -3.0000    2.5981    0.0000 C   0  0  0  0  0  0  0  0  0  0  0  0
   -3.7500    1.2990    0.0000 O   0  0  0  0  0  0  0  0  0  0  0  0
    0.7500    1.2990    0.0000 C   0  0  0  0  0  0  0  0  0  0  0  0
    1.5000    2.5981    0.0000 C   0  0  0  0  0  0  0  0  0  0  0  0
    0.7500    3.8971    0.0000 O   0  0  0  0  0  0  0  0  0  0  0  0
    3.0000    2.5981    0.0000 N   0  0  0  0  0  0  0  0  0  0  0  0
    3.7500    3.8971    0.0000 C   0  0  0  0  0  0  0  0  0  0  0  0
    5.2500    3.8971    0.0000 C   0  0  0  0  0  0  0  0  0  0  0  0
    6.0000    5.1962    0.0000 C   0  0  0  0  0  0  0  0  0  0  0  0
    5.2500    6.4952    0.0000 C   0  0  0  0  0  0  0  0  0  0  0  0
    3.7500    6.4952    0.0000 C   0  0  0  0  0  0  0  0  0  0  0  0
    3.0000    7.7942    0.0000 N   0  0  0  0  0  4  0  0  0  0  0  0
    1.5000    7.7942    0.0000 O   0  0  0  0  0  0  0  0  0  0  0  0
    3.7500    9.0933    0.0000 O   0  0  0  0  0  1  0  0  0  0  0  0
    3.0000    5.1962    0.0000 C   0  0  0  0  0  0  0  0  0  0  0  0
  1  2  1  0
  2  3  2  0
  3  4  1  0
  4  5  1  0
  5  6  2  0
  5  7  2  0
  5  8  1  0
  8  9  1  0
  9 10  2  0
 10 11  1  0
 11 12  2  0
 12 13  1  0
 13 14  2  0
  4 15  2  0
 15 16  1  0
 16 17  1  0
 17 18  2  0
 18 19  1  0
 19 20  2  0
 20 21  1  0
 20 22  1  0
 22 23  2  0
 23 24  1  0
 16 25  2  0
 25 26  1  0
 26 27  2  0
 26 28  1  0
 28 29  1  0
 29 30  2  0
 30 31  1  0
 31 32  2  0
 32 33  1  0
 33 34  1  0
 34 35  2  0
 34 36  1  0
 33 37  2  0
 25  2  1  0
 37 29  1  0
 14  9  1  0
 23 17  1  0
M  CHG  2  34   1  36  -1
M  END
>  <Compound_ID>  (48) 
CHEMBL1083509

>  <Active>  (48) 
1

>  <Smiles>  (48) 
Cc1nc(S(=O)(=O)Cc2ccccc2)nc(-c2ccc(O)cc2O)c1C(=O)Nc1cccc([N+](=O)[O-])c1

>  <canonical_smi>  (48) 
Cc1nc(S(=O)(=O)Cc2ccccc2)nc(-c2ccc(O)cc2O)c1C(=O)Nc1cccc([N+](=O)[O-])c1

>  <Set>  (48) 
G1 active

>  <Set_type>  (48) 
G1

>  <MW>  (48) 
520.52

>  <HBD>  (48) 
3

>  <HBA>  (48) 
9

>  <NRB>  (48) 
7

>  <NR>  (48) 
4

>  <NAR>  (48) 
4

>  <PSA>  (48) 
172.62

>  <Standard Type>  (48) 
nan

>  <Standard Relation>  (48) 
nan

>  <Standard Units>  (48) 
nan

>  <Standard Value>  (48) 
nan

>  <Assay ChEMBL ID>  (48) 
nan

>  <Assay Description>  (48) 
nan

>  <BAO Label>  (48) 
nan

$$$$

     RDKit          2D

 24 27  0  0  0  0  0  0  0  0999 V2000
   -2.0143    8.6263    0.0000 C   0  0  0  0  0  0  0  0  0  0  0  0
   -0.8995    7.6226    0.0000 C   0  0  0  0  0  0  0  0  0  0  0  0
   -1.2114    6.1554    0.0000 C   0  0  0  0  0  0  0  0  0  0  0  0
   -2.6380    5.6918    0.0000 C   0  0  0  0  0  0  0  0  0  0  0  0
   -2.9499    4.2246    0.0000 N   0  0  0  0  0  0  0  0  0  0  0  0
   -1.8351    3.2209    0.0000 C   0  0  0  0  0  0  0  0  0  0  0  0
   -0.4086    3.6844    0.0000 N   0  0  0  0  0  0  0  0  0  0  0  0
    0.7062    2.6807    0.0000 C   0  0  0  0  0  0  0  0  0  0  0  0
    2.1328    3.1443    0.0000 O   0  0  0  0  0  0  0  0  0  0  0  0
    2.4446    4.6115    0.0000 C   0  0  0  0  0  0  0  0  0  0  0  0
    3.8712    5.0750    0.0000 C   0  0  0  0  0  0  0  0  0  0  0  0
    4.9859    4.0713    0.0000 C   0  0  0  0  0  0  0  0  0  0  0  0
    6.4125    4.5348    0.0000 C   0  0  0  0  0  0  0  0  0  0  0  0
    6.7244    6.0021    0.0000 C   0  0  0  0  0  0  0  0  0  0  0  0
    5.6097    7.0058    0.0000 C   0  0  0  0  0  0  0  0  0  0  0  0
    4.1831    6.5422    0.0000 C   0  0  0  0  0  0  0  0  0  0  0  0
    0.3943    1.2135    0.0000 C   0  0  0  0  0  0  0  0  0  0  0  0
    1.2760    0.0000    0.0000 N   0  0  0  0  0  0  0  0  0  0  0  0
    0.3943   -1.2135    0.0000 C   0  0  0  0  0  0  0  0  0  0  0  0
   -1.0323   -0.7500    0.0000 N   0  0  0  0  0  0  0  0  0  0  0  0
   -1.0323    0.7500    0.0000 C   0  0  0  0  0  0  0  0  0  0  0  0
   -2.1470    1.7537    0.0000 N   0  0  0  0  0  0  0  0  0  0  0  0
   -3.7527    6.6955    0.0000 C   0  0  0  0  0  0  0  0  0  0  0  0
   -3.4408    8.1628    0.0000 C   0  0  0  0  0  0  0  0  0  0  0  0
  1  2  2  0
  2  3  1  0
  3  4  2  0
  4  5  1  0
  5  6  1  0
  6  7  2  0
  7  8  1  0
  8  9  1  0
  9 10  1  0
 10 11  1  0
 11 12  1  0
 12 13  1  0
 13 14  1  0
 14 15  1  0
 15 16  1  0
  8 17  2  0
 17 18  1  0
 18 19  2  0
 19 20  1  0
 20 21  1  0
 21 22  2  0
  4 23  1  0
 23 24  2  0
 24  1  1  0
 22  6  1  0
 16 11  1  0
 21 17  1  0
M  END
>  <Compound_ID>  (49) 
CHEMBL122264

>  <Active>  (49) 
1

>  <Smiles>  (49) 
c1ccc(Nc2nc(OCC3CCCCC3)c3nc[nH]c3n2)cc1

>  <canonical_smi>  (49) 
c1ccc(Nc2nc(OCC3CCCCC3)c3nc[nH]c3n2)cc1

>  <Set>  (49) 
G1 active

>  <Set_type>  (49) 
G1

>  <MW>  (49) 
323.4

>  <HBD>  (49) 
2

>  <HBA>  (49) 
5

>  <NRB>  (49) 
5

>  <NR>  (49) 
4

>  <NAR>  (49) 
3

>  <PSA>  (49) 
75.72

>  <Standard Type>  (49) 
nan

>  <Standard Relation>  (49) 
nan

>  <Standard Units>  (49) 
nan

>  <Standard Value>  (49) 
nan

>  <Assay ChEMBL ID>  (49) 
nan

>  <Assay Description>  (49) 
nan

>  <BAO Label>  (49) 
nan

$$$$

     RDKit          2D

 18 20  0  0  0  0  0  0  0  0999 V2000
   -5.1814   -6.0656    0.0000 C   0  0  0  0  0  0  0  0  0  0  0  0
   -3.7548   -6.5291    0.0000 C   0  0  0  0  0  0  0  0  0  0  0  0
   -3.4430   -7.9964    0.0000 O   0  0  0  0  0  0  0  0  0  0  0  0
   -2.6401   -5.5255    0.0000 N   0  0  0  0  0  0  0  0  0  0  0  0
   -1.2135   -5.9890    0.0000 C   0  0  0  0  0  0  0  0  0  0  0  0
   -0.7500   -7.4156    0.0000 C   0  0  0  0  0  0  0  0  0  0  0  0
    0.7500   -7.4156    0.0000 N   0  0  0  0  0  0  0  0  0  0  0  0
    1.2135   -5.9890    0.0000 N   0  0  0  0  0  0  0  0  0  0  0  0
   -0.0000   -5.1073    0.0000 C   0  0  0  0  0  0  0  0  0  0  0  0
   -0.0000   -3.6073    0.0000 C   0  0  0  0  0  0  0  0  0  0  0  0
    1.2135   -2.7256    0.0000 N   0  0  0  0  0  0  0  0  0  0  0  0
    0.7500   -1.2990    0.0000 C   0  0  0  0  0  0  0  0  0  0  0  0
    1.5000    0.0000    0.0000 C   0  0  0  0  0  0  0  0  0  0  0  0
    0.7500    1.2990    0.0000 C   0  0  0  0  0  0  0  0  0  0  0  0
   -0.7500    1.2990    0.0000 C   0  0  0  0  0  0  0  0  0  0  0  0
   -1.5000    0.0000    0.0000 C   0  0  0  0  0  0  0  0  0  0  0  0
   -0.7500   -1.2990    0.0000 C   0  0  0  0  0  0  0  0  0  0  0  0
   -1.2135   -2.7256    0.0000 N   0  0  0  0  0  0  0  0  0  0  0  0
  1  2  1  0
  2  3  2  0
  2  4  1  0
  4  5  1  0
  5  6  2  0
  6  7  1  0
  7  8  1  0
  8  9  2  0
  9 10  1  0
 10 11  2  0
 11 12  1  0
 12 13  2  0
 13 14  1  0
 14 15  2  0
 15 16  1  0
 16 17  2  0
 17 18  1  0
  9  5  1  0
 18 10  1  0
 17 12  1  0
M  END
>  <Compound_ID>  (50) 
CHEMBL504155

>  <Active>  (50) 
1

>  <Smiles>  (50) 
CC(=O)Nc1c[nH]nc1-c1nc2ccccc2[nH]1

>  <canonical_smi>  (50) 
CC(=O)Nc1c[nH]nc1-c1nc2ccccc2[nH]1

>  <Set>  (50) 
G1 active

>  <Set_type>  (50) 
G1

>  <MW>  (50) 
241.25

>  <HBD>  (50) 
3

>  <HBA>  (50) 
3

>  <NRB>  (50) 
2

>  <NR>  (50) 
3

>  <NAR>  (50) 
3

>  <PSA>  (50) 
86.46

>  <Standard Type>  (50) 
nan

>  <Standard Relation>  (50) 
nan

>  <Standard Units>  (50) 
nan

>  <Standard Value>  (50) 
nan

>  <Assay ChEMBL ID>  (50) 
nan

>  <Assay Description>  (50) 
nan

>  <BAO Label>  (50) 
nan

$$$$

     RDKit          2D

 28 30  0  0  0  0  0  0  0  0999 V2000
   -6.0000    0.0000    0.0000 C   0  0  0  0  0  0  0  0  0  0  0  0
   -5.2500    1.2990    0.0000 C   0  0  0  0  0  0  0  0  0  0  0  0
   -6.0000    2.5981    0.0000 C   0  0  0  0  0  0  0  0  0  0  0  0
   -5.2500    3.8971    0.0000 C   0  0  0  0  0  0  0  0  0  0  0  0
   -3.7500    3.8971    0.0000 C   0  0  0  0  0  0  0  0  0  0  0  0
   -3.0000    5.1962    0.0000 F   0  0  0  0  0  0  0  0  0  0  0  0
   -3.0000    2.5981    0.0000 C   0  0  0  0  0  0  0  0  0  0  0  0
   -1.5000    2.5981    0.0000 C   0  0  0  0  0  0  0  0  0  0  0  0
   -0.7500    1.2990    0.0000 O   0  0  0  0  0  0  0  0  0  0  0  0
   -0.7500    3.8971    0.0000 N   0  0  0  0  0  0  0  0  0  0  0  0
   -1.3601    5.2674    0.0000 N   0  0  0  0  0  0  0  0  0  0  0  0
   -0.2454    6.2711    0.0000 C   0  0  0  0  0  0  0  0  0  0  0  0
   -0.4022    7.7629    0.0000 N   0  0  0  0  0  0  0  0  0  0  0  0
    0.8113    8.6446    0.0000 C   0  0  0  0  0  0  0  0  0  0  0  0
    2.1817    8.0345    0.0000 C   0  0  0  0  0  0  0  0  0  0  0  0
    3.3952    8.9162    0.0000 C   0  0  0  0  0  0  0  0  0  0  0  0
    3.2384   10.4079    0.0000 C   0  0  0  0  0  0  0  0  0  0  0  0
    4.4519   11.2896    0.0000 S   0  0  0  0  0  0  0  0  0  0  0  0
    5.6654   12.1713    0.0000 N   0  0  0  0  0  0  0  0  0  0  0  0
    5.3336   10.0761    0.0000 O   0  0  0  0  0  0  0  0  0  0  0  0
    3.5702   12.5031    0.0000 O   0  0  0  0  0  0  0  0  0  0  0  0
    1.8681   11.0180    0.0000 C   0  0  0  0  0  0  0  0  0  0  0  0
    0.6546   10.1364    0.0000 C   0  0  0  0  0  0  0  0  0  0  0  0
    1.0537    5.5211    0.0000 N   0  0  0  0  0  0  0  0  0  0  0  0
    0.7418    4.0539    0.0000 C   0  0  0  0  0  0  0  0  0  0  0  0
    1.7455    2.9392    0.0000 C   0  0  0  0  0  0  0  0  0  0  0  0
   -3.7500    1.2990    0.0000 C   0  0  0  0  0  0  0  0  0  0  0  0
   -3.0000   -0.0000    0.0000 F   0  0  0  0  0  0  0  0  0  0  0  0
  1  2  1  0
  2  3  2  0
  3  4  1  0
  4  5  2  0
  5  6  1  0
  5  7  1  0
  7  8  1  0
  8  9  2  0
  8 10  1  0
 10 11  1  0
 11 12  2  0
 12 13  1  0
 13 14  1  0
 14 15  2  0
 15 16  1  0
 16 17  2  0
 17 18  1  0
 18 19  1  0
 18 20  2  0
 18 21  2  0
 17 22  1  0
 22 23  2  0
 12 24  1  0
 24 25  2  0
 25 26  1  0
  7 27  2  0
 27 28  1  0
 27  2  1  0
 25 10  1  0
 23 14  1  0
M  END
>  <Compound_ID>  (51) 
CHEMBL363607

>  <Active>  (51) 
1

>  <Smiles>  (51) 
Cc1ccc(F)c(C(=O)n2nc(Nc3ccc(S(N)(=O)=O)cc3)nc2C)c1F

>  <canonical_smi>  (51) 
Cc1ccc(F)c(C(=O)n2nc(Nc3ccc(S(N)(=O)=O)cc3)nc2C)c1F

>  <Set>  (51) 
G2 active

>  <Set_type>  (51) 
Train

>  <MW>  (51) 
407.4

>  <HBD>  (51) 
2

>  <HBA>  (51) 
6

>  <NRB>  (51) 
4

>  <NR>  (51) 
3

>  <NAR>  (51) 
3

>  <PSA>  (51) 
119.97

>  <Standard Type>  (51) 
nan

>  <Standard Relation>  (51) 
nan

>  <Standard Units>  (51) 
nan

>  <Standard Value>  (51) 
nan

>  <Assay ChEMBL ID>  (51) 
nan

>  <Assay Description>  (51) 
nan

>  <BAO Label>  (51) 
nan

$$$$

     RDKit          2D

 25 28  0  0  0  0  0  0  0  0999 V2000
   -9.3284    2.8330    0.0000 O   0  0  0  0  0  0  0  0  0  0  0  0
   -7.9018    3.2966    0.0000 N   0  0  0  0  0  4  0  0  0  0  0  0
   -7.5900    4.7638    0.0000 O   0  0  0  0  0  1  0  0  0  0  0  0
   -6.7871    2.2929    0.0000 C   0  0  0  0  0  0  0  0  0  0  0  0
   -5.3605    2.7564    0.0000 C   0  0  0  0  0  0  0  0  0  0  0  0
   -4.2458    1.7527    0.0000 C   0  0  0  0  0  0  0  0  0  0  0  0
   -4.5577    0.2855    0.0000 C   0  0  0  0  0  0  0  0  0  0  0  0
   -5.9843   -0.1781    0.0000 C   0  0  0  0  0  0  0  0  0  0  0  0
   -6.2961   -1.6453    0.0000 N   0  0  0  0  0  0  0  0  0  0  0  0
   -5.1814   -2.6490    0.0000 C   0  0  0  0  0  0  0  0  0  0  0  0
   -5.4933   -4.1162    0.0000 N   0  0  0  0  0  0  0  0  0  0  0  0
   -4.3786   -5.1199    0.0000 C   0  0  0  0  0  0  0  0  0  0  0  0
   -2.9520   -4.6564    0.0000 C   0  0  0  0  0  0  0  0  0  0  0  0
   -2.6401   -3.1891    0.0000 C   0  0  0  0  0  0  0  0  0  0  0  0
   -1.2135   -2.7256    0.0000 C   0  0  0  0  0  0  0  0  0  0  0  0
   -0.0000   -3.6073    0.0000 C   0  0  0  0  0  0  0  0  0  0  0  0
    1.2135   -2.7256    0.0000 N   0  0  0  0  0  0  0  0  0  0  0  0
    0.7500   -1.2990    0.0000 N   0  0  0  0  0  0  0  0  0  0  0  0
    1.5000    0.0000    0.0000 N   0  0  0  0  0  0  0  0  0  0  0  0
    0.7500    1.2990    0.0000 C   0  0  0  0  0  0  0  0  0  0  0  0
   -0.7500    1.2990    0.0000 C   0  0  0  0  0  0  0  0  0  0  0  0
   -1.5000    0.0000    0.0000 C   0  0  0  0  0  0  0  0  0  0  0  0
   -0.7500   -1.2990    0.0000 C   0  0  0  0  0  0  0  0  0  0  0  0
   -3.7548   -2.1855    0.0000 N   0  0  0  0  0  0  0  0  0  0  0  0
   -7.0990    0.8256    0.0000 C   0  0  0  0  0  0  0  0  0  0  0  0
  1  2  2  0
  2  3  1  0
  2  4  1  0
  4  5  2  0
  5  6  1  0
  6  7  2  0
  7  8  1  0
  8  9  1  0
  9 10  1  0
 10 11  2  0
 11 12  1  0
 12 13  2  0
 13 14  1  0
 14 15  1  0
 15 16  1  0
 16 17  2  0
 17 18  1  0
 18 19  1  0
 19 20  2  0
 20 21  1  0
 21 22  2  0
 22 23  1  0
 14 24  2  0
  8 25  2  0
 25  4  1  0
 24 10  1  0
 23 15  2  0
 23 18  1  0
M  CHG  2   2   1   3  -1
M  END
>  <Compound_ID>  (52) 
CHEMBL526110

>  <Active>  (52) 
1

>  <Smiles>  (52) 
O=[N+]([O-])c1cccc(Nc2nccc(-c3cnn4ncccc34)n2)c1

>  <canonical_smi>  (52) 
O=[N+]([O-])c1cccc(Nc2nccc(-c3cnn4ncccc34)n2)c1

>  <Set>  (52) 
G2 active

>  <Set_type>  (52) 
Train

>  <MW>  (52) 
333.31

>  <HBD>  (52) 
1

>  <HBA>  (52) 
7

>  <NRB>  (52) 
4

>  <NR>  (52) 
4

>  <NAR>  (52) 
4

>  <PSA>  (52) 
111.14

>  <Standard Type>  (52) 
nan

>  <Standard Relation>  (52) 
nan

>  <Standard Units>  (52) 
nan

>  <Standard Value>  (52) 
nan

>  <Assay ChEMBL ID>  (52) 
nan

>  <Assay Description>  (52) 
nan

>  <BAO Label>  (52) 
nan

$$$$

     RDKit          2D

 25 27  0  0  0  0  0  0  0  0999 V2000
    4.5000    0.0000    0.0000 N   0  0  0  0  0  0  0  0  0  0  0  0
    3.0000    0.0000    0.0000 S   0  0  0  0  0  0  0  0  0  0  0  0
    3.0000   -1.5000    0.0000 O   0  0  0  0  0  0  0  0  0  0  0  0
    3.0000    1.5000    0.0000 O   0  0  0  0  0  0  0  0  0  0  0  0
    1.5000    0.0000    0.0000 C   0  0  0  0  0  0  0  0  0  0  0  0
    0.7500   -1.2990    0.0000 C   0  0  0  0  0  0  0  0  0  0  0  0
   -0.7500   -1.2990    0.0000 C   0  0  0  0  0  0  0  0  0  0  0  0
   -1.5000    0.0000    0.0000 C   0  0  0  0  0  0  0  0  0  0  0  0
   -3.0000    0.0000    0.0000 N   0  0  0  0  0  0  0  0  0  0  0  0
   -3.7500    1.2990    0.0000 C   0  0  0  0  0  0  0  0  0  0  0  0
   -5.2418    1.4558    0.0000 C   0  0  0  0  0  0  0  0  0  0  0  0
   -5.5537    2.9231    0.0000 C   0  0  0  0  0  0  0  0  0  0  0  0
   -6.9240    3.5332    0.0000 C   0  0  0  0  0  0  0  0  0  0  0  0
   -7.0808    5.0249    0.0000 C   0  0  0  0  0  0  0  0  0  0  0  0
   -8.4511    5.6350    0.0000 C   0  0  0  0  0  0  0  0  0  0  0  0
   -9.6646    4.7534    0.0000 C   0  0  0  0  0  0  0  0  0  0  0  0
  -11.0349    5.3635    0.0000 N   0  0  0  0  0  4  0  0  0  0  0  0
  -12.2484    4.4818    0.0000 O   0  0  0  0  0  0  0  0  0  0  0  0
  -11.1917    6.8553    0.0000 O   0  0  0  0  0  1  0  0  0  0  0  0
   -9.5078    3.2616    0.0000 C   0  0  0  0  0  0  0  0  0  0  0  0
   -8.1375    2.6515    0.0000 C   0  0  0  0  0  0  0  0  0  0  0  0
   -4.2546    3.6731    0.0000 N   0  0  0  0  0  0  0  0  0  0  0  0
   -3.1399    2.6694    0.0000 N   0  0  0  0  0  0  0  0  0  0  0  0
   -0.7500    1.2990    0.0000 C   0  0  0  0  0  0  0  0  0  0  0  0
    0.7500    1.2990    0.0000 C   0  0  0  0  0  0  0  0  0  0  0  0
  1  2  1  0
  2  3  2  0
  2  4  2  0
  2  5  1  0
  5  6  2  0
  6  7  1  0
  7  8  2  0
  8  9  1  0
  9 10  1  0
 10 11  1  0
 11 12  2  0
 12 13  1  0
 13 14  2  0
 14 15  1  0
 15 16  2  0
 16 17  1  0
 17 18  2  0
 17 19  1  0
 16 20  1  0
 20 21  2  0
 12 22  1  0
 22 23  1  0
  8 24  1  0
 24 25  2  0
 25  5  1  0
 23 10  2  0
 21 13  1  0
M  CHG  2  17   1  19  -1
M  END
>  <Compound_ID>  (53) 
CHEMBL317703

>  <Active>  (53) 
1

>  <Smiles>  (53) 
NS(=O)(=O)c1ccc(Nc2cc(-c3ccc([N+](=O)[O-])cc3)[nH]n2)cc1

>  <canonical_smi>  (53) 
NS(=O)(=O)c1ccc(Nc2cc(-c3ccc([N+](=O)[O-])cc3)[nH]n2)cc1

>  <Set>  (53) 
G2 active

>  <Set_type>  (53) 
Train

>  <MW>  (53) 
359.37

>  <HBD>  (53) 
3

>  <HBA>  (53) 
6

>  <NRB>  (53) 
5

>  <NR>  (53) 
3

>  <NAR>  (53) 
3

>  <PSA>  (53) 
144.01

>  <Standard Type>  (53) 
nan

>  <Standard Relation>  (53) 
nan

>  <Standard Units>  (53) 
nan

>  <Standard Value>  (53) 
nan

>  <Assay ChEMBL ID>  (53) 
nan

>  <Assay Description>  (53) 
nan

>  <BAO Label>  (53) 
nan

$$$$

     RDKit          2D

 23 25  0  0  0  0  0  0  0  0999 V2000
    3.0000    0.0000    0.0000 N   0  0  0  0  0  0  0  0  0  0  0  0
    1.5000    0.0000    0.0000 C   0  0  0  0  0  0  0  0  0  0  0  0
    0.7500   -1.2990    0.0000 C   0  0  0  0  0  0  0  0  0  0  0  0
   -0.7500   -1.2990    0.0000 C   0  0  0  0  0  0  0  0  0  0  0  0
   -1.5000    0.0000    0.0000 C   0  0  0  0  0  0  0  0  0  0  0  0
   -3.0000    0.0000    0.0000 C   0  0  0  0  0  0  0  0  0  0  0  0
   -3.8817   -1.2135    0.0000 C   0  0  0  0  0  0  0  0  0  0  0  0
   -5.3083   -0.7500    0.0000 C   0  0  0  0  0  0  0  0  0  0  0  0
   -6.5218   -1.6317    0.0000 N   0  0  0  0  0  0  0  0  0  0  0  0
   -7.8921   -1.0216    0.0000 C   0  0  0  0  0  0  0  0  0  0  0  0
   -8.0489    0.4702    0.0000 C   0  0  0  0  0  0  0  0  0  0  0  0
   -9.4192    1.0803    0.0000 C   0  0  0  0  0  0  0  0  0  0  0  0
  -10.6327    0.1986    0.0000 C   0  0  0  0  0  0  0  0  0  0  0  0
  -12.0031    0.8087    0.0000 S   0  0  0  0  0  0  0  0  0  0  0  0
  -13.3734    1.4188    0.0000 N   0  0  0  0  0  0  0  0  0  0  0  0
  -11.3930    2.1791    0.0000 O   0  0  0  0  0  0  0  0  0  0  0  0
  -12.6132   -0.5616    0.0000 O   0  0  0  0  0  0  0  0  0  0  0  0
  -10.4760   -1.2931    0.0000 C   0  0  0  0  0  0  0  0  0  0  0  0
   -9.1056   -1.9033    0.0000 C   0  0  0  0  0  0  0  0  0  0  0  0
   -5.3083    0.7500    0.0000 N   0  0  0  0  0  0  0  0  0  0  0  0
   -3.8817    1.2135    0.0000 N   0  0  0  0  0  0  0  0  0  0  0  0
   -0.7500    1.2990    0.0000 C   0  0  0  0  0  0  0  0  0  0  0  0
    0.7500    1.2990    0.0000 C   0  0  0  0  0  0  0  0  0  0  0  0
  1  2  1  0
  2  3  2  0
  3  4  1  0
  4  5  2  0
  5  6  1  0
  6  7  1  0
  7  8  2  0
  8  9  1  0
  9 10  1  0
 10 11  2  0
 11 12  1  0
 12 13  2  0
 13 14  1  0
 14 15  1  0
 14 16  2  0
 14 17  2  0
 13 18  1  0
 18 19  2  0
  8 20  1  0
 20 21  1  0
  5 22  1  0
 22 23  2  0
 23  2  1  0
 21  6  2  0
 19 10  1  0
M  END
>  <Compound_ID>  (54) 
CHEMBL321517

>  <Active>  (54) 
1

>  <Smiles>  (54) 
Nc1ccc(-c2cc(Nc3ccc(S(N)(=O)=O)cc3)[nH]n2)cc1

>  <canonical_smi>  (54) 
Nc1ccc(-c2cc(Nc3ccc(S(N)(=O)=O)cc3)[nH]n2)cc1

>  <Set>  (54) 
G2 active

>  <Set_type>  (54) 
Train

>  <MW>  (54) 
329.38

>  <HBD>  (54) 
4

>  <HBA>  (54) 
5

>  <NRB>  (54) 
4

>  <NR>  (54) 
3

>  <NAR>  (54) 
3

>  <PSA>  (54) 
126.89

>  <Standard Type>  (54) 
nan

>  <Standard Relation>  (54) 
nan

>  <Standard Units>  (54) 
nan

>  <Standard Value>  (54) 
nan

>  <Assay ChEMBL ID>  (54) 
nan

>  <Assay Description>  (54) 
nan

>  <BAO Label>  (54) 
nan

$$$$

     RDKit          2D

 35 42  0  0  0  0  0  0  0  0999 V2000
    7.0384   -5.9220    0.0000 C   0  0  0  0  0  0  0  0  0  0  0  0
    6.3474   -4.5907    0.0000 N   0  0  0  0  0  0  0  0  0  0  0  0
    4.8489   -4.5234    0.0000 C   0  0  0  0  0  0  0  0  0  0  0  0
    4.0414   -5.7874    0.0000 C   0  0  0  0  0  0  0  0  0  0  0  0
    2.5382   -5.8249    0.0000 C   0  0  0  0  0  0  0  0  0  0  0  0
    3.2490   -4.5040    0.0000 O   0  0  0  0  0  0  0  0  0  0  0  0
    2.6595   -3.1247    0.0000 C   0  0  0  0  0  0  0  0  0  0  0  0
    3.6464   -1.9951    0.0000 C   0  0  0  0  0  0  0  0  0  0  0  0
    4.1580   -3.1920    0.0000 C   0  0  0  0  0  0  0  0  0  0  0  0
    4.9655   -1.9279    0.0000 O   0  0  0  0  0  0  0  0  0  0  0  0
    6.4640   -1.9952    0.0000 C   0  0  0  0  0  0  0  0  0  0  0  0
    1.2135   -2.7256    0.0000 N   0  0  0  0  0  0  0  0  0  0  0  0
    0.7500   -1.2990    0.0000 C   0  0  0  0  0  0  0  0  0  0  0  0
    1.5000    0.0000    0.0000 C   0  0  0  0  0  0  0  0  0  0  0  0
    0.7500    1.2990    0.0000 C   0  0  0  0  0  0  0  0  0  0  0  0
   -0.7500    1.2990    0.0000 C   0  0  0  0  0  0  0  0  0  0  0  0
   -1.5000    0.0000    0.0000 C   0  0  0  0  0  0  0  0  0  0  0  0
   -0.7500   -1.2990    0.0000 C   0  0  0  0  0  0  0  0  0  0  0  0
   -1.2135   -2.7256    0.0000 C   0  0  0  0  0  0  0  0  0  0  0  0
   -2.5518   -3.5691    0.0000 C   0  0  0  0  0  0  0  0  0  0  0  0
   -2.6191   -5.0676    0.0000 C   0  0  0  0  0  0  0  0  0  0  0  0
   -1.3550   -5.8751    0.0000 C   0  0  0  0  0  0  0  0  0  0  0  0
   -1.0212   -7.3375    0.0000 C   0  0  0  0  0  0  0  0  0  0  0  0
   -1.8846   -8.5641    0.0000 C   0  0  0  0  0  0  0  0  0  0  0  0
   -1.2541   -9.9251    0.0000 C   0  0  0  0  0  0  0  0  0  0  0  0
    0.2399  -10.0596    0.0000 C   0  0  0  0  0  0  0  0  0  0  0  0
    1.1033   -8.8330    0.0000 C   0  0  0  0  0  0  0  0  0  0  0  0
    0.4728   -7.4720    0.0000 C   0  0  0  0  0  0  0  0  0  0  0  0
    1.0623   -6.0927    0.0000 N   0  0  0  0  0  0  0  0  0  0  0  0
   -0.0673   -5.1058    0.0000 C   0  0  0  0  0  0  0  0  0  0  0  0
   -0.0000   -3.6073    0.0000 C   0  0  0  0  0  0  0  0  0  0  0  0
   -4.0650   -5.4667    0.0000 C   0  0  0  0  0  0  0  0  0  0  0  0
   -4.5921   -6.8710    0.0000 O   0  0  0  0  0  0  0  0  0  0  0  0
   -4.8913   -4.2148    0.0000 N   0  0  0  0  0  0  0  0  0  0  0  0
   -3.9561   -3.0421    0.0000 C   0  0  0  0  0  0  0  0  0  0  0  0
  1  2  1  0
  3  2  1  6
  3  4  1  0
  4  5  1  0
  5  6  1  0
  6  7  1  0
  7  8  1  1
  7  9  1  0
  9 10  1  6
 10 11  1  0
  7 12  1  0
 12 13  1  0
 13 14  2  0
 14 15  1  0
 15 16  2  0
 16 17  1  0
 17 18  2  0
 18 19  1  0
 19 20  2  0
 20 21  1  0
 21 22  2  0
 22 23  1  0
 23 24  2  0
 24 25  1  0
 25 26  2  0
 26 27  1  0
 27 28  2  0
 28 29  1  0
 29 30  1  0
 30 31  2  0
 21 32  1  0
 32 33  2  0
 32 34  1  0
 34 35  1  0
  9  3  1  0
 31 12  1  0
 29  5  1  0
 18 13  1  0
 31 19  1  0
 35 20  1  0
 30 22  1  0
 28 23  1  0
M  END
>  <Compound_ID>  (55) 
CHEMBL162

>  <Active>  (55) 
1

>  <Smiles>  (55) 
CN[C@@H]1CC2O[C@@](C)([C@@H]1OC)n1c3ccccc3c3c4c(c5c6ccccc6n2c5c31)C(=O)NC4

>  <canonical_smi>  (55) 
CN[C@@H]1CC2O[C@@](C)([C@@H]1OC)n1c3ccccc3c3c4c(c5c6ccccc6n2c5c31)C(=O)NC4

>  <Set>  (55) 
G2 active

>  <Set_type>  (55) 
Train

>  <MW>  (55) 
466.54

>  <HBD>  (55) 
2

>  <HBA>  (55) 
4

>  <NRB>  (55) 
2

>  <NR>  (55) 
8

>  <NAR>  (55) 
5

>  <PSA>  (55) 
69.45

>  <Standard Type>  (55) 
nan

>  <Standard Relation>  (55) 
nan

>  <Standard Units>  (55) 
nan

>  <Standard Value>  (55) 
nan

>  <Assay ChEMBL ID>  (55) 
nan

>  <Assay Description>  (55) 
nan

>  <BAO Label>  (55) 
nan

$$$$

     RDKit          2D

 25 27  0  0  0  0  0  0  0  0999 V2000
   -2.4240   -2.8679    0.0000 C   0  0  0  0  0  0  0  0  0  0  0  0
   -3.6375   -3.7496    0.0000 C   0  0  0  0  0  0  0  0  0  0  0  0
   -5.0641   -3.2860    0.0000 C   0  0  0  0  0  0  0  0  0  0  0  0
   -5.9458   -4.4996    0.0000 C   0  0  0  0  0  0  0  0  0  0  0  0
   -5.0641   -5.7131    0.0000 S   0  0  0  0  0  0  0  0  0  0  0  0
   -3.6375   -5.2496    0.0000 C   0  0  0  0  0  0  0  0  0  0  0  0
   -2.4240   -6.1312    0.0000 C   0  0  0  0  0  0  0  0  0  0  0  0
   -2.5808   -7.6230    0.0000 O   0  0  0  0  0  0  0  0  0  0  0  0
   -1.0537   -5.5211    0.0000 N   0  0  0  0  0  0  0  0  0  0  0  0
   -0.7418   -4.0539    0.0000 N   0  0  0  0  0  0  0  0  0  0  0  0
    0.7500   -3.8971    0.0000 C   0  0  0  0  0  0  0  0  0  0  0  0
    1.5000   -2.5981    0.0000 N   0  0  0  0  0  0  0  0  0  0  0  0
    0.7500   -1.2990    0.0000 C   0  0  0  0  0  0  0  0  0  0  0  0
    1.5000    0.0000    0.0000 C   0  0  0  0  0  0  0  0  0  0  0  0
    0.7500    1.2990    0.0000 C   0  0  0  0  0  0  0  0  0  0  0  0
   -0.7500    1.2990    0.0000 C   0  0  0  0  0  0  0  0  0  0  0  0
   -1.5000    2.5981    0.0000 S   0  0  0  0  0  0  0  0  0  0  0  0
   -2.2500    3.8971    0.0000 N   0  0  0  0  0  0  0  0  0  0  0  0
   -0.2010    3.3481    0.0000 O   0  0  0  0  0  0  0  0  0  0  0  0
   -2.7990    1.8481    0.0000 O   0  0  0  0  0  0  0  0  0  0  0  0
   -1.5000    0.0000    0.0000 C   0  0  0  0  0  0  0  0  0  0  0  0
   -0.7500   -1.2990    0.0000 C   0  0  0  0  0  0  0  0  0  0  0  0
    1.3601   -5.2674    0.0000 N   0  0  0  0  0  0  0  0  0  0  0  0
    0.2454   -6.2711    0.0000 C   0  0  0  0  0  0  0  0  0  0  0  0
    0.4022   -7.7629    0.0000 N   0  0  0  0  0  0  0  0  0  0  0  0
  1  2  1  0
  2  3  1  0
  3  4  2  0
  4  5  1  0
  5  6  1  0
  6  7  1  0
  7  8  2  0
  7  9  1  0
  9 10  1  0
 10 11  2  0
 11 12  1  0
 12 13  1  0
 13 14  2  0
 14 15  1  0
 15 16  2  0
 16 17  1  0
 17 18  1  0
 17 19  2  0
 17 20  2  0
 16 21  1  0
 21 22  2  0
 11 23  1  0
 23 24  2  0
 24 25  1  0
  6  2  2  0
 24  9  1  0
 22 13  1  0
M  END
>  <Compound_ID>  (56) 
CHEMBL363130

>  <Active>  (56) 
1

>  <Smiles>  (56) 
Cc1ccsc1C(=O)n1nc(Nc2ccc(S(N)(=O)=O)cc2)nc1N

>  <canonical_smi>  (56) 
Cc1ccsc1C(=O)n1nc(Nc2ccc(S(N)(=O)=O)cc2)nc1N

>  <Set>  (56) 
G2 active

>  <Set_type>  (56) 
Train

>  <MW>  (56) 
378.44

>  <HBD>  (56) 
3

>  <HBA>  (56) 
7

>  <NRB>  (56) 
4

>  <NR>  (56) 
3

>  <NAR>  (56) 
3

>  <PSA>  (56) 
145.99

>  <Standard Type>  (56) 
nan

>  <Standard Relation>  (56) 
nan

>  <Standard Units>  (56) 
nan

>  <Standard Value>  (56) 
nan

>  <Assay ChEMBL ID>  (56) 
nan

>  <Assay Description>  (56) 
nan

>  <BAO Label>  (56) 
nan

$$$$

     RDKit          2D

 31 34  0  0  0  0  0  0  0  0999 V2000
    3.3107   -8.3323    0.0000 C   0  0  0  0  0  0  0  0  0  0  0  0
    2.5607   -7.0333    0.0000 C   0  0  0  0  0  0  0  0  0  0  0  0
    1.0607   -7.0333    0.0000 O   0  0  0  0  0  0  0  0  0  0  0  0
    3.3107   -5.7342    0.0000 N   0  0  0  0  0  0  0  0  0  0  0  0
    2.5607   -4.4352    0.0000 C   0  0  0  0  0  0  0  0  0  0  0  0
    1.1118   -4.0470    0.0000 C   0  0  0  0  0  0  0  0  0  0  0  0
    1.5000   -2.5981    0.0000 N   0  0  0  0  0  0  0  0  0  0  0  0
    0.7500   -1.2990    0.0000 C   0  0  0  0  0  0  0  0  0  0  0  0
    1.5000    0.0000    0.0000 C   0  0  0  0  0  0  0  0  0  0  0  0
    0.7500    1.2990    0.0000 C   0  0  0  0  0  0  0  0  0  0  0  0
   -0.7500    1.2990    0.0000 C   0  0  0  0  0  0  0  0  0  0  0  0
   -1.5000    2.5981    0.0000 N   0  0  0  0  0  0  0  0  0  0  0  0
   -0.7500    3.8971    0.0000 C   0  0  0  0  0  0  0  0  0  0  0  0
    0.7500    3.8971    0.0000 N   0  0  0  0  0  0  0  0  0  0  0  0
    1.5000    5.1962    0.0000 C   0  0  0  0  0  0  0  0  0  0  0  0
    0.7500    6.4952    0.0000 C   0  0  0  0  0  0  0  0  0  0  0  0
    1.5000    7.7942    0.0000 F   0  0  0  0  0  0  0  0  0  0  0  0
   -0.7500    6.4952    0.0000 C   0  0  0  0  0  0  0  0  0  0  0  0
   -1.5000    7.7942    0.0000 C   0  0  0  0  0  0  0  0  0  0  0  0
   -0.8899    9.1645    0.0000 C   0  0  0  0  0  0  0  0  0  0  0  0
   -2.0046   10.1682    0.0000 N   0  0  0  0  0  0  0  0  0  0  0  0
   -3.3037    9.4182    0.0000 C   0  0  0  0  0  0  0  0  0  0  0  0
   -4.6740   10.0283    0.0000 C   0  0  0  0  0  0  0  0  0  0  0  0
   -2.9918    7.9510    0.0000 N   0  0  0  0  0  0  0  0  0  0  0  0
   -3.9955    6.8363    0.0000 C   0  0  0  0  0  0  0  0  0  0  0  0
   -5.4627    7.1482    0.0000 C   0  0  0  0  0  0  0  0  0  0  0  0
   -3.5320    5.4097    0.0000 C   0  0  0  0  0  0  0  0  0  0  0  0
   -1.5000    5.1962    0.0000 N   0  0  0  0  0  0  0  0  0  0  0  0
   -1.5000    0.0000    0.0000 C   0  0  0  0  0  0  0  0  0  0  0  0
   -0.7500   -1.2990    0.0000 C   0  0  0  0  0  0  0  0  0  0  0  0
    2.9489   -2.9863    0.0000 C   0  0  0  0  0  0  0  0  0  0  0  0
  1  2  1  0
  2  3  2  0
  2  4  1  0
  4  5  1  0
  5  6  1  0
  6  7  1  0
  7  8  1  0
  8  9  2  0
  9 10  1  0
 10 11  2  0
 11 12  1  0
 12 13  1  0
 13 14  2  0
 14 15  1  0
 15 16  2  0
 16 17  1  0
 16 18  1  0
 18 19  1  0
 19 20  2  0
 20 21  1  0
 21 22  2  0
 22 23  1  0
 22 24  1  0
 24 25  1  0
 25 26  1  0
 25 27  1  0
 18 28  2  0
 11 29  1  0
 29 30  2  0
  7 31  1  0
 31  5  1  0
 30  8  1  0
 28 13  1  0
 24 19  1  0
M  END
>  <Compound_ID>  (57) 
CHEMBL476577

>  <Active>  (57) 
1

>  <Smiles>  (57) 
CC(=O)NC1CN(c2ccc(Nc3ncc(F)c(-c4cnc(C)n4C(C)C)n3)cc2)C1

>  <canonical_smi>  (57) 
CC(=O)NC1CN(c2ccc(Nc3ncc(F)c(-c4cnc(C)n4C(C)C)n3)cc2)C1

>  <Set>  (57) 
G2 active

>  <Set_type>  (57) 
Train

>  <MW>  (57) 
423.5

>  <HBD>  (57) 
2

>  <HBA>  (57) 
6

>  <NRB>  (57) 
6

>  <NR>  (57) 
4

>  <NAR>  (57) 
3

>  <PSA>  (57) 
87.97

>  <Standard Type>  (57) 
nan

>  <Standard Relation>  (57) 
nan

>  <Standard Units>  (57) 
nan

>  <Standard Value>  (57) 
nan

>  <Assay ChEMBL ID>  (57) 
nan

>  <Assay Description>  (57) 
nan

>  <BAO Label>  (57) 
nan

$$$$

     RDKit          2D

 28 30  0  0  0  0  0  0  0  0999 V2000
    0.4022   -7.7629    0.0000 N   0  0  0  0  0  0  0  0  0  0  0  0
    0.2454   -6.2711    0.0000 C   0  0  0  0  0  0  0  0  0  0  0  0
    1.3601   -5.2674    0.0000 N   0  0  0  0  0  0  0  0  0  0  0  0
    0.7500   -3.8971    0.0000 C   0  0  0  0  0  0  0  0  0  0  0  0
    1.5000   -2.5981    0.0000 N   0  0  0  0  0  0  0  0  0  0  0  0
    0.7500   -1.2990    0.0000 C   0  0  0  0  0  0  0  0  0  0  0  0
    1.5000    0.0000    0.0000 C   0  0  0  0  0  0  0  0  0  0  0  0
    0.7500    1.2990    0.0000 C   0  0  0  0  0  0  0  0  0  0  0  0
   -0.7500    1.2990    0.0000 C   0  0  0  0  0  0  0  0  0  0  0  0
   -1.5000    2.5981    0.0000 S   0  0  0  0  0  0  0  0  0  0  0  0
   -2.2500    3.8971    0.0000 N   0  0  0  0  0  0  0  0  0  0  0  0
   -0.2010    3.3481    0.0000 O   0  0  0  0  0  0  0  0  0  0  0  0
   -2.7990    1.8481    0.0000 O   0  0  0  0  0  0  0  0  0  0  0  0
   -1.5000    0.0000    0.0000 C   0  0  0  0  0  0  0  0  0  0  0  0
   -0.7500   -1.2990    0.0000 C   0  0  0  0  0  0  0  0  0  0  0  0
   -0.7418   -4.0539    0.0000 N   0  0  0  0  0  0  0  0  0  0  0  0
   -1.0537   -5.5211    0.0000 N   0  0  0  0  0  0  0  0  0  0  0  0
   -2.4240   -6.1312    0.0000 C   0  0  0  0  0  0  0  0  0  0  0  0
   -2.5808   -7.6230    0.0000 S   0  0  0  0  0  0  0  0  0  0  0  0
   -3.6375   -5.2496    0.0000 N   0  0  0  0  0  0  0  0  0  0  0  0
   -5.0078   -5.8597    0.0000 C   0  0  0  0  0  0  0  0  0  0  0  0
   -6.2213   -4.9780    0.0000 C   0  0  0  0  0  0  0  0  0  0  0  0
   -6.0645   -3.4862    0.0000 F   0  0  0  0  0  0  0  0  0  0  0  0
   -7.5917   -5.5881    0.0000 C   0  0  0  0  0  0  0  0  0  0  0  0
   -7.7484   -7.0799    0.0000 C   0  0  0  0  0  0  0  0  0  0  0  0
   -6.5349   -7.9615    0.0000 C   0  0  0  0  0  0  0  0  0  0  0  0
   -5.1646   -7.3514    0.0000 C   0  0  0  0  0  0  0  0  0  0  0  0
   -3.9511   -8.2331    0.0000 F   0  0  0  0  0  0  0  0  0  0  0  0
  1  2  1  0
  2  3  2  0
  3  4  1  0
  4  5  1  0
  5  6  1  0
  6  7  2  0
  7  8  1  0
  8  9  2  0
  9 10  1  0
 10 11  1  0
 10 12  2  0
 10 13  2  0
  9 14  1  0
 14 15  2  0
  4 16  2  0
 16 17  1  0
 17 18  1  0
 18 19  2  0
 18 20  1  0
 20 21  1  0
 21 22  2  0
 22 23  1  0
 22 24  1  0
 24 25  2  0
 25 26  1  0
 26 27  2  0
 27 28  1  0
 17  2  1  0
 27 21  1  0
 15  6  1  0
M  END
>  <Compound_ID>  (58) 
CHEMBL261720

>  <Active>  (58) 
1

>  <Smiles>  (58) 
Nc1nc(Nc2ccc(S(N)(=O)=O)cc2)nn1C(=S)Nc1c(F)cccc1F

>  <canonical_smi>  (58) 
Nc1nc(Nc2ccc(S(N)(=O)=O)cc2)nn1C(=S)Nc1c(F)cccc1F

>  <Set>  (58) 
G2 active

>  <Set_type>  (58) 
Train

>  <MW>  (58) 
425.45

>  <HBD>  (58) 
4

>  <HBA>  (58) 
8

>  <NRB>  (58) 
4

>  <NR>  (58) 
3

>  <NAR>  (58) 
3

>  <PSA>  (58) 
140.95

>  <Standard Type>  (58) 
nan

>  <Standard Relation>  (58) 
nan

>  <Standard Units>  (58) 
nan

>  <Standard Value>  (58) 
nan

>  <Assay ChEMBL ID>  (58) 
nan

>  <Assay Description>  (58) 
nan

>  <BAO Label>  (58) 
nan

$$$$

     RDKit          2D

 30 32  0  0  0  0  0  0  0  0999 V2000
    9.0000    2.5981    0.0000 C   0  0  0  0  0  0  0  0  0  0  0  0
    7.5000    2.5981    0.0000 O   0  0  0  0  0  0  0  0  0  0  0  0
    6.7500    1.2990    0.0000 C   0  0  0  0  0  0  0  0  0  0  0  0
    5.2500    1.2990    0.0000 C   0  0  0  0  0  0  0  0  0  0  0  0
    4.5000    0.0000    0.0000 N   0  0  0  0  0  0  0  0  0  0  0  0
    3.0000    0.0000    0.0000 S   0  0  0  0  0  0  0  0  0  0  0  0
    3.0000   -1.5000    0.0000 O   0  0  0  0  0  0  0  0  0  0  0  0
    3.0000    1.5000    0.0000 O   0  0  0  0  0  0  0  0  0  0  0  0
    1.5000    0.0000    0.0000 C   0  0  0  0  0  0  0  0  0  0  0  0
    0.7500   -1.2990    0.0000 C   0  0  0  0  0  0  0  0  0  0  0  0
   -0.7500   -1.2990    0.0000 C   0  0  0  0  0  0  0  0  0  0  0  0
   -1.5000    0.0000    0.0000 C   0  0  0  0  0  0  0  0  0  0  0  0
   -3.0000    0.0000    0.0000 N   0  0  0  0  0  0  0  0  0  0  0  0
   -3.7500    1.2990    0.0000 C   0  0  0  0  0  0  0  0  0  0  0  0
   -3.0000    2.5981    0.0000 N   0  0  0  0  0  0  0  0  0  0  0  0
   -3.7500    3.8971    0.0000 C   0  0  0  0  0  0  0  0  0  0  0  0
   -5.2500    3.8971    0.0000 C   0  0  0  0  0  0  0  0  0  0  0  0
   -6.0000    2.5981    0.0000 C   0  0  0  0  0  0  0  0  0  0  0  0
   -7.5000    2.5981    0.0000 C   0  0  0  0  0  0  0  0  0  0  0  0
   -8.3817    1.3846    0.0000 C   0  0  0  0  0  0  0  0  0  0  0  0
   -9.8083    1.8481    0.0000 N   0  0  0  0  0  0  0  0  0  0  0  0
   -9.8083    3.3481    0.0000 C   0  0  0  0  0  0  0  0  0  0  0  0
  -11.0218    4.2298    0.0000 C   0  0  0  0  0  0  0  0  0  0  0  0
   -8.3817    3.8116    0.0000 N   0  0  0  0  0  0  0  0  0  0  0  0
   -7.9182    5.2382    0.0000 C   0  0  0  0  0  0  0  0  0  0  0  0
   -8.9218    6.3529    0.0000 C   0  0  0  0  0  0  0  0  0  0  0  0
   -6.4509    5.5501    0.0000 C   0  0  0  0  0  0  0  0  0  0  0  0
   -5.2500    1.2990    0.0000 N   0  0  0  0  0  0  0  0  0  0  0  0
   -0.7500    1.2990    0.0000 C   0  0  0  0  0  0  0  0  0  0  0  0
    0.7500    1.2990    0.0000 C   0  0  0  0  0  0  0  0  0  0  0  0
  1  2  1  0
  2  3  1  0
  3  4  1  0
  4  5  1  0
  5  6  1  0
  6  7  2  0
  6  8  2  0
  6  9  1  0
  9 10  2  0
 10 11  1  0
 11 12  2  0
 12 13  1  0
 13 14  1  0
 14 15  2  0
 15 16  1  0
 16 17  2  0
 17 18  1  0
 18 19  1  0
 19 20  2  0
 20 21  1  0
 21 22  2  0
 22 23  1  0
 22 24  1  0
 24 25  1  0
 25 26  1  0
 25 27  1  0
 18 28  2  0
 12 29  1  0
 29 30  2  0
 30  9  1  0
 28 14  1  0
 24 19  1  0
M  END
>  <Compound_ID>  (59) 
CHEMBL478409

>  <Active>  (59) 
1

>  <Smiles>  (59) 
COCCNS(=O)(=O)c1ccc(Nc2nccc(-c3cnc(C)n3C(C)C)n2)cc1

>  <canonical_smi>  (59) 
COCCNS(=O)(=O)c1ccc(Nc2nccc(-c3cnc(C)n3C(C)C)n2)cc1

>  <Set>  (59) 
G2 active

>  <Set_type>  (59) 
Train

>  <MW>  (59) 
430.53

>  <HBD>  (59) 
2

>  <HBA>  (59) 
7

>  <NRB>  (59) 
9

>  <NR>  (59) 
3

>  <NAR>  (59) 
3

>  <PSA>  (59) 
111.03

>  <Standard Type>  (59) 
nan

>  <Standard Relation>  (59) 
nan

>  <Standard Units>  (59) 
nan

>  <Standard Value>  (59) 
nan

>  <Assay ChEMBL ID>  (59) 
nan

>  <Assay Description>  (59) 
nan

>  <BAO Label>  (59) 
nan

$$$$

     RDKit          2D

 33 37  0  0  0  0  0  0  0  0999 V2000
    1.8478   -6.4639    0.0000 C   0  0  0  0  0  0  0  0  0  0  0  0
    2.0046   -4.9721    0.0000 C   0  0  0  0  0  0  0  0  0  0  0  0
    3.3037   -4.2221    0.0000 N   0  0  0  0  0  0  0  0  0  0  0  0
    2.9918   -2.7549    0.0000 C   0  0  0  0  0  0  0  0  0  0  0  0
    1.5000   -2.5981    0.0000 C   0  0  0  0  0  0  0  0  0  0  0  0
    0.7500   -1.2990    0.0000 C   0  0  0  0  0  0  0  0  0  0  0  0
    1.5000    0.0000    0.0000 C   0  0  0  0  0  0  0  0  0  0  0  0
    0.7500    1.2990    0.0000 C   0  0  0  0  0  0  0  0  0  0  0  0
   -0.7500    1.2990    0.0000 N   0  0  0  0  0  0  0  0  0  0  0  0
   -1.5000    0.0000    0.0000 C   0  0  0  0  0  0  0  0  0  0  0  0
   -3.0000    0.0000    0.0000 N   0  0  0  0  0  0  0  0  0  0  0  0
   -3.7500    1.2990    0.0000 C   0  0  0  0  0  0  0  0  0  0  0  0
   -3.0000    2.5981    0.0000 C   0  0  0  0  0  0  0  0  0  0  0  0
   -3.7500    3.8971    0.0000 C   0  0  0  0  0  0  0  0  0  0  0  0
   -5.2500    3.8971    0.0000 C   0  0  0  0  0  0  0  0  0  0  0  0
   -6.0000    5.1962    0.0000 C   0  0  0  0  0  0  0  0  0  0  0  0
   -7.5000    5.1962    0.0000 O   0  0  0  0  0  0  0  0  0  0  0  0
   -5.2500    6.4952    0.0000 N   0  0  0  0  0  0  0  0  0  0  0  0
   -5.8601    7.8655    0.0000 C   0  0  0  0  0  0  0  0  0  0  0  0
   -4.7454    8.8692    0.0000 C   0  0  0  0  0  0  0  0  0  0  0  0
   -3.4463    8.1192    0.0000 C   0  0  0  0  0  0  0  0  0  0  0  0
   -2.0760    8.7293    0.0000 N   0  0  0  0  0  0  0  0  0  0  0  0
   -0.8625    7.8476    0.0000 C   0  0  0  0  0  0  0  0  0  0  0  0
    0.6293    7.6908    0.0000 C   0  0  0  0  0  0  0  0  0  0  0  0
   -0.2524    6.4773    0.0000 C   0  0  0  0  0  0  0  0  0  0  0  0
   -3.7582    6.6520    0.0000 C   0  0  0  0  0  0  0  0  0  0  0  0
   -6.0000    2.5981    0.0000 C   0  0  0  0  0  0  0  0  0  0  0  0
   -5.2500    1.2990    0.0000 C   0  0  0  0  0  0  0  0  0  0  0  0
   -0.7500   -1.2990    0.0000 N   0  0  0  0  0  0  0  0  0  0  0  0
    0.8899   -3.9684    0.0000 N   0  0  0  0  0  0  0  0  0  0  0  0
   -0.5773   -4.2803    0.0000 C   0  0  0  0  0  0  0  0  0  0  0  0
   -1.0409   -5.7068    0.0000 C   0  0  0  0  0  0  0  0  0  0  0  0
   -1.5810   -3.1655    0.0000 C   0  0  0  0  0  0  0  0  0  0  0  0
  1  2  1  0
  2  3  2  0
  3  4  1  0
  4  5  2  0
  5  6  1  0
  6  7  2  0
  7  8  1  0
  8  9  2  0
  9 10  1  0
 10 11  1  0
 11 12  1  0
 12 13  2  0
 13 14  1  0
 14 15  2  0
 15 16  1  0
 16 17  2  0
 16 18  1  0
 18 19  1  0
 19 20  1  0
 20 21  1  0
 21 22  1  6
 22 23  1  0
 23 24  1  0
 24 25  1  0
 21 26  1  0
 15 27  1  0
 27 28  2  0
 10 29  2  0
  5 30  1  0
 30 31  1  0
 31 32  1  0
 31 33  1  0
 30  2  1  0
 29  6  1  0
 28 12  1  0
 26 18  1  0
 25 23  1  0
M  END
>  <Compound_ID>  (60) 
CHEMBL460086

>  <Active>  (60) 
1

>  <Smiles>  (60) 
Cc1ncc(-c2ccnc(Nc3ccc(C(=O)N4CC[C@H](NC5CC5)C4)cc3)n2)n1C(C)C

>  <canonical_smi>  (60) 
Cc1ncc(-c2ccnc(Nc3ccc(C(=O)N4CC[C@H](NC5CC5)C4)cc3)n2)n1C(C)C

>  <Set>  (60) 
G2 active

>  <Set_type>  (60) 
Train

>  <MW>  (60) 
445.57

>  <HBD>  (60) 
2

>  <HBA>  (60) 
6

>  <NRB>  (60) 
7

>  <NR>  (60) 
5

>  <NAR>  (60) 
3

>  <PSA>  (60) 
87.97

>  <Standard Type>  (60) 
nan

>  <Standard Relation>  (60) 
nan

>  <Standard Units>  (60) 
nan

>  <Standard Value>  (60) 
nan

>  <Assay ChEMBL ID>  (60) 
nan

>  <Assay Description>  (60) 
nan

>  <BAO Label>  (60) 
nan

$$$$

     RDKit          2D

 28 30  0  0  0  0  0  0  0  0999 V2000
    3.0000    0.0000    0.0000 N   0  0  0  0  0  0  0  0  0  0  0  0
    1.5000    0.0000    0.0000 C   0  0  0  0  0  0  0  0  0  0  0  0
    0.7500   -1.2990    0.0000 N   0  0  0  0  0  0  0  0  0  0  0  0
   -0.7500   -1.2990    0.0000 C   0  0  0  0  0  0  0  0  0  0  0  0
   -1.5000   -2.5981    0.0000 N   0  0  0  0  0  0  0  0  0  0  0  0
   -3.0000   -2.5981    0.0000 C   0  0  0  0  0  0  0  0  0  0  0  0
   -3.7500   -1.2990    0.0000 C   0  0  0  0  0  0  0  0  0  0  0  0
   -5.2500   -1.2990    0.0000 C   0  0  0  0  0  0  0  0  0  0  0  0
   -6.0000   -2.5981    0.0000 C   0  0  0  0  0  0  0  0  0  0  0  0
   -7.5000   -2.5981    0.0000 S   0  0  0  0  0  0  0  0  0  0  0  0
   -9.0000   -2.5981    0.0000 N   0  0  0  0  0  0  0  0  0  0  0  0
   -7.5000   -1.0981    0.0000 O   0  0  0  0  0  0  0  0  0  0  0  0
   -7.5000   -4.0981    0.0000 O   0  0  0  0  0  0  0  0  0  0  0  0
   -5.2500   -3.8971    0.0000 C   0  0  0  0  0  0  0  0  0  0  0  0
   -3.7500   -3.8971    0.0000 C   0  0  0  0  0  0  0  0  0  0  0  0
   -1.5000    0.0000    0.0000 N   0  0  0  0  0  0  0  0  0  0  0  0
   -0.7500    1.2990    0.0000 C   0  0  0  0  0  0  0  0  0  0  0  0
   -1.5000    2.5981    0.0000 O   0  0  0  0  0  0  0  0  0  0  0  0
   -3.0000    2.5981    0.0000 C   0  0  0  0  0  0  0  0  0  0  0  0
   -3.7500    3.8971    0.0000 C   0  0  0  0  0  0  0  0  0  0  0  0
   -3.0000    5.1962    0.0000 C   0  0  0  0  0  0  0  0  0  0  0  0
   -3.7500    6.4952    0.0000 C   0  0  0  0  0  0  0  0  0  0  0  0
   -5.2500    6.4952    0.0000 C   0  0  0  0  0  0  0  0  0  0  0  0
   -6.0000    5.1962    0.0000 C   0  0  0  0  0  0  0  0  0  0  0  0
   -5.2500    3.8971    0.0000 C   0  0  0  0  0  0  0  0  0  0  0  0
    0.7500    1.2990    0.0000 C   0  0  0  0  0  0  0  0  0  0  0  0
    1.5000    2.5981    0.0000 N   0  0  0  0  0  0  0  0  0  0  0  0
    3.0000    2.5981    0.0000 O   0  0  0  0  0  0  0  0  0  0  0  0
  1  2  1  0
  2  3  2  0
  3  4  1  0
  4  5  1  0
  5  6  1  0
  6  7  2  0
  7  8  1  0
  8  9  2  0
  9 10  1  0
 10 11  1  0
 10 12  2  0
 10 13  2  0
  9 14  1  0
 14 15  2  0
  4 16  2  0
 16 17  1  0
 17 18  1  0
 18 19  1  0
 19 20  1  0
 20 21  1  0
 21 22  1  0
 22 23  1  0
 23 24  1  0
 24 25  1  0
 17 26  2  0
 26 27  1  0
 27 28  2  0
 26  2  1  0
 15  6  1  0
 25 20  1  0
M  END
>  <Compound_ID>  (61) 
CHEMBL318999

>  <Active>  (61) 
1

>  <Smiles>  (61) 
Nc1nc(Nc2ccc(S(N)(=O)=O)cc2)nc(OCC2CCCCC2)c1N=O

>  <canonical_smi>  (61) 
Nc1nc(Nc2ccc(S(N)(=O)=O)cc2)nc(OCC2CCCCC2)c1N=O

>  <Set>  (61) 
G2 active

>  <Set_type>  (61) 
Train

>  <MW>  (61) 
406.47

>  <HBD>  (61) 
3

>  <HBA>  (61) 
8

>  <NRB>  (61) 
7

>  <NR>  (61) 
3

>  <NAR>  (61) 
2

>  <PSA>  (61) 
162.65

>  <Standard Type>  (61) 
nan

>  <Standard Relation>  (61) 
nan

>  <Standard Units>  (61) 
nan

>  <Standard Value>  (61) 
nan

>  <Assay ChEMBL ID>  (61) 
nan

>  <Assay Description>  (61) 
nan

>  <BAO Label>  (61) 
nan

$$$$

     RDKit          2D

 26 28  0  0  0  0  0  0  0  0999 V2000
    5.2500   -1.2990    0.0000 C   0  0  0  0  0  0  0  0  0  0  0  0
    3.7500   -1.2990    0.0000 C   0  0  0  0  0  0  0  0  0  0  0  0
    3.0000   -2.5981    0.0000 C   0  0  0  0  0  0  0  0  0  0  0  0
    3.0000    0.0000    0.0000 C   0  0  0  0  0  0  0  0  0  0  0  0
    1.5000    0.0000    0.0000 C   0  0  0  0  0  0  0  0  0  0  0  0
    0.7500   -1.2990    0.0000 C   0  0  0  0  0  0  0  0  0  0  0  0
   -0.7500   -1.2990    0.0000 C   0  0  0  0  0  0  0  0  0  0  0  0
   -1.5000    0.0000    0.0000 C   0  0  0  0  0  0  0  0  0  0  0  0
   -0.7500    1.2990    0.0000 C   0  0  0  0  0  0  0  0  0  0  0  0
   -1.2135    2.7256    0.0000 N   0  0  0  0  0  0  0  0  0  0  0  0
   -0.0000    3.6073    0.0000 C   0  0  0  0  0  0  0  0  0  0  0  0
   -0.0000    5.1073    0.0000 O   0  0  0  0  0  0  0  0  0  0  0  0
    1.2135    2.7256    0.0000 C   0  0  0  0  0  0  0  0  0  0  0  0
    2.6401    3.1891    0.0000 N   0  0  0  0  0  0  0  0  0  0  0  0
    2.9520    4.6564    0.0000 N   0  0  0  0  0  0  0  0  0  0  0  0
    4.3786    5.1199    0.0000 C   0  0  0  0  0  0  0  0  0  0  0  0
    5.4933    4.1162    0.0000 C   0  0  0  0  0  0  0  0  0  0  0  0
    6.9199    4.5797    0.0000 C   0  0  0  0  0  0  0  0  0  0  0  0
    7.2317    6.0469    0.0000 C   0  0  0  0  0  0  0  0  0  0  0  0
    8.6583    6.5105    0.0000 S   0  0  0  0  0  0  0  0  0  0  0  0
   10.0849    6.9740    0.0000 N   0  0  0  0  0  0  0  0  0  0  0  0
    9.1218    5.0839    0.0000 O   0  0  0  0  0  0  0  0  0  0  0  0
    8.1948    7.9371    0.0000 O   0  0  0  0  0  0  0  0  0  0  0  0
    6.1170    7.0506    0.0000 C   0  0  0  0  0  0  0  0  0  0  0  0
    4.6904    6.5871    0.0000 C   0  0  0  0  0  0  0  0  0  0  0  0
    0.7500    1.2990    0.0000 C   0  0  0  0  0  0  0  0  0  0  0  0
  1  2  1  0
  2  3  1  0
  2  4  1  0
  4  5  1  0
  5  6  2  0
  6  7  1  0
  7  8  2  0
  8  9  1  0
  9 10  1  0
 10 11  1  0
 11 12  1  0
 11 13  2  0
 13 14  1  0
 14 15  2  3
 15 16  1  0
 16 17  2  0
 17 18  1  0
 18 19  2  0
 19 20  1  0
 20 21  1  0
 20 22  2  0
 20 23  2  0
 19 24  1  0
 24 25  2  0
 13 26  1  0
 26  5  1  0
 26  9  2  0
 25 16  1  0
M  END
>  <Compound_ID>  (62) 
CHEMBL87472

>  <Active>  (62) 
1

>  <Smiles>  (62) 
CC(C)Cc1cccc2[nH]c(O)c(N=Nc3ccc(S(N)(=O)=O)cc3)c12

>  <canonical_smi>  (62) 
CC(C)Cc1cccc2[nH]c(O)c(N=Nc3ccc(S(N)(=O)=O)cc3)c12

>  <Set>  (62) 
G2 active

>  <Set_type>  (62) 
Train

>  <MW>  (62) 
372.45

>  <HBD>  (62) 
3

>  <HBA>  (62) 
3

>  <NRB>  (62) 
5

>  <NR>  (62) 
3

>  <NAR>  (62) 
3

>  <PSA>  (62) 
120.9

>  <Standard Type>  (62) 
nan

>  <Standard Relation>  (62) 
nan

>  <Standard Units>  (62) 
nan

>  <Standard Value>  (62) 
nan

>  <Assay ChEMBL ID>  (62) 
nan

>  <Assay Description>  (62) 
nan

>  <BAO Label>  (62) 
nan

$$$$

     RDKit          2D

 26 28  0  0  0  0  0  0  0  0999 V2000
    5.2500   -1.2990    0.0000 C   0  0  0  0  0  0  0  0  0  0  0  0
    3.7500   -1.2990    0.0000 C   0  0  0  0  0  0  0  0  0  0  0  0
    3.0000   -2.5981    0.0000 C   0  0  0  0  0  0  0  0  0  0  0  0
    3.0000    0.0000    0.0000 C   0  0  0  0  0  0  0  0  0  0  0  0
    1.5000    0.0000    0.0000 C   0  0  0  0  0  0  0  0  0  0  0  0
    0.7500   -1.2990    0.0000 C   0  0  0  0  0  0  0  0  0  0  0  0
   -0.7500   -1.2990    0.0000 C   0  0  0  0  0  0  0  0  0  0  0  0
   -1.5000    0.0000    0.0000 C   0  0  0  0  0  0  0  0  0  0  0  0
   -0.7500    1.2990    0.0000 C   0  0  0  0  0  0  0  0  0  0  0  0
    0.7500    1.2990    0.0000 C   0  0  0  0  0  0  0  0  0  0  0  0
    1.2135    2.7256    0.0000 C   0  0  0  0  0  0  0  0  0  0  0  0
    2.6401    3.1891    0.0000 N   0  0  0  0  0  0  0  0  0  0  0  0
    2.9520    4.6564    0.0000 N   0  0  0  0  0  0  0  0  0  0  0  0
    4.3786    5.1199    0.0000 C   0  0  0  0  0  0  0  0  0  0  0  0
    5.4933    4.1162    0.0000 C   0  0  0  0  0  0  0  0  0  0  0  0
    6.9199    4.5797    0.0000 C   0  0  0  0  0  0  0  0  0  0  0  0
    7.2317    6.0469    0.0000 C   0  0  0  0  0  0  0  0  0  0  0  0
    8.6583    6.5105    0.0000 S   0  0  0  0  0  0  0  0  0  0  0  0
   10.0849    6.9740    0.0000 N   0  0  0  0  0  0  0  0  0  0  0  0
    9.1218    5.0839    0.0000 O   0  0  0  0  0  0  0  0  0  0  0  0
    8.1948    7.9371    0.0000 O   0  0  0  0  0  0  0  0  0  0  0  0
    6.1170    7.0506    0.0000 C   0  0  0  0  0  0  0  0  0  0  0  0
    4.6904    6.5871    0.0000 C   0  0  0  0  0  0  0  0  0  0  0  0
   -0.0000    3.6073    0.0000 C   0  0  0  0  0  0  0  0  0  0  0  0
   -0.0000    5.1073    0.0000 O   0  0  0  0  0  0  0  0  0  0  0  0
   -1.2135    2.7256    0.0000 N   0  0  0  0  0  0  0  0  0  0  0  0
  1  2  1  0
  2  3  1  0
  2  4  1  0
  4  5  1  0
  5  6  2  0
  6  7  1  0
  7  8  2  0
  8  9  1  0
  9 10  2  0
 10 11  1  0
 11 12  2  0
 12 13  1  0
 13 14  1  0
 14 15  2  0
 15 16  1  0
 16 17  2  0
 17 18  1  0
 18 19  1  0
 18 20  2  0
 18 21  2  0
 17 22  1  0
 22 23  2  0
 11 24  1  0
 24 25  2  0
 24 26  1  0
 10  5  1  0
 23 14  1  0
 26  9  1  0
M  END
>  <Compound_ID>  (63) 
CHEMBL411224

>  <Active>  (63) 
1

>  <Smiles>  (63) 
CC(C)Cc1cccc2c1/C(=N/Nc1ccc(S(N)(=O)=O)cc1)C(=O)N2

>  <canonical_smi>  (63) 
CC(C)Cc1cccc2c1/C(=N/Nc1ccc(S(N)(=O)=O)cc1)C(=O)N2

>  <Set>  (63) 
G2 active

>  <Set_type>  (63) 
Train

>  <MW>  (63) 
372.45

>  <HBD>  (63) 
3

>  <HBA>  (63) 
4

>  <NRB>  (63) 
5

>  <NR>  (63) 
3

>  <NAR>  (63) 
2

>  <PSA>  (63) 
113.65

>  <Standard Type>  (63) 
nan

>  <Standard Relation>  (63) 
nan

>  <Standard Units>  (63) 
nan

>  <Standard Value>  (63) 
nan

>  <Assay ChEMBL ID>  (63) 
nan

>  <Assay Description>  (63) 
nan

>  <BAO Label>  (63) 
nan

$$$$

     RDKit          2D

 26 29  0  0  0  0  0  0  0  0999 V2000
  -11.0821    2.6487    0.0000 N   0  0  0  0  0  0  0  0  0  0  0  0
   -9.9674    1.6450    0.0000 S   0  0  0  0  0  0  0  0  0  0  0  0
   -8.9637    2.7597    0.0000 O   0  0  0  0  0  0  0  0  0  0  0  0
  -10.9711    0.5303    0.0000 O   0  0  0  0  0  0  0  0  0  0  0  0
   -8.8527    0.6413    0.0000 C   0  0  0  0  0  0  0  0  0  0  0  0
   -7.4261    1.1048    0.0000 C   0  0  0  0  0  0  0  0  0  0  0  0
   -6.3114    0.1011    0.0000 C   0  0  0  0  0  0  0  0  0  0  0  0
   -6.6232   -1.3661    0.0000 C   0  0  0  0  0  0  0  0  0  0  0  0
   -5.5085   -2.3698    0.0000 N   0  0  0  0  0  0  0  0  0  0  0  0
   -4.0819   -1.9062    0.0000 C   0  0  0  0  0  0  0  0  0  0  0  0
   -2.9672   -2.9099    0.0000 C   0  0  0  0  0  0  0  0  0  0  0  0
   -3.1240   -4.4017    0.0000 C   0  0  0  0  0  0  0  0  0  0  0  0
   -4.4231   -5.1517    0.0000 O   0  0  0  0  0  0  0  0  0  0  0  0
   -1.7537   -5.0118    0.0000 N   0  0  0  0  0  0  0  0  0  0  0  0
   -0.7500   -3.8971    0.0000 C   0  0  0  0  0  0  0  0  0  0  0  0
    0.7500   -3.8971    0.0000 C   0  0  0  0  0  0  0  0  0  0  0  0
    1.5000   -2.5981    0.0000 C   0  0  0  0  0  0  0  0  0  0  0  0
    0.7500   -1.2990    0.0000 C   0  0  0  0  0  0  0  0  0  0  0  0
    1.5000    0.0000    0.0000 N   0  0  0  0  0  0  0  0  0  0  0  0
    0.7500    1.2990    0.0000 C   0  0  0  0  0  0  0  0  0  0  0  0
   -0.7500    1.2990    0.0000 C   0  0  0  0  0  0  0  0  0  0  0  0
   -1.5000    0.0000    0.0000 C   0  0  0  0  0  0  0  0  0  0  0  0
   -0.7500   -1.2990    0.0000 C   0  0  0  0  0  0  0  0  0  0  0  0
   -1.5000   -2.5981    0.0000 C   0  0  0  0  0  0  0  0  0  0  0  0
   -8.0498   -1.8296    0.0000 C   0  0  0  0  0  0  0  0  0  0  0  0
   -9.1645   -0.8259    0.0000 C   0  0  0  0  0  0  0  0  0  0  0  0
  1  2  1  0
  2  3  2  0
  2  4  2  0
  2  5  1  0
  5  6  2  0
  6  7  1  0
  7  8  2  0
  8  9  1  0
  9 10  2  0
 10 11  1  0
 11 12  2  0
 12 13  1  0
 12 14  1  0
 14 15  1  0
 15 16  2  0
 16 17  1  0
 17 18  2  0
 18 19  1  0
 19 20  2  0
 20 21  1  0
 21 22  2  0
 22 23  1  0
 23 24  2  0
  8 25  1  0
 25 26  2  0
 26  5  1  0
 24 11  1  0
 24 15  1  0
 23 18  1  0
M  END
>  <Compound_ID>  (64) 
CHEMBL344579

>  <Active>  (64) 
1

>  <Smiles>  (64) 
NS(=O)(=O)c1ccc(/N=C/c2c(O)[nH]c3ccc4ncccc4c23)cc1

>  <canonical_smi>  (64) 
NS(=O)(=O)c1ccc(/N=C/c2c(O)[nH]c3ccc4ncccc4c23)cc1

>  <Set>  (64) 
G2 active

>  <Set_type>  (64) 
Train

>  <MW>  (64) 
366.4

>  <HBD>  (64) 
3

>  <HBA>  (64) 
4

>  <NRB>  (64) 
3

>  <NR>  (64) 
4

>  <NAR>  (64) 
4

>  <PSA>  (64) 
121.43

>  <Standard Type>  (64) 
nan

>  <Standard Relation>  (64) 
nan

>  <Standard Units>  (64) 
nan

>  <Standard Value>  (64) 
nan

>  <Assay ChEMBL ID>  (64) 
nan

>  <Assay Description>  (64) 
nan

>  <BAO Label>  (64) 
nan

$$$$

     RDKit          2D

 26 29  0  0  0  0  0  0  0  0999 V2000
  -11.0821    2.6487    0.0000 N   0  0  0  0  0  0  0  0  0  0  0  0
   -9.9674    1.6450    0.0000 S   0  0  0  0  0  0  0  0  0  0  0  0
   -8.9637    2.7597    0.0000 O   0  0  0  0  0  0  0  0  0  0  0  0
  -10.9711    0.5303    0.0000 O   0  0  0  0  0  0  0  0  0  0  0  0
   -8.8527    0.6413    0.0000 C   0  0  0  0  0  0  0  0  0  0  0  0
   -7.4261    1.1048    0.0000 C   0  0  0  0  0  0  0  0  0  0  0  0
   -6.3114    0.1011    0.0000 C   0  0  0  0  0  0  0  0  0  0  0  0
   -6.6232   -1.3661    0.0000 C   0  0  0  0  0  0  0  0  0  0  0  0
   -5.5085   -2.3698    0.0000 N   0  0  0  0  0  0  0  0  0  0  0  0
   -4.0819   -1.9062    0.0000 C   0  0  0  0  0  0  0  0  0  0  0  0
   -2.9672   -2.9099    0.0000 C   0  0  0  0  0  0  0  0  0  0  0  0
   -3.1240   -4.4017    0.0000 C   0  0  0  0  0  0  0  0  0  0  0  0
   -4.4231   -5.1517    0.0000 O   0  0  0  0  0  0  0  0  0  0  0  0
   -1.7537   -5.0118    0.0000 N   0  0  0  0  0  0  0  0  0  0  0  0
   -0.7500   -3.8971    0.0000 C   0  0  0  0  0  0  0  0  0  0  0  0
    0.7500   -3.8971    0.0000 C   0  0  0  0  0  0  0  0  0  0  0  0
    1.5000   -2.5981    0.0000 C   0  0  0  0  0  0  0  0  0  0  0  0
    0.7500   -1.2990    0.0000 C   0  0  0  0  0  0  0  0  0  0  0  0
    1.5000    0.0000    0.0000 N   0  0  0  0  0  0  0  0  0  0  0  0
    0.7500    1.2990    0.0000 C   0  0  0  0  0  0  0  0  0  0  0  0
   -0.7500    1.2990    0.0000 C   0  0  0  0  0  0  0  0  0  0  0  0
   -1.5000    0.0000    0.0000 C   0  0  0  0  0  0  0  0  0  0  0  0
   -0.7500   -1.2990    0.0000 C   0  0  0  0  0  0  0  0  0  0  0  0
   -1.5000   -2.5981    0.0000 C   0  0  0  0  0  0  0  0  0  0  0  0
   -8.0498   -1.8296    0.0000 C   0  0  0  0  0  0  0  0  0  0  0  0
   -9.1645   -0.8259    0.0000 C   0  0  0  0  0  0  0  0  0  0  0  0
  1  2  1  0
  2  3  2  0
  2  4  2  0
  2  5  1  0
  5  6  2  0
  6  7  1  0
  7  8  2  0
  8  9  1  0
  9 10  1  0
 10 11  2  0
 11 12  1  0
 12 13  2  0
 12 14  1  0
 14 15  1  0
 15 16  2  0
 16 17  1  0
 17 18  2  0
 18 19  1  0
 19 20  2  0
 20 21  1  0
 21 22  2  0
 22 23  1  0
 23 24  2  0
  8 25  1  0
 25 26  2  0
 26  5  1  0
 24 11  1  0
 24 15  1  0
 23 18  1  0
M  END
>  <Compound_ID>  (65) 
CHEMBL445945

>  <Active>  (65) 
1

>  <Smiles>  (65) 
NS(=O)(=O)c1ccc(N/C=C2\C(=O)Nc3ccc4ncccc4c32)cc1

>  <canonical_smi>  (65) 
NS(=O)(=O)c1ccc(N/C=C2\C(=O)Nc3ccc4ncccc4c32)cc1

>  <Set>  (65) 
G2 active

>  <Set_type>  (65) 
Train

>  <MW>  (65) 
366.4

>  <HBD>  (65) 
3

>  <HBA>  (65) 
5

>  <NRB>  (65) 
3

>  <NR>  (65) 
4

>  <NAR>  (65) 
3

>  <PSA>  (65) 
114.18

>  <Standard Type>  (65) 
nan

>  <Standard Relation>  (65) 
nan

>  <Standard Units>  (65) 
nan

>  <Standard Value>  (65) 
nan

>  <Assay ChEMBL ID>  (65) 
nan

>  <Assay Description>  (65) 
nan

>  <BAO Label>  (65) 
nan

$$$$

     RDKit          2D

 26 29  0  0  0  0  0  0  0  0999 V2000
  -11.0821    2.6487    0.0000 N   0  0  0  0  0  0  0  0  0  0  0  0
   -9.9674    1.6450    0.0000 S   0  0  0  0  0  0  0  0  0  0  0  0
   -8.9637    2.7597    0.0000 O   0  0  0  0  0  0  0  0  0  0  0  0
  -10.9711    0.5303    0.0000 O   0  0  0  0  0  0  0  0  0  0  0  0
   -8.8527    0.6413    0.0000 C   0  0  0  0  0  0  0  0  0  0  0  0
   -7.4261    1.1048    0.0000 C   0  0  0  0  0  0  0  0  0  0  0  0
   -6.3114    0.1011    0.0000 C   0  0  0  0  0  0  0  0  0  0  0  0
   -6.6232   -1.3661    0.0000 C   0  0  0  0  0  0  0  0  0  0  0  0
   -5.5085   -2.3698    0.0000 N   0  0  0  0  0  0  0  0  0  0  0  0
   -4.0819   -1.9062    0.0000 N   0  0  0  0  0  0  0  0  0  0  0  0
   -2.9672   -2.9099    0.0000 C   0  0  0  0  0  0  0  0  0  0  0  0
   -3.1240   -4.4017    0.0000 C   0  0  0  0  0  0  0  0  0  0  0  0
   -4.4231   -5.1517    0.0000 O   0  0  0  0  0  0  0  0  0  0  0  0
   -1.7537   -5.0118    0.0000 N   0  0  0  0  0  0  0  0  0  0  0  0
   -0.7500   -3.8971    0.0000 C   0  0  0  0  0  0  0  0  0  0  0  0
    0.7500   -3.8971    0.0000 C   0  0  0  0  0  0  0  0  0  0  0  0
    1.5000   -2.5981    0.0000 C   0  0  0  0  0  0  0  0  0  0  0  0
    0.7500   -1.2990    0.0000 C   0  0  0  0  0  0  0  0  0  0  0  0
    1.5000    0.0000    0.0000 N   0  0  0  0  0  0  0  0  0  0  0  0
    0.7500    1.2990    0.0000 C   0  0  0  0  0  0  0  0  0  0  0  0
   -0.7500    1.2990    0.0000 C   0  0  0  0  0  0  0  0  0  0  0  0
   -1.5000    0.0000    0.0000 C   0  0  0  0  0  0  0  0  0  0  0  0
   -0.7500   -1.2990    0.0000 C   0  0  0  0  0  0  0  0  0  0  0  0
   -1.5000   -2.5981    0.0000 C   0  0  0  0  0  0  0  0  0  0  0  0
   -8.0498   -1.8296    0.0000 C   0  0  0  0  0  0  0  0  0  0  0  0
   -9.1645   -0.8259    0.0000 C   0  0  0  0  0  0  0  0  0  0  0  0
  1  2  1  0
  2  3  2  0
  2  4  2  0
  2  5  1  0
  5  6  2  0
  6  7  1  0
  7  8  2  0
  8  9  1  0
  9 10  2  3
 10 11  1  0
 11 12  2  0
 12 13  1  0
 12 14  1  0
 14 15  1  0
 15 16  2  0
 16 17  1  0
 17 18  2  0
 18 19  1  0
 19 20  2  0
 20 21  1  0
 21 22  2  0
 22 23  1  0
 23 24  2  0
  8 25  1  0
 25 26  2  0
 26  5  1  0
 24 11  1  0
 24 15  1  0
 23 18  1  0
M  END
>  <Compound_ID>  (66) 
CHEMBL343151

>  <Active>  (66) 
1

>  <Smiles>  (66) 
NS(=O)(=O)c1ccc(N=Nc2c(O)[nH]c3ccc4ncccc4c23)cc1

>  <canonical_smi>  (66) 
NS(=O)(=O)c1ccc(N=Nc2c(O)[nH]c3ccc4ncccc4c23)cc1

>  <Set>  (66) 
G2 active

>  <Set_type>  (66) 
Train

>  <MW>  (66) 
367.39

>  <HBD>  (66) 
3

>  <HBA>  (66) 
4

>  <NRB>  (66) 
3

>  <NR>  (66) 
4

>  <NAR>  (66) 
4

>  <PSA>  (66) 
133.79

>  <Standard Type>  (66) 
nan

>  <Standard Relation>  (66) 
nan

>  <Standard Units>  (66) 
nan

>  <Standard Value>  (66) 
nan

>  <Assay ChEMBL ID>  (66) 
nan

>  <Assay Description>  (66) 
nan

>  <BAO Label>  (66) 
nan

$$$$

     RDKit          2D

 26 29  0  0  0  0  0  0  0  0999 V2000
  -11.0821    2.6487    0.0000 N   0  0  0  0  0  0  0  0  0  0  0  0
   -9.9674    1.6450    0.0000 S   0  0  0  0  0  0  0  0  0  0  0  0
   -8.9637    2.7597    0.0000 O   0  0  0  0  0  0  0  0  0  0  0  0
  -10.9711    0.5303    0.0000 O   0  0  0  0  0  0  0  0  0  0  0  0
   -8.8527    0.6413    0.0000 C   0  0  0  0  0  0  0  0  0  0  0  0
   -7.4261    1.1048    0.0000 C   0  0  0  0  0  0  0  0  0  0  0  0
   -6.3114    0.1011    0.0000 C   0  0  0  0  0  0  0  0  0  0  0  0
   -6.6232   -1.3661    0.0000 C   0  0  0  0  0  0  0  0  0  0  0  0
   -5.5085   -2.3698    0.0000 N   0  0  0  0  0  0  0  0  0  0  0  0
   -4.0819   -1.9062    0.0000 N   0  0  0  0  0  0  0  0  0  0  0  0
   -2.9672   -2.9099    0.0000 C   0  0  0  0  0  0  0  0  0  0  0  0
   -3.1240   -4.4017    0.0000 C   0  0  0  0  0  0  0  0  0  0  0  0
   -4.4231   -5.1517    0.0000 O   0  0  0  0  0  0  0  0  0  0  0  0
   -1.7537   -5.0118    0.0000 N   0  0  0  0  0  0  0  0  0  0  0  0
   -0.7500   -3.8971    0.0000 C   0  0  0  0  0  0  0  0  0  0  0  0
    0.7500   -3.8971    0.0000 C   0  0  0  0  0  0  0  0  0  0  0  0
    1.5000   -2.5981    0.0000 C   0  0  0  0  0  0  0  0  0  0  0  0
    0.7500   -1.2990    0.0000 C   0  0  0  0  0  0  0  0  0  0  0  0
    1.5000    0.0000    0.0000 N   0  0  0  0  0  0  0  0  0  0  0  0
    0.7500    1.2990    0.0000 C   0  0  0  0  0  0  0  0  0  0  0  0
   -0.7500    1.2990    0.0000 C   0  0  0  0  0  0  0  0  0  0  0  0
   -1.5000    0.0000    0.0000 C   0  0  0  0  0  0  0  0  0  0  0  0
   -0.7500   -1.2990    0.0000 C   0  0  0  0  0  0  0  0  0  0  0  0
   -1.5000   -2.5981    0.0000 C   0  0  0  0  0  0  0  0  0  0  0  0
   -8.0498   -1.8296    0.0000 C   0  0  0  0  0  0  0  0  0  0  0  0
   -9.1645   -0.8259    0.0000 C   0  0  0  0  0  0  0  0  0  0  0  0
  1  2  1  0
  2  3  2  0
  2  4  2  0
  2  5  1  0
  5  6  2  0
  6  7  1  0
  7  8  2  0
  8  9  1  0
  9 10  1  0
 10 11  2  0
 11 12  1  0
 12 13  2  0
 12 14  1  0
 14 15  1  0
 15 16  2  0
 16 17  1  0
 17 18  2  0
 18 19  1  0
 19 20  2  0
 20 21  1  0
 21 22  2  0
 22 23  1  0
 23 24  2  0
  8 25  1  0
 25 26  2  0
 26  5  1  0
 24 11  1  0
 24 15  1  0
 23 18  1  0
M  END
>  <Compound_ID>  (67) 
CHEMBL409892

>  <Active>  (67) 
1

>  <Smiles>  (67) 
NS(=O)(=O)c1ccc(N/N=C2\C(=O)Nc3ccc4ncccc4c32)cc1

>  <canonical_smi>  (67) 
NS(=O)(=O)c1ccc(N/N=C2\C(=O)Nc3ccc4ncccc4c32)cc1

>  <Set>  (67) 
G2 active

>  <Set_type>  (67) 
Train

>  <MW>  (67) 
367.39

>  <HBD>  (67) 
3

>  <HBA>  (67) 
5

>  <NRB>  (67) 
3

>  <NR>  (67) 
4

>  <NAR>  (67) 
3

>  <PSA>  (67) 
126.54

>  <Standard Type>  (67) 
nan

>  <Standard Relation>  (67) 
nan

>  <Standard Units>  (67) 
nan

>  <Standard Value>  (67) 
nan

>  <Assay ChEMBL ID>  (67) 
nan

>  <Assay Description>  (67) 
nan

>  <BAO Label>  (67) 
nan

$$$$

     RDKit          2D

 36 39  0  0  0  0  0  0  0  0999 V2000
    3.7500   -9.0933    0.0000 C   0  0  0  0  0  0  0  0  0  0  0  0
    3.0000   -7.7942    0.0000 O   0  0  0  0  0  0  0  0  0  0  0  0
    1.5000   -7.7942    0.0000 C   0  0  0  0  0  0  0  0  0  0  0  0
    0.7500   -9.0933    0.0000 C   0  0  0  0  0  0  0  0  0  0  0  0
   -0.7500   -9.0933    0.0000 C   0  0  0  0  0  0  0  0  0  0  0  0
   -1.5000   -7.7942    0.0000 C   0  0  0  0  0  0  0  0  0  0  0  0
   -0.7500   -6.4952    0.0000 C   0  0  0  0  0  0  0  0  0  0  0  0
   -1.5000   -5.1962    0.0000 O   0  0  0  0  0  0  0  0  0  0  0  0
   -3.0000   -5.1962    0.0000 C   0  0  0  0  0  0  0  0  0  0  0  0
    0.7500   -6.4952    0.0000 C   0  0  0  0  0  0  0  0  0  0  0  0
    1.5000   -5.1962    0.0000 C   0  0  0  0  0  0  0  0  0  0  0  0
    0.7500   -3.8971    0.0000 N   0  0  0  0  0  0  0  0  0  0  0  0
    1.5000   -2.5981    0.0000 C   0  0  0  0  0  0  0  0  0  0  0  0
    3.0000   -2.5981    0.0000 O   0  0  0  0  0  0  0  0  0  0  0  0
    0.7500   -1.2990    0.0000 C   0  0  0  0  0  0  0  0  0  0  0  0
    1.5000    0.0000    0.0000 C   0  0  0  0  0  0  0  0  0  0  0  0
    0.7500    1.2990    0.0000 C   0  0  0  0  0  0  0  0  0  0  0  0
   -0.7500    1.2990    0.0000 C   0  0  0  0  0  0  0  0  0  0  0  0
   -1.7537    2.4138    0.0000 N   0  0  0  0  0  0  0  0  0  0  0  0
   -3.1240    1.8037    0.0000 C   0  0  0  0  0  0  0  0  0  0  0  0
   -4.4231    2.5537    0.0000 O   0  0  0  0  0  0  0  0  0  0  0  0
   -2.9672    0.3119    0.0000 C   0  0  0  0  0  0  0  0  0  0  0  0
   -4.0819   -0.6918    0.0000 N   0  0  0  0  0  0  0  0  0  0  0  0
   -5.5085   -0.2283    0.0000 N   0  0  0  0  0  0  0  0  0  0  0  0
   -6.6232   -1.2320    0.0000 C   0  0  0  0  0  0  0  0  0  0  0  0
   -8.0498   -0.7685    0.0000 C   0  0  0  0  0  0  0  0  0  0  0  0
   -9.1645   -1.7722    0.0000 C   0  0  0  0  0  0  0  0  0  0  0  0
   -8.8527   -3.2394    0.0000 C   0  0  0  0  0  0  0  0  0  0  0  0
   -9.9674   -4.2431    0.0000 S   0  0  0  0  0  0  0  0  0  0  0  0
  -11.0821   -5.2468    0.0000 N   0  0  0  0  0  0  0  0  0  0  0  0
  -10.9711   -3.1284    0.0000 O   0  0  0  0  0  0  0  0  0  0  0  0
   -8.9637   -5.3578    0.0000 O   0  0  0  0  0  0  0  0  0  0  0  0
   -7.4261   -3.7029    0.0000 C   0  0  0  0  0  0  0  0  0  0  0  0
   -6.3114   -2.6992    0.0000 C   0  0  0  0  0  0  0  0  0  0  0  0
   -1.5000    0.0000    0.0000 C   0  0  0  0  0  0  0  0  0  0  0  0
   -0.7500   -1.2990    0.0000 C   0  0  0  0  0  0  0  0  0  0  0  0
  1  2  1  0
  2  3  1  0
  3  4  2  0
  4  5  1  0
  5  6  2  0
  6  7  1  0
  7  8  1  0
  8  9  1  0
  7 10  2  0
 10 11  1  0
 11 12  1  0
 12 13  1  0
 13 14  2  0
 13 15  1  0
 15 16  2  0
 16 17  1  0
 17 18  2  0
 18 19  1  0
 19 20  1  0
 20 21  1  0
 20 22  2  0
 22 23  1  0
 23 24  2  3
 24 25  1  0
 25 26  2  0
 26 27  1  0
 27 28  2  0
 28 29  1  0
 29 30  1  0
 29 31  2  0
 29 32  2  0
 28 33  1  0
 33 34  2  0
 22 35  1  0
 35 36  2  0
 10  3  1  0
 36 15  1  0
 35 18  1  0
 34 25  1  0
M  END
>  <Compound_ID>  (68) 
CHEMBL337325

>  <Active>  (68) 
1

>  <Smiles>  (68) 
COc1cccc(OC)c1CNC(=O)c1ccc2[nH]c(O)c(N=Nc3ccc(S(N)(=O)=O)cc3)c2c1

>  <canonical_smi>  (68) 
COc1cccc(OC)c1CNC(=O)c1ccc2[nH]c(O)c(N=Nc3ccc(S(N)(=O)=O)cc3)c2c1

>  <Set>  (68) 
G2 active

>  <Set_type>  (68) 
Train

>  <MW>  (68) 
509.54

>  <HBD>  (68) 
4

>  <HBA>  (68) 
6

>  <NRB>  (68) 
8

>  <NR>  (68) 
4

>  <NAR>  (68) 
4

>  <PSA>  (68) 
168.46

>  <Standard Type>  (68) 
nan

>  <Standard Relation>  (68) 
nan

>  <Standard Units>  (68) 
nan

>  <Standard Value>  (68) 
nan

>  <Assay ChEMBL ID>  (68) 
nan

>  <Assay Description>  (68) 
nan

>  <BAO Label>  (68) 
nan

$$$$

     RDKit          2D

 25 28  0  0  0  0  0  0  0  0999 V2000
   -0.0000   -5.1073    0.0000 O   0  0  0  0  0  0  0  0  0  0  0  0
   -0.0000   -3.6073    0.0000 C   0  0  0  0  0  0  0  0  0  0  0  0
    1.2135   -2.7256    0.0000 N   0  0  0  0  0  0  0  0  0  0  0  0
    0.7500   -1.2990    0.0000 C   0  0  0  0  0  0  0  0  0  0  0  0
    1.5000    0.0000    0.0000 C   0  0  0  0  0  0  0  0  0  0  0  0
    0.7500    1.2990    0.0000 C   0  0  0  0  0  0  0  0  0  0  0  0
   -0.7500    1.2990    0.0000 C   0  0  0  0  0  0  0  0  0  0  0  0
   -1.5000    2.5981    0.0000 N   0  0  0  0  0  4  0  0  0  0  0  0
   -3.0000    2.5981    0.0000 O   0  0  0  0  0  0  0  0  0  0  0  0
   -0.7500    3.8971    0.0000 O   0  0  0  0  0  1  0  0  0  0  0  0
   -1.5000    0.0000    0.0000 C   0  0  0  0  0  0  0  0  0  0  0  0
   -0.7500   -1.2990    0.0000 C   0  0  0  0  0  0  0  0  0  0  0  0
   -1.2135   -2.7256    0.0000 C   0  0  0  0  0  0  0  0  0  0  0  0
   -2.6401   -3.1891    0.0000 C   0  0  0  0  0  0  0  0  0  0  0  0
   -3.1036   -4.6157    0.0000 N   0  0  0  0  0  0  0  0  0  0  0  0
   -4.6036   -4.6157    0.0000 C   0  0  0  0  0  0  0  0  0  0  0  0
   -5.6073   -5.7305    0.0000 C   0  0  0  0  0  0  0  0  0  0  0  0
   -7.0746   -5.4186    0.0000 C   0  0  0  0  0  0  0  0  0  0  0  0
   -7.5381   -3.9920    0.0000 C   0  0  0  0  0  0  0  0  0  0  0  0
   -9.0053   -3.6801    0.0000 F   0  0  0  0  0  0  0  0  0  0  0  0
   -6.5344   -2.8773    0.0000 C   0  0  0  0  0  0  0  0  0  0  0  0
   -5.0672   -3.1891    0.0000 C   0  0  0  0  0  0  0  0  0  0  0  0
   -3.8536   -2.3075    0.0000 C   0  0  0  0  0  0  0  0  0  0  0  0
   -3.8536   -0.8075    0.0000 N   0  0  0  0  0  0  0  0  0  0  0  0
   -2.5546   -0.0575    0.0000 O   0  0  0  0  0  0  0  0  0  0  0  0
  1  2  2  0
  2  3  1  0
  3  4  1  0
  4  5  2  0
  5  6  1  0
  6  7  2  0
  7  8  1  0
  8  9  2  0
  8 10  1  0
  7 11  1  0
 11 12  2  0
 12 13  1  0
 13 14  2  0
 14 15  1  0
 15 16  1  0
 16 17  2  0
 17 18  1  0
 18 19  2  0
 19 20  1  0
 19 21  1  0
 21 22  2  0
 22 23  1  0
 23 24  2  0
 24 25  1  0
 13  2  1  0
 23 14  1  0
 12  4  1  0
 22 16  1  0
M  CHG  2   8   1  10  -1
M  END
>  <Compound_ID>  (69) 
CHEMBL1087073

>  <Active>  (69) 
1

>  <Smiles>  (69) 
O=C1Nc2ccc([N+](=O)[O-])cc2/C1=C1/Nc2ccc(F)cc2/C1=N/O

>  <canonical_smi>  (69) 
O=C1Nc2ccc([N+](=O)[O-])cc2/C1=C1/Nc2ccc(F)cc2/C1=N/O

>  <Set>  (69) 
G2 active

>  <Set_type>  (69) 
Train

>  <MW>  (69) 
340.27

>  <HBD>  (69) 
3

>  <HBA>  (69) 
5

>  <NRB>  (69) 
1

>  <NR>  (69) 
4

>  <NAR>  (69) 
2

>  <PSA>  (69) 
116.86

>  <Standard Type>  (69) 
nan

>  <Standard Relation>  (69) 
nan

>  <Standard Units>  (69) 
nan

>  <Standard Value>  (69) 
nan

>  <Assay ChEMBL ID>  (69) 
nan

>  <Assay Description>  (69) 
nan

>  <BAO Label>  (69) 
nan

$$$$

     RDKit          2D

 28 30  0  0  0  0  0  0  0  0999 V2000
    6.0000   -2.5981    0.0000 C   0  0  0  0  0  0  0  0  0  0  0  0
    5.2500   -1.2990    0.0000 C   0  0  0  0  0  0  0  0  0  0  0  0
    6.0000    0.0000    0.0000 C   0  0  0  0  0  0  0  0  0  0  0  0
    3.7500   -1.2990    0.0000 C   0  0  0  0  0  0  0  0  0  0  0  0
    3.0000    0.0000    0.0000 C   0  0  0  0  0  0  0  0  0  0  0  0
    3.7500    1.2990    0.0000 O   0  0  0  0  0  0  0  0  0  0  0  0
    1.5000    0.0000    0.0000 C   0  0  0  0  0  0  0  0  0  0  0  0
    0.7500   -1.2990    0.0000 C   0  0  0  0  0  0  0  0  0  0  0  0
   -0.7500   -1.2990    0.0000 C   0  0  0  0  0  0  0  0  0  0  0  0
   -1.5000    0.0000    0.0000 C   0  0  0  0  0  0  0  0  0  0  0  0
   -2.9672    0.3119    0.0000 N   0  0  0  0  0  0  0  0  0  0  0  0
   -3.1240    1.8037    0.0000 C   0  0  0  0  0  0  0  0  0  0  0  0
   -4.4231    2.5537    0.0000 O   0  0  0  0  0  0  0  0  0  0  0  0
   -1.7537    2.4138    0.0000 C   0  0  0  0  0  0  0  0  0  0  0  0
   -1.4418    3.8810    0.0000 C   0  0  0  0  0  0  0  0  0  0  0  0
   -2.5565    4.8847    0.0000 N   0  0  0  0  0  0  0  0  0  0  0  0
   -2.2447    6.3519    0.0000 C   0  0  0  0  0  0  0  0  0  0  0  0
   -0.8181    6.8154    0.0000 C   0  0  0  0  0  0  0  0  0  0  0  0
   -0.5062    8.2826    0.0000 C   0  0  0  0  0  0  0  0  0  0  0  0
   -1.6209    9.2863    0.0000 C   0  0  0  0  0  0  0  0  0  0  0  0
   -1.3091   10.7536    0.0000 S   0  0  0  0  0  0  0  0  0  0  0  0
   -0.9972   12.2208    0.0000 N   0  0  0  0  0  0  0  0  0  0  0  0
    0.1581   10.4417    0.0000 O   0  0  0  0  0  0  0  0  0  0  0  0
   -2.7763   11.0654    0.0000 O   0  0  0  0  0  0  0  0  0  0  0  0
   -3.0475    8.8228    0.0000 C   0  0  0  0  0  0  0  0  0  0  0  0
   -3.3594    7.3556    0.0000 C   0  0  0  0  0  0  0  0  0  0  0  0
   -0.7500    1.2990    0.0000 C   0  0  0  0  0  0  0  0  0  0  0  0
    0.7500    1.2990    0.0000 C   0  0  0  0  0  0  0  0  0  0  0  0
  1  2  1  0
  2  3  1  0
  2  4  1  0
  4  5  1  0
  5  6  2  0
  5  7  1  0
  7  8  2  0
  8  9  1  0
  9 10  2  0
 10 11  1  0
 11 12  1  0
 12 13  1  0
 12 14  2  0
 14 15  1  0
 15 16  2  0
 16 17  1  0
 17 18  2  0
 18 19  1  0
 19 20  2  0
 20 21  1  0
 21 22  1  0
 21 23  2  0
 21 24  2  0
 20 25  1  0
 25 26  2  0
 14 27  1  0
 27 28  2  0
 28  7  1  0
 27 10  1  0
 26 17  1  0
M  END
>  <Compound_ID>  (70) 
CHEMBL434257

>  <Active>  (70) 
1

>  <Smiles>  (70) 
CC(C)CC(=O)c1ccc2[nH]c(O)c(/C=N/c3ccc(S(N)(=O)=O)cc3)c2c1

>  <canonical_smi>  (70) 
CC(C)CC(=O)c1ccc2[nH]c(O)c(/C=N/c3ccc(S(N)(=O)=O)cc3)c2c1

>  <Set>  (70) 
G2 active

>  <Set_type>  (70) 
Train

>  <MW>  (70) 
399.47

>  <HBD>  (70) 
3

>  <HBA>  (70) 
4

>  <NRB>  (70) 
6

>  <NR>  (70) 
3

>  <NAR>  (70) 
3

>  <PSA>  (70) 
125.61

>  <Standard Type>  (70) 
nan

>  <Standard Relation>  (70) 
nan

>  <Standard Units>  (70) 
nan

>  <Standard Value>  (70) 
nan

>  <Assay ChEMBL ID>  (70) 
nan

>  <Assay Description>  (70) 
nan

>  <BAO Label>  (70) 
nan

$$$$

     RDKit          2D

 28 30  0  0  0  0  0  0  0  0999 V2000
    6.0000   -2.5981    0.0000 C   0  0  0  0  0  0  0  0  0  0  0  0
    5.2500   -1.2990    0.0000 C   0  0  0  0  0  0  0  0  0  0  0  0
    6.0000    0.0000    0.0000 C   0  0  0  0  0  0  0  0  0  0  0  0
    3.7500   -1.2990    0.0000 C   0  0  0  0  0  0  0  0  0  0  0  0
    3.0000    0.0000    0.0000 C   0  0  0  0  0  0  0  0  0  0  0  0
    3.7500    1.2990    0.0000 O   0  0  0  0  0  0  0  0  0  0  0  0
    1.5000    0.0000    0.0000 C   0  0  0  0  0  0  0  0  0  0  0  0
    0.7500   -1.2990    0.0000 C   0  0  0  0  0  0  0  0  0  0  0  0
   -0.7500   -1.2990    0.0000 C   0  0  0  0  0  0  0  0  0  0  0  0
   -1.5000    0.0000    0.0000 C   0  0  0  0  0  0  0  0  0  0  0  0
   -0.7500    1.2990    0.0000 C   0  0  0  0  0  0  0  0  0  0  0  0
    0.7500    1.2990    0.0000 C   0  0  0  0  0  0  0  0  0  0  0  0
   -1.7537    2.4138    0.0000 C   0  0  0  0  0  0  0  0  0  0  0  0
   -1.4418    3.8810    0.0000 C   0  0  0  0  0  0  0  0  0  0  0  0
   -2.5565    4.8847    0.0000 N   0  0  0  0  0  0  0  0  0  0  0  0
   -2.2447    6.3519    0.0000 C   0  0  0  0  0  0  0  0  0  0  0  0
   -0.8181    6.8154    0.0000 C   0  0  0  0  0  0  0  0  0  0  0  0
   -0.5062    8.2826    0.0000 C   0  0  0  0  0  0  0  0  0  0  0  0
   -1.6209    9.2863    0.0000 C   0  0  0  0  0  0  0  0  0  0  0  0
   -1.3091   10.7536    0.0000 S   0  0  0  0  0  0  0  0  0  0  0  0
   -0.9972   12.2208    0.0000 N   0  0  0  0  0  0  0  0  0  0  0  0
    0.1581   10.4417    0.0000 O   0  0  0  0  0  0  0  0  0  0  0  0
   -2.7763   11.0654    0.0000 O   0  0  0  0  0  0  0  0  0  0  0  0
   -3.0475    8.8228    0.0000 C   0  0  0  0  0  0  0  0  0  0  0  0
   -3.3594    7.3556    0.0000 C   0  0  0  0  0  0  0  0  0  0  0  0
   -3.1240    1.8037    0.0000 C   0  0  0  0  0  0  0  0  0  0  0  0
   -4.4231    2.5537    0.0000 O   0  0  0  0  0  0  0  0  0  0  0  0
   -2.9672    0.3119    0.0000 N   0  0  0  0  0  0  0  0  0  0  0  0
  1  2  1  0
  2  3  1  0
  2  4  1  0
  4  5  1  0
  5  6  2  0
  5  7  1  0
  7  8  2  0
  8  9  1  0
  9 10  2  0
 10 11  1  0
 11 12  2  0
 11 13  1  0
 13 14  2  0
 14 15  1  0
 15 16  1  0
 16 17  2  0
 17 18  1  0
 18 19  2  0
 19 20  1  0
 20 21  1  0
 20 22  2  0
 20 23  2  0
 19 24  1  0
 24 25  2  0
 13 26  1  0
 26 27  2  0
 26 28  1  0
 12  7  1  0
 25 16  1  0
 28 10  1  0
M  END
>  <Compound_ID>  (71) 
CHEMBL429142

>  <Active>  (71) 
1

>  <Smiles>  (71) 
CC(C)CC(=O)c1ccc2c(c1)/C(=C/Nc1ccc(S(N)(=O)=O)cc1)C(=O)N2

>  <canonical_smi>  (71) 
CC(C)CC(=O)c1ccc2c(c1)/C(=C/Nc1ccc(S(N)(=O)=O)cc1)C(=O)N2

>  <Set>  (71) 
G2 active

>  <Set_type>  (71) 
Train

>  <MW>  (71) 
399.47

>  <HBD>  (71) 
3

>  <HBA>  (71) 
5

>  <NRB>  (71) 
6

>  <NR>  (71) 
3

>  <NAR>  (71) 
2

>  <PSA>  (71) 
118.36

>  <Standard Type>  (71) 
nan

>  <Standard Relation>  (71) 
nan

>  <Standard Units>  (71) 
nan

>  <Standard Value>  (71) 
nan

>  <Assay ChEMBL ID>  (71) 
nan

>  <Assay Description>  (71) 
nan

>  <BAO Label>  (71) 
nan

$$$$

     RDKit          2D

 26 29  0  0  0  0  0  0  0  0999 V2000
   -6.9204   -5.2665    0.0000 C   0  0  0  0  0  0  0  0  0  0  0  0
   -5.6213   -4.5165    0.0000 O   0  0  0  0  0  0  0  0  0  0  0  0
   -4.3223   -5.2665    0.0000 C   0  0  0  0  0  0  0  0  0  0  0  0
   -4.1655   -6.7583    0.0000 C   0  0  0  0  0  0  0  0  0  0  0  0
   -2.6983   -7.0701    0.0000 C   0  0  0  0  0  0  0  0  0  0  0  0
   -1.9483   -5.7711    0.0000 N   0  0  0  0  0  0  0  0  0  0  0  0
   -2.9520   -4.6564    0.0000 C   0  0  0  0  0  0  0  0  0  0  0  0
   -2.6401   -3.1891    0.0000 C   0  0  0  0  0  0  0  0  0  0  0  0
   -1.2135   -2.7256    0.0000 C   0  0  0  0  0  0  0  0  0  0  0  0
   -0.0000   -3.6073    0.0000 C   0  0  0  0  0  0  0  0  0  0  0  0
    0.0000   -5.1073    0.0000 O   0  0  0  0  0  0  0  0  0  0  0  0
    1.2135   -2.7256    0.0000 N   0  0  0  0  0  0  0  0  0  0  0  0
    0.7500   -1.2990    0.0000 C   0  0  0  0  0  0  0  0  0  0  0  0
    1.5000    0.0000    0.0000 C   0  0  0  0  0  0  0  0  0  0  0  0
    0.7500    1.2990    0.0000 C   0  0  0  0  0  0  0  0  0  0  0  0
   -0.7500    1.2990    0.0000 C   0  0  0  0  0  0  0  0  0  0  0  0
   -1.5000    2.5981    0.0000 F   0  0  0  0  0  0  0  0  0  0  0  0
   -1.5000    0.0000    0.0000 C   0  0  0  0  0  0  0  0  0  0  0  0
   -3.0000    0.0000    0.0000 C   0  0  0  0  0  0  0  0  0  0  0  0
   -4.5000    0.0000    0.0000 C   0  0  0  0  0  0  0  0  0  0  0  0
   -6.0000    0.0000    0.0000 C   0  0  0  0  0  0  0  0  0  0  0  0
   -6.8817   -1.2135    0.0000 C   0  0  0  0  0  0  0  0  0  0  0  0
   -8.3083   -0.7500    0.0000 C   0  0  0  0  0  0  0  0  0  0  0  0
   -8.3083    0.7500    0.0000 C   0  0  0  0  0  0  0  0  0  0  0  0
   -6.8817    1.2135    0.0000 N   0  0  0  0  0  0  0  0  0  0  0  0
   -0.7500   -1.2990    0.0000 C   0  0  0  0  0  0  0  0  0  0  0  0
  1  2  1  0
  2  3  1  0
  3  4  1  0
  4  5  2  0
  5  6  1  0
  6  7  1  0
  7  8  1  0
  8  9  2  0
  9 10  1  0
 10 11  2  0
 10 12  1  0
 12 13  1  0
 13 14  2  0
 14 15  1  0
 15 16  2  0
 16 17  1  0
 16 18  1  0
 18 19  1  0
 19 20  3  0
 21 20  1  6
 21 22  1  0
 22 23  1  0
 23 24  1  0
 24 25  1  0
 18 26  2  0
  7  3  2  0
 26  9  1  0
 26 13  1  0
 25 21  1  0
M  END
>  <Compound_ID>  (72) 
CHEMBL355631

>  <Active>  (72) 
1

>  <Smiles>  (72) 
COc1cc[nH]c1/C=C1\C(=O)Nc2ccc(F)c(C#C[C@@H]3CCCN3)c21

>  <canonical_smi>  (72) 
COc1cc[nH]c1/C=C1\C(=O)Nc2ccc(F)c(C#C[C@@H]3CCCN3)c21

>  <Set>  (72) 
G2 active

>  <Set_type>  (72) 
Train

>  <MW>  (72) 
351.38

>  <HBD>  (72) 
3

>  <HBA>  (72) 
3

>  <NRB>  (72) 
2

>  <NR>  (72) 
4

>  <NAR>  (72) 
2

>  <PSA>  (72) 
66.15

>  <Standard Type>  (72) 
nan

>  <Standard Relation>  (72) 
nan

>  <Standard Units>  (72) 
nan

>  <Standard Value>  (72) 
nan

>  <Assay ChEMBL ID>  (72) 
nan

>  <Assay Description>  (72) 
nan

>  <BAO Label>  (72) 
nan

$$$$

     RDKit          2D

 28 30  0  0  0  0  0  0  0  0999 V2000
   -3.2082  -15.6575    0.0000 C   0  0  0  0  0  0  0  0  0  0  0  0
   -1.9092  -16.4075    0.0000 C   0  0  0  0  0  0  0  0  0  0  0  0
   -0.6101  -17.1575    0.0000 C   0  0  0  0  0  0  0  0  0  0  0  0
   -2.6592  -17.7065    0.0000 C   0  0  0  0  0  0  0  0  0  0  0  0
   -1.1592  -15.1085    0.0000 C   0  0  0  0  0  0  0  0  0  0  0  0
    0.3326  -14.9517    0.0000 C   0  0  0  0  0  0  0  0  0  0  0  0
    0.6445  -13.4844    0.0000 N   0  0  0  0  0  0  0  0  0  0  0  0
   -0.6546  -12.7344    0.0000 C   0  0  0  0  0  0  0  0  0  0  0  0
   -0.8113  -11.2427    0.0000 C   0  0  0  0  0  0  0  0  0  0  0  0
    0.4022  -10.3610    0.0000 S   0  0  0  0  0  0  0  0  0  0  0  0
    0.2454   -8.8692    0.0000 C   0  0  0  0  0  0  0  0  0  0  0  0
   -1.0537   -8.1192    0.0000 C   0  0  0  0  0  0  0  0  0  0  0  0
   -0.7418   -6.6520    0.0000 N   0  0  0  0  0  0  0  0  0  0  0  0
    0.7500   -6.4952    0.0000 C   0  0  0  0  0  0  0  0  0  0  0  0
    1.5000   -5.1962    0.0000 N   0  0  0  0  0  0  0  0  0  0  0  0
    0.7500   -3.8971    0.0000 C   0  0  0  0  0  0  0  0  0  0  0  0
   -0.7500   -3.8971    0.0000 O   0  0  0  0  0  0  0  0  0  0  0  0
    1.5000   -2.5981    0.0000 N   0  0  0  0  0  0  0  0  0  0  0  0
    0.7500   -1.2990    0.0000 C   0  0  0  0  0  0  0  0  0  0  0  0
    1.5000    0.0000    0.0000 C   0  0  0  0  0  0  0  0  0  0  0  0
    3.0000    0.0000    0.0000 F   0  0  0  0  0  0  0  0  0  0  0  0
    0.7500    1.2990    0.0000 C   0  0  0  0  0  0  0  0  0  0  0  0
   -0.7500    1.2990    0.0000 C   0  0  0  0  0  0  0  0  0  0  0  0
   -1.5000    0.0000    0.0000 C   0  0  0  0  0  0  0  0  0  0  0  0
   -0.7500   -1.2990    0.0000 C   0  0  0  0  0  0  0  0  0  0  0  0
   -1.5000   -2.5981    0.0000 F   0  0  0  0  0  0  0  0  0  0  0  0
    1.3601   -7.8655    0.0000 S   0  0  0  0  0  0  0  0  0  0  0  0
   -1.7693  -13.7381    0.0000 O   0  0  0  0  0  0  0  0  0  0  0  0
  1  2  1  0
  2  3  1  0
  2  4  1  0
  2  5  1  0
  5  6  2  0
  6  7  1  0
  7  8  2  0
  8  9  1  0
  9 10  1  0
 10 11  1  0
 11 12  2  0
 12 13  1  0
 13 14  2  0
 14 15  1  0
 15 16  1  0
 16 17  2  0
 16 18  1  0
 18 19  1  0
 19 20  2  0
 20 21  1  0
 20 22  1  0
 22 23  2  0
 23 24  1  0
 24 25  2  0
 25 26  1  0
 14 27  1  0
  8 28  1  0
 28  5  1  0
 27 11  1  0
 25 19  1  0
M  END
>  <Compound_ID>  (73) 
CHEMBL126997

>  <Active>  (73) 
1

>  <Smiles>  (73) 
CC(C)(C)c1cnc(CSc2cnc(NC(=O)Nc3c(F)cccc3F)s2)o1

>  <canonical_smi>  (73) 
CC(C)(C)c1cnc(CSc2cnc(NC(=O)Nc3c(F)cccc3F)s2)o1

>  <Set>  (73) 
G2 active

>  <Set_type>  (73) 
Train

>  <MW>  (73) 
424.5

>  <HBD>  (73) 
2

>  <HBA>  (73) 
5

>  <NRB>  (73) 
5

>  <NR>  (73) 
3

>  <NAR>  (73) 
3

>  <PSA>  (73) 
80.05

>  <Standard Type>  (73) 
nan

>  <Standard Relation>  (73) 
nan

>  <Standard Units>  (73) 
nan

>  <Standard Value>  (73) 
nan

>  <Assay ChEMBL ID>  (73) 
nan

>  <Assay Description>  (73) 
nan

>  <BAO Label>  (73) 
nan

$$$$

     RDKit          2D

 30 32  0  0  0  0  0  0  0  0999 V2000
   -3.2082  -13.0594    0.0000 C   0  0  0  0  0  0  0  0  0  0  0  0
   -1.9092  -13.8094    0.0000 C   0  0  0  0  0  0  0  0  0  0  0  0
   -0.6101  -14.5594    0.0000 C   0  0  0  0  0  0  0  0  0  0  0  0
   -2.6592  -15.1085    0.0000 C   0  0  0  0  0  0  0  0  0  0  0  0
   -1.1592  -12.5104    0.0000 C   0  0  0  0  0  0  0  0  0  0  0  0
    0.3326  -12.3536    0.0000 C   0  0  0  0  0  0  0  0  0  0  0  0
    0.6445  -10.8864    0.0000 N   0  0  0  0  0  0  0  0  0  0  0  0
   -0.6546  -10.1364    0.0000 C   0  0  0  0  0  0  0  0  0  0  0  0
   -0.8113   -8.6446    0.0000 C   0  0  0  0  0  0  0  0  0  0  0  0
    0.4022   -7.7629    0.0000 S   0  0  0  0  0  0  0  0  0  0  0  0
    0.2454   -6.2711    0.0000 C   0  0  0  0  0  0  0  0  0  0  0  0
   -1.0537   -5.5211    0.0000 C   0  0  0  0  0  0  0  0  0  0  0  0
   -0.7418   -4.0539    0.0000 N   0  0  0  0  0  0  0  0  0  0  0  0
    0.7500   -3.8971    0.0000 C   0  0  0  0  0  0  0  0  0  0  0  0
    1.5000   -2.5981    0.0000 N   0  0  0  0  0  0  0  0  0  0  0  0
    0.7500   -1.2990    0.0000 C   0  0  0  0  0  0  0  0  0  0  0  0
    1.5000    0.0000    0.0000 C   0  0  0  0  0  0  0  0  0  0  0  0
    0.7500    1.2990    0.0000 C   0  0  0  0  0  0  0  0  0  0  0  0
   -0.7500    1.2990    0.0000 C   0  0  0  0  0  0  0  0  0  0  0  0
   -1.5000    2.5981    0.0000 S   0  0  0  0  0  0  0  0  0  0  0  0
   -0.2010    3.3481    0.0000 O   0  0  0  0  0  0  0  0  0  0  0  0
   -2.7990    1.8481    0.0000 O   0  0  0  0  0  0  0  0  0  0  0  0
   -2.2500    3.8971    0.0000 N   0  0  0  0  0  0  0  0  0  0  0  0
   -3.7500    3.8971    0.0000 C   0  0  0  0  0  0  0  0  0  0  0  0
   -4.5000    5.1962    0.0000 C   0  0  0  0  0  0  0  0  0  0  0  0
   -6.0000    5.1962    0.0000 O   0  0  0  0  0  0  0  0  0  0  0  0
   -1.5000    0.0000    0.0000 C   0  0  0  0  0  0  0  0  0  0  0  0
   -0.7500   -1.2990    0.0000 C   0  0  0  0  0  0  0  0  0  0  0  0
    1.3601   -5.2674    0.0000 S   0  0  0  0  0  0  0  0  0  0  0  0
   -1.7693  -11.1401    0.0000 O   0  0  0  0  0  0  0  0  0  0  0  0
  1  2  1  0
  2  3  1  0
  2  4  1  0
  2  5  1  0
  5  6  2  0
  6  7  1  0
  7  8  2  0
  8  9  1  0
  9 10  1  0
 10 11  1  0
 11 12  2  0
 12 13  1  0
 13 14  2  0
 14 15  1  0
 15 16  1  0
 16 17  2  0
 17 18  1  0
 18 19  2  0
 19 20  1  0
 20 21  2  0
 20 22  2  0
 20 23  1  0
 23 24  1  0
 24 25  1  0
 25 26  1  0
 19 27  1  0
 27 28  2  0
 14 29  1  0
  8 30  1  0
 30  5  1  0
 29 11  1  0
 28 16  1  0
M  END
>  <Compound_ID>  (74) 
CHEMBL420463

>  <Active>  (74) 
1

>  <Smiles>  (74) 
CC(C)(C)c1cnc(CSc2cnc(Nc3ccc(S(=O)(=O)NCCO)cc3)s2)o1

>  <canonical_smi>  (74) 
CC(C)(C)c1cnc(CSc2cnc(Nc3ccc(S(=O)(=O)NCCO)cc3)s2)o1

>  <Set>  (74) 
G2 active

>  <Set_type>  (74) 
Train

>  <MW>  (74) 
468.63

>  <HBD>  (74) 
3

>  <HBA>  (74) 
8

>  <NRB>  (74) 
9

>  <NR>  (74) 
3

>  <NAR>  (74) 
3

>  <PSA>  (74) 
117.35

>  <Standard Type>  (74) 
nan

>  <Standard Relation>  (74) 
nan

>  <Standard Units>  (74) 
nan

>  <Standard Value>  (74) 
nan

>  <Assay ChEMBL ID>  (74) 
nan

>  <Assay Description>  (74) 
nan

>  <BAO Label>  (74) 
nan

$$$$

     RDKit          2D

 23 25  0  0  0  0  0  0  0  0999 V2000
   -3.2082  -13.0594    0.0000 C   0  0  0  0  0  0  0  0  0  0  0  0
   -1.9092  -13.8094    0.0000 C   0  0  0  0  0  0  0  0  0  0  0  0
   -0.6101  -14.5594    0.0000 C   0  0  0  0  0  0  0  0  0  0  0  0
   -2.6592  -15.1085    0.0000 C   0  0  0  0  0  0  0  0  0  0  0  0
   -1.1592  -12.5104    0.0000 C   0  0  0  0  0  0  0  0  0  0  0  0
    0.3326  -12.3536    0.0000 C   0  0  0  0  0  0  0  0  0  0  0  0
    0.6445  -10.8864    0.0000 N   0  0  0  0  0  0  0  0  0  0  0  0
   -0.6546  -10.1364    0.0000 C   0  0  0  0  0  0  0  0  0  0  0  0
   -0.8113   -8.6446    0.0000 C   0  0  0  0  0  0  0  0  0  0  0  0
    0.4022   -7.7629    0.0000 S   0  0  0  0  0  0  0  0  0  0  0  0
    0.2454   -6.2711    0.0000 C   0  0  0  0  0  0  0  0  0  0  0  0
   -1.0537   -5.5211    0.0000 C   0  0  0  0  0  0  0  0  0  0  0  0
   -0.7418   -4.0539    0.0000 N   0  0  0  0  0  0  0  0  0  0  0  0
    0.7500   -3.8971    0.0000 C   0  0  0  0  0  0  0  0  0  0  0  0
    1.5000   -2.5981    0.0000 N   0  0  0  0  0  0  0  0  0  0  0  0
    0.7500   -1.2990    0.0000 C   0  0  0  0  0  0  0  0  0  0  0  0
    1.5000    0.0000    0.0000 C   0  0  0  0  0  0  0  0  0  0  0  0
    0.7500    1.2990    0.0000 C   0  0  0  0  0  0  0  0  0  0  0  0
   -0.7500    1.2990    0.0000 C   0  0  0  0  0  0  0  0  0  0  0  0
   -1.5000    0.0000    0.0000 C   0  0  0  0  0  0  0  0  0  0  0  0
   -0.7500   -1.2990    0.0000 N   0  0  0  0  0  0  0  0  0  0  0  0
    1.3601   -5.2674    0.0000 S   0  0  0  0  0  0  0  0  0  0  0  0
   -1.7693  -11.1401    0.0000 O   0  0  0  0  0  0  0  0  0  0  0  0
  1  2  1  0
  2  3  1  0
  2  4  1  0
  2  5  1  0
  5  6  2  0
  6  7  1  0
  7  8  2  0
  8  9  1  0
  9 10  1  0
 10 11  1  0
 11 12  2  0
 12 13  1  0
 13 14  2  0
 14 15  1  0
 15 16  1  0
 16 17  2  0
 17 18  1  0
 18 19  2  0
 19 20  1  0
 20 21  2  0
 14 22  1  0
  8 23  1  0
 23  5  1  0
 22 11  1  0
 21 16  1  0
M  END
>  <Compound_ID>  (75) 
CHEMBL430653

>  <Active>  (75) 
1

>  <Smiles>  (75) 
CC(C)(C)c1cnc(CSc2cnc(Nc3ccccn3)s2)o1

>  <canonical_smi>  (75) 
CC(C)(C)c1cnc(CSc2cnc(Nc3ccccn3)s2)o1

>  <Set>  (75) 
G2 active

>  <Set_type>  (75) 
Train

>  <MW>  (75) 
346.48

>  <HBD>  (75) 
1

>  <HBA>  (75) 
6

>  <NRB>  (75) 
5

>  <NR>  (75) 
3

>  <NAR>  (75) 
3

>  <PSA>  (75) 
63.84

>  <Standard Type>  (75) 
nan

>  <Standard Relation>  (75) 
nan

>  <Standard Units>  (75) 
nan

>  <Standard Value>  (75) 
nan

>  <Assay ChEMBL ID>  (75) 
nan

>  <Assay Description>  (75) 
nan

>  <BAO Label>  (75) 
nan

$$$$

     RDKit          2D

 23 25  0  0  0  0  0  0  0  0999 V2000
   -0.5773   -4.2803    0.0000 C   0  0  0  0  0  0  0  0  0  0  0  0
    0.8899   -3.9684    0.0000 C   0  0  0  0  0  0  0  0  0  0  0  0
    2.0046   -4.9721    0.0000 N   0  0  0  0  0  0  0  0  0  0  0  0
    3.3037   -4.2221    0.0000 C   0  0  0  0  0  0  0  0  0  0  0  0
    4.6740   -4.8322    0.0000 N   0  0  0  0  0  0  0  0  0  0  0  0
    2.9918   -2.7549    0.0000 S   0  0  0  0  0  0  0  0  0  0  0  0
    1.5000   -2.5981    0.0000 C   0  0  0  0  0  0  0  0  0  0  0  0
    0.7500   -1.2990    0.0000 C   0  0  0  0  0  0  0  0  0  0  0  0
    1.5000    0.0000    0.0000 C   0  0  0  0  0  0  0  0  0  0  0  0
    0.7500    1.2990    0.0000 C   0  0  0  0  0  0  0  0  0  0  0  0
   -0.7500    1.2990    0.0000 N   0  0  0  0  0  0  0  0  0  0  0  0
   -1.5000    0.0000    0.0000 C   0  0  0  0  0  0  0  0  0  0  0  0
   -3.0000    0.0000    0.0000 N   0  0  0  0  0  0  0  0  0  0  0  0
   -3.7500    1.2990    0.0000 C   0  0  0  0  0  0  0  0  0  0  0  0
   -3.0000    2.5981    0.0000 C   0  0  0  0  0  0  0  0  0  0  0  0
   -3.7500    3.8971    0.0000 C   0  0  0  0  0  0  0  0  0  0  0  0
   -5.2500    3.8971    0.0000 C   0  0  0  0  0  0  0  0  0  0  0  0
   -6.0000    2.5981    0.0000 C   0  0  0  0  0  0  0  0  0  0  0  0
   -7.5000    2.5981    0.0000 N   0  0  0  0  0  4  0  0  0  0  0  0
   -8.2500    1.2990    0.0000 O   0  0  0  0  0  0  0  0  0  0  0  0
   -8.2500    3.8971    0.0000 O   0  0  0  0  0  1  0  0  0  0  0  0
   -5.2500    1.2990    0.0000 C   0  0  0  0  0  0  0  0  0  0  0  0
   -0.7500   -1.2990    0.0000 N   0  0  0  0  0  0  0  0  0  0  0  0
  1  2  1  0
  2  3  1  0
  3  4  2  0
  4  5  1  0
  4  6  1  0
  6  7  1  0
  7  8  1  0
  8  9  2  0
  9 10  1  0
 10 11  2  0
 11 12  1  0
 12 13  1  0
 13 14  1  0
 14 15  2  0
 15 16  1  0
 16 17  2  0
 17 18  1  0
 18 19  1  0
 19 20  2  0
 19 21  1  0
 18 22  2  0
 12 23  2  0
  7  2  2  0
 23  8  1  0
 22 14  1  0
M  CHG  2  19   1  21  -1
M  END
>  <Compound_ID>  (76) 
CHEMBL298445

>  <Active>  (76) 
1

>  <Smiles>  (76) 
Cc1nc(N)sc1-c1ccnc(Nc2cccc([N+](=O)[O-])c2)n1

>  <canonical_smi>  (76) 
Cc1nc(N)sc1-c1ccnc(Nc2cccc([N+](=O)[O-])c2)n1

>  <Set>  (76) 
G2 active

>  <Set_type>  (76) 
Train

>  <MW>  (76) 
328.36

>  <HBD>  (76) 
2

>  <HBA>  (76) 
7

>  <NRB>  (76) 
4

>  <NR>  (76) 
3

>  <NAR>  (76) 
3

>  <PSA>  (76) 
119.86

>  <Standard Type>  (76) 
nan

>  <Standard Relation>  (76) 
nan

>  <Standard Units>  (76) 
nan

>  <Standard Value>  (76) 
nan

>  <Assay ChEMBL ID>  (76) 
nan

>  <Assay Description>  (76) 
nan

>  <BAO Label>  (76) 
nan

$$$$

     RDKit          2D

 23 25  0  0  0  0  0  0  0  0999 V2000
   -5.1388   -6.1973    0.0000 C   0  0  0  0  0  0  0  0  0  0  0  0
   -4.3888   -4.8983    0.0000 C   0  0  0  0  0  0  0  0  0  0  0  0
   -5.1388   -3.5992    0.0000 C   0  0  0  0  0  0  0  0  0  0  0  0
   -4.3888   -2.3002    0.0000 C   0  0  0  0  0  0  0  0  0  0  0  0
   -5.1388   -1.0012    0.0000 N   0  0  0  0  0  0  0  0  0  0  0  0
   -4.3888    0.2979    0.0000 S   0  0  0  0  0  0  0  0  0  0  0  0
   -3.0897   -0.4521    0.0000 O   0  0  0  0  0  0  0  0  0  0  0  0
   -5.6878    1.0479    0.0000 O   0  0  0  0  0  0  0  0  0  0  0  0
   -3.6388    1.5969    0.0000 N   0  0  0  0  0  0  0  0  0  0  0  0
   -4.2489    2.9672    0.0000 N   0  0  0  0  0  0  0  0  0  0  0  0
   -3.1342    3.9709    0.0000 C   0  0  0  0  0  0  0  0  0  0  0  0
   -3.2910    5.4627    0.0000 C   0  0  0  0  0  0  0  0  0  0  0  0
   -4.6613    6.0728    0.0000 N   0  0  0  0  0  0  0  0  0  0  0  0
   -2.0774    6.3444    0.0000 O   0  0  0  0  0  0  0  0  0  0  0  0
   -1.8351    3.2209    0.0000 C   0  0  0  0  0  0  0  0  0  0  0  0
   -0.4086    3.6844    0.0000 C   0  0  0  0  0  0  0  0  0  0  0  0
    0.7062    2.6807    0.0000 C   0  0  0  0  0  0  0  0  0  0  0  0
    0.3943    1.2135    0.0000 C   0  0  0  0  0  0  0  0  0  0  0  0
    1.2760    0.0000    0.0000 N   0  0  0  0  0  0  0  0  0  0  0  0
    0.3943   -1.2135    0.0000 N   0  0  0  0  0  0  0  0  0  0  0  0
   -1.0323   -0.7500    0.0000 C   0  0  0  0  0  0  0  0  0  0  0  0
   -1.0323    0.7500    0.0000 C   0  0  0  0  0  0  0  0  0  0  0  0
   -2.1470    1.7537    0.0000 C   0  0  0  0  0  0  0  0  0  0  0  0
  1  2  1  0
  2  3  1  0
  3  4  1  0
  4  5  1  0
  5  6  1  0
  6  7  2  0
  6  8  2  0
  6  9  1  0
  9 10  1  0
 10 11  2  0
 11 12  1  0
 12 13  1  0
 12 14  2  0
 11 15  1  0
 15 16  2  0
 16 17  1  0
 17 18  2  0
 18 19  1  0
 19 20  1  0
 20 21  2  0
 21 22  1  0
 22 23  2  0
 23  9  1  0
 23 15  1  0
 22 18  1  0
M  END
>  <Compound_ID>  (77) 
CHEMBL181036

>  <Active>  (77) 
1

>  <Smiles>  (77) 
CCCCNS(=O)(=O)n1nc(C(N)=O)c2ccc3[nH]ncc3c21

>  <canonical_smi>  (77) 
CCCCNS(=O)(=O)n1nc(C(N)=O)c2ccc3[nH]ncc3c21

>  <Set>  (77) 
G2 active

>  <Set_type>  (77) 
Train

>  <MW>  (77) 
336.38

>  <HBD>  (77) 
3

>  <HBA>  (77) 
5

>  <NRB>  (77) 
6

>  <NR>  (77) 
3

>  <NAR>  (77) 
3

>  <PSA>  (77) 
135.76

>  <Standard Type>  (77) 
nan

>  <Standard Relation>  (77) 
nan

>  <Standard Units>  (77) 
nan

>  <Standard Value>  (77) 
nan

>  <Assay ChEMBL ID>  (77) 
nan

>  <Assay Description>  (77) 
nan

>  <BAO Label>  (77) 
nan

$$$$

     RDKit          2D

 28 31  0  0  0  0  0  0  0  0999 V2000
   -3.7548   -2.1855    0.0000 C   0  0  0  0  0  0  0  0  0  0  0  0
   -2.6401   -3.1891    0.0000 C   0  0  0  0  0  0  0  0  0  0  0  0
   -2.9520   -4.6564    0.0000 N   0  0  0  0  0  0  0  0  0  0  0  0
   -4.3786   -5.1199    0.0000 C   0  0  0  0  0  0  0  0  0  0  0  0
   -5.4933   -4.1162    0.0000 C   0  0  0  0  0  0  0  0  0  0  0  0
   -6.9199   -4.5797    0.0000 C   0  0  0  0  0  0  0  0  0  0  0  0
   -7.2317   -6.0469    0.0000 C   0  0  0  0  0  0  0  0  0  0  0  0
   -8.6583   -6.5105    0.0000 S   0  0  0  0  0  0  0  0  0  0  0  0
  -10.0849   -6.9740    0.0000 N   0  0  0  0  0  0  0  0  0  0  0  0
   -9.1218   -5.0839    0.0000 O   0  0  0  0  0  0  0  0  0  0  0  0
   -8.1948   -7.9371    0.0000 O   0  0  0  0  0  0  0  0  0  0  0  0
   -6.1170   -7.0506    0.0000 C   0  0  0  0  0  0  0  0  0  0  0  0
   -4.6904   -6.5871    0.0000 C   0  0  0  0  0  0  0  0  0  0  0  0
   -1.2135   -2.7256    0.0000 C   0  0  0  0  0  0  0  0  0  0  0  0
   -0.0000   -3.6073    0.0000 C   0  0  0  0  0  0  0  0  0  0  0  0
    0.0000   -5.1073    0.0000 O   0  0  0  0  0  0  0  0  0  0  0  0
    1.2135   -2.7256    0.0000 N   0  0  0  0  0  0  0  0  0  0  0  0
    0.7500   -1.2990    0.0000 C   0  0  0  0  0  0  0  0  0  0  0  0
    1.5000    0.0000    0.0000 C   0  0  0  0  0  0  0  0  0  0  0  0
    0.7500    1.2990    0.0000 C   0  0  0  0  0  0  0  0  0  0  0  0
   -0.7500    1.2990    0.0000 C   0  0  0  0  0  0  0  0  0  0  0  0
   -1.5000    2.5981    0.0000 C   0  0  0  0  0  0  0  0  0  0  0  0
   -2.9918    2.7549    0.0000 C   0  0  0  0  0  0  0  0  0  0  0  0
   -3.3037    4.2221    0.0000 N   0  0  0  0  0  0  0  0  0  0  0  0
   -2.0046    4.9721    0.0000 C   0  0  0  0  0  0  0  0  0  0  0  0
   -0.8899    3.9684    0.0000 O   0  0  0  0  0  0  0  0  0  0  0  0
   -1.5000    0.0000    0.0000 C   0  0  0  0  0  0  0  0  0  0  0  0
   -0.7500   -1.2990    0.0000 C   0  0  0  0  0  0  0  0  0  0  0  0
  1  2  1  0
  2  3  2  0
  3  4  1  0
  4  5  2  0
  5  6  1  0
  6  7  2  0
  7  8  1  0
  8  9  1  0
  8 10  2  0
  8 11  2  0
  7 12  1  0
 12 13  2  0
  2 14  1  0
 14 15  2  0
 15 16  1  0
 15 17  1  0
 17 18  1  0
 18 19  2  0
 19 20  1  0
 20 21  2  0
 21 22  1  0
 22 23  2  0
 23 24  1  0
 24 25  2  0
 25 26  1  0
 21 27  1  0
 27 28  2  0
 13  4  1  0
 28 14  1  0
 28 18  1  0
 26 22  1  0
M  END
>  <Compound_ID>  (78) 
CHEMBL335275

>  <Active>  (78) 
1

>  <Smiles>  (78) 
C/C(=N\c1ccc(S(N)(=O)=O)cc1)c1c(O)[nH]c2ccc(-c3cnco3)cc12

>  <canonical_smi>  (78) 
C/C(=N\c1ccc(S(N)(=O)=O)cc1)c1c(O)[nH]c2ccc(-c3cnco3)cc12

>  <Set>  (78) 
G2 active

>  <Set_type>  (78) 
Train

>  <MW>  (78) 
396.43

>  <HBD>  (78) 
3

>  <HBA>  (78) 
5

>  <NRB>  (78) 
4

>  <NR>  (78) 
4

>  <NAR>  (78) 
4

>  <PSA>  (78) 
134.57

>  <Standard Type>  (78) 
nan

>  <Standard Relation>  (78) 
nan

>  <Standard Units>  (78) 
nan

>  <Standard Value>  (78) 
nan

>  <Assay ChEMBL ID>  (78) 
nan

>  <Assay Description>  (78) 
nan

>  <BAO Label>  (78) 
nan

$$$$

     RDKit          2D

 23 26  0  0  0  0  0  0  0  0999 V2000
   -1.8373   -5.6601    0.0000 O   0  0  0  0  0  0  0  0  0  0  0  0
   -2.9520   -4.6564    0.0000 C   0  0  0  0  0  0  0  0  0  0  0  0
   -2.6401   -3.1891    0.0000 N   0  0  0  0  0  0  0  0  0  0  0  0
   -1.2135   -2.7256    0.0000 C   0  0  0  0  0  0  0  0  0  0  0  0
   -0.0000   -3.6073    0.0000 N   0  0  0  0  0  0  0  0  0  0  0  0
    1.2135   -2.7256    0.0000 N   0  0  0  0  0  0  0  0  0  0  0  0
    0.7500   -1.2990    0.0000 C   0  0  0  0  0  0  0  0  0  0  0  0
    1.5000    0.0000    0.0000 N   0  0  0  0  0  0  0  0  0  0  0  0
    0.7500    1.2990    0.0000 C   0  0  0  0  0  0  0  0  0  0  0  0
    1.5000    2.5981    0.0000 C   0  0  0  0  0  0  0  0  0  0  0  0
    3.0000    2.5981    0.0000 C   0  0  0  0  0  0  0  0  0  0  0  0
    3.7500    3.8971    0.0000 C   0  0  0  0  0  0  0  0  0  0  0  0
    3.0000    5.1962    0.0000 C   0  0  0  0  0  0  0  0  0  0  0  0
    3.7500    6.4952    0.0000 O   0  0  0  0  0  0  0  0  0  0  0  0
    1.5000    5.1962    0.0000 C   0  0  0  0  0  0  0  0  0  0  0  0
    0.7500    6.4952    0.0000 Br  0  0  0  0  0  0  0  0  0  0  0  0
    0.7500    3.8971    0.0000 C   0  0  0  0  0  0  0  0  0  0  0  0
   -0.7500    1.2990    0.0000 C   0  0  0  0  0  0  0  0  0  0  0  0
   -1.5000    0.0000    0.0000 C   0  0  0  0  0  0  0  0  0  0  0  0
   -0.7500   -1.2990    0.0000 C   0  0  0  0  0  0  0  0  0  0  0  0
   -4.3786   -5.1199    0.0000 C   0  0  0  0  0  0  0  0  0  0  0  0
   -5.3823   -6.2346    0.0000 C   0  0  0  0  0  0  0  0  0  0  0  0
   -5.8458   -4.8080    0.0000 C   0  0  0  0  0  0  0  0  0  0  0  0
  1  2  2  0
  2  3  1  0
  3  4  1  0
  4  5  2  0
  5  6  1  0
  6  7  1  0
  7  8  2  0
  8  9  1  0
  9 10  1  0
 10 11  2  0
 11 12  1  0
 12 13  2  0
 13 14  1  0
 13 15  1  0
 15 16  1  0
 15 17  2  0
  9 18  2  0
 18 19  1  0
 19 20  2  0
  2 21  1  0
 21 22  1  0
 22 23  1  0
 20  4  1  0
 23 21  1  0
 20  7  1  0
 17 10  1  0
M  END
>  <Compound_ID>  (79) 
CHEMBL260416

>  <Active>  (79) 
1

>  <Smiles>  (79) 
O=C(Nc1n[nH]c2nc(-c3ccc(O)c(Br)c3)ccc12)C1CC1

>  <canonical_smi>  (79) 
O=C(Nc1n[nH]c2nc(-c3ccc(O)c(Br)c3)ccc12)C1CC1

>  <Set>  (79) 
G2 active

>  <Set_type>  (79) 
Train

>  <MW>  (79) 
373.21

>  <HBD>  (79) 
3

>  <HBA>  (79) 
4

>  <NRB>  (79) 
3

>  <NR>  (79) 
4

>  <NAR>  (79) 
3

>  <PSA>  (79) 
90.9

>  <Standard Type>  (79) 
nan

>  <Standard Relation>  (79) 
nan

>  <Standard Units>  (79) 
nan

>  <Standard Value>  (79) 
nan

>  <Assay ChEMBL ID>  (79) 
nan

>  <Assay Description>  (79) 
nan

>  <BAO Label>  (79) 
nan

$$$$

     RDKit          2D

 28 31  0  0  0  0  0  0  0  0999 V2000
   -3.7548   -2.1855    0.0000 C   0  0  0  0  0  0  0  0  0  0  0  0
   -2.6401   -3.1891    0.0000 C   0  0  0  0  0  0  0  0  0  0  0  0
   -2.9520   -4.6564    0.0000 N   0  0  0  0  0  0  0  0  0  0  0  0
   -4.3786   -5.1199    0.0000 C   0  0  0  0  0  0  0  0  0  0  0  0
   -5.4933   -4.1162    0.0000 C   0  0  0  0  0  0  0  0  0  0  0  0
   -6.9199   -4.5797    0.0000 C   0  0  0  0  0  0  0  0  0  0  0  0
   -7.2317   -6.0469    0.0000 C   0  0  0  0  0  0  0  0  0  0  0  0
   -8.6583   -6.5105    0.0000 S   0  0  0  0  0  0  0  0  0  0  0  0
  -10.0849   -6.9740    0.0000 N   0  0  0  0  0  0  0  0  0  0  0  0
   -9.1218   -5.0839    0.0000 O   0  0  0  0  0  0  0  0  0  0  0  0
   -8.1948   -7.9371    0.0000 O   0  0  0  0  0  0  0  0  0  0  0  0
   -6.1170   -7.0506    0.0000 C   0  0  0  0  0  0  0  0  0  0  0  0
   -4.6904   -6.5871    0.0000 C   0  0  0  0  0  0  0  0  0  0  0  0
   -1.2135   -2.7256    0.0000 C   0  0  0  0  0  0  0  0  0  0  0  0
   -0.0000   -3.6073    0.0000 C   0  0  0  0  0  0  0  0  0  0  0  0
    0.0000   -5.1073    0.0000 O   0  0  0  0  0  0  0  0  0  0  0  0
    1.2135   -2.7256    0.0000 N   0  0  0  0  0  0  0  0  0  0  0  0
    0.7500   -1.2990    0.0000 C   0  0  0  0  0  0  0  0  0  0  0  0
    1.5000    0.0000    0.0000 C   0  0  0  0  0  0  0  0  0  0  0  0
    0.7500    1.2990    0.0000 C   0  0  0  0  0  0  0  0  0  0  0  0
   -0.7500    1.2990    0.0000 C   0  0  0  0  0  0  0  0  0  0  0  0
   -1.5000    2.5981    0.0000 C   0  0  0  0  0  0  0  0  0  0  0  0
   -2.9918    2.7549    0.0000 C   0  0  0  0  0  0  0  0  0  0  0  0
   -3.3037    4.2221    0.0000 N   0  0  0  0  0  0  0  0  0  0  0  0
   -2.0046    4.9721    0.0000 C   0  0  0  0  0  0  0  0  0  0  0  0
   -0.8899    3.9684    0.0000 O   0  0  0  0  0  0  0  0  0  0  0  0
   -1.5000    0.0000    0.0000 C   0  0  0  0  0  0  0  0  0  0  0  0
   -0.7500   -1.2990    0.0000 C   0  0  0  0  0  0  0  0  0  0  0  0
  1  2  1  0
  2  3  1  0
  3  4  1  0
  4  5  2  0
  5  6  1  0
  6  7  2  0
  7  8  1  0
  8  9  1  0
  8 10  2  0
  8 11  2  0
  7 12  1  0
 12 13  2  0
  2 14  2  0
 14 15  1  0
 15 16  2  0
 15 17  1  0
 17 18  1  0
 18 19  2  0
 19 20  1  0
 20 21  2  0
 21 22  1  0
 22 23  2  0
 23 24  1  0
 24 25  2  0
 25 26  1  0
 21 27  1  0
 27 28  2  0
 13  4  1  0
 28 14  1  0
 28 18  1  0
 26 22  1  0
M  END
>  <Compound_ID>  (80) 
CHEMBL411887

>  <Active>  (80) 
1

>  <Smiles>  (80) 
C/C(Nc1ccc(S(N)(=O)=O)cc1)=C1/C(=O)Nc2ccc(-c3cnco3)cc21

>  <canonical_smi>  (80) 
C/C(Nc1ccc(S(N)(=O)=O)cc1)=C1/C(=O)Nc2ccc(-c3cnco3)cc21

>  <Set>  (80) 
G2 active

>  <Set_type>  (80) 
Train

>  <MW>  (80) 
396.43

>  <HBD>  (80) 
3

>  <HBA>  (80) 
6

>  <NRB>  (80) 
4

>  <NR>  (80) 
4

>  <NAR>  (80) 
3

>  <PSA>  (80) 
127.32

>  <Standard Type>  (80) 
nan

>  <Standard Relation>  (80) 
nan

>  <Standard Units>  (80) 
nan

>  <Standard Value>  (80) 
nan

>  <Assay ChEMBL ID>  (80) 
nan

>  <Assay Description>  (80) 
nan

>  <BAO Label>  (80) 
nan

$$$$

     RDKit          2D

 28 31  0  0  0  0  0  0  0  0999 V2000
    5.2500   -1.2990    0.0000 C   0  0  0  0  0  0  0  0  0  0  0  0
    3.7500   -1.2990    0.0000 N   0  0  0  0  0  0  0  0  0  0  0  0
    3.0000    0.0000    0.0000 C   0  0  0  0  0  0  0  0  0  0  0  0
    3.7500    1.2990    0.0000 O   0  0  0  0  0  0  0  0  0  0  0  0
    1.5000    0.0000    0.0000 C   0  0  0  0  0  0  0  0  0  0  0  0
    0.7500   -1.2990    0.0000 C   0  0  0  0  0  0  0  0  0  0  0  0
   -0.7500   -1.2990    0.0000 C   0  0  0  0  0  0  0  0  0  0  0  0
   -1.5000    0.0000    0.0000 C   0  0  0  0  0  0  0  0  0  0  0  0
   -3.0000    0.0000    0.0000 N   0  0  0  0  0  0  0  0  0  0  0  0
   -3.7500    1.2990    0.0000 C   0  0  0  0  0  0  0  0  0  0  0  0
   -3.0000    2.5981    0.0000 N   0  0  0  0  0  0  0  0  0  0  0  0
   -3.7500    3.8971    0.0000 C   0  0  0  0  0  0  0  0  0  0  0  0
   -5.2500    3.8971    0.0000 C   0  0  0  0  0  0  0  0  0  0  0  0
   -6.0000    2.5981    0.0000 C   0  0  0  0  0  0  0  0  0  0  0  0
   -7.5000    2.5981    0.0000 C   0  0  0  0  0  0  0  0  0  0  0  0
   -8.3817    1.3846    0.0000 C   0  0  0  0  0  0  0  0  0  0  0  0
   -9.8083    1.8481    0.0000 N   0  0  0  0  0  0  0  0  0  0  0  0
   -9.8083    3.3481    0.0000 C   0  0  0  0  0  0  0  0  0  0  0  0
  -11.0218    4.2298    0.0000 C   0  0  0  0  0  0  0  0  0  0  0  0
   -8.3817    3.8116    0.0000 N   0  0  0  0  0  0  0  0  0  0  0  0
   -7.9182    5.2382    0.0000 C   0  0  0  0  0  0  0  0  0  0  0  0
   -8.7998    6.4517    0.0000 C   0  0  0  0  0  0  0  0  0  0  0  0
   -7.9182    7.6652    0.0000 C   0  0  0  0  0  0  0  0  0  0  0  0
   -6.4916    7.2017    0.0000 C   0  0  0  0  0  0  0  0  0  0  0  0
   -6.4916    5.7017    0.0000 C   0  0  0  0  0  0  0  0  0  0  0  0
   -5.2500    1.2990    0.0000 N   0  0  0  0  0  0  0  0  0  0  0  0
   -0.7500    1.2990    0.0000 C   0  0  0  0  0  0  0  0  0  0  0  0
    0.7500    1.2990    0.0000 C   0  0  0  0  0  0  0  0  0  0  0  0
  1  2  1  0
  2  3  1  0
  3  4  2  0
  3  5  1  0
  5  6  2  0
  6  7  1  0
  7  8  2  0
  8  9  1  0
  9 10  1  0
 10 11  2  0
 11 12  1  0
 12 13  2  0
 13 14  1  0
 14 15  1  0
 15 16  2  0
 16 17  1  0
 17 18  2  0
 18 19  1  0
 18 20  1  0
 20 21  1  0
 21 22  1  0
 22 23  1  0
 23 24  1  0
 24 25  1  0
 14 26  2  0
  8 27  1  0
 27 28  2  0
 28  5  1  0
 26 10  1  0
 20 15  1  0
 25 21  1  0
M  END
>  <Compound_ID>  (81) 
CHEMBL488257

>  <Active>  (81) 
1

>  <Smiles>  (81) 
CNC(=O)c1ccc(Nc2nccc(-c3cnc(C)n3C3CCCC3)n2)cc1

>  <canonical_smi>  (81) 
CNC(=O)c1ccc(Nc2nccc(-c3cnc(C)n3C3CCCC3)n2)cc1

>  <Set>  (81) 
G2 active

>  <Set_type>  (81) 
Train

>  <MW>  (81) 
376.46

>  <HBD>  (81) 
2

>  <HBA>  (81) 
5

>  <NRB>  (81) 
5

>  <NR>  (81) 
4

>  <NAR>  (81) 
3

>  <PSA>  (81) 
84.73

>  <Standard Type>  (81) 
nan

>  <Standard Relation>  (81) 
nan

>  <Standard Units>  (81) 
nan

>  <Standard Value>  (81) 
nan

>  <Assay ChEMBL ID>  (81) 
nan

>  <Assay Description>  (81) 
nan

>  <BAO Label>  (81) 
nan

$$$$

     RDKit          2D

 33 36  0  0  0  0  0  0  0  0999 V2000
    4.6740   -4.8322    0.0000 C   0  0  0  0  0  0  0  0  0  0  0  0
    3.3037   -4.2221    0.0000 C   0  0  0  0  0  0  0  0  0  0  0  0
    2.0046   -4.9721    0.0000 N   0  0  0  0  0  0  0  0  0  0  0  0
    0.8899   -3.9684    0.0000 C   0  0  0  0  0  0  0  0  0  0  0  0
    1.5000   -2.5981    0.0000 C   0  0  0  0  0  0  0  0  0  0  0  0
    0.7500   -1.2990    0.0000 C   0  0  0  0  0  0  0  0  0  0  0  0
    1.5000    0.0000    0.0000 N   0  0  0  0  0  0  0  0  0  0  0  0
    0.7500    1.2990    0.0000 C   0  0  0  0  0  0  0  0  0  0  0  0
    1.5000    2.5981    0.0000 N   0  0  0  0  0  0  0  0  0  0  0  0
    3.0000    2.5981    0.0000 C   0  0  0  0  0  0  0  0  0  0  0  0
    3.7500    1.2990    0.0000 C   0  0  0  0  0  0  0  0  0  0  0  0
    5.2500    1.2990    0.0000 C   0  0  0  0  0  0  0  0  0  0  0  0
    6.0000    2.5981    0.0000 C   0  0  0  0  0  0  0  0  0  0  0  0
    7.5000    2.5981    0.0000 C   0  0  0  0  0  0  0  0  0  0  0  0
    8.2500    3.8971    0.0000 O   0  0  0  0  0  0  0  0  0  0  0  0
    8.2500    1.2990    0.0000 N   0  0  0  0  0  0  0  0  0  0  0  0
    9.7418    1.1422    0.0000 C   0  0  0  0  0  0  0  0  0  0  0  0
   10.0537   -0.3250    0.0000 C   0  0  0  0  0  0  0  0  0  0  0  0
    8.7546   -1.0750    0.0000 C   0  0  0  0  0  0  0  0  0  0  0  0
    8.5978   -2.5668    0.0000 N   0  0  0  0  0  0  0  0  0  0  0  0
    7.2275   -3.1769    0.0000 C   0  0  0  0  0  0  0  0  0  0  0  0
    9.8113   -3.4484    0.0000 C   0  0  0  0  0  0  0  0  0  0  0  0
    7.6399   -0.0713    0.0000 C   0  0  0  0  0  0  0  0  0  0  0  0
    5.2500    3.8971    0.0000 C   0  0  0  0  0  0  0  0  0  0  0  0
    3.7500    3.8971    0.0000 C   0  0  0  0  0  0  0  0  0  0  0  0
   -0.7500    1.2990    0.0000 N   0  0  0  0  0  0  0  0  0  0  0  0
   -1.5000    0.0000    0.0000 C   0  0  0  0  0  0  0  0  0  0  0  0
   -0.7500   -1.2990    0.0000 C   0  0  0  0  0  0  0  0  0  0  0  0
   -1.5000   -2.5981    0.0000 F   0  0  0  0  0  0  0  0  0  0  0  0
    2.9918   -2.7549    0.0000 N   0  0  0  0  0  0  0  0  0  0  0  0
    3.9955   -1.6402    0.0000 C   0  0  0  0  0  0  0  0  0  0  0  0
    5.4627   -1.9520    0.0000 C   0  0  0  0  0  0  0  0  0  0  0  0
    3.5320   -0.2136    0.0000 C   0  0  0  0  0  0  0  0  0  0  0  0
  1  2  1  0
  2  3  2  0
  3  4  1  0
  4  5  2  0
  5  6  1  0
  6  7  2  0
  7  8  1  0
  8  9  1  0
  9 10  1  0
 10 11  2  0
 11 12  1  0
 12 13  2  0
 13 14  1  0
 14 15  2  0
 14 16  1  0
 16 17  1  0
 17 18  1  0
 18 19  1  0
 19 20  1  6
 20 21  1  0
 20 22  1  0
 19 23  1  0
 13 24  1  0
 24 25  2  0
  8 26  2  0
 26 27  1  0
 27 28  2  0
 28 29  1  0
  5 30  1  0
 30 31  1  0
 31 32  1  0
 31 33  1  0
 30  2  1  0
 28  6  1  0
 25 10  1  0
 23 16  1  0
M  END
>  <Compound_ID>  (82) 
CHEMBL460102

>  <Active>  (82) 
1

>  <Smiles>  (82) 
Cc1ncc(-c2nc(Nc3ccc(C(=O)N4CC[C@H](N(C)C)C4)cc3)ncc2F)n1C(C)C

>  <canonical_smi>  (82) 
Cc1ncc(-c2nc(Nc3ccc(C(=O)N4CC[C@H](N(C)C)C4)cc3)ncc2F)n1C(C)C

>  <Set>  (82) 
G2 active

>  <Set_type>  (82) 
Train

>  <MW>  (82) 
451.55

>  <HBD>  (82) 
1

>  <HBA>  (82) 
6

>  <NRB>  (82) 
6

>  <NR>  (82) 
4

>  <NAR>  (82) 
3

>  <PSA>  (82) 
79.18

>  <Standard Type>  (82) 
nan

>  <Standard Relation>  (82) 
nan

>  <Standard Units>  (82) 
nan

>  <Standard Value>  (82) 
nan

>  <Assay ChEMBL ID>  (82) 
nan

>  <Assay Description>  (82) 
nan

>  <BAO Label>  (82) 
nan

$$$$

     RDKit          2D

 33 36  0  0  0  0  0  0  0  0999 V2000
   15.7341   -0.5212    0.0000 C   0  0  0  0  0  0  0  0  0  0  0  0
   14.4027   -1.2122    0.0000 C   0  0  0  0  0  0  0  0  0  0  0  0
   14.1792   -2.6955    0.0000 N   0  0  0  0  0  0  0  0  0  0  0  0
   12.6994   -2.9412    0.0000 C   0  0  0  0  0  0  0  0  0  0  0  0
   12.0085   -1.6098    0.0000 C   0  0  0  0  0  0  0  0  0  0  0  0
   10.5252   -1.3862    0.0000 C   0  0  0  0  0  0  0  0  0  0  0  0
    9.9772    0.0101    0.0000 N   0  0  0  0  0  0  0  0  0  0  0  0
    8.4940    0.2336    0.0000 C   0  0  0  0  0  0  0  0  0  0  0  0
    7.9460    1.6299    0.0000 N   0  0  0  0  0  0  0  0  0  0  0  0
    6.4627    1.8535    0.0000 C   0  0  0  0  0  0  0  0  0  0  0  0
    5.9147    3.2498    0.0000 C   0  0  0  0  0  0  0  0  0  0  0  0
    4.4315    3.4734    0.0000 C   0  0  0  0  0  0  0  0  0  0  0  0
    3.4962    2.3006    0.0000 C   0  0  0  0  0  0  0  0  0  0  0  0
    2.0130    2.5242    0.0000 C   0  0  0  0  0  0  0  0  0  0  0  0
    1.4650    3.9205    0.0000 O   0  0  0  0  0  0  0  0  0  0  0  0
    1.0777    1.3515    0.0000 N   0  0  0  0  0  0  0  0  0  0  0  0
    1.7286    0.0000    0.0000 C   0  0  0  0  0  0  0  0  0  0  0  0
    1.0777   -1.3515    0.0000 C   0  0  0  0  0  0  0  0  0  0  0  0
   -0.3846   -1.6852    0.0000 C   0  0  0  0  0  0  0  0  0  0  0  0
   -1.5574   -0.7500    0.0000 N   0  0  0  0  0  0  0  0  0  0  0  0
   -2.9088   -1.4008    0.0000 C   0  0  0  0  0  0  0  0  0  0  0  0
   -1.5574    0.7500    0.0000 C   0  0  0  0  0  0  0  0  0  0  0  0
   -0.3846    1.6852    0.0000 C   0  0  0  0  0  0  0  0  0  0  0  0
    4.0442    0.9043    0.0000 C   0  0  0  0  0  0  0  0  0  0  0  0
    5.5275    0.6808    0.0000 C   0  0  0  0  0  0  0  0  0  0  0  0
    7.5587   -0.9391    0.0000 N   0  0  0  0  0  0  0  0  0  0  0  0
    8.1068   -2.3354    0.0000 C   0  0  0  0  0  0  0  0  0  0  0  0
    9.5900   -2.5590    0.0000 C   0  0  0  0  0  0  0  0  0  0  0  0
   10.1380   -3.9553    0.0000 F   0  0  0  0  0  0  0  0  0  0  0  0
   13.0612   -0.5412    0.0000 N   0  0  0  0  0  0  0  0  0  0  0  0
   12.8155    0.9385    0.0000 C   0  0  0  0  0  0  0  0  0  0  0  0
   11.4111    1.4656    0.0000 C   0  0  0  0  0  0  0  0  0  0  0  0
   13.9741    1.8912    0.0000 C   0  0  0  0  0  0  0  0  0  0  0  0
  1  2  1  0
  2  3  2  0
  3  4  1  0
  4  5  2  0
  5  6  1  0
  6  7  2  0
  7  8  1  0
  8  9  1  0
  9 10  1  0
 10 11  2  0
 11 12  1  0
 12 13  2  0
 13 14  1  0
 14 15  2  0
 14 16  1  0
 16 17  1  0
 17 18  1  0
 18 19  1  0
 19 20  1  0
 20 21  1  0
 20 22  1  0
 22 23  1  0
 13 24  1  0
 24 25  2  0
  8 26  2  0
 26 27  1  0
 27 28  2  0
 28 29  1  0
  5 30  1  0
 30 31  1  0
 31 32  1  0
 31 33  1  0
 30  2  1  0
 28  6  1  0
 25 10  1  0
 23 16  1  0
M  END
>  <Compound_ID>  (83) 
CHEMBL462192

>  <Active>  (83) 
1

>  <Smiles>  (83) 
Cc1ncc(-c2nc(Nc3ccc(C(=O)N4CCCN(C)CC4)cc3)ncc2F)n1C(C)C

>  <canonical_smi>  (83) 
Cc1ncc(-c2nc(Nc3ccc(C(=O)N4CCCN(C)CC4)cc3)ncc2F)n1C(C)C

>  <Set>  (83) 
G2 active

>  <Set_type>  (83) 
Train

>  <MW>  (83) 
451.55

>  <HBD>  (83) 
1

>  <HBA>  (83) 
6

>  <NRB>  (83) 
5

>  <NR>  (83) 
4

>  <NAR>  (83) 
3

>  <PSA>  (83) 
79.18

>  <Standard Type>  (83) 
nan

>  <Standard Relation>  (83) 
nan

>  <Standard Units>  (83) 
nan

>  <Standard Value>  (83) 
nan

>  <Assay ChEMBL ID>  (83) 
nan

>  <Assay Description>  (83) 
nan

>  <BAO Label>  (83) 
nan

$$$$

     RDKit          2D

 31 35  0  0  0  0  0  0  0  0999 V2000
   -3.7500  -11.6913    0.0000 C   0  0  0  0  0  0  0  0  0  0  0  0
   -3.0000  -10.3923    0.0000 N   0  0  0  0  0  0  0  0  0  0  0  0
   -3.7500   -9.0933    0.0000 C   0  0  0  0  0  0  0  0  0  0  0  0
   -3.0000   -7.7942    0.0000 C   0  0  0  0  0  0  0  0  0  0  0  0
   -1.5000   -7.7942    0.0000 N   0  0  0  0  0  0  0  0  0  0  0  0
   -0.7500   -6.4952    0.0000 C   0  0  0  0  0  0  0  0  0  0  0  0
    0.7500   -6.4952    0.0000 C   0  0  0  0  0  0  0  0  0  0  0  0
    1.5000   -5.1962    0.0000 C   0  0  0  0  0  0  0  0  0  0  0  0
    0.7500   -3.8971    0.0000 C   0  0  0  0  0  0  0  0  0  0  0  0
    1.5000   -2.5981    0.0000 N   0  0  0  0  0  0  0  0  0  0  0  0
    0.7500   -1.2990    0.0000 C   0  0  0  0  0  0  0  0  0  0  0  0
    1.5000    0.0000    0.0000 N   0  0  0  0  0  0  0  0  0  0  0  0
    0.7500    1.2990    0.0000 C   0  0  0  0  0  0  0  0  0  0  0  0
   -0.7500    1.2990    0.0000 C   0  0  0  0  0  0  0  0  0  0  0  0
   -1.5000    0.0000    0.0000 C   0  0  0  0  0  0  0  0  0  0  0  0
   -0.7500   -1.2990    0.0000 N   0  0  0  0  0  0  0  0  0  0  0  0
   -3.0000    0.0000    0.0000 C   0  0  0  0  0  0  0  0  0  0  0  0
   -3.7500    1.2990    0.0000 C   0  0  0  0  0  0  0  0  0  0  0  0
   -5.2172    0.9872    0.0000 C   0  0  0  0  0  0  0  0  0  0  0  0
   -6.3319    1.9909    0.0000 C   0  0  0  0  0  0  0  0  0  0  0  0
   -7.7585    1.5273    0.0000 N   0  0  0  0  0  0  0  0  0  0  0  0
   -6.0201    3.4581    0.0000 O   0  0  0  0  0  0  0  0  0  0  0  0
   -5.3740   -0.5046    0.0000 N   0  0  0  0  0  0  0  0  0  0  0  0
   -4.0037   -1.1147    0.0000 N   0  0  0  0  0  0  0  0  0  0  0  0
   -3.6918   -2.5819    0.0000 C   0  0  0  0  0  0  0  0  0  0  0  0
   -3.0000    2.5981    0.0000 C   0  0  0  0  0  0  0  0  0  0  0  0
   -1.5000    2.5981    0.0000 C   0  0  0  0  0  0  0  0  0  0  0  0
   -0.7500   -3.8971    0.0000 C   0  0  0  0  0  0  0  0  0  0  0  0
   -1.5000   -5.1962    0.0000 C   0  0  0  0  0  0  0  0  0  0  0  0
   -0.7500   -9.0933    0.0000 C   0  0  0  0  0  0  0  0  0  0  0  0
   -1.5000  -10.3923    0.0000 C   0  0  0  0  0  0  0  0  0  0  0  0
  1  2  1  0
  2  3  1  0
  3  4  1  0
  4  5  1  0
  5  6  1  0
  6  7  2  0
  7  8  1  0
  8  9  2  0
  9 10  1  0
 10 11  1  0
 11 12  2  0
 12 13  1  0
 13 14  2  0
 14 15  1  0
 15 16  2  0
 15 17  1  0
 17 18  2  0
 18 19  1  0
 19 20  1  0
 20 21  1  0
 20 22  2  0
 19 23  2  0
 23 24  1  0
 24 25  1  0
 18 26  1  0
 26 27  1  0
  9 28  1  0
 28 29  2  0
  5 30  1  0
 30 31  1  0
 31  2  1  0
 29  6  1  0
 16 11  1  0
 24 17  1  0
 27 14  1  0
M  END
>  <Compound_ID>  (84) 
CHEMBL560817

>  <Active>  (84) 
1

>  <Smiles>  (84) 
CN1CCN(c2ccc(Nc3ncc4c(n3)-c3c(c(C(N)=O)nn3C)CC4)cc2)CC1

>  <canonical_smi>  (84) 
CN1CCN(c2ccc(Nc3ncc4c(n3)-c3c(c(C(N)=O)nn3C)CC4)cc2)CC1

>  <Set>  (84) 
G2 active

>  <Set_type>  (84) 
Train

>  <MW>  (84) 
418.51

>  <HBD>  (84) 
2

>  <HBA>  (84) 
7

>  <NRB>  (84) 
4

>  <NR>  (84) 
5

>  <NAR>  (84) 
3

>  <PSA>  (84) 
105.2

>  <Standard Type>  (84) 
nan

>  <Standard Relation>  (84) 
nan

>  <Standard Units>  (84) 
nan

>  <Standard Value>  (84) 
nan

>  <Assay ChEMBL ID>  (84) 
nan

>  <Assay Description>  (84) 
nan

>  <BAO Label>  (84) 
nan

$$$$

     RDKit          2D

 32 35  0  0  0  0  0  0  0  0999 V2000
  -10.5738    5.8451    0.0000 C   0  0  0  0  0  0  0  0  0  0  0  0
   -9.1472    6.3086    0.0000 N   0  0  0  0  0  0  0  0  0  0  0  0
   -8.8353    7.7759    0.0000 C   0  0  0  0  0  0  0  0  0  0  0  0
   -8.0325    5.3050    0.0000 S   0  0  0  0  0  0  0  0  0  0  0  0
   -7.0288    6.4197    0.0000 O   0  0  0  0  0  0  0  0  0  0  0  0
   -9.0362    4.1902    0.0000 O   0  0  0  0  0  0  0  0  0  0  0  0
   -6.9177    4.3013    0.0000 C   0  0  0  0  0  0  0  0  0  0  0  0
   -5.4912    4.7648    0.0000 C   0  0  0  0  0  0  0  0  0  0  0  0
   -4.3764    3.7611    0.0000 C   0  0  0  0  0  0  0  0  0  0  0  0
   -4.6883    2.2939    0.0000 C   0  0  0  0  0  0  0  0  0  0  0  0
   -3.5736    1.2902    0.0000 N   0  0  0  0  0  0  0  0  0  0  0  0
   -2.1470    1.7537    0.0000 C   0  0  0  0  0  0  0  0  0  0  0  0
   -1.8351    3.2209    0.0000 C   0  0  0  0  0  0  0  0  0  0  0  0
   -0.4086    3.6844    0.0000 C   0  0  0  0  0  0  0  0  0  0  0  0
   -0.0967    5.1517    0.0000 N   0  0  0  0  0  0  0  0  0  0  0  0
    1.3299    5.6152    0.0000 C   0  0  0  0  0  0  0  0  0  0  0  0
    2.4446    4.6115    0.0000 C   0  0  0  0  0  0  0  0  0  0  0  0
    3.8712    5.0750    0.0000 C   0  0  0  0  0  0  0  0  0  0  0  0
    4.1831    6.5422    0.0000 C   0  0  0  0  0  0  0  0  0  0  0  0
    5.6097    7.0058    0.0000 N   0  0  0  0  0  0  0  0  0  0  0  0
    3.0684    7.5459    0.0000 C   0  0  0  0  0  0  0  0  0  0  0  0
    1.6418    7.0824    0.0000 C   0  0  0  0  0  0  0  0  0  0  0  0
    0.7062    2.6807    0.0000 N   0  0  0  0  0  0  0  0  0  0  0  0
    0.3943    1.2135    0.0000 C   0  0  0  0  0  0  0  0  0  0  0  0
    1.2760    0.0000    0.0000 C   0  0  0  0  0  0  0  0  0  0  0  0
    2.7760    0.0000    0.0000 Br  0  0  0  0  0  0  0  0  0  0  0  0
    0.3943   -1.2135    0.0000 C   0  0  0  0  0  0  0  0  0  0  0  0
   -1.0323   -0.7500    0.0000 N   0  0  0  0  0  0  0  0  0  0  0  0
   -1.0323    0.7500    0.0000 N   0  0  0  0  0  0  0  0  0  0  0  0
   -6.1149    1.8303    0.0000 C   0  0  0  0  0  0  0  0  0  0  0  0
   -7.2296    2.8340    0.0000 C   0  0  0  0  0  0  0  0  0  0  0  0
   -8.6562    2.3705    0.0000 Cl  0  0  0  0  0  0  0  0  0  0  0  0
  1  2  1  0
  2  3  1  0
  2  4  1  0
  4  5  2  0
  4  6  2  0
  4  7  1  0
  7  8  2  0
  8  9  1  0
  9 10  2  0
 10 11  1  0
 11 12  1  0
 12 13  2  0
 13 14  1  0
 14 15  1  0
 15 16  1  0
 16 17  1  0
 17 18  1  0
 18 19  1  0
 19 20  1  0
 19 21  1  0
 21 22  1  0
 14 23  2  0
 23 24  1  0
 24 25  2  0
 25 26  1  0
 25 27  1  0
 27 28  2  0
 28 29  1  0
 10 30  1  0
 30 31  2  0
 31 32  1  0
 31  7  1  0
 29 12  1  0
 22 16  1  0
 29 24  1  0
M  END
>  <Compound_ID>  (85) 
CHEMBL178769

>  <Active>  (85) 
1

>  <Smiles>  (85) 
CN(C)S(=O)(=O)c1ccc(Nc2cc(NC3CCC(N)CC3)nc3c(Br)cnn23)cc1Cl

>  <canonical_smi>  (85) 
CN(C)S(=O)(=O)c1ccc(Nc2cc(NC3CCC(N)CC3)nc3c(Br)cnn23)cc1Cl

>  <Set>  (85) 
G2 active

>  <Set_type>  (85) 
Train

>  <MW>  (85) 
542.89

>  <HBD>  (85) 
3

>  <HBA>  (85) 
7

>  <NRB>  (85) 
6

>  <NR>  (85) 
4

>  <NAR>  (85) 
3

>  <PSA>  (85) 
117.65

>  <Standard Type>  (85) 
nan

>  <Standard Relation>  (85) 
nan

>  <Standard Units>  (85) 
nan

>  <Standard Value>  (85) 
nan

>  <Assay ChEMBL ID>  (85) 
nan

>  <Assay Description>  (85) 
nan

>  <BAO Label>  (85) 
nan

$$$$

     RDKit          2D

 31 33  0  0  0  0  0  0  0  0999 V2000
    3.7500   -1.2990    0.0000 C   0  0  0  0  0  0  0  0  0  0  0  0
    3.0000    0.0000    0.0000 O   0  0  0  0  0  0  0  0  0  0  0  0
    1.5000    0.0000    0.0000 C   0  0  0  0  0  0  0  0  0  0  0  0
    0.7500   -1.2990    0.0000 C   0  0  0  0  0  0  0  0  0  0  0  0
   -0.7500   -1.2990    0.0000 C   0  0  0  0  0  0  0  0  0  0  0  0
   -1.5000   -2.5981    0.0000 F   0  0  0  0  0  0  0  0  0  0  0  0
   -1.5000    0.0000    0.0000 C   0  0  0  0  0  0  0  0  0  0  0  0
   -3.0000    0.0000    0.0000 F   0  0  0  0  0  0  0  0  0  0  0  0
   -0.7500    1.2990    0.0000 C   0  0  0  0  0  0  0  0  0  0  0  0
   -1.5000    2.5981    0.0000 F   0  0  0  0  0  0  0  0  0  0  0  0
    0.7500    1.2990    0.0000 C   0  0  0  0  0  0  0  0  0  0  0  0
    1.5000    2.5981    0.0000 C   0  0  0  0  0  0  0  0  0  0  0  0
    0.7500    3.8971    0.0000 O   0  0  0  0  0  0  0  0  0  0  0  0
    3.0000    2.5981    0.0000 C   0  0  0  0  0  0  0  0  0  0  0  0
    3.7500    1.2990    0.0000 C   0  0  0  0  0  0  0  0  0  0  0  0
    5.2500    1.2990    0.0000 N   0  0  0  0  0  0  0  0  0  0  0  0
    6.0000    2.5981    0.0000 C   0  0  0  0  0  0  0  0  0  0  0  0
    7.5000    2.5981    0.0000 N   0  0  0  0  0  0  0  0  0  0  0  0
    8.2500    1.2990    0.0000 C   0  0  0  0  0  0  0  0  0  0  0  0
    7.5000   -0.0000    0.0000 C   0  0  0  0  0  0  0  0  0  0  0  0
    8.2500   -1.2990    0.0000 C   0  0  0  0  0  0  0  0  0  0  0  0
    9.7500   -1.2990    0.0000 N   0  0  0  0  0  0  0  0  0  0  0  0
   10.5000   -2.5981    0.0000 S   0  0  0  0  0  0  0  0  0  0  0  0
   11.2500   -3.8971    0.0000 C   0  0  0  0  0  0  0  0  0  0  0  0
   11.7990   -1.8481    0.0000 O   0  0  0  0  0  0  0  0  0  0  0  0
    9.2010   -3.3481    0.0000 O   0  0  0  0  0  0  0  0  0  0  0  0
   10.5000   -0.0000    0.0000 C   0  0  0  0  0  0  0  0  0  0  0  0
    9.7500    1.2990    0.0000 C   0  0  0  0  0  0  0  0  0  0  0  0
    5.2500    3.8971    0.0000 N   0  0  0  0  0  0  0  0  0  0  0  0
    3.7500    3.8971    0.0000 C   0  0  0  0  0  0  0  0  0  0  0  0
    3.0000    5.1962    0.0000 N   0  0  0  0  0  0  0  0  0  0  0  0
  1  2  1  0
  2  3  1  0
  3  4  2  0
  4  5  1  0
  5  6  1  0
  5  7  2  0
  7  8  1  0
  7  9  1  0
  9 10  1  0
  9 11  2  0
 11 12  1  0
 12 13  2  0
 12 14  1  0
 14 15  2  0
 15 16  1  0
 16 17  2  0
 17 18  1  0
 18 19  1  0
 19 20  1  0
 20 21  1  0
 21 22  1  0
 22 23  1  0
 23 24  1  0
 23 25  2  0
 23 26  2  0
 22 27  1  0
 27 28  1  0
 17 29  1  0
 29 30  2  0
 30 31  1  0
 11  3  1  0
 30 14  1  0
 28 19  1  0
M  END
>  <Compound_ID>  (86) 
CHEMBL213713

>  <Active>  (86) 
1

>  <Smiles>  (86) 
COc1cc(F)c(F)c(F)c1C(=O)c1cnc(NC2CCN(S(C)(=O)=O)CC2)nc1N

>  <canonical_smi>  (86) 
COc1cc(F)c(F)c(F)c1C(=O)c1cnc(NC2CCN(S(C)(=O)=O)CC2)nc1N

>  <Set>  (86) 
G2 active

>  <Set_type>  (86) 
Train

>  <MW>  (86) 
459.45

>  <HBD>  (86) 
2

>  <HBA>  (86) 
8

>  <NRB>  (86) 
6

>  <NR>  (86) 
3

>  <NAR>  (86) 
2

>  <PSA>  (86) 
127.51

>  <Standard Type>  (86) 
nan

>  <Standard Relation>  (86) 
nan

>  <Standard Units>  (86) 
nan

>  <Standard Value>  (86) 
nan

>  <Assay ChEMBL ID>  (86) 
nan

>  <Assay Description>  (86) 
nan

>  <BAO Label>  (86) 
nan

$$$$

     RDKit          2D

 26 29  0  0  0  0  0  0  0  0999 V2000
   -9.6388   -6.1973    0.0000 N   0  0  0  0  0  0  0  0  0  0  0  0
   -8.8888   -4.8983    0.0000 S   0  0  0  0  0  0  0  0  0  0  0  0
  -10.1878   -4.1483    0.0000 O   0  0  0  0  0  0  0  0  0  0  0  0
   -7.5897   -5.6483    0.0000 O   0  0  0  0  0  0  0  0  0  0  0  0
   -8.1388   -3.5992    0.0000 C   0  0  0  0  0  0  0  0  0  0  0  0
   -8.8888   -2.3002    0.0000 C   0  0  0  0  0  0  0  0  0  0  0  0
   -8.1388   -1.0012    0.0000 C   0  0  0  0  0  0  0  0  0  0  0  0
   -6.6388   -1.0012    0.0000 C   0  0  0  0  0  0  0  0  0  0  0  0
   -5.8888    0.2979    0.0000 N   0  0  0  0  0  0  0  0  0  0  0  0
   -4.3888    0.2979    0.0000 N   0  0  0  0  0  0  0  0  0  0  0  0
   -3.6388    1.5969    0.0000 C   0  0  0  0  0  0  0  0  0  0  0  0
   -4.2489    2.9672    0.0000 C   0  0  0  0  0  0  0  0  0  0  0  0
   -5.7161    3.2791    0.0000 O   0  0  0  0  0  0  0  0  0  0  0  0
   -3.1342    3.9709    0.0000 N   0  0  0  0  0  0  0  0  0  0  0  0
   -1.8351    3.2209    0.0000 C   0  0  0  0  0  0  0  0  0  0  0  0
   -0.4086    3.6844    0.0000 C   0  0  0  0  0  0  0  0  0  0  0  0
    0.7062    2.6807    0.0000 C   0  0  0  0  0  0  0  0  0  0  0  0
    0.3943    1.2135    0.0000 C   0  0  0  0  0  0  0  0  0  0  0  0
    1.2760    0.0000    0.0000 N   0  0  0  0  0  0  0  0  0  0  0  0
    0.3943   -1.2135    0.0000 N   0  0  0  0  0  0  0  0  0  0  0  0
   -1.0323   -0.7500    0.0000 C   0  0  0  0  0  0  0  0  0  0  0  0
   -2.2458   -1.6317    0.0000 Cl  0  0  0  0  0  0  0  0  0  0  0  0
   -1.0323    0.7500    0.0000 C   0  0  0  0  0  0  0  0  0  0  0  0
   -2.1470    1.7537    0.0000 C   0  0  0  0  0  0  0  0  0  0  0  0
   -5.8888   -2.3002    0.0000 C   0  0  0  0  0  0  0  0  0  0  0  0
   -6.6388   -3.5992    0.0000 C   0  0  0  0  0  0  0  0  0  0  0  0
  1  2  1  0
  2  3  2  0
  2  4  2  0
  2  5  1  0
  5  6  2  0
  6  7  1  0
  7  8  2  0
  8  9  1  0
  9 10  2  3
 10 11  1  0
 11 12  2  0
 12 13  1  0
 12 14  1  0
 14 15  1  0
 15 16  2  0
 16 17  1  0
 17 18  2  0
 18 19  1  0
 19 20  1  0
 20 21  2  0
 21 22  1  0
 21 23  1  0
 23 24  2  0
  8 25  1  0
 25 26  2  0
 26  5  1  0
 24 11  1  0
 24 15  1  0
 23 18  1  0
M  END
>  <Compound_ID>  (87) 
CHEMBL336906

>  <Active>  (87) 
1

>  <Smiles>  (87) 
NS(=O)(=O)c1ccc(N=Nc2c(O)[nH]c3ccc4[nH]nc(Cl)c4c23)cc1

>  <canonical_smi>  (87) 
NS(=O)(=O)c1ccc(N=Nc2c(O)[nH]c3ccc4[nH]nc(Cl)c4c23)cc1

>  <Set>  (87) 
G2 active

>  <Set_type>  (87) 
Train

>  <MW>  (87) 
390.81

>  <HBD>  (87) 
4

>  <HBA>  (87) 
4

>  <NRB>  (87) 
3

>  <NR>  (87) 
4

>  <NAR>  (87) 
4

>  <PSA>  (87) 
149.58

>  <Standard Type>  (87) 
nan

>  <Standard Relation>  (87) 
nan

>  <Standard Units>  (87) 
nan

>  <Standard Value>  (87) 
nan

>  <Assay ChEMBL ID>  (87) 
nan

>  <Assay Description>  (87) 
nan

>  <BAO Label>  (87) 
nan

$$$$

     RDKit          2D

 26 29  0  0  0  0  0  0  0  0999 V2000
   -9.6388   -6.1973    0.0000 N   0  0  0  0  0  0  0  0  0  0  0  0
   -8.8888   -4.8983    0.0000 S   0  0  0  0  0  0  0  0  0  0  0  0
  -10.1878   -4.1483    0.0000 O   0  0  0  0  0  0  0  0  0  0  0  0
   -7.5897   -5.6483    0.0000 O   0  0  0  0  0  0  0  0  0  0  0  0
   -8.1388   -3.5992    0.0000 C   0  0  0  0  0  0  0  0  0  0  0  0
   -8.8888   -2.3002    0.0000 C   0  0  0  0  0  0  0  0  0  0  0  0
   -8.1388   -1.0012    0.0000 C   0  0  0  0  0  0  0  0  0  0  0  0
   -6.6388   -1.0012    0.0000 C   0  0  0  0  0  0  0  0  0  0  0  0
   -5.8888    0.2979    0.0000 N   0  0  0  0  0  0  0  0  0  0  0  0
   -4.3888    0.2979    0.0000 N   0  0  0  0  0  0  0  0  0  0  0  0
   -3.6388    1.5969    0.0000 C   0  0  0  0  0  0  0  0  0  0  0  0
   -4.2489    2.9672    0.0000 C   0  0  0  0  0  0  0  0  0  0  0  0
   -5.7161    3.2791    0.0000 O   0  0  0  0  0  0  0  0  0  0  0  0
   -3.1342    3.9709    0.0000 N   0  0  0  0  0  0  0  0  0  0  0  0
   -1.8351    3.2209    0.0000 C   0  0  0  0  0  0  0  0  0  0  0  0
   -0.4086    3.6844    0.0000 C   0  0  0  0  0  0  0  0  0  0  0  0
    0.7062    2.6807    0.0000 C   0  0  0  0  0  0  0  0  0  0  0  0
    0.3943    1.2135    0.0000 C   0  0  0  0  0  0  0  0  0  0  0  0
    1.2760    0.0000    0.0000 N   0  0  0  0  0  0  0  0  0  0  0  0
    0.3943   -1.2135    0.0000 N   0  0  0  0  0  0  0  0  0  0  0  0
   -1.0323   -0.7500    0.0000 C   0  0  0  0  0  0  0  0  0  0  0  0
   -2.2458   -1.6317    0.0000 Cl  0  0  0  0  0  0  0  0  0  0  0  0
   -1.0323    0.7500    0.0000 C   0  0  0  0  0  0  0  0  0  0  0  0
   -2.1470    1.7537    0.0000 C   0  0  0  0  0  0  0  0  0  0  0  0
   -5.8888   -2.3002    0.0000 C   0  0  0  0  0  0  0  0  0  0  0  0
   -6.6388   -3.5992    0.0000 C   0  0  0  0  0  0  0  0  0  0  0  0
  1  2  1  0
  2  3  2  0
  2  4  2  0
  2  5  1  0
  5  6  2  0
  6  7  1  0
  7  8  2  0
  8  9  1  0
  9 10  1  0
 10 11  2  0
 11 12  1  0
 12 13  2  0
 12 14  1  0
 14 15  1  0
 15 16  2  0
 16 17  1  0
 17 18  2  0
 18 19  1  0
 19 20  1  0
 20 21  2  0
 21 22  1  0
 21 23  1  0
 23 24  2  0
  8 25  1  0
 25 26  2  0
 26  5  1  0
 24 11  1  0
 24 15  1  0
 23 18  1  0
M  END
>  <Compound_ID>  (88) 
CHEMBL269882

>  <Active>  (88) 
1

>  <Smiles>  (88) 
NS(=O)(=O)c1ccc(N/N=C2\C(=O)Nc3ccc4[nH]nc(Cl)c4c32)cc1

>  <canonical_smi>  (88) 
NS(=O)(=O)c1ccc(N/N=C2\C(=O)Nc3ccc4[nH]nc(Cl)c4c32)cc1

>  <Set>  (88) 
G2 active

>  <Set_type>  (88) 
Train

>  <MW>  (88) 
390.81

>  <HBD>  (88) 
4

>  <HBA>  (88) 
5

>  <NRB>  (88) 
3

>  <NR>  (88) 
4

>  <NAR>  (88) 
3

>  <PSA>  (88) 
142.33

>  <Standard Type>  (88) 
nan

>  <Standard Relation>  (88) 
nan

>  <Standard Units>  (88) 
nan

>  <Standard Value>  (88) 
nan

>  <Assay ChEMBL ID>  (88) 
nan

>  <Assay Description>  (88) 
nan

>  <BAO Label>  (88) 
nan

$$$$

     RDKit          2D

 27 30  0  0  0  0  0  0  0  0999 V2000
  -10.0849   -6.9740    0.0000 N   0  0  0  0  0  0  0  0  0  0  0  0
   -8.6583   -6.5105    0.0000 S   0  0  0  0  0  0  0  0  0  0  0  0
   -9.1218   -5.0839    0.0000 O   0  0  0  0  0  0  0  0  0  0  0  0
   -8.1948   -7.9371    0.0000 O   0  0  0  0  0  0  0  0  0  0  0  0
   -7.2317   -6.0469    0.0000 C   0  0  0  0  0  0  0  0  0  0  0  0
   -6.9199   -4.5797    0.0000 C   0  0  0  0  0  0  0  0  0  0  0  0
   -5.4933   -4.1162    0.0000 C   0  0  0  0  0  0  0  0  0  0  0  0
   -4.3786   -5.1199    0.0000 C   0  0  0  0  0  0  0  0  0  0  0  0
   -2.9520   -4.6564    0.0000 N   0  0  0  0  0  0  0  0  0  0  0  0
   -2.6401   -3.1891    0.0000 N   0  0  0  0  0  0  0  0  0  0  0  0
   -1.2135   -2.7256    0.0000 C   0  0  0  0  0  0  0  0  0  0  0  0
   -0.0000   -3.6073    0.0000 C   0  0  0  0  0  0  0  0  0  0  0  0
    0.0000   -5.1073    0.0000 O   0  0  0  0  0  0  0  0  0  0  0  0
    1.2135   -2.7256    0.0000 N   0  0  0  0  0  0  0  0  0  0  0  0
    0.7500   -1.2990    0.0000 C   0  0  0  0  0  0  0  0  0  0  0  0
    1.5000    0.0000    0.0000 C   0  0  0  0  0  0  0  0  0  0  0  0
    0.7500    1.2990    0.0000 C   0  0  0  0  0  0  0  0  0  0  0  0
   -0.7500    1.2990    0.0000 C   0  0  0  0  0  0  0  0  0  0  0  0
   -1.5000    2.5981    0.0000 C   0  0  0  0  0  0  0  0  0  0  0  0
   -2.9918    2.7549    0.0000 C   0  0  0  0  0  0  0  0  0  0  0  0
   -3.3037    4.2221    0.0000 N   0  0  0  0  0  0  0  0  0  0  0  0
   -2.0046    4.9721    0.0000 C   0  0  0  0  0  0  0  0  0  0  0  0
   -0.8899    3.9684    0.0000 O   0  0  0  0  0  0  0  0  0  0  0  0
   -1.5000    0.0000    0.0000 C   0  0  0  0  0  0  0  0  0  0  0  0
   -0.7500   -1.2990    0.0000 C   0  0  0  0  0  0  0  0  0  0  0  0
   -4.6904   -6.5871    0.0000 C   0  0  0  0  0  0  0  0  0  0  0  0
   -6.1170   -7.0506    0.0000 C   0  0  0  0  0  0  0  0  0  0  0  0
  1  2  1  0
  2  3  2  0
  2  4  2  0
  2  5  1  0
  5  6  2  0
  6  7  1  0
  7  8  2  0
  8  9  1  0
  9 10  2  3
 10 11  1  0
 11 12  2  0
 12 13  1  0
 12 14  1  0
 14 15  1  0
 15 16  2  0
 16 17  1  0
 17 18  2  0
 18 19  1  0
 19 20  2  0
 20 21  1  0
 21 22  2  0
 22 23  1  0
 18 24  1  0
 24 25  2  0
  8 26  1  0
 26 27  2  0
 27  5  1  0
 25 11  1  0
 25 15  1  0
 23 19  1  0
M  END
>  <Compound_ID>  (89) 
CHEMBL315411

>  <Active>  (89) 
1

>  <Smiles>  (89) 
NS(=O)(=O)c1ccc(N=Nc2c(O)[nH]c3ccc(-c4cnco4)cc23)cc1

>  <canonical_smi>  (89) 
NS(=O)(=O)c1ccc(N=Nc2c(O)[nH]c3ccc(-c4cnco4)cc23)cc1

>  <Set>  (89) 
G2 active

>  <Set_type>  (89) 
Train

>  <MW>  (89) 
383.39

>  <HBD>  (89) 
3

>  <HBA>  (89) 
5

>  <NRB>  (89) 
4

>  <NR>  (89) 
4

>  <NAR>  (89) 
4

>  <PSA>  (89) 
146.93

>  <Standard Type>  (89) 
nan

>  <Standard Relation>  (89) 
nan

>  <Standard Units>  (89) 
nan

>  <Standard Value>  (89) 
nan

>  <Assay ChEMBL ID>  (89) 
nan

>  <Assay Description>  (89) 
nan

>  <BAO Label>  (89) 
nan

$$$$

     RDKit          2D

 27 30  0  0  0  0  0  0  0  0999 V2000
  -10.0849   -6.9740    0.0000 N   0  0  0  0  0  0  0  0  0  0  0  0
   -8.6583   -6.5105    0.0000 S   0  0  0  0  0  0  0  0  0  0  0  0
   -9.1218   -5.0839    0.0000 O   0  0  0  0  0  0  0  0  0  0  0  0
   -8.1948   -7.9371    0.0000 O   0  0  0  0  0  0  0  0  0  0  0  0
   -7.2317   -6.0469    0.0000 C   0  0  0  0  0  0  0  0  0  0  0  0
   -6.9199   -4.5797    0.0000 C   0  0  0  0  0  0  0  0  0  0  0  0
   -5.4933   -4.1162    0.0000 C   0  0  0  0  0  0  0  0  0  0  0  0
   -4.3786   -5.1199    0.0000 C   0  0  0  0  0  0  0  0  0  0  0  0
   -2.9520   -4.6564    0.0000 N   0  0  0  0  0  0  0  0  0  0  0  0
   -2.6401   -3.1891    0.0000 N   0  0  0  0  0  0  0  0  0  0  0  0
   -1.2135   -2.7256    0.0000 C   0  0  0  0  0  0  0  0  0  0  0  0
   -0.0000   -3.6073    0.0000 C   0  0  0  0  0  0  0  0  0  0  0  0
    0.0000   -5.1073    0.0000 O   0  0  0  0  0  0  0  0  0  0  0  0
    1.2135   -2.7256    0.0000 N   0  0  0  0  0  0  0  0  0  0  0  0
    0.7500   -1.2990    0.0000 C   0  0  0  0  0  0  0  0  0  0  0  0
    1.5000    0.0000    0.0000 C   0  0  0  0  0  0  0  0  0  0  0  0
    0.7500    1.2990    0.0000 C   0  0  0  0  0  0  0  0  0  0  0  0
   -0.7500    1.2990    0.0000 C   0  0  0  0  0  0  0  0  0  0  0  0
   -1.5000    2.5981    0.0000 C   0  0  0  0  0  0  0  0  0  0  0  0
   -2.9918    2.7549    0.0000 C   0  0  0  0  0  0  0  0  0  0  0  0
   -3.3037    4.2221    0.0000 N   0  0  0  0  0  0  0  0  0  0  0  0
   -2.0046    4.9721    0.0000 C   0  0  0  0  0  0  0  0  0  0  0  0
   -0.8899    3.9684    0.0000 O   0  0  0  0  0  0  0  0  0  0  0  0
   -1.5000    0.0000    0.0000 C   0  0  0  0  0  0  0  0  0  0  0  0
   -0.7500   -1.2990    0.0000 C   0  0  0  0  0  0  0  0  0  0  0  0
   -4.6904   -6.5871    0.0000 C   0  0  0  0  0  0  0  0  0  0  0  0
   -6.1170   -7.0506    0.0000 C   0  0  0  0  0  0  0  0  0  0  0  0
  1  2  1  0
  2  3  2  0
  2  4  2  0
  2  5  1  0
  5  6  2  0
  6  7  1  0
  7  8  2  0
  8  9  1  0
  9 10  1  0
 10 11  2  0
 11 12  1  0
 12 13  2  0
 12 14  1  0
 14 15  1  0
 15 16  2  0
 16 17  1  0
 17 18  2  0
 18 19  1  0
 19 20  2  0
 20 21  1  0
 21 22  2  0
 22 23  1  0
 18 24  1  0
 24 25  2  0
  8 26  1  0
 26 27  2  0
 27  5  1  0
 25 11  1  0
 25 15  1  0
 23 19  1  0
M  END
>  <Compound_ID>  (90) 
CHEMBL269827

>  <Active>  (90) 
1

>  <Smiles>  (90) 
NS(=O)(=O)c1ccc(N/N=C2\C(=O)Nc3ccc(-c4cnco4)cc32)cc1

>  <canonical_smi>  (90) 
NS(=O)(=O)c1ccc(N/N=C2\C(=O)Nc3ccc(-c4cnco4)cc32)cc1

>  <Set>  (90) 
G2 active

>  <Set_type>  (90) 
Train

>  <MW>  (90) 
383.39

>  <HBD>  (90) 
3

>  <HBA>  (90) 
6

>  <NRB>  (90) 
4

>  <NR>  (90) 
4

>  <NAR>  (90) 
3

>  <PSA>  (90) 
139.68

>  <Standard Type>  (90) 
nan

>  <Standard Relation>  (90) 
nan

>  <Standard Units>  (90) 
nan

>  <Standard Value>  (90) 
nan

>  <Assay ChEMBL ID>  (90) 
nan

>  <Assay Description>  (90) 
nan

>  <BAO Label>  (90) 
nan

$$$$

     RDKit          2D

 25 28  0  0  0  0  0  0  0  0999 V2000
   -9.6388   -6.1973    0.0000 N   0  0  0  0  0  0  0  0  0  0  0  0
   -8.8888   -4.8983    0.0000 S   0  0  0  0  0  0  0  0  0  0  0  0
  -10.1878   -4.1483    0.0000 O   0  0  0  0  0  0  0  0  0  0  0  0
   -7.5897   -5.6483    0.0000 O   0  0  0  0  0  0  0  0  0  0  0  0
   -8.1388   -3.5992    0.0000 C   0  0  0  0  0  0  0  0  0  0  0  0
   -8.8888   -2.3002    0.0000 C   0  0  0  0  0  0  0  0  0  0  0  0
   -8.1388   -1.0012    0.0000 C   0  0  0  0  0  0  0  0  0  0  0  0
   -6.6388   -1.0012    0.0000 C   0  0  0  0  0  0  0  0  0  0  0  0
   -5.8888    0.2979    0.0000 N   0  0  0  0  0  0  0  0  0  0  0  0
   -4.3888    0.2979    0.0000 C   0  0  0  0  0  0  0  0  0  0  0  0
   -3.6388    1.5969    0.0000 C   0  0  0  0  0  0  0  0  0  0  0  0
   -4.2489    2.9672    0.0000 C   0  0  0  0  0  0  0  0  0  0  0  0
   -5.7161    3.2791    0.0000 O   0  0  0  0  0  0  0  0  0  0  0  0
   -3.1342    3.9709    0.0000 N   0  0  0  0  0  0  0  0  0  0  0  0
   -1.8351    3.2209    0.0000 C   0  0  0  0  0  0  0  0  0  0  0  0
   -0.4086    3.6844    0.0000 C   0  0  0  0  0  0  0  0  0  0  0  0
    0.7062    2.6807    0.0000 C   0  0  0  0  0  0  0  0  0  0  0  0
    0.3943    1.2135    0.0000 C   0  0  0  0  0  0  0  0  0  0  0  0
    1.2760    0.0000    0.0000 N   0  0  0  0  0  0  0  0  0  0  0  0
    0.3943   -1.2135    0.0000 C   0  0  0  0  0  0  0  0  0  0  0  0
   -1.0323   -0.7500    0.0000 S   0  0  0  0  0  0  0  0  0  0  0  0
   -1.0323    0.7500    0.0000 C   0  0  0  0  0  0  0  0  0  0  0  0
   -2.1470    1.7537    0.0000 C   0  0  0  0  0  0  0  0  0  0  0  0
   -5.8888   -2.3002    0.0000 C   0  0  0  0  0  0  0  0  0  0  0  0
   -6.6388   -3.5992    0.0000 C   0  0  0  0  0  0  0  0  0  0  0  0
  1  2  1  0
  2  3  2  0
  2  4  2  0
  2  5  1  0
  5  6  2  0
  6  7  1  0
  7  8  2  0
  8  9  1  0
  9 10  1  0
 10 11  2  0
 11 12  1  0
 12 13  2  0
 12 14  1  0
 14 15  1  0
 15 16  2  0
 16 17  1  0
 17 18  2  0
 18 19  1  0
 19 20  2  0
 20 21  1  0
 21 22  1  0
 22 23  2  0
  8 24  1  0
 24 25  2  0
 25  5  1  0
 23 11  1  0
 23 15  1  0
 22 18  1  0
M  END
>  <Compound_ID>  (91) 
CHEMBL271595

>  <Active>  (91) 
1

>  <Smiles>  (91) 
NS(=O)(=O)c1ccc(N/C=C2\C(=O)Nc3ccc4ncsc4c32)cc1

>  <canonical_smi>  (91) 
NS(=O)(=O)c1ccc(N/C=C2\C(=O)Nc3ccc4ncsc4c32)cc1

>  <Set>  (91) 
G2 active

>  <Set_type>  (91) 
Train

>  <MW>  (91) 
372.43

>  <HBD>  (91) 
3

>  <HBA>  (91) 
5

>  <NRB>  (91) 
3

>  <NR>  (91) 
4

>  <NAR>  (91) 
3

>  <PSA>  (91) 
114.18

>  <Standard Type>  (91) 
nan

>  <Standard Relation>  (91) 
nan

>  <Standard Units>  (91) 
nan

>  <Standard Value>  (91) 
nan

>  <Assay ChEMBL ID>  (91) 
nan

>  <Assay Description>  (91) 
nan

>  <BAO Label>  (91) 
nan

$$$$

     RDKit          2D

 33 35  0  0  0  0  0  0  0  0999 V2000
   -3.2082  -15.6575    0.0000 C   0  0  0  0  0  0  0  0  0  0  0  0
   -1.9092  -16.4075    0.0000 C   0  0  0  0  0  0  0  0  0  0  0  0
   -0.6101  -17.1575    0.0000 C   0  0  0  0  0  0  0  0  0  0  0  0
   -2.6592  -17.7065    0.0000 C   0  0  0  0  0  0  0  0  0  0  0  0
   -1.1592  -15.1085    0.0000 C   0  0  0  0  0  0  0  0  0  0  0  0
    0.3326  -14.9517    0.0000 C   0  0  0  0  0  0  0  0  0  0  0  0
    0.6445  -13.4844    0.0000 N   0  0  0  0  0  0  0  0  0  0  0  0
   -0.6546  -12.7344    0.0000 C   0  0  0  0  0  0  0  0  0  0  0  0
   -0.8113  -11.2427    0.0000 C   0  0  0  0  0  0  0  0  0  0  0  0
    0.4022  -10.3610    0.0000 S   0  0  0  0  0  0  0  0  0  0  0  0
    0.2454   -8.8692    0.0000 C   0  0  0  0  0  0  0  0  0  0  0  0
   -1.0537   -8.1192    0.0000 C   0  0  0  0  0  0  0  0  0  0  0  0
   -0.7418   -6.6520    0.0000 N   0  0  0  0  0  0  0  0  0  0  0  0
    0.7500   -6.4952    0.0000 C   0  0  0  0  0  0  0  0  0  0  0  0
    1.5000   -5.1962    0.0000 N   0  0  0  0  0  0  0  0  0  0  0  0
    0.7500   -3.8971    0.0000 C   0  0  0  0  0  0  0  0  0  0  0  0
   -0.7500   -3.8971    0.0000 O   0  0  0  0  0  0  0  0  0  0  0  0
    1.5000   -2.5981    0.0000 C   0  0  0  0  0  0  0  0  0  0  0  0
    0.7500   -1.2990    0.0000 C   0  0  0  0  0  0  0  0  0  0  0  0
    1.5000    0.0000    0.0000 C   0  0  0  0  0  0  0  0  0  0  0  0
    0.7500    1.2990    0.0000 C   0  0  0  0  0  0  0  0  0  0  0  0
   -0.7500    1.2990    0.0000 C   0  0  0  0  0  0  0  0  0  0  0  0
   -1.5000    2.5981    0.0000 C   0  0  0  0  0  0  0  0  0  0  0  0
   -0.7500    3.8971    0.0000 N   0  0  0  0  0  0  0  0  0  0  0  0
   -1.5000    5.1962    0.0000 C   0  0  0  0  0  0  0  0  0  0  0  0
   -0.7500    6.4952    0.0000 C   0  0  0  0  0  0  0  0  0  0  0  0
   -1.5000    7.7942    0.0000 O   0  0  0  0  0  0  0  0  0  0  0  0
   -3.0000    5.1962    0.0000 C   0  0  0  0  0  0  0  0  0  0  0  0
   -3.7500    6.4952    0.0000 O   0  0  0  0  0  0  0  0  0  0  0  0
   -1.5000    0.0000    0.0000 C   0  0  0  0  0  0  0  0  0  0  0  0
   -0.7500   -1.2990    0.0000 C   0  0  0  0  0  0  0  0  0  0  0  0
    1.3601   -7.8655    0.0000 S   0  0  0  0  0  0  0  0  0  0  0  0
   -1.7693  -13.7381    0.0000 O   0  0  0  0  0  0  0  0  0  0  0  0
  1  2  1  0
  2  3  1  0
  2  4  1  0
  2  5  1  0
  5  6  2  0
  6  7  1  0
  7  8  2  0
  8  9  1  0
  9 10  1  0
 10 11  1  0
 11 12  2  0
 12 13  1  0
 13 14  2  0
 14 15  1  0
 15 16  1  0
 16 17  2  0
 16 18  1  0
 18 19  1  0
 19 20  2  0
 20 21  1  0
 21 22  2  0
 22 23  1  0
 23 24  1  0
 24 25  1  0
 25 26  1  0
 26 27  1  0
 25 28  1  0
 28 29  1  0
 22 30  1  0
 30 31  2  0
 14 32  1  0
  8 33  1  0
 33  5  1  0
 32 11  1  0
 31 19  1  0
M  END
>  <Compound_ID>  (92) 
CHEMBL300936

>  <Active>  (92) 
1

>  <Smiles>  (92) 
CC(C)(C)c1cnc(CSc2cnc(NC(=O)Cc3ccc(CNC(CO)CO)cc3)s2)o1

>  <canonical_smi>  (92) 
CC(C)(C)c1cnc(CSc2cnc(NC(=O)Cc3ccc(CNC(CO)CO)cc3)s2)o1

>  <Set>  (92) 
G2 active

>  <Set_type>  (92) 
Train

>  <MW>  (92) 
490.65

>  <HBD>  (92) 
4

>  <HBA>  (92) 
8

>  <NRB>  (92) 
11

>  <NR>  (92) 
3

>  <NAR>  (92) 
3

>  <PSA>  (92) 
120.51

>  <Standard Type>  (92) 
nan

>  <Standard Relation>  (92) 
nan

>  <Standard Units>  (92) 
nan

>  <Standard Value>  (92) 
nan

>  <Assay ChEMBL ID>  (92) 
nan

>  <Assay Description>  (92) 
nan

>  <BAO Label>  (92) 
nan

$$$$

     RDKit          2D

 26 28  0  0  0  0  0  0  0  0999 V2000
   -3.2082  -15.6575    0.0000 C   0  0  0  0  0  0  0  0  0  0  0  0
   -1.9092  -16.4075    0.0000 C   0  0  0  0  0  0  0  0  0  0  0  0
   -0.6101  -17.1575    0.0000 C   0  0  0  0  0  0  0  0  0  0  0  0
   -2.6592  -17.7065    0.0000 C   0  0  0  0  0  0  0  0  0  0  0  0
   -1.1592  -15.1085    0.0000 C   0  0  0  0  0  0  0  0  0  0  0  0
    0.3326  -14.9517    0.0000 N   0  0  0  0  0  0  0  0  0  0  0  0
    0.6445  -13.4844    0.0000 C   0  0  0  0  0  0  0  0  0  0  0  0
   -0.6546  -12.7344    0.0000 C   0  0  0  0  0  0  0  0  0  0  0  0
   -0.8113  -11.2427    0.0000 C   0  0  0  0  0  0  0  0  0  0  0  0
    0.4022  -10.3610    0.0000 S   0  0  0  0  0  0  0  0  0  0  0  0
    0.2454   -8.8692    0.0000 C   0  0  0  0  0  0  0  0  0  0  0  0
   -1.0537   -8.1192    0.0000 C   0  0  0  0  0  0  0  0  0  0  0  0
   -0.7418   -6.6520    0.0000 N   0  0  0  0  0  0  0  0  0  0  0  0
    0.7500   -6.4952    0.0000 C   0  0  0  0  0  0  0  0  0  0  0  0
    1.5000   -5.1962    0.0000 N   0  0  0  0  0  0  0  0  0  0  0  0
    0.7500   -3.8971    0.0000 C   0  0  0  0  0  0  0  0  0  0  0  0
   -0.7500   -3.8971    0.0000 O   0  0  0  0  0  0  0  0  0  0  0  0
    1.5000   -2.5981    0.0000 C   0  0  0  0  0  0  0  0  0  0  0  0
    0.7500   -1.2990    0.0000 C   0  0  0  0  0  0  0  0  0  0  0  0
    1.5000    0.0000    0.0000 C   0  0  0  0  0  0  0  0  0  0  0  0
    0.7500    1.2990    0.0000 C   0  0  0  0  0  0  0  0  0  0  0  0
   -0.7500    1.2990    0.0000 C   0  0  0  0  0  0  0  0  0  0  0  0
   -1.5000    0.0000    0.0000 C   0  0  0  0  0  0  0  0  0  0  0  0
   -0.7500   -1.2990    0.0000 C   0  0  0  0  0  0  0  0  0  0  0  0
    1.3601   -7.8655    0.0000 S   0  0  0  0  0  0  0  0  0  0  0  0
   -1.7693  -13.7381    0.0000 O   0  0  0  0  0  0  0  0  0  0  0  0
  1  2  1  0
  2  3  1  0
  2  4  1  0
  2  5  1  0
  5  6  2  0
  6  7  1  0
  7  8  2  0
  8  9  1  0
  9 10  1  0
 10 11  1  0
 11 12  2  0
 12 13  1  0
 13 14  2  0
 14 15  1  0
 15 16  1  0
 16 17  2  0
 16 18  1  0
 18 19  1  0
 19 20  2  0
 20 21  1  0
 21 22  2  0
 22 23  1  0
 23 24  2  0
 14 25  1  0
  8 26  1  0
 26  5  1  0
 25 11  1  0
 24 19  1  0
M  END
>  <Compound_ID>  (93) 
CHEMBL340904

>  <Active>  (93) 
1

>  <Smiles>  (93) 
CC(C)(C)c1ncc(CSc2cnc(NC(=O)Cc3ccccc3)s2)o1

>  <canonical_smi>  (93) 
CC(C)(C)c1ncc(CSc2cnc(NC(=O)Cc3ccccc3)s2)o1

>  <Set>  (93) 
G2 active

>  <Set_type>  (93) 
Train

>  <MW>  (93) 
387.53

>  <HBD>  (93) 
1

>  <HBA>  (93) 
5

>  <NRB>  (93) 
6

>  <NR>  (93) 
3

>  <NAR>  (93) 
3

>  <PSA>  (93) 
68.02

>  <Standard Type>  (93) 
nan

>  <Standard Relation>  (93) 
nan

>  <Standard Units>  (93) 
nan

>  <Standard Value>  (93) 
nan

>  <Assay ChEMBL ID>  (93) 
nan

>  <Assay Description>  (93) 
nan

>  <BAO Label>  (93) 
nan

$$$$

     RDKit          2D

 31 34  0  0  0  0  0  0  0  0999 V2000
    3.7500   -1.2990    0.0000 C   0  0  0  0  0  0  0  0  0  0  0  0
    3.0000    0.0000    0.0000 C   0  0  0  0  0  0  0  0  0  0  0  0
    3.7500    1.2990    0.0000 O   0  0  0  0  0  0  0  0  0  0  0  0
    1.5000    0.0000    0.0000 N   0  0  0  0  0  0  0  0  0  0  0  0
    0.7500   -1.2990    0.0000 C   0  0  0  0  0  0  0  0  0  0  0  0
   -0.7500   -1.2990    0.0000 C   0  0  0  0  0  0  0  0  0  0  0  0
   -1.5000    0.0000    0.0000 N   0  0  0  0  0  0  0  0  0  0  0  0
   -3.0000    0.0000    0.0000 C   0  0  0  0  0  0  0  0  0  0  0  0
   -3.7500    1.2990    0.0000 C   0  0  0  0  0  0  0  0  0  0  0  0
   -5.2500    1.2990    0.0000 C   0  0  0  0  0  0  0  0  0  0  0  0
   -6.0000    0.0000    0.0000 C   0  0  0  0  0  0  0  0  0  0  0  0
   -7.5000    0.0000    0.0000 N   0  0  0  0  0  0  0  0  0  0  0  0
   -8.2500    1.2990    0.0000 C   0  0  0  0  0  0  0  0  0  0  0  0
   -7.5000    2.5981    0.0000 N   0  0  0  0  0  0  0  0  0  0  0  0
   -8.2500    3.8971    0.0000 C   0  0  0  0  0  0  0  0  0  0  0  0
   -9.7500    3.8971    0.0000 C   0  0  0  0  0  0  0  0  0  0  0  0
  -10.5000    2.5981    0.0000 C   0  0  0  0  0  0  0  0  0  0  0  0
  -12.0000    2.5981    0.0000 C   0  0  0  0  0  0  0  0  0  0  0  0
  -12.8817    1.3846    0.0000 C   0  0  0  0  0  0  0  0  0  0  0  0
  -14.3083    1.8481    0.0000 N   0  0  0  0  0  0  0  0  0  0  0  0
  -14.3083    3.3481    0.0000 C   0  0  0  0  0  0  0  0  0  0  0  0
  -15.5218    4.2298    0.0000 C   0  0  0  0  0  0  0  0  0  0  0  0
  -12.8817    3.8116    0.0000 N   0  0  0  0  0  0  0  0  0  0  0  0
  -12.4182    5.2382    0.0000 C   0  0  0  0  0  0  0  0  0  0  0  0
  -13.4218    6.3529    0.0000 C   0  0  0  0  0  0  0  0  0  0  0  0
  -10.9509    5.5501    0.0000 C   0  0  0  0  0  0  0  0  0  0  0  0
   -9.7500    1.2990    0.0000 N   0  0  0  0  0  0  0  0  0  0  0  0
   -5.2500   -1.2990    0.0000 C   0  0  0  0  0  0  0  0  0  0  0  0
   -3.7500   -1.2990    0.0000 C   0  0  0  0  0  0  0  0  0  0  0  0
   -0.7500    1.2990    0.0000 C   0  0  0  0  0  0  0  0  0  0  0  0
    0.7500    1.2990    0.0000 C   0  0  0  0  0  0  0  0  0  0  0  0
  1  2  1  0
  2  3  2  0
  2  4  1  0
  4  5  1  0
  5  6  1  0
  6  7  1  0
  7  8  1  0
  8  9  2  0
  9 10  1  0
 10 11  2  0
 11 12  1  0
 12 13  1  0
 13 14  2  0
 14 15  1  0
 15 16  2  0
 16 17  1  0
 17 18  1  0
 18 19  2  0
 19 20  1  0
 20 21  2  0
 21 22  1  0
 21 23  1  0
 23 24  1  0
 24 25  1  0
 24 26  1  0
 17 27  2  0
 11 28  1  0
 28 29  2  0
  7 30  1  0
 30 31  1  0
 31  4  1  0
 29  8  1  0
 27 13  1  0
 23 18  1  0
M  END
>  <Compound_ID>  (94) 
CHEMBL477568

>  <Active>  (94) 
1

>  <Smiles>  (94) 
CC(=O)N1CCN(c2ccc(Nc3nccc(-c4cnc(C)n4C(C)C)n3)cc2)CC1

>  <canonical_smi>  (94) 
CC(=O)N1CCN(c2ccc(Nc3nccc(-c4cnc(C)n4C(C)C)n3)cc2)CC1

>  <Set>  (94) 
G2 active

>  <Set_type>  (94) 
Train

>  <MW>  (94) 
419.53

>  <HBD>  (94) 
1

>  <HBA>  (94) 
6

>  <NRB>  (94) 
5

>  <NR>  (94) 
4

>  <NAR>  (94) 
3

>  <PSA>  (94) 
79.18

>  <Standard Type>  (94) 
nan

>  <Standard Relation>  (94) 
nan

>  <Standard Units>  (94) 
nan

>  <Standard Value>  (94) 
nan

>  <Assay ChEMBL ID>  (94) 
nan

>  <Assay Description>  (94) 
nan

>  <BAO Label>  (94) 
nan

$$$$

     RDKit          2D

 26 28  0  0  0  0  0  0  0  0999 V2000
   -0.7500   -3.8971    0.0000 O   0  0  0  0  0  0  0  0  0  0  0  0
    0.7500   -3.8971    0.0000 C   0  0  0  0  0  0  0  0  0  0  0  0
    1.5000   -2.5981    0.0000 N   0  0  0  0  0  0  0  0  0  0  0  0
    0.7500   -1.2990    0.0000 C   0  0  0  0  0  0  0  0  0  0  0  0
    1.5000    0.0000    0.0000 C   0  0  0  0  0  0  0  0  0  0  0  0
    0.7500    1.2990    0.0000 C   0  0  0  0  0  0  0  0  0  0  0  0
   -0.7500    1.2990    0.0000 C   0  0  0  0  0  0  0  0  0  0  0  0
   -1.5000    2.5981    0.0000 F   0  0  0  0  0  0  0  0  0  0  0  0
   -1.5000    0.0000    0.0000 C   0  0  0  0  0  0  0  0  0  0  0  0
   -0.7500   -1.2990    0.0000 C   0  0  0  0  0  0  0  0  0  0  0  0
    1.5000   -5.1962    0.0000 C   0  0  0  0  0  0  0  0  0  0  0  0
    2.9918   -5.3529    0.0000 N   0  0  0  0  0  0  0  0  0  0  0  0
    3.3037   -6.8202    0.0000 N   0  0  0  0  0  0  0  0  0  0  0  0
    2.0046   -7.5702    0.0000 C   0  0  0  0  0  0  0  0  0  0  0  0
    0.8899   -6.5665    0.0000 C   0  0  0  0  0  0  0  0  0  0  0  0
   -0.5773   -6.8783    0.0000 N   0  0  0  0  0  0  0  0  0  0  0  0
   -1.0409   -8.3049    0.0000 C   0  0  0  0  0  0  0  0  0  0  0  0
   -0.0372   -9.4196    0.0000 O   0  0  0  0  0  0  0  0  0  0  0  0
   -2.5081   -8.6168    0.0000 C   0  0  0  0  0  0  0  0  0  0  0  0
   -3.5118   -7.5021    0.0000 C   0  0  0  0  0  0  0  0  0  0  0  0
   -3.0482   -6.0755    0.0000 F   0  0  0  0  0  0  0  0  0  0  0  0
   -4.9790   -7.8139    0.0000 C   0  0  0  0  0  0  0  0  0  0  0  0
   -5.4425   -9.2405    0.0000 C   0  0  0  0  0  0  0  0  0  0  0  0
   -4.4388  -10.3552    0.0000 C   0  0  0  0  0  0  0  0  0  0  0  0
   -2.9716  -10.0434    0.0000 C   0  0  0  0  0  0  0  0  0  0  0  0
   -1.9679  -11.1581    0.0000 F   0  0  0  0  0  0  0  0  0  0  0  0
  1  2  2  0
  2  3  1  0
  3  4  1  0
  4  5  2  0
  5  6  1  0
  6  7  2  0
  7  8  1  0
  7  9  1  0
  9 10  2  0
  2 11  1  0
 11 12  2  0
 12 13  1  0
 13 14  1  0
 14 15  2  0
 15 16  1  0
 16 17  1  0
 17 18  2  0
 17 19  1  0
 19 20  2  0
 20 21  1  0
 20 22  1  0
 22 23  2  0
 23 24  1  0
 24 25  2  0
 25 26  1  0
 10  4  1  0
 15 11  1  0
 25 19  1  0
M  END
>  <Compound_ID>  (95) 
CHEMBL518383

>  <Active>  (95) 
1

>  <Smiles>  (95) 
O=C(Nc1ccc(F)cc1)c1n[nH]cc1NC(=O)c1c(F)cccc1F

>  <canonical_smi>  (95) 
O=C(Nc1ccc(F)cc1)c1n[nH]cc1NC(=O)c1c(F)cccc1F

>  <Set>  (95) 
G2 active

>  <Set_type>  (95) 
Train

>  <MW>  (95) 
360.3

>  <HBD>  (95) 
3

>  <HBA>  (95) 
3

>  <NRB>  (95) 
4

>  <NR>  (95) 
3

>  <NAR>  (95) 
3

>  <PSA>  (95) 
86.88

>  <Standard Type>  (95) 
nan

>  <Standard Relation>  (95) 
nan

>  <Standard Units>  (95) 
nan

>  <Standard Value>  (95) 
nan

>  <Assay ChEMBL ID>  (95) 
nan

>  <Assay Description>  (95) 
nan

>  <BAO Label>  (95) 
nan

$$$$

     RDKit          2D

 24 27  0  0  0  0  0  0  0  0999 V2000
   -0.7500   -3.8971    0.0000 O   0  0  0  0  0  0  0  0  0  0  0  0
    0.7500   -3.8971    0.0000 C   0  0  0  0  0  0  0  0  0  0  0  0
    1.5000   -2.5981    0.0000 C   0  0  0  0  0  0  0  0  0  0  0  0
    0.7500   -1.2990    0.0000 C   0  0  0  0  0  0  0  0  0  0  0  0
    1.5000    0.0000    0.0000 C   0  0  0  0  0  0  0  0  0  0  0  0
    0.7500    1.2990    0.0000 C   0  0  0  0  0  0  0  0  0  0  0  0
   -0.7500    1.2990    0.0000 C   0  0  0  0  0  0  0  0  0  0  0  0
   -1.5000    2.5981    0.0000 C   0  0  0  0  0  0  0  0  0  0  0  0
   -0.7500    3.8971    0.0000 C   0  0  0  0  0  0  0  0  0  0  0  0
   -1.3601    5.2674    0.0000 C   0  0  0  0  0  0  0  0  0  0  0  0
   -0.2454    6.2711    0.0000 C   0  0  0  0  0  0  0  0  0  0  0  0
    1.0537    5.5211    0.0000 C   0  0  0  0  0  0  0  0  0  0  0  0
    0.7418    4.0539    0.0000 S   0  0  0  0  0  0  0  0  0  0  0  0
   -1.5000    0.0000    0.0000 C   0  0  0  0  0  0  0  0  0  0  0  0
   -0.7500   -1.2990    0.0000 C   0  0  0  0  0  0  0  0  0  0  0  0
    1.5000   -5.1962    0.0000 N   0  0  0  0  0  0  0  0  0  0  0  0
    0.7500   -6.4952    0.0000 C   0  0  0  0  0  0  0  0  0  0  0  0
    1.3601   -7.8655    0.0000 C   0  0  0  0  0  0  0  0  0  0  0  0
    0.2454   -8.8692    0.0000 C   0  0  0  0  0  0  0  0  0  0  0  0
    0.4022  -10.3610    0.0000 C   0  0  0  0  0  0  0  0  0  0  0  0
    1.2839  -11.5745    0.0000 C   0  0  0  0  0  0  0  0  0  0  0  0
   -0.2079  -11.7313    0.0000 C   0  0  0  0  0  0  0  0  0  0  0  0
   -1.0537   -8.1192    0.0000 N   0  0  0  0  0  0  0  0  0  0  0  0
   -0.7418   -6.6520    0.0000 N   0  0  0  0  0  0  0  0  0  0  0  0
  1  2  2  0
  2  3  1  0
  3  4  1  0
  4  5  2  0
  5  6  1  0
  6  7  2  0
  7  8  1  0
  8  9  1  0
  9 10  2  0
 10 11  1  0
 11 12  2  0
 12 13  1  0
  7 14  1  0
 14 15  2  0
  2 16  1  0
 16 17  1  0
 17 18  1  0
 18 19  2  0
 19 20  1  0
 20 21  1  0
 21 22  1  0
 19 23  1  0
 23 24  1  0
 15  4  1  0
 24 17  2  0
 13  9  1  0
 22 20  1  0
M  END
>  <Compound_ID>  (96) 
CHEMBL490481

>  <Active>  (96) 
1

>  <Smiles>  (96) 
O=C(Cc1ccc(Cc2cccs2)cc1)Nc1cc(C2CC2)[nH]n1

>  <canonical_smi>  (96) 
O=C(Cc1ccc(Cc2cccs2)cc1)Nc1cc(C2CC2)[nH]n1

>  <Set>  (96) 
G2 active

>  <Set_type>  (96) 
Train

>  <MW>  (96) 
337.45

>  <HBD>  (96) 
2

>  <HBA>  (96) 
2

>  <NRB>  (96) 
6

>  <NR>  (96) 
4

>  <NAR>  (96) 
3

>  <PSA>  (96) 
57.78

>  <Standard Type>  (96) 
nan

>  <Standard Relation>  (96) 
nan

>  <Standard Units>  (96) 
nan

>  <Standard Value>  (96) 
nan

>  <Assay ChEMBL ID>  (96) 
nan

>  <Assay Description>  (96) 
nan

>  <BAO Label>  (96) 
nan

$$$$

     RDKit          2D

 27 29  0  0  0  0  0  0  0  0999 V2000
    3.7500   -1.2990    0.0000 C   0  0  0  0  0  0  0  0  0  0  0  0
    3.0000    0.0000    0.0000 C   0  0  0  0  0  0  0  0  0  0  0  0
    1.5000    0.0000    0.0000 C   0  0  0  0  0  0  0  0  0  0  0  0
    0.7500   -1.2990    0.0000 C   0  0  0  0  0  0  0  0  0  0  0  0
   -0.7500   -1.2990    0.0000 C   0  0  0  0  0  0  0  0  0  0  0  0
   -1.5000   -2.5981    0.0000 C   0  0  0  0  0  0  0  0  0  0  0  0
   -0.7500   -3.8971    0.0000 O   0  0  0  0  0  0  0  0  0  0  0  0
   -3.0000   -2.5981    0.0000 N   0  0  0  0  0  0  0  0  0  0  0  0
   -3.7500   -3.8971    0.0000 C   0  0  0  0  0  0  0  0  0  0  0  0
   -3.1399   -5.2674    0.0000 N   0  0  0  0  0  0  0  0  0  0  0  0
   -4.2546   -6.2711    0.0000 C   0  0  0  0  0  0  0  0  0  0  0  0
   -5.5537   -5.5211    0.0000 C   0  0  0  0  0  0  0  0  0  0  0  0
   -6.9240   -6.1312    0.0000 S   0  0  0  0  0  0  0  0  0  0  0  0
   -8.1375   -5.2496    0.0000 C   0  0  0  0  0  0  0  0  0  0  0  0
   -9.5078   -5.8597    0.0000 C   0  0  0  0  0  0  0  0  0  0  0  0
   -9.8197   -7.3269    0.0000 N   0  0  0  0  0  0  0  0  0  0  0  0
  -11.3115   -7.4837    0.0000 C   0  0  0  0  0  0  0  0  0  0  0  0
  -11.9216   -6.1134    0.0000 C   0  0  0  0  0  0  0  0  0  0  0  0
  -13.3888   -5.8015    0.0000 C   0  0  0  0  0  0  0  0  0  0  0  0
  -13.0769   -4.3343    0.0000 C   0  0  0  0  0  0  0  0  0  0  0  0
  -13.7007   -7.2687    0.0000 C   0  0  0  0  0  0  0  0  0  0  0  0
  -14.8560   -5.4896    0.0000 C   0  0  0  0  0  0  0  0  0  0  0  0
  -10.8069   -5.1097    0.0000 O   0  0  0  0  0  0  0  0  0  0  0  0
   -5.2418   -4.0539    0.0000 S   0  0  0  0  0  0  0  0  0  0  0  0
   -1.5000    0.0000    0.0000 C   0  0  0  0  0  0  0  0  0  0  0  0
   -0.7500    1.2990    0.0000 C   0  0  0  0  0  0  0  0  0  0  0  0
    0.7500    1.2990    0.0000 N   0  0  0  0  0  0  0  0  0  0  0  0
  1  2  1  0
  2  3  1  0
  3  4  1  0
  4  5  1  0
  5  6  1  0
  6  7  2  0
  6  8  1  0
  8  9  1  0
  9 10  2  0
 10 11  1  0
 11 12  2  0
 12 13  1  0
 13 14  1  0
 14 15  1  0
 15 16  2  0
 16 17  1  0
 17 18  2  0
 18 19  1  0
 19 20  1  0
 19 21  1  0
 19 22  1  0
 18 23  1  0
 12 24  1  0
  5 25  1  0
 25 26  1  0
 26 27  1  0
 27  3  1  0
 24  9  1  0
 23 15  1  0
M  END
>  <Compound_ID>  (97) 
CHEMBL455195

>  <Active>  (97) 
1

>  <Smiles>  (97) 
CCC1CC(C(=O)Nc2ncc(SCc3ncc(C(C)(C)C)o3)s2)CCN1

>  <canonical_smi>  (97) 
CCC1CC(C(=O)Nc2ncc(SCc3ncc(C(C)(C)C)o3)s2)CCN1

>  <Set>  (97) 
G2 active

>  <Set_type>  (97) 
Train

>  <MW>  (97) 
408.59

>  <HBD>  (97) 
2

>  <HBA>  (97) 
6

>  <NRB>  (97) 
6

>  <NR>  (97) 
3

>  <NAR>  (97) 
2

>  <PSA>  (97) 
80.05

>  <Standard Type>  (97) 
nan

>  <Standard Relation>  (97) 
nan

>  <Standard Units>  (97) 
nan

>  <Standard Value>  (97) 
nan

>  <Assay ChEMBL ID>  (97) 
nan

>  <Assay Description>  (97) 
nan

>  <BAO Label>  (97) 
nan

$$$$

     RDKit          2D

 23 25  0  0  0  0  0  0  0  0999 V2000
   -3.2082  -13.0594    0.0000 C   0  0  0  0  0  0  0  0  0  0  0  0
   -1.9092  -13.8094    0.0000 C   0  0  0  0  0  0  0  0  0  0  0  0
   -0.6101  -14.5594    0.0000 C   0  0  0  0  0  0  0  0  0  0  0  0
   -2.6592  -15.1085    0.0000 C   0  0  0  0  0  0  0  0  0  0  0  0
   -1.1592  -12.5104    0.0000 C   0  0  0  0  0  0  0  0  0  0  0  0
    0.3326  -12.3536    0.0000 C   0  0  0  0  0  0  0  0  0  0  0  0
    0.6445  -10.8864    0.0000 N   0  0  0  0  0  0  0  0  0  0  0  0
   -0.6546  -10.1364    0.0000 C   0  0  0  0  0  0  0  0  0  0  0  0
   -0.8113   -8.6446    0.0000 C   0  0  0  0  0  0  0  0  0  0  0  0
    0.4022   -7.7629    0.0000 S   0  0  0  0  0  0  0  0  0  0  0  0
    0.2454   -6.2711    0.0000 C   0  0  0  0  0  0  0  0  0  0  0  0
   -1.0537   -5.5211    0.0000 C   0  0  0  0  0  0  0  0  0  0  0  0
   -0.7418   -4.0539    0.0000 N   0  0  0  0  0  0  0  0  0  0  0  0
    0.7500   -3.8971    0.0000 C   0  0  0  0  0  0  0  0  0  0  0  0
    1.5000   -2.5981    0.0000 N   0  0  0  0  0  0  0  0  0  0  0  0
    0.7500   -1.2990    0.0000 C   0  0  0  0  0  0  0  0  0  0  0  0
    1.5000    0.0000    0.0000 C   0  0  0  0  0  0  0  0  0  0  0  0
    0.7500    1.2990    0.0000 C   0  0  0  0  0  0  0  0  0  0  0  0
   -0.7500    1.2990    0.0000 C   0  0  0  0  0  0  0  0  0  0  0  0
   -1.5000    0.0000    0.0000 N   0  0  0  0  0  0  0  0  0  0  0  0
   -0.7500   -1.2990    0.0000 C   0  0  0  0  0  0  0  0  0  0  0  0
    1.3601   -5.2674    0.0000 S   0  0  0  0  0  0  0  0  0  0  0  0
   -1.7693  -11.1401    0.0000 O   0  0  0  0  0  0  0  0  0  0  0  0
  1  2  1  0
  2  3  1  0
  2  4  1  0
  2  5  1  0
  5  6  2  0
  6  7  1  0
  7  8  2  0
  8  9  1  0
  9 10  1  0
 10 11  1  0
 11 12  2  0
 12 13  1  0
 13 14  2  0
 14 15  1  0
 15 16  1  0
 16 17  2  0
 17 18  1  0
 18 19  2  0
 19 20  1  0
 20 21  2  0
 14 22  1  0
  8 23  1  0
 23  5  1  0
 22 11  1  0
 21 16  1  0
M  END
>  <Compound_ID>  (98) 
CHEMBL100012

>  <Active>  (98) 
1

>  <Smiles>  (98) 
CC(C)(C)c1cnc(CSc2cnc(Nc3cccnc3)s2)o1

>  <canonical_smi>  (98) 
CC(C)(C)c1cnc(CSc2cnc(Nc3cccnc3)s2)o1

>  <Set>  (98) 
G2 active

>  <Set_type>  (98) 
Train

>  <MW>  (98) 
346.48

>  <HBD>  (98) 
1

>  <HBA>  (98) 
6

>  <NRB>  (98) 
5

>  <NR>  (98) 
3

>  <NAR>  (98) 
3

>  <PSA>  (98) 
63.84

>  <Standard Type>  (98) 
nan

>  <Standard Relation>  (98) 
nan

>  <Standard Units>  (98) 
nan

>  <Standard Value>  (98) 
nan

>  <Assay ChEMBL ID>  (98) 
nan

>  <Assay Description>  (98) 
nan

>  <BAO Label>  (98) 
nan

$$$$

     RDKit          2D

 23 26  0  0  0  0  0  0  0  0999 V2000
   -7.5000    2.5981    0.0000 N   0  0  0  0  0  0  0  0  0  0  0  0
   -6.0000    2.5981    0.0000 C   0  0  0  0  0  0  0  0  0  0  0  0
   -5.2500    1.2990    0.0000 C   0  0  0  0  0  0  0  0  0  0  0  0
   -3.7500    1.2990    0.0000 S   0  0  0  0  0  0  0  0  0  0  0  0
   -3.0000    0.0000    0.0000 C   0  0  0  0  0  0  0  0  0  0  0  0
   -3.7500   -1.2990    0.0000 C   0  0  0  0  0  0  0  0  0  0  0  0
   -3.0000   -2.5981    0.0000 C   0  0  0  0  0  0  0  0  0  0  0  0
   -3.7500   -3.8971    0.0000 C   0  0  0  0  0  0  0  0  0  0  0  0
   -3.1399   -5.2674    0.0000 C   0  0  0  0  0  0  0  0  0  0  0  0
   -4.2546   -6.2711    0.0000 C   0  0  0  0  0  0  0  0  0  0  0  0
   -5.5537   -5.5211    0.0000 C   0  0  0  0  0  0  0  0  0  0  0  0
   -5.2418   -4.0539    0.0000 N   0  0  0  0  0  0  0  0  0  0  0  0
   -1.5000   -2.5981    0.0000 C   0  0  0  0  0  0  0  0  0  0  0  0
   -0.7500   -1.2990    0.0000 C   0  0  0  0  0  0  0  0  0  0  0  0
    0.7500   -1.2990    0.0000 C   0  0  0  0  0  0  0  0  0  0  0  0
    1.5000    0.0000    0.0000 C   0  0  0  0  0  0  0  0  0  0  0  0
    0.7500    1.2990    0.0000 C   0  0  0  0  0  0  0  0  0  0  0  0
   -0.7500    1.2990    0.0000 C   0  0  0  0  0  0  0  0  0  0  0  0
   -1.5000    2.5981    0.0000 F   0  0  0  0  0  0  0  0  0  0  0  0
   -1.5000    0.0000    0.0000 C   0  0  0  0  0  0  0  0  0  0  0  0
    1.0619   -2.7663    0.0000 N   0  0  0  0  0  0  0  0  0  0  0  0
   -0.2372   -3.5163    0.0000 C   0  0  0  0  0  0  0  0  0  0  0  0
   -0.3940   -5.0080    0.0000 O   0  0  0  0  0  0  0  0  0  0  0  0
  1  2  1  0
  2  3  1  0
  3  4  1  0
  4  5  1  0
  5  6  2  0
  6  7  1  0
  7  8  1  0
  8  9  2  0
  9 10  1  0
 10 11  2  0
 11 12  1  0
  7 13  2  0
 13 14  1  0
 14 15  2  0
 15 16  1  0
 16 17  2  0
 17 18  1  0
 18 19  1  0
 18 20  2  0
 15 21  1  0
 21 22  1  0
 22 23  2  0
 20  5  1  0
 12  8  1  0
 22 13  1  0
 20 14  1  0
M  END
>  <Compound_ID>  (99) 
CHEMBL311464

>  <Active>  (99) 
1

>  <Smiles>  (99) 
NCCSc1cc(-c2ccc[nH]2)c2c3c(ccc(F)c13)NC2=O

>  <canonical_smi>  (99) 
NCCSc1cc(-c2ccc[nH]2)c2c3c(ccc(F)c13)NC2=O

>  <Set>  (99) 
G2 active

>  <Set_type>  (99) 
Train

>  <MW>  (99) 
327.38

>  <HBD>  (99) 
3

>  <HBA>  (99) 
3

>  <NRB>  (99) 
4

>  <NR>  (99) 
4

>  <NAR>  (99) 
3

>  <PSA>  (99) 
70.91

>  <Standard Type>  (99) 
nan

>  <Standard Relation>  (99) 
nan

>  <Standard Units>  (99) 
nan

>  <Standard Value>  (99) 
nan

>  <Assay ChEMBL ID>  (99) 
nan

>  <Assay Description>  (99) 
nan

>  <BAO Label>  (99) 
nan

$$$$

     RDKit          2D

 23 26  0  0  0  0  0  0  0  0999 V2000
   -0.7500   -3.8971    0.0000 O   0  0  0  0  0  0  0  0  0  0  0  0
    0.7500   -3.8971    0.0000 C   0  0  0  0  0  0  0  0  0  0  0  0
    1.5000   -2.5981    0.0000 C   0  0  0  0  0  0  0  0  0  0  0  0
    0.7500   -1.2990    0.0000 C   0  0  0  0  0  0  0  0  0  0  0  0
    1.5000    0.0000    0.0000 C   0  0  0  0  0  0  0  0  0  0  0  0
    0.7500    1.2990    0.0000 C   0  0  0  0  0  0  0  0  0  0  0  0
   -0.7500    1.2990    0.0000 C   0  0  0  0  0  0  0  0  0  0  0  0
   -1.5000    2.5981    0.0000 C   0  0  0  0  0  0  0  0  0  0  0  0
   -2.9918    2.7549    0.0000 C   0  0  0  0  0  0  0  0  0  0  0  0
   -3.3037    4.2221    0.0000 C   0  0  0  0  0  0  0  0  0  0  0  0
   -2.0046    4.9721    0.0000 C   0  0  0  0  0  0  0  0  0  0  0  0
   -0.8899    3.9684    0.0000 S   0  0  0  0  0  0  0  0  0  0  0  0
   -1.5000    0.0000    0.0000 C   0  0  0  0  0  0  0  0  0  0  0  0
   -0.7500   -1.2990    0.0000 C   0  0  0  0  0  0  0  0  0  0  0  0
    1.5000   -5.1962    0.0000 N   0  0  0  0  0  0  0  0  0  0  0  0
    0.7500   -6.4952    0.0000 C   0  0  0  0  0  0  0  0  0  0  0  0
    1.3601   -7.8655    0.0000 C   0  0  0  0  0  0  0  0  0  0  0  0
    0.2454   -8.8692    0.0000 C   0  0  0  0  0  0  0  0  0  0  0  0
    0.4022  -10.3610    0.0000 C   0  0  0  0  0  0  0  0  0  0  0  0
    1.2839  -11.5745    0.0000 C   0  0  0  0  0  0  0  0  0  0  0  0
   -0.2079  -11.7313    0.0000 C   0  0  0  0  0  0  0  0  0  0  0  0
   -1.0537   -8.1192    0.0000 N   0  0  0  0  0  0  0  0  0  0  0  0
   -0.7418   -6.6520    0.0000 N   0  0  0  0  0  0  0  0  0  0  0  0
  1  2  2  0
  2  3  1  0
  3  4  1  0
  4  5  2  0
  5  6  1  0
  6  7  2  0
  7  8  1  0
  8  9  2  0
  9 10  1  0
 10 11  2  0
 11 12  1  0
  7 13  1  0
 13 14  2  0
  2 15  1  0
 15 16  1  0
 16 17  1  0
 17 18  2  0
 18 19  1  0
 19 20  1  0
 20 21  1  0
 18 22  1  0
 22 23  1  0
 14  4  1  0
 23 16  2  0
 12  8  1  0
 21 19  1  0
M  END
>  <Compound_ID>  (100) 
CHEMBL114636

>  <Active>  (100) 
1

>  <Smiles>  (100) 
O=C(Cc1ccc(-c2cccs2)cc1)Nc1cc(C2CC2)[nH]n1

>  <canonical_smi>  (100) 
O=C(Cc1ccc(-c2cccs2)cc1)Nc1cc(C2CC2)[nH]n1

>  <Set>  (100) 
G2 active

>  <Set_type>  (100) 
Train

>  <MW>  (100) 
323.42

>  <HBD>  (100) 
2

>  <HBA>  (100) 
2

>  <NRB>  (100) 
5

>  <NR>  (100) 
4

>  <NAR>  (100) 
3

>  <PSA>  (100) 
57.78

>  <Standard Type>  (100) 
nan

>  <Standard Relation>  (100) 
nan

>  <Standard Units>  (100) 
nan

>  <Standard Value>  (100) 
nan

>  <Assay ChEMBL ID>  (100) 
nan

>  <Assay Description>  (100) 
nan

>  <BAO Label>  (100) 
nan

$$$$

     RDKit          2D

 27 30  0  0  0  0  0  0  0  0999 V2000
   -5.8515    6.6945    0.0000 C   0  0  0  0  0  0  0  0  0  0  0  0
   -4.7368    5.6908    0.0000 N   0  0  0  0  0  0  0  0  0  0  0  0
   -5.0487    4.2236    0.0000 S   0  0  0  0  0  0  0  0  0  0  0  0
   -3.5814    3.9117    0.0000 O   0  0  0  0  0  0  0  0  0  0  0  0
   -6.5159    4.5355    0.0000 O   0  0  0  0  0  0  0  0  0  0  0  0
   -5.3605    2.7564    0.0000 C   0  0  0  0  0  0  0  0  0  0  0  0
   -4.2458    1.7527    0.0000 C   0  0  0  0  0  0  0  0  0  0  0  0
   -4.5577    0.2855    0.0000 C   0  0  0  0  0  0  0  0  0  0  0  0
   -5.9843   -0.1781    0.0000 C   0  0  0  0  0  0  0  0  0  0  0  0
   -6.2961   -1.6453    0.0000 N   0  0  0  0  0  0  0  0  0  0  0  0
   -5.1814   -2.6490    0.0000 C   0  0  0  0  0  0  0  0  0  0  0  0
   -5.4933   -4.1162    0.0000 N   0  0  0  0  0  0  0  0  0  0  0  0
   -4.3786   -5.1199    0.0000 C   0  0  0  0  0  0  0  0  0  0  0  0
   -2.9520   -4.6564    0.0000 C   0  0  0  0  0  0  0  0  0  0  0  0
   -2.6401   -3.1891    0.0000 C   0  0  0  0  0  0  0  0  0  0  0  0
   -1.2135   -2.7256    0.0000 C   0  0  0  0  0  0  0  0  0  0  0  0
   -0.0000   -3.6073    0.0000 C   0  0  0  0  0  0  0  0  0  0  0  0
    1.2135   -2.7256    0.0000 N   0  0  0  0  0  0  0  0  0  0  0  0
    0.7500   -1.2990    0.0000 C   0  0  0  0  0  0  0  0  0  0  0  0
    1.5000    0.0000    0.0000 C   0  0  0  0  0  0  0  0  0  0  0  0
    0.7500    1.2990    0.0000 C   0  0  0  0  0  0  0  0  0  0  0  0
   -0.7500    1.2990    0.0000 C   0  0  0  0  0  0  0  0  0  0  0  0
   -1.5000    0.0000    0.0000 N   0  0  0  0  0  0  0  0  0  0  0  0
   -0.7500   -1.2990    0.0000 N   0  0  0  0  0  0  0  0  0  0  0  0
   -3.7548   -2.1855    0.0000 N   0  0  0  0  0  0  0  0  0  0  0  0
   -7.0990    0.8256    0.0000 C   0  0  0  0  0  0  0  0  0  0  0  0
   -6.7871    2.2929    0.0000 C   0  0  0  0  0  0  0  0  0  0  0  0
  1  2  1  0
  2  3  1  0
  3  4  2  0
  3  5  2  0
  3  6  1  0
  6  7  2  0
  7  8  1  0
  8  9  2  0
  9 10  1  0
 10 11  1  0
 11 12  2  0
 12 13  1  0
 13 14  2  0
 14 15  1  0
 15 16  1  0
 16 17  2  0
 17 18  1  0
 18 19  2  0
 19 20  1  0
 20 21  2  0
 21 22  1  0
 22 23  2  0
 23 24  1  0
 15 25  2  0
  9 26  1  0
 26 27  2  0
 27  6  1  0
 25 11  1  0
 24 16  1  0
 24 19  1  0
M  END
>  <Compound_ID>  (101) 
CHEMBL520003

>  <Active>  (101) 
1

>  <Smiles>  (101) 
CNS(=O)(=O)c1ccc(Nc2nccc(-c3cnc4cccnn34)n2)cc1

>  <canonical_smi>  (101) 
CNS(=O)(=O)c1ccc(Nc2nccc(-c3cnc4cccnn34)n2)cc1

>  <Set>  (101) 
G2 active

>  <Set_type>  (101) 
Train

>  <MW>  (101) 
381.42

>  <HBD>  (101) 
2

>  <HBA>  (101) 
7

>  <NRB>  (101) 
5

>  <NR>  (101) 
4

>  <NAR>  (101) 
4

>  <PSA>  (101) 
114.17

>  <Standard Type>  (101) 
nan

>  <Standard Relation>  (101) 
nan

>  <Standard Units>  (101) 
nan

>  <Standard Value>  (101) 
nan

>  <Assay ChEMBL ID>  (101) 
nan

>  <Assay Description>  (101) 
nan

>  <BAO Label>  (101) 
nan

$$$$

     RDKit          2D

 27 31  0  0  0  0  0  0  0  0999 V2000
   -4.2458    1.7527    0.0000 C   0  0  0  0  0  0  0  0  0  0  0  0
   -4.5577    0.2855    0.0000 C   0  0  0  0  0  0  0  0  0  0  0  0
   -5.9843   -0.1781    0.0000 C   0  0  0  0  0  0  0  0  0  0  0  0
   -6.2961   -1.6453    0.0000 N   0  0  0  0  0  0  0  0  0  0  0  0
   -5.1814   -2.6490    0.0000 C   0  0  0  0  0  0  0  0  0  0  0  0
   -5.4933   -4.1162    0.0000 N   0  0  0  0  0  0  0  0  0  0  0  0
   -4.3786   -5.1199    0.0000 C   0  0  0  0  0  0  0  0  0  0  0  0
   -2.9520   -4.6564    0.0000 C   0  0  0  0  0  0  0  0  0  0  0  0
   -2.6401   -3.1891    0.0000 C   0  0  0  0  0  0  0  0  0  0  0  0
   -1.2135   -2.7256    0.0000 C   0  0  0  0  0  0  0  0  0  0  0  0
   -0.0000   -3.6073    0.0000 C   0  0  0  0  0  0  0  0  0  0  0  0
    1.2135   -2.7256    0.0000 N   0  0  0  0  0  0  0  0  0  0  0  0
    0.7500   -1.2990    0.0000 N   0  0  0  0  0  0  0  0  0  0  0  0
    1.5000    0.0000    0.0000 N   0  0  0  0  0  0  0  0  0  0  0  0
    0.7500    1.2990    0.0000 C   0  0  0  0  0  0  0  0  0  0  0  0
   -0.7500    1.2990    0.0000 C   0  0  0  0  0  0  0  0  0  0  0  0
   -1.5000    0.0000    0.0000 C   0  0  0  0  0  0  0  0  0  0  0  0
   -0.7500   -1.2990    0.0000 C   0  0  0  0  0  0  0  0  0  0  0  0
   -3.7548   -2.1855    0.0000 N   0  0  0  0  0  0  0  0  0  0  0  0
   -7.0990    0.8256    0.0000 C   0  0  0  0  0  0  0  0  0  0  0  0
   -6.7871    2.2929    0.0000 C   0  0  0  0  0  0  0  0  0  0  0  0
   -7.9018    3.2966    0.0000 C   0  0  0  0  0  0  0  0  0  0  0  0
   -9.3691    2.9847    0.0000 C   0  0  0  0  0  0  0  0  0  0  0  0
  -10.1191    4.2837    0.0000 O   0  0  0  0  0  0  0  0  0  0  0  0
   -9.1154    5.3984    0.0000 C   0  0  0  0  0  0  0  0  0  0  0  0
   -7.7450    4.7883    0.0000 N   0  0  0  0  0  0  0  0  0  0  0  0
   -5.3605    2.7564    0.0000 C   0  0  0  0  0  0  0  0  0  0  0  0
  1  2  2  0
  2  3  1  0
  3  4  1  0
  4  5  1  0
  5  6  2  0
  6  7  1  0
  7  8  2  0
  8  9  1  0
  9 10  1  0
 10 11  1  0
 11 12  2  0
 12 13  1  0
 13 14  1  0
 14 15  2  0
 15 16  1  0
 16 17  2  0
 17 18  1  0
  9 19  2  0
  3 20  2  0
 20 21  1  0
 21 22  1  0
 22 23  2  0
 23 24  1  0
 24 25  1  0
 25 26  2  0
 21 27  2  0
 27  1  1  0
 19  5  1  0
 26 22  1  0
 18 10  2  0
 18 13  1  0
M  END
>  <Compound_ID>  (102) 
CHEMBL497564

>  <Active>  (102) 
1

>  <Smiles>  (102) 
c1cc(Nc2nccc(-c3cnn4ncccc34)n2)cc(-c2cocn2)c1

>  <canonical_smi>  (102) 
c1cc(Nc2nccc(-c3cnn4ncccc34)n2)cc(-c2cocn2)c1

>  <Set>  (102) 
G2 active

>  <Set_type>  (102) 
Train

>  <MW>  (102) 
355.36

>  <HBD>  (102) 
1

>  <HBA>  (102) 
7

>  <NRB>  (102) 
4

>  <NR>  (102) 
5

>  <NAR>  (102) 
5

>  <PSA>  (102) 
94.03

>  <Standard Type>  (102) 
nan

>  <Standard Relation>  (102) 
nan

>  <Standard Units>  (102) 
nan

>  <Standard Value>  (102) 
nan

>  <Assay ChEMBL ID>  (102) 
nan

>  <Assay Description>  (102) 
nan

>  <BAO Label>  (102) 
nan

$$$$

     RDKit          2D

 32 36  0  0  0  0  0  0  0  0999 V2000
  -10.1878   -4.1483    0.0000 O   0  0  0  0  0  0  0  0  0  0  0  0
   -8.8888   -4.8983    0.0000 S   0  0  0  0  0  0  0  0  0  0  0  0
   -7.5897   -5.6483    0.0000 O   0  0  0  0  0  0  0  0  0  0  0  0
   -9.6388   -6.1973    0.0000 N   0  0  0  0  0  0  0  0  0  0  0  0
   -8.8888   -7.4964    0.0000 C   0  0  0  0  0  0  0  0  0  0  0  0
   -9.6388   -8.7954    0.0000 C   0  0  0  0  0  0  0  0  0  0  0  0
   -8.8888  -10.0944    0.0000 C   0  0  0  0  0  0  0  0  0  0  0  0
   -7.3970  -10.2512    0.0000 C   0  0  0  0  0  0  0  0  0  0  0  0
   -7.0851  -11.7185    0.0000 N   0  0  0  0  0  0  0  0  0  0  0  0
   -8.3842  -12.4685    0.0000 C   0  0  0  0  0  0  0  0  0  0  0  0
   -9.4989  -11.4648    0.0000 N   0  0  0  0  0  0  0  0  0  0  0  0
   -8.1388   -3.5992    0.0000 C   0  0  0  0  0  0  0  0  0  0  0  0
   -6.6388   -3.5992    0.0000 C   0  0  0  0  0  0  0  0  0  0  0  0
   -5.8888   -2.3002    0.0000 C   0  0  0  0  0  0  0  0  0  0  0  0
   -6.6388   -1.0012    0.0000 C   0  0  0  0  0  0  0  0  0  0  0  0
   -5.8888    0.2979    0.0000 N   0  0  0  0  0  0  0  0  0  0  0  0
   -4.3888    0.2979    0.0000 C   0  0  0  0  0  0  0  0  0  0  0  0
   -3.6388    1.5969    0.0000 C   0  0  0  0  0  0  0  0  0  0  0  0
   -4.2489    2.9672    0.0000 C   0  0  0  0  0  0  0  0  0  0  0  0
   -5.7161    3.2791    0.0000 O   0  0  0  0  0  0  0  0  0  0  0  0
   -3.1342    3.9709    0.0000 N   0  0  0  0  0  0  0  0  0  0  0  0
   -1.8351    3.2209    0.0000 C   0  0  0  0  0  0  0  0  0  0  0  0
   -0.4086    3.6844    0.0000 C   0  0  0  0  0  0  0  0  0  0  0  0
    0.7062    2.6807    0.0000 C   0  0  0  0  0  0  0  0  0  0  0  0
    0.3943    1.2135    0.0000 C   0  0  0  0  0  0  0  0  0  0  0  0
    1.2760    0.0000    0.0000 N   0  0  0  0  0  0  0  0  0  0  0  0
    0.3943   -1.2135    0.0000 C   0  0  0  0  0  0  0  0  0  0  0  0
   -1.0323   -0.7500    0.0000 S   0  0  0  0  0  0  0  0  0  0  0  0
   -1.0323    0.7500    0.0000 C   0  0  0  0  0  0  0  0  0  0  0  0
   -2.1470    1.7537    0.0000 C   0  0  0  0  0  0  0  0  0  0  0  0
   -8.1388   -1.0012    0.0000 C   0  0  0  0  0  0  0  0  0  0  0  0
   -8.8888   -2.3002    0.0000 C   0  0  0  0  0  0  0  0  0  0  0  0
  1  2  2  0
  2  3  2  0
  2  4  1  0
  4  5  1  0
  5  6  1  0
  6  7  1  0
  7  8  2  0
  8  9  1  0
  9 10  1  0
 10 11  2  0
  2 12  1  0
 12 13  2  0
 13 14  1  0
 14 15  2  0
 15 16  1  0
 16 17  2  0
 17 18  1  0
 18 19  2  0
 19 20  1  0
 19 21  1  0
 21 22  1  0
 22 23  2  0
 23 24  1  0
 24 25  2  0
 25 26  1  0
 26 27  2  0
 27 28  1  0
 28 29  1  0
 29 30  2  0
 15 31  1  0
 31 32  2  0
 11  7  1  0
 32 12  1  0
 30 18  1  0
 30 22  1  0
 29 25  1  0
M  END
>  <Compound_ID>  (103) 
CHEMBL136575

>  <Active>  (103) 
1

>  <Smiles>  (103) 
O=S(=O)(NCCc1c[nH]cn1)c1ccc(/N=C/c2c(O)[nH]c3ccc4ncsc4c23)cc1

>  <canonical_smi>  (103) 
O=S(=O)(NCCc1c[nH]cn1)c1ccc(/N=C/c2c(O)[nH]c3ccc4ncsc4c23)cc1

>  <Set>  (103) 
G2 active

>  <Set_type>  (103) 
Train

>  <MW>  (103) 
466.55

>  <HBD>  (103) 
4

>  <HBA>  (103) 
5

>  <NRB>  (103) 
7

>  <NR>  (103) 
5

>  <NAR>  (103) 
5

>  <PSA>  (103) 
136.12

>  <Standard Type>  (103) 
nan

>  <Standard Relation>  (103) 
nan

>  <Standard Units>  (103) 
nan

>  <Standard Value>  (103) 
nan

>  <Assay ChEMBL ID>  (103) 
nan

>  <Assay Description>  (103) 
nan

>  <BAO Label>  (103) 
nan

$$$$

     RDKit          2D

 23 25  0  0  0  0  0  0  0  0999 V2000
   -4.1592  -15.1085    0.0000 C   0  0  0  0  0  0  0  0  0  0  0  0
   -3.4092  -13.8094    0.0000 C   0  0  0  0  0  0  0  0  0  0  0  0
   -4.1592  -12.5104    0.0000 O   0  0  0  0  0  0  0  0  0  0  0  0
   -1.9092  -13.8094    0.0000 N   0  0  0  0  0  0  0  0  0  0  0  0
   -1.1592  -12.5104    0.0000 C   0  0  0  0  0  0  0  0  0  0  0  0
    0.3326  -12.3536    0.0000 N   0  0  0  0  0  0  0  0  0  0  0  0
    0.6445  -10.8864    0.0000 C   0  0  0  0  0  0  0  0  0  0  0  0
   -0.6546  -10.1364    0.0000 C   0  0  0  0  0  0  0  0  0  0  0  0
   -0.8113   -8.6446    0.0000 S   0  0  0  0  0  0  0  0  0  0  0  0
    0.4022   -7.7629    0.0000 C   0  0  0  0  0  0  0  0  0  0  0  0
    0.2454   -6.2711    0.0000 C   0  0  0  0  0  0  0  0  0  0  0  0
   -1.0537   -5.5211    0.0000 N   0  0  0  0  0  0  0  0  0  0  0  0
   -0.7418   -4.0539    0.0000 C   0  0  0  0  0  0  0  0  0  0  0  0
    0.7500   -3.8971    0.0000 C   0  0  0  0  0  0  0  0  0  0  0  0
    1.5000   -2.5981    0.0000 C   0  0  0  0  0  0  0  0  0  0  0  0
    0.7500   -1.2990    0.0000 C   0  0  0  0  0  0  0  0  0  0  0  0
    1.5000    0.0000    0.0000 C   0  0  0  0  0  0  0  0  0  0  0  0
    0.7500    1.2990    0.0000 C   0  0  0  0  0  0  0  0  0  0  0  0
   -0.7500    1.2990    0.0000 C   0  0  0  0  0  0  0  0  0  0  0  0
   -1.5000    0.0000    0.0000 C   0  0  0  0  0  0  0  0  0  0  0  0
   -0.7500   -1.2990    0.0000 C   0  0  0  0  0  0  0  0  0  0  0  0
    1.3601   -5.2674    0.0000 O   0  0  0  0  0  0  0  0  0  0  0  0
   -1.7693  -11.1401    0.0000 S   0  0  0  0  0  0  0  0  0  0  0  0
  1  2  1  0
  2  3  2  0
  2  4  1  0
  4  5  1  0
  5  6  2  0
  6  7  1  0
  7  8  2  0
  8  9  1  0
  9 10  1  0
 10 11  1  0
 11 12  2  0
 12 13  1  0
 13 14  2  0
 14 15  1  0
 15 16  1  0
 16 17  1  0
 17 18  1  0
 18 19  1  0
 19 20  1  0
 20 21  1  0
 14 22  1  0
  8 23  1  0
 23  5  1  0
 22 11  1  0
 21 16  1  0
M  END
>  <Compound_ID>  (104) 
CHEMBL126328

>  <Active>  (104) 
1

>  <Smiles>  (104) 
CC(=O)Nc1ncc(SCc2ncc(CC3CCCCC3)o2)s1

>  <canonical_smi>  (104) 
CC(=O)Nc1ncc(SCc2ncc(CC3CCCCC3)o2)s1

>  <Set>  (104) 
G2 active

>  <Set_type>  (104) 
Train

>  <MW>  (104) 
351.5

>  <HBD>  (104) 
1

>  <HBA>  (104) 
5

>  <NRB>  (104) 
6

>  <NR>  (104) 
3

>  <NAR>  (104) 
2

>  <PSA>  (104) 
68.02

>  <Standard Type>  (104) 
nan

>  <Standard Relation>  (104) 
nan

>  <Standard Units>  (104) 
nan

>  <Standard Value>  (104) 
nan

>  <Assay ChEMBL ID>  (104) 
nan

>  <Assay Description>  (104) 
nan

>  <BAO Label>  (104) 
nan

$$$$

     RDKit          2D

 25 28  0  0  0  0  0  0  0  0999 V2000
   -0.7500   -3.8971    0.0000 O   0  0  0  0  0  0  0  0  0  0  0  0
    0.7500   -3.8971    0.0000 C   0  0  0  0  0  0  0  0  0  0  0  0
    1.5000   -2.5981    0.0000 C   0  0  0  0  0  0  0  0  0  0  0  0
    0.7500   -1.2990    0.0000 C   0  0  0  0  0  0  0  0  0  0  0  0
    1.5000    0.0000    0.0000 C   0  0  0  0  0  0  0  0  0  0  0  0
    0.7500    1.2990    0.0000 C   0  0  0  0  0  0  0  0  0  0  0  0
   -0.7500    1.2990    0.0000 C   0  0  0  0  0  0  0  0  0  0  0  0
   -1.5000    2.5981    0.0000 C   0  0  0  0  0  0  0  0  0  0  0  0
   -0.7500    3.8971    0.0000 C   0  0  0  0  0  0  0  0  0  0  0  0
   -1.5000    5.1962    0.0000 C   0  0  0  0  0  0  0  0  0  0  0  0
   -3.0000    5.1962    0.0000 C   0  0  0  0  0  0  0  0  0  0  0  0
   -3.7500    3.8971    0.0000 C   0  0  0  0  0  0  0  0  0  0  0  0
   -3.0000    2.5981    0.0000 C   0  0  0  0  0  0  0  0  0  0  0  0
   -1.5000    0.0000    0.0000 C   0  0  0  0  0  0  0  0  0  0  0  0
   -3.0000    0.0000    0.0000 F   0  0  0  0  0  0  0  0  0  0  0  0
   -0.7500   -1.2990    0.0000 C   0  0  0  0  0  0  0  0  0  0  0  0
    1.5000   -5.1962    0.0000 N   0  0  0  0  0  0  0  0  0  0  0  0
    0.7500   -6.4952    0.0000 C   0  0  0  0  0  0  0  0  0  0  0  0
    1.3601   -7.8655    0.0000 C   0  0  0  0  0  0  0  0  0  0  0  0
    0.2454   -8.8692    0.0000 C   0  0  0  0  0  0  0  0  0  0  0  0
    0.4022  -10.3610    0.0000 C   0  0  0  0  0  0  0  0  0  0  0  0
    1.2839  -11.5745    0.0000 C   0  0  0  0  0  0  0  0  0  0  0  0
   -0.2079  -11.7313    0.0000 C   0  0  0  0  0  0  0  0  0  0  0  0
   -1.0537   -8.1192    0.0000 N   0  0  0  0  0  0  0  0  0  0  0  0
   -0.7418   -6.6520    0.0000 N   0  0  0  0  0  0  0  0  0  0  0  0
  1  2  2  0
  2  3  1  0
  3  4  1  0
  4  5  2  0
  5  6  1  0
  6  7  2  0
  7  8  1  0
  8  9  2  0
  9 10  1  0
 10 11  2  0
 11 12  1  0
 12 13  2  0
  7 14  1  0
 14 15  1  0
 14 16  2  0
  2 17  1  0
 17 18  1  0
 18 19  1  0
 19 20  2  0
 20 21  1  0
 21 22  1  0
 22 23  1  0
 20 24  1  0
 24 25  1  0
 16  4  1  0
 25 18  2  0
 13  8  1  0
 23 21  1  0
M  END
>  <Compound_ID>  (105) 
CHEMBL489477

>  <Active>  (105) 
1

>  <Smiles>  (105) 
O=C(Cc1ccc(-c2ccccc2)c(F)c1)Nc1cc(C2CC2)[nH]n1

>  <canonical_smi>  (105) 
O=C(Cc1ccc(-c2ccccc2)c(F)c1)Nc1cc(C2CC2)[nH]n1

>  <Set>  (105) 
G2 active

>  <Set_type>  (105) 
Train

>  <MW>  (105) 
335.38

>  <HBD>  (105) 
2

>  <HBA>  (105) 
2

>  <NRB>  (105) 
5

>  <NR>  (105) 
4

>  <NAR>  (105) 
3

>  <PSA>  (105) 
57.78

>  <Standard Type>  (105) 
nan

>  <Standard Relation>  (105) 
nan

>  <Standard Units>  (105) 
nan

>  <Standard Value>  (105) 
nan

>  <Assay ChEMBL ID>  (105) 
nan

>  <Assay Description>  (105) 
nan

>  <BAO Label>  (105) 
nan

$$$$

     RDKit          2D

 33 37  0  0  0  0  0  0  0  0999 V2000
   -4.1131    8.6253    0.0000 C   0  0  0  0  0  0  0  0  0  0  0  0
   -4.4249    7.1580    0.0000 N   0  0  0  0  0  0  0  0  0  0  0  0
   -3.3102    6.1544    0.0000 C   0  0  0  0  0  0  0  0  0  0  0  0
   -3.6221    4.6871    0.0000 C   0  0  0  0  0  0  0  0  0  0  0  0
   -5.0487    4.2236    0.0000 N   0  0  0  0  0  0  0  0  0  0  0  0
   -5.3605    2.7564    0.0000 C   0  0  0  0  0  0  0  0  0  0  0  0
   -6.7871    2.2929    0.0000 C   0  0  0  0  0  0  0  0  0  0  0  0
   -7.0990    0.8256    0.0000 C   0  0  0  0  0  0  0  0  0  0  0  0
   -5.9843   -0.1781    0.0000 C   0  0  0  0  0  0  0  0  0  0  0  0
   -6.2961   -1.6453    0.0000 N   0  0  0  0  0  0  0  0  0  0  0  0
   -5.1814   -2.6490    0.0000 C   0  0  0  0  0  0  0  0  0  0  0  0
   -5.4933   -4.1162    0.0000 N   0  0  0  0  0  0  0  0  0  0  0  0
   -4.3786   -5.1199    0.0000 C   0  0  0  0  0  0  0  0  0  0  0  0
   -2.9520   -4.6564    0.0000 C   0  0  0  0  0  0  0  0  0  0  0  0
   -2.6401   -3.1891    0.0000 C   0  0  0  0  0  0  0  0  0  0  0  0
   -1.2135   -2.7256    0.0000 C   0  0  0  0  0  0  0  0  0  0  0  0
   -0.0000   -3.6073    0.0000 C   0  0  0  0  0  0  0  0  0  0  0  0
    1.2135   -2.7256    0.0000 N   0  0  0  0  0  0  0  0  0  0  0  0
    0.7500   -1.2990    0.0000 N   0  0  0  0  0  0  0  0  0  0  0  0
    1.5000    0.0000    0.0000 N   0  0  0  0  0  0  0  0  0  0  0  0
    0.7500    1.2990    0.0000 C   0  0  0  0  0  0  0  0  0  0  0  0
   -0.7500    1.2990    0.0000 C   0  0  0  0  0  0  0  0  0  0  0  0
   -1.5000    0.0000    0.0000 C   0  0  0  0  0  0  0  0  0  0  0  0
   -0.7500   -1.2990    0.0000 C   0  0  0  0  0  0  0  0  0  0  0  0
   -3.7548   -2.1855    0.0000 N   0  0  0  0  0  0  0  0  0  0  0  0
   -4.5577    0.2855    0.0000 C   0  0  0  0  0  0  0  0  0  0  0  0
   -4.2458    1.7527    0.0000 C   0  0  0  0  0  0  0  0  0  0  0  0
   -2.8192    2.2162    0.0000 C   0  0  0  0  0  0  0  0  0  0  0  0
   -1.3926    2.6797    0.0000 F   0  0  0  0  0  0  0  0  0  0  0  0
   -2.3557    0.7896    0.0000 F   0  0  0  0  0  0  0  0  0  0  0  0
   -3.2828    3.6428    0.0000 F   0  0  0  0  0  0  0  0  0  0  0  0
   -6.1634    5.2273    0.0000 C   0  0  0  0  0  0  0  0  0  0  0  0
   -5.8515    6.6945    0.0000 C   0  0  0  0  0  0  0  0  0  0  0  0
  1  2  1  0
  2  3  1  0
  3  4  1  0
  4  5  1  0
  5  6  1  0
  6  7  2  0
  7  8  1  0
  8  9  2  0
  9 10  1  0
 10 11  1  0
 11 12  2  0
 12 13  1  0
 13 14  2  0
 14 15  1  0
 15 16  1  0
 16 17  1  0
 17 18  2  0
 18 19  1  0
 19 20  1  0
 20 21  2  0
 21 22  1  0
 22 23  2  0
 23 24  1  0
 15 25  2  0
  9 26  1  0
 26 27  2  0
 27 28  1  0
 28 29  1  0
 28 30  1  0
 28 31  1  0
  5 32  1  0
 32 33  1  0
 33  2  1  0
 27  6  1  0
 25 11  1  0
 24 16  2  0
 24 19  1  0
M  END
>  <Compound_ID>  (106) 
CHEMBL468963

>  <Active>  (106) 
1

>  <Smiles>  (106) 
CN1CCN(c2ccc(Nc3nccc(-c4cnn5ncccc45)n3)cc2C(F)(F)F)CC1

>  <canonical_smi>  (106) 
CN1CCN(c2ccc(Nc3nccc(-c4cnn5ncccc45)n3)cc2C(F)(F)F)CC1

>  <Set>  (106) 
G2 active

>  <Set_type>  (106) 
Train

>  <MW>  (106) 
454.46

>  <HBD>  (106) 
1

>  <HBA>  (106) 
7

>  <NRB>  (106) 
4

>  <NR>  (106) 
5

>  <NAR>  (106) 
4

>  <PSA>  (106) 
74.48

>  <Standard Type>  (106) 
nan

>  <Standard Relation>  (106) 
nan

>  <Standard Units>  (106) 
nan

>  <Standard Value>  (106) 
nan

>  <Assay ChEMBL ID>  (106) 
nan

>  <Assay Description>  (106) 
nan

>  <BAO Label>  (106) 
nan

$$$$

     RDKit          2D

 34 39  0  0  0  0  0  0  0  0999 V2000
   -0.7500   -6.4952    0.0000 C   0  0  0  0  0  0  0  0  0  0  0  0
    0.7500   -6.4952    0.0000 O   0  0  0  0  0  0  0  0  0  0  0  0
    1.5000   -5.1962    0.0000 C   0  0  0  0  0  0  0  0  0  0  0  0
    0.7500   -3.8971    0.0000 C   0  0  0  0  0  0  0  0  0  0  0  0
    1.5000   -2.5981    0.0000 C   0  0  0  0  0  0  0  0  0  0  0  0
    0.7500   -1.2990    0.0000 C   0  0  0  0  0  0  0  0  0  0  0  0
    1.5000    0.0000    0.0000 C   0  0  0  0  0  0  0  0  0  0  0  0
    0.7500    1.2990    0.0000 C   0  0  0  0  0  0  0  0  0  0  0  0
   -0.7500    1.2990    0.0000 C   0  0  0  0  0  0  0  0  0  0  0  0
   -1.7537    2.4138    0.0000 C   0  0  0  0  0  0  0  0  0  0  0  0
   -1.4418    3.8810    0.0000 C   0  0  0  0  0  0  0  0  0  0  0  0
   -0.0715    4.4911    0.0000 N   0  0  0  0  0  0  0  0  0  0  0  0
   -0.2283    5.9829    0.0000 C   0  0  0  0  0  0  0  0  0  0  0  0
    0.7754    7.0976    0.0000 C   0  0  0  0  0  0  0  0  0  0  0  0
    2.2426    6.7857    0.0000 N   0  0  0  0  0  0  0  0  0  0  0  0
    2.7061    5.3591    0.0000 C   0  0  0  0  0  0  0  0  0  0  0  0
    4.1734    5.0473    0.0000 C   0  0  0  0  0  0  0  0  0  0  0  0
    5.1771    6.1620    0.0000 N   0  0  0  0  0  0  0  0  0  0  0  0
    6.6443    5.8501    0.0000 C   0  0  0  0  0  0  0  0  0  0  0  0
    4.7135    7.5886    0.0000 C   0  0  0  0  0  0  0  0  0  0  0  0
    3.2463    7.9004    0.0000 C   0  0  0  0  0  0  0  0  0  0  0  0
    0.3119    8.5242    0.0000 C   0  0  0  0  0  0  0  0  0  0  0  0
   -1.1554    8.8360    0.0000 C   0  0  0  0  0  0  0  0  0  0  0  0
   -2.1590    7.7213    0.0000 C   0  0  0  0  0  0  0  0  0  0  0  0
   -1.6955    6.2947    0.0000 C   0  0  0  0  0  0  0  0  0  0  0  0
   -2.4455    4.9957    0.0000 N   0  0  0  0  0  0  0  0  0  0  0  0
   -3.1240    1.8037    0.0000 N   0  0  0  0  0  0  0  0  0  0  0  0
   -2.9672    0.3119    0.0000 N   0  0  0  0  0  0  0  0  0  0  0  0
   -1.5000    0.0000    0.0000 C   0  0  0  0  0  0  0  0  0  0  0  0
   -0.7500   -1.2990    0.0000 C   0  0  0  0  0  0  0  0  0  0  0  0
    3.0000   -2.5981    0.0000 C   0  0  0  0  0  0  0  0  0  0  0  0
    3.7500   -3.8971    0.0000 C   0  0  0  0  0  0  0  0  0  0  0  0
    3.0000   -5.1962    0.0000 C   0  0  0  0  0  0  0  0  0  0  0  0
    3.7500   -6.4952    0.0000 O   0  0  0  0  0  0  0  0  0  0  0  0
  1  2  1  0
  2  3  1  0
  3  4  2  0
  4  5  1  0
  5  6  1  0
  6  7  2  0
  7  8  1  0
  8  9  2  0
  9 10  1  0
 10 11  1  0
 11 12  2  0
 12 13  1  0
 13 14  2  0
 14 15  1  0
 15 16  1  0
 16 17  1  0
 17 18  1  0
 18 19  1  0
 18 20  1  0
 20 21  1  0
 14 22  1  0
 22 23  2  0
 23 24  1  0
 24 25  2  0
 25 26  1  0
 10 27  2  0
 27 28  1  0
 28 29  1  0
 29 30  2  0
  5 31  2  0
 31 32  1  0
 32 33  2  0
 33 34  1  0
 33  3  1  0
 30  6  1  0
 29  9  1  0
 26 11  1  0
 25 13  1  0
 21 15  1  0
M  END
>  <Compound_ID>  (107) 
CHEMBL514197

>  <Active>  (107) 
1

>  <Smiles>  (107) 
COc1cc(-c2ccc3c(-c4nc5c(N6CCN(C)CC6)cccc5[nH]4)n[nH]c3c2)ccc1O

>  <canonical_smi>  (107) 
COc1cc(-c2ccc3c(-c4nc5c(N6CCN(C)CC6)cccc5[nH]4)n[nH]c3c2)ccc1O

>  <Set>  (107) 
G2 active

>  <Set_type>  (107) 
Train

>  <MW>  (107) 
454.53

>  <HBD>  (107) 
3

>  <HBA>  (107) 
6

>  <NRB>  (107) 
4

>  <NR>  (107) 
6

>  <NAR>  (107) 
5

>  <PSA>  (107) 
93.3

>  <Standard Type>  (107) 
nan

>  <Standard Relation>  (107) 
nan

>  <Standard Units>  (107) 
nan

>  <Standard Value>  (107) 
nan

>  <Assay ChEMBL ID>  (107) 
nan

>  <Assay Description>  (107) 
nan

>  <BAO Label>  (107) 
nan

$$$$

     RDKit          2D

 24 26  0  0  0  0  0  0  0  0999 V2000
   -3.4092  -16.4075    0.0000 C   0  0  0  0  0  0  0  0  0  0  0  0
   -1.9092  -16.4075    0.0000 C   0  0  0  0  0  0  0  0  0  0  0  0
   -1.1592  -15.1085    0.0000 C   0  0  0  0  0  0  0  0  0  0  0  0
    0.3326  -14.9517    0.0000 C   0  0  0  0  0  0  0  0  0  0  0  0
    0.6445  -13.4844    0.0000 N   0  0  0  0  0  0  0  0  0  0  0  0
   -0.6546  -12.7344    0.0000 C   0  0  0  0  0  0  0  0  0  0  0  0
   -0.8113  -11.2427    0.0000 C   0  0  0  0  0  0  0  0  0  0  0  0
    0.4022  -10.3610    0.0000 S   0  0  0  0  0  0  0  0  0  0  0  0
    0.2454   -8.8692    0.0000 C   0  0  0  0  0  0  0  0  0  0  0  0
   -1.0537   -8.1192    0.0000 C   0  0  0  0  0  0  0  0  0  0  0  0
   -0.7418   -6.6520    0.0000 N   0  0  0  0  0  0  0  0  0  0  0  0
    0.7500   -6.4952    0.0000 C   0  0  0  0  0  0  0  0  0  0  0  0
    1.5000   -5.1962    0.0000 N   0  0  0  0  0  0  0  0  0  0  0  0
    0.7500   -3.8971    0.0000 C   0  0  0  0  0  0  0  0  0  0  0  0
   -0.7500   -3.8971    0.0000 O   0  0  0  0  0  0  0  0  0  0  0  0
    1.5000   -2.5981    0.0000 C   0  0  0  0  0  0  0  0  0  0  0  0
    0.7500   -1.2990    0.0000 C   0  0  0  0  0  0  0  0  0  0  0  0
    1.5000    0.0000    0.0000 C   0  0  0  0  0  0  0  0  0  0  0  0
    0.7500    1.2990    0.0000 C   0  0  0  0  0  0  0  0  0  0  0  0
   -0.7500    1.2990    0.0000 C   0  0  0  0  0  0  0  0  0  0  0  0
   -1.5000    0.0000    0.0000 N   0  0  0  0  0  0  0  0  0  0  0  0
   -0.7500   -1.2990    0.0000 C   0  0  0  0  0  0  0  0  0  0  0  0
    1.3601   -7.8655    0.0000 S   0  0  0  0  0  0  0  0  0  0  0  0
   -1.7693  -13.7381    0.0000 O   0  0  0  0  0  0  0  0  0  0  0  0
  1  2  1  0
  2  3  1  0
  3  4  2  0
  4  5  1  0
  5  6  2  0
  6  7  1  0
  7  8  1  0
  8  9  1  0
  9 10  2  0
 10 11  1  0
 11 12  2  0
 12 13  1  0
 13 14  1  0
 14 15  2  0
 14 16  1  0
 16 17  1  0
 17 18  2  0
 18 19  1  0
 19 20  2  0
 20 21  1  0
 21 22  2  0
 12 23  1  0
  6 24  1  0
 24  3  1  0
 23  9  1  0
 22 17  1  0
M  END
>  <Compound_ID>  (108) 
CHEMBL129396

>  <Active>  (108) 
1

>  <Smiles>  (108) 
CCc1cnc(CSc2cnc(NC(=O)Cc3cccnc3)s2)o1

>  <canonical_smi>  (108) 
CCc1cnc(CSc2cnc(NC(=O)Cc3cccnc3)s2)o1

>  <Set>  (108) 
G2 active

>  <Set_type>  (108) 
Train

>  <MW>  (108) 
360.46

>  <HBD>  (108) 
1

>  <HBA>  (108) 
6

>  <NRB>  (108) 
7

>  <NR>  (108) 
3

>  <NAR>  (108) 
3

>  <PSA>  (108) 
80.91

>  <Standard Type>  (108) 
nan

>  <Standard Relation>  (108) 
nan

>  <Standard Units>  (108) 
nan

>  <Standard Value>  (108) 
nan

>  <Assay ChEMBL ID>  (108) 
nan

>  <Assay Description>  (108) 
nan

>  <BAO Label>  (108) 
nan

$$$$

     RDKit          2D

 22 25  0  0  0  0  0  0  0  0999 V2000
   -1.8373   -5.6601    0.0000 O   0  0  0  0  0  0  0  0  0  0  0  0
   -2.9520   -4.6564    0.0000 C   0  0  0  0  0  0  0  0  0  0  0  0
   -2.6401   -3.1891    0.0000 N   0  0  0  0  0  0  0  0  0  0  0  0
   -1.2135   -2.7256    0.0000 C   0  0  0  0  0  0  0  0  0  0  0  0
   -0.0000   -3.6073    0.0000 N   0  0  0  0  0  0  0  0  0  0  0  0
    1.2135   -2.7256    0.0000 N   0  0  0  0  0  0  0  0  0  0  0  0
    0.7500   -1.2990    0.0000 C   0  0  0  0  0  0  0  0  0  0  0  0
    1.5000    0.0000    0.0000 C   0  0  0  0  0  0  0  0  0  0  0  0
    0.7500    1.2990    0.0000 C   0  0  0  0  0  0  0  0  0  0  0  0
    1.5000    2.5981    0.0000 C   0  0  0  0  0  0  0  0  0  0  0  0
    3.0000    2.5981    0.0000 C   0  0  0  0  0  0  0  0  0  0  0  0
    3.7500    3.8971    0.0000 C   0  0  0  0  0  0  0  0  0  0  0  0
    3.0000    5.1962    0.0000 C   0  0  0  0  0  0  0  0  0  0  0  0
    3.7500    6.4952    0.0000 O   0  0  0  0  0  0  0  0  0  0  0  0
    1.5000    5.1962    0.0000 C   0  0  0  0  0  0  0  0  0  0  0  0
    0.7500    3.8971    0.0000 C   0  0  0  0  0  0  0  0  0  0  0  0
   -0.7500    1.2990    0.0000 C   0  0  0  0  0  0  0  0  0  0  0  0
   -1.5000    0.0000    0.0000 C   0  0  0  0  0  0  0  0  0  0  0  0
   -0.7500   -1.2990    0.0000 C   0  0  0  0  0  0  0  0  0  0  0  0
   -4.3786   -5.1199    0.0000 C   0  0  0  0  0  0  0  0  0  0  0  0
   -5.3823   -6.2346    0.0000 C   0  0  0  0  0  0  0  0  0  0  0  0
   -5.8458   -4.8080    0.0000 C   0  0  0  0  0  0  0  0  0  0  0  0
  1  2  2  0
  2  3  1  0
  3  4  1  0
  4  5  2  0
  5  6  1  0
  6  7  1  0
  7  8  2  0
  8  9  1  0
  9 10  1  0
 10 11  2  0
 11 12  1  0
 12 13  2  0
 13 14  1  0
 13 15  1  0
 15 16  2  0
  9 17  2  0
 17 18  1  0
 18 19  2  0
  2 20  1  0
 20 21  1  0
 21 22  1  0
 19  4  1  0
 22 20  1  0
 19  7  1  0
 16 10  1  0
M  END
>  <Compound_ID>  (109) 
CHEMBL260163

>  <Active>  (109) 
1

>  <Smiles>  (109) 
O=C(Nc1n[nH]c2cc(-c3ccc(O)cc3)ccc12)C1CC1

>  <canonical_smi>  (109) 
O=C(Nc1n[nH]c2cc(-c3ccc(O)cc3)ccc12)C1CC1

>  <Set>  (109) 
G2 active

>  <Set_type>  (109) 
Train

>  <MW>  (109) 
293.33

>  <HBD>  (109) 
3

>  <HBA>  (109) 
3

>  <NRB>  (109) 
3

>  <NR>  (109) 
4

>  <NAR>  (109) 
3

>  <PSA>  (109) 
78.01

>  <Standard Type>  (109) 
nan

>  <Standard Relation>  (109) 
nan

>  <Standard Units>  (109) 
nan

>  <Standard Value>  (109) 
nan

>  <Assay ChEMBL ID>  (109) 
nan

>  <Assay Description>  (109) 
nan

>  <BAO Label>  (109) 
nan

$$$$

     RDKit          2D

 14 16  0  0  0  0  0  0  0  0999 V2000
   -3.4140    4.5616    0.0000 O   0  0  0  0  0  0  0  0  0  0  0  0
   -4.1640    3.2626    0.0000 C   0  0  0  0  0  0  0  0  0  0  0  0
   -3.4140    1.9635    0.0000 N   0  0  0  0  0  0  0  0  0  0  0  0
   -1.9140    1.9635    0.0000 C   0  0  0  0  0  0  0  0  0  0  0  0
   -1.0323    3.1771    0.0000 N   0  0  0  0  0  0  0  0  0  0  0  0
    0.3943    2.7135    0.0000 N   0  0  0  0  0  0  0  0  0  0  0  0
    0.3943    1.2135    0.0000 C   0  0  0  0  0  0  0  0  0  0  0  0
    1.2760    0.0000    0.0000 C   0  0  0  0  0  0  0  0  0  0  0  0
    0.3943   -1.2135    0.0000 C   0  0  0  0  0  0  0  0  0  0  0  0
   -1.0323   -0.7500    0.0000 C   0  0  0  0  0  0  0  0  0  0  0  0
   -1.0323    0.7500    0.0000 C   0  0  0  0  0  0  0  0  0  0  0  0
   -5.6640    3.2626    0.0000 C   0  0  0  0  0  0  0  0  0  0  0  0
   -6.9630    2.5126    0.0000 C   0  0  0  0  0  0  0  0  0  0  0  0
   -6.9630    4.0126    0.0000 C   0  0  0  0  0  0  0  0  0  0  0  0
  1  2  2  0
  2  3  1  0
  3  4  1  0
  4  5  2  0
  5  6  1  0
  6  7  1  0
  7  8  2  0
  8  9  1  0
  9 10  2  0
 10 11  1  0
  2 12  1  0
 12 13  1  0
 13 14  1  0
 11  4  1  0
 14 12  1  0
 11  7  1  0
M  END
>  <Compound_ID>  (110) 
CHEMBL500804

>  <Active>  (110) 
1

>  <Smiles>  (110) 
O=C(NC1=NNC2=CC=CC21)C1CC1

>  <canonical_smi>  (110) 
O=C(NC1=NNC2=CC=CC21)C1CC1

>  <Set>  (110) 
G2 active

>  <Set_type>  (110) 
Train

>  <MW>  (110) 
189.22

>  <HBD>  (110) 
2

>  <HBA>  (110) 
2

>  <NRB>  (110) 
1

>  <NR>  (110) 
3

>  <NAR>  (110) 
0

>  <PSA>  (110) 
53.49

>  <Standard Type>  (110) 
nan

>  <Standard Relation>  (110) 
nan

>  <Standard Units>  (110) 
nan

>  <Standard Value>  (110) 
nan

>  <Assay ChEMBL ID>  (110) 
nan

>  <Assay Description>  (110) 
nan

>  <BAO Label>  (110) 
nan

$$$$

     RDKit          2D

 23 26  0  0  0  0  0  0  0  0999 V2000
   -0.1459    3.7548    0.0000 O   0  0  0  0  0  0  0  0  0  0  0  0
    0.8578    2.6401    0.0000 C   0  0  0  0  0  0  0  0  0  0  0  0
    2.3250    2.9520    0.0000 N   0  0  0  0  0  0  0  0  0  0  0  0
    2.7886    4.3786    0.0000 C   0  0  0  0  0  0  0  0  0  0  0  0
    2.4767    5.8458    0.0000 C   0  0  0  0  0  0  0  0  0  0  0  0
    3.9033    5.3823    0.0000 C   0  0  0  0  0  0  0  0  0  0  0  0
    0.3943    1.2135    0.0000 C   0  0  0  0  0  0  0  0  0  0  0  0
    1.2760    0.0000    0.0000 N   0  0  0  0  0  0  0  0  0  0  0  0
    0.3943   -1.2135    0.0000 N   0  0  0  0  0  0  0  0  0  0  0  0
   -1.0323   -0.7500    0.0000 C   0  0  0  0  0  0  0  0  0  0  0  0
   -2.3313   -1.5000    0.0000 C   0  0  0  0  0  0  0  0  0  0  0  0
   -3.6304   -0.7500    0.0000 C   0  0  0  0  0  0  0  0  0  0  0  0
   -4.9294   -1.5000    0.0000 C   0  0  0  0  0  0  0  0  0  0  0  0
   -6.2284   -0.7500    0.0000 C   0  0  0  0  0  0  0  0  0  0  0  0
   -7.5275   -1.5000    0.0000 C   0  0  0  0  0  0  0  0  0  0  0  0
   -7.5275   -3.0000    0.0000 C   0  0  0  0  0  0  0  0  0  0  0  0
   -8.8265   -3.7500    0.0000 O   0  0  0  0  0  0  0  0  0  0  0  0
   -6.2284   -3.7500    0.0000 C   0  0  0  0  0  0  0  0  0  0  0  0
   -4.9294   -3.0000    0.0000 C   0  0  0  0  0  0  0  0  0  0  0  0
   -3.6304    0.7500    0.0000 C   0  0  0  0  0  0  0  0  0  0  0  0
   -4.9294    1.5000    0.0000 Br  0  0  0  0  0  0  0  0  0  0  0  0
   -2.3313    1.5000    0.0000 C   0  0  0  0  0  0  0  0  0  0  0  0
   -1.0323    0.7500    0.0000 C   0  0  0  0  0  0  0  0  0  0  0  0
  1  2  2  0
  2  3  1  0
  3  4  1  0
  4  5  1  0
  5  6  1  0
  2  7  1  0
  7  8  2  0
  8  9  1  0
  9 10  1  0
 10 11  2  0
 11 12  1  0
 12 13  1  0
 13 14  2  0
 14 15  1  0
 15 16  2  0
 16 17  1  0
 16 18  1  0
 18 19  2  0
 12 20  2  0
 20 21  1  0
 20 22  1  0
 22 23  2  0
  6  4  1  0
 23  7  1  0
 23 10  1  0
 19 13  1  0
M  END
>  <Compound_ID>  (111) 
CHEMBL481562

>  <Active>  (111) 
1

>  <Smiles>  (111) 
O=C(NC1CC1)c1n[nH]c2cc(-c3ccc(O)cc3)c(Br)cc12

>  <canonical_smi>  (111) 
O=C(NC1CC1)c1n[nH]c2cc(-c3ccc(O)cc3)c(Br)cc12

>  <Set>  (111) 
G2 active

>  <Set_type>  (111) 
Train

>  <MW>  (111) 
372.22

>  <HBD>  (111) 
3

>  <HBA>  (111) 
3

>  <NRB>  (111) 
3

>  <NR>  (111) 
4

>  <NAR>  (111) 
3

>  <PSA>  (111) 
78.01

>  <Standard Type>  (111) 
nan

>  <Standard Relation>  (111) 
nan

>  <Standard Units>  (111) 
nan

>  <Standard Value>  (111) 
nan

>  <Assay ChEMBL ID>  (111) 
nan

>  <Assay Description>  (111) 
nan

>  <BAO Label>  (111) 
nan

$$$$

     RDKit          2D

 28 31  0  0  0  0  0  0  0  0999 V2000
   -1.3905   11.5607    0.0000 N   0  0  0  0  0  0  0  0  0  0  0  0
   -1.7024   10.0935    0.0000 S   0  0  0  0  0  0  0  0  0  0  0  0
   -0.2352    9.7816    0.0000 O   0  0  0  0  0  0  0  0  0  0  0  0
   -3.1696   10.4054    0.0000 O   0  0  0  0  0  0  0  0  0  0  0  0
   -2.0143    8.6263    0.0000 C   0  0  0  0  0  0  0  0  0  0  0  0
   -0.8995    7.6226    0.0000 C   0  0  0  0  0  0  0  0  0  0  0  0
   -1.2114    6.1554    0.0000 C   0  0  0  0  0  0  0  0  0  0  0  0
   -2.6380    5.6918    0.0000 C   0  0  0  0  0  0  0  0  0  0  0  0
   -2.9499    4.2246    0.0000 N   0  0  0  0  0  0  0  0  0  0  0  0
   -1.8351    3.2209    0.0000 C   0  0  0  0  0  0  0  0  0  0  0  0
   -0.4086    3.6844    0.0000 N   0  0  0  0  0  0  0  0  0  0  0  0
    0.7062    2.6807    0.0000 C   0  0  0  0  0  0  0  0  0  0  0  0
    2.1328    3.1443    0.0000 O   0  0  0  0  0  0  0  0  0  0  0  0
    2.4446    4.6115    0.0000 C   0  0  0  0  0  0  0  0  0  0  0  0
    3.8712    5.0750    0.0000 C   0  0  0  0  0  0  0  0  0  0  0  0
    4.9859    4.0713    0.0000 C   0  0  0  0  0  0  0  0  0  0  0  0
    6.4125    4.5348    0.0000 C   0  0  0  0  0  0  0  0  0  0  0  0
    6.7244    6.0021    0.0000 C   0  0  0  0  0  0  0  0  0  0  0  0
    5.6097    7.0058    0.0000 C   0  0  0  0  0  0  0  0  0  0  0  0
    4.1831    6.5422    0.0000 C   0  0  0  0  0  0  0  0  0  0  0  0
    0.3943    1.2135    0.0000 C   0  0  0  0  0  0  0  0  0  0  0  0
    1.2760    0.0000    0.0000 N   0  0  0  0  0  0  0  0  0  0  0  0
    0.3943   -1.2135    0.0000 C   0  0  0  0  0  0  0  0  0  0  0  0
   -1.0323   -0.7500    0.0000 N   0  0  0  0  0  0  0  0  0  0  0  0
   -1.0323    0.7500    0.0000 C   0  0  0  0  0  0  0  0  0  0  0  0
   -2.1470    1.7537    0.0000 N   0  0  0  0  0  0  0  0  0  0  0  0
   -3.7527    6.6955    0.0000 C   0  0  0  0  0  0  0  0  0  0  0  0
   -3.4408    8.1628    0.0000 C   0  0  0  0  0  0  0  0  0  0  0  0
  1  2  1  0
  2  3  2  0
  2  4  2  0
  2  5  1  0
  5  6  2  0
  6  7  1  0
  7  8  2  0
  8  9  1  0
  9 10  1  0
 10 11  2  0
 11 12  1  0
 12 13  1  0
 13 14  1  0
 14 15  1  0
 15 16  1  0
 16 17  1  0
 17 18  1  0
 18 19  1  0
 19 20  1  0
 12 21  2  0
 21 22  1  0
 22 23  1  0
 23 24  2  0
 24 25  1  0
 25 26  2  0
  8 27  1  0
 27 28  2  0
 28  5  1  0
 26 10  1  0
 20 15  1  0
 25 21  1  0
M  END
>  <Compound_ID>  (112) 
CHEMBL319467

>  <Active>  (112) 
1

>  <Smiles>  (112) 
NS(=O)(=O)c1ccc(Nc2nc(OCC3CCCCC3)c3[nH]cnc3n2)cc1

>  <canonical_smi>  (112) 
NS(=O)(=O)c1ccc(Nc2nc(OCC3CCCCC3)c3[nH]cnc3n2)cc1

>  <Set>  (112) 
G2 active

>  <Set_type>  (112) 
Train

>  <MW>  (112) 
402.48

>  <HBD>  (112) 
3

>  <HBA>  (112) 
7

>  <NRB>  (112) 
6

>  <NR>  (112) 
4

>  <NAR>  (112) 
3

>  <PSA>  (112) 
135.88

>  <Standard Type>  (112) 
nan

>  <Standard Relation>  (112) 
nan

>  <Standard Units>  (112) 
nan

>  <Standard Value>  (112) 
nan

>  <Assay ChEMBL ID>  (112) 
nan

>  <Assay Description>  (112) 
nan

>  <BAO Label>  (112) 
nan

$$$$

     RDKit          2D

 32 36  0  0  0  0  0  0  0  0999 V2000
  -10.1878   -4.1483    0.0000 O   0  0  0  0  0  0  0  0  0  0  0  0
   -8.8888   -4.8983    0.0000 S   0  0  0  0  0  0  0  0  0  0  0  0
   -7.5897   -5.6483    0.0000 O   0  0  0  0  0  0  0  0  0  0  0  0
   -9.6388   -6.1973    0.0000 N   0  0  0  0  0  0  0  0  0  0  0  0
   -8.8888   -7.4964    0.0000 C   0  0  0  0  0  0  0  0  0  0  0  0
   -9.6388   -8.7954    0.0000 C   0  0  0  0  0  0  0  0  0  0  0  0
  -11.1388   -8.7954    0.0000 C   0  0  0  0  0  0  0  0  0  0  0  0
  -11.8888  -10.0944    0.0000 C   0  0  0  0  0  0  0  0  0  0  0  0
  -11.1388  -11.3935    0.0000 C   0  0  0  0  0  0  0  0  0  0  0  0
   -9.6388  -11.3935    0.0000 C   0  0  0  0  0  0  0  0  0  0  0  0
   -8.8888  -10.0944    0.0000 C   0  0  0  0  0  0  0  0  0  0  0  0
   -8.1388   -3.5992    0.0000 C   0  0  0  0  0  0  0  0  0  0  0  0
   -6.6388   -3.5992    0.0000 C   0  0  0  0  0  0  0  0  0  0  0  0
   -5.8888   -2.3002    0.0000 C   0  0  0  0  0  0  0  0  0  0  0  0
   -6.6388   -1.0012    0.0000 C   0  0  0  0  0  0  0  0  0  0  0  0
   -5.8888    0.2979    0.0000 N   0  0  0  0  0  0  0  0  0  0  0  0
   -4.3888    0.2979    0.0000 C   0  0  0  0  0  0  0  0  0  0  0  0
   -3.6388    1.5969    0.0000 C   0  0  0  0  0  0  0  0  0  0  0  0
   -4.2489    2.9672    0.0000 C   0  0  0  0  0  0  0  0  0  0  0  0
   -5.7161    3.2791    0.0000 O   0  0  0  0  0  0  0  0  0  0  0  0
   -3.1342    3.9709    0.0000 N   0  0  0  0  0  0  0  0  0  0  0  0
   -1.8351    3.2209    0.0000 C   0  0  0  0  0  0  0  0  0  0  0  0
   -0.4086    3.6844    0.0000 C   0  0  0  0  0  0  0  0  0  0  0  0
    0.7062    2.6807    0.0000 C   0  0  0  0  0  0  0  0  0  0  0  0
    0.3943    1.2135    0.0000 C   0  0  0  0  0  0  0  0  0  0  0  0
    1.2760    0.0000    0.0000 N   0  0  0  0  0  0  0  0  0  0  0  0
    0.3943   -1.2135    0.0000 C   0  0  0  0  0  0  0  0  0  0  0  0
   -1.0323   -0.7500    0.0000 S   0  0  0  0  0  0  0  0  0  0  0  0
   -1.0323    0.7500    0.0000 C   0  0  0  0  0  0  0  0  0  0  0  0
   -2.1470    1.7537    0.0000 C   0  0  0  0  0  0  0  0  0  0  0  0
   -8.1388   -1.0012    0.0000 C   0  0  0  0  0  0  0  0  0  0  0  0
   -8.8888   -2.3002    0.0000 C   0  0  0  0  0  0  0  0  0  0  0  0
  1  2  2  0
  2  3  2  0
  2  4  1  0
  4  5  1  0
  5  6  1  0
  6  7  2  0
  7  8  1  0
  8  9  2  0
  9 10  1  0
 10 11  2  0
  2 12  1  0
 12 13  2  0
 13 14  1  0
 14 15  2  0
 15 16  1  0
 16 17  2  0
 17 18  1  0
 18 19  2  0
 19 20  1  0
 19 21  1  0
 21 22  1  0
 22 23  2  0
 23 24  1  0
 24 25  2  0
 25 26  1  0
 26 27  2  0
 27 28  1  0
 28 29  1  0
 29 30  2  0
 15 31  1  0
 31 32  2  0
 11  6  1  0
 32 12  1  0
 30 18  1  0
 30 22  1  0
 29 25  1  0
M  END
>  <Compound_ID>  (113) 
CHEMBL83190

>  <Active>  (113) 
1

>  <Smiles>  (113) 
O=S(=O)(NCc1ccccc1)c1ccc(/N=C/c2c(O)[nH]c3ccc4ncsc4c23)cc1

>  <canonical_smi>  (113) 
O=S(=O)(NCc1ccccc1)c1ccc(/N=C/c2c(O)[nH]c3ccc4ncsc4c23)cc1

>  <Set>  (113) 
G2 active

>  <Set_type>  (113) 
Train

>  <MW>  (113) 
462.56

>  <HBD>  (113) 
3

>  <HBA>  (113) 
4

>  <NRB>  (113) 
6

>  <NR>  (113) 
5

>  <NAR>  (113) 
5

>  <PSA>  (113) 
107.44

>  <Standard Type>  (113) 
nan

>  <Standard Relation>  (113) 
nan

>  <Standard Units>  (113) 
nan

>  <Standard Value>  (113) 
nan

>  <Assay ChEMBL ID>  (113) 
nan

>  <Assay Description>  (113) 
nan

>  <BAO Label>  (113) 
nan

$$$$

     RDKit          2D

 32 36  0  0  0  0  0  0  0  0999 V2000
   -8.8888   -7.4964    0.0000 C   0  0  0  0  0  0  0  0  0  0  0  0
   -9.6388   -6.1973    0.0000 N   0  0  0  0  0  0  0  0  0  0  0  0
  -11.1388   -6.1973    0.0000 C   0  0  0  0  0  0  0  0  0  0  0  0
  -11.8888   -4.8983    0.0000 C   0  0  0  0  0  0  0  0  0  0  0  0
  -13.3888   -4.8983    0.0000 C   0  0  0  0  0  0  0  0  0  0  0  0
  -14.1388   -6.1973    0.0000 C   0  0  0  0  0  0  0  0  0  0  0  0
  -13.3888   -7.4964    0.0000 C   0  0  0  0  0  0  0  0  0  0  0  0
  -11.8888   -7.4964    0.0000 N   0  0  0  0  0  0  0  0  0  0  0  0
   -8.8888   -4.8983    0.0000 S   0  0  0  0  0  0  0  0  0  0  0  0
  -10.1878   -4.1483    0.0000 O   0  0  0  0  0  0  0  0  0  0  0  0
   -7.5897   -5.6483    0.0000 O   0  0  0  0  0  0  0  0  0  0  0  0
   -8.1388   -3.5992    0.0000 C   0  0  0  0  0  0  0  0  0  0  0  0
   -6.6388   -3.5992    0.0000 C   0  0  0  0  0  0  0  0  0  0  0  0
   -5.8888   -2.3002    0.0000 C   0  0  0  0  0  0  0  0  0  0  0  0
   -6.6388   -1.0012    0.0000 C   0  0  0  0  0  0  0  0  0  0  0  0
   -5.8888    0.2979    0.0000 N   0  0  0  0  0  0  0  0  0  0  0  0
   -4.3888    0.2979    0.0000 C   0  0  0  0  0  0  0  0  0  0  0  0
   -3.6388    1.5969    0.0000 C   0  0  0  0  0  0  0  0  0  0  0  0
   -4.2489    2.9672    0.0000 C   0  0  0  0  0  0  0  0  0  0  0  0
   -5.7161    3.2791    0.0000 O   0  0  0  0  0  0  0  0  0  0  0  0
   -3.1342    3.9709    0.0000 N   0  0  0  0  0  0  0  0  0  0  0  0
   -1.8351    3.2209    0.0000 C   0  0  0  0  0  0  0  0  0  0  0  0
   -0.4086    3.6844    0.0000 C   0  0  0  0  0  0  0  0  0  0  0  0
    0.7062    2.6807    0.0000 C   0  0  0  0  0  0  0  0  0  0  0  0
    0.3943    1.2135    0.0000 C   0  0  0  0  0  0  0  0  0  0  0  0
    1.2760    0.0000    0.0000 N   0  0  0  0  0  0  0  0  0  0  0  0
    0.3943   -1.2135    0.0000 C   0  0  0  0  0  0  0  0  0  0  0  0
   -1.0323   -0.7500    0.0000 S   0  0  0  0  0  0  0  0  0  0  0  0
   -1.0323    0.7500    0.0000 C   0  0  0  0  0  0  0  0  0  0  0  0
   -2.1470    1.7537    0.0000 C   0  0  0  0  0  0  0  0  0  0  0  0
   -8.1388   -1.0012    0.0000 C   0  0  0  0  0  0  0  0  0  0  0  0
   -8.8888   -2.3002    0.0000 C   0  0  0  0  0  0  0  0  0  0  0  0
  1  2  1  0
  2  3  1  0
  3  4  2  0
  4  5  1  0
  5  6  2  0
  6  7  1  0
  7  8  2  0
  2  9  1  0
  9 10  2  0
  9 11  2  0
  9 12  1  0
 12 13  2  0
 13 14  1  0
 14 15  2  0
 15 16  1  0
 16 17  2  0
 17 18  1  0
 18 19  2  0
 19 20  1  0
 19 21  1  0
 21 22  1  0
 22 23  2  0
 23 24  1  0
 24 25  2  0
 25 26  1  0
 26 27  2  0
 27 28  1  0
 28 29  1  0
 29 30  2  0
 15 31  1  0
 31 32  2  0
  8  3  1  0
 32 12  1  0
 30 18  1  0
 30 22  1  0
 29 25  1  0
M  END
>  <Compound_ID>  (114) 
CHEMBL134976

>  <Active>  (114) 
1

>  <Smiles>  (114) 
CN(c1ccccn1)S(=O)(=O)c1ccc(/N=C/c2c(O)[nH]c3ccc4ncsc4c23)cc1

>  <canonical_smi>  (114) 
CN(c1ccccn1)S(=O)(=O)c1ccc(/N=C/c2c(O)[nH]c3ccc4ncsc4c23)cc1

>  <Set>  (114) 
G2 active

>  <Set_type>  (114) 
Train

>  <MW>  (114) 
463.54

>  <HBD>  (114) 
2

>  <HBA>  (114) 
5

>  <NRB>  (114) 
5

>  <NR>  (114) 
5

>  <NAR>  (114) 
5

>  <PSA>  (114) 
111.54

>  <Standard Type>  (114) 
nan

>  <Standard Relation>  (114) 
nan

>  <Standard Units>  (114) 
nan

>  <Standard Value>  (114) 
nan

>  <Assay ChEMBL ID>  (114) 
nan

>  <Assay Description>  (114) 
nan

>  <BAO Label>  (114) 
nan

$$$$

     RDKit          2D

 27 30  0  0  0  0  0  0  0  0999 V2000
  -12.6388   -3.5992    0.0000 C   0  0  0  0  0  0  0  0  0  0  0  0
  -11.8888   -4.8983    0.0000 N   0  0  0  0  0  0  0  0  0  0  0  0
  -10.3888   -4.8983    0.0000 S   0  0  0  0  0  0  0  0  0  0  0  0
  -10.3888   -6.3983    0.0000 O   0  0  0  0  0  0  0  0  0  0  0  0
  -10.3888   -3.3983    0.0000 O   0  0  0  0  0  0  0  0  0  0  0  0
   -8.8888   -4.8983    0.0000 C   0  0  0  0  0  0  0  0  0  0  0  0
   -8.1388   -3.5992    0.0000 C   0  0  0  0  0  0  0  0  0  0  0  0
   -8.8888   -2.3002    0.0000 C   0  0  0  0  0  0  0  0  0  0  0  0
   -8.1388   -1.0012    0.0000 C   0  0  0  0  0  0  0  0  0  0  0  0
   -6.6388   -1.0012    0.0000 C   0  0  0  0  0  0  0  0  0  0  0  0
   -5.8888    0.2979    0.0000 N   0  0  0  0  0  0  0  0  0  0  0  0
   -4.3888    0.2979    0.0000 N   0  0  0  0  0  0  0  0  0  0  0  0
   -3.6388    1.5969    0.0000 C   0  0  0  0  0  0  0  0  0  0  0  0
   -4.2489    2.9672    0.0000 C   0  0  0  0  0  0  0  0  0  0  0  0
   -5.7161    3.2791    0.0000 O   0  0  0  0  0  0  0  0  0  0  0  0
   -3.1342    3.9709    0.0000 N   0  0  0  0  0  0  0  0  0  0  0  0
   -1.8351    3.2209    0.0000 C   0  0  0  0  0  0  0  0  0  0  0  0
   -0.4086    3.6844    0.0000 C   0  0  0  0  0  0  0  0  0  0  0  0
    0.7062    2.6807    0.0000 C   0  0  0  0  0  0  0  0  0  0  0  0
    0.3943    1.2135    0.0000 C   0  0  0  0  0  0  0  0  0  0  0  0
    1.2760    0.0000    0.0000 N   0  0  0  0  0  0  0  0  0  0  0  0
    0.3943   -1.2135    0.0000 C   0  0  0  0  0  0  0  0  0  0  0  0
   -1.0323   -0.7500    0.0000 S   0  0  0  0  0  0  0  0  0  0  0  0
   -1.0323    0.7500    0.0000 C   0  0  0  0  0  0  0  0  0  0  0  0
   -2.1470    1.7537    0.0000 C   0  0  0  0  0  0  0  0  0  0  0  0
   -5.8888   -2.3002    0.0000 C   0  0  0  0  0  0  0  0  0  0  0  0
   -6.6388   -3.5992    0.0000 C   0  0  0  0  0  0  0  0  0  0  0  0
  1  2  1  0
  2  3  1  0
  3  4  2  0
  3  5  2  0
  3  6  1  0
  6  7  1  0
  7  8  2  0
  8  9  1  0
  9 10  2  0
 10 11  1  0
 11 12  2  3
 12 13  1  0
 13 14  2  0
 14 15  1  0
 14 16  1  0
 16 17  1  0
 17 18  2  0
 18 19  1  0
 19 20  2  0
 20 21  1  0
 21 22  2  0
 22 23  1  0
 23 24  1  0
 24 25  2  0
 10 26  1  0
 26 27  2  0
 27  7  1  0
 25 13  1  0
 25 17  1  0
 24 20  1  0
M  END
>  <Compound_ID>  (115) 
CHEMBL422455

>  <Active>  (115) 
1

>  <Smiles>  (115) 
CNS(=O)(=O)Cc1ccc(N=Nc2c(O)[nH]c3ccc4ncsc4c23)cc1

>  <canonical_smi>  (115) 
CNS(=O)(=O)Cc1ccc(N=Nc2c(O)[nH]c3ccc4ncsc4c23)cc1

>  <Set>  (115) 
G2 active

>  <Set_type>  (115) 
Train

>  <MW>  (115) 
401.47

>  <HBD>  (115) 
3

>  <HBA>  (115) 
4

>  <NRB>  (115) 
5

>  <NR>  (115) 
4

>  <NAR>  (115) 
4

>  <PSA>  (115) 
119.8

>  <Standard Type>  (115) 
nan

>  <Standard Relation>  (115) 
nan

>  <Standard Units>  (115) 
nan

>  <Standard Value>  (115) 
nan

>  <Assay ChEMBL ID>  (115) 
nan

>  <Assay Description>  (115) 
nan

>  <BAO Label>  (115) 
nan

$$$$

     RDKit          2D

 28 31  0  0  0  0  0  0  0  0999 V2000
   -6.9204   -5.2665    0.0000 C   0  0  0  0  0  0  0  0  0  0  0  0
   -5.6213   -4.5165    0.0000 O   0  0  0  0  0  0  0  0  0  0  0  0
   -4.3223   -5.2665    0.0000 C   0  0  0  0  0  0  0  0  0  0  0  0
   -4.1655   -6.7583    0.0000 C   0  0  0  0  0  0  0  0  0  0  0  0
   -2.6983   -7.0701    0.0000 C   0  0  0  0  0  0  0  0  0  0  0  0
   -1.9483   -5.7711    0.0000 N   0  0  0  0  0  0  0  0  0  0  0  0
   -2.9520   -4.6564    0.0000 C   0  0  0  0  0  0  0  0  0  0  0  0
   -2.6401   -3.1891    0.0000 C   0  0  0  0  0  0  0  0  0  0  0  0
   -1.2135   -2.7256    0.0000 C   0  0  0  0  0  0  0  0  0  0  0  0
   -0.0000   -3.6073    0.0000 C   0  0  0  0  0  0  0  0  0  0  0  0
    0.0000   -5.1073    0.0000 O   0  0  0  0  0  0  0  0  0  0  0  0
    1.2135   -2.7256    0.0000 N   0  0  0  0  0  0  0  0  0  0  0  0
    0.7500   -1.2990    0.0000 C   0  0  0  0  0  0  0  0  0  0  0  0
    1.5000    0.0000    0.0000 C   0  0  0  0  0  0  0  0  0  0  0  0
    0.7500    1.2990    0.0000 C   0  0  0  0  0  0  0  0  0  0  0  0
   -0.7500    1.2990    0.0000 C   0  0  0  0  0  0  0  0  0  0  0  0
   -1.5000    2.5981    0.0000 F   0  0  0  0  0  0  0  0  0  0  0  0
   -1.5000    0.0000    0.0000 C   0  0  0  0  0  0  0  0  0  0  0  0
   -3.0000    0.0000    0.0000 C   0  0  0  0  0  0  0  0  0  0  0  0
   -4.5000    0.0000    0.0000 C   0  0  0  0  0  0  0  0  0  0  0  0
   -6.0000    0.0000    0.0000 C   0  0  0  0  0  0  0  0  0  0  0  0
   -5.7395   -1.4772    0.0000 O   0  0  0  0  0  0  0  0  0  0  0  0
   -5.7395    1.4772    0.0000 C   0  0  0  0  0  0  0  0  0  0  0  0
   -6.8886    2.4414    0.0000 C   0  0  0  0  0  0  0  0  0  0  0  0
   -8.2981    1.9284    0.0000 N   0  0  0  0  0  0  0  0  0  0  0  0
   -8.5586    0.4512    0.0000 C   0  0  0  0  0  0  0  0  0  0  0  0
   -7.4095   -0.5130    0.0000 C   0  0  0  0  0  0  0  0  0  0  0  0
   -0.7500   -1.2990    0.0000 C   0  0  0  0  0  0  0  0  0  0  0  0
  1  2  1  0
  2  3  1  0
  3  4  1  0
  4  5  2  0
  5  6  1  0
  6  7  1  0
  7  8  1  0
  8  9  2  0
  9 10  1  0
 10 11  2  0
 10 12  1  0
 12 13  1  0
 13 14  2  0
 14 15  1  0
 15 16  2  0
 16 17  1  0
 16 18  1  0
 18 19  1  0
 19 20  3  0
 20 21  1  0
 21 22  1  0
 21 23  1  0
 23 24  1  0
 24 25  1  0
 25 26  1  0
 26 27  1  0
 18 28  2  0
  7  3  2  0
 28  9  1  0
 28 13  1  0
 27 21  1  0
M  END
>  <Compound_ID>  (116) 
CHEMBL536029

>  <Active>  (116) 
1

>  <Smiles>  (116) 
COc1cc[nH]c1/C=C1\C(=O)Nc2ccc(F)c(C#CC3(O)CCNCC3)c21

>  <canonical_smi>  (116) 
COc1cc[nH]c1/C=C1\C(=O)Nc2ccc(F)c(C#CC3(O)CCNCC3)c21

>  <Set>  (116) 
G2 active

>  <Set_type>  (116) 
Train

>  <MW>  (116) 
381.41

>  <HBD>  (116) 
4

>  <HBA>  (116) 
4

>  <NRB>  (116) 
2

>  <NR>  (116) 
4

>  <NAR>  (116) 
2

>  <PSA>  (116) 
86.38

>  <Standard Type>  (116) 
nan

>  <Standard Relation>  (116) 
nan

>  <Standard Units>  (116) 
nan

>  <Standard Value>  (116) 
nan

>  <Assay ChEMBL ID>  (116) 
nan

>  <Assay Description>  (116) 
nan

>  <BAO Label>  (116) 
nan

$$$$

     RDKit          2D

 26 31  0  0  0  0  0  0  0  0999 V2000
   -3.4337   -1.3792    0.0000 O   0  0  0  0  0  0  0  0  0  0  0  0
   -4.1837   -0.0801    0.0000 C   0  0  0  0  0  0  0  0  0  0  0  0
   -5.6755    0.0766    0.0000 N   0  0  0  0  0  0  0  0  0  0  0  0
   -5.9873    1.5439    0.0000 C   0  0  0  0  0  0  0  0  0  0  0  0
   -7.3577    2.1540    0.0000 O   0  0  0  0  0  0  0  0  0  0  0  0
   -4.6883    2.2939    0.0000 C   0  0  0  0  0  0  0  0  0  0  0  0
   -3.5736    1.2902    0.0000 C   0  0  0  0  0  0  0  0  0  0  0  0
   -2.1470    1.7537    0.0000 C   0  0  0  0  0  0  0  0  0  0  0  0
   -1.8351    3.2209    0.0000 C   0  0  0  0  0  0  0  0  0  0  0  0
   -0.4086    3.6844    0.0000 C   0  0  0  0  0  0  0  0  0  0  0  0
    0.7062    2.6807    0.0000 C   0  0  0  0  0  0  0  0  0  0  0  0
    0.3943    1.2135    0.0000 C   0  0  0  0  0  0  0  0  0  0  0  0
    1.2760    0.0000    0.0000 C   0  0  0  0  0  0  0  0  0  0  0  0
    0.3943   -1.2135    0.0000 C   0  0  0  0  0  0  0  0  0  0  0  0
   -1.0323   -0.7500    0.0000 N   0  0  0  0  0  0  0  0  0  0  0  0
   -1.0323    0.7500    0.0000 C   0  0  0  0  0  0  0  0  0  0  0  0
   -2.9499    4.2246    0.0000 C   0  0  0  0  0  0  0  0  0  0  0  0
   -2.9499    5.7246    0.0000 N   0  0  0  0  0  0  0  0  0  0  0  0
   -4.3764    6.1881    0.0000 C   0  0  0  0  0  0  0  0  0  0  0  0
   -4.9865    7.5585    0.0000 C   0  0  0  0  0  0  0  0  0  0  0  0
   -6.4783    7.7152    0.0000 C   0  0  0  0  0  0  0  0  0  0  0  0
   -7.0884    9.0856    0.0000 O   0  0  0  0  0  0  0  0  0  0  0  0
   -7.3600    6.5017    0.0000 C   0  0  0  0  0  0  0  0  0  0  0  0
   -6.7499    5.1314    0.0000 C   0  0  0  0  0  0  0  0  0  0  0  0
   -5.2581    4.9746    0.0000 C   0  0  0  0  0  0  0  0  0  0  0  0
   -4.3764    3.7611    0.0000 C   0  0  0  0  0  0  0  0  0  0  0  0
  1  2  2  0
  2  3  1  0
  3  4  1  0
  4  5  2  0
  4  6  1  0
  6  7  2  0
  7  8  1  0
  8  9  2  0
  9 10  1  0
 10 11  2  0
 11 12  1  0
 12 13  1  0
 13 14  2  0
 14 15  1  0
 15 16  1  0
  9 17  1  0
 17 18  1  0
 18 19  1  0
 19 20  2  0
 20 21  1  0
 21 22  1  0
 21 23  2  0
 23 24  1  0
 24 25  2  0
 25 26  1  0
  7  2  1  0
 16  8  1  0
 26 17  2  0
 26  6  1  0
 16 12  2  0
 25 19  1  0
M  END
>  <Compound_ID>  (117) 
CHEMBL74637

>  <Active>  (117) 
1

>  <Smiles>  (117) 
O=C1NC(=O)c2c1c1c(ccc3cc[nH]c31)c1[nH]c3cc(O)ccc3c21

>  <canonical_smi>  (117) 
O=C1NC(=O)c2c1c1c(ccc3cc[nH]c31)c1[nH]c3cc(O)ccc3c21

>  <Set>  (117) 
G2 active

>  <Set_type>  (117) 
Train

>  <MW>  (117) 
341.33

>  <HBD>  (117) 
4

>  <HBA>  (117) 
3

>  <NRB>  (117) 
0

>  <NR>  (117) 
6

>  <NAR>  (117) 
5

>  <PSA>  (117) 
97.98

>  <Standard Type>  (117) 
nan

>  <Standard Relation>  (117) 
nan

>  <Standard Units>  (117) 
nan

>  <Standard Value>  (117) 
nan

>  <Assay ChEMBL ID>  (117) 
nan

>  <Assay Description>  (117) 
nan

>  <BAO Label>  (117) 
nan

$$$$

     RDKit          2D

 26 28  0  0  0  0  0  0  0  0999 V2000
    3.0000    0.0000    0.0000 C   0  0  0  0  0  0  0  0  0  0  0  0
    1.5000    0.0000    0.0000 C   0  0  0  0  0  0  0  0  0  0  0  0
    0.7500   -1.2990    0.0000 C   0  0  0  0  0  0  0  0  0  0  0  0
   -0.7500   -1.2990    0.0000 C   0  0  0  0  0  0  0  0  0  0  0  0
   -1.5000    0.0000    0.0000 C   0  0  0  0  0  0  0  0  0  0  0  0
   -3.0000    0.0000    0.0000 F   0  0  0  0  0  0  0  0  0  0  0  0
   -0.7500    1.2990    0.0000 C   0  0  0  0  0  0  0  0  0  0  0  0
   -1.5000    2.5981    0.0000 N   0  0  0  0  0  0  0  0  0  0  0  0
   -0.7500    3.8971    0.0000 C   0  0  0  0  0  0  0  0  0  0  0  0
    0.7500    3.8971    0.0000 C   0  0  0  0  0  0  0  0  0  0  0  0
    1.5000    5.1962    0.0000 C   0  0  0  0  0  0  0  0  0  0  0  0
    0.7500    6.4952    0.0000 N   0  0  0  0  0  0  0  0  0  0  0  0
   -0.7500    6.4952    0.0000 C   0  0  0  0  0  0  0  0  0  0  0  0
   -1.5000    7.7942    0.0000 N   0  0  0  0  0  0  0  0  0  0  0  0
   -0.7500    9.0933    0.0000 C   0  0  0  0  0  0  0  0  0  0  0  0
    0.7500    9.0933    0.0000 C   0  0  0  0  0  0  0  0  0  0  0  0
    1.5000   10.3923    0.0000 C   0  0  0  0  0  0  0  0  0  0  0  0
    0.7500   11.6913    0.0000 C   0  0  0  0  0  0  0  0  0  0  0  0
    1.5000   12.9904    0.0000 S   0  0  0  0  0  0  0  0  0  0  0  0
    2.2500   14.2894    0.0000 N   0  0  0  0  0  0  0  0  0  0  0  0
    2.7990   12.2404    0.0000 O   0  0  0  0  0  0  0  0  0  0  0  0
    0.2010   13.7404    0.0000 O   0  0  0  0  0  0  0  0  0  0  0  0
   -0.7500   11.6913    0.0000 C   0  0  0  0  0  0  0  0  0  0  0  0
   -1.5000   10.3923    0.0000 C   0  0  0  0  0  0  0  0  0  0  0  0
   -1.5000    5.1962    0.0000 N   0  0  0  0  0  0  0  0  0  0  0  0
    0.7500    1.2990    0.0000 C   0  0  0  0  0  0  0  0  0  0  0  0
  1  2  1  0
  2  3  2  0
  3  4  1  0
  4  5  2  0
  5  6  1  0
  5  7  1  0
  7  8  1  0
  8  9  1  0
  9 10  2  0
 10 11  1  0
 11 12  2  0
 12 13  1  0
 13 14  1  0
 14 15  1  0
 15 16  2  0
 16 17  1  0
 17 18  2  0
 18 19  1  0
 19 20  1  0
 19 21  2  0
 19 22  2  0
 18 23  1  0
 23 24  2  0
 13 25  2  0
  7 26  2  0
 26  2  1  0
 25  9  1  0
 24 15  1  0
M  END
>  <Compound_ID>  (118) 
CHEMBL103355

>  <Active>  (118) 
1

>  <Smiles>  (118) 
Cc1ccc(F)c(Nc2ccnc(Nc3ccc(S(N)(=O)=O)cc3)n2)c1

>  <canonical_smi>  (118) 
Cc1ccc(F)c(Nc2ccnc(Nc3ccc(S(N)(=O)=O)cc3)n2)c1

>  <Set>  (118) 
G2 active

>  <Set_type>  (118) 
Train

>  <MW>  (118) 
373.41

>  <HBD>  (118) 
3

>  <HBA>  (118) 
6

>  <NRB>  (118) 
5

>  <NR>  (118) 
3

>  <NAR>  (118) 
3

>  <PSA>  (118) 
110.0

>  <Standard Type>  (118) 
nan

>  <Standard Relation>  (118) 
nan

>  <Standard Units>  (118) 
nan

>  <Standard Value>  (118) 
nan

>  <Assay ChEMBL ID>  (118) 
nan

>  <Assay Description>  (118) 
nan

>  <BAO Label>  (118) 
nan

$$$$

     RDKit          2D

 25 28  0  0  0  0  0  0  0  0999 V2000
   -9.6388   -6.1973    0.0000 N   0  0  0  0  0  0  0  0  0  0  0  0
   -8.8888   -4.8983    0.0000 S   0  0  0  0  0  0  0  0  0  0  0  0
  -10.1878   -4.1483    0.0000 O   0  0  0  0  0  0  0  0  0  0  0  0
   -7.5897   -5.6483    0.0000 O   0  0  0  0  0  0  0  0  0  0  0  0
   -8.1388   -3.5992    0.0000 C   0  0  0  0  0  0  0  0  0  0  0  0
   -8.8888   -2.3002    0.0000 C   0  0  0  0  0  0  0  0  0  0  0  0
   -8.1388   -1.0012    0.0000 C   0  0  0  0  0  0  0  0  0  0  0  0
   -6.6388   -1.0012    0.0000 C   0  0  0  0  0  0  0  0  0  0  0  0
   -5.8888    0.2979    0.0000 N   0  0  0  0  0  0  0  0  0  0  0  0
   -4.3888    0.2979    0.0000 N   0  0  0  0  0  0  0  0  0  0  0  0
   -3.6388    1.5969    0.0000 C   0  0  0  0  0  0  0  0  0  0  0  0
   -4.2489    2.9672    0.0000 C   0  0  0  0  0  0  0  0  0  0  0  0
   -5.7161    3.2791    0.0000 O   0  0  0  0  0  0  0  0  0  0  0  0
   -3.1342    3.9709    0.0000 N   0  0  0  0  0  0  0  0  0  0  0  0
   -1.8351    3.2209    0.0000 C   0  0  0  0  0  0  0  0  0  0  0  0
   -0.4086    3.6844    0.0000 C   0  0  0  0  0  0  0  0  0  0  0  0
    0.7062    2.6807    0.0000 C   0  0  0  0  0  0  0  0  0  0  0  0
    0.3943    1.2135    0.0000 C   0  0  0  0  0  0  0  0  0  0  0  0
    1.2760    0.0000    0.0000 N   0  0  0  0  0  0  0  0  0  0  0  0
    0.3943   -1.2135    0.0000 C   0  0  0  0  0  0  0  0  0  0  0  0
   -1.0323   -0.7500    0.0000 S   0  0  0  0  0  0  0  0  0  0  0  0
   -1.0323    0.7500    0.0000 C   0  0  0  0  0  0  0  0  0  0  0  0
   -2.1470    1.7537    0.0000 C   0  0  0  0  0  0  0  0  0  0  0  0
   -5.8888   -2.3002    0.0000 C   0  0  0  0  0  0  0  0  0  0  0  0
   -6.6388   -3.5992    0.0000 C   0  0  0  0  0  0  0  0  0  0  0  0
  1  2  1  0
  2  3  2  0
  2  4  2  0
  2  5  1  0
  5  6  2  0
  6  7  1  0
  7  8  2  0
  8  9  1  0
  9 10  1  0
 10 11  2  0
 11 12  1  0
 12 13  2  0
 12 14  1  0
 14 15  1  0
 15 16  2  0
 16 17  1  0
 17 18  2  0
 18 19  1  0
 19 20  2  0
 20 21  1  0
 21 22  1  0
 22 23  2  0
  8 24  1  0
 24 25  2  0
 25  5  1  0
 23 11  1  0
 23 15  1  0
 22 18  1  0
M  END
>  <Compound_ID>  (119) 
CHEMBL407709

>  <Active>  (119) 
1

>  <Smiles>  (119) 
NS(=O)(=O)c1ccc(N/N=C2\C(=O)Nc3ccc4ncsc4c32)cc1

>  <canonical_smi>  (119) 
NS(=O)(=O)c1ccc(N/N=C2\C(=O)Nc3ccc4ncsc4c32)cc1

>  <Set>  (119) 
G2 active

>  <Set_type>  (119) 
Train

>  <MW>  (119) 
373.42

>  <HBD>  (119) 
3

>  <HBA>  (119) 
5

>  <NRB>  (119) 
3

>  <NR>  (119) 
4

>  <NAR>  (119) 
3

>  <PSA>  (119) 
126.54

>  <Standard Type>  (119) 
nan

>  <Standard Relation>  (119) 
nan

>  <Standard Units>  (119) 
nan

>  <Standard Value>  (119) 
nan

>  <Assay ChEMBL ID>  (119) 
nan

>  <Assay Description>  (119) 
nan

>  <BAO Label>  (119) 
nan

$$$$

     RDKit          2D

 29 32  0  0  0  0  0  0  0  0999 V2000
    4.6740   -4.8322    0.0000 C   0  0  0  0  0  0  0  0  0  0  0  0
    3.3037   -4.2221    0.0000 C   0  0  0  0  0  0  0  0  0  0  0  0
    2.0046   -4.9721    0.0000 N   0  0  0  0  0  0  0  0  0  0  0  0
    0.8899   -3.9684    0.0000 C   0  0  0  0  0  0  0  0  0  0  0  0
    1.5000   -2.5981    0.0000 C   0  0  0  0  0  0  0  0  0  0  0  0
    0.7500   -1.2990    0.0000 C   0  0  0  0  0  0  0  0  0  0  0  0
    1.5000    0.0000    0.0000 N   0  0  0  0  0  0  0  0  0  0  0  0
    0.7500    1.2990    0.0000 C   0  0  0  0  0  0  0  0  0  0  0  0
    1.5000    2.5981    0.0000 N   0  0  0  0  0  0  0  0  0  0  0  0
    3.0000    2.5981    0.0000 C   0  0  0  0  0  0  0  0  0  0  0  0
    3.7500    1.2990    0.0000 C   0  0  0  0  0  0  0  0  0  0  0  0
    5.2500    1.2990    0.0000 C   0  0  0  0  0  0  0  0  0  0  0  0
    6.0000    2.5981    0.0000 C   0  0  0  0  0  0  0  0  0  0  0  0
    7.5000    2.5981    0.0000 N   0  0  0  0  0  0  0  0  0  0  0  0
    8.2500    1.2990    0.0000 C   0  0  0  0  0  0  0  0  0  0  0  0
    9.7500    1.2990    0.0000 C   0  0  0  0  0  0  0  0  0  0  0  0
   10.5000    2.5981    0.0000 O   0  0  0  0  0  0  0  0  0  0  0  0
    9.7500    3.8971    0.0000 C   0  0  0  0  0  0  0  0  0  0  0  0
    8.2500    3.8971    0.0000 C   0  0  0  0  0  0  0  0  0  0  0  0
    5.2500    3.8971    0.0000 C   0  0  0  0  0  0  0  0  0  0  0  0
    3.7500    3.8971    0.0000 C   0  0  0  0  0  0  0  0  0  0  0  0
   -0.7500    1.2990    0.0000 N   0  0  0  0  0  0  0  0  0  0  0  0
   -1.5000    0.0000    0.0000 C   0  0  0  0  0  0  0  0  0  0  0  0
   -0.7500   -1.2990    0.0000 C   0  0  0  0  0  0  0  0  0  0  0  0
   -1.5000   -2.5981    0.0000 F   0  0  0  0  0  0  0  0  0  0  0  0
    2.9918   -2.7549    0.0000 N   0  0  0  0  0  0  0  0  0  0  0  0
    3.9955   -1.6402    0.0000 C   0  0  0  0  0  0  0  0  0  0  0  0
    5.4627   -1.9520    0.0000 C   0  0  0  0  0  0  0  0  0  0  0  0
    3.5320   -0.2136    0.0000 C   0  0  0  0  0  0  0  0  0  0  0  0
  1  2  1  0
  2  3  2  0
  3  4  1  0
  4  5  2  0
  5  6  1  0
  6  7  2  0
  7  8  1  0
  8  9  1  0
  9 10  1  0
 10 11  2  0
 11 12  1  0
 12 13  2  0
 13 14  1  0
 14 15  1  0
 15 16  1  0
 16 17  1  0
 17 18  1  0
 18 19  1  0
 13 20  1  0
 20 21  2  0
  8 22  2  0
 22 23  1  0
 23 24  2  0
 24 25  1  0
  5 26  1  0
 26 27  1  0
 27 28  1  0
 27 29  1  0
 26  2  1  0
 24  6  1  0
 21 10  1  0
 19 14  1  0
M  END
>  <Compound_ID>  (120) 
CHEMBL515001

>  <Active>  (120) 
1

>  <Smiles>  (120) 
Cc1ncc(-c2nc(Nc3ccc(N4CCOCC4)cc3)ncc2F)n1C(C)C

>  <canonical_smi>  (120) 
Cc1ncc(-c2nc(Nc3ccc(N4CCOCC4)cc3)ncc2F)n1C(C)C

>  <Set>  (120) 
G2 active

>  <Set_type>  (120) 
Train

>  <MW>  (120) 
396.47

>  <HBD>  (120) 
1

>  <HBA>  (120) 
6

>  <NRB>  (120) 
5

>  <NR>  (120) 
4

>  <NAR>  (120) 
3

>  <PSA>  (120) 
68.1

>  <Standard Type>  (120) 
nan

>  <Standard Relation>  (120) 
nan

>  <Standard Units>  (120) 
nan

>  <Standard Value>  (120) 
nan

>  <Assay ChEMBL ID>  (120) 
nan

>  <Assay Description>  (120) 
nan

>  <BAO Label>  (120) 
nan

$$$$

     RDKit          2D

 21 24  0  0  0  0  0  0  0  0999 V2000
   -4.6613    6.0728    0.0000 N   0  0  0  0  0  0  0  0  0  0  0  0
   -3.2910    5.4627    0.0000 C   0  0  0  0  0  0  0  0  0  0  0  0
   -2.0774    6.3444    0.0000 O   0  0  0  0  0  0  0  0  0  0  0  0
   -3.1342    3.9709    0.0000 C   0  0  0  0  0  0  0  0  0  0  0  0
   -4.2489    2.9672    0.0000 N   0  0  0  0  0  0  0  0  0  0  0  0
   -3.6388    1.5969    0.0000 N   0  0  0  0  0  0  0  0  0  0  0  0
   -4.3888    0.2979    0.0000 C   0  0  0  0  0  0  0  0  0  0  0  0
   -5.8888    0.2979    0.0000 C   0  0  0  0  0  0  0  0  0  0  0  0
   -6.6388   -1.0012    0.0000 C   0  0  0  0  0  0  0  0  0  0  0  0
   -5.8888   -2.3002    0.0000 C   0  0  0  0  0  0  0  0  0  0  0  0
   -4.3888   -2.3002    0.0000 C   0  0  0  0  0  0  0  0  0  0  0  0
   -3.6388   -1.0012    0.0000 N   0  0  0  0  0  0  0  0  0  0  0  0
   -2.1470    1.7537    0.0000 C   0  0  0  0  0  0  0  0  0  0  0  0
   -1.8351    3.2209    0.0000 C   0  0  0  0  0  0  0  0  0  0  0  0
   -0.4086    3.6844    0.0000 C   0  0  0  0  0  0  0  0  0  0  0  0
    0.7062    2.6807    0.0000 C   0  0  0  0  0  0  0  0  0  0  0  0
    0.3943    1.2135    0.0000 C   0  0  0  0  0  0  0  0  0  0  0  0
    1.2760    0.0000    0.0000 N   0  0  0  0  0  0  0  0  0  0  0  0
    0.3943   -1.2135    0.0000 N   0  0  0  0  0  0  0  0  0  0  0  0
   -1.0323   -0.7500    0.0000 C   0  0  0  0  0  0  0  0  0  0  0  0
   -1.0323    0.7500    0.0000 C   0  0  0  0  0  0  0  0  0  0  0  0
  1  2  1  0
  2  3  2  0
  2  4  1  0
  4  5  2  0
  5  6  1  0
  6  7  1  0
  7  8  2  0
  8  9  1  0
  9 10  2  0
 10 11  1  0
 11 12  2  0
  6 13  1  0
 13 14  2  0
 14 15  1  0
 15 16  2  0
 16 17  1  0
 17 18  1  0
 18 19  1  0
 19 20  2  0
 20 21  1  0
 14  4  1  0
 21 17  2  0
 12  7  1  0
 21 13  1  0
M  END
>  <Compound_ID>  (121) 
CHEMBL178190

>  <Active>  (121) 
1

>  <Smiles>  (121) 
NC(=O)c1nn(-c2ccccn2)c2c1ccc1[nH]ncc12

>  <canonical_smi>  (121) 
NC(=O)c1nn(-c2ccccn2)c2c1ccc1[nH]ncc12

>  <Set>  (121) 
G2 active

>  <Set_type>  (121) 
Train

>  <MW>  (121) 
278.28

>  <HBD>  (121) 
2

>  <HBA>  (121) 
4

>  <NRB>  (121) 
2

>  <NR>  (121) 
4

>  <NAR>  (121) 
4

>  <PSA>  (121) 
102.48

>  <Standard Type>  (121) 
nan

>  <Standard Relation>  (121) 
nan

>  <Standard Units>  (121) 
nan

>  <Standard Value>  (121) 
nan

>  <Assay ChEMBL ID>  (121) 
nan

>  <Assay Description>  (121) 
nan

>  <BAO Label>  (121) 
nan

$$$$

     RDKit          2D

 32 35  0  0  0  0  0  0  0  0999 V2000
  -10.0849   -6.9740    0.0000 N   0  0  0  0  0  0  0  0  0  0  0  0
   -8.6583   -6.5105    0.0000 S   0  0  0  0  0  0  0  0  0  0  0  0
   -9.1218   -5.0839    0.0000 O   0  0  0  0  0  0  0  0  0  0  0  0
   -8.1948   -7.9371    0.0000 O   0  0  0  0  0  0  0  0  0  0  0  0
   -7.2317   -6.0469    0.0000 C   0  0  0  0  0  0  0  0  0  0  0  0
   -6.9199   -4.5797    0.0000 C   0  0  0  0  0  0  0  0  0  0  0  0
   -5.4933   -4.1162    0.0000 C   0  0  0  0  0  0  0  0  0  0  0  0
   -4.3786   -5.1199    0.0000 C   0  0  0  0  0  0  0  0  0  0  0  0
   -2.9520   -4.6564    0.0000 N   0  0  0  0  0  0  0  0  0  0  0  0
   -2.6401   -3.1891    0.0000 N   0  0  0  0  0  0  0  0  0  0  0  0
   -1.2135   -2.7256    0.0000 C   0  0  0  0  0  0  0  0  0  0  0  0
   -0.0000   -3.6073    0.0000 C   0  0  0  0  0  0  0  0  0  0  0  0
    0.0000   -5.1073    0.0000 O   0  0  0  0  0  0  0  0  0  0  0  0
    1.2135   -2.7256    0.0000 N   0  0  0  0  0  0  0  0  0  0  0  0
    0.7500   -1.2990    0.0000 C   0  0  0  0  0  0  0  0  0  0  0  0
    1.5000    0.0000    0.0000 C   0  0  0  0  0  0  0  0  0  0  0  0
    0.7500    1.2990    0.0000 C   0  0  0  0  0  0  0  0  0  0  0  0
   -0.7500    1.2990    0.0000 C   0  0  0  0  0  0  0  0  0  0  0  0
   -1.5000    2.5981    0.0000 C   0  0  0  0  0  0  0  0  0  0  0  0
   -3.0000    2.5981    0.0000 O   0  0  0  0  0  0  0  0  0  0  0  0
   -0.7500    3.8971    0.0000 N   0  0  0  0  0  0  0  0  0  0  0  0
   -1.5000    5.1962    0.0000 C   0  0  0  0  0  0  0  0  0  0  0  0
   -0.7500    6.4952    0.0000 C   0  0  0  0  0  0  0  0  0  0  0  0
    0.7500    6.4952    0.0000 C   0  0  0  0  0  0  0  0  0  0  0  0
    1.5000    7.7942    0.0000 C   0  0  0  0  0  0  0  0  0  0  0  0
    0.7500    9.0933    0.0000 N   0  0  0  0  0  0  0  0  0  0  0  0
   -0.7500    9.0933    0.0000 C   0  0  0  0  0  0  0  0  0  0  0  0
   -1.5000    7.7942    0.0000 C   0  0  0  0  0  0  0  0  0  0  0  0
   -1.5000    0.0000    0.0000 C   0  0  0  0  0  0  0  0  0  0  0  0
   -0.7500   -1.2990    0.0000 C   0  0  0  0  0  0  0  0  0  0  0  0
   -4.6904   -6.5871    0.0000 C   0  0  0  0  0  0  0  0  0  0  0  0
   -6.1170   -7.0506    0.0000 C   0  0  0  0  0  0  0  0  0  0  0  0
  1  2  1  0
  2  3  2  0
  2  4  2  0
  2  5  1  0
  5  6  2  0
  6  7  1  0
  7  8  2  0
  8  9  1  0
  9 10  2  3
 10 11  1  0
 11 12  2  0
 12 13  1  0
 12 14  1  0
 14 15  1  0
 15 16  2  0
 16 17  1  0
 17 18  2  0
 18 19  1  0
 19 20  2  0
 19 21  1  0
 21 22  1  0
 22 23  1  0
 23 24  2  0
 24 25  1  0
 25 26  2  0
 26 27  1  0
 27 28  2  0
 18 29  1  0
 29 30  2  0
  8 31  1  0
 31 32  2  0
 32  5  1  0
 30 11  1  0
 30 15  1  0
 28 23  1  0
M  END
>  <Compound_ID>  (122) 
CHEMBL82729

>  <Active>  (122) 
1

>  <Smiles>  (122) 
NS(=O)(=O)c1ccc(N=Nc2c(O)[nH]c3ccc(C(=O)NCc4ccncc4)cc23)cc1

>  <canonical_smi>  (122) 
NS(=O)(=O)c1ccc(N=Nc2c(O)[nH]c3ccc(C(=O)NCc4ccncc4)cc23)cc1

>  <Set>  (122) 
G2 active

>  <Set_type>  (122) 
Train

>  <MW>  (122) 
450.48

>  <HBD>  (122) 
4

>  <HBA>  (122) 
5

>  <NRB>  (122) 
6

>  <NR>  (122) 
4

>  <NAR>  (122) 
4

>  <PSA>  (122) 
162.89

>  <Standard Type>  (122) 
nan

>  <Standard Relation>  (122) 
nan

>  <Standard Units>  (122) 
nan

>  <Standard Value>  (122) 
nan

>  <Assay ChEMBL ID>  (122) 
nan

>  <Assay Description>  (122) 
nan

>  <BAO Label>  (122) 
nan

$$$$

     RDKit          2D

 32 35  0  0  0  0  0  0  0  0999 V2000
  -10.0849   -6.9740    0.0000 N   0  0  0  0  0  0  0  0  0  0  0  0
   -8.6583   -6.5105    0.0000 S   0  0  0  0  0  0  0  0  0  0  0  0
   -9.1218   -5.0839    0.0000 O   0  0  0  0  0  0  0  0  0  0  0  0
   -8.1948   -7.9371    0.0000 O   0  0  0  0  0  0  0  0  0  0  0  0
   -7.2317   -6.0469    0.0000 C   0  0  0  0  0  0  0  0  0  0  0  0
   -6.9199   -4.5797    0.0000 C   0  0  0  0  0  0  0  0  0  0  0  0
   -5.4933   -4.1162    0.0000 C   0  0  0  0  0  0  0  0  0  0  0  0
   -4.3786   -5.1199    0.0000 C   0  0  0  0  0  0  0  0  0  0  0  0
   -2.9520   -4.6564    0.0000 N   0  0  0  0  0  0  0  0  0  0  0  0
   -2.6401   -3.1891    0.0000 N   0  0  0  0  0  0  0  0  0  0  0  0
   -1.2135   -2.7256    0.0000 C   0  0  0  0  0  0  0  0  0  0  0  0
   -0.0000   -3.6073    0.0000 C   0  0  0  0  0  0  0  0  0  0  0  0
    0.0000   -5.1073    0.0000 O   0  0  0  0  0  0  0  0  0  0  0  0
    1.2135   -2.7256    0.0000 N   0  0  0  0  0  0  0  0  0  0  0  0
    0.7500   -1.2990    0.0000 C   0  0  0  0  0  0  0  0  0  0  0  0
    1.5000    0.0000    0.0000 C   0  0  0  0  0  0  0  0  0  0  0  0
    0.7500    1.2990    0.0000 C   0  0  0  0  0  0  0  0  0  0  0  0
   -0.7500    1.2990    0.0000 C   0  0  0  0  0  0  0  0  0  0  0  0
   -1.5000    2.5981    0.0000 C   0  0  0  0  0  0  0  0  0  0  0  0
   -3.0000    2.5981    0.0000 O   0  0  0  0  0  0  0  0  0  0  0  0
   -0.7500    3.8971    0.0000 N   0  0  0  0  0  0  0  0  0  0  0  0
   -1.5000    5.1962    0.0000 C   0  0  0  0  0  0  0  0  0  0  0  0
   -0.7500    6.4952    0.0000 C   0  0  0  0  0  0  0  0  0  0  0  0
    0.7500    6.4952    0.0000 C   0  0  0  0  0  0  0  0  0  0  0  0
    1.5000    7.7942    0.0000 C   0  0  0  0  0  0  0  0  0  0  0  0
    0.7500    9.0933    0.0000 N   0  0  0  0  0  0  0  0  0  0  0  0
   -0.7500    9.0933    0.0000 C   0  0  0  0  0  0  0  0  0  0  0  0
   -1.5000    7.7942    0.0000 C   0  0  0  0  0  0  0  0  0  0  0  0
   -1.5000    0.0000    0.0000 C   0  0  0  0  0  0  0  0  0  0  0  0
   -0.7500   -1.2990    0.0000 C   0  0  0  0  0  0  0  0  0  0  0  0
   -4.6904   -6.5871    0.0000 C   0  0  0  0  0  0  0  0  0  0  0  0
   -6.1170   -7.0506    0.0000 C   0  0  0  0  0  0  0  0  0  0  0  0
  1  2  1  0
  2  3  2  0
  2  4  2  0
  2  5  1  0
  5  6  2  0
  6  7  1  0
  7  8  2  0
  8  9  1  0
  9 10  1  0
 10 11  2  0
 11 12  1  0
 12 13  2  0
 12 14  1  0
 14 15  1  0
 15 16  2  0
 16 17  1  0
 17 18  2  0
 18 19  1  0
 19 20  2  0
 19 21  1  0
 21 22  1  0
 22 23  1  0
 23 24  2  0
 24 25  1  0
 25 26  2  0
 26 27  1  0
 27 28  2  0
 18 29  1  0
 29 30  2  0
  8 31  1  0
 31 32  2  0
 32  5  1  0
 30 11  1  0
 30 15  1  0
 28 23  1  0
M  END
>  <Compound_ID>  (123) 
CHEMBL272165

>  <Active>  (123) 
1

>  <Smiles>  (123) 
NS(=O)(=O)c1ccc(N/N=C2\C(=O)Nc3ccc(C(=O)NCc4ccncc4)cc32)cc1

>  <canonical_smi>  (123) 
NS(=O)(=O)c1ccc(N/N=C2\C(=O)Nc3ccc(C(=O)NCc4ccncc4)cc32)cc1

>  <Set>  (123) 
G2 active

>  <Set_type>  (123) 
Train

>  <MW>  (123) 
450.48

>  <HBD>  (123) 
4

>  <HBA>  (123) 
6

>  <NRB>  (123) 
6

>  <NR>  (123) 
4

>  <NAR>  (123) 
3

>  <PSA>  (123) 
155.64

>  <Standard Type>  (123) 
nan

>  <Standard Relation>  (123) 
nan

>  <Standard Units>  (123) 
nan

>  <Standard Value>  (123) 
nan

>  <Assay ChEMBL ID>  (123) 
nan

>  <Assay Description>  (123) 
nan

>  <BAO Label>  (123) 
nan

$$$$

     RDKit          2D

 22 25  0  0  0  0  0  0  0  0999 V2000
    5.2500   -1.2990    0.0000 N   0  0  0  0  0  0  0  0  0  0  0  0
    3.7500   -1.2990    0.0000 C   0  0  0  0  0  0  0  0  0  0  0  0
    3.0000   -2.5981    0.0000 O   0  0  0  0  0  0  0  0  0  0  0  0
    3.0000    0.0000    0.0000 N   0  0  0  0  0  0  0  0  0  0  0  0
    1.5000    0.0000    0.0000 C   0  0  0  0  0  0  0  0  0  0  0  0
    0.7500   -1.2990    0.0000 C   0  0  0  0  0  0  0  0  0  0  0  0
   -0.7500   -1.2990    0.0000 C   0  0  0  0  0  0  0  0  0  0  0  0
   -1.5000    0.0000    0.0000 C   0  0  0  0  0  0  0  0  0  0  0  0
   -0.7500    1.2990    0.0000 C   0  0  0  0  0  0  0  0  0  0  0  0
    0.7500    1.2990    0.0000 C   0  0  0  0  0  0  0  0  0  0  0  0
    1.2135    2.7256    0.0000 C   0  0  0  0  0  0  0  0  0  0  0  0
    2.6401    3.1891    0.0000 O   0  0  0  0  0  0  0  0  0  0  0  0
    0.0000    3.6073    0.0000 C   0  0  0  0  0  0  0  0  0  0  0  0
   -0.4635    5.0339    0.0000 C   0  0  0  0  0  0  0  0  0  0  0  0
    0.4182    6.2474    0.0000 C   0  0  0  0  0  0  0  0  0  0  0  0
   -0.0454    7.6740    0.0000 C   0  0  0  0  0  0  0  0  0  0  0  0
    1.1682    8.5557    0.0000 C   0  0  0  0  0  0  0  0  0  0  0  0
    2.3817    7.6740    0.0000 S   0  0  0  0  0  0  0  0  0  0  0  0
    1.9182    6.2474    0.0000 C   0  0  0  0  0  0  0  0  0  0  0  0
   -1.9635    5.0339    0.0000 N   0  0  0  0  0  0  0  0  0  0  0  0
   -2.4271    3.6073    0.0000 N   0  0  0  0  0  0  0  0  0  0  0  0
   -1.2135    2.7256    0.0000 C   0  0  0  0  0  0  0  0  0  0  0  0
  1  2  1  0
  2  3  2  0
  2  4  1  0
  4  5  1  0
  5  6  2  0
  6  7  1  0
  7  8  2  0
  8  9  1  0
  9 10  2  0
 10 11  1  0
 11 12  2  0
 11 13  1  0
 13 14  1  0
 14 15  1  0
 15 16  1  0
 16 17  2  0
 17 18  1  0
 18 19  1  0
 14 20  2  0
 20 21  1  0
 21 22  1  0
 10  5  1  0
 22 13  2  0
 22  9  1  0
 19 15  2  0
M  END
>  <Compound_ID>  (124) 
CHEMBL150867

>  <Active>  (124) 
1

>  <Smiles>  (124) 
NC(=O)Nc1cccc2c1C(=O)c1c(-c3ccsc3)n[nH]c1-2

>  <canonical_smi>  (124) 
NC(=O)Nc1cccc2c1C(=O)c1c(-c3ccsc3)n[nH]c1-2

>  <Set>  (124) 
G2 active

>  <Set_type>  (124) 
Train

>  <MW>  (124) 
310.34

>  <HBD>  (124) 
3

>  <HBA>  (124) 
3

>  <NRB>  (124) 
2

>  <NR>  (124) 
4

>  <NAR>  (124) 
4

>  <PSA>  (124) 
100.87

>  <Standard Type>  (124) 
nan

>  <Standard Relation>  (124) 
nan

>  <Standard Units>  (124) 
nan

>  <Standard Value>  (124) 
nan

>  <Assay ChEMBL ID>  (124) 
nan

>  <Assay Description>  (124) 
nan

>  <BAO Label>  (124) 
nan

$$$$

     RDKit          2D

 25 27  0  0  0  0  0  0  0  0999 V2000
   -8.6562    2.3705    0.0000 C   0  0  0  0  0  0  0  0  0  0  0  0
   -7.2296    2.8340    0.0000 C   0  0  0  0  0  0  0  0  0  0  0  0
   -6.1149    1.8303    0.0000 C   0  0  0  0  0  0  0  0  0  0  0  0
   -4.6883    2.2939    0.0000 C   0  0  0  0  0  0  0  0  0  0  0  0
   -3.5736    1.2902    0.0000 O   0  0  0  0  0  0  0  0  0  0  0  0
   -2.1470    1.7537    0.0000 C   0  0  0  0  0  0  0  0  0  0  0  0
   -1.8351    3.2209    0.0000 C   0  0  0  0  0  0  0  0  0  0  0  0
   -2.9499    4.2246    0.0000 C   0  0  0  0  0  0  0  0  0  0  0  0
   -4.3764    3.7611    0.0000 O   0  0  0  0  0  0  0  0  0  0  0  0
   -2.6380    5.6918    0.0000 C   0  0  0  0  0  0  0  0  0  0  0  0
   -1.2114    6.1554    0.0000 C   0  0  0  0  0  0  0  0  0  0  0  0
   -0.0967    5.1517    0.0000 F   0  0  0  0  0  0  0  0  0  0  0  0
   -0.8995    7.6226    0.0000 C   0  0  0  0  0  0  0  0  0  0  0  0
   -2.0143    8.6263    0.0000 C   0  0  0  0  0  0  0  0  0  0  0  0
   -1.7024   10.0935    0.0000 C   0  0  0  0  0  0  0  0  0  0  0  0
   -3.4408    8.1628    0.0000 C   0  0  0  0  0  0  0  0  0  0  0  0
   -3.7527    6.6955    0.0000 C   0  0  0  0  0  0  0  0  0  0  0  0
   -5.1793    6.2320    0.0000 F   0  0  0  0  0  0  0  0  0  0  0  0
   -0.4086    3.6844    0.0000 C   0  0  0  0  0  0  0  0  0  0  0  0
    0.7062    2.6807    0.0000 N   0  0  0  0  0  0  0  0  0  0  0  0
    0.3943    1.2135    0.0000 C   0  0  0  0  0  0  0  0  0  0  0  0
    1.2760    0.0000    0.0000 N   0  0  0  0  0  0  0  0  0  0  0  0
    0.3943   -1.2135    0.0000 N   0  0  0  0  0  0  0  0  0  0  0  0
   -1.0323   -0.7500    0.0000 C   0  0  0  0  0  0  0  0  0  0  0  0
   -1.0323    0.7500    0.0000 C   0  0  0  0  0  0  0  0  0  0  0  0
  1  2  1  0
  2  3  1  0
  3  4  1  0
  4  5  1  0
  5  6  1  0
  6  7  1  0
  7  8  1  0
  8  9  2  0
  8 10  1  0
 10 11  2  0
 11 12  1  0
 11 13  1  0
 13 14  2  0
 14 15  1  0
 14 16  1  0
 16 17  2  0
 17 18  1  0
  7 19  2  0
 19 20  1  0
 20 21  1  0
 21 22  2  0
 22 23  1  0
 23 24  2  0
 24 25  1  0
 25  6  2  0
 17 10  1  0
 25 21  1  0
M  END
>  <Compound_ID>  (125) 
CHEMBL310840

>  <Active>  (125) 
1

>  <Smiles>  (125) 
CCCCOc1c(C(=O)c2c(F)cc(C)cc2F)c[nH]c2nncc1-2

>  <canonical_smi>  (125) 
CCCCOc1c(C(=O)c2c(F)cc(C)cc2F)c[nH]c2nncc1-2

>  <Set>  (125) 
G2 active

>  <Set_type>  (125) 
Train

>  <MW>  (125) 
345.35

>  <HBD>  (125) 
1

>  <HBA>  (125) 
4

>  <NRB>  (125) 
6

>  <NR>  (125) 
3

>  <NAR>  (125) 
3

>  <PSA>  (125) 
67.87

>  <Standard Type>  (125) 
nan

>  <Standard Relation>  (125) 
nan

>  <Standard Units>  (125) 
nan

>  <Standard Value>  (125) 
nan

>  <Assay ChEMBL ID>  (125) 
nan

>  <Assay Description>  (125) 
nan

>  <BAO Label>  (125) 
nan

$$$$

     RDKit          2D

 26 29  0  0  0  0  0  0  0  0999 V2000
    5.2500    1.2990    0.0000 C   0  0  0  0  0  0  0  0  0  0  0  0
    4.5000    0.0000    0.0000 N   0  0  0  0  0  0  0  0  0  0  0  0
    3.0000    0.0000    0.0000 S   0  0  0  0  0  0  0  0  0  0  0  0
    3.0000   -1.5000    0.0000 O   0  0  0  0  0  0  0  0  0  0  0  0
    3.0000    1.5000    0.0000 O   0  0  0  0  0  0  0  0  0  0  0  0
    1.5000    0.0000    0.0000 C   0  0  0  0  0  0  0  0  0  0  0  0
    0.7500   -1.2990    0.0000 C   0  0  0  0  0  0  0  0  0  0  0  0
   -0.7500   -1.2990    0.0000 C   0  0  0  0  0  0  0  0  0  0  0  0
   -1.5000    0.0000    0.0000 C   0  0  0  0  0  0  0  0  0  0  0  0
   -0.7500    1.2990    0.0000 C   0  0  0  0  0  0  0  0  0  0  0  0
    0.7500    1.2990    0.0000 C   0  0  0  0  0  0  0  0  0  0  0  0
   -1.7537    2.4138    0.0000 C   0  0  0  0  0  0  0  0  0  0  0  0
   -1.4418    3.8810    0.0000 C   0  0  0  0  0  0  0  0  0  0  0  0
   -2.5565    4.8847    0.0000 C   0  0  0  0  0  0  0  0  0  0  0  0
   -4.0238    4.5728    0.0000 N   0  0  0  0  0  0  0  0  0  0  0  0
   -4.7738    5.8718    0.0000 C   0  0  0  0  0  0  0  0  0  0  0  0
   -3.7701    6.9866    0.0000 C   0  0  0  0  0  0  0  0  0  0  0  0
   -2.3998    6.3765    0.0000 C   0  0  0  0  0  0  0  0  0  0  0  0
   -1.1862    7.2581    0.0000 C   0  0  0  0  0  0  0  0  0  0  0  0
   -1.3430    8.7499    0.0000 C   0  0  0  0  0  0  0  0  0  0  0  0
   -2.7133    9.3600    0.0000 N   0  0  0  0  0  0  0  0  0  0  0  0
   -3.9269    8.4783    0.0000 C   0  0  0  0  0  0  0  0  0  0  0  0
   -5.2972    9.0884    0.0000 O   0  0  0  0  0  0  0  0  0  0  0  0
   -3.1240    1.8037    0.0000 C   0  0  0  0  0  0  0  0  0  0  0  0
   -4.4231    2.5537    0.0000 O   0  0  0  0  0  0  0  0  0  0  0  0
   -2.9672    0.3119    0.0000 N   0  0  0  0  0  0  0  0  0  0  0  0
  1  2  1  0
  2  3  1  0
  3  4  2  0
  3  5  2  0
  3  6  1  0
  6  7  2  0
  7  8  1  0
  8  9  2  0
  9 10  1  0
 10 11  2  0
 10 12  1  0
 12 13  2  0
 13 14  1  0
 14 15  1  0
 15 16  1  0
 16 17  2  0
 17 18  1  0
 18 19  1  0
 19 20  1  0
 20 21  1  0
 21 22  1  0
 22 23  2  0
 12 24  1  0
 24 25  2  0
 24 26  1  0
 11  6  1  0
 18 14  2  0
 26  9  1  0
 22 17  1  0
M  END
>  <Compound_ID>  (126) 
CHEMBL294884

>  <Active>  (126) 
1

>  <Smiles>  (126) 
CNS(=O)(=O)c1ccc2c(c1)/C(=C/c1[nH]cc3c1CCNC3=O)C(=O)N2

>  <canonical_smi>  (126) 
CNS(=O)(=O)c1ccc2c(c1)/C(=C/c1[nH]cc3c1CCNC3=O)C(=O)N2

>  <Set>  (126) 
G2 active

>  <Set_type>  (126) 
Train

>  <MW>  (126) 
372.41

>  <HBD>  (126) 
4

>  <HBA>  (126) 
4

>  <NRB>  (126) 
3

>  <NR>  (126) 
4

>  <NAR>  (126) 
2

>  <PSA>  (126) 
120.16

>  <Standard Type>  (126) 
nan

>  <Standard Relation>  (126) 
nan

>  <Standard Units>  (126) 
nan

>  <Standard Value>  (126) 
nan

>  <Assay ChEMBL ID>  (126) 
nan

>  <Assay Description>  (126) 
nan

>  <BAO Label>  (126) 
nan

$$$$

     RDKit          2D

 31 34  0  0  0  0  0  0  0  0999 V2000
    1.8478   -6.4639    0.0000 C   0  0  0  0  0  0  0  0  0  0  0  0
    2.0046   -4.9721    0.0000 C   0  0  0  0  0  0  0  0  0  0  0  0
    3.3037   -4.2221    0.0000 N   0  0  0  0  0  0  0  0  0  0  0  0
    2.9918   -2.7549    0.0000 C   0  0  0  0  0  0  0  0  0  0  0  0
    1.5000   -2.5981    0.0000 C   0  0  0  0  0  0  0  0  0  0  0  0
    0.7500   -1.2990    0.0000 C   0  0  0  0  0  0  0  0  0  0  0  0
    1.5000    0.0000    0.0000 C   0  0  0  0  0  0  0  0  0  0  0  0
    0.7500    1.2990    0.0000 C   0  0  0  0  0  0  0  0  0  0  0  0
   -0.7500    1.2990    0.0000 N   0  0  0  0  0  0  0  0  0  0  0  0
   -1.5000    0.0000    0.0000 C   0  0  0  0  0  0  0  0  0  0  0  0
   -3.0000    0.0000    0.0000 N   0  0  0  0  0  0  0  0  0  0  0  0
   -3.7500    1.2990    0.0000 C   0  0  0  0  0  0  0  0  0  0  0  0
   -3.0000    2.5981    0.0000 C   0  0  0  0  0  0  0  0  0  0  0  0
   -3.7500    3.8971    0.0000 C   0  0  0  0  0  0  0  0  0  0  0  0
   -5.2500    3.8971    0.0000 C   0  0  0  0  0  0  0  0  0  0  0  0
   -6.0000    5.1962    0.0000 C   0  0  0  0  0  0  0  0  0  0  0  0
   -7.5000    5.1962    0.0000 O   0  0  0  0  0  0  0  0  0  0  0  0
   -5.2500    6.4952    0.0000 N   0  0  0  0  0  0  0  0  0  0  0  0
   -3.7500    6.4952    0.0000 C   0  0  0  0  0  0  0  0  0  0  0  0
   -3.0000    7.7942    0.0000 C   0  0  0  0  0  0  0  0  0  0  0  0
   -3.7500    9.0933    0.0000 N   0  0  0  0  0  0  0  0  0  0  0  0
   -3.0000   10.3923    0.0000 C   0  0  0  0  0  0  0  0  0  0  0  0
   -5.2500    9.0933    0.0000 C   0  0  0  0  0  0  0  0  0  0  0  0
   -6.0000    7.7942    0.0000 C   0  0  0  0  0  0  0  0  0  0  0  0
   -6.0000    2.5981    0.0000 C   0  0  0  0  0  0  0  0  0  0  0  0
   -5.2500    1.2990    0.0000 C   0  0  0  0  0  0  0  0  0  0  0  0
   -0.7500   -1.2990    0.0000 N   0  0  0  0  0  0  0  0  0  0  0  0
    0.8899   -3.9684    0.0000 N   0  0  0  0  0  0  0  0  0  0  0  0
   -0.5773   -4.2803    0.0000 C   0  0  0  0  0  0  0  0  0  0  0  0
   -1.0409   -5.7068    0.0000 C   0  0  0  0  0  0  0  0  0  0  0  0
   -1.5810   -3.1655    0.0000 C   0  0  0  0  0  0  0  0  0  0  0  0
  1  2  1  0
  2  3  2  0
  3  4  1  0
  4  5  2  0
  5  6  1  0
  6  7  2  0
  7  8  1  0
  8  9  2  0
  9 10  1  0
 10 11  1  0
 11 12  1  0
 12 13  2  0
 13 14  1  0
 14 15  2  0
 15 16  1  0
 16 17  2  0
 16 18  1  0
 18 19  1  0
 19 20  1  0
 20 21  1  0
 21 22  1  0
 21 23  1  0
 23 24  1  0
 15 25  1  0
 25 26  2  0
 10 27  2  0
  5 28  1  0
 28 29  1  0
 29 30  1  0
 29 31  1  0
 28  2  1  0
 27  6  1  0
 26 12  1  0
 24 18  1  0
M  END
>  <Compound_ID>  (127) 
CHEMBL455467

>  <Active>  (127) 
1

>  <Smiles>  (127) 
Cc1ncc(-c2ccnc(Nc3ccc(C(=O)N4CCN(C)CC4)cc3)n2)n1C(C)C

>  <canonical_smi>  (127) 
Cc1ncc(-c2ccnc(Nc3ccc(C(=O)N4CCN(C)CC4)cc3)n2)n1C(C)C

>  <Set>  (127) 
G2 active

>  <Set_type>  (127) 
Train

>  <MW>  (127) 
419.53

>  <HBD>  (127) 
1

>  <HBA>  (127) 
6

>  <NRB>  (127) 
5

>  <NR>  (127) 
4

>  <NAR>  (127) 
3

>  <PSA>  (127) 
79.18

>  <Standard Type>  (127) 
nan

>  <Standard Relation>  (127) 
nan

>  <Standard Units>  (127) 
nan

>  <Standard Value>  (127) 
nan

>  <Assay ChEMBL ID>  (127) 
nan

>  <Assay Description>  (127) 
nan

>  <BAO Label>  (127) 
nan

$$$$

     RDKit          2D

 31 34  0  0  0  0  0  0  0  0999 V2000
  -10.0849   -6.9740    0.0000 N   0  0  0  0  0  0  0  0  0  0  0  0
   -8.6583   -6.5105    0.0000 S   0  0  0  0  0  0  0  0  0  0  0  0
   -9.1218   -5.0839    0.0000 O   0  0  0  0  0  0  0  0  0  0  0  0
   -8.1948   -7.9371    0.0000 O   0  0  0  0  0  0  0  0  0  0  0  0
   -7.2317   -6.0469    0.0000 C   0  0  0  0  0  0  0  0  0  0  0  0
   -6.9199   -4.5797    0.0000 C   0  0  0  0  0  0  0  0  0  0  0  0
   -5.4933   -4.1162    0.0000 C   0  0  0  0  0  0  0  0  0  0  0  0
   -4.3786   -5.1199    0.0000 C   0  0  0  0  0  0  0  0  0  0  0  0
   -2.9520   -4.6564    0.0000 N   0  0  0  0  0  0  0  0  0  0  0  0
   -2.6401   -3.1891    0.0000 N   0  0  0  0  0  0  0  0  0  0  0  0
   -1.2135   -2.7256    0.0000 C   0  0  0  0  0  0  0  0  0  0  0  0
   -0.0000   -3.6073    0.0000 C   0  0  0  0  0  0  0  0  0  0  0  0
    0.0000   -5.1073    0.0000 O   0  0  0  0  0  0  0  0  0  0  0  0
    1.2135   -2.7256    0.0000 N   0  0  0  0  0  0  0  0  0  0  0  0
    0.7500   -1.2990    0.0000 C   0  0  0  0  0  0  0  0  0  0  0  0
    1.5000    0.0000    0.0000 C   0  0  0  0  0  0  0  0  0  0  0  0
    0.7500    1.2990    0.0000 C   0  0  0  0  0  0  0  0  0  0  0  0
   -0.7500    1.2990    0.0000 C   0  0  0  0  0  0  0  0  0  0  0  0
   -1.5000    0.0000    0.0000 C   0  0  0  0  0  0  0  0  0  0  0  0
   -3.0000    0.0000    0.0000 C   0  0  0  0  0  0  0  0  0  0  0  0
   -3.7500    1.2990    0.0000 C   0  0  0  0  0  0  0  0  0  0  0  0
   -5.2500    1.2990    0.0000 C   0  0  0  0  0  0  0  0  0  0  0  0
   -6.0000    2.5981    0.0000 C   0  0  0  0  0  0  0  0  0  0  0  0
   -7.5000    2.5981    0.0000 C   0  0  0  0  0  0  0  0  0  0  0  0
   -8.2500    1.2990    0.0000 C   0  0  0  0  0  0  0  0  0  0  0  0
   -9.7500    1.2990    0.0000 O   0  0  0  0  0  0  0  0  0  0  0  0
   -7.5000    0.0000    0.0000 C   0  0  0  0  0  0  0  0  0  0  0  0
   -6.0000    0.0000    0.0000 C   0  0  0  0  0  0  0  0  0  0  0  0
   -0.7500   -1.2990    0.0000 C   0  0  0  0  0  0  0  0  0  0  0  0
   -4.6904   -6.5871    0.0000 C   0  0  0  0  0  0  0  0  0  0  0  0
   -6.1170   -7.0506    0.0000 C   0  0  0  0  0  0  0  0  0  0  0  0
  1  2  1  0
  2  3  2  0
  2  4  2  0
  2  5  1  0
  5  6  2  0
  6  7  1  0
  7  8  2  0
  8  9  1  0
  9 10  1  0
 10 11  2  0
 11 12  1  0
 12 13  2  0
 12 14  1  0
 14 15  1  0
 15 16  2  0
 16 17  1  0
 17 18  2  0
 18 19  1  0
 19 20  1  0
 20 21  2  0
 21 22  1  0
 22 23  2  0
 23 24  1  0
 24 25  2  0
 25 26  1  0
 25 27  1  0
 27 28  2  0
 19 29  2  0
  8 30  1  0
 30 31  2  0
 31  5  1  0
 29 11  1  0
 29 15  1  0
 28 22  1  0
M  END
>  <Compound_ID>  (128) 
CHEMBL272380

>  <Active>  (128) 
1

>  <Smiles>  (128) 
NS(=O)(=O)c1ccc(N/N=C2\C(=O)Nc3cccc(/C=C/c4ccc(O)cc4)c32)cc1

>  <canonical_smi>  (128) 
NS(=O)(=O)c1ccc(N/N=C2\C(=O)Nc3cccc(/C=C/c4ccc(O)cc4)c32)cc1

>  <Set>  (128) 
G2 active

>  <Set_type>  (128) 
Train

>  <MW>  (128) 
434.48

>  <HBD>  (128) 
4

>  <HBA>  (128) 
5

>  <NRB>  (128) 
5

>  <NR>  (128) 
4

>  <NAR>  (128) 
3

>  <PSA>  (128) 
133.88

>  <Standard Type>  (128) 
nan

>  <Standard Relation>  (128) 
nan

>  <Standard Units>  (128) 
nan

>  <Standard Value>  (128) 
nan

>  <Assay ChEMBL ID>  (128) 
nan

>  <Assay Description>  (128) 
nan

>  <BAO Label>  (128) 
nan

$$$$

     RDKit          2D

 35 40  0  0  0  0  0  0  0  0999 V2000
  -10.1878   -4.1483    0.0000 O   0  0  0  0  0  0  0  0  0  0  0  0
   -8.8888   -4.8983    0.0000 S   0  0  0  0  0  0  0  0  0  0  0  0
   -7.5897   -5.6483    0.0000 O   0  0  0  0  0  0  0  0  0  0  0  0
   -9.6388   -6.1973    0.0000 N   0  0  0  0  0  0  0  0  0  0  0  0
   -8.8888   -7.4964    0.0000 N   0  0  0  0  0  0  0  0  0  0  0  0
   -7.3888   -7.4964    0.0000 C   0  0  0  0  0  0  0  0  0  0  0  0
   -6.6388   -8.7954    0.0000 C   0  0  0  0  0  0  0  0  0  0  0  0
   -7.3888  -10.0944    0.0000 C   0  0  0  0  0  0  0  0  0  0  0  0
   -6.6388  -11.3935    0.0000 C   0  0  0  0  0  0  0  0  0  0  0  0
   -7.3888  -12.6925    0.0000 C   0  0  0  0  0  0  0  0  0  0  0  0
   -8.8888  -12.6925    0.0000 C   0  0  0  0  0  0  0  0  0  0  0  0
   -9.6388  -11.3935    0.0000 C   0  0  0  0  0  0  0  0  0  0  0  0
   -8.8888  -10.0944    0.0000 C   0  0  0  0  0  0  0  0  0  0  0  0
   -9.6388   -8.7954    0.0000 C   0  0  0  0  0  0  0  0  0  0  0  0
   -8.1388   -3.5992    0.0000 C   0  0  0  0  0  0  0  0  0  0  0  0
   -6.6388   -3.5992    0.0000 C   0  0  0  0  0  0  0  0  0  0  0  0
   -5.8888   -2.3002    0.0000 C   0  0  0  0  0  0  0  0  0  0  0  0
   -6.6388   -1.0012    0.0000 C   0  0  0  0  0  0  0  0  0  0  0  0
   -5.8888    0.2979    0.0000 N   0  0  0  0  0  0  0  0  0  0  0  0
   -4.3888    0.2979    0.0000 C   0  0  0  0  0  0  0  0  0  0  0  0
   -3.6388    1.5969    0.0000 C   0  0  0  0  0  0  0  0  0  0  0  0
   -4.2489    2.9672    0.0000 C   0  0  0  0  0  0  0  0  0  0  0  0
   -5.7161    3.2791    0.0000 O   0  0  0  0  0  0  0  0  0  0  0  0
   -3.1342    3.9709    0.0000 N   0  0  0  0  0  0  0  0  0  0  0  0
   -1.8351    3.2209    0.0000 C   0  0  0  0  0  0  0  0  0  0  0  0
   -0.4086    3.6844    0.0000 C   0  0  0  0  0  0  0  0  0  0  0  0
    0.7062    2.6807    0.0000 C   0  0  0  0  0  0  0  0  0  0  0  0
    0.3943    1.2135    0.0000 C   0  0  0  0  0  0  0  0  0  0  0  0
    1.2760    0.0000    0.0000 N   0  0  0  0  0  0  0  0  0  0  0  0
    0.3943   -1.2135    0.0000 C   0  0  0  0  0  0  0  0  0  0  0  0
   -1.0323   -0.7500    0.0000 S   0  0  0  0  0  0  0  0  0  0  0  0
   -1.0323    0.7500    0.0000 C   0  0  0  0  0  0  0  0  0  0  0  0
   -2.1470    1.7537    0.0000 C   0  0  0  0  0  0  0  0  0  0  0  0
   -8.1388   -1.0012    0.0000 C   0  0  0  0  0  0  0  0  0  0  0  0
   -8.8888   -2.3002    0.0000 C   0  0  0  0  0  0  0  0  0  0  0  0
  1  2  2  0
  2  3  2  0
  2  4  1  0
  4  5  1  0
  5  6  1  0
  6  7  2  0
  7  8  1  0
  8  9  2  0
  9 10  1  0
 10 11  2  0
 11 12  1  0
 12 13  2  0
 13 14  1  0
  2 15  1  0
 15 16  2  0
 16 17  1  0
 17 18  2  0
 18 19  1  0
 19 20  2  0
 20 21  1  0
 21 22  2  0
 22 23  1  0
 22 24  1  0
 24 25  1  0
 25 26  2  0
 26 27  1  0
 27 28  2  0
 28 29  1  0
 29 30  2  0
 30 31  1  0
 31 32  1  0
 32 33  2  0
 18 34  1  0
 34 35  2  0
 14  5  1  0
 35 15  1  0
 13  8  1  0
 33 21  1  0
 33 25  1  0
 32 28  1  0
M  END
>  <Compound_ID>  (129) 
CHEMBL139527

>  <Active>  (129) 
1

>  <Smiles>  (129) 
O=S(=O)(NN1C=Cc2ccccc2C1)c1ccc(/N=C/c2c(O)[nH]c3ccc4ncsc4c23)cc1

>  <canonical_smi>  (129) 
O=S(=O)(NN1C=Cc2ccccc2C1)c1ccc(/N=C/c2c(O)[nH]c3ccc4ncsc4c23)cc1

>  <Set>  (129) 
G2 active

>  <Set_type>  (129) 
Train

>  <MW>  (129) 
501.59

>  <HBD>  (129) 
3

>  <HBA>  (129) 
5

>  <NRB>  (129) 
5

>  <NR>  (129) 
6

>  <NAR>  (129) 
5

>  <PSA>  (129) 
110.68

>  <Standard Type>  (129) 
nan

>  <Standard Relation>  (129) 
nan

>  <Standard Units>  (129) 
nan

>  <Standard Value>  (129) 
nan

>  <Assay ChEMBL ID>  (129) 
nan

>  <Assay Description>  (129) 
nan

>  <BAO Label>  (129) 
nan

$$$$

     RDKit          2D

 25 28  0  0  0  0  0  0  0  0999 V2000
   -9.6388   -6.1973    0.0000 N   0  0  0  0  0  0  0  0  0  0  0  0
   -8.8888   -4.8983    0.0000 S   0  0  0  0  0  0  0  0  0  0  0  0
  -10.1878   -4.1483    0.0000 O   0  0  0  0  0  0  0  0  0  0  0  0
   -7.5897   -5.6483    0.0000 O   0  0  0  0  0  0  0  0  0  0  0  0
   -8.1388   -3.5992    0.0000 C   0  0  0  0  0  0  0  0  0  0  0  0
   -8.8888   -2.3002    0.0000 C   0  0  0  0  0  0  0  0  0  0  0  0
   -8.1388   -1.0012    0.0000 C   0  0  0  0  0  0  0  0  0  0  0  0
   -6.6388   -1.0012    0.0000 C   0  0  0  0  0  0  0  0  0  0  0  0
   -5.8888    0.2979    0.0000 N   0  0  0  0  0  0  0  0  0  0  0  0
   -4.3888    0.2979    0.0000 N   0  0  0  0  0  0  0  0  0  0  0  0
   -3.6388    1.5969    0.0000 C   0  0  0  0  0  0  0  0  0  0  0  0
   -4.2489    2.9672    0.0000 C   0  0  0  0  0  0  0  0  0  0  0  0
   -5.7161    3.2791    0.0000 O   0  0  0  0  0  0  0  0  0  0  0  0
   -3.1342    3.9709    0.0000 N   0  0  0  0  0  0  0  0  0  0  0  0
   -1.8351    3.2209    0.0000 C   0  0  0  0  0  0  0  0  0  0  0  0
   -0.4086    3.6844    0.0000 C   0  0  0  0  0  0  0  0  0  0  0  0
    0.7062    2.6807    0.0000 C   0  0  0  0  0  0  0  0  0  0  0  0
    0.3943    1.2135    0.0000 C   0  0  0  0  0  0  0  0  0  0  0  0
    1.2760    0.0000    0.0000 N   0  0  0  0  0  0  0  0  0  0  0  0
    0.3943   -1.2135    0.0000 N   0  0  0  0  0  0  0  0  0  0  0  0
   -1.0323   -0.7500    0.0000 N   0  0  0  0  0  0  0  0  0  0  0  0
   -1.0323    0.7500    0.0000 C   0  0  0  0  0  0  0  0  0  0  0  0
   -2.1470    1.7537    0.0000 C   0  0  0  0  0  0  0  0  0  0  0  0
   -5.8888   -2.3002    0.0000 C   0  0  0  0  0  0  0  0  0  0  0  0
   -6.6388   -3.5992    0.0000 C   0  0  0  0  0  0  0  0  0  0  0  0
  1  2  1  0
  2  3  2  0
  2  4  2  0
  2  5  1  0
  5  6  2  0
  6  7  1  0
  7  8  2  0
  8  9  1  0
  9 10  2  3
 10 11  1  0
 11 12  2  0
 12 13  1  0
 12 14  1  0
 14 15  1  0
 15 16  2  0
 16 17  1  0
 17 18  2  0
 18 19  1  0
 19 20  1  0
 20 21  2  0
 21 22  1  0
 22 23  2  0
  8 24  1  0
 24 25  2  0
 25  5  1  0
 23 11  1  0
 23 15  1  0
 22 18  1  0
M  END
>  <Compound_ID>  (130) 
CHEMBL424469

>  <Active>  (130) 
1

>  <Smiles>  (130) 
NS(=O)(=O)c1ccc(N=Nc2c(O)[nH]c3ccc4[nH]nnc4c23)cc1

>  <canonical_smi>  (130) 
NS(=O)(=O)c1ccc(N=Nc2c(O)[nH]c3ccc4[nH]nnc4c23)cc1

>  <Set>  (130) 
G2 active

>  <Set_type>  (130) 
Train

>  <MW>  (130) 
357.36

>  <HBD>  (130) 
4

>  <HBA>  (130) 
5

>  <NRB>  (130) 
3

>  <NR>  (130) 
4

>  <NAR>  (130) 
4

>  <PSA>  (130) 
162.47

>  <Standard Type>  (130) 
nan

>  <Standard Relation>  (130) 
nan

>  <Standard Units>  (130) 
nan

>  <Standard Value>  (130) 
nan

>  <Assay ChEMBL ID>  (130) 
nan

>  <Assay Description>  (130) 
nan

>  <BAO Label>  (130) 
nan

$$$$

     RDKit          2D

 25 28  0  0  0  0  0  0  0  0999 V2000
   -9.6388   -6.1973    0.0000 N   0  0  0  0  0  0  0  0  0  0  0  0
   -8.8888   -4.8983    0.0000 S   0  0  0  0  0  0  0  0  0  0  0  0
  -10.1878   -4.1483    0.0000 O   0  0  0  0  0  0  0  0  0  0  0  0
   -7.5897   -5.6483    0.0000 O   0  0  0  0  0  0  0  0  0  0  0  0
   -8.1388   -3.5992    0.0000 C   0  0  0  0  0  0  0  0  0  0  0  0
   -8.8888   -2.3002    0.0000 C   0  0  0  0  0  0  0  0  0  0  0  0
   -8.1388   -1.0012    0.0000 C   0  0  0  0  0  0  0  0  0  0  0  0
   -6.6388   -1.0012    0.0000 C   0  0  0  0  0  0  0  0  0  0  0  0
   -5.8888    0.2979    0.0000 N   0  0  0  0  0  0  0  0  0  0  0  0
   -4.3888    0.2979    0.0000 N   0  0  0  0  0  0  0  0  0  0  0  0
   -3.6388    1.5969    0.0000 C   0  0  0  0  0  0  0  0  0  0  0  0
   -4.2489    2.9672    0.0000 C   0  0  0  0  0  0  0  0  0  0  0  0
   -5.7161    3.2791    0.0000 O   0  0  0  0  0  0  0  0  0  0  0  0
   -3.1342    3.9709    0.0000 N   0  0  0  0  0  0  0  0  0  0  0  0
   -1.8351    3.2209    0.0000 C   0  0  0  0  0  0  0  0  0  0  0  0
   -0.4086    3.6844    0.0000 C   0  0  0  0  0  0  0  0  0  0  0  0
    0.7062    2.6807    0.0000 C   0  0  0  0  0  0  0  0  0  0  0  0
    0.3943    1.2135    0.0000 C   0  0  0  0  0  0  0  0  0  0  0  0
    1.2760    0.0000    0.0000 N   0  0  0  0  0  0  0  0  0  0  0  0
    0.3943   -1.2135    0.0000 N   0  0  0  0  0  0  0  0  0  0  0  0
   -1.0323   -0.7500    0.0000 N   0  0  0  0  0  0  0  0  0  0  0  0
   -1.0323    0.7500    0.0000 C   0  0  0  0  0  0  0  0  0  0  0  0
   -2.1470    1.7537    0.0000 C   0  0  0  0  0  0  0  0  0  0  0  0
   -5.8888   -2.3002    0.0000 C   0  0  0  0  0  0  0  0  0  0  0  0
   -6.6388   -3.5992    0.0000 C   0  0  0  0  0  0  0  0  0  0  0  0
  1  2  1  0
  2  3  2  0
  2  4  2  0
  2  5  1  0
  5  6  2  0
  6  7  1  0
  7  8  2  0
  8  9  1  0
  9 10  1  0
 10 11  2  0
 11 12  1  0
 12 13  2  0
 12 14  1  0
 14 15  1  0
 15 16  2  0
 16 17  1  0
 17 18  2  0
 18 19  1  0
 19 20  1  0
 20 21  2  0
 21 22  1  0
 22 23  2  0
  8 24  1  0
 24 25  2  0
 25  5  1  0
 23 11  1  0
 23 15  1  0
 22 18  1  0
M  END
>  <Compound_ID>  (131) 
CHEMBL271952

>  <Active>  (131) 
1

>  <Smiles>  (131) 
NS(=O)(=O)c1ccc(N/N=C2\C(=O)Nc3ccc4[nH]nnc4c32)cc1

>  <canonical_smi>  (131) 
NS(=O)(=O)c1ccc(N/N=C2\C(=O)Nc3ccc4[nH]nnc4c32)cc1

>  <Set>  (131) 
G2 active

>  <Set_type>  (131) 
Train

>  <MW>  (131) 
357.36

>  <HBD>  (131) 
4

>  <HBA>  (131) 
6

>  <NRB>  (131) 
3

>  <NR>  (131) 
4

>  <NAR>  (131) 
3

>  <PSA>  (131) 
155.22

>  <Standard Type>  (131) 
nan

>  <Standard Relation>  (131) 
nan

>  <Standard Units>  (131) 
nan

>  <Standard Value>  (131) 
nan

>  <Assay ChEMBL ID>  (131) 
nan

>  <Assay Description>  (131) 
nan

>  <BAO Label>  (131) 
nan

$$$$

     RDKit          2D

 37 41  0  0  0  0  0  0  0  0999 V2000
   -8.5234   -7.7536    0.0000 C   0  0  0  0  0  0  0  0  0  0  0  0
   -7.0317   -7.5968    0.0000 O   0  0  0  0  0  0  0  0  0  0  0  0
   -6.4216   -6.2265    0.0000 C   0  0  0  0  0  0  0  0  0  0  0  0
   -7.3032   -5.0129    0.0000 C   0  0  0  0  0  0  0  0  0  0  0  0
   -6.6931   -3.6426    0.0000 C   0  0  0  0  0  0  0  0  0  0  0  0
   -5.2013   -3.4858    0.0000 C   0  0  0  0  0  0  0  0  0  0  0  0
   -4.5912   -2.1155    0.0000 C   0  0  0  0  0  0  0  0  0  0  0  0
   -5.3412   -0.8165    0.0000 N   0  0  0  0  0  0  0  0  0  0  0  0
   -4.3375    0.2982    0.0000 N   0  0  0  0  0  0  0  0  0  0  0  0
   -2.9672   -0.3119    0.0000 C   0  0  0  0  0  0  0  0  0  0  0  0
   -3.1240   -1.8037    0.0000 C   0  0  0  0  0  0  0  0  0  0  0  0
   -1.7537   -2.4138    0.0000 C   0  0  0  0  0  0  0  0  0  0  0  0
   -1.4418   -3.8810    0.0000 O   0  0  0  0  0  0  0  0  0  0  0  0
   -0.7500   -1.2990    0.0000 C   0  0  0  0  0  0  0  0  0  0  0  0
    0.7500   -1.2990    0.0000 C   0  0  0  0  0  0  0  0  0  0  0  0
    1.5000   -2.5981    0.0000 N   0  0  0  0  0  0  0  0  0  0  0  0
    3.0000   -2.5981    0.0000 C   0  0  0  0  0  0  0  0  0  0  0  0
    3.7500   -1.2990    0.0000 O   0  0  0  0  0  0  0  0  0  0  0  0
    3.7500   -3.8971    0.0000 N   0  0  0  0  0  0  0  0  0  0  0  0
    5.2500   -3.8971    0.0000 N   0  0  0  0  0  0  0  0  0  0  0  0
    6.0000   -5.1962    0.0000 C   0  0  0  0  0  0  0  0  0  0  0  0
    5.2500   -6.4952    0.0000 O   0  0  0  0  0  0  0  0  0  0  0  0
    7.5000   -5.1962    0.0000 C   0  0  0  0  0  0  0  0  0  0  0  0
    8.2500   -6.4952    0.0000 C   0  0  0  0  0  0  0  0  0  0  0  0
    9.7500   -6.4952    0.0000 C   0  0  0  0  0  0  0  0  0  0  0  0
   10.5000   -7.7942    0.0000 C   0  0  0  0  0  0  0  0  0  0  0  0
   12.0000   -7.7942    0.0000 C   0  0  0  0  0  0  0  0  0  0  0  0
   12.7500   -6.4952    0.0000 C   0  0  0  0  0  0  0  0  0  0  0  0
   14.2500   -6.4952    0.0000 O   0  0  0  0  0  0  0  0  0  0  0  0
   12.0000   -5.1962    0.0000 C   0  0  0  0  0  0  0  0  0  0  0  0
   10.5000   -5.1962    0.0000 C   0  0  0  0  0  0  0  0  0  0  0  0
    1.5000    0.0000    0.0000 C   0  0  0  0  0  0  0  0  0  0  0  0
    0.7500    1.2990    0.0000 C   0  0  0  0  0  0  0  0  0  0  0  0
   -0.7500    1.2990    0.0000 C   0  0  0  0  0  0  0  0  0  0  0  0
   -1.5000    0.0000    0.0000 C   0  0  0  0  0  0  0  0  0  0  0  0
   -4.3197   -4.6994    0.0000 C   0  0  0  0  0  0  0  0  0  0  0  0
   -4.9298   -6.0697    0.0000 C   0  0  0  0  0  0  0  0  0  0  0  0
  1  2  1  0
  2  3  1  0
  3  4  2  0
  4  5  1  0
  5  6  2  0
  6  7  1  0
  7  8  1  0
  8  9  1  0
  9 10  2  0
 10 11  1  0
 11 12  1  0
 12 13  2  0
 12 14  1  0
 14 15  2  0
 15 16  1  0
 16 17  1  0
 17 18  2  0
 17 19  1  0
 19 20  1  0
 20 21  1  0
 21 22  2  0
 21 23  1  0
 23 24  1  0
 24 25  1  0
 25 26  2  0
 26 27  1  0
 27 28  2  0
 28 29  1  0
 28 30  1  0
 30 31  2  0
 15 32  1  0
 32 33  2  0
 33 34  1  0
 34 35  2  0
  6 36  1  0
 36 37  2  0
 37  3  1  0
 11  7  2  0
 35 14  1  0
 35 10  1  0
 31 25  1  0
M  END
>  <Compound_ID>  (132) 
CHEMBL365872

>  <Active>  (132) 
1

>  <Smiles>  (132) 
COc1ccc(-c2[nH]nc3c2C(=O)c2c(NC(=O)NNC(=O)CCc4ccc(O)cc4)cccc2-3)cc1

>  <canonical_smi>  (132) 
COc1ccc(-c2[nH]nc3c2C(=O)c2c(NC(=O)NNC(=O)CCc4ccc(O)cc4)cccc2-3)cc1

>  <Set>  (132) 
G2 active

>  <Set_type>  (132) 
Train

>  <MW>  (132) 
497.51

>  <HBD>  (132) 
5

>  <HBA>  (132) 
6

>  <NRB>  (132) 
6

>  <NR>  (132) 
5

>  <NAR>  (132) 
5

>  <PSA>  (132) 
145.44

>  <Standard Type>  (132) 
nan

>  <Standard Relation>  (132) 
nan

>  <Standard Units>  (132) 
nan

>  <Standard Value>  (132) 
nan

>  <Assay ChEMBL ID>  (132) 
nan

>  <Assay Description>  (132) 
nan

>  <BAO Label>  (132) 
nan

$$$$

     RDKit          2D

 35 39  0  0  0  0  0  0  0  0999 V2000
   -8.5234   -7.7536    0.0000 C   0  0  0  0  0  0  0  0  0  0  0  0
   -7.0317   -7.5968    0.0000 O   0  0  0  0  0  0  0  0  0  0  0  0
   -6.4216   -6.2265    0.0000 C   0  0  0  0  0  0  0  0  0  0  0  0
   -7.3032   -5.0129    0.0000 C   0  0  0  0  0  0  0  0  0  0  0  0
   -6.6931   -3.6426    0.0000 C   0  0  0  0  0  0  0  0  0  0  0  0
   -5.2013   -3.4858    0.0000 C   0  0  0  0  0  0  0  0  0  0  0  0
   -4.5912   -2.1155    0.0000 C   0  0  0  0  0  0  0  0  0  0  0  0
   -5.3412   -0.8165    0.0000 N   0  0  0  0  0  0  0  0  0  0  0  0
   -4.3375    0.2982    0.0000 N   0  0  0  0  0  0  0  0  0  0  0  0
   -2.9672   -0.3119    0.0000 C   0  0  0  0  0  0  0  0  0  0  0  0
   -3.1240   -1.8037    0.0000 C   0  0  0  0  0  0  0  0  0  0  0  0
   -1.7537   -2.4138    0.0000 C   0  0  0  0  0  0  0  0  0  0  0  0
   -1.4418   -3.8810    0.0000 O   0  0  0  0  0  0  0  0  0  0  0  0
   -0.7500   -1.2990    0.0000 C   0  0  0  0  0  0  0  0  0  0  0  0
    0.7500   -1.2990    0.0000 C   0  0  0  0  0  0  0  0  0  0  0  0
    1.5000   -2.5981    0.0000 N   0  0  0  0  0  0  0  0  0  0  0  0
    3.0000   -2.5981    0.0000 C   0  0  0  0  0  0  0  0  0  0  0  0
    3.7500   -1.2990    0.0000 O   0  0  0  0  0  0  0  0  0  0  0  0
    3.7500   -3.8971    0.0000 N   0  0  0  0  0  0  0  0  0  0  0  0
    5.2500   -3.8971    0.0000 N   0  0  0  0  0  0  0  0  0  0  0  0
    6.0000   -5.1962    0.0000 C   0  0  0  0  0  0  0  0  0  0  0  0
    5.2500   -6.4952    0.0000 O   0  0  0  0  0  0  0  0  0  0  0  0
    7.5000   -5.1962    0.0000 N   0  0  0  0  0  0  0  0  0  0  0  0
    8.2500   -6.4952    0.0000 C   0  0  0  0  0  0  0  0  0  0  0  0
    7.5000   -7.7942    0.0000 C   0  0  0  0  0  0  0  0  0  0  0  0
    8.2500   -9.0933    0.0000 C   0  0  0  0  0  0  0  0  0  0  0  0
    9.7500   -9.0933    0.0000 C   0  0  0  0  0  0  0  0  0  0  0  0
   10.5000   -7.7942    0.0000 C   0  0  0  0  0  0  0  0  0  0  0  0
    9.7500   -6.4952    0.0000 C   0  0  0  0  0  0  0  0  0  0  0  0
    1.5000    0.0000    0.0000 C   0  0  0  0  0  0  0  0  0  0  0  0
    0.7500    1.2990    0.0000 C   0  0  0  0  0  0  0  0  0  0  0  0
   -0.7500    1.2990    0.0000 C   0  0  0  0  0  0  0  0  0  0  0  0
   -1.5000    0.0000    0.0000 C   0  0  0  0  0  0  0  0  0  0  0  0
   -4.3197   -4.6994    0.0000 C   0  0  0  0  0  0  0  0  0  0  0  0
   -4.9298   -6.0697    0.0000 C   0  0  0  0  0  0  0  0  0  0  0  0
  1  2  1  0
  2  3  1  0
  3  4  2  0
  4  5  1  0
  5  6  2  0
  6  7  1  0
  7  8  1  0
  8  9  1  0
  9 10  2  0
 10 11  1  0
 11 12  1  0
 12 13  2  0
 12 14  1  0
 14 15  2  0
 15 16  1  0
 16 17  1  0
 17 18  2  0
 17 19  1  0
 19 20  1  0
 20 21  1  0
 21 22  2  0
 21 23  1  0
 23 24  1  0
 24 25  2  0
 25 26  1  0
 26 27  2  0
 27 28  1  0
 28 29  2  0
 15 30  1  0
 30 31  2  0
 31 32  1  0
 32 33  2  0
  6 34  1  0
 34 35  2  0
 35  3  1  0
 11  7  2  0
 33 14  1  0
 33 10  1  0
 29 24  1  0
M  END
>  <Compound_ID>  (133) 
CHEMBL183950

>  <Active>  (133) 
1

>  <Smiles>  (133) 
COc1ccc(-c2[nH]nc3c2C(=O)c2c(NC(=O)NNC(=O)Nc4ccccc4)cccc2-3)cc1

>  <canonical_smi>  (133) 
COc1ccc(-c2[nH]nc3c2C(=O)c2c(NC(=O)NNC(=O)Nc4ccccc4)cccc2-3)cc1

>  <Set>  (133) 
G2 active

>  <Set_type>  (133) 
Train

>  <MW>  (133) 
468.47

>  <HBD>  (133) 
5

>  <HBA>  (133) 
5

>  <NRB>  (133) 
4

>  <NR>  (133) 
5

>  <NAR>  (133) 
5

>  <PSA>  (133) 
137.24

>  <Standard Type>  (133) 
nan

>  <Standard Relation>  (133) 
nan

>  <Standard Units>  (133) 
nan

>  <Standard Value>  (133) 
nan

>  <Assay ChEMBL ID>  (133) 
nan

>  <Assay Description>  (133) 
nan

>  <BAO Label>  (133) 
nan

$$$$

     RDKit          2D

 30 33  0  0  0  0  0  0  0  0999 V2000
    9.7500   -3.8971    0.0000 C   0  0  0  0  0  0  0  0  0  0  0  0
    8.2500   -3.8971    0.0000 O   0  0  0  0  0  0  0  0  0  0  0  0
    7.5000   -2.5981    0.0000 C   0  0  0  0  0  0  0  0  0  0  0  0
    8.2500   -1.2990    0.0000 O   0  0  0  0  0  0  0  0  0  0  0  0
    6.0000   -2.5981    0.0000 N   0  0  0  0  0  0  0  0  0  0  0  0
    5.2500   -1.2990    0.0000 N   0  0  0  0  0  0  0  0  0  0  0  0
    3.7500   -1.2990    0.0000 C   0  0  0  0  0  0  0  0  0  0  0  0
    3.0000   -2.5981    0.0000 O   0  0  0  0  0  0  0  0  0  0  0  0
    3.0000    0.0000    0.0000 N   0  0  0  0  0  0  0  0  0  0  0  0
    1.5000    0.0000    0.0000 C   0  0  0  0  0  0  0  0  0  0  0  0
    0.7500   -1.2990    0.0000 C   0  0  0  0  0  0  0  0  0  0  0  0
   -0.7500   -1.2990    0.0000 C   0  0  0  0  0  0  0  0  0  0  0  0
   -1.5000    0.0000    0.0000 C   0  0  0  0  0  0  0  0  0  0  0  0
   -0.7500    1.2990    0.0000 C   0  0  0  0  0  0  0  0  0  0  0  0
    0.7500    1.2990    0.0000 C   0  0  0  0  0  0  0  0  0  0  0  0
    1.2135    2.7256    0.0000 C   0  0  0  0  0  0  0  0  0  0  0  0
    2.6401    3.1891    0.0000 O   0  0  0  0  0  0  0  0  0  0  0  0
    0.0000    3.6073    0.0000 C   0  0  0  0  0  0  0  0  0  0  0  0
   -0.4635    5.0339    0.0000 C   0  0  0  0  0  0  0  0  0  0  0  0
    0.4182    6.2474    0.0000 C   0  0  0  0  0  0  0  0  0  0  0  0
    1.9099    6.0906    0.0000 C   0  0  0  0  0  0  0  0  0  0  0  0
    2.7916    7.3041    0.0000 C   0  0  0  0  0  0  0  0  0  0  0  0
    2.1815    8.6745    0.0000 C   0  0  0  0  0  0  0  0  0  0  0  0
    3.0632    9.8880    0.0000 O   0  0  0  0  0  0  0  0  0  0  0  0
    4.5550    9.7312    0.0000 C   0  0  0  0  0  0  0  0  0  0  0  0
    0.6897    8.8313    0.0000 C   0  0  0  0  0  0  0  0  0  0  0  0
   -0.1920    7.6177    0.0000 C   0  0  0  0  0  0  0  0  0  0  0  0
   -1.9635    5.0339    0.0000 N   0  0  0  0  0  0  0  0  0  0  0  0
   -2.4271    3.6073    0.0000 N   0  0  0  0  0  0  0  0  0  0  0  0
   -1.2135    2.7256    0.0000 C   0  0  0  0  0  0  0  0  0  0  0  0
  1  2  1  0
  2  3  1  0
  3  4  2  0
  3  5  1  0
  5  6  1  0
  6  7  1  0
  7  8  2  0
  7  9  1  0
  9 10  1  0
 10 11  2  0
 11 12  1  0
 12 13  2  0
 13 14  1  0
 14 15  2  0
 15 16  1  0
 16 17  2  0
 16 18  1  0
 18 19  1  0
 19 20  1  0
 20 21  2  0
 21 22  1  0
 22 23  2  0
 23 24  1  0
 24 25  1  0
 23 26  1  0
 26 27  2  0
 19 28  2  0
 28 29  1  0
 29 30  1  0
 15 10  1  0
 30 18  2  0
 30 14  1  0
 27 20  1  0
M  END
>  <Compound_ID>  (134) 
CHEMBL362109

>  <Active>  (134) 
1

>  <Smiles>  (134) 
COC(=O)NNC(=O)Nc1cccc2c1C(=O)c1c(-c3ccc(OC)cc3)n[nH]c1-2

>  <canonical_smi>  (134) 
COC(=O)NNC(=O)Nc1cccc2c1C(=O)c1c(-c3ccc(OC)cc3)n[nH]c1-2

>  <Set>  (134) 
G2 active

>  <Set_type>  (134) 
Train

>  <MW>  (134) 
407.39

>  <HBD>  (134) 
4

>  <HBA>  (134) 
6

>  <NRB>  (134) 
3

>  <NR>  (134) 
4

>  <NAR>  (134) 
4

>  <PSA>  (134) 
134.44

>  <Standard Type>  (134) 
nan

>  <Standard Relation>  (134) 
nan

>  <Standard Units>  (134) 
nan

>  <Standard Value>  (134) 
nan

>  <Assay ChEMBL ID>  (134) 
nan

>  <Assay Description>  (134) 
nan

>  <BAO Label>  (134) 
nan

$$$$

     RDKit          2D

 34 38  0  0  0  0  0  0  0  0999 V2000
   -8.5234   -7.7536    0.0000 C   0  0  0  0  0  0  0  0  0  0  0  0
   -7.0317   -7.5968    0.0000 O   0  0  0  0  0  0  0  0  0  0  0  0
   -6.4216   -6.2265    0.0000 C   0  0  0  0  0  0  0  0  0  0  0  0
   -7.3032   -5.0129    0.0000 C   0  0  0  0  0  0  0  0  0  0  0  0
   -6.6931   -3.6426    0.0000 C   0  0  0  0  0  0  0  0  0  0  0  0
   -5.2013   -3.4858    0.0000 C   0  0  0  0  0  0  0  0  0  0  0  0
   -4.5912   -2.1155    0.0000 C   0  0  0  0  0  0  0  0  0  0  0  0
   -5.3412   -0.8165    0.0000 N   0  0  0  0  0  0  0  0  0  0  0  0
   -4.3375    0.2982    0.0000 N   0  0  0  0  0  0  0  0  0  0  0  0
   -2.9672   -0.3119    0.0000 C   0  0  0  0  0  0  0  0  0  0  0  0
   -3.1240   -1.8037    0.0000 C   0  0  0  0  0  0  0  0  0  0  0  0
   -1.7537   -2.4138    0.0000 C   0  0  0  0  0  0  0  0  0  0  0  0
   -1.4418   -3.8810    0.0000 O   0  0  0  0  0  0  0  0  0  0  0  0
   -0.7500   -1.2990    0.0000 C   0  0  0  0  0  0  0  0  0  0  0  0
    0.7500   -1.2990    0.0000 C   0  0  0  0  0  0  0  0  0  0  0  0
    1.5000   -2.5981    0.0000 N   0  0  0  0  0  0  0  0  0  0  0  0
    3.0000   -2.5981    0.0000 C   0  0  0  0  0  0  0  0  0  0  0  0
    3.7500   -1.2990    0.0000 O   0  0  0  0  0  0  0  0  0  0  0  0
    3.7500   -3.8971    0.0000 N   0  0  0  0  0  0  0  0  0  0  0  0
    5.2500   -3.8971    0.0000 N   0  0  0  0  0  0  0  0  0  0  0  0
    6.0000   -5.1962    0.0000 C   0  0  0  0  0  0  0  0  0  0  0  0
    5.2500   -6.4952    0.0000 O   0  0  0  0  0  0  0  0  0  0  0  0
    7.5000   -5.1962    0.0000 C   0  0  0  0  0  0  0  0  0  0  0  0
    8.2500   -6.4952    0.0000 C   0  0  0  0  0  0  0  0  0  0  0  0
    9.7500   -6.4952    0.0000 C   0  0  0  0  0  0  0  0  0  0  0  0
   10.5000   -5.1962    0.0000 C   0  0  0  0  0  0  0  0  0  0  0  0
    9.7500   -3.8971    0.0000 N   0  0  0  0  0  0  0  0  0  0  0  0
    8.2500   -3.8971    0.0000 C   0  0  0  0  0  0  0  0  0  0  0  0
    1.5000    0.0000    0.0000 C   0  0  0  0  0  0  0  0  0  0  0  0
    0.7500    1.2990    0.0000 C   0  0  0  0  0  0  0  0  0  0  0  0
   -0.7500    1.2990    0.0000 C   0  0  0  0  0  0  0  0  0  0  0  0
   -1.5000    0.0000    0.0000 C   0  0  0  0  0  0  0  0  0  0  0  0
   -4.3197   -4.6994    0.0000 C   0  0  0  0  0  0  0  0  0  0  0  0
   -4.9298   -6.0697    0.0000 C   0  0  0  0  0  0  0  0  0  0  0  0
  1  2  1  0
  2  3  1  0
  3  4  2  0
  4  5  1  0
  5  6  2  0
  6  7  1  0
  7  8  1  0
  8  9  1  0
  9 10  2  0
 10 11  1  0
 11 12  1  0
 12 13  2  0
 12 14  1  0
 14 15  2  0
 15 16  1  0
 16 17  1  0
 17 18  2  0
 17 19  1  0
 19 20  1  0
 20 21  1  0
 21 22  2  0
 21 23  1  0
 23 24  2  0
 24 25  1  0
 25 26  2  0
 26 27  1  0
 27 28  2  0
 15 29  1  0
 29 30  2  0
 30 31  1  0
 31 32  2  0
  6 33  1  0
 33 34  2  0
 34  3  1  0
 11  7  2  0
 32 14  1  0
 32 10  1  0
 28 23  1  0
M  END
>  <Compound_ID>  (135) 
CHEMBL363077

>  <Active>  (135) 
1

>  <Smiles>  (135) 
COc1ccc(-c2[nH]nc3c2C(=O)c2c(NC(=O)NNC(=O)c4cccnc4)cccc2-3)cc1

>  <canonical_smi>  (135) 
COc1ccc(-c2[nH]nc3c2C(=O)c2c(NC(=O)NNC(=O)c4cccnc4)cccc2-3)cc1

>  <Set>  (135) 
G2 active

>  <Set_type>  (135) 
Train

>  <MW>  (135) 
454.45

>  <HBD>  (135) 
4

>  <HBA>  (135) 
6

>  <NRB>  (135) 
4

>  <NR>  (135) 
5

>  <NAR>  (135) 
5

>  <PSA>  (135) 
138.1

>  <Standard Type>  (135) 
nan

>  <Standard Relation>  (135) 
nan

>  <Standard Units>  (135) 
nan

>  <Standard Value>  (135) 
nan

>  <Assay ChEMBL ID>  (135) 
nan

>  <Assay Description>  (135) 
nan

>  <BAO Label>  (135) 
nan

$$$$

     RDKit          2D

 30 36  0  0  0  0  0  0  0  0999 V2000
    4.3059    7.6979    0.0000 O   0  0  0  0  0  0  0  0  0  0  0  0
    2.9958    6.9674    0.0000 C   0  0  0  0  0  0  0  0  0  0  0  0
    1.6348    7.5979    0.0000 N   0  0  0  0  0  0  0  0  0  0  0  0
    0.6145    6.4983    0.0000 C   0  0  0  0  0  0  0  0  0  0  0  0
   -0.8748    6.6774    0.0000 O   0  0  0  0  0  0  0  0  0  0  0  0
    1.3450    5.1882    0.0000 C   0  0  0  0  0  0  0  0  0  0  0  0
    2.8167    5.4781    0.0000 C   0  0  0  0  0  0  0  0  0  0  0  0
    3.8036    4.3485    0.0000 C   0  0  0  0  0  0  0  0  0  0  0  0
    5.3035    4.3261    0.0000 C   0  0  0  0  0  0  0  0  0  0  0  0
    6.3237    5.4256    0.0000 C   0  0  0  0  0  0  0  0  0  0  0  0
    7.7861    5.0919    0.0000 C   0  0  0  0  0  0  0  0  0  0  0  0
    8.2282    3.6585    0.0000 C   0  0  0  0  0  0  0  0  0  0  0  0
    9.6906    3.3247    0.0000 F   0  0  0  0  0  0  0  0  0  0  0  0
    7.2080    2.5589    0.0000 C   0  0  0  0  0  0  0  0  0  0  0  0
    5.7456    2.8927    0.0000 C   0  0  0  0  0  0  0  0  0  0  0  0
    4.5190    2.0293    0.0000 N   0  0  0  0  0  0  0  0  0  0  0  0
    3.3188    2.9290    0.0000 C   0  0  0  0  0  0  0  0  0  0  0  0
    1.8471    2.6391    0.0000 C   0  0  0  0  0  0  0  0  0  0  0  0
    0.8602    3.7687    0.0000 C   0  0  0  0  0  0  0  0  0  0  0  0
   -0.5191    3.1792    0.0000 C   0  0  0  0  0  0  0  0  0  0  0  0
   -1.9156    3.7285    0.0000 C   0  0  0  0  0  0  0  0  0  0  0  0
   -3.1158    2.8288    0.0000 C   0  0  0  0  0  0  0  0  0  0  0  0
   -2.9367    1.3395    0.0000 C   0  0  0  0  0  0  0  0  0  0  0  0
   -1.5574    0.7500    0.0000 C   0  0  0  0  0  0  0  0  0  0  0  0
   -0.3846    1.6852    0.0000 C   0  0  0  0  0  0  0  0  0  0  0  0
    1.0777    1.3515    0.0000 N   0  0  0  0  0  0  0  0  0  0  0  0
    1.7286    0.0000    0.0000 C   0  0  0  0  0  0  0  0  0  0  0  0
    1.0777   -1.3515    0.0000 C   0  0  0  0  0  0  0  0  0  0  0  0
   -0.3846   -1.6852    0.0000 N   0  0  0  0  0  0  0  0  0  0  0  0
   -1.5574   -0.7500    0.0000 C   0  0  0  0  0  0  0  0  0  0  0  0
  1  2  2  0
  2  3  1  0
  3  4  1  0
  4  5  2  0
  4  6  1  0
  6  7  2  0
  7  8  1  0
  8  9  1  0
  9 10  2  0
 10 11  1  0
 11 12  2  0
 12 13  1  0
 12 14  1  0
 14 15  2  0
 15 16  1  0
 16 17  1  0
 17 18  1  0
 18 19  2  0
 19 20  1  0
 20 21  2  0
 21 22  1  0
 22 23  2  0
 23 24  1  0
 24 25  2  0
 25 26  1  0
 26 27  1  0
 27 28  1  0
 28 29  1  0
 29 30  1  0
  7  2  1  0
 17  8  2  0
 26 18  1  0
 19  6  1  0
 25 20  1  0
 15  9  1  0
 30 24  1  0
M  END
>  <Compound_ID>  (136) 
CHEMBL558586

>  <Active>  (136) 
1

>  <Smiles>  (136) 
O=C1NC(=O)c2c1c1c3ccc(F)cc3[nH]c1c1c2c2cccc3c2n1CCNC3

>  <canonical_smi>  (136) 
O=C1NC(=O)c2c1c1c3ccc(F)cc3[nH]c1c1c2c2cccc3c2n1CCNC3

>  <Set>  (136) 
G2 active

>  <Set_type>  (136) 
Train

>  <MW>  (136) 
398.4

>  <HBD>  (136) 
3

>  <HBA>  (136) 
3

>  <NRB>  (136) 
0

>  <NR>  (136) 
7

>  <NAR>  (136) 
5

>  <PSA>  (136) 
78.92

>  <Standard Type>  (136) 
nan

>  <Standard Relation>  (136) 
nan

>  <Standard Units>  (136) 
nan

>  <Standard Value>  (136) 
nan

>  <Assay ChEMBL ID>  (136) 
nan

>  <Assay Description>  (136) 
nan

>  <BAO Label>  (136) 
nan

$$$$

     RDKit          2D

 25 29  0  0  0  0  0  0  0  0999 V2000
    1.5000    0.0000    0.0000 C   0  0  0  0  0  0  0  0  0  0  0  0
    0.7500   -1.2990    0.0000 C   0  0  0  0  0  0  0  0  0  0  0  0
   -0.7500   -1.2990    0.0000 N   0  0  0  0  0  0  0  0  0  0  0  0
   -1.5000    0.0000    0.0000 N   0  0  0  0  0  0  0  0  0  0  0  0
   -2.9672    0.3119    0.0000 N   0  0  0  0  0  0  0  0  0  0  0  0
   -3.1240    1.8037    0.0000 C   0  0  0  0  0  0  0  0  0  0  0  0
   -1.7537    2.4138    0.0000 C   0  0  0  0  0  0  0  0  0  0  0  0
   -1.4418    3.8810    0.0000 C   0  0  0  0  0  0  0  0  0  0  0  0
   -0.0152    4.3445    0.0000 C   0  0  0  0  0  0  0  0  0  0  0  0
    0.2966    5.8117    0.0000 C   0  0  0  0  0  0  0  0  0  0  0  0
   -0.8181    6.8154    0.0000 N   0  0  0  0  0  0  0  0  0  0  0  0
   -2.2447    6.3519    0.0000 C   0  0  0  0  0  0  0  0  0  0  0  0
   -3.3594    7.3556    0.0000 N   0  0  0  0  0  0  0  0  0  0  0  0
   -3.0475    8.8228    0.0000 C   0  0  0  0  0  0  0  0  0  0  0  0
   -1.6209    9.2863    0.0000 C   0  0  0  0  0  0  0  0  0  0  0  0
   -1.3091   10.7536    0.0000 C   0  0  0  0  0  0  0  0  0  0  0  0
   -2.4238   11.7573    0.0000 C   0  0  0  0  0  0  0  0  0  0  0  0
   -3.8504   11.2937    0.0000 C   0  0  0  0  0  0  0  0  0  0  0  0
   -4.1622    9.8265    0.0000 C   0  0  0  0  0  0  0  0  0  0  0  0
   -4.7321   12.5073    0.0000 O   0  0  0  0  0  0  0  0  0  0  0  0
   -3.8504   13.7208    0.0000 C   0  0  0  0  0  0  0  0  0  0  0  0
   -2.4238   13.2573    0.0000 O   0  0  0  0  0  0  0  0  0  0  0  0
   -2.5565    4.8847    0.0000 N   0  0  0  0  0  0  0  0  0  0  0  0
   -0.7500    1.2990    0.0000 C   0  0  0  0  0  0  0  0  0  0  0  0
    0.7500    1.2990    0.0000 C   0  0  0  0  0  0  0  0  0  0  0  0
  1  2  1  0
  2  3  2  0
  3  4  1  0
  4  5  1  0
  5  6  2  0
  6  7  1  0
  7  8  1  0
  8  9  2  0
  9 10  1  0
 10 11  2  0
 11 12  1  0
 12 13  1  0
 13 14  1  0
 14 15  2  0
 15 16  1  0
 16 17  2  0
 17 18  1  0
 18 19  2  0
 18 20  1  0
 20 21  1  0
 21 22  1  0
 12 23  2  0
  7 24  2  0
 24 25  1  0
 25  1  2  0
 24  4  1  0
 23  8  1  0
 19 14  1  0
 22 17  1  0
M  END
>  <Compound_ID>  (137) 
CHEMBL189455

>  <Active>  (137) 
1

>  <Smiles>  (137) 
c1cnn2ncc(-c3ccnc(Nc4ccc5c(c4)OCO5)n3)c2c1

>  <canonical_smi>  (137) 
c1cnn2ncc(-c3ccnc(Nc4ccc5c(c4)OCO5)n3)c2c1

>  <Set>  (137) 
G2 active

>  <Set_type>  (137) 
Train

>  <MW>  (137) 
332.32

>  <HBD>  (137) 
1

>  <HBA>  (137) 
7

>  <NRB>  (137) 
3

>  <NR>  (137) 
5

>  <NAR>  (137) 
4

>  <PSA>  (137) 
86.46

>  <Standard Type>  (137) 
nan

>  <Standard Relation>  (137) 
nan

>  <Standard Units>  (137) 
nan

>  <Standard Value>  (137) 
nan

>  <Assay ChEMBL ID>  (137) 
nan

>  <Assay Description>  (137) 
nan

>  <BAO Label>  (137) 
nan

$$$$

     RDKit          2D

 32 35  0  0  0  0  0  0  0  0999 V2000
    4.5000    0.0000    0.0000 N   0  0  0  0  0  0  0  0  0  0  0  0
    3.0000    0.0000    0.0000 S   0  0  0  0  0  0  0  0  0  0  0  0
    3.0000   -1.5000    0.0000 O   0  0  0  0  0  0  0  0  0  0  0  0
    3.0000    1.5000    0.0000 O   0  0  0  0  0  0  0  0  0  0  0  0
    1.5000    0.0000    0.0000 C   0  0  0  0  0  0  0  0  0  0  0  0
    0.7500   -1.2990    0.0000 C   0  0  0  0  0  0  0  0  0  0  0  0
   -0.7500   -1.2990    0.0000 C   0  0  0  0  0  0  0  0  0  0  0  0
   -1.5000    0.0000    0.0000 C   0  0  0  0  0  0  0  0  0  0  0  0
   -3.0000    0.0000    0.0000 N   0  0  0  0  0  0  0  0  0  0  0  0
   -3.7500    1.2990    0.0000 C   0  0  0  0  0  0  0  0  0  0  0  0
   -5.2418    1.4558    0.0000 C   0  0  0  0  0  0  0  0  0  0  0  0
   -5.5537    2.9231    0.0000 C   0  0  0  0  0  0  0  0  0  0  0  0
   -6.9240    3.5332    0.0000 C   0  0  0  0  0  0  0  0  0  0  0  0
   -7.0808    5.0249    0.0000 C   0  0  0  0  0  0  0  0  0  0  0  0
   -8.4511    5.6350    0.0000 C   0  0  0  0  0  0  0  0  0  0  0  0
   -9.6646    4.7534    0.0000 C   0  0  0  0  0  0  0  0  0  0  0  0
   -9.5078    3.2616    0.0000 C   0  0  0  0  0  0  0  0  0  0  0  0
  -10.7213    2.3799    0.0000 N   0  0  0  0  0  0  0  0  0  0  0  0
  -12.0917    2.9900    0.0000 S   0  0  0  0  0  0  0  0  0  0  0  0
  -11.4816    4.3603    0.0000 O   0  0  0  0  0  0  0  0  0  0  0  0
  -12.7018    1.6197    0.0000 O   0  0  0  0  0  0  0  0  0  0  0  0
  -13.4620    3.6001    0.0000 C   0  0  0  0  0  0  0  0  0  0  0  0
  -13.6188    5.0919    0.0000 C   0  0  0  0  0  0  0  0  0  0  0  0
  -14.9891    5.7020    0.0000 C   0  0  0  0  0  0  0  0  0  0  0  0
  -16.2026    4.8203    0.0000 C   0  0  0  0  0  0  0  0  0  0  0  0
  -16.0458    3.3285    0.0000 C   0  0  0  0  0  0  0  0  0  0  0  0
  -14.6755    2.7184    0.0000 C   0  0  0  0  0  0  0  0  0  0  0  0
   -8.1375    2.6515    0.0000 C   0  0  0  0  0  0  0  0  0  0  0  0
   -4.2546    3.6731    0.0000 N   0  0  0  0  0  0  0  0  0  0  0  0
   -3.1399    2.6694    0.0000 N   0  0  0  0  0  0  0  0  0  0  0  0
   -0.7500    1.2990    0.0000 C   0  0  0  0  0  0  0  0  0  0  0  0
    0.7500    1.2990    0.0000 C   0  0  0  0  0  0  0  0  0  0  0  0
  1  2  1  0
  2  3  2  0
  2  4  2  0
  2  5  1  0
  5  6  2  0
  6  7  1  0
  7  8  2  0
  8  9  1  0
  9 10  1  0
 10 11  1  0
 11 12  2  0
 12 13  1  0
 13 14  2  0
 14 15  1  0
 15 16  2  0
 16 17  1  0
 17 18  1  0
 18 19  1  0
 19 20  2  0
 19 21  2  0
 19 22  1  0
 22 23  2  0
 23 24  1  0
 24 25  2  0
 25 26  1  0
 26 27  2  0
 17 28  2  0
 12 29  1  0
 29 30  1  0
  8 31  1  0
 31 32  2  0
 32  5  1  0
 30 10  2  0
 28 13  1  0
 27 22  1  0
M  END
>  <Compound_ID>  (138) 
CHEMBL319103

>  <Active>  (138) 
1

>  <Smiles>  (138) 
NS(=O)(=O)c1ccc(Nc2cc(-c3cccc(NS(=O)(=O)c4ccccc4)c3)[nH]n2)cc1

>  <canonical_smi>  (138) 
NS(=O)(=O)c1ccc(Nc2cc(-c3cccc(NS(=O)(=O)c4ccccc4)c3)[nH]n2)cc1

>  <Set>  (138) 
G2 active

>  <Set_type>  (138) 
Train

>  <MW>  (138) 
469.55

>  <HBD>  (138) 
4

>  <HBA>  (138) 
6

>  <NRB>  (138) 
7

>  <NR>  (138) 
4

>  <NAR>  (138) 
4

>  <PSA>  (138) 
147.04

>  <Standard Type>  (138) 
nan

>  <Standard Relation>  (138) 
nan

>  <Standard Units>  (138) 
nan

>  <Standard Value>  (138) 
nan

>  <Assay ChEMBL ID>  (138) 
nan

>  <Assay Description>  (138) 
nan

>  <BAO Label>  (138) 
nan

$$$$

     RDKit          2D

 22 25  0  0  0  0  0  0  0  0999 V2000
    5.2500   -1.2990    0.0000 N   0  0  0  0  0  0  0  0  0  0  0  0
    3.7500   -1.2990    0.0000 C   0  0  0  0  0  0  0  0  0  0  0  0
    3.0000   -2.5981    0.0000 O   0  0  0  0  0  0  0  0  0  0  0  0
    3.0000    0.0000    0.0000 N   0  0  0  0  0  0  0  0  0  0  0  0
    1.5000    0.0000    0.0000 C   0  0  0  0  0  0  0  0  0  0  0  0
    0.7500   -1.2990    0.0000 C   0  0  0  0  0  0  0  0  0  0  0  0
   -0.7500   -1.2990    0.0000 C   0  0  0  0  0  0  0  0  0  0  0  0
   -1.5000    0.0000    0.0000 C   0  0  0  0  0  0  0  0  0  0  0  0
   -0.7500    1.2990    0.0000 C   0  0  0  0  0  0  0  0  0  0  0  0
    0.7500    1.2990    0.0000 C   0  0  0  0  0  0  0  0  0  0  0  0
    1.2135    2.7256    0.0000 C   0  0  0  0  0  0  0  0  0  0  0  0
    2.6401    3.1891    0.0000 O   0  0  0  0  0  0  0  0  0  0  0  0
    0.0000    3.6073    0.0000 C   0  0  0  0  0  0  0  0  0  0  0  0
   -0.4635    5.0339    0.0000 C   0  0  0  0  0  0  0  0  0  0  0  0
    0.4182    6.2474    0.0000 C   0  0  0  0  0  0  0  0  0  0  0  0
   -0.0454    7.6740    0.0000 C   0  0  0  0  0  0  0  0  0  0  0  0
    1.1682    8.5557    0.0000 C   0  0  0  0  0  0  0  0  0  0  0  0
    2.3817    7.6740    0.0000 C   0  0  0  0  0  0  0  0  0  0  0  0
    1.9182    6.2474    0.0000 S   0  0  0  0  0  0  0  0  0  0  0  0
   -1.9635    5.0339    0.0000 N   0  0  0  0  0  0  0  0  0  0  0  0
   -2.4271    3.6073    0.0000 N   0  0  0  0  0  0  0  0  0  0  0  0
   -1.2135    2.7256    0.0000 C   0  0  0  0  0  0  0  0  0  0  0  0
  1  2  1  0
  2  3  2  0
  2  4  1  0
  4  5  1  0
  5  6  2  0
  6  7  1  0
  7  8  2  0
  8  9  1  0
  9 10  2  0
 10 11  1  0
 11 12  2  0
 11 13  1  0
 13 14  1  0
 14 15  1  0
 15 16  2  0
 16 17  1  0
 17 18  2  0
 18 19  1  0
 14 20  2  0
 20 21  1  0
 21 22  1  0
 10  5  1  0
 22 13  2  0
 22  9  1  0
 19 15  1  0
M  END
>  <Compound_ID>  (139) 
CHEMBL148638

>  <Active>  (139) 
1

>  <Smiles>  (139) 
NC(=O)Nc1cccc2c1C(=O)c1c(-c3cccs3)n[nH]c1-2

>  <canonical_smi>  (139) 
NC(=O)Nc1cccc2c1C(=O)c1c(-c3cccs3)n[nH]c1-2

>  <Set>  (139) 
G2 active

>  <Set_type>  (139) 
Train

>  <MW>  (139) 
310.34

>  <HBD>  (139) 
3

>  <HBA>  (139) 
3

>  <NRB>  (139) 
2

>  <NR>  (139) 
4

>  <NAR>  (139) 
4

>  <PSA>  (139) 
100.87

>  <Standard Type>  (139) 
nan

>  <Standard Relation>  (139) 
nan

>  <Standard Units>  (139) 
nan

>  <Standard Value>  (139) 
nan

>  <Assay ChEMBL ID>  (139) 
nan

>  <Assay Description>  (139) 
nan

>  <BAO Label>  (139) 
nan

$$$$

     RDKit          2D

 33 37  0  0  0  0  0  0  0  0999 V2000
   -1.7024   10.0935    0.0000 N   0  0  0  0  0  0  0  0  0  0  0  0
   -2.0143    8.6263    0.0000 C   0  0  0  0  0  0  0  0  0  0  0  0
   -0.8995    7.6226    0.0000 C   0  0  0  0  0  0  0  0  0  0  0  0
   -1.2114    6.1554    0.0000 C   0  0  0  0  0  0  0  0  0  0  0  0
   -2.6380    5.6918    0.0000 C   0  0  0  0  0  0  0  0  0  0  0  0
   -2.9499    4.2246    0.0000 N   0  0  0  0  0  0  0  0  0  0  0  0
   -1.8351    3.2209    0.0000 C   0  0  0  0  0  0  0  0  0  0  0  0
   -0.4086    3.6844    0.0000 C   0  0  0  0  0  0  0  0  0  0  0  0
    0.7062    2.6807    0.0000 C   0  0  0  0  0  0  0  0  0  0  0  0
    2.1328    3.1443    0.0000 N   0  0  0  0  0  0  0  0  0  0  0  0
    2.4446    4.6115    0.0000 C   0  0  0  0  0  0  0  0  0  0  0  0
    3.8712    5.0750    0.0000 C   0  0  0  0  0  0  0  0  0  0  0  0
    4.1831    6.5422    0.0000 C   0  0  0  0  0  0  0  0  0  0  0  0
    3.0684    7.5459    0.0000 C   0  0  0  0  0  0  0  0  0  0  0  0
    3.3802    9.0132    0.0000 S   0  0  0  0  0  0  0  0  0  0  0  0
    4.8474    8.7013    0.0000 O   0  0  0  0  0  0  0  0  0  0  0  0
    1.9130    9.3250    0.0000 O   0  0  0  0  0  0  0  0  0  0  0  0
    3.6921   10.4804    0.0000 C   0  0  0  0  0  0  0  0  0  0  0  0
    2.6884   11.5951    0.0000 C   0  0  0  0  0  0  0  0  0  0  0  0
    3.4384   12.8941    0.0000 C   0  0  0  0  0  0  0  0  0  0  0  0
    4.9056   12.5823    0.0000 C   0  0  0  0  0  0  0  0  0  0  0  0
    5.0624   11.0905    0.0000 S   0  0  0  0  0  0  0  0  0  0  0  0
    1.6418    7.0824    0.0000 C   0  0  0  0  0  0  0  0  0  0  0  0
    1.3299    5.6152    0.0000 C   0  0  0  0  0  0  0  0  0  0  0  0
    0.3943    1.2135    0.0000 N   0  0  0  0  0  0  0  0  0  0  0  0
    1.2760    0.0000    0.0000 N   0  0  0  0  0  0  0  0  0  0  0  0
    0.3943   -1.2135    0.0000 C   0  0  0  0  0  0  0  0  0  0  0  0
   -1.0323   -0.7500    0.0000 C   0  0  0  0  0  0  0  0  0  0  0  0
   -2.2458   -1.6317    0.0000 Cl  0  0  0  0  0  0  0  0  0  0  0  0
   -1.0323    0.7500    0.0000 C   0  0  0  0  0  0  0  0  0  0  0  0
   -2.1470    1.7537    0.0000 N   0  0  0  0  0  0  0  0  0  0  0  0
   -3.7527    6.6955    0.0000 C   0  0  0  0  0  0  0  0  0  0  0  0
   -3.4408    8.1628    0.0000 C   0  0  0  0  0  0  0  0  0  0  0  0
  1  2  1  0
  2  3  1  0
  3  4  1  0
  4  5  1  0
  5  6  1  0
  6  7  1  0
  7  8  1  0
  8  9  2  0
  9 10  1  0
 10 11  1  0
 11 12  2  0
 12 13  1  0
 13 14  2  0
 14 15  1  0
 15 16  2  0
 15 17  2  0
 15 18  1  0
 18 19  2  0
 19 20  1  0
 20 21  2  0
 21 22  1  0
 14 23  1  0
 23 24  2  0
  9 25  1  0
 25 26  1  0
 26 27  2  0
 27 28  1  0
 28 29  1  0
 28 30  2  0
 30 31  1  0
  5 32  1  0
 32 33  1  0
 33  2  1  0
 31  7  2  0
 24 11  1  0
 30 25  1  0
 22 18  1  0
M  END
>  <Compound_ID>  (140) 
CHEMBL181114

>  <Active>  (140) 
1

>  <Smiles>  (140) 
NC1CCC(Nc2cc(Nc3ccc(S(=O)(=O)c4cccs4)cc3)n3ncc(Cl)c3n2)CC1

>  <canonical_smi>  (140) 
NC1CCC(Nc2cc(Nc3ccc(S(=O)(=O)c4cccs4)cc3)n3ncc(Cl)c3n2)CC1

>  <Set>  (140) 
G2 active

>  <Set_type>  (140) 
Train

>  <MW>  (140) 
503.05

>  <HBD>  (140) 
3

>  <HBA>  (140) 
7

>  <NRB>  (140) 
6

>  <NR>  (140) 
5

>  <NAR>  (140) 
4

>  <PSA>  (140) 
114.41

>  <Standard Type>  (140) 
nan

>  <Standard Relation>  (140) 
nan

>  <Standard Units>  (140) 
nan

>  <Standard Value>  (140) 
nan

>  <Assay ChEMBL ID>  (140) 
nan

>  <Assay Description>  (140) 
nan

>  <BAO Label>  (140) 
nan

$$$$

     RDKit          2D

 25 27  0  0  0  0  0  0  0  0999 V2000
   -0.7500   -3.8971    0.0000 O   0  0  0  0  0  0  0  0  0  0  0  0
    0.7500   -3.8971    0.0000 C   0  0  0  0  0  0  0  0  0  0  0  0
    1.5000   -2.5981    0.0000 N   0  0  0  0  0  0  0  0  0  0  0  0
    0.7500   -1.2990    0.0000 C   0  0  0  0  0  0  0  0  0  0  0  0
    1.5000    0.0000    0.0000 C   0  0  0  0  0  0  0  0  0  0  0  0
    0.7500    1.2990    0.0000 C   0  0  0  0  0  0  0  0  0  0  0  0
   -0.7500    1.2990    0.0000 C   0  0  0  0  0  0  0  0  0  0  0  0
   -1.5000    0.0000    0.0000 C   0  0  0  0  0  0  0  0  0  0  0  0
   -0.7500   -1.2990    0.0000 C   0  0  0  0  0  0  0  0  0  0  0  0
    1.5000   -5.1962    0.0000 C   0  0  0  0  0  0  0  0  0  0  0  0
    2.9918   -5.3529    0.0000 N   0  0  0  0  0  0  0  0  0  0  0  0
    3.3037   -6.8202    0.0000 N   0  0  0  0  0  0  0  0  0  0  0  0
    2.0046   -7.5702    0.0000 C   0  0  0  0  0  0  0  0  0  0  0  0
    0.8899   -6.5665    0.0000 C   0  0  0  0  0  0  0  0  0  0  0  0
   -0.5773   -6.8783    0.0000 N   0  0  0  0  0  0  0  0  0  0  0  0
   -1.0409   -8.3049    0.0000 C   0  0  0  0  0  0  0  0  0  0  0  0
   -0.0372   -9.4196    0.0000 O   0  0  0  0  0  0  0  0  0  0  0  0
   -2.5081   -8.6168    0.0000 C   0  0  0  0  0  0  0  0  0  0  0  0
   -3.5118   -7.5021    0.0000 C   0  0  0  0  0  0  0  0  0  0  0  0
   -3.0482   -6.0755    0.0000 F   0  0  0  0  0  0  0  0  0  0  0  0
   -4.9790   -7.8139    0.0000 C   0  0  0  0  0  0  0  0  0  0  0  0
   -5.4425   -9.2405    0.0000 C   0  0  0  0  0  0  0  0  0  0  0  0
   -4.4388  -10.3552    0.0000 C   0  0  0  0  0  0  0  0  0  0  0  0
   -2.9716  -10.0434    0.0000 C   0  0  0  0  0  0  0  0  0  0  0  0
   -1.9679  -11.1581    0.0000 F   0  0  0  0  0  0  0  0  0  0  0  0
  1  2  2  0
  2  3  1  0
  3  4  1  0
  4  5  1  0
  5  6  1  0
  6  7  1  0
  7  8  1  0
  8  9  1  0
  2 10  1  0
 10 11  2  0
 11 12  1  0
 12 13  1  0
 13 14  2  0
 14 15  1  0
 15 16  1  0
 16 17  2  0
 16 18  1  0
 18 19  2  0
 19 20  1  0
 19 21  1  0
 21 22  2  0
 22 23  1  0
 23 24  2  0
 24 25  1  0
  9  4  1  0
 14 10  1  0
 24 18  1  0
M  END
>  <Compound_ID>  (141) 
CHEMBL456963

>  <Active>  (141) 
1

>  <Smiles>  (141) 
O=C(NC1CCCCC1)c1n[nH]cc1NC(=O)c1c(F)cccc1F

>  <canonical_smi>  (141) 
O=C(NC1CCCCC1)c1n[nH]cc1NC(=O)c1c(F)cccc1F

>  <Set>  (141) 
G2 active

>  <Set_type>  (141) 
Train

>  <MW>  (141) 
348.35

>  <HBD>  (141) 
3

>  <HBA>  (141) 
3

>  <NRB>  (141) 
4

>  <NR>  (141) 
3

>  <NAR>  (141) 
2

>  <PSA>  (141) 
86.88

>  <Standard Type>  (141) 
nan

>  <Standard Relation>  (141) 
nan

>  <Standard Units>  (141) 
nan

>  <Standard Value>  (141) 
nan

>  <Assay ChEMBL ID>  (141) 
nan

>  <Assay Description>  (141) 
nan

>  <BAO Label>  (141) 
nan

$$$$

     RDKit          2D

 23 26  0  0  0  0  0  0  0  0999 V2000
   -1.5000   -5.1962    0.0000 O   0  0  0  0  0  0  0  0  0  0  0  0
   -0.7500   -3.8971    0.0000 C   0  0  0  0  0  0  0  0  0  0  0  0
    0.7500   -3.8971    0.0000 C   0  0  0  0  0  0  0  0  0  0  0  0
    1.5000   -2.5981    0.0000 C   0  0  0  0  0  0  0  0  0  0  0  0
    0.7500   -1.2990    0.0000 C   0  0  0  0  0  0  0  0  0  0  0  0
    1.5000    0.0000    0.0000 C   0  0  0  0  0  0  0  0  0  0  0  0
    0.7500    1.2990    0.0000 N   0  0  0  0  0  0  0  0  0  0  0  0
   -0.7500    1.2990    0.0000 C   0  0  0  0  0  0  0  0  0  0  0  0
   -1.5000    2.5981    0.0000 N   0  0  0  0  0  0  0  0  0  0  0  0
   -0.7500    3.8971    0.0000 C   0  0  0  0  0  0  0  0  0  0  0  0
    0.7500    3.8971    0.0000 C   0  0  0  0  0  0  0  0  0  0  0  0
    1.5000    5.1962    0.0000 C   0  0  0  0  0  0  0  0  0  0  0  0
    0.7500    6.4952    0.0000 C   0  0  0  0  0  0  0  0  0  0  0  0
   -0.7500    6.4952    0.0000 C   0  0  0  0  0  0  0  0  0  0  0  0
   -1.5000    5.1962    0.0000 C   0  0  0  0  0  0  0  0  0  0  0  0
   -1.5000    0.0000    0.0000 N   0  0  0  0  0  0  0  0  0  0  0  0
   -0.7500   -1.2990    0.0000 C   0  0  0  0  0  0  0  0  0  0  0  0
   -1.5000   -2.5981    0.0000 N   0  0  0  0  0  0  0  0  0  0  0  0
   -3.0000   -2.5981    0.0000 C   0  0  0  0  0  0  0  0  0  0  0  0
   -3.8817   -3.8116    0.0000 C   0  0  0  0  0  0  0  0  0  0  0  0
   -5.3083   -3.3481    0.0000 C   0  0  0  0  0  0  0  0  0  0  0  0
   -5.3083   -1.8481    0.0000 C   0  0  0  0  0  0  0  0  0  0  0  0
   -3.8817   -1.3846    0.0000 C   0  0  0  0  0  0  0  0  0  0  0  0
  1  2  2  0
  2  3  1  0
  3  4  2  0
  4  5  1  0
  5  6  2  0
  6  7  1  0
  7  8  2  0
  8  9  1  0
  9 10  1  0
 10 11  2  0
 11 12  1  0
 12 13  2  0
 13 14  1  0
 14 15  2  0
  8 16  1  0
 16 17  2  0
 17 18  1  0
 18 19  1  0
 19 20  1  0
 20 21  1  0
 21 22  1  0
 22 23  1  0
 18  2  1  0
 23 19  1  0
 17  5  1  0
 15 10  1  0
M  END
>  <Compound_ID>  (142) 
CHEMBL140272

>  <Active>  (142) 
1

>  <Smiles>  (142) 
O=c1ccc2cnc(Nc3ccccc3)nc2n1C1CCCC1

>  <canonical_smi>  (142) 
O=c1ccc2cnc(Nc3ccccc3)nc2n1C1CCCC1

>  <Set>  (142) 
G2 active

>  <Set_type>  (142) 
Train

>  <MW>  (142) 
306.37

>  <HBD>  (142) 
1

>  <HBA>  (142) 
4

>  <NRB>  (142) 
3

>  <NR>  (142) 
4

>  <NAR>  (142) 
3

>  <PSA>  (142) 
59.81

>  <Standard Type>  (142) 
nan

>  <Standard Relation>  (142) 
nan

>  <Standard Units>  (142) 
nan

>  <Standard Value>  (142) 
nan

>  <Assay ChEMBL ID>  (142) 
nan

>  <Assay Description>  (142) 
nan

>  <BAO Label>  (142) 
nan

$$$$

     RDKit          2D

 32 35  0  0  0  0  0  0  0  0999 V2000
  -10.0849   -6.9740    0.0000 N   0  0  0  0  0  0  0  0  0  0  0  0
   -8.6583   -6.5105    0.0000 S   0  0  0  0  0  0  0  0  0  0  0  0
   -9.1218   -5.0839    0.0000 O   0  0  0  0  0  0  0  0  0  0  0  0
   -8.1948   -7.9371    0.0000 O   0  0  0  0  0  0  0  0  0  0  0  0
   -7.2317   -6.0469    0.0000 C   0  0  0  0  0  0  0  0  0  0  0  0
   -6.9199   -4.5797    0.0000 C   0  0  0  0  0  0  0  0  0  0  0  0
   -5.4933   -4.1162    0.0000 C   0  0  0  0  0  0  0  0  0  0  0  0
   -4.3786   -5.1199    0.0000 C   0  0  0  0  0  0  0  0  0  0  0  0
   -2.9520   -4.6564    0.0000 N   0  0  0  0  0  0  0  0  0  0  0  0
   -2.6401   -3.1891    0.0000 N   0  0  0  0  0  0  0  0  0  0  0  0
   -1.2135   -2.7256    0.0000 C   0  0  0  0  0  0  0  0  0  0  0  0
   -0.0000   -3.6073    0.0000 C   0  0  0  0  0  0  0  0  0  0  0  0
    0.0000   -5.1073    0.0000 O   0  0  0  0  0  0  0  0  0  0  0  0
    1.2135   -2.7256    0.0000 N   0  0  0  0  0  0  0  0  0  0  0  0
    0.7500   -1.2990    0.0000 C   0  0  0  0  0  0  0  0  0  0  0  0
    1.5000    0.0000    0.0000 C   0  0  0  0  0  0  0  0  0  0  0  0
    0.7500    1.2990    0.0000 C   0  0  0  0  0  0  0  0  0  0  0  0
   -0.7500    1.2990    0.0000 C   0  0  0  0  0  0  0  0  0  0  0  0
   -1.5000    2.5981    0.0000 C   0  0  0  0  0  0  0  0  0  0  0  0
   -3.0000    2.5981    0.0000 O   0  0  0  0  0  0  0  0  0  0  0  0
   -0.7500    3.8971    0.0000 N   0  0  0  0  0  0  0  0  0  0  0  0
   -1.5000    5.1962    0.0000 C   0  0  0  0  0  0  0  0  0  0  0  0
   -0.7500    6.4952    0.0000 C   0  0  0  0  0  0  0  0  0  0  0  0
   -1.5000    7.7942    0.0000 C   0  0  0  0  0  0  0  0  0  0  0  0
   -2.9918    7.9510    0.0000 C   0  0  0  0  0  0  0  0  0  0  0  0
   -3.3037    9.4182    0.0000 N   0  0  0  0  0  0  0  0  0  0  0  0
   -2.0046   10.1682    0.0000 C   0  0  0  0  0  0  0  0  0  0  0  0
   -0.8899    9.1645    0.0000 N   0  0  0  0  0  0  0  0  0  0  0  0
   -1.5000    0.0000    0.0000 C   0  0  0  0  0  0  0  0  0  0  0  0
   -0.7500   -1.2990    0.0000 C   0  0  0  0  0  0  0  0  0  0  0  0
   -4.6904   -6.5871    0.0000 C   0  0  0  0  0  0  0  0  0  0  0  0
   -6.1170   -7.0506    0.0000 C   0  0  0  0  0  0  0  0  0  0  0  0
  1  2  1  0
  2  3  2  0
  2  4  2  0
  2  5  1  0
  5  6  2  0
  6  7  1  0
  7  8  2  0
  8  9  1  0
  9 10  2  3
 10 11  1  0
 11 12  2  0
 12 13  1  0
 12 14  1  0
 14 15  1  0
 15 16  2  0
 16 17  1  0
 17 18  2  0
 18 19  1  0
 19 20  2  0
 19 21  1  0
 21 22  1  0
 22 23  1  0
 23 24  1  0
 24 25  2  0
 25 26  1  0
 26 27  1  0
 27 28  2  0
 18 29  1  0
 29 30  2  0
  8 31  1  0
 31 32  2  0
 32  5  1  0
 30 11  1  0
 30 15  1  0
 28 24  1  0
M  END
>  <Compound_ID>  (143) 
CHEMBL336892

>  <Active>  (143) 
1

>  <Smiles>  (143) 
NS(=O)(=O)c1ccc(N=Nc2c(O)[nH]c3ccc(C(=O)NCCc4c[nH]cn4)cc23)cc1

>  <canonical_smi>  (143) 
NS(=O)(=O)c1ccc(N=Nc2c(O)[nH]c3ccc(C(=O)NCCc4c[nH]cn4)cc23)cc1

>  <Set>  (143) 
G2 active

>  <Set_type>  (143) 
Train

>  <MW>  (143) 
453.48

>  <HBD>  (143) 
5

>  <HBA>  (143) 
5

>  <NRB>  (143) 
7

>  <NR>  (143) 
4

>  <NAR>  (143) 
4

>  <PSA>  (143) 
178.68

>  <Standard Type>  (143) 
nan

>  <Standard Relation>  (143) 
nan

>  <Standard Units>  (143) 
nan

>  <Standard Value>  (143) 
nan

>  <Assay ChEMBL ID>  (143) 
nan

>  <Assay Description>  (143) 
nan

>  <BAO Label>  (143) 
nan

$$$$

     RDKit          2D

 32 35  0  0  0  0  0  0  0  0999 V2000
  -10.0849   -6.9740    0.0000 N   0  0  0  0  0  0  0  0  0  0  0  0
   -8.6583   -6.5105    0.0000 S   0  0  0  0  0  0  0  0  0  0  0  0
   -9.1218   -5.0839    0.0000 O   0  0  0  0  0  0  0  0  0  0  0  0
   -8.1948   -7.9371    0.0000 O   0  0  0  0  0  0  0  0  0  0  0  0
   -7.2317   -6.0469    0.0000 C   0  0  0  0  0  0  0  0  0  0  0  0
   -6.9199   -4.5797    0.0000 C   0  0  0  0  0  0  0  0  0  0  0  0
   -5.4933   -4.1162    0.0000 C   0  0  0  0  0  0  0  0  0  0  0  0
   -4.3786   -5.1199    0.0000 C   0  0  0  0  0  0  0  0  0  0  0  0
   -2.9520   -4.6564    0.0000 N   0  0  0  0  0  0  0  0  0  0  0  0
   -2.6401   -3.1891    0.0000 N   0  0  0  0  0  0  0  0  0  0  0  0
   -1.2135   -2.7256    0.0000 C   0  0  0  0  0  0  0  0  0  0  0  0
   -0.0000   -3.6073    0.0000 C   0  0  0  0  0  0  0  0  0  0  0  0
    0.0000   -5.1073    0.0000 O   0  0  0  0  0  0  0  0  0  0  0  0
    1.2135   -2.7256    0.0000 N   0  0  0  0  0  0  0  0  0  0  0  0
    0.7500   -1.2990    0.0000 C   0  0  0  0  0  0  0  0  0  0  0  0
    1.5000    0.0000    0.0000 C   0  0  0  0  0  0  0  0  0  0  0  0
    0.7500    1.2990    0.0000 C   0  0  0  0  0  0  0  0  0  0  0  0
   -0.7500    1.2990    0.0000 C   0  0  0  0  0  0  0  0  0  0  0  0
   -1.5000    2.5981    0.0000 C   0  0  0  0  0  0  0  0  0  0  0  0
   -3.0000    2.5981    0.0000 O   0  0  0  0  0  0  0  0  0  0  0  0
   -0.7500    3.8971    0.0000 N   0  0  0  0  0  0  0  0  0  0  0  0
   -1.5000    5.1962    0.0000 C   0  0  0  0  0  0  0  0  0  0  0  0
   -0.7500    6.4952    0.0000 C   0  0  0  0  0  0  0  0  0  0  0  0
   -1.5000    7.7942    0.0000 C   0  0  0  0  0  0  0  0  0  0  0  0
   -2.9918    7.9510    0.0000 C   0  0  0  0  0  0  0  0  0  0  0  0
   -3.3037    9.4182    0.0000 N   0  0  0  0  0  0  0  0  0  0  0  0
   -2.0046   10.1682    0.0000 C   0  0  0  0  0  0  0  0  0  0  0  0
   -0.8899    9.1645    0.0000 N   0  0  0  0  0  0  0  0  0  0  0  0
   -1.5000    0.0000    0.0000 C   0  0  0  0  0  0  0  0  0  0  0  0
   -0.7500   -1.2990    0.0000 C   0  0  0  0  0  0  0  0  0  0  0  0
   -4.6904   -6.5871    0.0000 C   0  0  0  0  0  0  0  0  0  0  0  0
   -6.1170   -7.0506    0.0000 C   0  0  0  0  0  0  0  0  0  0  0  0
  1  2  1  0
  2  3  2  0
  2  4  2  0
  2  5  1  0
  5  6  2  0
  6  7  1  0
  7  8  2  0
  8  9  1  0
  9 10  1  0
 10 11  2  0
 11 12  1  0
 12 13  2  0
 12 14  1  0
 14 15  1  0
 15 16  2  0
 16 17  1  0
 17 18  2  0
 18 19  1  0
 19 20  2  0
 19 21  1  0
 21 22  1  0
 22 23  1  0
 23 24  1  0
 24 25  2  0
 25 26  1  0
 26 27  1  0
 27 28  2  0
 18 29  1  0
 29 30  2  0
  8 31  1  0
 31 32  2  0
 32  5  1  0
 30 11  1  0
 30 15  1  0
 28 24  1  0
M  END
>  <Compound_ID>  (144) 
CHEMBL272028

>  <Active>  (144) 
1

>  <Smiles>  (144) 
NS(=O)(=O)c1ccc(N/N=C2\C(=O)Nc3ccc(C(=O)NCCc4c[nH]cn4)cc32)cc1

>  <canonical_smi>  (144) 
NS(=O)(=O)c1ccc(N/N=C2\C(=O)Nc3ccc(C(=O)NCCc4c[nH]cn4)cc32)cc1

>  <Set>  (144) 
G2 active

>  <Set_type>  (144) 
Train

>  <MW>  (144) 
453.48

>  <HBD>  (144) 
5

>  <HBA>  (144) 
6

>  <NRB>  (144) 
7

>  <NR>  (144) 
4

>  <NAR>  (144) 
3

>  <PSA>  (144) 
171.43

>  <Standard Type>  (144) 
nan

>  <Standard Relation>  (144) 
nan

>  <Standard Units>  (144) 
nan

>  <Standard Value>  (144) 
nan

>  <Assay ChEMBL ID>  (144) 
nan

>  <Assay Description>  (144) 
nan

>  <BAO Label>  (144) 
nan

$$$$

     RDKit          2D

 31 34  0  0  0  0  0  0  0  0999 V2000
  -10.0849   -6.9740    0.0000 N   0  0  0  0  0  0  0  0  0  0  0  0
   -8.6583   -6.5105    0.0000 S   0  0  0  0  0  0  0  0  0  0  0  0
   -9.1218   -5.0839    0.0000 O   0  0  0  0  0  0  0  0  0  0  0  0
   -8.1948   -7.9371    0.0000 O   0  0  0  0  0  0  0  0  0  0  0  0
   -7.2317   -6.0469    0.0000 C   0  0  0  0  0  0  0  0  0  0  0  0
   -6.9199   -4.5797    0.0000 C   0  0  0  0  0  0  0  0  0  0  0  0
   -5.4933   -4.1162    0.0000 C   0  0  0  0  0  0  0  0  0  0  0  0
   -4.3786   -5.1199    0.0000 C   0  0  0  0  0  0  0  0  0  0  0  0
   -2.9520   -4.6564    0.0000 N   0  0  0  0  0  0  0  0  0  0  0  0
   -2.6401   -3.1891    0.0000 N   0  0  0  0  0  0  0  0  0  0  0  0
   -1.2135   -2.7256    0.0000 C   0  0  0  0  0  0  0  0  0  0  0  0
   -0.0000   -3.6073    0.0000 C   0  0  0  0  0  0  0  0  0  0  0  0
    0.0000   -5.1073    0.0000 O   0  0  0  0  0  0  0  0  0  0  0  0
    1.2135   -2.7256    0.0000 N   0  0  0  0  0  0  0  0  0  0  0  0
    0.7500   -1.2990    0.0000 C   0  0  0  0  0  0  0  0  0  0  0  0
    1.5000    0.0000    0.0000 C   0  0  0  0  0  0  0  0  0  0  0  0
    0.7500    1.2990    0.0000 C   0  0  0  0  0  0  0  0  0  0  0  0
   -0.7500    1.2990    0.0000 C   0  0  0  0  0  0  0  0  0  0  0  0
   -1.5000    0.0000    0.0000 C   0  0  0  0  0  0  0  0  0  0  0  0
   -3.0000    0.0000    0.0000 C   0  0  0  0  0  0  0  0  0  0  0  0
   -3.7500    1.2990    0.0000 C   0  0  0  0  0  0  0  0  0  0  0  0
   -5.2500    1.2990    0.0000 C   0  0  0  0  0  0  0  0  0  0  0  0
   -6.0000    2.5981    0.0000 C   0  0  0  0  0  0  0  0  0  0  0  0
   -7.5000    2.5981    0.0000 C   0  0  0  0  0  0  0  0  0  0  0  0
   -8.2500    1.2990    0.0000 C   0  0  0  0  0  0  0  0  0  0  0  0
   -9.7500    1.2990    0.0000 O   0  0  0  0  0  0  0  0  0  0  0  0
   -7.5000    0.0000    0.0000 C   0  0  0  0  0  0  0  0  0  0  0  0
   -6.0000    0.0000    0.0000 C   0  0  0  0  0  0  0  0  0  0  0  0
   -0.7500   -1.2990    0.0000 C   0  0  0  0  0  0  0  0  0  0  0  0
   -4.6904   -6.5871    0.0000 C   0  0  0  0  0  0  0  0  0  0  0  0
   -6.1170   -7.0506    0.0000 C   0  0  0  0  0  0  0  0  0  0  0  0
  1  2  1  0
  2  3  2  0
  2  4  2  0
  2  5  1  0
  5  6  2  0
  6  7  1  0
  7  8  2  0
  8  9  1  0
  9 10  1  0
 10 11  2  0
 11 12  1  0
 12 13  2  0
 12 14  1  0
 14 15  1  0
 15 16  2  0
 16 17  1  0
 17 18  2  0
 18 19  1  0
 19 20  1  0
 20 21  1  0
 21 22  1  0
 22 23  2  0
 23 24  1  0
 24 25  2  0
 25 26  1  0
 25 27  1  0
 27 28  2  0
 19 29  2  0
  8 30  1  0
 30 31  2  0
 31  5  1  0
 29 11  1  0
 29 15  1  0
 28 22  1  0
M  END
>  <Compound_ID>  (145) 
CHEMBL411865

>  <Active>  (145) 
1

>  <Smiles>  (145) 
NS(=O)(=O)c1ccc(N/N=C2\C(=O)Nc3cccc(CCc4ccc(O)cc4)c32)cc1

>  <canonical_smi>  (145) 
NS(=O)(=O)c1ccc(N/N=C2\C(=O)Nc3cccc(CCc4ccc(O)cc4)c32)cc1

>  <Set>  (145) 
G2 active

>  <Set_type>  (145) 
Train

>  <MW>  (145) 
436.49

>  <HBD>  (145) 
4

>  <HBA>  (145) 
5

>  <NRB>  (145) 
6

>  <NR>  (145) 
4

>  <NAR>  (145) 
3

>  <PSA>  (145) 
133.88

>  <Standard Type>  (145) 
nan

>  <Standard Relation>  (145) 
nan

>  <Standard Units>  (145) 
nan

>  <Standard Value>  (145) 
nan

>  <Assay ChEMBL ID>  (145) 
nan

>  <Assay Description>  (145) 
nan

>  <BAO Label>  (145) 
nan

$$$$

     RDKit          2D

 30 34  0  0  0  0  0  0  0  0999 V2000
   -2.5565   -7.4827    0.0000 N   0  0  0  0  0  0  0  0  0  0  0  0
   -1.4418   -6.4791    0.0000 C   0  0  0  0  0  0  0  0  0  0  0  0
   -0.0152   -6.9426    0.0000 O   0  0  0  0  0  0  0  0  0  0  0  0
   -1.7537   -5.0118    0.0000 C   0  0  0  0  0  0  0  0  0  0  0  0
   -3.1240   -4.4017    0.0000 N   0  0  0  0  0  0  0  0  0  0  0  0
   -2.9672   -2.9099    0.0000 N   0  0  0  0  0  0  0  0  0  0  0  0
   -4.0819   -1.9062    0.0000 C   0  0  0  0  0  0  0  0  0  0  0  0
   -5.5085   -2.3698    0.0000 C   0  0  0  0  0  0  0  0  0  0  0  0
   -6.6232   -1.3661    0.0000 C   0  0  0  0  0  0  0  0  0  0  0  0
   -8.0498   -1.8296    0.0000 C   0  0  0  0  0  0  0  0  0  0  0  0
   -8.3617   -3.2968    0.0000 N   0  0  0  0  0  0  0  0  0  0  0  0
   -7.2470   -4.3005    0.0000 C   0  0  0  0  0  0  0  0  0  0  0  0
   -5.8204   -3.8370    0.0000 C   0  0  0  0  0  0  0  0  0  0  0  0
   -1.5000   -2.5981    0.0000 C   0  0  0  0  0  0  0  0  0  0  0  0
   -0.7500   -3.8971    0.0000 C   0  0  0  0  0  0  0  0  0  0  0  0
    0.7500   -3.8971    0.0000 C   0  0  0  0  0  0  0  0  0  0  0  0
    1.5000   -2.5981    0.0000 C   0  0  0  0  0  0  0  0  0  0  0  0
    0.7500   -1.2990    0.0000 C   0  0  0  0  0  0  0  0  0  0  0  0
    1.5000    0.0000    0.0000 C   0  0  0  0  0  0  0  0  0  0  0  0
    0.7500    1.2990    0.0000 N   0  0  0  0  0  0  0  0  0  0  0  0
   -0.7500    1.2990    0.0000 C   0  0  0  0  0  0  0  0  0  0  0  0
   -1.5000    2.5981    0.0000 N   0  0  0  0  0  0  0  0  0  0  0  0
   -0.7500    3.8971    0.0000 C   0  0  0  0  0  0  0  0  0  0  0  0
    0.7500    3.8971    0.0000 C   0  0  0  0  0  0  0  0  0  0  0  0
    1.5000    5.1962    0.0000 C   0  0  0  0  0  0  0  0  0  0  0  0
    0.7500    6.4952    0.0000 C   0  0  0  0  0  0  0  0  0  0  0  0
   -0.7500    6.4952    0.0000 C   0  0  0  0  0  0  0  0  0  0  0  0
   -1.5000    5.1962    0.0000 C   0  0  0  0  0  0  0  0  0  0  0  0
   -1.5000    0.0000    0.0000 N   0  0  0  0  0  0  0  0  0  0  0  0
   -0.7500   -1.2990    0.0000 C   0  0  0  0  0  0  0  0  0  0  0  0
  1  2  1  0
  2  3  2  0
  2  4  1  0
  4  5  2  0
  5  6  1  0
  6  7  1  0
  7  8  1  0
  8  9  1  0
  9 10  1  0
 10 11  1  0
 11 12  1  0
 12 13  1  0
  6 14  1  0
 14 15  2  0
 15 16  1  0
 16 17  1  0
 17 18  1  0
 18 19  2  0
 19 20  1  0
 20 21  2  0
 21 22  1  0
 22 23  1  0
 23 24  2  0
 24 25  1  0
 25 26  2  0
 26 27  1  0
 27 28  2  0
 21 29  1  0
 29 30  2  0
 15  4  1  0
 30 18  1  0
 13  8  1  0
 30 14  1  0
 28 23  1  0
M  END
>  <Compound_ID>  (146) 
CHEMBL1171949

>  <Active>  (146) 
1

>  <Smiles>  (146) 
NC(=O)c1nn(CC2CCNCC2)c2c1CCc1cnc(Nc3ccccc3)nc1-2

>  <canonical_smi>  (146) 
NC(=O)c1nn(CC2CCNCC2)c2c1CCc1cnc(Nc3ccccc3)nc1-2

>  <Set>  (146) 
G2 active

>  <Set_type>  (146) 
Train

>  <MW>  (146) 
403.49

>  <HBD>  (146) 
3

>  <HBA>  (146) 
6

>  <NRB>  (146) 
5

>  <NR>  (146) 
5

>  <NAR>  (146) 
3

>  <PSA>  (146) 
110.75

>  <Standard Type>  (146) 
nan

>  <Standard Relation>  (146) 
nan

>  <Standard Units>  (146) 
nan

>  <Standard Value>  (146) 
nan

>  <Assay ChEMBL ID>  (146) 
nan

>  <Assay Description>  (146) 
nan

>  <BAO Label>  (146) 
nan

$$$$

     RDKit          2D

 30 33  0  0  0  0  0  0  0  0999 V2000
   -1.5342  -12.0455    0.0000 N   0  0  0  0  0  0  0  0  0  0  0  0
   -2.9046  -11.4354    0.0000 C   0  0  0  0  0  0  0  0  0  0  0  0
   -3.0613   -9.9436    0.0000 C   0  0  0  0  0  0  0  0  0  0  0  0
   -1.8478   -9.0619    0.0000 N   0  0  0  0  0  0  0  0  0  0  0  0
   -2.0046   -7.5702    0.0000 C   0  0  0  0  0  0  0  0  0  0  0  0
   -3.3037   -6.8202    0.0000 N   0  0  0  0  0  0  0  0  0  0  0  0
   -2.9918   -5.3529    0.0000 C   0  0  0  0  0  0  0  0  0  0  0  0
   -1.5000   -5.1962    0.0000 C   0  0  0  0  0  0  0  0  0  0  0  0
   -0.7500   -3.8971    0.0000 C   0  0  0  0  0  0  0  0  0  0  0  0
    0.7500   -3.8971    0.0000 C   0  0  0  0  0  0  0  0  0  0  0  0
    1.5000   -2.5981    0.0000 C   0  0  0  0  0  0  0  0  0  0  0  0
    0.7500   -1.2990    0.0000 C   0  0  0  0  0  0  0  0  0  0  0  0
    1.5000    0.0000    0.0000 C   0  0  0  0  0  0  0  0  0  0  0  0
    0.7500    1.2990    0.0000 N   0  0  0  0  0  0  0  0  0  0  0  0
   -0.7500    1.2990    0.0000 C   0  0  0  0  0  0  0  0  0  0  0  0
   -1.5000    0.0000    0.0000 C   0  0  0  0  0  0  0  0  0  0  0  0
   -0.7500   -1.2990    0.0000 C   0  0  0  0  0  0  0  0  0  0  0  0
   -1.5000   -2.5981    0.0000 C   0  0  0  0  0  0  0  0  0  0  0  0
   -0.8899   -6.5665    0.0000 S   0  0  0  0  0  0  0  0  0  0  0  0
   -4.1181  -12.3171    0.0000 C   0  0  0  0  0  0  0  0  0  0  0  0
   -3.9613  -13.8089    0.0000 C   0  0  0  0  0  0  0  0  0  0  0  0
   -5.1748  -14.6905    0.0000 C   0  0  0  0  0  0  0  0  0  0  0  0
   -5.0180  -16.1823    0.0000 C   0  0  0  0  0  0  0  0  0  0  0  0
   -3.6477  -16.7924    0.0000 C   0  0  0  0  0  0  0  0  0  0  0  0
   -3.4909  -18.2842    0.0000 C   0  0  0  0  0  0  0  0  0  0  0  0
   -3.3341  -19.7760    0.0000 F   0  0  0  0  0  0  0  0  0  0  0  0
   -4.9827  -18.4410    0.0000 F   0  0  0  0  0  0  0  0  0  0  0  0
   -1.9991  -18.1274    0.0000 F   0  0  0  0  0  0  0  0  0  0  0  0
   -2.4342  -15.9108    0.0000 C   0  0  0  0  0  0  0  0  0  0  0  0
   -2.5910  -14.4190    0.0000 C   0  0  0  0  0  0  0  0  0  0  0  0
  2  1  1  1
  2  3  1  0
  3  4  1  0
  4  5  1  0
  5  6  2  0
  6  7  1  0
  7  8  2  0
  8  9  1  0
  9 10  2  0
 10 11  1  0
 11 12  2  0
 12 13  1  0
 13 14  2  0
 14 15  1  0
 15 16  2  0
 16 17  1  0
 17 18  2  0
  8 19  1  0
  2 20  1  0
 20 21  1  0
 21 22  2  0
 22 23  1  0
 23 24  2  0
 24 25  1  0
 25 26  1  0
 25 27  1  0
 25 28  1  0
 24 29  1  0
 29 30  2  0
 19  5  1  0
 30 21  1  0
 18  9  1  0
 17 12  1  0
M  END
>  <Compound_ID>  (147) 
CHEMBL1081263

>  <Active>  (147) 
1

>  <Smiles>  (147) 
N[C@H](CNc1ncc(-c2ccc3cnccc3c2)s1)Cc1ccc(C(F)(F)F)cc1

>  <canonical_smi>  (147) 
N[C@H](CNc1ncc(-c2ccc3cnccc3c2)s1)Cc1ccc(C(F)(F)F)cc1

>  <Set>  (147) 
G2 active

>  <Set_type>  (147) 
Train

>  <MW>  (147) 
428.48

>  <HBD>  (147) 
2

>  <HBA>  (147) 
4

>  <NRB>  (147) 
6

>  <NR>  (147) 
4

>  <NAR>  (147) 
4

>  <PSA>  (147) 
63.83

>  <Standard Type>  (147) 
nan

>  <Standard Relation>  (147) 
nan

>  <Standard Units>  (147) 
nan

>  <Standard Value>  (147) 
nan

>  <Assay ChEMBL ID>  (147) 
nan

>  <Assay Description>  (147) 
nan

>  <BAO Label>  (147) 
nan

$$$$

     RDKit          2D

 23 26  0  0  0  0  0  0  0  0999 V2000
    1.1682  -10.0557    0.0000 C   0  0  0  0  0  0  0  0  0  0  0  0
    1.1682   -8.5557    0.0000 C   0  0  0  0  0  0  0  0  0  0  0  0
    2.3817   -7.6740    0.0000 C   0  0  0  0  0  0  0  0  0  0  0  0
    1.9182   -6.2474    0.0000 C   0  0  0  0  0  0  0  0  0  0  0  0
    0.4182   -6.2474    0.0000 C   0  0  0  0  0  0  0  0  0  0  0  0
   -0.4635   -5.0339    0.0000 C   0  0  0  0  0  0  0  0  0  0  0  0
   -1.9635   -5.0339    0.0000 N   0  0  0  0  0  0  0  0  0  0  0  0
   -2.4271   -3.6073    0.0000 N   0  0  0  0  0  0  0  0  0  0  0  0
   -1.2135   -2.7256    0.0000 C   0  0  0  0  0  0  0  0  0  0  0  0
   -0.0000   -3.6073    0.0000 C   0  0  0  0  0  0  0  0  0  0  0  0
    1.2135   -2.7256    0.0000 C   0  0  0  0  0  0  0  0  0  0  0  0
    2.6401   -3.1891    0.0000 O   0  0  0  0  0  0  0  0  0  0  0  0
    0.7500   -1.2990    0.0000 C   0  0  0  0  0  0  0  0  0  0  0  0
    1.5000    0.0000    0.0000 C   0  0  0  0  0  0  0  0  0  0  0  0
    3.0000    0.0000    0.0000 N   0  0  0  0  0  0  0  0  0  0  0  0
    3.7500    1.2990    0.0000 C   0  0  0  0  0  0  0  0  0  0  0  0
    5.2500    1.2990    0.0000 N   0  0  0  0  0  0  0  0  0  0  0  0
    3.0000    2.5981    0.0000 O   0  0  0  0  0  0  0  0  0  0  0  0
    0.7500    1.2990    0.0000 C   0  0  0  0  0  0  0  0  0  0  0  0
   -0.7500    1.2990    0.0000 C   0  0  0  0  0  0  0  0  0  0  0  0
   -1.5000    0.0000    0.0000 C   0  0  0  0  0  0  0  0  0  0  0  0
   -0.7500   -1.2990    0.0000 C   0  0  0  0  0  0  0  0  0  0  0  0
   -0.0454   -7.6740    0.0000 S   0  0  0  0  0  0  0  0  0  0  0  0
  1  2  1  0
  2  3  2  0
  3  4  1  0
  4  5  2  0
  5  6  1  0
  6  7  1  0
  7  8  1  0
  8  9  2  0
  9 10  1  0
 10 11  1  0
 11 12  2  0
 11 13  1  0
 13 14  2  0
 14 15  1  0
 15 16  1  0
 16 17  1  0
 16 18  2  0
 14 19  1  0
 19 20  2  0
 20 21  1  0
 21 22  2  0
  5 23  1  0
 23  2  1  0
 10  6  2  0
 22 13  1  0
 22  9  1  0
M  END
>  <Compound_ID>  (148) 
CHEMBL149096

>  <Active>  (148) 
1

>  <Smiles>  (148) 
Cc1ccc(-c2[nH]nc3c2C(=O)c2c(NC(N)=O)cccc2-3)s1

>  <canonical_smi>  (148) 
Cc1ccc(-c2[nH]nc3c2C(=O)c2c(NC(N)=O)cccc2-3)s1

>  <Set>  (148) 
G2 active

>  <Set_type>  (148) 
Train

>  <MW>  (148) 
324.37

>  <HBD>  (148) 
3

>  <HBA>  (148) 
3

>  <NRB>  (148) 
2

>  <NR>  (148) 
4

>  <NAR>  (148) 
4

>  <PSA>  (148) 
100.87

>  <Standard Type>  (148) 
nan

>  <Standard Relation>  (148) 
nan

>  <Standard Units>  (148) 
nan

>  <Standard Value>  (148) 
nan

>  <Assay ChEMBL ID>  (148) 
nan

>  <Assay Description>  (148) 
nan

>  <BAO Label>  (148) 
nan

$$$$

     RDKit          2D

 31 35  0  0  0  0  0  0  0  0999 V2000
   -8.1244   -6.0395    0.0000 C   0  0  0  0  0  0  0  0  0  0  0  0
   -6.8254   -5.2895    0.0000 C   0  0  0  0  0  0  0  0  0  0  0  0
   -5.4550   -5.8996    0.0000 N   0  0  0  0  0  0  0  0  0  0  0  0
   -4.4513   -4.7849    0.0000 C   0  0  0  0  0  0  0  0  0  0  0  0
   -2.9596   -4.9417    0.0000 C   0  0  0  0  0  0  0  0  0  0  0  0
   -5.2013   -3.4858    0.0000 C   0  0  0  0  0  0  0  0  0  0  0  0
   -4.5912   -2.1155    0.0000 C   0  0  0  0  0  0  0  0  0  0  0  0
   -5.3412   -0.8165    0.0000 N   0  0  0  0  0  0  0  0  0  0  0  0
   -4.3375    0.2982    0.0000 N   0  0  0  0  0  0  0  0  0  0  0  0
   -2.9672   -0.3119    0.0000 C   0  0  0  0  0  0  0  0  0  0  0  0
   -3.1240   -1.8037    0.0000 C   0  0  0  0  0  0  0  0  0  0  0  0
   -1.7537   -2.4138    0.0000 C   0  0  0  0  0  0  0  0  0  0  0  0
   -1.4418   -3.8810    0.0000 O   0  0  0  0  0  0  0  0  0  0  0  0
   -0.7500   -1.2990    0.0000 C   0  0  0  0  0  0  0  0  0  0  0  0
    0.7500   -1.2990    0.0000 C   0  0  0  0  0  0  0  0  0  0  0  0
    1.5000   -2.5981    0.0000 N   0  0  0  0  0  0  0  0  0  0  0  0
    3.0000   -2.5981    0.0000 C   0  0  0  0  0  0  0  0  0  0  0  0
    3.7500   -1.2990    0.0000 O   0  0  0  0  0  0  0  0  0  0  0  0
    3.7500   -3.8971    0.0000 N   0  0  0  0  0  0  0  0  0  0  0  0
    5.2500   -3.8971    0.0000 N   0  0  0  0  0  0  0  0  0  0  0  0
    6.0000   -5.1962    0.0000 C   0  0  0  0  0  0  0  0  0  0  0  0
    7.5000   -5.1962    0.0000 C   0  0  0  0  0  0  0  0  0  0  0  0
    8.2500   -3.8971    0.0000 N   0  0  0  0  0  0  0  0  0  0  0  0
    9.7500   -3.8971    0.0000 C   0  0  0  0  0  0  0  0  0  0  0  0
    7.5000   -2.5981    0.0000 C   0  0  0  0  0  0  0  0  0  0  0  0
    6.0000   -2.5981    0.0000 C   0  0  0  0  0  0  0  0  0  0  0  0
    1.5000    0.0000    0.0000 C   0  0  0  0  0  0  0  0  0  0  0  0
    0.7500    1.2990    0.0000 C   0  0  0  0  0  0  0  0  0  0  0  0
   -0.7500    1.2990    0.0000 C   0  0  0  0  0  0  0  0  0  0  0  0
   -1.5000    0.0000    0.0000 C   0  0  0  0  0  0  0  0  0  0  0  0
   -6.6686   -3.7977    0.0000 S   0  0  0  0  0  0  0  0  0  0  0  0
  1  2  1  0
  2  3  2  0
  3  4  1  0
  4  5  1  0
  4  6  2  0
  6  7  1  0
  7  8  2  0
  8  9  1  0
  9 10  1  0
 10 11  2  0
 11 12  1  0
 12 13  2  0
 12 14  1  0
 14 15  2  0
 15 16  1  0
 16 17  1  0
 17 18  2  0
 17 19  1  0
 19 20  1  0
 20 21  1  0
 21 22  1  0
 22 23  1  0
 23 24  1  0
 23 25  1  0
 25 26  1  0
 15 27  1  0
 27 28  2  0
 28 29  1  0
 29 30  2  0
  6 31  1  0
 31  2  1  0
 11  7  1  0
 30 14  1  0
 30 10  1  0
 26 20  1  0
M  END
>  <Compound_ID>  (149) 
CHEMBL325023

>  <Active>  (149) 
1

>  <Smiles>  (149) 
Cc1nc(C)c(-c2n[nH]c3c2C(=O)c2c(NC(=O)NN4CCN(C)CC4)cccc2-3)s1

>  <canonical_smi>  (149) 
Cc1nc(C)c(-c2n[nH]c3c2C(=O)c2c(NC(=O)NN4CCN(C)CC4)cccc2-3)s1

>  <Set>  (149) 
G2 active

>  <Set_type>  (149) 
Train

>  <MW>  (149) 
437.53

>  <HBD>  (149) 
3

>  <HBA>  (149) 
6

>  <NRB>  (149) 
3

>  <NR>  (149) 
5

>  <NAR>  (149) 
4

>  <PSA>  (149) 
106.25

>  <Standard Type>  (149) 
nan

>  <Standard Relation>  (149) 
nan

>  <Standard Units>  (149) 
nan

>  <Standard Value>  (149) 
nan

>  <Assay ChEMBL ID>  (149) 
nan

>  <Assay Description>  (149) 
nan

>  <BAO Label>  (149) 
nan

$$$$

     RDKit          2D

 26 29  0  0  0  0  0  0  0  0999 V2000
    0.7500   -3.8971    0.0000 C   0  0  0  0  0  0  0  0  0  0  0  0
    1.5000   -2.5981    0.0000 C   0  0  0  0  0  0  0  0  0  0  0  0
    3.0000   -2.5981    0.0000 C   0  0  0  0  0  0  0  0  0  0  0  0
    3.7500   -1.2990    0.0000 O   0  0  0  0  0  0  0  0  0  0  0  0
    3.7500   -3.8971    0.0000 N   0  0  0  0  0  0  0  0  0  0  0  0
    5.2500   -3.8971    0.0000 C   0  0  0  0  0  0  0  0  0  0  0  0
    6.1317   -2.6836    0.0000 C   0  0  0  0  0  0  0  0  0  0  0  0
    7.5583   -3.1471    0.0000 C   0  0  0  0  0  0  0  0  0  0  0  0
    8.7718   -2.2654    0.0000 C   0  0  0  0  0  0  0  0  0  0  0  0
    9.3819   -0.8951    0.0000 C   0  0  0  0  0  0  0  0  0  0  0  0
   10.2636   -2.1086    0.0000 C   0  0  0  0  0  0  0  0  0  0  0  0
    7.5583   -4.6471    0.0000 N   0  0  0  0  0  0  0  0  0  0  0  0
    6.1317   -5.1106    0.0000 N   0  0  0  0  0  0  0  0  0  0  0  0
    0.7500   -1.2990    0.0000 C   0  0  0  0  0  0  0  0  0  0  0  0
    1.5000    0.0000    0.0000 C   0  0  0  0  0  0  0  0  0  0  0  0
    0.7500    1.2990    0.0000 C   0  0  0  0  0  0  0  0  0  0  0  0
   -0.7500    1.2990    0.0000 C   0  0  0  0  0  0  0  0  0  0  0  0
   -1.5000    2.5981    0.0000 N   0  0  0  0  0  0  0  0  0  0  0  0
   -2.9918    2.7549    0.0000 C   0  0  0  0  0  0  0  0  0  0  0  0
   -3.3037    4.2221    0.0000 C   0  0  0  0  0  0  0  0  0  0  0  0
   -2.0046    4.9721    0.0000 C   0  0  0  0  0  0  0  0  0  0  0  0
   -0.8899    3.9684    0.0000 S   0  0  0  0  0  0  0  0  0  0  0  0
   -0.0082    5.1819    0.0000 O   0  0  0  0  0  0  0  0  0  0  0  0
    0.4091    3.2184    0.0000 O   0  0  0  0  0  0  0  0  0  0  0  0
   -1.5000    0.0000    0.0000 C   0  0  0  0  0  0  0  0  0  0  0  0
   -0.7500   -1.2990    0.0000 C   0  0  0  0  0  0  0  0  0  0  0  0
  1  2  1  0
  2  3  1  0
  3  4  2  0
  3  5  1  0
  5  6  1  0
  6  7  1  0
  7  8  2  0
  8  9  1  0
  9 10  1  0
 10 11  1  0
  8 12  1  0
 12 13  1  0
  2 14  1  0
 14 15  2  0
 15 16  1  0
 16 17  2  0
 17 18  1  0
 18 19  1  0
 19 20  1  0
 20 21  1  0
 21 22  1  0
 22 23  2  0
 22 24  2  0
 17 25  1  0
 25 26  2  0
 13  6  2  0
 26 14  1  0
 11  9  1  0
 22 18  1  0
M  END
>  <Compound_ID>  (150) 
CHEMBL370724

>  <Active>  (150) 
1

>  <Smiles>  (150) 
CC(C(=O)Nc1cc(C2CC2)[nH]n1)c1ccc(N2CCCS2(=O)=O)cc1

>  <canonical_smi>  (150) 
CC(C(=O)Nc1cc(C2CC2)[nH]n1)c1ccc(N2CCCS2(=O)=O)cc1

>  <Set>  (150) 
G2 active

>  <Set_type>  (150) 
Train

>  <MW>  (150) 
374.47

>  <HBD>  (150) 
2

>  <HBA>  (150) 
4

>  <NRB>  (150) 
5

>  <NR>  (150) 
4

>  <NAR>  (150) 
2

>  <PSA>  (150) 
95.16

>  <Standard Type>  (150) 
nan

>  <Standard Relation>  (150) 
nan

>  <Standard Units>  (150) 
nan

>  <Standard Value>  (150) 
nan

>  <Assay ChEMBL ID>  (150) 
nan

>  <Assay Description>  (150) 
nan

>  <BAO Label>  (150) 
nan

$$$$

     RDKit          2D

 29 32  0  0  0  0  0  0  0  0999 V2000
  -10.0849   -6.9740    0.0000 N   0  0  0  0  0  0  0  0  0  0  0  0
   -8.6583   -6.5105    0.0000 S   0  0  0  0  0  0  0  0  0  0  0  0
   -9.1218   -5.0839    0.0000 O   0  0  0  0  0  0  0  0  0  0  0  0
   -8.1948   -7.9371    0.0000 O   0  0  0  0  0  0  0  0  0  0  0  0
   -7.2317   -6.0469    0.0000 C   0  0  0  0  0  0  0  0  0  0  0  0
   -6.9199   -4.5797    0.0000 C   0  0  0  0  0  0  0  0  0  0  0  0
   -5.4933   -4.1162    0.0000 C   0  0  0  0  0  0  0  0  0  0  0  0
   -4.3786   -5.1199    0.0000 C   0  0  0  0  0  0  0  0  0  0  0  0
   -2.9520   -4.6564    0.0000 N   0  0  0  0  0  0  0  0  0  0  0  0
   -2.6401   -3.1891    0.0000 N   0  0  0  0  0  0  0  0  0  0  0  0
   -1.2135   -2.7256    0.0000 C   0  0  0  0  0  0  0  0  0  0  0  0
   -0.0000   -3.6073    0.0000 C   0  0  0  0  0  0  0  0  0  0  0  0
    0.0000   -5.1073    0.0000 O   0  0  0  0  0  0  0  0  0  0  0  0
    1.2135   -2.7256    0.0000 N   0  0  0  0  0  0  0  0  0  0  0  0
    0.7500   -1.2990    0.0000 C   0  0  0  0  0  0  0  0  0  0  0  0
    1.5000    0.0000    0.0000 C   0  0  0  0  0  0  0  0  0  0  0  0
    0.7500    1.2990    0.0000 C   0  0  0  0  0  0  0  0  0  0  0  0
   -0.7500    1.2990    0.0000 C   0  0  0  0  0  0  0  0  0  0  0  0
   -1.5000    0.0000    0.0000 C   0  0  0  0  0  0  0  0  0  0  0  0
   -3.0000    0.0000    0.0000 O   0  0  0  0  0  0  0  0  0  0  0  0
   -3.7500    1.2990    0.0000 C   0  0  0  0  0  0  0  0  0  0  0  0
   -3.0000    2.5981    0.0000 C   0  0  0  0  0  0  0  0  0  0  0  0
   -3.7500    3.8971    0.0000 C   0  0  0  0  0  0  0  0  0  0  0  0
   -5.2500    3.8971    0.0000 C   0  0  0  0  0  0  0  0  0  0  0  0
   -6.0000    2.5981    0.0000 C   0  0  0  0  0  0  0  0  0  0  0  0
   -5.2500    1.2990    0.0000 C   0  0  0  0  0  0  0  0  0  0  0  0
   -0.7500   -1.2990    0.0000 C   0  0  0  0  0  0  0  0  0  0  0  0
   -4.6904   -6.5871    0.0000 C   0  0  0  0  0  0  0  0  0  0  0  0
   -6.1170   -7.0506    0.0000 C   0  0  0  0  0  0  0  0  0  0  0  0
  1  2  1  0
  2  3  2  0
  2  4  2  0
  2  5  1  0
  5  6  2  0
  6  7  1  0
  7  8  2  0
  8  9  1  0
  9 10  2  3
 10 11  1  0
 11 12  2  0
 12 13  1  0
 12 14  1  0
 14 15  1  0
 15 16  2  0
 16 17  1  0
 17 18  2  0
 18 19  1  0
 19 20  1  0
 20 21  1  0
 21 22  2  0
 22 23  1  0
 23 24  2  0
 24 25  1  0
 25 26  2  0
 19 27  2  0
  8 28  1  0
 28 29  2  0
 29  5  1  0
 27 11  1  0
 27 15  1  0
 26 21  1  0
M  END
>  <Compound_ID>  (151) 
CHEMBL87735

>  <Active>  (151) 
1

>  <Smiles>  (151) 
NS(=O)(=O)c1ccc(N=Nc2c(O)[nH]c3cccc(Oc4ccccc4)c23)cc1

>  <canonical_smi>  (151) 
NS(=O)(=O)c1ccc(N=Nc2c(O)[nH]c3cccc(Oc4ccccc4)c23)cc1

>  <Set>  (151) 
G2 active

>  <Set_type>  (151) 
Train

>  <MW>  (151) 
408.44

>  <HBD>  (151) 
3

>  <HBA>  (151) 
4

>  <NRB>  (151) 
5

>  <NR>  (151) 
4

>  <NAR>  (151) 
4

>  <PSA>  (151) 
130.13

>  <Standard Type>  (151) 
nan

>  <Standard Relation>  (151) 
nan

>  <Standard Units>  (151) 
nan

>  <Standard Value>  (151) 
nan

>  <Assay ChEMBL ID>  (151) 
nan

>  <Assay Description>  (151) 
nan

>  <BAO Label>  (151) 
nan

$$$$

     RDKit          2D

 29 32  0  0  0  0  0  0  0  0999 V2000
  -10.0849   -6.9740    0.0000 N   0  0  0  0  0  0  0  0  0  0  0  0
   -8.6583   -6.5105    0.0000 S   0  0  0  0  0  0  0  0  0  0  0  0
   -9.1218   -5.0839    0.0000 O   0  0  0  0  0  0  0  0  0  0  0  0
   -8.1948   -7.9371    0.0000 O   0  0  0  0  0  0  0  0  0  0  0  0
   -7.2317   -6.0469    0.0000 C   0  0  0  0  0  0  0  0  0  0  0  0
   -6.9199   -4.5797    0.0000 C   0  0  0  0  0  0  0  0  0  0  0  0
   -5.4933   -4.1162    0.0000 C   0  0  0  0  0  0  0  0  0  0  0  0
   -4.3786   -5.1199    0.0000 C   0  0  0  0  0  0  0  0  0  0  0  0
   -2.9520   -4.6564    0.0000 N   0  0  0  0  0  0  0  0  0  0  0  0
   -2.6401   -3.1891    0.0000 N   0  0  0  0  0  0  0  0  0  0  0  0
   -1.2135   -2.7256    0.0000 C   0  0  0  0  0  0  0  0  0  0  0  0
   -0.0000   -3.6073    0.0000 C   0  0  0  0  0  0  0  0  0  0  0  0
    0.0000   -5.1073    0.0000 O   0  0  0  0  0  0  0  0  0  0  0  0
    1.2135   -2.7256    0.0000 N   0  0  0  0  0  0  0  0  0  0  0  0
    0.7500   -1.2990    0.0000 C   0  0  0  0  0  0  0  0  0  0  0  0
    1.5000    0.0000    0.0000 C   0  0  0  0  0  0  0  0  0  0  0  0
    0.7500    1.2990    0.0000 C   0  0  0  0  0  0  0  0  0  0  0  0
   -0.7500    1.2990    0.0000 C   0  0  0  0  0  0  0  0  0  0  0  0
   -1.5000    0.0000    0.0000 C   0  0  0  0  0  0  0  0  0  0  0  0
   -3.0000    0.0000    0.0000 O   0  0  0  0  0  0  0  0  0  0  0  0
   -3.7500    1.2990    0.0000 C   0  0  0  0  0  0  0  0  0  0  0  0
   -3.0000    2.5981    0.0000 C   0  0  0  0  0  0  0  0  0  0  0  0
   -3.7500    3.8971    0.0000 C   0  0  0  0  0  0  0  0  0  0  0  0
   -5.2500    3.8971    0.0000 C   0  0  0  0  0  0  0  0  0  0  0  0
   -6.0000    2.5981    0.0000 C   0  0  0  0  0  0  0  0  0  0  0  0
   -5.2500    1.2990    0.0000 C   0  0  0  0  0  0  0  0  0  0  0  0
   -0.7500   -1.2990    0.0000 C   0  0  0  0  0  0  0  0  0  0  0  0
   -4.6904   -6.5871    0.0000 C   0  0  0  0  0  0  0  0  0  0  0  0
   -6.1170   -7.0506    0.0000 C   0  0  0  0  0  0  0  0  0  0  0  0
  1  2  1  0
  2  3  2  0
  2  4  2  0
  2  5  1  0
  5  6  2  0
  6  7  1  0
  7  8  2  0
  8  9  1  0
  9 10  1  0
 10 11  2  0
 11 12  1  0
 12 13  2  0
 12 14  1  0
 14 15  1  0
 15 16  2  0
 16 17  1  0
 17 18  2  0
 18 19  1  0
 19 20  1  0
 20 21  1  0
 21 22  2  0
 22 23  1  0
 23 24  2  0
 24 25  1  0
 25 26  2  0
 19 27  2  0
  8 28  1  0
 28 29  2  0
 29  5  1  0
 27 11  1  0
 27 15  1  0
 26 21  1  0
M  END
>  <Compound_ID>  (152) 
CHEMBL409104

>  <Active>  (152) 
1

>  <Smiles>  (152) 
NS(=O)(=O)c1ccc(N/N=C2\C(=O)Nc3cccc(Oc4ccccc4)c32)cc1

>  <canonical_smi>  (152) 
NS(=O)(=O)c1ccc(N/N=C2\C(=O)Nc3cccc(Oc4ccccc4)c32)cc1

>  <Set>  (152) 
G2 active

>  <Set_type>  (152) 
Train

>  <MW>  (152) 
408.44

>  <HBD>  (152) 
3

>  <HBA>  (152) 
5

>  <NRB>  (152) 
5

>  <NR>  (152) 
4

>  <NAR>  (152) 
3

>  <PSA>  (152) 
122.88

>  <Standard Type>  (152) 
nan

>  <Standard Relation>  (152) 
nan

>  <Standard Units>  (152) 
nan

>  <Standard Value>  (152) 
nan

>  <Assay ChEMBL ID>  (152) 
nan

>  <Assay Description>  (152) 
nan

>  <BAO Label>  (152) 
nan

$$$$

     RDKit          2D

 31 34  0  0  0  0  0  0  0  0999 V2000
    1.8478   -6.4639    0.0000 C   0  0  0  0  0  0  0  0  0  0  0  0
    2.0046   -4.9721    0.0000 C   0  0  0  0  0  0  0  0  0  0  0  0
    3.3037   -4.2221    0.0000 N   0  0  0  0  0  0  0  0  0  0  0  0
    2.9918   -2.7549    0.0000 C   0  0  0  0  0  0  0  0  0  0  0  0
    1.5000   -2.5981    0.0000 C   0  0  0  0  0  0  0  0  0  0  0  0
    0.7500   -1.2990    0.0000 C   0  0  0  0  0  0  0  0  0  0  0  0
    1.5000    0.0000    0.0000 C   0  0  0  0  0  0  0  0  0  0  0  0
    0.7500    1.2990    0.0000 C   0  0  0  0  0  0  0  0  0  0  0  0
   -0.7500    1.2990    0.0000 N   0  0  0  0  0  0  0  0  0  0  0  0
   -1.5000    0.0000    0.0000 C   0  0  0  0  0  0  0  0  0  0  0  0
   -3.0000    0.0000    0.0000 N   0  0  0  0  0  0  0  0  0  0  0  0
   -3.7500    1.2990    0.0000 C   0  0  0  0  0  0  0  0  0  0  0  0
   -3.0000    2.5981    0.0000 C   0  0  0  0  0  0  0  0  0  0  0  0
   -3.7500    3.8971    0.0000 C   0  0  0  0  0  0  0  0  0  0  0  0
   -5.2500    3.8971    0.0000 C   0  0  0  0  0  0  0  0  0  0  0  0
   -6.0000    5.1962    0.0000 S   0  0  0  0  0  0  0  0  0  0  0  0
   -7.2990    4.4462    0.0000 O   0  0  0  0  0  0  0  0  0  0  0  0
   -4.7010    5.9462    0.0000 O   0  0  0  0  0  0  0  0  0  0  0  0
   -6.7500    6.4952    0.0000 C   0  0  0  0  0  0  0  0  0  0  0  0
   -8.2500    6.4952    0.0000 C   0  0  0  0  0  0  0  0  0  0  0  0
   -9.1317    5.2817    0.0000 C   0  0  0  0  0  0  0  0  0  0  0  0
  -10.5583    5.7452    0.0000 C   0  0  0  0  0  0  0  0  0  0  0  0
  -10.5583    7.2452    0.0000 C   0  0  0  0  0  0  0  0  0  0  0  0
   -9.1317    7.7087    0.0000 O   0  0  0  0  0  0  0  0  0  0  0  0
   -6.0000    2.5981    0.0000 C   0  0  0  0  0  0  0  0  0  0  0  0
   -5.2500    1.2990    0.0000 C   0  0  0  0  0  0  0  0  0  0  0  0
   -0.7500   -1.2990    0.0000 N   0  0  0  0  0  0  0  0  0  0  0  0
    0.8899   -3.9684    0.0000 N   0  0  0  0  0  0  0  0  0  0  0  0
   -0.5773   -4.2803    0.0000 C   0  0  0  0  0  0  0  0  0  0  0  0
   -1.0409   -5.7068    0.0000 C   0  0  0  0  0  0  0  0  0  0  0  0
   -1.5810   -3.1655    0.0000 C   0  0  0  0  0  0  0  0  0  0  0  0
  1  2  1  0
  2  3  2  0
  3  4  1  0
  4  5  2  0
  5  6  1  0
  6  7  2  0
  7  8  1  0
  8  9  2  0
  9 10  1  0
 10 11  1  0
 11 12  1  0
 12 13  2  0
 13 14  1  0
 14 15  2  0
 15 16  1  0
 16 17  2  0
 16 18  2  0
 16 19  1  0
 19 20  1  0
 20 21  1  0
 21 22  1  0
 22 23  1  0
 23 24  1  0
 15 25  1  0
 25 26  2  0
 10 27  2  0
  5 28  1  0
 28 29  1  0
 29 30  1  0
 29 31  1  0
 28  2  1  0
 27  6  1  0
 26 12  1  0
 24 20  1  0
M  END
>  <Compound_ID>  (153) 
CHEMBL515839

>  <Active>  (153) 
1

>  <Smiles>  (153) 
Cc1ncc(-c2ccnc(Nc3ccc(S(=O)(=O)CC4CCCO4)cc3)n2)n1C(C)C

>  <canonical_smi>  (153) 
Cc1ncc(-c2ccnc(Nc3ccc(S(=O)(=O)CC4CCCO4)cc3)n2)n1C(C)C

>  <Set>  (153) 
G2 active

>  <Set_type>  (153) 
Train

>  <MW>  (153) 
441.56

>  <HBD>  (153) 
1

>  <HBA>  (153) 
7

>  <NRB>  (153) 
7

>  <NR>  (153) 
4

>  <NAR>  (153) 
3

>  <PSA>  (153) 
99.0

>  <Standard Type>  (153) 
nan

>  <Standard Relation>  (153) 
nan

>  <Standard Units>  (153) 
nan

>  <Standard Value>  (153) 
nan

>  <Assay ChEMBL ID>  (153) 
nan

>  <Assay Description>  (153) 
nan

>  <BAO Label>  (153) 
nan

$$$$

     RDKit          2D

 26 30  0  0  0  0  0  0  0  0999 V2000
  -10.9763   -5.5304    0.0000 O   0  0  0  0  0  0  0  0  0  0  0  0
  -10.5128   -4.1039    0.0000 S   0  0  0  0  0  0  0  0  0  0  0  0
  -11.9800   -3.7920    0.0000 O   0  0  0  0  0  0  0  0  0  0  0  0
   -9.1425   -4.7140    0.0000 C   0  0  0  0  0  0  0  0  0  0  0  0
   -8.1388   -3.5992    0.0000 C   0  0  0  0  0  0  0  0  0  0  0  0
   -6.6388   -3.5992    0.0000 C   0  0  0  0  0  0  0  0  0  0  0  0
   -5.8888   -2.3002    0.0000 C   0  0  0  0  0  0  0  0  0  0  0  0
   -6.6388   -1.0012    0.0000 C   0  0  0  0  0  0  0  0  0  0  0  0
   -5.8888    0.2979    0.0000 N   0  0  0  0  0  0  0  0  0  0  0  0
   -4.3888    0.2979    0.0000 C   0  0  0  0  0  0  0  0  0  0  0  0
   -3.6388    1.5969    0.0000 C   0  0  0  0  0  0  0  0  0  0  0  0
   -4.2489    2.9672    0.0000 C   0  0  0  0  0  0  0  0  0  0  0  0
   -5.7161    3.2791    0.0000 O   0  0  0  0  0  0  0  0  0  0  0  0
   -3.1342    3.9709    0.0000 N   0  0  0  0  0  0  0  0  0  0  0  0
   -1.8351    3.2209    0.0000 C   0  0  0  0  0  0  0  0  0  0  0  0
   -0.4086    3.6844    0.0000 C   0  0  0  0  0  0  0  0  0  0  0  0
    0.7062    2.6807    0.0000 C   0  0  0  0  0  0  0  0  0  0  0  0
    0.3943    1.2135    0.0000 C   0  0  0  0  0  0  0  0  0  0  0  0
    1.2760    0.0000    0.0000 N   0  0  0  0  0  0  0  0  0  0  0  0
    0.3943   -1.2135    0.0000 C   0  0  0  0  0  0  0  0  0  0  0  0
   -1.0323   -0.7500    0.0000 S   0  0  0  0  0  0  0  0  0  0  0  0
   -1.0323    0.7500    0.0000 C   0  0  0  0  0  0  0  0  0  0  0  0
   -2.1470    1.7537    0.0000 C   0  0  0  0  0  0  0  0  0  0  0  0
   -8.1388   -1.0012    0.0000 C   0  0  0  0  0  0  0  0  0  0  0  0
   -8.8888   -2.3002    0.0000 C   0  0  0  0  0  0  0  0  0  0  0  0
  -10.3560   -2.6121    0.0000 C   0  0  0  0  0  0  0  0  0  0  0  0
  1  2  2  0
  2  3  2  0
  2  4  1  0
  4  5  1  0
  5  6  2  0
  6  7  1  0
  7  8  2  0
  8  9  1  0
  9 10  2  0
 10 11  1  0
 11 12  2  0
 12 13  1  0
 12 14  1  0
 14 15  1  0
 15 16  2  0
 16 17  1  0
 17 18  2  0
 18 19  1  0
 19 20  2  0
 20 21  1  0
 21 22  1  0
 22 23  2  0
  8 24  1  0
 24 25  2  0
 25 26  1  0
 26  2  1  0
 25  5  1  0
 23 11  1  0
 23 15  1  0
 22 18  1  0
M  END
>  <Compound_ID>  (154) 
CHEMBL336016

>  <Active>  (154) 
1

>  <Smiles>  (154) 
O=S1(=O)Cc2ccc(/N=C/c3c(O)[nH]c4ccc5ncsc5c34)cc2C1

>  <canonical_smi>  (154) 
O=S1(=O)Cc2ccc(/N=C/c3c(O)[nH]c4ccc5ncsc5c34)cc2C1

>  <Set>  (154) 
G2 active

>  <Set_type>  (154) 
Train

>  <MW>  (154) 
383.45

>  <HBD>  (154) 
2

>  <HBA>  (154) 
4

>  <NRB>  (154) 
2

>  <NR>  (154) 
5

>  <NAR>  (154) 
4

>  <PSA>  (154) 
95.41

>  <Standard Type>  (154) 
nan

>  <Standard Relation>  (154) 
nan

>  <Standard Units>  (154) 
nan

>  <Standard Value>  (154) 
nan

>  <Assay ChEMBL ID>  (154) 
nan

>  <Assay Description>  (154) 
nan

>  <BAO Label>  (154) 
nan

$$$$

     RDKit          2D

 32 36  0  0  0  0  0  0  0  0999 V2000
   -1.8373   -5.6601    0.0000 O   0  0  0  0  0  0  0  0  0  0  0  0
   -2.9520   -4.6564    0.0000 C   0  0  0  0  0  0  0  0  0  0  0  0
   -4.3786   -5.1199    0.0000 C   0  0  0  0  0  0  0  0  0  0  0  0
   -4.6904   -6.5871    0.0000 C   0  0  0  0  0  0  0  0  0  0  0  0
   -6.1170   -7.0506    0.0000 C   0  0  0  0  0  0  0  0  0  0  0  0
   -6.4289   -8.5179    0.0000 C   0  0  0  0  0  0  0  0  0  0  0  0
   -5.3142   -9.5216    0.0000 C   0  0  0  0  0  0  0  0  0  0  0  0
   -5.6260  -10.9888    0.0000 C   0  0  0  0  0  0  0  0  0  0  0  0
   -7.0526  -11.4523    0.0000 C   0  0  0  0  0  0  0  0  0  0  0  0
   -7.3645  -12.9195    0.0000 C   0  0  0  0  0  0  0  0  0  0  0  0
   -6.2498  -13.9232    0.0000 C   0  0  0  0  0  0  0  0  0  0  0  0
   -4.8232  -13.4597    0.0000 C   0  0  0  0  0  0  0  0  0  0  0  0
   -4.5113  -11.9925    0.0000 C   0  0  0  0  0  0  0  0  0  0  0  0
   -3.8876   -9.0580    0.0000 C   0  0  0  0  0  0  0  0  0  0  0  0
   -3.5757   -7.5908    0.0000 C   0  0  0  0  0  0  0  0  0  0  0  0
   -2.6401   -3.1891    0.0000 N   0  0  0  0  0  0  0  0  0  0  0  0
   -1.2135   -2.7256    0.0000 C   0  0  0  0  0  0  0  0  0  0  0  0
   -0.0000   -3.6073    0.0000 N   0  0  0  0  0  0  0  0  0  0  0  0
    1.2135   -2.7256    0.0000 N   0  0  0  0  0  0  0  0  0  0  0  0
    0.7500   -1.2990    0.0000 C   0  0  0  0  0  0  0  0  0  0  0  0
    1.5000    0.0000    0.0000 C   0  0  0  0  0  0  0  0  0  0  0  0
    0.7500    1.2990    0.0000 C   0  0  0  0  0  0  0  0  0  0  0  0
   -0.7500    1.2990    0.0000 C   0  0  0  0  0  0  0  0  0  0  0  0
   -1.5000    2.5981    0.0000 N   0  0  0  0  0  0  0  0  0  0  0  0
   -2.9918    2.7549    0.0000 C   0  0  0  0  0  0  0  0  0  0  0  0
   -3.3037    4.2221    0.0000 C   0  0  0  0  0  0  0  0  0  0  0  0
   -2.0046    4.9721    0.0000 C   0  0  0  0  0  0  0  0  0  0  0  0
   -0.8899    3.9684    0.0000 S   0  0  0  0  0  0  0  0  0  0  0  0
   -0.0082    5.1819    0.0000 O   0  0  0  0  0  0  0  0  0  0  0  0
    0.4091    3.2184    0.0000 O   0  0  0  0  0  0  0  0  0  0  0  0
   -1.5000    0.0000    0.0000 C   0  0  0  0  0  0  0  0  0  0  0  0
   -0.7500   -1.2990    0.0000 C   0  0  0  0  0  0  0  0  0  0  0  0
  1  2  2  0
  2  3  1  0
  3  4  1  0
  4  5  2  0
  5  6  1  0
  6  7  2  0
  7  8  1  0
  8  9  2  0
  9 10  1  0
 10 11  2  0
 11 12  1  0
 12 13  2  0
  7 14  1  0
 14 15  2  0
  2 16  1  0
 16 17  1  0
 17 18  2  0
 18 19  1  0
 19 20  1  0
 20 21  2  0
 21 22  1  0
 22 23  2  0
 23 24  1  0
 24 25  1  0
 25 26  1  0
 26 27  1  0
 27 28  1  0
 28 29  2  0
 28 30  2  0
 23 31  1  0
 31 32  2  0
 15  4  1  0
 32 17  1  0
 13  8  1  0
 32 20  1  0
 28 24  1  0
M  END
>  <Compound_ID>  (155) 
CHEMBL402759

>  <Active>  (155) 
1

>  <Smiles>  (155) 
O=C(Cc1ccc(-c2ccccc2)cc1)Nc1n[nH]c2ccc(N3CCCS3(=O)=O)cc12

>  <canonical_smi>  (155) 
O=C(Cc1ccc(-c2ccccc2)cc1)Nc1n[nH]c2ccc(N3CCCS3(=O)=O)cc12

>  <Set>  (155) 
G2 active

>  <Set_type>  (155) 
Train

>  <MW>  (155) 
446.53

>  <HBD>  (155) 
2

>  <HBA>  (155) 
4

>  <NRB>  (155) 
5

>  <NR>  (155) 
5

>  <NAR>  (155) 
4

>  <PSA>  (155) 
95.16

>  <Standard Type>  (155) 
nan

>  <Standard Relation>  (155) 
nan

>  <Standard Units>  (155) 
nan

>  <Standard Value>  (155) 
nan

>  <Assay ChEMBL ID>  (155) 
nan

>  <Assay Description>  (155) 
nan

>  <BAO Label>  (155) 
nan

$$$$

     RDKit          2D

 29 33  0  0  0  0  0  0  0  0999 V2000
   -2.5565   -7.4827    0.0000 N   0  0  0  0  0  0  0  0  0  0  0  0
   -1.4418   -6.4791    0.0000 C   0  0  0  0  0  0  0  0  0  0  0  0
   -0.0152   -6.9426    0.0000 O   0  0  0  0  0  0  0  0  0  0  0  0
   -1.7537   -5.0118    0.0000 C   0  0  0  0  0  0  0  0  0  0  0  0
   -3.1240   -4.4017    0.0000 N   0  0  0  0  0  0  0  0  0  0  0  0
   -2.9672   -2.9099    0.0000 N   0  0  0  0  0  0  0  0  0  0  0  0
   -4.0819   -1.9062    0.0000 C   0  0  0  0  0  0  0  0  0  0  0  0
   -3.7701   -0.4390    0.0000 C   0  0  0  0  0  0  0  0  0  0  0  0
   -4.8848    0.5647    0.0000 C   0  0  0  0  0  0  0  0  0  0  0  0
   -6.3114    0.1011    0.0000 C   0  0  0  0  0  0  0  0  0  0  0  0
   -6.6232   -1.3661    0.0000 C   0  0  0  0  0  0  0  0  0  0  0  0
   -5.5085   -2.3698    0.0000 C   0  0  0  0  0  0  0  0  0  0  0  0
   -1.5000   -2.5981    0.0000 C   0  0  0  0  0  0  0  0  0  0  0  0
   -0.7500   -3.8971    0.0000 C   0  0  0  0  0  0  0  0  0  0  0  0
    0.7500   -3.8971    0.0000 C   0  0  0  0  0  0  0  0  0  0  0  0
    1.5000   -2.5981    0.0000 C   0  0  0  0  0  0  0  0  0  0  0  0
    0.7500   -1.2990    0.0000 C   0  0  0  0  0  0  0  0  0  0  0  0
    1.5000    0.0000    0.0000 C   0  0  0  0  0  0  0  0  0  0  0  0
    0.7500    1.2990    0.0000 N   0  0  0  0  0  0  0  0  0  0  0  0
   -0.7500    1.2990    0.0000 C   0  0  0  0  0  0  0  0  0  0  0  0
   -1.5000    2.5981    0.0000 N   0  0  0  0  0  0  0  0  0  0  0  0
   -0.7500    3.8971    0.0000 C   0  0  0  0  0  0  0  0  0  0  0  0
    0.7500    3.8971    0.0000 C   0  0  0  0  0  0  0  0  0  0  0  0
    1.5000    5.1962    0.0000 C   0  0  0  0  0  0  0  0  0  0  0  0
    0.7500    6.4952    0.0000 C   0  0  0  0  0  0  0  0  0  0  0  0
   -0.7500    6.4952    0.0000 C   0  0  0  0  0  0  0  0  0  0  0  0
   -1.5000    5.1962    0.0000 C   0  0  0  0  0  0  0  0  0  0  0  0
   -1.5000    0.0000    0.0000 N   0  0  0  0  0  0  0  0  0  0  0  0
   -0.7500   -1.2990    0.0000 C   0  0  0  0  0  0  0  0  0  0  0  0
  1  2  1  0
  2  3  2  0
  2  4  1  0
  4  5  2  0
  5  6  1  0
  6  7  1  0
  7  8  2  0
  8  9  1  0
  9 10  2  0
 10 11  1  0
 11 12  2  0
  6 13  1  0
 13 14  2  0
 14 15  1  0
 15 16  1  0
 16 17  1  0
 17 18  2  0
 18 19  1  0
 19 20  2  0
 20 21  1  0
 21 22  1  0
 22 23  2  0
 23 24  1  0
 24 25  2  0
 25 26  1  0
 26 27  2  0
 20 28  1  0
 28 29  2  0
 14  4  1  0
 29 17  1  0
 12  7  1  0
 29 13  1  0
 27 22  1  0
M  END
>  <Compound_ID>  (156) 
CHEMBL1094400

>  <Active>  (156) 
1

>  <Smiles>  (156) 
NC(=O)c1nn(-c2ccccc2)c2c1CCc1cnc(Nc3ccccc3)nc1-2

>  <canonical_smi>  (156) 
NC(=O)c1nn(-c2ccccc2)c2c1CCc1cnc(Nc3ccccc3)nc1-2

>  <Set>  (156) 
G2 active

>  <Set_type>  (156) 
Train

>  <MW>  (156) 
382.43

>  <HBD>  (156) 
2

>  <HBA>  (156) 
5

>  <NRB>  (156) 
4

>  <NR>  (156) 
5

>  <NAR>  (156) 
4

>  <PSA>  (156) 
98.72

>  <Standard Type>  (156) 
nan

>  <Standard Relation>  (156) 
nan

>  <Standard Units>  (156) 
nan

>  <Standard Value>  (156) 
nan

>  <Assay ChEMBL ID>  (156) 
nan

>  <Assay Description>  (156) 
nan

>  <BAO Label>  (156) 
nan

$$$$

     RDKit          2D

 23 26  0  0  0  0  0  0  0  0999 V2000
   -0.0000   -5.1073    0.0000 C   0  0  0  0  0  0  0  0  0  0  0  0
   -0.0000   -3.6073    0.0000 C   0  0  0  0  0  0  0  0  0  0  0  0
    1.2135   -2.7256    0.0000 N   0  0  0  0  0  0  0  0  0  0  0  0
    0.7500   -1.2990    0.0000 C   0  0  0  0  0  0  0  0  0  0  0  0
    1.5000    0.0000    0.0000 C   0  0  0  0  0  0  0  0  0  0  0  0
    0.7500    1.2990    0.0000 C   0  0  0  0  0  0  0  0  0  0  0  0
   -0.7500    1.2990    0.0000 C   0  0  0  0  0  0  0  0  0  0  0  0
   -1.5000    2.5981    0.0000 C   0  0  0  0  0  0  0  0  0  0  0  0
   -0.7500    3.8971    0.0000 C   0  0  0  0  0  0  0  0  0  0  0  0
    0.7500    3.8971    0.0000 O   0  0  0  0  0  0  0  0  0  0  0  0
   -1.5000    5.1962    0.0000 N   0  0  0  0  0  0  0  0  0  0  0  0
   -0.7500    6.4952    0.0000 C   0  0  0  0  0  0  0  0  0  0  0  0
   -1.3601    7.8655    0.0000 N   0  0  0  0  0  0  0  0  0  0  0  0
   -0.2454    8.8692    0.0000 C   0  0  0  0  0  0  0  0  0  0  0  0
    1.0537    8.1192    0.0000 C   0  0  0  0  0  0  0  0  0  0  0  0
    2.4240    8.7293    0.0000 C   0  0  0  0  0  0  0  0  0  0  0  0
    3.8243    8.1918    0.0000 C   0  0  0  0  0  0  0  0  0  0  0  0
    4.3619    9.5921    0.0000 C   0  0  0  0  0  0  0  0  0  0  0  0
    2.9615   10.1297    0.0000 C   0  0  0  0  0  0  0  0  0  0  0  0
    0.7418    6.6520    0.0000 S   0  0  0  0  0  0  0  0  0  0  0  0
   -1.5000    0.0000    0.0000 C   0  0  0  0  0  0  0  0  0  0  0  0
   -0.7500   -1.2990    0.0000 C   0  0  0  0  0  0  0  0  0  0  0  0
   -1.2135   -2.7256    0.0000 S   0  0  0  0  0  0  0  0  0  0  0  0
  1  2  1  0
  2  3  2  0
  3  4  1  0
  4  5  2  0
  5  6  1  0
  6  7  2  0
  7  8  1  0
  8  9  1  0
  9 10  2  0
  9 11  1  0
 11 12  1  0
 12 13  2  0
 13 14  1  0
 14 15  2  0
 15 16  1  0
 16 17  1  0
 17 18  1  0
 18 19  1  0
 15 20  1  0
  7 21  1  0
 21 22  2  0
 22 23  1  0
 23  2  1  0
 22  4  1  0
 20 12  1  0
 19 16  1  0
M  END
>  <Compound_ID>  (157) 
CHEMBL186470

>  <Active>  (157) 
1

>  <Smiles>  (157) 
Cc1nc2ccc(CC(=O)Nc3ncc(C4CCC4)s3)cc2s1

>  <canonical_smi>  (157) 
Cc1nc2ccc(CC(=O)Nc3ncc(C4CCC4)s3)cc2s1

>  <Set>  (157) 
G2 active

>  <Set_type>  (157) 
Train

>  <MW>  (157) 
343.48

>  <HBD>  (157) 
1

>  <HBA>  (157) 
3

>  <NRB>  (157) 
4

>  <NR>  (157) 
4

>  <NAR>  (157) 
3

>  <PSA>  (157) 
54.88

>  <Standard Type>  (157) 
nan

>  <Standard Relation>  (157) 
nan

>  <Standard Units>  (157) 
nan

>  <Standard Value>  (157) 
nan

>  <Assay ChEMBL ID>  (157) 
nan

>  <Assay Description>  (157) 
nan

>  <BAO Label>  (157) 
nan

$$$$

     RDKit          2D

 37 41  0  0  0  0  0  0  0  0999 V2000
   -1.2599    9.5523    0.0000 C   0  0  0  0  0  0  0  0  0  0  0  0
   -1.5718    8.0851    0.0000 O   0  0  0  0  0  0  0  0  0  0  0  0
   -2.9983    7.6216    0.0000 C   0  0  0  0  0  0  0  0  0  0  0  0
   -3.3102    6.1544    0.0000 C   0  0  0  0  0  0  0  0  0  0  0  0
   -4.7368    5.6908    0.0000 N   0  0  0  0  0  0  0  0  0  0  0  0
   -5.0487    4.2236    0.0000 S   0  0  0  0  0  0  0  0  0  0  0  0
   -6.5159    4.5355    0.0000 O   0  0  0  0  0  0  0  0  0  0  0  0
   -3.5814    3.9117    0.0000 O   0  0  0  0  0  0  0  0  0  0  0  0
   -5.3605    2.7564    0.0000 C   0  0  0  0  0  0  0  0  0  0  0  0
   -4.2458    1.7527    0.0000 C   0  0  0  0  0  0  0  0  0  0  0  0
   -4.5577    0.2855    0.0000 C   0  0  0  0  0  0  0  0  0  0  0  0
   -5.9843   -0.1781    0.0000 C   0  0  0  0  0  0  0  0  0  0  0  0
   -6.2961   -1.6453    0.0000 N   0  0  0  0  0  0  0  0  0  0  0  0
   -5.1814   -2.6490    0.0000 C   0  0  0  0  0  0  0  0  0  0  0  0
   -5.4933   -4.1162    0.0000 N   0  0  0  0  0  0  0  0  0  0  0  0
   -4.3786   -5.1199    0.0000 C   0  0  0  0  0  0  0  0  0  0  0  0
   -2.9520   -4.6564    0.0000 C   0  0  0  0  0  0  0  0  0  0  0  0
   -2.6401   -3.1891    0.0000 C   0  0  0  0  0  0  0  0  0  0  0  0
   -1.2135   -2.7256    0.0000 C   0  0  0  0  0  0  0  0  0  0  0  0
   -0.0000   -3.6073    0.0000 C   0  0  0  0  0  0  0  0  0  0  0  0
    1.2135   -2.7256    0.0000 N   0  0  0  0  0  0  0  0  0  0  0  0
    0.7500   -1.2990    0.0000 C   0  0  0  0  0  0  0  0  0  0  0  0
    1.5000    0.0000    0.0000 C   0  0  0  0  0  0  0  0  0  0  0  0
    0.7500    1.2990    0.0000 C   0  0  0  0  0  0  0  0  0  0  0  0
   -0.7500    1.2990    0.0000 C   0  0  0  0  0  0  0  0  0  0  0  0
   -1.5000    2.5981    0.0000 S   0  0  0  0  0  0  0  0  0  0  0  0
   -0.7500    3.8971    0.0000 C   0  0  0  0  0  0  0  0  0  0  0  0
    0.7500    3.8971    0.0000 C   0  0  0  0  0  0  0  0  0  0  0  0
    1.5000    5.1962    0.0000 C   0  0  0  0  0  0  0  0  0  0  0  0
    0.7500    6.4952    0.0000 C   0  0  0  0  0  0  0  0  0  0  0  0
   -0.7500    6.4952    0.0000 C   0  0  0  0  0  0  0  0  0  0  0  0
   -1.5000    5.1962    0.0000 C   0  0  0  0  0  0  0  0  0  0  0  0
   -1.5000    0.0000    0.0000 C   0  0  0  0  0  0  0  0  0  0  0  0
   -0.7500   -1.2990    0.0000 N   0  0  0  0  0  0  0  0  0  0  0  0
   -3.7548   -2.1855    0.0000 N   0  0  0  0  0  0  0  0  0  0  0  0
   -7.0990    0.8256    0.0000 C   0  0  0  0  0  0  0  0  0  0  0  0
   -6.7871    2.2929    0.0000 C   0  0  0  0  0  0  0  0  0  0  0  0
  1  2  1  0
  2  3  1  0
  3  4  1  0
  4  5  1  0
  5  6  1  0
  6  7  2  0
  6  8  2  0
  6  9  1  0
  9 10  2  0
 10 11  1  0
 11 12  2  0
 12 13  1  0
 13 14  1  0
 14 15  2  0
 15 16  1  0
 16 17  2  0
 17 18  1  0
 18 19  1  0
 19 20  2  0
 20 21  1  0
 21 22  2  0
 22 23  1  0
 23 24  2  0
 24 25  1  0
 25 26  1  0
 26 27  1  0
 27 28  2  0
 28 29  1  0
 29 30  2  0
 30 31  1  0
 31 32  2  0
 25 33  2  0
 33 34  1  0
 18 35  2  0
 12 36  1  0
 36 37  2  0
 37  9  1  0
 35 14  1  0
 34 19  1  0
 34 22  1  0
 32 27  1  0
M  END
>  <Compound_ID>  (158) 
CHEMBL307808

>  <Active>  (158) 
1

>  <Smiles>  (158) 
COCCNS(=O)(=O)c1ccc(Nc2nccc(-c3cnc4ccc(Sc5ccccc5)cn34)n2)cc1

>  <canonical_smi>  (158) 
COCCNS(=O)(=O)c1ccc(Nc2nccc(-c3cnc4ccc(Sc5ccccc5)cn34)n2)cc1

>  <Set>  (158) 
G2 active

>  <Set_type>  (158) 
Train

>  <MW>  (158) 
532.65

>  <HBD>  (158) 
2

>  <HBA>  (158) 
8

>  <NRB>  (158) 
10

>  <NR>  (158) 
5

>  <NAR>  (158) 
5

>  <PSA>  (158) 
110.51

>  <Standard Type>  (158) 
nan

>  <Standard Relation>  (158) 
nan

>  <Standard Units>  (158) 
nan

>  <Standard Value>  (158) 
nan

>  <Assay ChEMBL ID>  (158) 
nan

>  <Assay Description>  (158) 
nan

>  <BAO Label>  (158) 
nan

$$$$

     RDKit          2D

 31 34  0  0  0  0  0  0  0  0999 V2000
    3.0000    0.0000    0.0000 C   0  0  0  0  0  0  0  0  0  0  0  0
    1.5000    0.0000    0.0000 C   0  0  0  0  0  0  0  0  0  0  0  0
    0.7500   -1.2990    0.0000 C   0  0  0  0  0  0  0  0  0  0  0  0
   -0.7500   -1.2990    0.0000 N   0  0  0  0  0  0  0  0  0  0  0  0
   -1.5000    0.0000    0.0000 C   0  0  0  0  0  0  0  0  0  0  0  0
   -3.0000    0.0000    0.0000 N   0  0  0  0  0  0  0  0  0  0  0  0
   -3.7500    1.2990    0.0000 C   0  0  0  0  0  0  0  0  0  0  0  0
   -3.0000    2.5981    0.0000 C   0  0  0  0  0  0  0  0  0  0  0  0
   -3.7500    3.8971    0.0000 C   0  0  0  0  0  0  0  0  0  0  0  0
   -5.2500    3.8971    0.0000 C   0  0  0  0  0  0  0  0  0  0  0  0
   -6.0000    2.5981    0.0000 C   0  0  0  0  0  0  0  0  0  0  0  0
   -5.2500    1.2990    0.0000 C   0  0  0  0  0  0  0  0  0  0  0  0
   -0.7500    1.2990    0.0000 N   0  0  0  0  0  0  0  0  0  0  0  0
    0.7500    1.2990    0.0000 C   0  0  0  0  0  0  0  0  0  0  0  0
    1.5000    2.5981    0.0000 C   0  0  0  0  0  0  0  0  0  0  0  0
    0.8899    3.9684    0.0000 C   0  0  0  0  0  0  0  0  0  0  0  0
    2.0046    4.9721    0.0000 N   0  0  0  0  0  0  0  0  0  0  0  0
    3.3037    4.2221    0.0000 C   0  0  0  0  0  0  0  0  0  0  0  0
    4.6740    4.8322    0.0000 C   0  0  0  0  0  0  0  0  0  0  0  0
    4.8308    6.3240    0.0000 O   0  0  0  0  0  0  0  0  0  0  0  0
    5.8875    3.9505    0.0000 N   0  0  0  0  0  0  0  0  0  0  0  0
    7.2578    4.5606    0.0000 C   0  0  0  0  0  0  0  0  0  0  0  0
    7.4146    6.0524    0.0000 C   0  0  0  0  0  0  0  0  0  0  0  0
    8.7849    6.6625    0.0000 O   0  0  0  0  0  0  0  0  0  0  0  0
    8.4713    3.6789    0.0000 C   0  0  0  0  0  0  0  0  0  0  0  0
    8.3145    2.1872    0.0000 C   0  0  0  0  0  0  0  0  0  0  0  0
    9.5281    1.3055    0.0000 C   0  0  0  0  0  0  0  0  0  0  0  0
   10.8984    1.9156    0.0000 C   0  0  0  0  0  0  0  0  0  0  0  0
   11.0552    3.4074    0.0000 C   0  0  0  0  0  0  0  0  0  0  0  0
    9.8417    4.2890    0.0000 C   0  0  0  0  0  0  0  0  0  0  0  0
    2.9918    2.7549    0.0000 C   0  0  0  0  0  0  0  0  0  0  0  0
  1  2  1  0
  2  3  2  0
  3  4  1  0
  4  5  2  0
  5  6  1  0
  6  7  1  0
  7  8  2  0
  8  9  1  0
  9 10  2  0
 10 11  1  0
 11 12  2  0
  5 13  1  0
 13 14  2  0
 14 15  1  0
 15 16  2  0
 16 17  1  0
 17 18  1  0
 18 19  1  0
 19 20  2  0
 19 21  1  0
 21 22  1  0
 22 23  1  6
 23 24  1  0
 22 25  1  0
 25 26  2  0
 26 27  1  0
 27 28  2  0
 28 29  1  0
 29 30  2  0
 18 31  2  0
 14  2  1  0
 31 15  1  0
 12  7  1  0
 30 25  1  0
M  END
>  <Compound_ID>  (159) 
CHEMBL565459

>  <Active>  (159) 
1

>  <Smiles>  (159) 
Cc1cnc(Nc2ccccc2)nc1-c1c[nH]c(C(=O)N[C@H](CO)c2ccccc2)c1

>  <canonical_smi>  (159) 
Cc1cnc(Nc2ccccc2)nc1-c1c[nH]c(C(=O)N[C@H](CO)c2ccccc2)c1

>  <Set>  (159) 
G2 active

>  <Set_type>  (159) 
Train

>  <MW>  (159) 
413.48

>  <HBD>  (159) 
4

>  <HBA>  (159) 
5

>  <NRB>  (159) 
7

>  <NR>  (159) 
4

>  <NAR>  (159) 
4

>  <PSA>  (159) 
102.93

>  <Standard Type>  (159) 
nan

>  <Standard Relation>  (159) 
nan

>  <Standard Units>  (159) 
nan

>  <Standard Value>  (159) 
nan

>  <Assay ChEMBL ID>  (159) 
nan

>  <Assay Description>  (159) 
nan

>  <BAO Label>  (159) 
nan

$$$$

     RDKit          2D

 34 38  0  0  0  0  0  0  0  0999 V2000
   -1.7024   10.0935    0.0000 N   0  0  0  0  0  0  0  0  0  0  0  0
   -2.0143    8.6263    0.0000 C   0  0  0  0  0  0  0  0  0  0  0  0
   -0.8995    7.6226    0.0000 C   0  0  0  0  0  0  0  0  0  0  0  0
   -1.2114    6.1554    0.0000 C   0  0  0  0  0  0  0  0  0  0  0  0
   -2.6380    5.6918    0.0000 C   0  0  0  0  0  0  0  0  0  0  0  0
   -2.9499    4.2246    0.0000 N   0  0  0  0  0  0  0  0  0  0  0  0
   -1.8351    3.2209    0.0000 C   0  0  0  0  0  0  0  0  0  0  0  0
   -0.4086    3.6844    0.0000 C   0  0  0  0  0  0  0  0  0  0  0  0
    0.7062    2.6807    0.0000 C   0  0  0  0  0  0  0  0  0  0  0  0
    2.1328    3.1443    0.0000 N   0  0  0  0  0  0  0  0  0  0  0  0
    2.4446    4.6115    0.0000 C   0  0  0  0  0  0  0  0  0  0  0  0
    3.8712    5.0750    0.0000 C   0  0  0  0  0  0  0  0  0  0  0  0
    4.1831    6.5422    0.0000 C   0  0  0  0  0  0  0  0  0  0  0  0
    3.0684    7.5459    0.0000 C   0  0  0  0  0  0  0  0  0  0  0  0
    3.3802    9.0132    0.0000 S   0  0  0  0  0  0  0  0  0  0  0  0
    1.9130    9.3250    0.0000 O   0  0  0  0  0  0  0  0  0  0  0  0
    4.8474    8.7013    0.0000 O   0  0  0  0  0  0  0  0  0  0  0  0
    3.6921   10.4804    0.0000 C   0  0  0  0  0  0  0  0  0  0  0  0
    5.1187   10.9439    0.0000 C   0  0  0  0  0  0  0  0  0  0  0  0
    5.4305   12.4111    0.0000 C   0  0  0  0  0  0  0  0  0  0  0  0
    4.3158   13.4148    0.0000 C   0  0  0  0  0  0  0  0  0  0  0  0
    2.8892   12.9513    0.0000 C   0  0  0  0  0  0  0  0  0  0  0  0
    2.5774   11.4841    0.0000 C   0  0  0  0  0  0  0  0  0  0  0  0
    1.6418    7.0824    0.0000 C   0  0  0  0  0  0  0  0  0  0  0  0
    1.3299    5.6152    0.0000 C   0  0  0  0  0  0  0  0  0  0  0  0
    0.3943    1.2135    0.0000 N   0  0  0  0  0  0  0  0  0  0  0  0
    1.2760    0.0000    0.0000 N   0  0  0  0  0  0  0  0  0  0  0  0
    0.3943   -1.2135    0.0000 C   0  0  0  0  0  0  0  0  0  0  0  0
   -1.0323   -0.7500    0.0000 C   0  0  0  0  0  0  0  0  0  0  0  0
   -2.2458   -1.6317    0.0000 Br  0  0  0  0  0  0  0  0  0  0  0  0
   -1.0323    0.7500    0.0000 C   0  0  0  0  0  0  0  0  0  0  0  0
   -2.1470    1.7537    0.0000 N   0  0  0  0  0  0  0  0  0  0  0  0
   -3.7527    6.6955    0.0000 C   0  0  0  0  0  0  0  0  0  0  0  0
   -3.4408    8.1628    0.0000 C   0  0  0  0  0  0  0  0  0  0  0  0
  1  2  1  0
  2  3  1  0
  3  4  1  0
  4  5  1  0
  5  6  1  0
  6  7  1  0
  7  8  1  0
  8  9  2  0
  9 10  1  0
 10 11  1  0
 11 12  2  0
 12 13  1  0
 13 14  2  0
 14 15  1  0
 15 16  2  0
 15 17  2  0
 15 18  1  0
 18 19  2  0
 19 20  1  0
 20 21  2  0
 21 22  1  0
 22 23  2  0
 14 24  1  0
 24 25  2  0
  9 26  1  0
 26 27  1  0
 27 28  2  0
 28 29  1  0
 29 30  1  0
 29 31  2  0
 31 32  1  0
  5 33  1  0
 33 34  1  0
 34  2  1  0
 32  7  2  0
 25 11  1  0
 31 26  1  0
 23 18  1  0
M  END
>  <Compound_ID>  (160) 
CHEMBL361833

>  <Active>  (160) 
1

>  <Smiles>  (160) 
NC1CCC(Nc2cc(Nc3ccc(S(=O)(=O)c4ccccc4)cc3)n3ncc(Br)c3n2)CC1

>  <canonical_smi>  (160) 
NC1CCC(Nc2cc(Nc3ccc(S(=O)(=O)c4ccccc4)cc3)n3ncc(Br)c3n2)CC1

>  <Set>  (160) 
G2 active

>  <Set_type>  (160) 
Train

>  <MW>  (160) 
541.47

>  <HBD>  (160) 
3

>  <HBA>  (160) 
7

>  <NRB>  (160) 
6

>  <NR>  (160) 
5

>  <NAR>  (160) 
4

>  <PSA>  (160) 
114.41

>  <Standard Type>  (160) 
nan

>  <Standard Relation>  (160) 
nan

>  <Standard Units>  (160) 
nan

>  <Standard Value>  (160) 
nan

>  <Assay ChEMBL ID>  (160) 
nan

>  <Assay Description>  (160) 
nan

>  <BAO Label>  (160) 
nan

$$$$

     RDKit          2D

 28 31  0  0  0  0  0  0  0  0999 V2000
    1.8478   -6.4639    0.0000 C   0  0  0  0  0  0  0  0  0  0  0  0
    2.0046   -4.9721    0.0000 C   0  0  0  0  0  0  0  0  0  0  0  0
    3.3037   -4.2221    0.0000 N   0  0  0  0  0  0  0  0  0  0  0  0
    2.9918   -2.7549    0.0000 C   0  0  0  0  0  0  0  0  0  0  0  0
    1.5000   -2.5981    0.0000 C   0  0  0  0  0  0  0  0  0  0  0  0
    0.7500   -1.2990    0.0000 C   0  0  0  0  0  0  0  0  0  0  0  0
    1.5000    0.0000    0.0000 C   0  0  0  0  0  0  0  0  0  0  0  0
    0.7500    1.2990    0.0000 C   0  0  0  0  0  0  0  0  0  0  0  0
   -0.7500    1.2990    0.0000 N   0  0  0  0  0  0  0  0  0  0  0  0
   -1.5000    0.0000    0.0000 C   0  0  0  0  0  0  0  0  0  0  0  0
   -3.0000    0.0000    0.0000 N   0  0  0  0  0  0  0  0  0  0  0  0
   -3.7500    1.2990    0.0000 C   0  0  0  0  0  0  0  0  0  0  0  0
   -3.0000    2.5981    0.0000 C   0  0  0  0  0  0  0  0  0  0  0  0
   -3.7500    3.8971    0.0000 C   0  0  0  0  0  0  0  0  0  0  0  0
   -5.2500    3.8971    0.0000 C   0  0  0  0  0  0  0  0  0  0  0  0
   -6.0000    5.1962    0.0000 C   0  0  0  0  0  0  0  0  0  0  0  0
   -7.5000    5.1962    0.0000 O   0  0  0  0  0  0  0  0  0  0  0  0
   -5.2500    6.4952    0.0000 N   0  0  0  0  0  0  0  0  0  0  0  0
   -6.0000    7.7942    0.0000 C   0  0  0  0  0  0  0  0  0  0  0  0
   -7.2990    8.5442    0.0000 C   0  0  0  0  0  0  0  0  0  0  0  0
   -6.0000    9.2942    0.0000 C   0  0  0  0  0  0  0  0  0  0  0  0
   -6.0000    2.5981    0.0000 C   0  0  0  0  0  0  0  0  0  0  0  0
   -5.2500    1.2990    0.0000 C   0  0  0  0  0  0  0  0  0  0  0  0
   -0.7500   -1.2990    0.0000 N   0  0  0  0  0  0  0  0  0  0  0  0
    0.8899   -3.9684    0.0000 N   0  0  0  0  0  0  0  0  0  0  0  0
   -0.5773   -4.2803    0.0000 C   0  0  0  0  0  0  0  0  0  0  0  0
   -1.0409   -5.7068    0.0000 C   0  0  0  0  0  0  0  0  0  0  0  0
   -1.5810   -3.1655    0.0000 C   0  0  0  0  0  0  0  0  0  0  0  0
  1  2  1  0
  2  3  2  0
  3  4  1  0
  4  5  2  0
  5  6  1  0
  6  7  2  0
  7  8  1  0
  8  9  2  0
  9 10  1  0
 10 11  1  0
 11 12  1  0
 12 13  2  0
 13 14  1  0
 14 15  2  0
 15 16  1  0
 16 17  2  0
 16 18  1  0
 18 19  1  0
 19 20  1  0
 20 21  1  0
 15 22  1  0
 22 23  2  0
 10 24  2  0
  5 25  1  0
 25 26  1  0
 26 27  1  0
 26 28  1  0
 25  2  1  0
 24  6  1  0
 23 12  1  0
 21 19  1  0
M  END
>  <Compound_ID>  (161) 
CHEMBL487066

>  <Active>  (161) 
1

>  <Smiles>  (161) 
Cc1ncc(-c2ccnc(Nc3ccc(C(=O)NC4CC4)cc3)n2)n1C(C)C

>  <canonical_smi>  (161) 
Cc1ncc(-c2ccnc(Nc3ccc(C(=O)NC4CC4)cc3)n2)n1C(C)C

>  <Set>  (161) 
G2 active

>  <Set_type>  (161) 
Train

>  <MW>  (161) 
376.46

>  <HBD>  (161) 
2

>  <HBA>  (161) 
5

>  <NRB>  (161) 
6

>  <NR>  (161) 
4

>  <NAR>  (161) 
3

>  <PSA>  (161) 
84.73

>  <Standard Type>  (161) 
nan

>  <Standard Relation>  (161) 
nan

>  <Standard Units>  (161) 
nan

>  <Standard Value>  (161) 
nan

>  <Assay ChEMBL ID>  (161) 
nan

>  <Assay Description>  (161) 
nan

>  <BAO Label>  (161) 
nan

$$$$

     RDKit          2D

 27 30  0  0  0  0  0  0  0  0999 V2000
   -2.6401   -3.1891    0.0000 C   0  0  0  0  0  0  0  0  0  0  0  0
   -1.2135   -2.7256    0.0000 C   0  0  0  0  0  0  0  0  0  0  0  0
   -0.0000   -3.6073    0.0000 N   0  0  0  0  0  0  0  0  0  0  0  0
    1.2135   -2.7256    0.0000 N   0  0  0  0  0  0  0  0  0  0  0  0
    0.7500   -1.2990    0.0000 C   0  0  0  0  0  0  0  0  0  0  0  0
    1.5000    0.0000    0.0000 C   0  0  0  0  0  0  0  0  0  0  0  0
    0.7500    1.2990    0.0000 C   0  0  0  0  0  0  0  0  0  0  0  0
   -0.7500    1.2990    0.0000 C   0  0  0  0  0  0  0  0  0  0  0  0
   -1.5000    2.5981    0.0000 C   0  0  0  0  0  0  0  0  0  0  0  0
   -2.9918    2.7549    0.0000 N   0  0  0  0  0  0  0  0  0  0  0  0
   -3.3037    4.2221    0.0000 N   0  0  0  0  0  0  0  0  0  0  0  0
   -2.0046    4.9721    0.0000 C   0  0  0  0  0  0  0  0  0  0  0  0
   -1.8478    6.4639    0.0000 N   0  0  0  0  0  0  0  0  0  0  0  0
   -0.4775    7.0740    0.0000 C   0  0  0  0  0  0  0  0  0  0  0  0
   -0.3207    8.5658    0.0000 C   0  0  0  0  0  0  0  0  0  0  0  0
   -1.5342    9.4474    0.0000 N   0  0  0  0  0  0  0  0  0  0  0  0
    1.0496    9.1759    0.0000 C   0  0  0  0  0  0  0  0  0  0  0  0
    1.2064   10.6676    0.0000 C   0  0  0  0  0  0  0  0  0  0  0  0
    2.5767   11.2778    0.0000 C   0  0  0  0  0  0  0  0  0  0  0  0
    2.7335   12.7695    0.0000 C   0  0  0  0  0  0  0  0  0  0  0  0
    1.5200   13.6512    0.0000 C   0  0  0  0  0  0  0  0  0  0  0  0
    0.1497   13.0411    0.0000 C   0  0  0  0  0  0  0  0  0  0  0  0
   -1.0639   13.9228    0.0000 Cl  0  0  0  0  0  0  0  0  0  0  0  0
   -0.0071   11.5493    0.0000 C   0  0  0  0  0  0  0  0  0  0  0  0
   -0.8899    3.9684    0.0000 S   0  0  0  0  0  0  0  0  0  0  0  0
   -1.5000    0.0000    0.0000 C   0  0  0  0  0  0  0  0  0  0  0  0
   -0.7500   -1.2990    0.0000 C   0  0  0  0  0  0  0  0  0  0  0  0
  1  2  1  0
  2  3  2  0
  3  4  1  0
  4  5  1  0
  5  6  2  0
  6  7  1  0
  7  8  2  0
  8  9  1  0
  9 10  2  0
 10 11  1  0
 11 12  2  0
 12 13  1  0
 13 14  1  0
 14 15  1  0
 15 16  1  1
 15 17  1  0
 17 18  1  0
 18 19  2  0
 19 20  1  0
 20 21  2  0
 21 22  1  0
 22 23  1  0
 22 24  2  0
 12 25  1  0
  8 26  1  0
 26 27  2  0
 27  2  1  0
 27  5  1  0
 25  9  1  0
 24 18  1  0
M  END
>  <Compound_ID>  (162) 
CHEMBL1080893

>  <Active>  (162) 
1

>  <Smiles>  (162) 
Cc1n[nH]c2ccc(-c3nnc(NC[C@@H](N)Cc4cccc(Cl)c4)s3)cc12

>  <canonical_smi>  (162) 
Cc1n[nH]c2ccc(-c3nnc(NC[C@@H](N)Cc4cccc(Cl)c4)s3)cc12

>  <Set>  (162) 
G2 active

>  <Set_type>  (162) 
Train

>  <MW>  (162) 
398.92

>  <HBD>  (162) 
3

>  <HBA>  (162) 
5

>  <NRB>  (162) 
6

>  <NR>  (162) 
4

>  <NAR>  (162) 
4

>  <PSA>  (162) 
92.51

>  <Standard Type>  (162) 
nan

>  <Standard Relation>  (162) 
nan

>  <Standard Units>  (162) 
nan

>  <Standard Value>  (162) 
nan

>  <Assay ChEMBL ID>  (162) 
nan

>  <Assay Description>  (162) 
nan

>  <BAO Label>  (162) 
nan

$$$$

     RDKit          2D

 33 36  0  0  0  0  0  0  0  0999 V2000
    3.5260    1.2990    0.0000 C   0  0  0  0  0  0  0  0  0  0  0  0
    2.7760    0.0000    0.0000 C   0  0  0  0  0  0  0  0  0  0  0  0
    3.5260   -1.2990    0.0000 C   0  0  0  0  0  0  0  0  0  0  0  0
    1.2760    0.0000    0.0000 C   0  0  0  0  0  0  0  0  0  0  0  0
    0.3943    1.2135    0.0000 C   0  0  0  0  0  0  0  0  0  0  0  0
   -1.0323    0.7500    0.0000 N   0  0  0  0  0  0  0  0  0  0  0  0
   -1.0323   -0.7500    0.0000 N   0  0  0  0  0  0  0  0  0  0  0  0
   -2.1470   -1.7537    0.0000 C   0  0  0  0  0  0  0  0  0  0  0  0
   -3.5736   -1.2902    0.0000 N   0  0  0  0  0  0  0  0  0  0  0  0
   -4.6883   -2.2939    0.0000 C   0  0  0  0  0  0  0  0  0  0  0  0
   -6.1149   -1.8303    0.0000 C   0  0  0  0  0  0  0  0  0  0  0  0
   -7.2296   -2.8340    0.0000 C   0  0  0  0  0  0  0  0  0  0  0  0
   -6.9177   -4.3013    0.0000 C   0  0  0  0  0  0  0  0  0  0  0  0
   -8.0325   -5.3050    0.0000 S   0  0  0  0  0  0  0  0  0  0  0  0
   -9.0362   -4.1902    0.0000 O   0  0  0  0  0  0  0  0  0  0  0  0
   -7.0288   -6.4197    0.0000 O   0  0  0  0  0  0  0  0  0  0  0  0
   -9.1472   -6.3086    0.0000 N   0  0  0  0  0  0  0  0  0  0  0  0
   -8.8353   -7.7759    0.0000 C   0  0  0  0  0  0  0  0  0  0  0  0
  -10.5738   -5.8451    0.0000 C   0  0  0  0  0  0  0  0  0  0  0  0
   -5.4912   -4.7648    0.0000 C   0  0  0  0  0  0  0  0  0  0  0  0
   -4.3764   -3.7611    0.0000 C   0  0  0  0  0  0  0  0  0  0  0  0
   -1.8351   -3.2209    0.0000 C   0  0  0  0  0  0  0  0  0  0  0  0
   -0.4086   -3.6844    0.0000 C   0  0  0  0  0  0  0  0  0  0  0  0
   -0.0967   -5.1517    0.0000 O   0  0  0  0  0  0  0  0  0  0  0  0
   -1.2114   -6.1554    0.0000 C   0  0  0  0  0  0  0  0  0  0  0  0
   -2.6380   -5.6918    0.0000 C   0  0  0  0  0  0  0  0  0  0  0  0
   -3.7527   -6.6955    0.0000 C   0  0  0  0  0  0  0  0  0  0  0  0
   -3.4408   -8.1628    0.0000 C   0  0  0  0  0  0  0  0  0  0  0  0
   -4.5556   -9.1664    0.0000 N   0  0  0  0  0  0  0  0  0  0  0  0
   -2.0143   -8.6263    0.0000 C   0  0  0  0  0  0  0  0  0  0  0  0
   -0.8995   -7.6226    0.0000 C   0  0  0  0  0  0  0  0  0  0  0  0
    0.7062   -2.6807    0.0000 N   0  0  0  0  0  0  0  0  0  0  0  0
    0.3943   -1.2135    0.0000 C   0  0  0  0  0  0  0  0  0  0  0  0
  1  2  1  0
  2  3  1  0
  2  4  1  0
  4  5  1  0
  5  6  2  0
  6  7  1  0
  7  8  1  0
  8  9  1  0
  9 10  1  0
 10 11  2  0
 11 12  1  0
 12 13  2  0
 13 14  1  0
 14 15  2  0
 14 16  2  0
 14 17  1  0
 17 18  1  0
 17 19  1  0
 13 20  1  0
 20 21  2  0
  8 22  2  0
 22 23  1  0
 23 24  1  0
 24 25  1  0
 25 26  1  0
 26 27  1  0
 27 28  1  0
 28 29  1  0
 28 30  1  0
 30 31  1  0
 23 32  2  0
 32 33  1  0
 33  4  2  0
 33  7  1  0
 21 10  1  0
 31 25  1  0
M  END
>  <Compound_ID>  (163) 
CHEMBL180814

>  <Active>  (163) 
1

>  <Smiles>  (163) 
CC(C)c1cnn2c(Nc3ccc(S(=O)(=O)N(C)C)cc3)cc(OC3CCC(N)CC3)nc12

>  <canonical_smi>  (163) 
CC(C)c1cnn2c(Nc3ccc(S(=O)(=O)N(C)C)cc3)cc(OC3CCC(N)CC3)nc12

>  <Set>  (163) 
G2 active

>  <Set_type>  (163) 
Train

>  <MW>  (163) 
472.62

>  <HBD>  (163) 
2

>  <HBA>  (163) 
7

>  <NRB>  (163) 
7

>  <NR>  (163) 
4

>  <NAR>  (163) 
3

>  <PSA>  (163) 
114.85

>  <Standard Type>  (163) 
nan

>  <Standard Relation>  (163) 
nan

>  <Standard Units>  (163) 
nan

>  <Standard Value>  (163) 
nan

>  <Assay ChEMBL ID>  (163) 
nan

>  <Assay Description>  (163) 
nan

>  <BAO Label>  (163) 
nan

$$$$

     RDKit          2D

 27 31  0  0  0  0  0  0  0  0999 V2000
   -4.6613    6.0728    0.0000 N   0  0  0  0  0  0  0  0  0  0  0  0
   -3.2910    5.4627    0.0000 C   0  0  0  0  0  0  0  0  0  0  0  0
   -2.0774    6.3444    0.0000 O   0  0  0  0  0  0  0  0  0  0  0  0
   -3.1342    3.9709    0.0000 C   0  0  0  0  0  0  0  0  0  0  0  0
   -4.2489    2.9672    0.0000 N   0  0  0  0  0  0  0  0  0  0  0  0
   -3.6388    1.5969    0.0000 N   0  0  0  0  0  0  0  0  0  0  0  0
   -4.3888    0.2979    0.0000 C   0  0  0  0  0  0  0  0  0  0  0  0
   -5.8888    0.2979    0.0000 C   0  0  0  0  0  0  0  0  0  0  0  0
   -6.6388   -1.0012    0.0000 C   0  0  0  0  0  0  0  0  0  0  0  0
   -5.8888   -2.3002    0.0000 C   0  0  0  0  0  0  0  0  0  0  0  0
   -6.6388   -3.5992    0.0000 N   0  0  0  0  0  0  0  0  0  0  0  0
   -8.1388   -3.5992    0.0000 C   0  0  0  0  0  0  0  0  0  0  0  0
   -8.8888   -4.8983    0.0000 C   0  0  0  0  0  0  0  0  0  0  0  0
   -8.1388   -6.1973    0.0000 O   0  0  0  0  0  0  0  0  0  0  0  0
   -6.6388   -6.1973    0.0000 C   0  0  0  0  0  0  0  0  0  0  0  0
   -5.8888   -4.8983    0.0000 C   0  0  0  0  0  0  0  0  0  0  0  0
   -4.3888   -2.3002    0.0000 C   0  0  0  0  0  0  0  0  0  0  0  0
   -3.6388   -1.0012    0.0000 C   0  0  0  0  0  0  0  0  0  0  0  0
   -2.1470    1.7537    0.0000 C   0  0  0  0  0  0  0  0  0  0  0  0
   -1.8351    3.2209    0.0000 C   0  0  0  0  0  0  0  0  0  0  0  0
   -0.4086    3.6844    0.0000 C   0  0  0  0  0  0  0  0  0  0  0  0
    0.7062    2.6807    0.0000 C   0  0  0  0  0  0  0  0  0  0  0  0
    0.3943    1.2135    0.0000 C   0  0  0  0  0  0  0  0  0  0  0  0
    1.2760    0.0000    0.0000 N   0  0  0  0  0  0  0  0  0  0  0  0
    0.3943   -1.2135    0.0000 N   0  0  0  0  0  0  0  0  0  0  0  0
   -1.0323   -0.7500    0.0000 C   0  0  0  0  0  0  0  0  0  0  0  0
   -1.0323    0.7500    0.0000 C   0  0  0  0  0  0  0  0  0  0  0  0
  1  2  1  0
  2  3  2  0
  2  4  1  0
  4  5  2  0
  5  6  1  0
  6  7  1  0
  7  8  2  0
  8  9  1  0
  9 10  2  0
 10 11  1  0
 11 12  1  0
 12 13  1  0
 13 14  1  0
 14 15  1  0
 15 16  1  0
 10 17  1  0
 17 18  2  0
  6 19  1  0
 19 20  2  0
 20 21  1  0
 21 22  2  0
 22 23  1  0
 23 24  1  0
 24 25  1  0
 25 26  2  0
 26 27  1  0
 20  4  1  0
 27 23  2  0
 18  7  1  0
 27 19  1  0
 16 11  1  0
M  END
>  <Compound_ID>  (164) 
CHEMBL360480

>  <Active>  (164) 
1

>  <Smiles>  (164) 
NC(=O)c1nn(-c2ccc(N3CCOCC3)cc2)c2c1ccc1[nH]ncc12

>  <canonical_smi>  (164) 
NC(=O)c1nn(-c2ccc(N3CCOCC3)cc2)c2c1ccc1[nH]ncc12

>  <Set>  (164) 
G2 active

>  <Set_type>  (164) 
Train

>  <MW>  (164) 
362.39

>  <HBD>  (164) 
2

>  <HBA>  (164) 
5

>  <NRB>  (164) 
3

>  <NR>  (164) 
5

>  <NAR>  (164) 
4

>  <PSA>  (164) 
102.06

>  <Standard Type>  (164) 
nan

>  <Standard Relation>  (164) 
nan

>  <Standard Units>  (164) 
nan

>  <Standard Value>  (164) 
nan

>  <Assay ChEMBL ID>  (164) 
nan

>  <Assay Description>  (164) 
nan

>  <BAO Label>  (164) 
nan

$$$$

     RDKit          2D

 26 30  0  0  0  0  0  0  0  0999 V2000
   -0.0000   -5.1073    0.0000 O   0  0  0  0  0  0  0  0  0  0  0  0
   -0.0000   -3.6073    0.0000 C   0  0  0  0  0  0  0  0  0  0  0  0
    1.2135   -2.7256    0.0000 N   0  0  0  0  0  0  0  0  0  0  0  0
    0.7500   -1.2990    0.0000 C   0  0  0  0  0  0  0  0  0  0  0  0
    1.5000    0.0000    0.0000 C   0  0  0  0  0  0  0  0  0  0  0  0
    0.7500    1.2990    0.0000 C   0  0  0  0  0  0  0  0  0  0  0  0
   -0.7500    1.2990    0.0000 C   0  0  0  0  0  0  0  0  0  0  0  0
   -1.5000    2.5981    0.0000 F   0  0  0  0  0  0  0  0  0  0  0  0
   -1.5000    0.0000    0.0000 C   0  0  0  0  0  0  0  0  0  0  0  0
   -2.9769   -0.2986    0.0000 C   0  0  0  0  0  0  0  0  0  0  0  0
   -3.8586    0.9150    0.0000 S   0  0  0  0  0  0  0  0  0  0  0  0
   -5.3503    0.7582    0.0000 C   0  0  0  0  0  0  0  0  0  0  0  0
   -6.2320    1.9717    0.0000 C   0  0  0  0  0  0  0  0  0  0  0  0
   -7.7320    1.9717    0.0000 C   0  0  0  0  0  0  0  0  0  0  0  0
   -8.1955    3.3983    0.0000 C   0  0  0  0  0  0  0  0  0  0  0  0
   -6.9820    4.2799    0.0000 C   0  0  0  0  0  0  0  0  0  0  0  0
   -5.7685    3.3983    0.0000 N   0  0  0  0  0  0  0  0  0  0  0  0
   -3.5870   -1.6689    0.0000 C   0  0  0  0  0  0  0  0  0  0  0  0
   -2.7053   -2.8824    0.0000 C   0  0  0  0  0  0  0  0  0  0  0  0
   -3.3154   -4.2527    0.0000 C   0  0  0  0  0  0  0  0  0  0  0  0
   -2.5654   -5.5518    0.0000 C   0  0  0  0  0  0  0  0  0  0  0  0
   -3.5691   -6.6665    0.0000 C   0  0  0  0  0  0  0  0  0  0  0  0
   -4.9394   -6.0564    0.0000 C   0  0  0  0  0  0  0  0  0  0  0  0
   -4.7826   -4.5646    0.0000 N   0  0  0  0  0  0  0  0  0  0  0  0
   -1.2135   -2.7256    0.0000 C   0  0  0  0  0  0  0  0  0  0  0  0
   -0.7500   -1.2990    0.0000 C   0  0  0  0  0  0  0  0  0  0  0  0
  1  2  2  0
  2  3  1  0
  3  4  1  0
  4  5  2  0
  5  6  1  0
  6  7  2  0
  7  8  1  0
  7  9  1  0
  9 10  2  0
 10 11  1  0
 11 12  1  0
 13 12  1  6
 13 14  1  0
 14 15  1  0
 15 16  1  0
 16 17  1  0
 10 18  1  0
 18 19  2  0
 19 20  1  0
 20 21  2  0
 21 22  1  0
 22 23  2  0
 23 24  1  0
 19 25  1  0
 25 26  2  0
 25  2  1  0
 26  4  1  0
 26  9  1  0
 17 13  1  0
 24 20  1  0
M  END
>  <Compound_ID>  (165) 
CHEMBL442186

>  <Active>  (165) 
1

>  <Smiles>  (165) 
O=C1Nc2ccc(F)c3c(SC[C@@H]4CCCN4)cc(-c4ccc[nH]4)c1c23

>  <canonical_smi>  (165) 
O=C1Nc2ccc(F)c3c(SC[C@@H]4CCCN4)cc(-c4ccc[nH]4)c1c23

>  <Set>  (165) 
G2 active

>  <Set_type>  (165) 
Train

>  <MW>  (165) 
367.45

>  <HBD>  (165) 
3

>  <HBA>  (165) 
3

>  <NRB>  (165) 
4

>  <NR>  (165) 
5

>  <NAR>  (165) 
3

>  <PSA>  (165) 
56.92

>  <Standard Type>  (165) 
nan

>  <Standard Relation>  (165) 
nan

>  <Standard Units>  (165) 
nan

>  <Standard Value>  (165) 
nan

>  <Assay ChEMBL ID>  (165) 
nan

>  <Assay Description>  (165) 
nan

>  <BAO Label>  (165) 
nan

$$$$

     RDKit          2D

 27 30  0  0  0  0  0  0  0  0999 V2000
  -10.0849   -6.9740    0.0000 N   0  0  0  0  0  0  0  0  0  0  0  0
   -8.6583   -6.5105    0.0000 S   0  0  0  0  0  0  0  0  0  0  0  0
   -9.1218   -5.0839    0.0000 O   0  0  0  0  0  0  0  0  0  0  0  0
   -8.1948   -7.9371    0.0000 O   0  0  0  0  0  0  0  0  0  0  0  0
   -7.2317   -6.0469    0.0000 C   0  0  0  0  0  0  0  0  0  0  0  0
   -6.9199   -4.5797    0.0000 C   0  0  0  0  0  0  0  0  0  0  0  0
   -5.4933   -4.1162    0.0000 C   0  0  0  0  0  0  0  0  0  0  0  0
   -4.3786   -5.1199    0.0000 C   0  0  0  0  0  0  0  0  0  0  0  0
   -2.9520   -4.6564    0.0000 N   0  0  0  0  0  0  0  0  0  0  0  0
   -2.6401   -3.1891    0.0000 N   0  0  0  0  0  0  0  0  0  0  0  0
   -1.2135   -2.7256    0.0000 C   0  0  0  0  0  0  0  0  0  0  0  0
   -0.0000   -3.6073    0.0000 C   0  0  0  0  0  0  0  0  0  0  0  0
    0.0000   -5.1073    0.0000 O   0  0  0  0  0  0  0  0  0  0  0  0
    1.2135   -2.7256    0.0000 N   0  0  0  0  0  0  0  0  0  0  0  0
    0.7500   -1.2990    0.0000 C   0  0  0  0  0  0  0  0  0  0  0  0
    1.5000    0.0000    0.0000 C   0  0  0  0  0  0  0  0  0  0  0  0
    0.7500    1.2990    0.0000 C   0  0  0  0  0  0  0  0  0  0  0  0
   -0.7500    1.2990    0.0000 C   0  0  0  0  0  0  0  0  0  0  0  0
   -1.5000    0.0000    0.0000 C   0  0  0  0  0  0  0  0  0  0  0  0
   -3.0000    0.0000    0.0000 C   0  0  0  0  0  0  0  0  0  0  0  0
   -3.8817   -1.2135    0.0000 C   0  0  0  0  0  0  0  0  0  0  0  0
   -5.3083   -0.7500    0.0000 C   0  0  0  0  0  0  0  0  0  0  0  0
   -5.3083    0.7500    0.0000 N   0  0  0  0  0  0  0  0  0  0  0  0
   -3.8817    1.2135    0.0000 N   0  0  0  0  0  0  0  0  0  0  0  0
   -0.7500   -1.2990    0.0000 C   0  0  0  0  0  0  0  0  0  0  0  0
   -4.6904   -6.5871    0.0000 C   0  0  0  0  0  0  0  0  0  0  0  0
   -6.1170   -7.0506    0.0000 C   0  0  0  0  0  0  0  0  0  0  0  0
  1  2  1  0
  2  3  2  0
  2  4  2  0
  2  5  1  0
  5  6  2  0
  6  7  1  0
  7  8  2  0
  8  9  1  0
  9 10  2  3
 10 11  1  0
 11 12  2  0
 12 13  1  0
 12 14  1  0
 14 15  1  0
 15 16  2  0
 16 17  1  0
 17 18  2  0
 18 19  1  0
 19 20  1  0
 20 21  1  0
 21 22  2  0
 22 23  1  0
 23 24  1  0
 19 25  2  0
  8 26  1  0
 26 27  2  0
 27  5  1  0
 25 11  1  0
 25 15  1  0
 24 20  2  0
M  END
>  <Compound_ID>  (166) 
CHEMBL446409

>  <Active>  (166) 
1

>  <Smiles>  (166) 
NS(=O)(=O)c1ccc(N=Nc2c(O)[nH]c3cccc(-c4cc[nH]n4)c23)cc1

>  <canonical_smi>  (166) 
NS(=O)(=O)c1ccc(N=Nc2c(O)[nH]c3cccc(-c4cc[nH]n4)c23)cc1

>  <Set>  (166) 
G2 active

>  <Set_type>  (166) 
Train

>  <MW>  (166) 
382.41

>  <HBD>  (166) 
4

>  <HBA>  (166) 
4

>  <NRB>  (166) 
4

>  <NR>  (166) 
4

>  <NAR>  (166) 
4

>  <PSA>  (166) 
149.58

>  <Standard Type>  (166) 
nan

>  <Standard Relation>  (166) 
nan

>  <Standard Units>  (166) 
nan

>  <Standard Value>  (166) 
nan

>  <Assay ChEMBL ID>  (166) 
nan

>  <Assay Description>  (166) 
nan

>  <BAO Label>  (166) 
nan

$$$$

     RDKit          2D

 27 30  0  0  0  0  0  0  0  0999 V2000
  -10.0849   -6.9740    0.0000 N   0  0  0  0  0  0  0  0  0  0  0  0
   -8.6583   -6.5105    0.0000 S   0  0  0  0  0  0  0  0  0  0  0  0
   -9.1218   -5.0839    0.0000 O   0  0  0  0  0  0  0  0  0  0  0  0
   -8.1948   -7.9371    0.0000 O   0  0  0  0  0  0  0  0  0  0  0  0
   -7.2317   -6.0469    0.0000 C   0  0  0  0  0  0  0  0  0  0  0  0
   -6.9199   -4.5797    0.0000 C   0  0  0  0  0  0  0  0  0  0  0  0
   -5.4933   -4.1162    0.0000 C   0  0  0  0  0  0  0  0  0  0  0  0
   -4.3786   -5.1199    0.0000 C   0  0  0  0  0  0  0  0  0  0  0  0
   -2.9520   -4.6564    0.0000 N   0  0  0  0  0  0  0  0  0  0  0  0
   -2.6401   -3.1891    0.0000 N   0  0  0  0  0  0  0  0  0  0  0  0
   -1.2135   -2.7256    0.0000 C   0  0  0  0  0  0  0  0  0  0  0  0
   -0.0000   -3.6073    0.0000 C   0  0  0  0  0  0  0  0  0  0  0  0
    0.0000   -5.1073    0.0000 O   0  0  0  0  0  0  0  0  0  0  0  0
    1.2135   -2.7256    0.0000 N   0  0  0  0  0  0  0  0  0  0  0  0
    0.7500   -1.2990    0.0000 C   0  0  0  0  0  0  0  0  0  0  0  0
    1.5000    0.0000    0.0000 C   0  0  0  0  0  0  0  0  0  0  0  0
    0.7500    1.2990    0.0000 C   0  0  0  0  0  0  0  0  0  0  0  0
   -0.7500    1.2990    0.0000 C   0  0  0  0  0  0  0  0  0  0  0  0
   -1.5000    0.0000    0.0000 C   0  0  0  0  0  0  0  0  0  0  0  0
   -3.0000    0.0000    0.0000 C   0  0  0  0  0  0  0  0  0  0  0  0
   -3.8817   -1.2135    0.0000 C   0  0  0  0  0  0  0  0  0  0  0  0
   -5.3083   -0.7500    0.0000 C   0  0  0  0  0  0  0  0  0  0  0  0
   -5.3083    0.7500    0.0000 N   0  0  0  0  0  0  0  0  0  0  0  0
   -3.8817    1.2135    0.0000 N   0  0  0  0  0  0  0  0  0  0  0  0
   -0.7500   -1.2990    0.0000 C   0  0  0  0  0  0  0  0  0  0  0  0
   -4.6904   -6.5871    0.0000 C   0  0  0  0  0  0  0  0  0  0  0  0
   -6.1170   -7.0506    0.0000 C   0  0  0  0  0  0  0  0  0  0  0  0
  1  2  1  0
  2  3  2  0
  2  4  2  0
  2  5  1  0
  5  6  2  0
  6  7  1  0
  7  8  2  0
  8  9  1  0
  9 10  1  0
 10 11  2  0
 11 12  1  0
 12 13  2  0
 12 14  1  0
 14 15  1  0
 15 16  2  0
 16 17  1  0
 17 18  2  0
 18 19  1  0
 19 20  1  0
 20 21  1  0
 21 22  2  0
 22 23  1  0
 23 24  1  0
 19 25  2  0
  8 26  1  0
 26 27  2  0
 27  5  1  0
 25 11  1  0
 25 15  1  0
 24 20  2  0
M  END
>  <Compound_ID>  (167) 
CHEMBL272684

>  <Active>  (167) 
1

>  <Smiles>  (167) 
NS(=O)(=O)c1ccc(N/N=C2\C(=O)Nc3cccc(-c4cc[nH]n4)c32)cc1

>  <canonical_smi>  (167) 
NS(=O)(=O)c1ccc(N/N=C2\C(=O)Nc3cccc(-c4cc[nH]n4)c32)cc1

>  <Set>  (167) 
G2 active

>  <Set_type>  (167) 
Train

>  <MW>  (167) 
382.41

>  <HBD>  (167) 
4

>  <HBA>  (167) 
5

>  <NRB>  (167) 
4

>  <NR>  (167) 
4

>  <NAR>  (167) 
3

>  <PSA>  (167) 
142.33

>  <Standard Type>  (167) 
nan

>  <Standard Relation>  (167) 
nan

>  <Standard Units>  (167) 
nan

>  <Standard Value>  (167) 
nan

>  <Assay ChEMBL ID>  (167) 
nan

>  <Assay Description>  (167) 
nan

>  <BAO Label>  (167) 
nan

$$$$

     RDKit          2D

 32 35  0  0  0  0  0  0  0  0999 V2000
    1.8478   -6.4639    0.0000 C   0  0  0  0  0  0  0  0  0  0  0  0
    2.0046   -4.9721    0.0000 C   0  0  0  0  0  0  0  0  0  0  0  0
    3.3037   -4.2221    0.0000 N   0  0  0  0  0  0  0  0  0  0  0  0
    2.9918   -2.7549    0.0000 C   0  0  0  0  0  0  0  0  0  0  0  0
    1.5000   -2.5981    0.0000 C   0  0  0  0  0  0  0  0  0  0  0  0
    0.7500   -1.2990    0.0000 C   0  0  0  0  0  0  0  0  0  0  0  0
    1.5000    0.0000    0.0000 C   0  0  0  0  0  0  0  0  0  0  0  0
    0.7500    1.2990    0.0000 C   0  0  0  0  0  0  0  0  0  0  0  0
   -0.7500    1.2990    0.0000 N   0  0  0  0  0  0  0  0  0  0  0  0
   -1.5000    0.0000    0.0000 C   0  0  0  0  0  0  0  0  0  0  0  0
   -3.0000    0.0000    0.0000 N   0  0  0  0  0  0  0  0  0  0  0  0
   -3.7500    1.2990    0.0000 C   0  0  0  0  0  0  0  0  0  0  0  0
   -3.0000    2.5981    0.0000 C   0  0  0  0  0  0  0  0  0  0  0  0
   -3.7500    3.8971    0.0000 C   0  0  0  0  0  0  0  0  0  0  0  0
   -5.2500    3.8971    0.0000 C   0  0  0  0  0  0  0  0  0  0  0  0
   -6.0000    5.1962    0.0000 S   0  0  0  0  0  0  0  0  0  0  0  0
   -7.2990    4.4462    0.0000 O   0  0  0  0  0  0  0  0  0  0  0  0
   -4.7010    5.9462    0.0000 O   0  0  0  0  0  0  0  0  0  0  0  0
   -6.7500    6.4952    0.0000 C   0  0  0  0  0  0  0  0  0  0  0  0
   -8.2500    6.4952    0.0000 C   0  0  0  0  0  0  0  0  0  0  0  0
   -9.0000    7.7942    0.0000 C   0  0  0  0  0  0  0  0  0  0  0  0
  -10.5000    7.7942    0.0000 C   0  0  0  0  0  0  0  0  0  0  0  0
  -11.2500    6.4952    0.0000 C   0  0  0  0  0  0  0  0  0  0  0  0
  -10.5000    5.1962    0.0000 C   0  0  0  0  0  0  0  0  0  0  0  0
   -9.0000    5.1962    0.0000 C   0  0  0  0  0  0  0  0  0  0  0  0
   -6.0000    2.5981    0.0000 C   0  0  0  0  0  0  0  0  0  0  0  0
   -5.2500    1.2990    0.0000 C   0  0  0  0  0  0  0  0  0  0  0  0
   -0.7500   -1.2990    0.0000 N   0  0  0  0  0  0  0  0  0  0  0  0
    0.8899   -3.9684    0.0000 N   0  0  0  0  0  0  0  0  0  0  0  0
   -0.5773   -4.2803    0.0000 C   0  0  0  0  0  0  0  0  0  0  0  0
   -1.0409   -5.7068    0.0000 C   0  0  0  0  0  0  0  0  0  0  0  0
   -1.5810   -3.1655    0.0000 C   0  0  0  0  0  0  0  0  0  0  0  0
  1  2  1  0
  2  3  2  0
  3  4  1  0
  4  5  2  0
  5  6  1  0
  6  7  2  0
  7  8  1  0
  8  9  2  0
  9 10  1  0
 10 11  1  0
 11 12  1  0
 12 13  2  0
 13 14  1  0
 14 15  2  0
 15 16  1  0
 16 17  2  0
 16 18  2  0
 16 19  1  0
 19 20  1  0
 20 21  2  0
 21 22  1  0
 22 23  2  0
 23 24  1  0
 24 25  2  0
 15 26  1  0
 26 27  2  0
 10 28  2  0
  5 29  1  0
 29 30  1  0
 30 31  1  0
 30 32  1  0
 29  2  1  0
 28  6  1  0
 27 12  1  0
 25 20  1  0
M  END
>  <Compound_ID>  (168) 
CHEMBL457979

>  <Active>  (168) 
1

>  <Smiles>  (168) 
Cc1ncc(-c2ccnc(Nc3ccc(S(=O)(=O)Cc4ccccc4)cc3)n2)n1C(C)C

>  <canonical_smi>  (168) 
Cc1ncc(-c2ccnc(Nc3ccc(S(=O)(=O)Cc4ccccc4)cc3)n2)n1C(C)C

>  <Set>  (168) 
G2 active

>  <Set_type>  (168) 
Train

>  <MW>  (168) 
447.56

>  <HBD>  (168) 
1

>  <HBA>  (168) 
6

>  <NRB>  (168) 
7

>  <NR>  (168) 
4

>  <NAR>  (168) 
4

>  <PSA>  (168) 
89.77

>  <Standard Type>  (168) 
nan

>  <Standard Relation>  (168) 
nan

>  <Standard Units>  (168) 
nan

>  <Standard Value>  (168) 
nan

>  <Assay ChEMBL ID>  (168) 
nan

>  <Assay Description>  (168) 
nan

>  <BAO Label>  (168) 
nan

$$$$

     RDKit          2D

 20 22  0  0  0  0  0  0  0  0999 V2000
   -4.6613    6.0728    0.0000 N   0  0  0  0  0  0  0  0  0  0  0  0
   -3.2910    5.4627    0.0000 C   0  0  0  0  0  0  0  0  0  0  0  0
   -2.0774    6.3444    0.0000 O   0  0  0  0  0  0  0  0  0  0  0  0
   -3.1342    3.9709    0.0000 C   0  0  0  0  0  0  0  0  0  0  0  0
   -4.2489    2.9672    0.0000 N   0  0  0  0  0  0  0  0  0  0  0  0
   -3.6388    1.5969    0.0000 N   0  0  0  0  0  0  0  0  0  0  0  0
   -4.3888    0.2979    0.0000 C   0  0  0  0  0  0  0  0  0  0  0  0
   -5.8888    0.2979    0.0000 C   0  0  0  0  0  0  0  0  0  0  0  0
   -7.3888    0.2979    0.0000 F   0  0  0  0  0  0  0  0  0  0  0  0
   -5.8888   -1.2021    0.0000 F   0  0  0  0  0  0  0  0  0  0  0  0
   -5.8888    1.7979    0.0000 F   0  0  0  0  0  0  0  0  0  0  0  0
   -2.1470    1.7537    0.0000 C   0  0  0  0  0  0  0  0  0  0  0  0
   -1.8351    3.2209    0.0000 C   0  0  0  0  0  0  0  0  0  0  0  0
   -0.4086    3.6844    0.0000 C   0  0  0  0  0  0  0  0  0  0  0  0
    0.7062    2.6807    0.0000 C   0  0  0  0  0  0  0  0  0  0  0  0
    0.3943    1.2135    0.0000 C   0  0  0  0  0  0  0  0  0  0  0  0
    1.2760    0.0000    0.0000 N   0  0  0  0  0  0  0  0  0  0  0  0
    0.3943   -1.2135    0.0000 N   0  0  0  0  0  0  0  0  0  0  0  0
   -1.0323   -0.7500    0.0000 C   0  0  0  0  0  0  0  0  0  0  0  0
   -1.0323    0.7500    0.0000 C   0  0  0  0  0  0  0  0  0  0  0  0
  1  2  1  0
  2  3  2  0
  2  4  1  0
  4  5  2  0
  5  6  1  0
  6  7  1  0
  7  8  1  0
  8  9  1  0
  8 10  1  0
  8 11  1  0
  6 12  1  0
 12 13  2  0
 13 14  1  0
 14 15  1  0
 15 16  1  0
 16 17  2  0
 17 18  1  0
 18 19  1  0
 19 20  2  0
 13  4  1  0
 20 16  1  0
 20 12  1  0
M  END
>  <Compound_ID>  (169) 
CHEMBL181790

>  <Active>  (169) 
1

>  <Smiles>  (169) 
NC(=O)c1nn(CC(F)(F)F)c2c1CCc1n[nH]cc1-2

>  <canonical_smi>  (169) 
NC(=O)c1nn(CC(F)(F)F)c2c1CCc1n[nH]cc1-2

>  <Set>  (169) 
G2 active

>  <Set_type>  (169) 
Train

>  <MW>  (169) 
285.23

>  <HBD>  (169) 
2

>  <HBA>  (169) 
3

>  <NRB>  (169) 
2

>  <NR>  (169) 
3

>  <NAR>  (169) 
2

>  <PSA>  (169) 
89.59

>  <Standard Type>  (169) 
nan

>  <Standard Relation>  (169) 
nan

>  <Standard Units>  (169) 
nan

>  <Standard Value>  (169) 
nan

>  <Assay ChEMBL ID>  (169) 
nan

>  <Assay Description>  (169) 
nan

>  <BAO Label>  (169) 
nan

$$$$

     RDKit          2D

 28 31  0  0  0  0  0  0  0  0999 V2000
    0.7500   -3.8971    0.0000 C   0  0  0  0  0  0  0  0  0  0  0  0
    1.5000   -2.5981    0.0000 C   0  0  0  0  0  0  0  0  0  0  0  0
    3.0000   -2.5981    0.0000 C   0  0  0  0  0  0  0  0  0  0  0  0
    3.7500   -1.2990    0.0000 O   0  0  0  0  0  0  0  0  0  0  0  0
    3.7500   -3.8971    0.0000 N   0  0  0  0  0  0  0  0  0  0  0  0
    5.2500   -3.8971    0.0000 C   0  0  0  0  0  0  0  0  0  0  0  0
    6.1317   -2.6836    0.0000 C   0  0  0  0  0  0  0  0  0  0  0  0
    7.5583   -3.1471    0.0000 C   0  0  0  0  0  0  0  0  0  0  0  0
    8.7718   -2.2654    0.0000 C   0  0  0  0  0  0  0  0  0  0  0  0
    9.3819   -0.8951    0.0000 C   0  0  0  0  0  0  0  0  0  0  0  0
   10.2636   -2.1086    0.0000 C   0  0  0  0  0  0  0  0  0  0  0  0
    7.5583   -4.6471    0.0000 N   0  0  0  0  0  0  0  0  0  0  0  0
    6.1317   -5.1106    0.0000 N   0  0  0  0  0  0  0  0  0  0  0  0
    0.7500   -1.2990    0.0000 C   0  0  0  0  0  0  0  0  0  0  0  0
    1.5000    0.0000    0.0000 C   0  0  0  0  0  0  0  0  0  0  0  0
    0.7500    1.2990    0.0000 C   0  0  0  0  0  0  0  0  0  0  0  0
   -0.7500    1.2990    0.0000 C   0  0  0  0  0  0  0  0  0  0  0  0
   -1.5000    2.5981    0.0000 N   0  0  0  0  0  0  0  0  0  0  0  0
   -2.9918    2.7549    0.0000 C   0  0  0  0  0  0  0  0  0  0  0  0
   -3.3037    4.2221    0.0000 C   0  0  0  0  0  0  0  0  0  0  0  0
   -2.0046    4.9721    0.0000 C   0  0  0  0  0  0  0  0  0  0  0  0
   -1.8478    6.4639    0.0000 C   0  0  0  0  0  0  0  0  0  0  0  0
   -0.4775    7.0740    0.0000 N   0  0  0  0  0  0  0  0  0  0  0  0
   -3.0613    7.3456    0.0000 O   0  0  0  0  0  0  0  0  0  0  0  0
   -0.8899    3.9684    0.0000 C   0  0  0  0  0  0  0  0  0  0  0  0
    0.5773    4.2803    0.0000 O   0  0  0  0  0  0  0  0  0  0  0  0
   -1.5000    0.0000    0.0000 C   0  0  0  0  0  0  0  0  0  0  0  0
   -0.7500   -1.2990    0.0000 C   0  0  0  0  0  0  0  0  0  0  0  0
  1  2  1  0
  2  3  1  0
  3  4  2  0
  3  5  1  0
  5  6  1  0
  6  7  1  0
  7  8  2  0
  8  9  1  0
  9 10  1  0
 10 11  1  0
  8 12  1  0
 12 13  1  0
  2 14  1  0
 14 15  2  0
 15 16  1  0
 16 17  2  0
 17 18  1  0
 18 19  1  0
 19 20  1  0
 20 21  1  0
 21 22  1  0
 22 23  1  0
 22 24  2  0
 21 25  1  0
 25 26  2  0
 17 27  1  0
 27 28  2  0
 13  6  2  0
 28 14  1  0
 11  9  1  0
 25 18  1  0
M  END
>  <Compound_ID>  (170) 
CHEMBL192556

>  <Active>  (170) 
1

>  <Smiles>  (170) 
CC(C(=O)Nc1cc(C2CC2)[nH]n1)c1ccc(N2CCC(C(N)=O)C2=O)cc1

>  <canonical_smi>  (170) 
CC(C(=O)Nc1cc(C2CC2)[nH]n1)c1ccc(N2CCC(C(N)=O)C2=O)cc1

>  <Set>  (170) 
G2 active

>  <Set_type>  (170) 
Train

>  <MW>  (170) 
381.44

>  <HBD>  (170) 
3

>  <HBA>  (170) 
4

>  <NRB>  (170) 
6

>  <NR>  (170) 
4

>  <NAR>  (170) 
2

>  <PSA>  (170) 
121.18

>  <Standard Type>  (170) 
nan

>  <Standard Relation>  (170) 
nan

>  <Standard Units>  (170) 
nan

>  <Standard Value>  (170) 
nan

>  <Assay ChEMBL ID>  (170) 
nan

>  <Assay Description>  (170) 
nan

>  <BAO Label>  (170) 
nan

$$$$

     RDKit          2D

 30 34  0  0  0  0  0  0  0  0999 V2000
   -3.0000   -5.1962    0.0000 O   0  0  0  0  0  0  0  0  0  0  0  0
   -3.7500   -3.8971    0.0000 C   0  0  0  0  0  0  0  0  0  0  0  0
   -3.0000   -2.5981    0.0000 C   0  0  0  0  0  0  0  0  0  0  0  0
   -1.5000   -2.5981    0.0000 C   0  0  0  0  0  0  0  0  0  0  0  0
   -0.7500   -3.8971    0.0000 C   0  0  0  0  0  0  0  0  0  0  0  0
    0.7500   -3.8971    0.0000 C   0  0  0  0  0  0  0  0  0  0  0  0
    1.5000   -2.5981    0.0000 C   0  0  0  0  0  0  0  0  0  0  0  0
    0.7500   -1.2990    0.0000 C   0  0  0  0  0  0  0  0  0  0  0  0
    1.5000    0.0000    0.0000 C   0  0  0  0  0  0  0  0  0  0  0  0
    0.7500    1.2990    0.0000 C   0  0  0  0  0  0  0  0  0  0  0  0
   -0.7500    1.2990    0.0000 C   0  0  0  0  0  0  0  0  0  0  0  0
   -1.5000    0.0000    0.0000 C   0  0  0  0  0  0  0  0  0  0  0  0
   -0.7500   -1.2990    0.0000 C   0  0  0  0  0  0  0  0  0  0  0  0
   -5.2500   -3.8971    0.0000 N   0  0  0  0  0  0  0  0  0  0  0  0
   -6.0000   -5.1962    0.0000 C   0  0  0  0  0  0  0  0  0  0  0  0
   -5.3899   -6.5665    0.0000 N   0  0  0  0  0  0  0  0  0  0  0  0
   -6.5046   -7.5702    0.0000 N   0  0  0  0  0  0  0  0  0  0  0  0
   -7.8037   -6.8202    0.0000 C   0  0  0  0  0  0  0  0  0  0  0  0
   -9.2302   -7.2837    0.0000 C   0  0  0  0  0  0  0  0  0  0  0  0
  -10.3450   -6.2800    0.0000 C   0  0  0  0  0  0  0  0  0  0  0  0
  -10.0331   -4.8128    0.0000 C   0  0  0  0  0  0  0  0  0  0  0  0
  -11.1478   -3.8091    0.0000 N   0  0  0  0  0  0  0  0  0  0  0  0
  -12.6150   -4.1209    0.0000 C   0  0  0  0  0  0  0  0  0  0  0  0
  -13.3650   -2.8219    0.0000 C   0  0  0  0  0  0  0  0  0  0  0  0
  -12.3613   -1.7072    0.0000 C   0  0  0  0  0  0  0  0  0  0  0  0
  -10.9910   -2.3173    0.0000 S   0  0  0  0  0  0  0  0  0  0  0  0
  -10.5275   -0.8907    0.0000 O   0  0  0  0  0  0  0  0  0  0  0  0
   -9.5238   -2.6292    0.0000 O   0  0  0  0  0  0  0  0  0  0  0  0
   -8.6065   -4.3492    0.0000 C   0  0  0  0  0  0  0  0  0  0  0  0
   -7.4918   -5.3529    0.0000 C   0  0  0  0  0  0  0  0  0  0  0  0
  1  2  2  0
  2  3  1  0
  3  4  1  0
  4  5  2  0
  5  6  1  0
  6  7  2  0
  7  8  1  0
  8  9  2  0
  9 10  1  0
 10 11  2  0
 11 12  1  0
 12 13  2  0
  2 14  1  0
 14 15  1  0
 15 16  2  0
 16 17  1  0
 17 18  1  0
 18 19  2  0
 19 20  1  0
 20 21  2  0
 21 22  1  0
 22 23  1  0
 23 24  1  0
 24 25  1  0
 25 26  1  0
 26 27  2  0
 26 28  2  0
 21 29  1  0
 29 30  2  0
 13  4  1  0
 30 15  1  0
 13  8  1  0
 30 18  1  0
 26 22  1  0
M  END
>  <Compound_ID>  (171) 
CHEMBL254367

>  <Active>  (171) 
1

>  <Smiles>  (171) 
O=C(Cc1cccc2ccccc12)Nc1n[nH]c2ccc(N3CCCS3(=O)=O)cc12

>  <canonical_smi>  (171) 
O=C(Cc1cccc2ccccc12)Nc1n[nH]c2ccc(N3CCCS3(=O)=O)cc12

>  <Set>  (171) 
G2 active

>  <Set_type>  (171) 
Train

>  <MW>  (171) 
420.49

>  <HBD>  (171) 
2

>  <HBA>  (171) 
4

>  <NRB>  (171) 
4

>  <NR>  (171) 
5

>  <NAR>  (171) 
4

>  <PSA>  (171) 
95.16

>  <Standard Type>  (171) 
nan

>  <Standard Relation>  (171) 
nan

>  <Standard Units>  (171) 
nan

>  <Standard Value>  (171) 
nan

>  <Assay ChEMBL ID>  (171) 
nan

>  <Assay Description>  (171) 
nan

>  <BAO Label>  (171) 
nan

$$$$

     RDKit          2D

 18 20  0  0  0  0  0  0  0  0999 V2000
    3.7500   -1.2990    0.0000 C   0  0  0  0  0  0  0  0  0  0  0  0
    3.0000    0.0000    0.0000 O   0  0  0  0  0  0  0  0  0  0  0  0
    1.5000    0.0000    0.0000 C   0  0  0  0  0  0  0  0  0  0  0  0
    0.7500   -1.2990    0.0000 C   0  0  0  0  0  0  0  0  0  0  0  0
   -0.7500   -1.2990    0.0000 C   0  0  0  0  0  0  0  0  0  0  0  0
   -1.5000    0.0000    0.0000 C   0  0  0  0  0  0  0  0  0  0  0  0
   -3.0000    0.0000    0.0000 N   0  0  0  0  0  0  0  0  0  0  0  0
   -3.7500    1.2990    0.0000 C   0  0  0  0  0  0  0  0  0  0  0  0
   -5.2172    1.6109    0.0000 N   0  0  0  0  0  0  0  0  0  0  0  0
   -5.3740    3.1027    0.0000 N   0  0  0  0  0  0  0  0  0  0  0  0
   -4.0037    3.7128    0.0000 C   0  0  0  0  0  0  0  0  0  0  0  0
   -3.6918    5.1800    0.0000 C   0  0  0  0  0  0  0  0  0  0  0  0
   -3.0000    2.5981    0.0000 C   0  0  0  0  0  0  0  0  0  0  0  0
   -1.5000    2.5981    0.0000 C   0  0  0  0  0  0  0  0  0  0  0  0
   -0.7500    3.8971    0.0000 O   0  0  0  0  0  0  0  0  0  0  0  0
    0.7500    3.8971    0.0000 C   0  0  0  0  0  0  0  0  0  0  0  0
   -0.7500    1.2990    0.0000 C   0  0  0  0  0  0  0  0  0  0  0  0
    0.7500    1.2990    0.0000 C   0  0  0  0  0  0  0  0  0  0  0  0
  1  2  1  0
  2  3  1  0
  3  4  2  0
  4  5  1  0
  5  6  2  0
  6  7  1  0
  7  8  2  0
  8  9  1  0
  9 10  1  0
 10 11  2  0
 11 12  1  0
 11 13  1  0
 13 14  2  0
 14 15  1  0
 15 16  1  0
 14 17  1  0
 17 18  2  0
 18  3  1  0
 17  6  1  0
 13  8  1  0
M  END
>  <Compound_ID>  (172) 
CHEMBL603097

>  <Active>  (172) 
1

>  <Smiles>  (172) 
COc1ccc2nc3[nH]nc(C)c3c(OC)c2c1

>  <canonical_smi>  (172) 
COc1ccc2nc3[nH]nc(C)c3c(OC)c2c1

>  <Set>  (172) 
G2 active

>  <Set_type>  (172) 
Train

>  <MW>  (172) 
243.27

>  <HBD>  (172) 
1

>  <HBA>  (172) 
4

>  <NRB>  (172) 
2

>  <NR>  (172) 
3

>  <NAR>  (172) 
3

>  <PSA>  (172) 
60.03

>  <Standard Type>  (172) 
nan

>  <Standard Relation>  (172) 
nan

>  <Standard Units>  (172) 
nan

>  <Standard Value>  (172) 
nan

>  <Assay ChEMBL ID>  (172) 
nan

>  <Assay Description>  (172) 
nan

>  <BAO Label>  (172) 
nan

$$$$

     RDKit          2D

 28 31  0  0  0  0  0  0  0  0999 V2000
   -1.3905   11.5607    0.0000 F   0  0  0  0  0  0  0  0  0  0  0  0
   -1.7024   10.0935    0.0000 C   0  0  0  0  0  0  0  0  0  0  0  0
   -0.2352    9.7816    0.0000 F   0  0  0  0  0  0  0  0  0  0  0  0
   -3.1696   10.4054    0.0000 F   0  0  0  0  0  0  0  0  0  0  0  0
   -2.0143    8.6263    0.0000 C   0  0  0  0  0  0  0  0  0  0  0  0
   -0.8995    7.6226    0.0000 C   0  0  0  0  0  0  0  0  0  0  0  0
   -1.2114    6.1554    0.0000 N   0  0  0  0  0  0  0  0  0  0  0  0
   -2.6380    5.6918    0.0000 C   0  0  0  0  0  0  0  0  0  0  0  0
   -2.9499    4.2246    0.0000 N   0  0  0  0  0  0  0  0  0  0  0  0
   -1.8351    3.2209    0.0000 C   0  0  0  0  0  0  0  0  0  0  0  0
   -0.4086    3.6844    0.0000 C   0  0  0  0  0  0  0  0  0  0  0  0
    0.7062    2.6807    0.0000 C   0  0  0  0  0  0  0  0  0  0  0  0
    0.3943    1.2135    0.0000 C   0  0  0  0  0  0  0  0  0  0  0  0
    1.2760    0.0000    0.0000 N   0  0  0  0  0  0  0  0  0  0  0  0
    0.3943   -1.2135    0.0000 C   0  0  0  0  0  0  0  0  0  0  0  0
   -1.0323   -0.7500    0.0000 N   0  0  0  0  0  0  0  0  0  0  0  0
   -1.0323    0.7500    0.0000 C   0  0  0  0  0  0  0  0  0  0  0  0
   -2.1470    1.7537    0.0000 C   0  0  0  0  0  0  0  0  0  0  0  0
   -3.7527    6.6955    0.0000 N   0  0  0  0  0  0  0  0  0  0  0  0
   -3.4408    8.1628    0.0000 C   0  0  0  0  0  0  0  0  0  0  0  0
   -4.5556    9.1664    0.0000 N   0  0  0  0  0  0  0  0  0  0  0  0
   -5.9821    8.7029    0.0000 C   0  0  0  0  0  0  0  0  0  0  0  0
   -7.0969    9.7066    0.0000 C   0  0  0  0  0  0  0  0  0  0  0  0
   -8.5234    9.2431    0.0000 C   0  0  0  0  0  0  0  0  0  0  0  0
   -8.8353    7.7759    0.0000 C   0  0  0  0  0  0  0  0  0  0  0  0
   -7.7206    6.7722    0.0000 C   0  0  0  0  0  0  0  0  0  0  0  0
   -6.2940    7.2357    0.0000 C   0  0  0  0  0  0  0  0  0  0  0  0
   -5.1793    6.2320    0.0000 Cl  0  0  0  0  0  0  0  0  0  0  0  0
  1  2  1  0
  2  3  1  0
  2  4  1  0
  2  5  1  0
  5  6  2  0
  6  7  1  0
  7  8  2  0
  8  9  1  0
  9 10  1  0
 10 11  2  0
 11 12  1  0
 12 13  2  0
 13 14  1  0
 14 15  1  0
 15 16  2  0
 16 17  1  0
 17 18  2  0
  8 19  1  0
 19 20  2  0
 20 21  1  0
 21 22  1  0
 22 23  2  0
 23 24  1  0
 24 25  2  0
 25 26  1  0
 26 27  2  0
 27 28  1  0
 20  5  1  0
 27 22  1  0
 18 10  1  0
 17 13  1  0
M  END
>  <Compound_ID>  (173) 
CHEMBL194721

>  <Active>  (173) 
1

>  <Smiles>  (173) 
FC(F)(F)c1cnc(Nc2ccc3[nH]cnc3c2)nc1Nc1ccccc1Cl

>  <canonical_smi>  (173) 
FC(F)(F)c1cnc(Nc2ccc3[nH]cnc3c2)nc1Nc1ccccc1Cl

>  <Set>  (173) 
G2 active

>  <Set_type>  (173) 
Train

>  <MW>  (173) 
404.78

>  <HBD>  (173) 
3

>  <HBA>  (173) 
5

>  <NRB>  (173) 
4

>  <NR>  (173) 
4

>  <NAR>  (173) 
4

>  <PSA>  (173) 
78.52

>  <Standard Type>  (173) 
nan

>  <Standard Relation>  (173) 
nan

>  <Standard Units>  (173) 
nan

>  <Standard Value>  (173) 
nan

>  <Assay ChEMBL ID>  (173) 
nan

>  <Assay Description>  (173) 
nan

>  <BAO Label>  (173) 
nan

$$$$

     RDKit          2D

 31 35  0  0  0  0  0  0  0  0999 V2000
   -8.5234   -7.7536    0.0000 C   0  0  0  0  0  0  0  0  0  0  0  0
   -7.0317   -7.5968    0.0000 O   0  0  0  0  0  0  0  0  0  0  0  0
   -6.4216   -6.2265    0.0000 C   0  0  0  0  0  0  0  0  0  0  0  0
   -7.3032   -5.0129    0.0000 C   0  0  0  0  0  0  0  0  0  0  0  0
   -6.6931   -3.6426    0.0000 C   0  0  0  0  0  0  0  0  0  0  0  0
   -5.2013   -3.4858    0.0000 C   0  0  0  0  0  0  0  0  0  0  0  0
   -4.5912   -2.1155    0.0000 C   0  0  0  0  0  0  0  0  0  0  0  0
   -5.3412   -0.8165    0.0000 N   0  0  0  0  0  0  0  0  0  0  0  0
   -4.3375    0.2982    0.0000 N   0  0  0  0  0  0  0  0  0  0  0  0
   -2.9672   -0.3119    0.0000 C   0  0  0  0  0  0  0  0  0  0  0  0
   -3.1240   -1.8037    0.0000 C   0  0  0  0  0  0  0  0  0  0  0  0
   -1.7537   -2.4138    0.0000 C   0  0  0  0  0  0  0  0  0  0  0  0
   -1.4418   -3.8810    0.0000 O   0  0  0  0  0  0  0  0  0  0  0  0
   -0.7500   -1.2990    0.0000 C   0  0  0  0  0  0  0  0  0  0  0  0
    0.7500   -1.2990    0.0000 C   0  0  0  0  0  0  0  0  0  0  0  0
    1.5000   -2.5981    0.0000 N   0  0  0  0  0  0  0  0  0  0  0  0
    3.0000   -2.5981    0.0000 C   0  0  0  0  0  0  0  0  0  0  0  0
    3.7500   -1.2990    0.0000 O   0  0  0  0  0  0  0  0  0  0  0  0
    3.7500   -3.8971    0.0000 C   0  0  0  0  0  0  0  0  0  0  0  0
    5.2500   -3.8971    0.0000 N   0  0  0  0  0  0  0  0  0  0  0  0
    6.0000   -5.1962    0.0000 C   0  0  0  0  0  0  0  0  0  0  0  0
    7.5000   -5.1962    0.0000 C   0  0  0  0  0  0  0  0  0  0  0  0
    8.2500   -3.8971    0.0000 O   0  0  0  0  0  0  0  0  0  0  0  0
    7.5000   -2.5981    0.0000 C   0  0  0  0  0  0  0  0  0  0  0  0
    6.0000   -2.5981    0.0000 C   0  0  0  0  0  0  0  0  0  0  0  0
    1.5000    0.0000    0.0000 C   0  0  0  0  0  0  0  0  0  0  0  0
    0.7500    1.2990    0.0000 C   0  0  0  0  0  0  0  0  0  0  0  0
   -0.7500    1.2990    0.0000 C   0  0  0  0  0  0  0  0  0  0  0  0
   -1.5000    0.0000    0.0000 C   0  0  0  0  0  0  0  0  0  0  0  0
   -4.3197   -4.6994    0.0000 C   0  0  0  0  0  0  0  0  0  0  0  0
   -4.9298   -6.0697    0.0000 C   0  0  0  0  0  0  0  0  0  0  0  0
  1  2  1  0
  2  3  1  0
  3  4  2  0
  4  5  1  0
  5  6  2  0
  6  7  1  0
  7  8  1  0
  8  9  1  0
  9 10  2  0
 10 11  1  0
 11 12  1  0
 12 13  2  0
 12 14  1  0
 14 15  2  0
 15 16  1  0
 16 17  1  0
 17 18  2  0
 17 19  1  0
 19 20  1  0
 20 21  1  0
 21 22  1  0
 22 23  1  0
 23 24  1  0
 24 25  1  0
 15 26  1  0
 26 27  2  0
 27 28  1  0
 28 29  2  0
  6 30  1  0
 30 31  2  0
 31  3  1  0
 11  7  2  0
 29 14  1  0
 29 10  1  0
 25 20  1  0
M  END
>  <Compound_ID>  (174) 
CHEMBL434081

>  <Active>  (174) 
1

>  <Smiles>  (174) 
COc1ccc(-c2[nH]nc3c2C(=O)c2c(NC(=O)CN4CCOCC4)cccc2-3)cc1

>  <canonical_smi>  (174) 
COc1ccc(-c2[nH]nc3c2C(=O)c2c(NC(=O)CN4CCOCC4)cccc2-3)cc1

>  <Set>  (174) 
G2 active

>  <Set_type>  (174) 
Train

>  <MW>  (174) 
418.45

>  <HBD>  (174) 
2

>  <HBA>  (174) 
6

>  <NRB>  (174) 
5

>  <NR>  (174) 
5

>  <NAR>  (174) 
4

>  <PSA>  (174) 
96.55

>  <Standard Type>  (174) 
nan

>  <Standard Relation>  (174) 
nan

>  <Standard Units>  (174) 
nan

>  <Standard Value>  (174) 
nan

>  <Assay ChEMBL ID>  (174) 
nan

>  <Assay Description>  (174) 
nan

>  <BAO Label>  (174) 
nan

$$$$

     RDKit          2D

 30 33  0  0  0  0  0  0  0  0999 V2000
  -10.0849   -6.9740    0.0000 N   0  0  0  0  0  0  0  0  0  0  0  0
   -8.6583   -6.5105    0.0000 S   0  0  0  0  0  0  0  0  0  0  0  0
   -9.1218   -5.0839    0.0000 O   0  0  0  0  0  0  0  0  0  0  0  0
   -8.1948   -7.9371    0.0000 O   0  0  0  0  0  0  0  0  0  0  0  0
   -7.2317   -6.0469    0.0000 C   0  0  0  0  0  0  0  0  0  0  0  0
   -6.9199   -4.5797    0.0000 C   0  0  0  0  0  0  0  0  0  0  0  0
   -5.4933   -4.1162    0.0000 C   0  0  0  0  0  0  0  0  0  0  0  0
   -4.3786   -5.1199    0.0000 C   0  0  0  0  0  0  0  0  0  0  0  0
   -2.9520   -4.6564    0.0000 N   0  0  0  0  0  0  0  0  0  0  0  0
   -2.6401   -3.1891    0.0000 N   0  0  0  0  0  0  0  0  0  0  0  0
   -1.2135   -2.7256    0.0000 C   0  0  0  0  0  0  0  0  0  0  0  0
   -0.0000   -3.6073    0.0000 C   0  0  0  0  0  0  0  0  0  0  0  0
    0.0000   -5.1073    0.0000 O   0  0  0  0  0  0  0  0  0  0  0  0
    1.2135   -2.7256    0.0000 N   0  0  0  0  0  0  0  0  0  0  0  0
    0.7500   -1.2990    0.0000 C   0  0  0  0  0  0  0  0  0  0  0  0
    1.5000    0.0000    0.0000 C   0  0  0  0  0  0  0  0  0  0  0  0
    0.7500    1.2990    0.0000 C   0  0  0  0  0  0  0  0  0  0  0  0
   -0.7500    1.2990    0.0000 C   0  0  0  0  0  0  0  0  0  0  0  0
   -1.5000    0.0000    0.0000 C   0  0  0  0  0  0  0  0  0  0  0  0
   -3.0000    0.0000    0.0000 C   0  0  0  0  0  0  0  0  0  0  0  0
   -3.7500    1.2990    0.0000 C   0  0  0  0  0  0  0  0  0  0  0  0
   -5.2500    1.2990    0.0000 C   0  0  0  0  0  0  0  0  0  0  0  0
   -6.0000    2.5981    0.0000 C   0  0  0  0  0  0  0  0  0  0  0  0
   -7.5000    2.5981    0.0000 C   0  0  0  0  0  0  0  0  0  0  0  0
   -8.2500    1.2990    0.0000 N   0  0  0  0  0  0  0  0  0  0  0  0
   -7.5000    0.0000    0.0000 C   0  0  0  0  0  0  0  0  0  0  0  0
   -6.0000    0.0000    0.0000 C   0  0  0  0  0  0  0  0  0  0  0  0
   -0.7500   -1.2990    0.0000 C   0  0  0  0  0  0  0  0  0  0  0  0
   -4.6904   -6.5871    0.0000 C   0  0  0  0  0  0  0  0  0  0  0  0
   -6.1170   -7.0506    0.0000 C   0  0  0  0  0  0  0  0  0  0  0  0
  1  2  1  0
  2  3  2  0
  2  4  2  0
  2  5  1  0
  5  6  2  0
  6  7  1  0
  7  8  2  0
  8  9  1  0
  9 10  2  3
 10 11  1  0
 11 12  2  0
 12 13  1  0
 12 14  1  0
 14 15  1  0
 15 16  2  0
 16 17  1  0
 17 18  2  0
 18 19  1  0
 19 20  1  0
 20 21  1  0
 21 22  1  0
 22 23  2  0
 23 24  1  0
 24 25  2  0
 25 26  1  0
 26 27  2  0
 19 28  2  0
  8 29  1  0
 29 30  2  0
 30  5  1  0
 28 11  1  0
 28 15  1  0
 27 22  1  0
M  END
>  <Compound_ID>  (175) 
CHEMBL315486

>  <Active>  (175) 
1

>  <Smiles>  (175) 
NS(=O)(=O)c1ccc(N=Nc2c(O)[nH]c3cccc(CCc4ccncc4)c23)cc1

>  <canonical_smi>  (175) 
NS(=O)(=O)c1ccc(N=Nc2c(O)[nH]c3cccc(CCc4ccncc4)c23)cc1

>  <Set>  (175) 
G2 active

>  <Set_type>  (175) 
Train

>  <MW>  (175) 
421.48

>  <HBD>  (175) 
3

>  <HBA>  (175) 
4

>  <NRB>  (175) 
6

>  <NR>  (175) 
4

>  <NAR>  (175) 
4

>  <PSA>  (175) 
133.79

>  <Standard Type>  (175) 
nan

>  <Standard Relation>  (175) 
nan

>  <Standard Units>  (175) 
nan

>  <Standard Value>  (175) 
nan

>  <Assay ChEMBL ID>  (175) 
nan

>  <Assay Description>  (175) 
nan

>  <BAO Label>  (175) 
nan

$$$$

     RDKit          2D

 31 34  0  0  0  0  0  0  0  0999 V2000
  -10.0849   -6.9740    0.0000 N   0  0  0  0  0  0  0  0  0  0  0  0
   -8.6583   -6.5105    0.0000 S   0  0  0  0  0  0  0  0  0  0  0  0
   -9.1218   -5.0839    0.0000 O   0  0  0  0  0  0  0  0  0  0  0  0
   -8.1948   -7.9371    0.0000 O   0  0  0  0  0  0  0  0  0  0  0  0
   -7.2317   -6.0469    0.0000 C   0  0  0  0  0  0  0  0  0  0  0  0
   -6.9199   -4.5797    0.0000 C   0  0  0  0  0  0  0  0  0  0  0  0
   -5.4933   -4.1162    0.0000 C   0  0  0  0  0  0  0  0  0  0  0  0
   -4.3786   -5.1199    0.0000 C   0  0  0  0  0  0  0  0  0  0  0  0
   -2.9520   -4.6564    0.0000 N   0  0  0  0  0  0  0  0  0  0  0  0
   -2.6401   -3.1891    0.0000 N   0  0  0  0  0  0  0  0  0  0  0  0
   -1.2135   -2.7256    0.0000 C   0  0  0  0  0  0  0  0  0  0  0  0
   -0.0000   -3.6073    0.0000 C   0  0  0  0  0  0  0  0  0  0  0  0
    0.0000   -5.1073    0.0000 O   0  0  0  0  0  0  0  0  0  0  0  0
    1.2135   -2.7256    0.0000 N   0  0  0  0  0  0  0  0  0  0  0  0
    0.7500   -1.2990    0.0000 C   0  0  0  0  0  0  0  0  0  0  0  0
    1.5000    0.0000    0.0000 C   0  0  0  0  0  0  0  0  0  0  0  0
    0.7500    1.2990    0.0000 C   0  0  0  0  0  0  0  0  0  0  0  0
   -0.7500    1.2990    0.0000 C   0  0  0  0  0  0  0  0  0  0  0  0
   -1.5000    0.0000    0.0000 C   0  0  0  0  0  0  0  0  0  0  0  0
   -3.0000    0.0000    0.0000 O   0  0  0  0  0  0  0  0  0  0  0  0
   -3.7500    1.2990    0.0000 C   0  0  0  0  0  0  0  0  0  0  0  0
   -5.2500    1.2990    0.0000 C   0  0  0  0  0  0  0  0  0  0  0  0
   -6.0000    2.5981    0.0000 C   0  0  0  0  0  0  0  0  0  0  0  0
   -5.2500    3.8971    0.0000 C   0  0  0  0  0  0  0  0  0  0  0  0
   -6.0000    5.1962    0.0000 C   0  0  0  0  0  0  0  0  0  0  0  0
   -7.5000    5.1962    0.0000 N   0  0  0  0  0  0  0  0  0  0  0  0
   -8.2500    3.8971    0.0000 C   0  0  0  0  0  0  0  0  0  0  0  0
   -7.5000    2.5981    0.0000 C   0  0  0  0  0  0  0  0  0  0  0  0
   -0.7500   -1.2990    0.0000 C   0  0  0  0  0  0  0  0  0  0  0  0
   -4.6904   -6.5871    0.0000 C   0  0  0  0  0  0  0  0  0  0  0  0
   -6.1170   -7.0506    0.0000 C   0  0  0  0  0  0  0  0  0  0  0  0
  1  2  1  0
  2  3  2  0
  2  4  2  0
  2  5  1  0
  5  6  2  0
  6  7  1  0
  7  8  2  0
  8  9  1  0
  9 10  1  0
 10 11  2  0
 11 12  1  0
 12 13  2  0
 12 14  1  0
 14 15  1  0
 15 16  2  0
 16 17  1  0
 17 18  2  0
 18 19  1  0
 19 20  1  0
 20 21  1  0
 21 22  1  0
 22 23  1  0
 23 24  2  0
 24 25  1  0
 25 26  2  0
 26 27  1  0
 27 28  2  0
 19 29  2  0
  8 30  1  0
 30 31  2  0
 31  5  1  0
 29 11  1  0
 29 15  1  0
 28 23  1  0
M  END
>  <Compound_ID>  (176) 
CHEMBL272217

>  <Active>  (176) 
1

>  <Smiles>  (176) 
NS(=O)(=O)c1ccc(N/N=C2\C(=O)Nc3cccc(OCCc4ccncc4)c32)cc1

>  <canonical_smi>  (176) 
NS(=O)(=O)c1ccc(N/N=C2\C(=O)Nc3cccc(OCCc4ccncc4)c32)cc1

>  <Set>  (176) 
G2 active

>  <Set_type>  (176) 
Train

>  <MW>  (176) 
437.48

>  <HBD>  (176) 
3

>  <HBA>  (176) 
6

>  <NRB>  (176) 
7

>  <NR>  (176) 
4

>  <NAR>  (176) 
3

>  <PSA>  (176) 
135.77

>  <Standard Type>  (176) 
nan

>  <Standard Relation>  (176) 
nan

>  <Standard Units>  (176) 
nan

>  <Standard Value>  (176) 
nan

>  <Assay ChEMBL ID>  (176) 
nan

>  <Assay Description>  (176) 
nan

>  <BAO Label>  (176) 
nan

$$$$

     RDKit          2D

 31 35  0  0  0  0  0  0  0  0999 V2000
   -8.5234   -7.7536    0.0000 C   0  0  0  0  0  0  0  0  0  0  0  0
   -7.0317   -7.5968    0.0000 O   0  0  0  0  0  0  0  0  0  0  0  0
   -6.4216   -6.2265    0.0000 C   0  0  0  0  0  0  0  0  0  0  0  0
   -7.3032   -5.0129    0.0000 C   0  0  0  0  0  0  0  0  0  0  0  0
   -6.6931   -3.6426    0.0000 C   0  0  0  0  0  0  0  0  0  0  0  0
   -5.2013   -3.4858    0.0000 C   0  0  0  0  0  0  0  0  0  0  0  0
   -4.5912   -2.1155    0.0000 C   0  0  0  0  0  0  0  0  0  0  0  0
   -5.3412   -0.8165    0.0000 N   0  0  0  0  0  0  0  0  0  0  0  0
   -4.3375    0.2982    0.0000 N   0  0  0  0  0  0  0  0  0  0  0  0
   -2.9672   -0.3119    0.0000 C   0  0  0  0  0  0  0  0  0  0  0  0
   -3.1240   -1.8037    0.0000 C   0  0  0  0  0  0  0  0  0  0  0  0
   -1.7537   -2.4138    0.0000 C   0  0  0  0  0  0  0  0  0  0  0  0
   -1.4418   -3.8810    0.0000 O   0  0  0  0  0  0  0  0  0  0  0  0
   -0.7500   -1.2990    0.0000 C   0  0  0  0  0  0  0  0  0  0  0  0
    0.7500   -1.2990    0.0000 C   0  0  0  0  0  0  0  0  0  0  0  0
    1.5000   -2.5981    0.0000 N   0  0  0  0  0  0  0  0  0  0  0  0
    3.0000   -2.5981    0.0000 C   0  0  0  0  0  0  0  0  0  0  0  0
    3.7500   -1.2990    0.0000 O   0  0  0  0  0  0  0  0  0  0  0  0
    3.7500   -3.8971    0.0000 N   0  0  0  0  0  0  0  0  0  0  0  0
    5.2500   -3.8971    0.0000 N   0  0  0  0  0  0  0  0  0  0  0  0
    6.0000   -5.1962    0.0000 C   0  0  0  0  0  0  0  0  0  0  0  0
    7.5000   -5.1962    0.0000 C   0  0  0  0  0  0  0  0  0  0  0  0
    8.2500   -3.8971    0.0000 C   0  0  0  0  0  0  0  0  0  0  0  0
    7.5000   -2.5981    0.0000 C   0  0  0  0  0  0  0  0  0  0  0  0
    6.0000   -2.5981    0.0000 C   0  0  0  0  0  0  0  0  0  0  0  0
    1.5000    0.0000    0.0000 C   0  0  0  0  0  0  0  0  0  0  0  0
    0.7500    1.2990    0.0000 C   0  0  0  0  0  0  0  0  0  0  0  0
   -0.7500    1.2990    0.0000 C   0  0  0  0  0  0  0  0  0  0  0  0
   -1.5000    0.0000    0.0000 C   0  0  0  0  0  0  0  0  0  0  0  0
   -4.3197   -4.6994    0.0000 C   0  0  0  0  0  0  0  0  0  0  0  0
   -4.9298   -6.0697    0.0000 C   0  0  0  0  0  0  0  0  0  0  0  0
  1  2  1  0
  2  3  1  0
  3  4  2  0
  4  5  1  0
  5  6  2  0
  6  7  1  0
  7  8  1  0
  8  9  1  0
  9 10  2  0
 10 11  1  0
 11 12  1  0
 12 13  2  0
 12 14  1  0
 14 15  2  0
 15 16  1  0
 16 17  1  0
 17 18  2  0
 17 19  1  0
 19 20  1  0
 20 21  1  0
 21 22  1  0
 22 23  1  0
 23 24  1  0
 24 25  1  0
 15 26  1  0
 26 27  2  0
 27 28  1  0
 28 29  2  0
  6 30  1  0
 30 31  2  0
 31  3  1  0
 11  7  2  0
 29 14  1  0
 29 10  1  0
 25 20  1  0
M  END
>  <Compound_ID>  (177) 
CHEMBL147038

>  <Active>  (177) 
1

>  <Smiles>  (177) 
COc1ccc(-c2[nH]nc3c2C(=O)c2c(NC(=O)NN4CCCCC4)cccc2-3)cc1

>  <canonical_smi>  (177) 
COc1ccc(-c2[nH]nc3c2C(=O)c2c(NC(=O)NN4CCCCC4)cccc2-3)cc1

>  <Set>  (177) 
G2 active

>  <Set_type>  (177) 
Train

>  <MW>  (177) 
417.47

>  <HBD>  (177) 
3

>  <HBA>  (177) 
5

>  <NRB>  (177) 
4

>  <NR>  (177) 
5

>  <NAR>  (177) 
4

>  <PSA>  (177) 
99.35

>  <Standard Type>  (177) 
nan

>  <Standard Relation>  (177) 
nan

>  <Standard Units>  (177) 
nan

>  <Standard Value>  (177) 
nan

>  <Assay ChEMBL ID>  (177) 
nan

>  <Assay Description>  (177) 
nan

>  <BAO Label>  (177) 
nan

$$$$

     RDKit          2D

 23 25  0  0  0  0  0  0  0  0999 V2000
    3.5320   -2.8116    0.0000 O   0  0  0  0  0  0  0  0  0  0  0  0
    3.9955   -4.2382    0.0000 C   0  0  0  0  0  0  0  0  0  0  0  0
    5.4627   -4.5501    0.0000 N   0  0  0  0  0  0  0  0  0  0  0  0
    6.4664   -3.4354    0.0000 C   0  0  0  0  0  0  0  0  0  0  0  0
    7.9336   -3.7472    0.0000 C   0  0  0  0  0  0  0  0  0  0  0  0
    9.3602   -3.2837    0.0000 C   0  0  0  0  0  0  0  0  0  0  0  0
    9.0483   -4.7509    0.0000 C   0  0  0  0  0  0  0  0  0  0  0  0
    2.9918   -5.3529    0.0000 C   0  0  0  0  0  0  0  0  0  0  0  0
    3.3037   -6.8202    0.0000 N   0  0  0  0  0  0  0  0  0  0  0  0
    2.0046   -7.5702    0.0000 N   0  0  0  0  0  0  0  0  0  0  0  0
    0.8899   -6.5665    0.0000 C   0  0  0  0  0  0  0  0  0  0  0  0
    1.5000   -5.1962    0.0000 C   0  0  0  0  0  0  0  0  0  0  0  0
    0.7500   -3.8971    0.0000 N   0  0  0  0  0  0  0  0  0  0  0  0
   -0.7500   -3.8971    0.0000 C   0  0  0  0  0  0  0  0  0  0  0  0
   -1.5000   -5.1962    0.0000 O   0  0  0  0  0  0  0  0  0  0  0  0
   -1.5000   -2.5981    0.0000 C   0  0  0  0  0  0  0  0  0  0  0  0
   -3.0000   -2.5981    0.0000 C   0  0  0  0  0  0  0  0  0  0  0  0
   -3.7500   -3.8971    0.0000 F   0  0  0  0  0  0  0  0  0  0  0  0
   -3.7500   -1.2990    0.0000 C   0  0  0  0  0  0  0  0  0  0  0  0
   -3.0000   -0.0000    0.0000 C   0  0  0  0  0  0  0  0  0  0  0  0
   -1.5000   -0.0000    0.0000 C   0  0  0  0  0  0  0  0  0  0  0  0
   -0.7500   -1.2990    0.0000 C   0  0  0  0  0  0  0  0  0  0  0  0
    0.7500   -1.2990    0.0000 F   0  0  0  0  0  0  0  0  0  0  0  0
  1  2  2  0
  2  3  1  0
  3  4  1  0
  4  5  1  0
  5  6  1  0
  6  7  1  0
  2  8  1  0
  8  9  2  0
  9 10  1  0
 10 11  1  0
 11 12  2  0
 12 13  1  0
 13 14  1  0
 14 15  2  0
 14 16  1  0
 16 17  2  0
 17 18  1  0
 17 19  1  0
 19 20  2  0
 20 21  1  0
 21 22  2  0
 22 23  1  0
  7  5  1  0
 12  8  1  0
 22 16  1  0
M  END
>  <Compound_ID>  (178) 
CHEMBL510578

>  <Active>  (178) 
1

>  <Smiles>  (178) 
O=C(NCC1CC1)c1n[nH]cc1NC(=O)c1c(F)cccc1F

>  <canonical_smi>  (178) 
O=C(NCC1CC1)c1n[nH]cc1NC(=O)c1c(F)cccc1F

>  <Set>  (178) 
G2 active

>  <Set_type>  (178) 
Train

>  <MW>  (178) 
320.3

>  <HBD>  (178) 
3

>  <HBA>  (178) 
3

>  <NRB>  (178) 
5

>  <NR>  (178) 
3

>  <NAR>  (178) 
2

>  <PSA>  (178) 
86.88

>  <Standard Type>  (178) 
nan

>  <Standard Relation>  (178) 
nan

>  <Standard Units>  (178) 
nan

>  <Standard Value>  (178) 
nan

>  <Assay ChEMBL ID>  (178) 
nan

>  <Assay Description>  (178) 
nan

>  <BAO Label>  (178) 
nan

$$$$

     RDKit          2D

 33 36  0  0  0  0  0  0  0  0999 V2000
  -10.0849   -6.9740    0.0000 N   0  0  0  0  0  0  0  0  0  0  0  0
   -8.6583   -6.5105    0.0000 S   0  0  0  0  0  0  0  0  0  0  0  0
   -9.1218   -5.0839    0.0000 O   0  0  0  0  0  0  0  0  0  0  0  0
   -8.1948   -7.9371    0.0000 O   0  0  0  0  0  0  0  0  0  0  0  0
   -7.2317   -6.0469    0.0000 C   0  0  0  0  0  0  0  0  0  0  0  0
   -6.9199   -4.5797    0.0000 C   0  0  0  0  0  0  0  0  0  0  0  0
   -5.4933   -4.1162    0.0000 C   0  0  0  0  0  0  0  0  0  0  0  0
   -4.3786   -5.1199    0.0000 C   0  0  0  0  0  0  0  0  0  0  0  0
   -2.9520   -4.6564    0.0000 N   0  0  0  0  0  0  0  0  0  0  0  0
   -2.6401   -3.1891    0.0000 N   0  0  0  0  0  0  0  0  0  0  0  0
   -1.2135   -2.7256    0.0000 C   0  0  0  0  0  0  0  0  0  0  0  0
   -0.0000   -3.6073    0.0000 C   0  0  0  0  0  0  0  0  0  0  0  0
    0.0000   -5.1073    0.0000 O   0  0  0  0  0  0  0  0  0  0  0  0
    1.2135   -2.7256    0.0000 N   0  0  0  0  0  0  0  0  0  0  0  0
    0.7500   -1.2990    0.0000 C   0  0  0  0  0  0  0  0  0  0  0  0
    1.5000    0.0000    0.0000 C   0  0  0  0  0  0  0  0  0  0  0  0
    0.7500    1.2990    0.0000 C   0  0  0  0  0  0  0  0  0  0  0  0
   -0.7500    1.2990    0.0000 C   0  0  0  0  0  0  0  0  0  0  0  0
   -1.5000    2.5981    0.0000 C   0  0  0  0  0  0  0  0  0  0  0  0
   -3.0000    2.5981    0.0000 O   0  0  0  0  0  0  0  0  0  0  0  0
   -0.7500    3.8971    0.0000 N   0  0  0  0  0  0  0  0  0  0  0  0
   -1.5000    5.1962    0.0000 C   0  0  0  0  0  0  0  0  0  0  0  0
   -0.7500    6.4952    0.0000 C   0  0  0  0  0  0  0  0  0  0  0  0
   -1.5000    7.7942    0.0000 C   0  0  0  0  0  0  0  0  0  0  0  0
   -0.7500    9.0933    0.0000 N   0  0  0  0  0  0  0  0  0  0  0  0
   -1.3601   10.4636    0.0000 C   0  0  0  0  0  0  0  0  0  0  0  0
   -0.2454   11.4673    0.0000 C   0  0  0  0  0  0  0  0  0  0  0  0
    1.0537   10.7173    0.0000 N   0  0  0  0  0  0  0  0  0  0  0  0
    0.7418    9.2501    0.0000 C   0  0  0  0  0  0  0  0  0  0  0  0
   -1.5000    0.0000    0.0000 C   0  0  0  0  0  0  0  0  0  0  0  0
   -0.7500   -1.2990    0.0000 C   0  0  0  0  0  0  0  0  0  0  0  0
   -4.6904   -6.5871    0.0000 C   0  0  0  0  0  0  0  0  0  0  0  0
   -6.1170   -7.0506    0.0000 C   0  0  0  0  0  0  0  0  0  0  0  0
  1  2  1  0
  2  3  2  0
  2  4  2  0
  2  5  1  0
  5  6  2  0
  6  7  1  0
  7  8  2  0
  8  9  1  0
  9 10  2  3
 10 11  1  0
 11 12  2  0
 12 13  1  0
 12 14  1  0
 14 15  1  0
 15 16  2  0
 16 17  1  0
 17 18  2  0
 18 19  1  0
 19 20  2  0
 19 21  1  0
 21 22  1  0
 22 23  1  0
 23 24  1  0
 24 25  1  0
 25 26  1  0
 26 27  2  0
 27 28  1  0
 28 29  2  0
 18 30  1  0
 30 31  2  0
  8 32  1  0
 32 33  2  0
 33  5  1  0
 31 11  1  0
 31 15  1  0
 29 25  1  0
M  END
>  <Compound_ID>  (179) 
CHEMBL137357

>  <Active>  (179) 
1

>  <Smiles>  (179) 
NS(=O)(=O)c1ccc(N=Nc2c(O)[nH]c3ccc(C(=O)NCCCn4ccnc4)cc23)cc1

>  <canonical_smi>  (179) 
NS(=O)(=O)c1ccc(N=Nc2c(O)[nH]c3ccc(C(=O)NCCCn4ccnc4)cc23)cc1

>  <Set>  (179) 
G2 active

>  <Set_type>  (179) 
Train

>  <MW>  (179) 
467.51

>  <HBD>  (179) 
4

>  <HBA>  (179) 
5

>  <NRB>  (179) 
8

>  <NR>  (179) 
4

>  <NAR>  (179) 
4

>  <PSA>  (179) 
167.82

>  <Standard Type>  (179) 
nan

>  <Standard Relation>  (179) 
nan

>  <Standard Units>  (179) 
nan

>  <Standard Value>  (179) 
nan

>  <Assay ChEMBL ID>  (179) 
nan

>  <Assay Description>  (179) 
nan

>  <BAO Label>  (179) 
nan

$$$$

     RDKit          2D

 33 36  0  0  0  0  0  0  0  0999 V2000
  -10.0849   -6.9740    0.0000 N   0  0  0  0  0  0  0  0  0  0  0  0
   -8.6583   -6.5105    0.0000 S   0  0  0  0  0  0  0  0  0  0  0  0
   -9.1218   -5.0839    0.0000 O   0  0  0  0  0  0  0  0  0  0  0  0
   -8.1948   -7.9371    0.0000 O   0  0  0  0  0  0  0  0  0  0  0  0
   -7.2317   -6.0469    0.0000 C   0  0  0  0  0  0  0  0  0  0  0  0
   -6.9199   -4.5797    0.0000 C   0  0  0  0  0  0  0  0  0  0  0  0
   -5.4933   -4.1162    0.0000 C   0  0  0  0  0  0  0  0  0  0  0  0
   -4.3786   -5.1199    0.0000 C   0  0  0  0  0  0  0  0  0  0  0  0
   -2.9520   -4.6564    0.0000 N   0  0  0  0  0  0  0  0  0  0  0  0
   -2.6401   -3.1891    0.0000 N   0  0  0  0  0  0  0  0  0  0  0  0
   -1.2135   -2.7256    0.0000 C   0  0  0  0  0  0  0  0  0  0  0  0
   -0.0000   -3.6073    0.0000 C   0  0  0  0  0  0  0  0  0  0  0  0
    0.0000   -5.1073    0.0000 O   0  0  0  0  0  0  0  0  0  0  0  0
    1.2135   -2.7256    0.0000 N   0  0  0  0  0  0  0  0  0  0  0  0
    0.7500   -1.2990    0.0000 C   0  0  0  0  0  0  0  0  0  0  0  0
    1.5000    0.0000    0.0000 C   0  0  0  0  0  0  0  0  0  0  0  0
    0.7500    1.2990    0.0000 C   0  0  0  0  0  0  0  0  0  0  0  0
   -0.7500    1.2990    0.0000 C   0  0  0  0  0  0  0  0  0  0  0  0
   -1.5000    2.5981    0.0000 C   0  0  0  0  0  0  0  0  0  0  0  0
   -3.0000    2.5981    0.0000 O   0  0  0  0  0  0  0  0  0  0  0  0
   -0.7500    3.8971    0.0000 N   0  0  0  0  0  0  0  0  0  0  0  0
   -1.5000    5.1962    0.0000 C   0  0  0  0  0  0  0  0  0  0  0  0
   -0.7500    6.4952    0.0000 C   0  0  0  0  0  0  0  0  0  0  0  0
   -1.5000    7.7942    0.0000 C   0  0  0  0  0  0  0  0  0  0  0  0
   -0.7500    9.0933    0.0000 N   0  0  0  0  0  0  0  0  0  0  0  0
   -1.3601   10.4636    0.0000 C   0  0  0  0  0  0  0  0  0  0  0  0
   -0.2454   11.4673    0.0000 C   0  0  0  0  0  0  0  0  0  0  0  0
    1.0537   10.7173    0.0000 N   0  0  0  0  0  0  0  0  0  0  0  0
    0.7418    9.2501    0.0000 C   0  0  0  0  0  0  0  0  0  0  0  0
   -1.5000    0.0000    0.0000 C   0  0  0  0  0  0  0  0  0  0  0  0
   -0.7500   -1.2990    0.0000 C   0  0  0  0  0  0  0  0  0  0  0  0
   -4.6904   -6.5871    0.0000 C   0  0  0  0  0  0  0  0  0  0  0  0
   -6.1170   -7.0506    0.0000 C   0  0  0  0  0  0  0  0  0  0  0  0
  1  2  1  0
  2  3  2  0
  2  4  2  0
  2  5  1  0
  5  6  2  0
  6  7  1  0
  7  8  2  0
  8  9  1  0
  9 10  1  0
 10 11  2  0
 11 12  1  0
 12 13  2  0
 12 14  1  0
 14 15  1  0
 15 16  2  0
 16 17  1  0
 17 18  2  0
 18 19  1  0
 19 20  2  0
 19 21  1  0
 21 22  1  0
 22 23  1  0
 23 24  1  0
 24 25  1  0
 25 26  1  0
 26 27  2  0
 27 28  1  0
 28 29  2  0
 18 30  1  0
 30 31  2  0
  8 32  1  0
 32 33  2  0
 33  5  1  0
 31 11  1  0
 31 15  1  0
 29 25  1  0
M  END
>  <Compound_ID>  (180) 
CHEMBL272026

>  <Active>  (180) 
1

>  <Smiles>  (180) 
NS(=O)(=O)c1ccc(N/N=C2\C(=O)Nc3ccc(C(=O)NCCCn4ccnc4)cc32)cc1

>  <canonical_smi>  (180) 
NS(=O)(=O)c1ccc(N/N=C2\C(=O)Nc3ccc(C(=O)NCCCn4ccnc4)cc32)cc1

>  <Set>  (180) 
G2 active

>  <Set_type>  (180) 
Train

>  <MW>  (180) 
467.51

>  <HBD>  (180) 
4

>  <HBA>  (180) 
6

>  <NRB>  (180) 
8

>  <NR>  (180) 
4

>  <NAR>  (180) 
3

>  <PSA>  (180) 
160.57

>  <Standard Type>  (180) 
nan

>  <Standard Relation>  (180) 
nan

>  <Standard Units>  (180) 
nan

>  <Standard Value>  (180) 
nan

>  <Assay ChEMBL ID>  (180) 
nan

>  <Assay Description>  (180) 
nan

>  <BAO Label>  (180) 
nan

$$$$

     RDKit          2D

 37 42  0  0  0  0  0  0  0  0999 V2000
   10.5000   -5.1962    0.0000 N   0  0  0  0  0  0  0  0  0  0  0  0
    9.7500   -3.8971    0.0000 C   0  0  0  0  0  0  0  0  0  0  0  0
    8.2500   -3.8971    0.0000 C   0  0  0  0  0  0  0  0  0  0  0  0
    7.5000   -5.1962    0.0000 C   0  0  0  0  0  0  0  0  0  0  0  0
    6.0000   -5.1962    0.0000 C   0  0  0  0  0  0  0  0  0  0  0  0
    5.2500   -3.8971    0.0000 N   0  0  0  0  0  0  0  0  0  0  0  0
    3.7500   -3.8971    0.0000 C   0  0  0  0  0  0  0  0  0  0  0  0
    3.0000   -2.5981    0.0000 C   0  0  0  0  0  0  0  0  0  0  0  0
    3.7500   -1.2990    0.0000 O   0  0  0  0  0  0  0  0  0  0  0  0
    1.5000   -2.5981    0.0000 N   0  0  0  0  0  0  0  0  0  0  0  0
    0.7500   -1.2990    0.0000 C   0  0  0  0  0  0  0  0  0  0  0  0
    1.5000    0.0000    0.0000 C   0  0  0  0  0  0  0  0  0  0  0  0
    0.7500    1.2990    0.0000 C   0  0  0  0  0  0  0  0  0  0  0  0
   -0.7500    1.2990    0.0000 C   0  0  0  0  0  0  0  0  0  0  0  0
   -1.5000    0.0000    0.0000 C   0  0  0  0  0  0  0  0  0  0  0  0
   -0.7500   -1.2990    0.0000 C   0  0  0  0  0  0  0  0  0  0  0  0
   -1.7537   -2.4138    0.0000 C   0  0  0  0  0  0  0  0  0  0  0  0
   -1.4418   -3.8810    0.0000 O   0  0  0  0  0  0  0  0  0  0  0  0
   -3.1240   -1.8037    0.0000 C   0  0  0  0  0  0  0  0  0  0  0  0
   -4.5912   -2.1155    0.0000 C   0  0  0  0  0  0  0  0  0  0  0  0
   -5.2013   -3.4858    0.0000 C   0  0  0  0  0  0  0  0  0  0  0  0
   -6.6931   -3.6426    0.0000 C   0  0  0  0  0  0  0  0  0  0  0  0
   -7.3032   -5.0129    0.0000 C   0  0  0  0  0  0  0  0  0  0  0  0
   -6.4216   -6.2265    0.0000 C   0  0  0  0  0  0  0  0  0  0  0  0
   -7.0317   -7.5968    0.0000 N   0  0  0  0  0  0  0  0  0  0  0  0
   -8.5234   -7.7536    0.0000 C   0  0  0  0  0  0  0  0  0  0  0  0
   -9.1335   -9.1239    0.0000 C   0  0  0  0  0  0  0  0  0  0  0  0
   -8.2519  -10.3374    0.0000 O   0  0  0  0  0  0  0  0  0  0  0  0
   -6.7601  -10.1806    0.0000 C   0  0  0  0  0  0  0  0  0  0  0  0
   -6.1500   -8.8103    0.0000 C   0  0  0  0  0  0  0  0  0  0  0  0
   -4.9298   -6.0697    0.0000 C   0  0  0  0  0  0  0  0  0  0  0  0
   -4.3197   -4.6994    0.0000 C   0  0  0  0  0  0  0  0  0  0  0  0
   -5.3412   -0.8165    0.0000 N   0  0  0  0  0  0  0  0  0  0  0  0
   -4.3375    0.2982    0.0000 N   0  0  0  0  0  0  0  0  0  0  0  0
   -2.9672   -0.3119    0.0000 C   0  0  0  0  0  0  0  0  0  0  0  0
    6.0000   -2.5981    0.0000 C   0  0  0  0  0  0  0  0  0  0  0  0
    7.5000   -2.5981    0.0000 C   0  0  0  0  0  0  0  0  0  0  0  0
  1  2  1  0
  2  3  1  0
  3  4  1  0
  4  5  1  0
  5  6  1  0
  6  7  1  0
  7  8  1  0
  8  9  2  0
  8 10  1  0
 10 11  1  0
 11 12  2  0
 12 13  1  0
 13 14  2  0
 14 15  1  0
 15 16  2  0
 16 17  1  0
 17 18  2  0
 17 19  1  0
 19 20  1  0
 20 21  1  0
 21 22  2  0
 22 23  1  0
 23 24  2  0
 24 25  1  0
 25 26  1  0
 26 27  1  0
 27 28  1  0
 28 29  1  0
 29 30  1  0
 24 31  1  0
 31 32  2  0
 20 33  2  0
 33 34  1  0
 34 35  1  0
  6 36  1  0
 36 37  1  0
 37  3  1  0
 16 11  1  0
 35 19  2  0
 35 15  1  0
 32 21  1  0
 30 25  1  0
M  END
>  <Compound_ID>  (181) 
CHEMBL358525

>  <Active>  (181) 
1

>  <Smiles>  (181) 
NCC1CCN(CC(=O)Nc2cccc3c2C(=O)c2c(-c4ccc(N5CCOCC5)cc4)n[nH]c2-3)CC1

>  <canonical_smi>  (181) 
NCC1CCN(CC(=O)Nc2cccc3c2C(=O)c2c(-c4ccc(N5CCOCC5)cc4)n[nH]c2-3)CC1

>  <Set>  (181) 
G2 active

>  <Set_type>  (181) 
Train

>  <MW>  (181) 
500.6

>  <HBD>  (181) 
3

>  <HBA>  (181) 
7

>  <NRB>  (181) 
6

>  <NR>  (181) 
6

>  <NAR>  (181) 
4

>  <PSA>  (181) 
116.58

>  <Standard Type>  (181) 
nan

>  <Standard Relation>  (181) 
nan

>  <Standard Units>  (181) 
nan

>  <Standard Value>  (181) 
nan

>  <Assay ChEMBL ID>  (181) 
nan

>  <Assay Description>  (181) 
nan

>  <BAO Label>  (181) 
nan

$$$$

     RDKit          2D

 29 33  0  0  0  0  0  0  0  0999 V2000
   10.5000   -5.1962    0.0000 N   0  0  0  0  0  0  0  0  0  0  0  0
    9.7500   -3.8971    0.0000 C   0  0  0  0  0  0  0  0  0  0  0  0
   10.5000   -2.5981    0.0000 O   0  0  0  0  0  0  0  0  0  0  0  0
    8.2500   -3.8971    0.0000 C   0  0  0  0  0  0  0  0  0  0  0  0
    7.5000   -5.1962    0.0000 C   0  0  0  0  0  0  0  0  0  0  0  0
    6.0000   -5.1962    0.0000 C   0  0  0  0  0  0  0  0  0  0  0  0
    5.2500   -3.8971    0.0000 N   0  0  0  0  0  0  0  0  0  0  0  0
    3.7500   -3.8971    0.0000 C   0  0  0  0  0  0  0  0  0  0  0  0
    3.0000   -2.5981    0.0000 C   0  0  0  0  0  0  0  0  0  0  0  0
    3.7500   -1.2990    0.0000 O   0  0  0  0  0  0  0  0  0  0  0  0
    1.5000   -2.5981    0.0000 N   0  0  0  0  0  0  0  0  0  0  0  0
    0.7500   -1.2990    0.0000 C   0  0  0  0  0  0  0  0  0  0  0  0
    1.5000    0.0000    0.0000 C   0  0  0  0  0  0  0  0  0  0  0  0
    0.7500    1.2990    0.0000 C   0  0  0  0  0  0  0  0  0  0  0  0
   -0.7500    1.2990    0.0000 C   0  0  0  0  0  0  0  0  0  0  0  0
   -1.5000    0.0000    0.0000 C   0  0  0  0  0  0  0  0  0  0  0  0
   -0.7500   -1.2990    0.0000 C   0  0  0  0  0  0  0  0  0  0  0  0
   -1.7537   -2.4138    0.0000 C   0  0  0  0  0  0  0  0  0  0  0  0
   -1.4418   -3.8810    0.0000 O   0  0  0  0  0  0  0  0  0  0  0  0
   -3.1240   -1.8037    0.0000 C   0  0  0  0  0  0  0  0  0  0  0  0
   -4.5912   -2.1155    0.0000 C   0  0  0  0  0  0  0  0  0  0  0  0
   -5.2013   -3.4858    0.0000 C   0  0  0  0  0  0  0  0  0  0  0  0
   -5.0445   -4.9776    0.0000 C   0  0  0  0  0  0  0  0  0  0  0  0
   -6.4149   -4.3675    0.0000 C   0  0  0  0  0  0  0  0  0  0  0  0
   -5.3412   -0.8165    0.0000 N   0  0  0  0  0  0  0  0  0  0  0  0
   -4.3375    0.2982    0.0000 N   0  0  0  0  0  0  0  0  0  0  0  0
   -2.9672   -0.3119    0.0000 C   0  0  0  0  0  0  0  0  0  0  0  0
    6.0000   -2.5981    0.0000 C   0  0  0  0  0  0  0  0  0  0  0  0
    7.5000   -2.5981    0.0000 C   0  0  0  0  0  0  0  0  0  0  0  0
  1  2  1  0
  2  3  2  0
  2  4  1  0
  4  5  1  0
  5  6  1  0
  6  7  1  0
  7  8  1  0
  8  9  1  0
  9 10  2  0
  9 11  1  0
 11 12  1  0
 12 13  2  0
 13 14  1  0
 14 15  2  0
 15 16  1  0
 16 17  2  0
 17 18  1  0
 18 19  2  0
 18 20  1  0
 20 21  1  0
 21 22  1  0
 22 23  1  0
 23 24  1  0
 21 25  2  0
 25 26  1  0
 26 27  1  0
  7 28  1  0
 28 29  1  0
 29  4  1  0
 17 12  1  0
 27 20  2  0
 27 16  1  0
 24 22  1  0
M  END
>  <Compound_ID>  (182) 
CHEMBL149450

>  <Active>  (182) 
1

>  <Smiles>  (182) 
NC(=O)C1CCN(CC(=O)Nc2cccc3c2C(=O)c2c(C4CC4)n[nH]c2-3)CC1

>  <canonical_smi>  (182) 
NC(=O)C1CCN(CC(=O)Nc2cccc3c2C(=O)c2c(C4CC4)n[nH]c2-3)CC1

>  <Set>  (182) 
G2 active

>  <Set_type>  (182) 
Train

>  <MW>  (182) 
393.45

>  <HBD>  (182) 
3

>  <HBA>  (182) 
5

>  <NRB>  (182) 
5

>  <NR>  (182) 
5

>  <NAR>  (182) 
3

>  <PSA>  (182) 
121.18

>  <Standard Type>  (182) 
nan

>  <Standard Relation>  (182) 
nan

>  <Standard Units>  (182) 
nan

>  <Standard Value>  (182) 
nan

>  <Assay ChEMBL ID>  (182) 
nan

>  <Assay Description>  (182) 
nan

>  <BAO Label>  (182) 
nan

$$$$

     RDKit          2D

 23 26  0  0  0  0  0  0  0  0999 V2000
    1.1682  -10.0557    0.0000 C   0  0  0  0  0  0  0  0  0  0  0  0
    1.1682   -8.5557    0.0000 N   0  0  0  0  0  0  0  0  0  0  0  0
    2.3817   -7.6740    0.0000 C   0  0  0  0  0  0  0  0  0  0  0  0
    1.9182   -6.2474    0.0000 C   0  0  0  0  0  0  0  0  0  0  0  0
    0.4182   -6.2474    0.0000 C   0  0  0  0  0  0  0  0  0  0  0  0
   -0.4635   -5.0339    0.0000 C   0  0  0  0  0  0  0  0  0  0  0  0
   -1.9635   -5.0339    0.0000 N   0  0  0  0  0  0  0  0  0  0  0  0
   -2.4271   -3.6073    0.0000 N   0  0  0  0  0  0  0  0  0  0  0  0
   -1.2135   -2.7256    0.0000 C   0  0  0  0  0  0  0  0  0  0  0  0
   -0.0000   -3.6073    0.0000 C   0  0  0  0  0  0  0  0  0  0  0  0
    1.2135   -2.7256    0.0000 C   0  0  0  0  0  0  0  0  0  0  0  0
    2.6401   -3.1891    0.0000 O   0  0  0  0  0  0  0  0  0  0  0  0
    0.7500   -1.2990    0.0000 C   0  0  0  0  0  0  0  0  0  0  0  0
    1.5000    0.0000    0.0000 C   0  0  0  0  0  0  0  0  0  0  0  0
    3.0000    0.0000    0.0000 N   0  0  0  0  0  0  0  0  0  0  0  0
    3.7500    1.2990    0.0000 C   0  0  0  0  0  0  0  0  0  0  0  0
    5.2500    1.2990    0.0000 N   0  0  0  0  0  0  0  0  0  0  0  0
    3.0000    2.5981    0.0000 O   0  0  0  0  0  0  0  0  0  0  0  0
    0.7500    1.2990    0.0000 C   0  0  0  0  0  0  0  0  0  0  0  0
   -0.7500    1.2990    0.0000 C   0  0  0  0  0  0  0  0  0  0  0  0
   -1.5000    0.0000    0.0000 C   0  0  0  0  0  0  0  0  0  0  0  0
   -0.7500   -1.2990    0.0000 C   0  0  0  0  0  0  0  0  0  0  0  0
   -0.0454   -7.6740    0.0000 C   0  0  0  0  0  0  0  0  0  0  0  0
  1  2  1  0
  2  3  1  0
  3  4  2  0
  4  5  1  0
  5  6  1  0
  6  7  1  0
  7  8  1  0
  8  9  2  0
  9 10  1  0
 10 11  1  0
 11 12  2  0
 11 13  1  0
 13 14  2  0
 14 15  1  0
 15 16  1  0
 16 17  1  0
 16 18  2  0
 14 19  1  0
 19 20  2  0
 20 21  1  0
 21 22  2  0
  5 23  2  0
 23  2  1  0
 10  6  2  0
 22 13  1  0
 22  9  1  0
M  END
>  <Compound_ID>  (183) 
CHEMBL356728

>  <Active>  (183) 
1

>  <Smiles>  (183) 
Cn1ccc(-c2[nH]nc3c2C(=O)c2c(NC(N)=O)cccc2-3)c1

>  <canonical_smi>  (183) 
Cn1ccc(-c2[nH]nc3c2C(=O)c2c(NC(N)=O)cccc2-3)c1

>  <Set>  (183) 
G2 active

>  <Set_type>  (183) 
Train

>  <MW>  (183) 
307.31

>  <HBD>  (183) 
3

>  <HBA>  (183) 
3

>  <NRB>  (183) 
2

>  <NR>  (183) 
4

>  <NAR>  (183) 
4

>  <PSA>  (183) 
105.8

>  <Standard Type>  (183) 
nan

>  <Standard Relation>  (183) 
nan

>  <Standard Units>  (183) 
nan

>  <Standard Value>  (183) 
nan

>  <Assay ChEMBL ID>  (183) 
nan

>  <Assay Description>  (183) 
nan

>  <BAO Label>  (183) 
nan

$$$$

     RDKit          2D

 25 27  0  0  0  0  0  0  0  0999 V2000
    7.4557  -13.2052    0.0000 C   0  0  0  0  0  0  0  0  0  0  0  0
    8.7547  -12.4552    0.0000 C   0  0  0  0  0  0  0  0  0  0  0  0
   10.0538  -11.7052    0.0000 C   0  0  0  0  0  0  0  0  0  0  0  0
    9.5047  -13.7542    0.0000 C   0  0  0  0  0  0  0  0  0  0  0  0
    8.0047  -11.1562    0.0000 C   0  0  0  0  0  0  0  0  0  0  0  0
    8.6148   -9.7859    0.0000 C   0  0  0  0  0  0  0  0  0  0  0  0
    7.5001   -8.7822    0.0000 N   0  0  0  0  0  0  0  0  0  0  0  0
    6.2011   -9.5322    0.0000 C   0  0  0  0  0  0  0  0  0  0  0  0
    4.8308   -8.9221    0.0000 C   0  0  0  0  0  0  0  0  0  0  0  0
    4.6740   -7.4303    0.0000 S   0  0  0  0  0  0  0  0  0  0  0  0
    3.3037   -6.8202    0.0000 C   0  0  0  0  0  0  0  0  0  0  0  0
    2.0046   -7.5702    0.0000 C   0  0  0  0  0  0  0  0  0  0  0  0
    0.8899   -6.5665    0.0000 N   0  0  0  0  0  0  0  0  0  0  0  0
    1.5000   -5.1962    0.0000 C   0  0  0  0  0  0  0  0  0  0  0  0
    0.7500   -3.8971    0.0000 N   0  0  0  0  0  0  0  0  0  0  0  0
    1.5000   -2.5981    0.0000 C   0  0  0  0  0  0  0  0  0  0  0  0
    3.0000   -2.5981    0.0000 O   0  0  0  0  0  0  0  0  0  0  0  0
    0.7500   -1.2990    0.0000 C   0  0  0  0  0  0  0  0  0  0  0  0
    1.5000    0.0000    0.0000 C   0  0  0  0  0  0  0  0  0  0  0  0
    0.7500    1.2990    0.0000 C   0  0  0  0  0  0  0  0  0  0  0  0
   -0.7500    1.2990    0.0000 C   0  0  0  0  0  0  0  0  0  0  0  0
   -1.5000    0.0000    0.0000 C   0  0  0  0  0  0  0  0  0  0  0  0
   -0.7500   -1.2990    0.0000 C   0  0  0  0  0  0  0  0  0  0  0  0
    2.9918   -5.3529    0.0000 S   0  0  0  0  0  0  0  0  0  0  0  0
    6.5129  -10.9994    0.0000 O   0  0  0  0  0  0  0  0  0  0  0  0
  1  2  1  0
  2  3  1  0
  2  4  1  0
  2  5  1  0
  5  6  2  0
  6  7  1  0
  7  8  2  0
  8  9  1  0
  9 10  1  0
 10 11  1  0
 11 12  2  0
 12 13  1  0
 13 14  2  0
 14 15  1  0
 15 16  1  0
 16 17  2  0
 16 18  1  0
 18 19  2  0
 19 20  1  0
 20 21  2  0
 21 22  1  0
 22 23  2  0
 14 24  1  0
  8 25  1  0
 25  5  1  0
 24 11  1  0
 23 18  1  0
M  END
>  <Compound_ID>  (184) 
CHEMBL48796

>  <Active>  (184) 
1

>  <Smiles>  (184) 
CC(C)(C)c1cnc(CSc2cnc(NC(=O)c3ccccc3)s2)o1

>  <canonical_smi>  (184) 
CC(C)(C)c1cnc(CSc2cnc(NC(=O)c3ccccc3)s2)o1

>  <Set>  (184) 
G2 active

>  <Set_type>  (184) 
Train

>  <MW>  (184) 
373.5

>  <HBD>  (184) 
1

>  <HBA>  (184) 
5

>  <NRB>  (184) 
5

>  <NR>  (184) 
3

>  <NAR>  (184) 
3

>  <PSA>  (184) 
68.02

>  <Standard Type>  (184) 
nan

>  <Standard Relation>  (184) 
nan

>  <Standard Units>  (184) 
nan

>  <Standard Value>  (184) 
nan

>  <Assay ChEMBL ID>  (184) 
nan

>  <Assay Description>  (184) 
nan

>  <BAO Label>  (184) 
nan

$$$$

     RDKit          2D

 23 26  0  0  0  0  0  0  0  0999 V2000
   -3.7500   -3.8971    0.0000 O   0  0  0  0  0  0  0  0  0  0  0  0
   -3.0000   -5.1962    0.0000 C   0  0  0  0  0  0  0  0  0  0  0  0
   -1.5000   -5.1962    0.0000 C   0  0  0  0  0  0  0  0  0  0  0  0
   -0.7500   -3.8971    0.0000 C   0  0  0  0  0  0  0  0  0  0  0  0
    0.7500   -3.8971    0.0000 C   0  0  0  0  0  0  0  0  0  0  0  0
    1.5000   -2.5981    0.0000 C   0  0  0  0  0  0  0  0  0  0  0  0
    0.7500   -1.2990    0.0000 C   0  0  0  0  0  0  0  0  0  0  0  0
    1.5000    0.0000    0.0000 N   0  0  0  0  0  0  0  0  0  0  0  0
    0.7500    1.2990    0.0000 C   0  0  0  0  0  0  0  0  0  0  0  0
   -0.7500    1.2990    0.0000 C   0  0  0  0  0  0  0  0  0  0  0  0
   -1.5000    0.0000    0.0000 C   0  0  0  0  0  0  0  0  0  0  0  0
   -0.7500   -1.2990    0.0000 C   0  0  0  0  0  0  0  0  0  0  0  0
   -1.5000   -2.5981    0.0000 C   0  0  0  0  0  0  0  0  0  0  0  0
   -3.7500   -6.4952    0.0000 N   0  0  0  0  0  0  0  0  0  0  0  0
   -5.2500   -6.4952    0.0000 C   0  0  0  0  0  0  0  0  0  0  0  0
   -6.1317   -7.7087    0.0000 N   0  0  0  0  0  0  0  0  0  0  0  0
   -7.5583   -7.2452    0.0000 C   0  0  0  0  0  0  0  0  0  0  0  0
   -7.5583   -5.7452    0.0000 C   0  0  0  0  0  0  0  0  0  0  0  0
   -8.7718   -4.8635    0.0000 C   0  0  0  0  0  0  0  0  0  0  0  0
   -9.0064   -3.3820    0.0000 C   0  0  0  0  0  0  0  0  0  0  0  0
  -10.4880   -3.6166    0.0000 C   0  0  0  0  0  0  0  0  0  0  0  0
  -10.2533   -5.0982    0.0000 C   0  0  0  0  0  0  0  0  0  0  0  0
   -6.1317   -5.2817    0.0000 S   0  0  0  0  0  0  0  0  0  0  0  0
  1  2  2  0
  2  3  1  0
  3  4  1  0
  4  5  2  0
  5  6  1  0
  6  7  2  0
  7  8  1  0
  8  9  2  0
  9 10  1  0
 10 11  2  0
 11 12  1  0
 12 13  2  0
  2 14  1  0
 14 15  1  0
 15 16  2  0
 16 17  1  0
 17 18  2  0
 18 19  1  0
 19 20  1  0
 20 21  1  0
 21 22  1  0
 18 23  1  0
 13  4  1  0
 23 15  1  0
 12  7  1  0
 22 19  1  0
M  END
>  <Compound_ID>  (185) 
CHEMBL363954

>  <Active>  (185) 
1

>  <Smiles>  (185) 
O=C(Cc1ccc2ncccc2c1)Nc1ncc(C2CCC2)s1

>  <canonical_smi>  (185) 
O=C(Cc1ccc2ncccc2c1)Nc1ncc(C2CCC2)s1

>  <Set>  (185) 
G2 active

>  <Set_type>  (185) 
Train

>  <MW>  (185) 
323.42

>  <HBD>  (185) 
1

>  <HBA>  (185) 
3

>  <NRB>  (185) 
4

>  <NR>  (185) 
4

>  <NAR>  (185) 
3

>  <PSA>  (185) 
54.88

>  <Standard Type>  (185) 
nan

>  <Standard Relation>  (185) 
nan

>  <Standard Units>  (185) 
nan

>  <Standard Value>  (185) 
nan

>  <Assay ChEMBL ID>  (185) 
nan

>  <Assay Description>  (185) 
nan

>  <BAO Label>  (185) 
nan

$$$$

     RDKit          2D

 30 34  0  0  0  0  0  0  0  0999 V2000
   -2.6401   -3.1891    0.0000 C   0  0  0  0  0  0  0  0  0  0  0  0
   -1.2135   -2.7256    0.0000 N   0  0  0  0  0  0  0  0  0  0  0  0
   -0.0000   -3.6073    0.0000 C   0  0  0  0  0  0  0  0  0  0  0  0
    1.2135   -2.7256    0.0000 C   0  0  0  0  0  0  0  0  0  0  0  0
    2.6401   -3.1891    0.0000 C   0  0  0  0  0  0  0  0  0  0  0  0
    3.8536   -2.3075    0.0000 C   0  0  0  0  0  0  0  0  0  0  0  0
    3.8536   -0.8075    0.0000 C   0  0  0  0  0  0  0  0  0  0  0  0
    2.6401    0.0742    0.0000 C   0  0  0  0  0  0  0  0  0  0  0  0
    3.1036    1.5008    0.0000 O   0  0  0  0  0  0  0  0  0  0  0  0
    4.6036    1.5008    0.0000 C   0  0  0  0  0  0  0  0  0  0  0  0
    5.6073    2.6155    0.0000 C   0  0  0  0  0  0  0  0  0  0  0  0
    7.0746    2.3036    0.0000 C   0  0  0  0  0  0  0  0  0  0  0  0
    8.0782    3.4184    0.0000 C   0  0  0  0  0  0  0  0  0  0  0  0
    9.5455    3.1065    0.0000 O   0  0  0  0  0  0  0  0  0  0  0  0
    7.5381    0.8771    0.0000 C   0  0  0  0  0  0  0  0  0  0  0  0
    6.5344   -0.2377    0.0000 C   0  0  0  0  0  0  0  0  0  0  0  0
    5.0672    0.0742    0.0000 C   0  0  0  0  0  0  0  0  0  0  0  0
    5.0672   -3.1891    0.0000 C   0  0  0  0  0  0  0  0  0  0  0  0
    6.4937   -2.7256    0.0000 O   0  0  0  0  0  0  0  0  0  0  0  0
    4.6036   -4.6157    0.0000 N   0  0  0  0  0  0  0  0  0  0  0  0
    3.1036   -4.6157    0.0000 C   0  0  0  0  0  0  0  0  0  0  0  0
    2.2220   -5.8293    0.0000 O   0  0  0  0  0  0  0  0  0  0  0  0
    0.7500   -1.2990    0.0000 C   0  0  0  0  0  0  0  0  0  0  0  0
    1.5000    0.0000    0.0000 C   0  0  0  0  0  0  0  0  0  0  0  0
    0.7500    1.2990    0.0000 C   0  0  0  0  0  0  0  0  0  0  0  0
   -0.7500    1.2990    0.0000 C   0  0  0  0  0  0  0  0  0  0  0  0
   -1.5000    0.0000    0.0000 C   0  0  0  0  0  0  0  0  0  0  0  0
   -3.0000    0.0000    0.0000 C   0  0  0  0  0  0  0  0  0  0  0  0
   -3.7500    1.2990    0.0000 O   0  0  0  0  0  0  0  0  0  0  0  0
   -0.7500   -1.2990    0.0000 C   0  0  0  0  0  0  0  0  0  0  0  0
  1  2  1  0
  2  3  1  0
  3  4  2  0
  4  5  1  0
  5  6  2  0
  6  7  1  0
  7  8  2  0
  8  9  1  0
  9 10  1  0
 10 11  2  0
 11 12  1  0
 12 13  1  0
 13 14  1  0
 12 15  2  0
 15 16  1  0
 16 17  2  0
  6 18  1  0
 18 19  2  0
 18 20  1  0
 20 21  1  0
 21 22  2  0
  4 23  1  0
 23 24  2  0
 24 25  1  0
 25 26  2  0
 26 27  1  0
 27 28  1  0
 28 29  1  0
 27 30  2  0
 30  2  1  0
 21  5  1  0
 30 23  1  0
 17  7  1  0
 17 10  1  0
M  END
>  <Compound_ID>  (186) 
CHEMBL491447

>  <Active>  (186) 
1

>  <Smiles>  (186) 
Cn1cc(C2=C(c3coc4cc(CO)ccc34)C(=O)NC2=O)c2cccc(CO)c21

>  <canonical_smi>  (186) 
Cn1cc(C2=C(c3coc4cc(CO)ccc34)C(=O)NC2=O)c2cccc(CO)c21

>  <Set>  (186) 
G2 active

>  <Set_type>  (186) 
Train

>  <MW>  (186) 
402.41

>  <HBD>  (186) 
3

>  <HBA>  (186) 
5

>  <NRB>  (186) 
4

>  <NR>  (186) 
5

>  <NAR>  (186) 
4

>  <PSA>  (186) 
104.7

>  <Standard Type>  (186) 
nan

>  <Standard Relation>  (186) 
nan

>  <Standard Units>  (186) 
nan

>  <Standard Value>  (186) 
nan

>  <Assay ChEMBL ID>  (186) 
nan

>  <Assay Description>  (186) 
nan

>  <BAO Label>  (186) 
nan

$$$$

     RDKit          2D

 26 29  0  0  0  0  0  0  0  0999 V2000
    0.7500   -3.8971    0.0000 C   0  0  0  0  0  0  0  0  0  0  0  0
    1.5000   -2.5981    0.0000 C   0  0  0  0  0  0  0  0  0  0  0  0
    3.0000   -2.5981    0.0000 C   0  0  0  0  0  0  0  0  0  0  0  0
    3.7500   -1.2990    0.0000 O   0  0  0  0  0  0  0  0  0  0  0  0
    3.7500   -3.8971    0.0000 N   0  0  0  0  0  0  0  0  0  0  0  0
    5.2500   -3.8971    0.0000 C   0  0  0  0  0  0  0  0  0  0  0  0
    6.1317   -2.6836    0.0000 C   0  0  0  0  0  0  0  0  0  0  0  0
    7.5583   -3.1471    0.0000 C   0  0  0  0  0  0  0  0  0  0  0  0
    8.7718   -2.2654    0.0000 C   0  0  0  0  0  0  0  0  0  0  0  0
    9.3819   -0.8951    0.0000 C   0  0  0  0  0  0  0  0  0  0  0  0
   10.2636   -2.1086    0.0000 C   0  0  0  0  0  0  0  0  0  0  0  0
    7.5583   -4.6471    0.0000 N   0  0  0  0  0  0  0  0  0  0  0  0
    6.1317   -5.1106    0.0000 N   0  0  0  0  0  0  0  0  0  0  0  0
    0.7500   -1.2990    0.0000 C   0  0  0  0  0  0  0  0  0  0  0  0
    1.5000    0.0000    0.0000 C   0  0  0  0  0  0  0  0  0  0  0  0
    0.7500    1.2990    0.0000 C   0  0  0  0  0  0  0  0  0  0  0  0
   -0.7500    1.2990    0.0000 C   0  0  0  0  0  0  0  0  0  0  0  0
   -1.5000    2.5981    0.0000 N   0  0  0  0  0  0  0  0  0  0  0  0
   -2.9918    2.7549    0.0000 C   0  0  0  0  0  0  0  0  0  0  0  0
   -3.3037    4.2221    0.0000 C   0  0  0  0  0  0  0  0  0  0  0  0
   -2.0046    4.9721    0.0000 C   0  0  0  0  0  0  0  0  0  0  0  0
   -1.8478    6.4639    0.0000 O   0  0  0  0  0  0  0  0  0  0  0  0
   -0.8899    3.9684    0.0000 C   0  0  0  0  0  0  0  0  0  0  0  0
    0.5773    4.2803    0.0000 O   0  0  0  0  0  0  0  0  0  0  0  0
   -1.5000    0.0000    0.0000 C   0  0  0  0  0  0  0  0  0  0  0  0
   -0.7500   -1.2990    0.0000 C   0  0  0  0  0  0  0  0  0  0  0  0
  2  1  1  1
  2  3  1  0
  3  4  2  0
  3  5  1  0
  5  6  1  0
  6  7  2  0
  7  8  1  0
  8  9  1  0
  9 10  1  0
 10 11  1  0
  8 12  2  0
 12 13  1  0
  2 14  1  0
 14 15  2  0
 15 16  1  0
 16 17  2  0
 17 18  1  0
 18 19  1  0
 19 20  1  0
 20 21  1  0
 21 22  1  1
 21 23  1  0
 23 24  2  0
 17 25  1  0
 25 26  2  0
 13  6  1  0
 26 14  1  0
 11  9  1  0
 23 18  1  0
M  END
>  <Compound_ID>  (187) 
CHEMBL380280

>  <Active>  (187) 
1

>  <Smiles>  (187) 
C[C@H](C(=O)Nc1cc(C2CC2)n[nH]1)c1ccc(N2CC[C@@H](O)C2=O)cc1

>  <canonical_smi>  (187) 
C[C@H](C(=O)Nc1cc(C2CC2)n[nH]1)c1ccc(N2CC[C@@H](O)C2=O)cc1

>  <Set>  (187) 
G2 active

>  <Set_type>  (187) 
Train

>  <MW>  (187) 
354.41

>  <HBD>  (187) 
3

>  <HBA>  (187) 
4

>  <NRB>  (187) 
5

>  <NR>  (187) 
4

>  <NAR>  (187) 
2

>  <PSA>  (187) 
98.32

>  <Standard Type>  (187) 
nan

>  <Standard Relation>  (187) 
nan

>  <Standard Units>  (187) 
nan

>  <Standard Value>  (187) 
nan

>  <Assay ChEMBL ID>  (187) 
nan

>  <Assay Description>  (187) 
nan

>  <BAO Label>  (187) 
nan

$$$$

     RDKit          2D

 23 25  0  0  0  0  0  0  0  0999 V2000
   -6.1149    1.8303    0.0000 C   0  0  0  0  0  0  0  0  0  0  0  0
   -4.6883    2.2939    0.0000 C   0  0  0  0  0  0  0  0  0  0  0  0
   -4.3764    3.7611    0.0000 C   0  0  0  0  0  0  0  0  0  0  0  0
   -3.5736    1.2902    0.0000 N   0  0  0  0  0  0  0  0  0  0  0  0
   -2.1470    1.7537    0.0000 C   0  0  0  0  0  0  0  0  0  0  0  0
   -1.8351    3.2209    0.0000 C   0  0  0  0  0  0  0  0  0  0  0  0
   -0.4086    3.6844    0.0000 C   0  0  0  0  0  0  0  0  0  0  0  0
   -0.0967    5.1517    0.0000 N   0  0  0  0  0  0  0  0  0  0  0  0
    1.3299    5.6152    0.0000 C   0  0  0  0  0  0  0  0  0  0  0  0
    2.4446    4.6115    0.0000 C   0  0  0  0  0  0  0  0  0  0  0  0
    3.8712    5.0750    0.0000 C   0  0  0  0  0  0  0  0  0  0  0  0
    4.1831    6.5422    0.0000 C   0  0  0  0  0  0  0  0  0  0  0  0
    5.6097    7.0058    0.0000 N   0  0  0  0  0  0  0  0  0  0  0  0
    3.0684    7.5459    0.0000 C   0  0  0  0  0  0  0  0  0  0  0  0
    1.6418    7.0824    0.0000 C   0  0  0  0  0  0  0  0  0  0  0  0
    0.7062    2.6807    0.0000 N   0  0  0  0  0  0  0  0  0  0  0  0
    0.3943    1.2135    0.0000 C   0  0  0  0  0  0  0  0  0  0  0  0
    1.2760    0.0000    0.0000 C   0  0  0  0  0  0  0  0  0  0  0  0
    2.7760    0.0000    0.0000 C   0  0  0  0  0  0  0  0  0  0  0  0
    4.2760   -0.0000    0.0000 N   0  0  0  0  0  0  0  0  0  0  0  0
    0.3943   -1.2135    0.0000 C   0  0  0  0  0  0  0  0  0  0  0  0
   -1.0323   -0.7500    0.0000 N   0  0  0  0  0  0  0  0  0  0  0  0
   -1.0323    0.7500    0.0000 N   0  0  0  0  0  0  0  0  0  0  0  0
  1  2  1  0
  2  3  1  0
  2  4  1  0
  4  5  1  0
  5  6  2  0
  6  7  1  0
  7  8  1  0
  8  9  1  0
  9 10  1  0
 10 11  1  0
 11 12  1  0
 12 13  1  0
 12 14  1  0
 14 15  1  0
  7 16  2  0
 16 17  1  0
 17 18  2  0
 18 19  1  0
 19 20  3  0
 18 21  1  0
 21 22  2  0
 22 23  1  0
 23  5  1  0
 15  9  1  0
 23 17  1  0
M  END
>  <Compound_ID>  (188) 
CHEMBL509730

>  <Active>  (188) 
1

>  <Smiles>  (188) 
CC(C)Nc1cc(NC2CCC(N)CC2)nc2c(C#N)cnn12

>  <canonical_smi>  (188) 
CC(C)Nc1cc(NC2CCC(N)CC2)nc2c(C#N)cnn12

>  <Set>  (188) 
G2 active

>  <Set_type>  (188) 
Train

>  <MW>  (188) 
313.41

>  <HBD>  (188) 
3

>  <HBA>  (188) 
6

>  <NRB>  (188) 
4

>  <NR>  (188) 
3

>  <NAR>  (188) 
2

>  <PSA>  (188) 
104.06

>  <Standard Type>  (188) 
nan

>  <Standard Relation>  (188) 
nan

>  <Standard Units>  (188) 
nan

>  <Standard Value>  (188) 
nan

>  <Assay ChEMBL ID>  (188) 
nan

>  <Assay Description>  (188) 
nan

>  <BAO Label>  (188) 
nan

$$$$

     RDKit          2D

 24 26  0  0  0  0  0  0  0  0999 V2000
   -0.5773   -4.2803    0.0000 C   0  0  0  0  0  0  0  0  0  0  0  0
    0.8899   -3.9684    0.0000 C   0  0  0  0  0  0  0  0  0  0  0  0
    2.0046   -4.9721    0.0000 N   0  0  0  0  0  0  0  0  0  0  0  0
    3.3037   -4.2221    0.0000 C   0  0  0  0  0  0  0  0  0  0  0  0
    4.6740   -4.8322    0.0000 N   0  0  0  0  0  4  0  0  0  0  0  0
    5.8875   -3.9505    0.0000 O   0  0  0  0  0  0  0  0  0  0  0  0
    4.8308   -6.3240    0.0000 O   0  0  0  0  0  1  0  0  0  0  0  0
    2.9918   -2.7549    0.0000 C   0  0  0  0  0  0  0  0  0  0  0  0
    3.9955   -1.6402    0.0000 C   0  0  0  0  0  0  0  0  0  0  0  0
    1.5000   -2.5981    0.0000 C   0  0  0  0  0  0  0  0  0  0  0  0
    0.7500   -1.2990    0.0000 C   0  0  0  0  0  0  0  0  0  0  0  0
    1.5000    0.0000    0.0000 C   0  0  0  0  0  0  0  0  0  0  0  0
    0.7500    1.2990    0.0000 C   0  0  0  0  0  0  0  0  0  0  0  0
   -0.7500    1.2990    0.0000 N   0  0  0  0  0  0  0  0  0  0  0  0
   -1.5000    0.0000    0.0000 C   0  0  0  0  0  0  0  0  0  0  0  0
   -3.0000    0.0000    0.0000 N   0  0  0  0  0  0  0  0  0  0  0  0
   -3.7500    1.2990    0.0000 C   0  0  0  0  0  0  0  0  0  0  0  0
   -3.0000    2.5981    0.0000 C   0  0  0  0  0  0  0  0  0  0  0  0
   -3.7500    3.8971    0.0000 C   0  0  0  0  0  0  0  0  0  0  0  0
   -5.2500    3.8971    0.0000 C   0  0  0  0  0  0  0  0  0  0  0  0
   -6.0000    5.1962    0.0000 F   0  0  0  0  0  0  0  0  0  0  0  0
   -6.0000    2.5981    0.0000 C   0  0  0  0  0  0  0  0  0  0  0  0
   -5.2500    1.2990    0.0000 C   0  0  0  0  0  0  0  0  0  0  0  0
   -0.7500   -1.2990    0.0000 N   0  0  0  0  0  0  0  0  0  0  0  0
  1  2  1  0
  2  3  1  0
  3  4  1  0
  4  5  1  0
  5  6  2  0
  5  7  1  0
  4  8  2  0
  8  9  1  0
  8 10  1  0
 10 11  1  0
 11 12  2  0
 12 13  1  0
 13 14  2  0
 14 15  1  0
 15 16  1  0
 16 17  1  0
 17 18  2  0
 18 19  1  0
 19 20  2  0
 20 21  1  0
 20 22  1  0
 22 23  2  0
 15 24  2  0
 10  2  2  0
 24 11  1  0
 23 17  1  0
M  CHG  2   5   1   7  -1
M  END
>  <Compound_ID>  (189) 
CHEMBL364767

>  <Active>  (189) 
1

>  <Smiles>  (189) 
Cc1[nH]c([N+](=O)[O-])c(C)c1-c1ccnc(Nc2ccc(F)cc2)n1

>  <canonical_smi>  (189) 
Cc1[nH]c([N+](=O)[O-])c(C)c1-c1ccnc(Nc2ccc(F)cc2)n1

>  <Set>  (189) 
G2 active

>  <Set_type>  (189) 
Train

>  <MW>  (189) 
327.32

>  <HBD>  (189) 
2

>  <HBA>  (189) 
5

>  <NRB>  (189) 
4

>  <NR>  (189) 
3

>  <NAR>  (189) 
3

>  <PSA>  (189) 
96.74

>  <Standard Type>  (189) 
nan

>  <Standard Relation>  (189) 
nan

>  <Standard Units>  (189) 
nan

>  <Standard Value>  (189) 
nan

>  <Assay ChEMBL ID>  (189) 
nan

>  <Assay Description>  (189) 
nan

>  <BAO Label>  (189) 
nan

$$$$

     RDKit          2D

 25 28  0  0  0  0  0  0  0  0999 V2000
    8.8568    0.3802    0.0000 C   0  0  0  0  0  0  0  0  0  0  0  0
    7.4865    0.9903    0.0000 S   0  0  0  0  0  0  0  0  0  0  0  0
    8.0966    2.3606    0.0000 O   0  0  0  0  0  0  0  0  0  0  0  0
    6.8764   -0.3800    0.0000 O   0  0  0  0  0  0  0  0  0  0  0  0
    6.1162    1.6004    0.0000 C   0  0  0  0  0  0  0  0  0  0  0  0
    4.9026    0.7188    0.0000 C   0  0  0  0  0  0  0  0  0  0  0  0
    3.5323    1.3289    0.0000 C   0  0  0  0  0  0  0  0  0  0  0  0
    3.3755    2.8206    0.0000 C   0  0  0  0  0  0  0  0  0  0  0  0
    2.0052    3.4307    0.0000 N   0  0  0  0  0  0  0  0  0  0  0  0
    1.6933    4.8980    0.0000 N   0  0  0  0  0  0  0  0  0  0  0  0
    0.2016    5.0548    0.0000 C   0  0  0  0  0  0  0  0  0  0  0  0
   -0.5484    6.3538    0.0000 C   0  0  0  0  0  0  0  0  0  0  0  0
    0.2016    7.6528    0.0000 N   0  0  0  0  0  0  0  0  0  0  0  0
   -2.0484    6.3538    0.0000 O   0  0  0  0  0  0  0  0  0  0  0  0
   -0.4086    3.6844    0.0000 C   0  0  0  0  0  0  0  0  0  0  0  0
    0.7062    2.6807    0.0000 C   0  0  0  0  0  0  0  0  0  0  0  0
    0.3943    1.2135    0.0000 C   0  0  0  0  0  0  0  0  0  0  0  0
    1.2760    0.0000    0.0000 C   0  0  0  0  0  0  0  0  0  0  0  0
    0.3943   -1.2135    0.0000 N   0  0  0  0  0  0  0  0  0  0  0  0
   -1.0323   -0.7500    0.0000 N   0  0  0  0  0  0  0  0  0  0  0  0
   -1.0323    0.7500    0.0000 C   0  0  0  0  0  0  0  0  0  0  0  0
   -2.1470    1.7537    0.0000 C   0  0  0  0  0  0  0  0  0  0  0  0
   -1.8351    3.2209    0.0000 C   0  0  0  0  0  0  0  0  0  0  0  0
    4.5890    3.7023    0.0000 C   0  0  0  0  0  0  0  0  0  0  0  0
    5.9594    3.0922    0.0000 C   0  0  0  0  0  0  0  0  0  0  0  0
  1  2  1  0
  2  3  2  0
  2  4  2  0
  2  5  1  0
  5  6  2  0
  6  7  1  0
  7  8  2  0
  8  9  1  0
  9 10  1  0
 10 11  2  0
 11 12  1  0
 12 13  1  0
 12 14  2  0
 11 15  1  0
 15 16  2  0
 16 17  1  0
 17 18  2  0
 18 19  1  0
 19 20  1  0
 20 21  2  0
 21 22  1  0
 22 23  1  0
  8 24  1  0
 24 25  2  0
 25  5  1  0
 16  9  1  0
 21 17  1  0
 23 15  1  0
M  END
>  <Compound_ID>  (190) 
CHEMBL178408

>  <Active>  (190) 
1

>  <Smiles>  (190) 
CS(=O)(=O)c1ccc(-n2nc(C(N)=O)c3c2-c2c[nH]nc2CC3)cc1

>  <canonical_smi>  (190) 
CS(=O)(=O)c1ccc(-n2nc(C(N)=O)c3c2-c2c[nH]nc2CC3)cc1

>  <Set>  (190) 
G2 active

>  <Set_type>  (190) 
Train

>  <MW>  (190) 
357.4

>  <HBD>  (190) 
2

>  <HBA>  (190) 
5

>  <NRB>  (190) 
3

>  <NR>  (190) 
4

>  <NAR>  (190) 
3

>  <PSA>  (190) 
123.73

>  <Standard Type>  (190) 
nan

>  <Standard Relation>  (190) 
nan

>  <Standard Units>  (190) 
nan

>  <Standard Value>  (190) 
nan

>  <Assay ChEMBL ID>  (190) 
nan

>  <Assay Description>  (190) 
nan

>  <BAO Label>  (190) 
nan

$$$$

     RDKit          2D

 28 31  0  0  0  0  0  0  0  0999 V2000
   -2.9520   -4.6564    0.0000 C   0  0  0  0  0  0  0  0  0  0  0  0
   -2.6401   -3.1891    0.0000 C   0  0  0  0  0  0  0  0  0  0  0  0
   -1.2135   -2.7256    0.0000 C   0  0  0  0  0  0  0  0  0  0  0  0
   -0.0000   -3.6073    0.0000 N   0  0  0  0  0  0  0  0  0  0  0  0
    1.2135   -2.7256    0.0000 N   0  0  0  0  0  0  0  0  0  0  0  0
    2.6401   -3.1891    0.0000 C   0  0  0  0  0  0  0  0  0  0  0  0
    2.9520   -4.6564    0.0000 C   0  0  0  0  0  0  0  0  0  0  0  0
    1.8373   -5.6601    0.0000 Cl  0  0  0  0  0  0  0  0  0  0  0  0
    4.3786   -5.1199    0.0000 C   0  0  0  0  0  0  0  0  0  0  0  0
    5.4933   -4.1162    0.0000 C   0  0  0  0  0  0  0  0  0  0  0  0
    6.9199   -4.5797    0.0000 Cl  0  0  0  0  0  0  0  0  0  0  0  0
    5.1814   -2.6490    0.0000 C   0  0  0  0  0  0  0  0  0  0  0  0
    3.7548   -2.1855    0.0000 C   0  0  0  0  0  0  0  0  0  0  0  0
    3.4430   -0.7182    0.0000 Cl  0  0  0  0  0  0  0  0  0  0  0  0
    0.7500   -1.2990    0.0000 C   0  0  0  0  0  0  0  0  0  0  0  0
    1.5000    0.0000    0.0000 N   0  0  0  0  0  0  0  0  0  0  0  0
    0.7500    1.2990    0.0000 C   0  0  0  0  0  0  0  0  0  0  0  0
    1.5000    2.5981    0.0000 C   0  0  0  0  0  0  0  0  0  0  0  0
    3.0000    2.5981    0.0000 C   0  0  0  0  0  0  0  0  0  0  0  0
    3.7500    1.2990    0.0000 C   0  0  0  0  0  0  0  0  0  0  0  0
    5.2500    1.2990    0.0000 C   0  0  0  0  0  0  0  0  0  0  0  0
    6.0000    2.5981    0.0000 N   0  0  0  0  0  0  0  0  0  0  0  0
    5.2500    3.8971    0.0000 C   0  0  0  0  0  0  0  0  0  0  0  0
    3.7500    3.8971    0.0000 C   0  0  0  0  0  0  0  0  0  0  0  0
   -0.7500    1.2990    0.0000 N   0  0  0  0  0  0  0  0  0  0  0  0
   -1.5000    0.0000    0.0000 C   0  0  0  0  0  0  0  0  0  0  0  0
   -3.0000    0.0000    0.0000 O   0  0  0  0  0  0  0  0  0  0  0  0
   -0.7500   -1.2990    0.0000 C   0  0  0  0  0  0  0  0  0  0  0  0
  1  2  1  0
  2  3  1  0
  3  4  2  0
  4  5  1  0
  5  6  1  0
  6  7  2  0
  7  8  1  0
  7  9  1  0
  9 10  2  0
 10 11  1  0
 10 12  1  0
 12 13  2  0
 13 14  1  0
  5 15  1  0
 15 16  2  0
 16 17  1  0
 17 18  1  0
 18 19  1  0
 19 20  2  0
 20 21  1  0
 21 22  2  0
 22 23  1  0
 23 24  2  0
 17 25  2  0
 25 26  1  0
 26 27  1  0
 26 28  2  0
 28  3  1  0
 13  6  1  0
 28 15  1  0
 24 19  1  0
M  END
>  <Compound_ID>  (191) 
CHEMBL188863

>  <Active>  (191) 
1

>  <Smiles>  (191) 
CCc1nn(-c2c(Cl)cc(Cl)cc2Cl)c2nc(Cc3ccncc3)nc(O)c12

>  <canonical_smi>  (191) 
CCc1nn(-c2c(Cl)cc(Cl)cc2Cl)c2nc(Cc3ccncc3)nc(O)c12

>  <Set>  (191) 
G2 active

>  <Set_type>  (191) 
Train

>  <MW>  (191) 
434.71

>  <HBD>  (191) 
1

>  <HBA>  (191) 
5

>  <NRB>  (191) 
4

>  <NR>  (191) 
4

>  <NAR>  (191) 
4

>  <PSA>  (191) 
76.72

>  <Standard Type>  (191) 
nan

>  <Standard Relation>  (191) 
nan

>  <Standard Units>  (191) 
nan

>  <Standard Value>  (191) 
nan

>  <Assay ChEMBL ID>  (191) 
nan

>  <Assay Description>  (191) 
nan

>  <BAO Label>  (191) 
nan

$$$$

     RDKit          2D

 31 35  0  0  0  0  0  0  0  0999 V2000
   -2.5565   -7.4827    0.0000 N   0  0  0  0  0  0  0  0  0  0  0  0
   -1.4418   -6.4791    0.0000 C   0  0  0  0  0  0  0  0  0  0  0  0
   -0.0152   -6.9426    0.0000 O   0  0  0  0  0  0  0  0  0  0  0  0
   -1.7537   -5.0118    0.0000 C   0  0  0  0  0  0  0  0  0  0  0  0
   -3.1240   -4.4017    0.0000 N   0  0  0  0  0  0  0  0  0  0  0  0
   -2.9672   -2.9099    0.0000 N   0  0  0  0  0  0  0  0  0  0  0  0
   -4.0819   -1.9062    0.0000 C   0  0  0  0  0  0  0  0  0  0  0  0
   -5.5085   -2.3698    0.0000 C   0  0  0  0  0  0  0  0  0  0  0  0
   -6.6232   -1.3661    0.0000 N   0  0  0  0  0  0  0  0  0  0  0  0
   -6.3114    0.1011    0.0000 C   0  0  0  0  0  0  0  0  0  0  0  0
   -7.4261    1.1048    0.0000 C   0  0  0  0  0  0  0  0  0  0  0  0
   -8.8527    0.6413    0.0000 C   0  0  0  0  0  0  0  0  0  0  0  0
   -9.1645   -0.8259    0.0000 C   0  0  0  0  0  0  0  0  0  0  0  0
   -8.0498   -1.8296    0.0000 C   0  0  0  0  0  0  0  0  0  0  0  0
   -1.5000   -2.5981    0.0000 C   0  0  0  0  0  0  0  0  0  0  0  0
   -0.7500   -3.8971    0.0000 C   0  0  0  0  0  0  0  0  0  0  0  0
    0.7500   -3.8971    0.0000 C   0  0  0  0  0  0  0  0  0  0  0  0
    1.5000   -2.5981    0.0000 C   0  0  0  0  0  0  0  0  0  0  0  0
    0.7500   -1.2990    0.0000 C   0  0  0  0  0  0  0  0  0  0  0  0
    1.5000    0.0000    0.0000 C   0  0  0  0  0  0  0  0  0  0  0  0
    0.7500    1.2990    0.0000 N   0  0  0  0  0  0  0  0  0  0  0  0
   -0.7500    1.2990    0.0000 C   0  0  0  0  0  0  0  0  0  0  0  0
   -1.5000    2.5981    0.0000 N   0  0  0  0  0  0  0  0  0  0  0  0
   -0.7500    3.8971    0.0000 C   0  0  0  0  0  0  0  0  0  0  0  0
    0.7500    3.8971    0.0000 C   0  0  0  0  0  0  0  0  0  0  0  0
    1.5000    5.1962    0.0000 C   0  0  0  0  0  0  0  0  0  0  0  0
    0.7500    6.4952    0.0000 C   0  0  0  0  0  0  0  0  0  0  0  0
   -0.7500    6.4952    0.0000 C   0  0  0  0  0  0  0  0  0  0  0  0
   -1.5000    5.1962    0.0000 C   0  0  0  0  0  0  0  0  0  0  0  0
   -1.5000    0.0000    0.0000 N   0  0  0  0  0  0  0  0  0  0  0  0
   -0.7500   -1.2990    0.0000 C   0  0  0  0  0  0  0  0  0  0  0  0
  1  2  1  0
  2  3  2  0
  2  4  1  0
  4  5  2  0
  5  6  1  0
  6  7  1  0
  7  8  1  0
  8  9  1  0
  9 10  1  0
 10 11  1  0
 11 12  1  0
 12 13  1  0
 13 14  1  0
  6 15  1  0
 15 16  2  0
 16 17  1  0
 17 18  1  0
 18 19  1  0
 19 20  2  0
 20 21  1  0
 21 22  2  0
 22 23  1  0
 23 24  1  0
 24 25  2  0
 25 26  1  0
 26 27  2  0
 27 28  1  0
 28 29  2  0
 22 30  1  0
 30 31  2  0
 16  4  1  0
 31 19  1  0
 14  9  1  0
 31 15  1  0
 29 24  1  0
M  END
>  <Compound_ID>  (192) 
CHEMBL1098058

>  <Active>  (192) 
1

>  <Smiles>  (192) 
NC(=O)c1nn(CCN2CCCCC2)c2c1CCc1cnc(Nc3ccccc3)nc1-2

>  <canonical_smi>  (192) 
NC(=O)c1nn(CCN2CCCCC2)c2c1CCc1cnc(Nc3ccccc3)nc1-2

>  <Set>  (192) 
G2 active

>  <Set_type>  (192) 
Train

>  <MW>  (192) 
417.52

>  <HBD>  (192) 
2

>  <HBA>  (192) 
6

>  <NRB>  (192) 
6

>  <NR>  (192) 
5

>  <NAR>  (192) 
3

>  <PSA>  (192) 
101.96

>  <Standard Type>  (192) 
nan

>  <Standard Relation>  (192) 
nan

>  <Standard Units>  (192) 
nan

>  <Standard Value>  (192) 
nan

>  <Assay ChEMBL ID>  (192) 
nan

>  <Assay Description>  (192) 
nan

>  <BAO Label>  (192) 
nan

$$$$

     RDKit          2D

 24 26  0  0  0  0  0  0  0  0999 V2000
    5.8875   -3.9505    0.0000 C   0  0  0  0  0  0  0  0  0  0  0  0
    4.6740   -4.8322    0.0000 C   0  0  0  0  0  0  0  0  0  0  0  0
    4.8308   -6.3240    0.0000 C   0  0  0  0  0  0  0  0  0  0  0  0
    3.7160   -7.3277    0.0000 S   0  0  0  0  0  0  0  0  0  0  0  0
    4.3261   -8.6980    0.0000 C   0  0  0  0  0  0  0  0  0  0  0  0
    3.5761   -9.9970    0.0000 N   0  0  0  0  0  0  0  0  0  0  0  0
    5.8179   -8.5412    0.0000 N   0  0  0  0  0  0  0  0  0  0  0  0
    6.1298   -7.0740    0.0000 C   0  0  0  0  0  0  0  0  0  0  0  0
    7.5001   -6.4639    0.0000 O   0  0  0  0  0  0  0  0  0  0  0  0
    3.3037   -4.2221    0.0000 C   0  0  0  0  0  0  0  0  0  0  0  0
    2.0046   -4.9721    0.0000 C   0  0  0  0  0  0  0  0  0  0  0  0
    0.8899   -3.9684    0.0000 C   0  0  0  0  0  0  0  0  0  0  0  0
    1.5000   -2.5981    0.0000 C   0  0  0  0  0  0  0  0  0  0  0  0
    0.7500   -1.2990    0.0000 C   0  0  0  0  0  0  0  0  0  0  0  0
    1.5000    0.0000    0.0000 C   0  0  0  0  0  0  0  0  0  0  0  0
    0.7500    1.2990    0.0000 C   0  0  0  0  0  0  0  0  0  0  0  0
   -0.7500    1.2990    0.0000 C   0  0  0  0  0  0  0  0  0  0  0  0
   -1.5000    2.5981    0.0000 S   0  0  0  0  0  0  0  0  0  0  0  0
   -2.2500    3.8971    0.0000 N   0  0  0  0  0  0  0  0  0  0  0  0
   -0.2010    3.3481    0.0000 O   0  0  0  0  0  0  0  0  0  0  0  0
   -2.7990    1.8481    0.0000 O   0  0  0  0  0  0  0  0  0  0  0  0
   -1.5000    0.0000    0.0000 C   0  0  0  0  0  0  0  0  0  0  0  0
   -0.7500   -1.2990    0.0000 C   0  0  0  0  0  0  0  0  0  0  0  0
    2.9918   -2.7549    0.0000 O   0  0  0  0  0  0  0  0  0  0  0  0
  1  2  1  0
  2  3  2  0
  3  4  1  0
  4  5  1  0
  5  6  2  0
  5  7  1  0
  7  8  1  0
  8  9  2  0
  2 10  1  0
 10 11  2  0
 11 12  1  0
 12 13  2  0
 13 14  1  0
 14 15  2  0
 15 16  1  0
 16 17  2  0
 17 18  1  0
 18 19  1  0
 18 20  2  0
 18 21  2  0
 17 22  1  0
 22 23  2  0
 13 24  1  0
  8  3  1  0
 24 10  1  0
 23 14  1  0
M  END
>  <Compound_ID>  (193) 
CHEMBL231950

>  <Active>  (193) 
1

>  <Smiles>  (193) 
C/C(=C1/SC(=N)NC1=O)c1ccc(-c2ccc(S(N)(=O)=O)cc2)o1

>  <canonical_smi>  (193) 
C/C(=C1/SC(=N)NC1=O)c1ccc(-c2ccc(S(N)(=O)=O)cc2)o1

>  <Set>  (193) 
G2 active

>  <Set_type>  (193) 
Train

>  <MW>  (193) 
363.42

>  <HBD>  (193) 
3

>  <HBA>  (193) 
5

>  <NRB>  (193) 
3

>  <NR>  (193) 
3

>  <NAR>  (193) 
2

>  <PSA>  (193) 
126.25

>  <Standard Type>  (193) 
nan

>  <Standard Relation>  (193) 
nan

>  <Standard Units>  (193) 
nan

>  <Standard Value>  (193) 
nan

>  <Assay ChEMBL ID>  (193) 
nan

>  <Assay Description>  (193) 
nan

>  <BAO Label>  (193) 
nan

$$$$

     RDKit          2D

 25 27  0  0  0  0  0  0  0  0999 V2000
    6.5218   -4.2298    0.0000 C   0  0  0  0  0  0  0  0  0  0  0  0
    5.3083   -3.3481    0.0000 C   0  0  0  0  0  0  0  0  0  0  0  0
    3.8817   -3.8116    0.0000 C   0  0  0  0  0  0  0  0  0  0  0  0
    3.0000   -2.5981    0.0000 C   0  0  0  0  0  0  0  0  0  0  0  0
    1.5000   -2.5981    0.0000 N   0  0  0  0  0  0  0  0  0  0  0  0
    0.7500   -1.2990    0.0000 C   0  0  0  0  0  0  0  0  0  0  0  0
    1.5000    0.0000    0.0000 C   0  0  0  0  0  0  0  0  0  0  0  0
    0.7500    1.2990    0.0000 N   0  0  0  0  0  0  0  0  0  0  0  0
   -0.7500    1.2990    0.0000 C   0  0  0  0  0  0  0  0  0  0  0  0
   -1.5000    2.5981    0.0000 C   0  0  0  0  0  0  0  0  0  0  0  0
   -2.2500    3.8971    0.0000 N   0  0  0  0  0  0  0  0  0  0  0  0
   -1.5000    0.0000    0.0000 C   0  0  0  0  0  0  0  0  0  0  0  0
   -3.0000    0.0000    0.0000 N   0  0  0  0  0  0  0  0  0  0  0  0
   -3.7500   -1.2990    0.0000 C   0  0  0  0  0  0  0  0  0  0  0  0
   -5.2500   -1.2990    0.0000 C   0  0  0  0  0  0  0  0  0  0  0  0
   -3.0000   -2.5981    0.0000 C   0  0  0  0  0  0  0  0  0  0  0  0
   -3.7500   -3.8971    0.0000 C   0  0  0  0  0  0  0  0  0  0  0  0
   -3.0000   -5.1962    0.0000 C   0  0  0  0  0  0  0  0  0  0  0  0
   -1.5000   -5.1962    0.0000 C   0  0  0  0  0  0  0  0  0  0  0  0
   -0.7500   -6.4952    0.0000 F   0  0  0  0  0  0  0  0  0  0  0  0
   -0.7500   -3.8971    0.0000 C   0  0  0  0  0  0  0  0  0  0  0  0
   -1.5000   -2.5981    0.0000 N   0  0  0  0  0  0  0  0  0  0  0  0
   -0.7500   -1.2990    0.0000 N   0  0  0  0  0  0  0  0  0  0  0  0
    3.8817   -1.3846    0.0000 N   0  0  0  0  0  0  0  0  0  0  0  0
    5.3083   -1.8481    0.0000 N   0  0  0  0  0  0  0  0  0  0  0  0
  1  2  1  0
  2  3  2  0
  3  4  1  0
  4  5  1  0
  5  6  1  0
  6  7  2  0
  7  8  1  0
  8  9  2  0
  9 10  1  0
 10 11  3  0
  9 12  1  0
 12 13  1  0
 13 14  1  0
 14 15  1  6
 14 16  1  0
 16 17  2  0
 17 18  1  0
 18 19  2  0
 19 20  1  0
 19 21  1  0
 21 22  2  0
 12 23  2  0
  4 24  2  0
 24 25  1  0
 25  2  1  0
 23  6  1  0
 22 16  1  0
M  END
>  <Compound_ID>  (194) 
CHEMBL576257

>  <Active>  (194) 
1

>  <Smiles>  (194) 
Cc1cc(Nc2cnc(C#N)c(N[C@@H](C)c3ccc(F)cn3)n2)n[nH]1

>  <canonical_smi>  (194) 
Cc1cc(Nc2cnc(C#N)c(N[C@@H](C)c3ccc(F)cn3)n2)n[nH]1

>  <Set>  (194) 
G2 active

>  <Set_type>  (194) 
Train

>  <MW>  (194) 
338.35

>  <HBD>  (194) 
3

>  <HBA>  (194) 
7

>  <NRB>  (194) 
5

>  <NR>  (194) 
3

>  <NAR>  (194) 
3

>  <PSA>  (194) 
115.2

>  <Standard Type>  (194) 
nan

>  <Standard Relation>  (194) 
nan

>  <Standard Units>  (194) 
nan

>  <Standard Value>  (194) 
nan

>  <Assay ChEMBL ID>  (194) 
nan

>  <Assay Description>  (194) 
nan

>  <BAO Label>  (194) 
nan

$$$$

     RDKit          2D

 22 25  0  0  0  0  0  0  0  0999 V2000
   -1.2114    6.1554    0.0000 O   0  0  0  0  0  0  0  0  0  0  0  0
   -2.6380    5.6918    0.0000 C   0  0  0  0  0  0  0  0  0  0  0  0
   -2.9499    4.2246    0.0000 C   0  0  0  0  0  0  0  0  0  0  0  0
   -1.8351    3.2209    0.0000 C   0  0  0  0  0  0  0  0  0  0  0  0
   -0.4086    3.6844    0.0000 C   0  0  0  0  0  0  0  0  0  0  0  0
    0.7062    2.6807    0.0000 C   0  0  0  0  0  0  0  0  0  0  0  0
    0.3943    1.2135    0.0000 C   0  0  0  0  0  0  0  0  0  0  0  0
    1.2760    0.0000    0.0000 N   0  0  0  0  0  0  0  0  0  0  0  0
    0.3943   -1.2135    0.0000 C   0  0  0  0  0  0  0  0  0  0  0  0
   -1.0323   -0.7500    0.0000 N   0  0  0  0  0  0  0  0  0  0  0  0
   -1.0323    0.7500    0.0000 C   0  0  0  0  0  0  0  0  0  0  0  0
   -2.1470    1.7537    0.0000 C   0  0  0  0  0  0  0  0  0  0  0  0
   -3.7527    6.6955    0.0000 N   0  0  0  0  0  0  0  0  0  0  0  0
   -3.4408    8.1628    0.0000 C   0  0  0  0  0  0  0  0  0  0  0  0
   -4.4445    9.2775    0.0000 N   0  0  0  0  0  0  0  0  0  0  0  0
   -3.6945   10.5765    0.0000 C   0  0  0  0  0  0  0  0  0  0  0  0
   -2.2273   10.2646    0.0000 C   0  0  0  0  0  0  0  0  0  0  0  0
   -1.1126   11.2683    0.0000 C   0  0  0  0  0  0  0  0  0  0  0  0
    0.3854   11.1898    0.0000 C   0  0  0  0  0  0  0  0  0  0  0  0
    0.4639   12.6878    0.0000 C   0  0  0  0  0  0  0  0  0  0  0  0
   -1.0341   12.7663    0.0000 C   0  0  0  0  0  0  0  0  0  0  0  0
   -2.0705    8.7729    0.0000 S   0  0  0  0  0  0  0  0  0  0  0  0
  1  2  2  0
  2  3  1  0
  3  4  1  0
  4  5  2  0
  5  6  1  0
  6  7  2  0
  7  8  1  0
  8  9  1  0
  9 10  2  0
 10 11  1  0
 11 12  2  0
  2 13  1  0
 13 14  1  0
 14 15  2  0
 15 16  1  0
 16 17  2  0
 17 18  1  0
 18 19  1  0
 19 20  1  0
 20 21  1  0
 17 22  1  0
 12  4  1  0
 22 14  1  0
 11  7  1  0
 21 18  1  0
M  END
>  <Compound_ID>  (195) 
CHEMBL186898

>  <Active>  (195) 
1

>  <Smiles>  (195) 
O=C(Cc1ccc2[nH]cnc2c1)Nc1ncc(C2CCC2)s1

>  <canonical_smi>  (195) 
O=C(Cc1ccc2[nH]cnc2c1)Nc1ncc(C2CCC2)s1

>  <Set>  (195) 
G2 active

>  <Set_type>  (195) 
Train

>  <MW>  (195) 
312.4

>  <HBD>  (195) 
2

>  <HBA>  (195) 
3

>  <NRB>  (195) 
4

>  <NR>  (195) 
4

>  <NAR>  (195) 
3

>  <PSA>  (195) 
70.67

>  <Standard Type>  (195) 
nan

>  <Standard Relation>  (195) 
nan

>  <Standard Units>  (195) 
nan

>  <Standard Value>  (195) 
nan

>  <Assay ChEMBL ID>  (195) 
nan

>  <Assay Description>  (195) 
nan

>  <BAO Label>  (195) 
nan

$$$$

     RDKit          2D

 30 33  0  0  0  0  0  0  0  0999 V2000
   -0.0000   -5.1073    0.0000 N   0  0  0  0  0  0  0  0  0  0  0  0
   -0.0000   -3.6073    0.0000 C   0  0  0  0  0  0  0  0  0  0  0  0
    1.2135   -2.7256    0.0000 N   0  0  0  0  0  0  0  0  0  0  0  0
    0.7500   -1.2990    0.0000 C   0  0  0  0  0  0  0  0  0  0  0  0
    1.5000    0.0000    0.0000 C   0  0  0  0  0  0  0  0  0  0  0  0
    0.7500    1.2990    0.0000 C   0  0  0  0  0  0  0  0  0  0  0  0
   -0.7500    1.2990    0.0000 C   0  0  0  0  0  0  0  0  0  0  0  0
   -1.5000    2.5981    0.0000 C   0  0  0  0  0  0  0  0  0  0  0  0
   -3.0000    2.5981    0.0000 O   0  0  0  0  0  0  0  0  0  0  0  0
   -0.7500    3.8971    0.0000 C   0  0  0  0  0  0  0  0  0  0  0  0
    0.7500    3.8971    0.0000 C   0  0  0  0  0  0  0  0  0  0  0  0
    1.5000    2.5981    0.0000 F   0  0  0  0  0  0  0  0  0  0  0  0
    1.5000    5.1962    0.0000 C   0  0  0  0  0  0  0  0  0  0  0  0
    0.7500    6.4952    0.0000 C   0  0  0  0  0  0  0  0  0  0  0  0
   -0.7500    6.4952    0.0000 C   0  0  0  0  0  0  0  0  0  0  0  0
   -1.5000    5.1962    0.0000 C   0  0  0  0  0  0  0  0  0  0  0  0
   -3.0000    5.1962    0.0000 Cl  0  0  0  0  0  0  0  0  0  0  0  0
   -1.5000    0.0000    0.0000 C   0  0  0  0  0  0  0  0  0  0  0  0
   -0.7500   -1.2990    0.0000 N   0  0  0  0  0  0  0  0  0  0  0  0
   -1.2135   -2.7256    0.0000 C   0  0  0  0  0  0  0  0  0  0  0  0
   -2.6401   -3.1891    0.0000 C   0  0  0  0  0  0  0  0  0  0  0  0
   -2.9520   -4.6564    0.0000 O   0  0  0  0  0  0  0  0  0  0  0  0
   -3.7548   -2.1855    0.0000 C   0  0  0  0  0  0  0  0  0  0  0  0
   -3.4430   -0.7182    0.0000 C   0  0  0  0  0  0  0  0  0  0  0  0
   -2.2981   -0.0028    0.0000 F   0  0  0  0  0  0  0  0  0  0  0  0
   -4.5577    0.2855    0.0000 C   0  0  0  0  0  0  0  0  0  0  0  0
   -5.9843   -0.1781    0.0000 C   0  0  0  0  0  0  0  0  0  0  0  0
   -6.2961   -1.6453    0.0000 C   0  0  0  0  0  0  0  0  0  0  0  0
   -5.1814   -2.6490    0.0000 C   0  0  0  0  0  0  0  0  0  0  0  0
   -5.4933   -4.1162    0.0000 F   0  0  0  0  0  0  0  0  0  0  0  0
  1  2  1  0
  2  3  1  0
  3  4  2  0
  4  5  1  0
  5  6  2  0
  6  7  1  0
  7  8  1  0
  8  9  2  0
  8 10  1  0
 10 11  2  0
 11 12  1  0
 11 13  1  0
 13 14  2  0
 14 15  1  0
 15 16  2  0
 16 17  1  0
  7 18  2  0
 18 19  1  0
 19 20  1  0
 20 21  1  0
 21 22  2  0
 21 23  1  0
 23 24  2  0
 24 25  1  0
 24 26  1  0
 26 27  2  0
 27 28  1  0
 28 29  2  0
 29 30  1  0
 20  2  2  0
 29 23  1  0
 19  4  1  0
 16 10  1  0
M  END
>  <Compound_ID>  (196) 
CHEMBL183941

>  <Active>  (196) 
1

>  <Smiles>  (196) 
Nc1nc2ccc(C(=O)c3c(F)cccc3Cl)cn2c1C(=O)c1c(F)cccc1F

>  <canonical_smi>  (196) 
Nc1nc2ccc(C(=O)c3c(F)cccc3Cl)cn2c1C(=O)c1c(F)cccc1F

>  <Set>  (196) 
G2 active

>  <Set_type>  (196) 
Train

>  <MW>  (196) 
429.79

>  <HBD>  (196) 
1

>  <HBA>  (196) 
4

>  <NRB>  (196) 
4

>  <NR>  (196) 
4

>  <NAR>  (196) 
4

>  <PSA>  (196) 
77.46

>  <Standard Type>  (196) 
nan

>  <Standard Relation>  (196) 
nan

>  <Standard Units>  (196) 
nan

>  <Standard Value>  (196) 
nan

>  <Assay ChEMBL ID>  (196) 
nan

>  <Assay Description>  (196) 
nan

>  <BAO Label>  (196) 
nan

$$$$

     RDKit          2D

 34 37  0  0  0  0  0  0  0  0999 V2000
    1.8478   -6.4639    0.0000 C   0  0  0  0  0  0  0  0  0  0  0  0
    2.0046   -4.9721    0.0000 C   0  0  0  0  0  0  0  0  0  0  0  0
    3.3037   -4.2221    0.0000 N   0  0  0  0  0  0  0  0  0  0  0  0
    2.9918   -2.7549    0.0000 C   0  0  0  0  0  0  0  0  0  0  0  0
    1.5000   -2.5981    0.0000 C   0  0  0  0  0  0  0  0  0  0  0  0
    0.7500   -1.2990    0.0000 C   0  0  0  0  0  0  0  0  0  0  0  0
    1.5000    0.0000    0.0000 C   0  0  0  0  0  0  0  0  0  0  0  0
    0.7500    1.2990    0.0000 C   0  0  0  0  0  0  0  0  0  0  0  0
   -0.7500    1.2990    0.0000 N   0  0  0  0  0  0  0  0  0  0  0  0
   -1.5000    0.0000    0.0000 C   0  0  0  0  0  0  0  0  0  0  0  0
   -3.0000    0.0000    0.0000 N   0  0  0  0  0  0  0  0  0  0  0  0
   -3.7500    1.2990    0.0000 C   0  0  0  0  0  0  0  0  0  0  0  0
   -3.0000    2.5981    0.0000 C   0  0  0  0  0  0  0  0  0  0  0  0
   -3.7500    3.8971    0.0000 C   0  0  0  0  0  0  0  0  0  0  0  0
   -5.2500    3.8971    0.0000 C   0  0  0  0  0  0  0  0  0  0  0  0
   -6.0000    5.1962    0.0000 S   0  0  0  0  0  0  0  0  0  0  0  0
   -7.2990    4.4462    0.0000 O   0  0  0  0  0  0  0  0  0  0  0  0
   -4.7010    5.9462    0.0000 O   0  0  0  0  0  0  0  0  0  0  0  0
   -6.7500    6.4952    0.0000 C   0  0  0  0  0  0  0  0  0  0  0  0
   -8.2500    6.4952    0.0000 C   0  0  0  0  0  0  0  0  0  0  0  0
   -9.0000    7.7942    0.0000 C   0  0  0  0  0  0  0  0  0  0  0  0
  -10.5000    7.7942    0.0000 N   0  0  0  0  0  0  0  0  0  0  0  0
  -11.2500    9.0933    0.0000 C   0  0  0  0  0  0  0  0  0  0  0  0
  -12.7500    9.0933    0.0000 C   0  0  0  0  0  0  0  0  0  0  0  0
  -13.5000    7.7942    0.0000 O   0  0  0  0  0  0  0  0  0  0  0  0
  -12.7500    6.4952    0.0000 C   0  0  0  0  0  0  0  0  0  0  0  0
  -11.2500    6.4952    0.0000 C   0  0  0  0  0  0  0  0  0  0  0  0
   -6.0000    2.5981    0.0000 C   0  0  0  0  0  0  0  0  0  0  0  0
   -5.2500    1.2990    0.0000 C   0  0  0  0  0  0  0  0  0  0  0  0
   -0.7500   -1.2990    0.0000 N   0  0  0  0  0  0  0  0  0  0  0  0
    0.8899   -3.9684    0.0000 N   0  0  0  0  0  0  0  0  0  0  0  0
   -0.5773   -4.2803    0.0000 C   0  0  0  0  0  0  0  0  0  0  0  0
   -1.0409   -5.7068    0.0000 C   0  0  0  0  0  0  0  0  0  0  0  0
   -1.5810   -3.1655    0.0000 C   0  0  0  0  0  0  0  0  0  0  0  0
  1  2  1  0
  2  3  2  0
  3  4  1  0
  4  5  2  0
  5  6  1  0
  6  7  2  0
  7  8  1  0
  8  9  2  0
  9 10  1  0
 10 11  1  0
 11 12  1  0
 12 13  2  0
 13 14  1  0
 14 15  2  0
 15 16  1  0
 16 17  2  0
 16 18  2  0
 16 19  1  0
 19 20  1  0
 20 21  1  0
 21 22  1  0
 22 23  1  0
 23 24  1  0
 24 25  1  0
 25 26  1  0
 26 27  1  0
 15 28  1  0
 28 29  2  0
 10 30  2  0
  5 31  1  0
 31 32  1  0
 32 33  1  0
 32 34  1  0
 31  2  1  0
 30  6  1  0
 29 12  1  0
 27 22  1  0
M  END
>  <Compound_ID>  (197) 
CHEMBL457888

>  <Active>  (197) 
1

>  <Smiles>  (197) 
Cc1ncc(-c2ccnc(Nc3ccc(S(=O)(=O)CCCN4CCOCC4)cc3)n2)n1C(C)C

>  <canonical_smi>  (197) 
Cc1ncc(-c2ccnc(Nc3ccc(S(=O)(=O)CCCN4CCOCC4)cc3)n2)n1C(C)C

>  <Set>  (197) 
G2 active

>  <Set_type>  (197) 
Train

>  <MW>  (197) 
484.63

>  <HBD>  (197) 
1

>  <HBA>  (197) 
8

>  <NRB>  (197) 
9

>  <NR>  (197) 
4

>  <NAR>  (197) 
3

>  <PSA>  (197) 
102.24

>  <Standard Type>  (197) 
nan

>  <Standard Relation>  (197) 
nan

>  <Standard Units>  (197) 
nan

>  <Standard Value>  (197) 
nan

>  <Assay ChEMBL ID>  (197) 
nan

>  <Assay Description>  (197) 
nan

>  <BAO Label>  (197) 
nan

$$$$

     RDKit          2D

 21 25  0  0  0  0  0  0  0  0999 V2000
    0.8050    6.0661    0.0000 O   0  0  0  0  0  0  0  0  0  0  0  0
   -0.4086    5.1844    0.0000 C   0  0  0  0  0  0  0  0  0  0  0  0
   -1.8351    5.6480    0.0000 N   0  0  0  0  0  0  0  0  0  0  0  0
   -2.7168    4.4344    0.0000 C   0  0  0  0  0  0  0  0  0  0  0  0
   -4.1544    3.9831    0.0000 C   0  0  0  0  0  0  0  0  0  0  0  0
   -4.6179    2.5565    0.0000 C   0  0  0  0  0  0  0  0  0  0  0  0
   -6.0851    2.2447    0.0000 C   0  0  0  0  0  0  0  0  0  0  0  0
   -7.0888    3.3594    0.0000 O   0  0  0  0  0  0  0  0  0  0  0  0
   -6.5487    0.8181    0.0000 C   0  0  0  0  0  0  0  0  0  0  0  0
   -5.5450   -0.2966    0.0000 C   0  0  0  0  0  0  0  0  0  0  0  0
   -4.0778    0.0152    0.0000 C   0  0  0  0  0  0  0  0  0  0  0  0
   -3.6142    1.4418    0.0000 C   0  0  0  0  0  0  0  0  0  0  0  0
   -2.1470    1.7537    0.0000 C   0  0  0  0  0  0  0  0  0  0  0  0
   -1.0323    0.7500    0.0000 C   0  0  0  0  0  0  0  0  0  0  0  0
    0.3943    1.2135    0.0000 C   0  0  0  0  0  0  0  0  0  0  0  0
    0.7062    2.6807    0.0000 C   0  0  0  0  0  0  0  0  0  0  0  0
   -0.4086    3.6844    0.0000 C   0  0  0  0  0  0  0  0  0  0  0  0
   -1.8351    3.2209    0.0000 C   0  0  0  0  0  0  0  0  0  0  0  0
    1.2760    0.0000    0.0000 O   0  0  0  0  0  0  0  0  0  0  0  0
    0.3943   -1.2135    0.0000 C   0  0  0  0  0  0  0  0  0  0  0  0
   -1.0323   -0.7500    0.0000 O   0  0  0  0  0  0  0  0  0  0  0  0
  1  2  2  0
  2  3  1  0
  3  4  1  0
  4  5  2  0
  5  6  1  0
  6  7  2  0
  7  8  1  0
  7  9  1  0
  9 10  2  0
 10 11  1  0
 11 12  2  0
 12 13  1  0
 13 14  2  0
 14 15  1  0
 15 16  2  0
 16 17  1  0
 17 18  2  0
 15 19  1  0
 19 20  1  0
 20 21  1  0
 17  2  1  0
 18  4  1  0
 12  6  1  0
 18 13  1  0
 21 14  1  0
M  END
>  <Compound_ID>  (198) 
CHEMBL609040

>  <Active>  (198) 
1

>  <Smiles>  (198) 
O=C1Nc2cc3c(O)cccc3c3c4c(cc1c23)OCO4

>  <canonical_smi>  (198) 
O=C1Nc2cc3c(O)cccc3c3c4c(cc1c23)OCO4

>  <Set>  (198) 
G2 active

>  <Set_type>  (198) 
Train

>  <MW>  (198) 
279.25

>  <HBD>  (198) 
2

>  <HBA>  (198) 
4

>  <NRB>  (198) 
0

>  <NR>  (198) 
5

>  <NAR>  (198) 
3

>  <PSA>  (198) 
67.79

>  <Standard Type>  (198) 
nan

>  <Standard Relation>  (198) 
nan

>  <Standard Units>  (198) 
nan

>  <Standard Value>  (198) 
nan

>  <Assay ChEMBL ID>  (198) 
nan

>  <Assay Description>  (198) 
nan

>  <BAO Label>  (198) 
nan

$$$$

     RDKit          2D

 22 25  0  0  0  0  0  0  0  0999 V2000
   -3.7500   -3.8971    0.0000 O   0  0  0  0  0  0  0  0  0  0  0  0
   -3.0000   -5.1962    0.0000 C   0  0  0  0  0  0  0  0  0  0  0  0
   -1.5000   -5.1962    0.0000 C   0  0  0  0  0  0  0  0  0  0  0  0
   -0.7500   -3.8971    0.0000 C   0  0  0  0  0  0  0  0  0  0  0  0
    0.7500   -3.8971    0.0000 C   0  0  0  0  0  0  0  0  0  0  0  0
    1.5000   -2.5981    0.0000 C   0  0  0  0  0  0  0  0  0  0  0  0
    0.7500   -1.2990    0.0000 C   0  0  0  0  0  0  0  0  0  0  0  0
    1.5000    0.0000    0.0000 C   0  0  0  0  0  0  0  0  0  0  0  0
    0.7500    1.2990    0.0000 C   0  0  0  0  0  0  0  0  0  0  0  0
   -0.7500    1.2990    0.0000 C   0  0  0  0  0  0  0  0  0  0  0  0
   -1.5000    0.0000    0.0000 C   0  0  0  0  0  0  0  0  0  0  0  0
   -0.7500   -1.2990    0.0000 C   0  0  0  0  0  0  0  0  0  0  0  0
   -1.5000   -2.5981    0.0000 C   0  0  0  0  0  0  0  0  0  0  0  0
   -3.7500   -6.4952    0.0000 N   0  0  0  0  0  0  0  0  0  0  0  0
   -5.2500   -6.4952    0.0000 C   0  0  0  0  0  0  0  0  0  0  0  0
   -6.1317   -7.7087    0.0000 C   0  0  0  0  0  0  0  0  0  0  0  0
   -7.5583   -7.2452    0.0000 C   0  0  0  0  0  0  0  0  0  0  0  0
   -8.7718   -8.1269    0.0000 C   0  0  0  0  0  0  0  0  0  0  0  0
   -9.3819   -9.4972    0.0000 C   0  0  0  0  0  0  0  0  0  0  0  0
  -10.2636   -8.2837    0.0000 C   0  0  0  0  0  0  0  0  0  0  0  0
   -7.5583   -5.7452    0.0000 N   0  0  0  0  0  0  0  0  0  0  0  0
   -6.1317   -5.2817    0.0000 N   0  0  0  0  0  0  0  0  0  0  0  0
  1  2  2  0
  2  3  1  0
  3  4  1  0
  4  5  2  0
  5  6  1  0
  6  7  2  0
  7  8  1  0
  8  9  2  0
  9 10  1  0
 10 11  2  0
 11 12  1  0
 12 13  2  0
  2 14  1  0
 14 15  1  0
 15 16  1  0
 16 17  2  0
 17 18  1  0
 18 19  1  0
 19 20  1  0
 17 21  1  0
 21 22  1  0
 13  4  1  0
 22 15  2  0
 12  7  1  0
 20 18  1  0
M  END
>  <Compound_ID>  (199) 
CHEMBL115220

>  <Active>  (199) 
1

>  <Smiles>  (199) 
O=C(Cc1ccc2ccccc2c1)Nc1cc(C2CC2)[nH]n1

>  <canonical_smi>  (199) 
O=C(Cc1ccc2ccccc2c1)Nc1cc(C2CC2)[nH]n1

>  <Set>  (199) 
G2 active

>  <Set_type>  (199) 
Train

>  <MW>  (199) 
291.35

>  <HBD>  (199) 
2

>  <HBA>  (199) 
2

>  <NRB>  (199) 
4

>  <NR>  (199) 
4

>  <NAR>  (199) 
3

>  <PSA>  (199) 
57.78

>  <Standard Type>  (199) 
nan

>  <Standard Relation>  (199) 
nan

>  <Standard Units>  (199) 
nan

>  <Standard Value>  (199) 
nan

>  <Assay ChEMBL ID>  (199) 
nan

>  <Assay Description>  (199) 
nan

>  <BAO Label>  (199) 
nan

$$$$

     RDKit          2D

 22 24  0  0  0  0  0  0  0  0999 V2000
   -6.0000   -0.0000    0.0000 C   0  0  0  0  0  0  0  0  0  0  0  0
   -5.2500   -1.2990    0.0000 C   0  0  0  0  0  0  0  0  0  0  0  0
   -3.7500   -1.2990    0.0000 C   0  0  0  0  0  0  0  0  0  0  0  0
   -3.0000   -2.5981    0.0000 C   0  0  0  0  0  0  0  0  0  0  0  0
   -1.5000   -2.5981    0.0000 N   0  0  0  0  0  0  0  0  0  0  0  0
   -0.7500   -3.8971    0.0000 C   0  0  0  0  0  0  0  0  0  0  0  0
   -1.5000   -5.1962    0.0000 O   0  0  0  0  0  0  0  0  0  0  0  0
    0.7500   -3.8971    0.0000 C   0  0  0  0  0  0  0  0  0  0  0  0
    1.5000   -2.5981    0.0000 C   0  0  0  0  0  0  0  0  0  0  0  0
    0.7500   -1.2990    0.0000 C   0  0  0  0  0  0  0  0  0  0  0  0
    1.5000    0.0000    0.0000 C   0  0  0  0  0  0  0  0  0  0  0  0
    0.7500    1.2990    0.0000 N   0  0  0  0  0  0  0  0  0  0  0  0
   -0.7500    1.2990    0.0000 C   0  0  0  0  0  0  0  0  0  0  0  0
   -1.5000    2.5981    0.0000 N   0  0  0  0  0  0  0  0  0  0  0  0
   -0.7500    3.8971    0.0000 C   0  0  0  0  0  0  0  0  0  0  0  0
    0.7500    3.8971    0.0000 C   0  0  0  0  0  0  0  0  0  0  0  0
    1.5000    5.1962    0.0000 C   0  0  0  0  0  0  0  0  0  0  0  0
    0.7500    6.4952    0.0000 C   0  0  0  0  0  0  0  0  0  0  0  0
   -0.7500    6.4952    0.0000 C   0  0  0  0  0  0  0  0  0  0  0  0
   -1.5000    5.1962    0.0000 C   0  0  0  0  0  0  0  0  0  0  0  0
   -1.5000    0.0000    0.0000 N   0  0  0  0  0  0  0  0  0  0  0  0
   -0.7500   -1.2990    0.0000 C   0  0  0  0  0  0  0  0  0  0  0  0
  1  2  1  0
  2  3  1  0
  3  4  1  0
  4  5  1  0
  5  6  1  0
  6  7  2  0
  6  8  1  0
  8  9  2  0
  9 10  1  0
 10 11  2  0
 11 12  1  0
 12 13  2  0
 13 14  1  0
 14 15  1  0
 15 16  2  0
 16 17  1  0
 17 18  2  0
 18 19  1  0
 19 20  2  0
 13 21  1  0
 21 22  2  0
 22  5  1  0
 22 10  1  0
 20 15  1  0
M  END
>  <Compound_ID>  (200) 
CHEMBL356603

>  <Active>  (200) 
1

>  <Smiles>  (200) 
CCCCn1c(=O)ccc2cnc(Nc3ccccc3)nc21

>  <canonical_smi>  (200) 
CCCCn1c(=O)ccc2cnc(Nc3ccccc3)nc21

>  <Set>  (200) 
G2 active

>  <Set_type>  (200) 
Train

>  <MW>  (200) 
294.36

>  <HBD>  (200) 
1

>  <HBA>  (200) 
4

>  <NRB>  (200) 
5

>  <NR>  (200) 
3

>  <NAR>  (200) 
3

>  <PSA>  (200) 
59.81

>  <Standard Type>  (200) 
nan

>  <Standard Relation>  (200) 
nan

>  <Standard Units>  (200) 
nan

>  <Standard Value>  (200) 
nan

>  <Assay ChEMBL ID>  (200) 
nan

>  <Assay Description>  (200) 
nan

>  <BAO Label>  (200) 
nan

$$$$

     RDKit          2D

 32 36  0  0  0  0  0  0  0  0999 V2000
   -8.5234   -7.7536    0.0000 C   0  0  0  0  0  0  0  0  0  0  0  0
   -7.0317   -7.5968    0.0000 O   0  0  0  0  0  0  0  0  0  0  0  0
   -6.4216   -6.2265    0.0000 C   0  0  0  0  0  0  0  0  0  0  0  0
   -7.3032   -5.0129    0.0000 C   0  0  0  0  0  0  0  0  0  0  0  0
   -6.6931   -3.6426    0.0000 C   0  0  0  0  0  0  0  0  0  0  0  0
   -5.2013   -3.4858    0.0000 C   0  0  0  0  0  0  0  0  0  0  0  0
   -4.5912   -2.1155    0.0000 C   0  0  0  0  0  0  0  0  0  0  0  0
   -5.3412   -0.8165    0.0000 N   0  0  0  0  0  0  0  0  0  0  0  0
   -4.3375    0.2982    0.0000 N   0  0  0  0  0  0  0  0  0  0  0  0
   -2.9672   -0.3119    0.0000 C   0  0  0  0  0  0  0  0  0  0  0  0
   -3.1240   -1.8037    0.0000 C   0  0  0  0  0  0  0  0  0  0  0  0
   -1.7537   -2.4138    0.0000 C   0  0  0  0  0  0  0  0  0  0  0  0
   -1.4418   -3.8810    0.0000 O   0  0  0  0  0  0  0  0  0  0  0  0
   -0.7500   -1.2990    0.0000 C   0  0  0  0  0  0  0  0  0  0  0  0
    0.7500   -1.2990    0.0000 C   0  0  0  0  0  0  0  0  0  0  0  0
    1.5000   -2.5981    0.0000 N   0  0  0  0  0  0  0  0  0  0  0  0
    3.0000   -2.5981    0.0000 C   0  0  0  0  0  0  0  0  0  0  0  0
    3.7500   -1.2990    0.0000 O   0  0  0  0  0  0  0  0  0  0  0  0
    3.7500   -3.8971    0.0000 C   0  0  0  0  0  0  0  0  0  0  0  0
    5.2500   -3.8971    0.0000 C   0  0  0  0  0  0  0  0  0  0  0  0
    6.0000   -5.1962    0.0000 C   0  0  0  0  0  0  0  0  0  0  0  0
    7.5000   -5.1962    0.0000 C   0  0  0  0  0  0  0  0  0  0  0  0
    8.2500   -3.8971    0.0000 C   0  0  0  0  0  0  0  0  0  0  0  0
    9.7500   -3.8971    0.0000 N   0  0  0  0  0  0  0  0  0  0  0  0
    7.5000   -2.5981    0.0000 C   0  0  0  0  0  0  0  0  0  0  0  0
    6.0000   -2.5981    0.0000 C   0  0  0  0  0  0  0  0  0  0  0  0
    1.5000    0.0000    0.0000 C   0  0  0  0  0  0  0  0  0  0  0  0
    0.7500    1.2990    0.0000 C   0  0  0  0  0  0  0  0  0  0  0  0
   -0.7500    1.2990    0.0000 C   0  0  0  0  0  0  0  0  0  0  0  0
   -1.5000    0.0000    0.0000 C   0  0  0  0  0  0  0  0  0  0  0  0
   -4.3197   -4.6994    0.0000 C   0  0  0  0  0  0  0  0  0  0  0  0
   -4.9298   -6.0697    0.0000 C   0  0  0  0  0  0  0  0  0  0  0  0
  1  2  1  0
  2  3  1  0
  3  4  2  0
  4  5  1  0
  5  6  2  0
  6  7  1  0
  7  8  1  0
  8  9  1  0
  9 10  2  0
 10 11  1  0
 11 12  1  0
 12 13  2  0
 12 14  1  0
 14 15  2  0
 15 16  1  0
 16 17  1  0
 17 18  2  0
 17 19  1  0
 19 20  1  0
 20 21  2  0
 21 22  1  0
 22 23  2  0
 23 24  1  0
 23 25  1  0
 25 26  2  0
 15 27  1  0
 27 28  2  0
 28 29  1  0
 29 30  2  0
  6 31  1  0
 31 32  2  0
 32  3  1  0
 11  7  2  0
 30 14  1  0
 30 10  1  0
 26 20  1  0
M  END
>  <Compound_ID>  (201) 
CHEMBL27275

>  <Active>  (201) 
1

>  <Smiles>  (201) 
COc1ccc(-c2[nH]nc3c2C(=O)c2c(NC(=O)Cc4ccc(N)cc4)cccc2-3)cc1

>  <canonical_smi>  (201) 
COc1ccc(-c2[nH]nc3c2C(=O)c2c(NC(=O)Cc4ccc(N)cc4)cccc2-3)cc1

>  <Set>  (201) 
G2 active

>  <Set_type>  (201) 
Train

>  <MW>  (201) 
424.46

>  <HBD>  (201) 
3

>  <HBA>  (201) 
5

>  <NRB>  (201) 
5

>  <NR>  (201) 
5

>  <NAR>  (201) 
5

>  <PSA>  (201) 
110.1

>  <Standard Type>  (201) 
nan

>  <Standard Relation>  (201) 
nan

>  <Standard Units>  (201) 
nan

>  <Standard Value>  (201) 
nan

>  <Assay ChEMBL ID>  (201) 
nan

>  <Assay Description>  (201) 
nan

>  <BAO Label>  (201) 
nan

$$$$

     RDKit          2D

 22 25  0  0  0  0  0  0  0  0999 V2000
   -3.0000   -5.1962    0.0000 O   0  0  0  0  0  0  0  0  0  0  0  0
   -3.7500   -3.8971    0.0000 C   0  0  0  0  0  0  0  0  0  0  0  0
   -3.0000   -2.5981    0.0000 C   0  0  0  0  0  0  0  0  0  0  0  0
   -1.5000   -2.5981    0.0000 C   0  0  0  0  0  0  0  0  0  0  0  0
   -0.7500   -3.8971    0.0000 C   0  0  0  0  0  0  0  0  0  0  0  0
    0.7500   -3.8971    0.0000 C   0  0  0  0  0  0  0  0  0  0  0  0
    1.5000   -2.5981    0.0000 C   0  0  0  0  0  0  0  0  0  0  0  0
    0.7500   -1.2990    0.0000 C   0  0  0  0  0  0  0  0  0  0  0  0
    1.5000    0.0000    0.0000 C   0  0  0  0  0  0  0  0  0  0  0  0
    0.7500    1.2990    0.0000 C   0  0  0  0  0  0  0  0  0  0  0  0
   -0.7500    1.2990    0.0000 C   0  0  0  0  0  0  0  0  0  0  0  0
   -1.5000    0.0000    0.0000 C   0  0  0  0  0  0  0  0  0  0  0  0
   -0.7500   -1.2990    0.0000 C   0  0  0  0  0  0  0  0  0  0  0  0
   -5.2500   -3.8971    0.0000 N   0  0  0  0  0  0  0  0  0  0  0  0
   -6.0000   -5.1962    0.0000 C   0  0  0  0  0  0  0  0  0  0  0  0
   -5.3899   -6.5665    0.0000 C   0  0  0  0  0  0  0  0  0  0  0  0
   -6.5046   -7.5702    0.0000 C   0  0  0  0  0  0  0  0  0  0  0  0
   -6.3478   -9.0619    0.0000 C   0  0  0  0  0  0  0  0  0  0  0  0
   -5.4661  -10.2755    0.0000 C   0  0  0  0  0  0  0  0  0  0  0  0
   -6.9579  -10.4323    0.0000 C   0  0  0  0  0  0  0  0  0  0  0  0
   -7.8037   -6.8202    0.0000 N   0  0  0  0  0  0  0  0  0  0  0  0
   -7.4918   -5.3529    0.0000 N   0  0  0  0  0  0  0  0  0  0  0  0
  1  2  2  0
  2  3  1  0
  3  4  1  0
  4  5  2  0
  5  6  1  0
  6  7  2  0
  7  8  1  0
  8  9  2  0
  9 10  1  0
 10 11  2  0
 11 12  1  0
 12 13  2  0
  2 14  1  0
 14 15  1  0
 15 16  1  0
 16 17  2  0
 17 18  1  0
 18 19  1  0
 19 20  1  0
 17 21  1  0
 21 22  1  0
 13  4  1  0
 22 15  2  0
 13  8  1  0
 20 18  1  0
M  END
>  <Compound_ID>  (202) 
CHEMBL326501

>  <Active>  (202) 
1

>  <Smiles>  (202) 
O=C(Cc1cccc2ccccc12)Nc1cc(C2CC2)[nH]n1

>  <canonical_smi>  (202) 
O=C(Cc1cccc2ccccc12)Nc1cc(C2CC2)[nH]n1

>  <Set>  (202) 
G2 active

>  <Set_type>  (202) 
Train

>  <MW>  (202) 
291.35

>  <HBD>  (202) 
2

>  <HBA>  (202) 
2

>  <NRB>  (202) 
4

>  <NR>  (202) 
4

>  <NAR>  (202) 
3

>  <PSA>  (202) 
57.78

>  <Standard Type>  (202) 
nan

>  <Standard Relation>  (202) 
nan

>  <Standard Units>  (202) 
nan

>  <Standard Value>  (202) 
nan

>  <Assay ChEMBL ID>  (202) 
nan

>  <Assay Description>  (202) 
nan

>  <BAO Label>  (202) 
nan

$$$$

     RDKit          2D

 22 25  0  0  0  0  0  0  0  0999 V2000
   -1.8373   -5.6601    0.0000 O   0  0  0  0  0  0  0  0  0  0  0  0
   -2.9520   -4.6564    0.0000 C   0  0  0  0  0  0  0  0  0  0  0  0
   -2.6401   -3.1891    0.0000 C   0  0  0  0  0  0  0  0  0  0  0  0
   -1.2135   -2.7256    0.0000 C   0  0  0  0  0  0  0  0  0  0  0  0
   -0.0000   -3.6073    0.0000 C   0  0  0  0  0  0  0  0  0  0  0  0
    1.2135   -2.7256    0.0000 N   0  0  0  0  0  0  0  0  0  0  0  0
    0.7500   -1.2990    0.0000 C   0  0  0  0  0  0  0  0  0  0  0  0
    1.5000    0.0000    0.0000 C   0  0  0  0  0  0  0  0  0  0  0  0
    0.7500    1.2990    0.0000 C   0  0  0  0  0  0  0  0  0  0  0  0
   -0.7500    1.2990    0.0000 C   0  0  0  0  0  0  0  0  0  0  0  0
   -1.5000    0.0000    0.0000 C   0  0  0  0  0  0  0  0  0  0  0  0
   -0.7500   -1.2990    0.0000 C   0  0  0  0  0  0  0  0  0  0  0  0
   -4.3786   -5.1199    0.0000 N   0  0  0  0  0  0  0  0  0  0  0  0
   -4.6904   -6.5871    0.0000 C   0  0  0  0  0  0  0  0  0  0  0  0
   -3.6867   -7.7018    0.0000 N   0  0  0  0  0  0  0  0  0  0  0  0
   -4.4367   -9.0009    0.0000 C   0  0  0  0  0  0  0  0  0  0  0  0
   -5.9040   -8.6890    0.0000 C   0  0  0  0  0  0  0  0  0  0  0  0
   -7.0187   -9.6927    0.0000 C   0  0  0  0  0  0  0  0  0  0  0  0
   -8.5166   -9.6142    0.0000 C   0  0  0  0  0  0  0  0  0  0  0  0
   -8.5951  -11.1121    0.0000 C   0  0  0  0  0  0  0  0  0  0  0  0
   -7.0972  -11.1906    0.0000 C   0  0  0  0  0  0  0  0  0  0  0  0
   -6.0607   -7.1972    0.0000 S   0  0  0  0  0  0  0  0  0  0  0  0
  1  2  2  0
  2  3  1  0
  3  4  1  0
  4  5  2  0
  5  6  1  0
  6  7  1  0
  7  8  2  0
  8  9  1  0
  9 10  2  0
 10 11  1  0
 11 12  2  0
  2 13  1  0
 13 14  1  0
 14 15  2  0
 15 16  1  0
 16 17  2  0
 17 18  1  0
 18 19  1  0
 19 20  1  0
 20 21  1  0
 17 22  1  0
 12  4  1  0
 22 14  1  0
 12  7  1  0
 21 18  1  0
M  END
>  <Compound_ID>  (203) 
CHEMBL186240

>  <Active>  (203) 
1

>  <Smiles>  (203) 
O=C(Cc1c[nH]c2ccccc12)Nc1ncc(C2CCC2)s1

>  <canonical_smi>  (203) 
O=C(Cc1c[nH]c2ccccc12)Nc1ncc(C2CCC2)s1

>  <Set>  (203) 
G2 active

>  <Set_type>  (203) 
Train

>  <MW>  (203) 
311.41

>  <HBD>  (203) 
2

>  <HBA>  (203) 
2

>  <NRB>  (203) 
4

>  <NR>  (203) 
4

>  <NAR>  (203) 
3

>  <PSA>  (203) 
57.78

>  <Standard Type>  (203) 
nan

>  <Standard Relation>  (203) 
nan

>  <Standard Units>  (203) 
nan

>  <Standard Value>  (203) 
nan

>  <Assay ChEMBL ID>  (203) 
nan

>  <Assay Description>  (203) 
nan

>  <BAO Label>  (203) 
nan

$$$$

     RDKit          2D

 26 28  0  0  0  0  0  0  0  0999 V2000
   -3.4408    8.1628    0.0000 C   0  0  0  0  0  0  0  0  0  0  0  0
   -3.7527    6.6955    0.0000 C   0  0  0  0  0  0  0  0  0  0  0  0
   -2.6380    5.6918    0.0000 C   0  0  0  0  0  0  0  0  0  0  0  0
   -1.2114    6.1554    0.0000 C   0  0  0  0  0  0  0  0  0  0  0  0
   -0.8995    7.6226    0.0000 O   0  0  0  0  0  0  0  0  0  0  0  0
   -2.9499    4.2246    0.0000 N   0  0  0  0  0  0  0  0  0  0  0  0
   -1.8351    3.2209    0.0000 C   0  0  0  0  0  0  0  0  0  0  0  0
   -0.4086    3.6844    0.0000 N   0  0  0  0  0  0  0  0  0  0  0  0
    0.7062    2.6807    0.0000 C   0  0  0  0  0  0  0  0  0  0  0  0
    2.1328    3.1443    0.0000 N   0  0  0  0  0  0  0  0  0  0  0  0
    2.4446    4.6115    0.0000 C   0  0  0  0  0  0  0  0  0  0  0  0
    3.8712    5.0750    0.0000 C   0  0  0  0  0  0  0  0  0  0  0  0
    4.9859    4.0713    0.0000 C   0  0  0  0  0  0  0  0  0  0  0  0
    6.4125    4.5348    0.0000 C   0  0  0  0  0  0  0  0  0  0  0  0
    6.7244    6.0021    0.0000 C   0  0  0  0  0  0  0  0  0  0  0  0
    5.6097    7.0058    0.0000 C   0  0  0  0  0  0  0  0  0  0  0  0
    4.1831    6.5422    0.0000 C   0  0  0  0  0  0  0  0  0  0  0  0
    0.3943    1.2135    0.0000 N   0  0  0  0  0  0  0  0  0  0  0  0
    1.2760    0.0000    0.0000 N   0  0  0  0  0  0  0  0  0  0  0  0
    0.3943   -1.2135    0.0000 C   0  0  0  0  0  0  0  0  0  0  0  0
   -1.0323   -0.7500    0.0000 C   0  0  0  0  0  0  0  0  0  0  0  0
   -2.2458   -1.6317    0.0000 C   0  0  0  0  0  0  0  0  0  0  0  0
   -2.0890   -3.1235    0.0000 C   0  0  0  0  0  0  0  0  0  0  0  0
   -3.6161   -1.0216    0.0000 C   0  0  0  0  0  0  0  0  0  0  0  0
   -1.0323    0.7500    0.0000 C   0  0  0  0  0  0  0  0  0  0  0  0
   -2.1470    1.7537    0.0000 N   0  0  0  0  0  0  0  0  0  0  0  0
  1  2  1  0
  3  2  1  6
  3  4  1  0
  4  5  1  0
  3  6  1  0
  6  7  1  0
  7  8  1  0
  8  9  2  0
  9 10  1  0
 10 11  1  0
 11 12  1  0
 12 13  2  0
 13 14  1  0
 14 15  2  0
 15 16  1  0
 16 17  2  0
  9 18  1  0
 18 19  1  0
 19 20  2  0
 20 21  1  0
 21 22  1  0
 22 23  1  0
 22 24  1  0
 21 25  2  0
 25 26  1  0
 26  7  2  0
 17 12  1  0
 25 18  1  0
M  END
>  <Compound_ID>  (204) 
CHEMBL482193

>  <Active>  (204) 
1

>  <Smiles>  (204) 
CC[C@H](CO)Nc1nc(NCc2ccccc2)n2ncc(C(C)C)c2n1

>  <canonical_smi>  (204) 
CC[C@H](CO)Nc1nc(NCc2ccccc2)n2ncc(C(C)C)c2n1

>  <Set>  (204) 
G2 active

>  <Set_type>  (204) 
Train

>  <MW>  (204) 
354.46

>  <HBD>  (204) 
3

>  <HBA>  (204) 
6

>  <NRB>  (204) 
8

>  <NR>  (204) 
3

>  <NAR>  (204) 
3

>  <PSA>  (204) 
87.37

>  <Standard Type>  (204) 
nan

>  <Standard Relation>  (204) 
nan

>  <Standard Units>  (204) 
nan

>  <Standard Value>  (204) 
nan

>  <Assay ChEMBL ID>  (204) 
nan

>  <Assay Description>  (204) 
nan

>  <BAO Label>  (204) 
nan

$$$$

     RDKit          2D

 28 31  0  0  0  0  0  0  0  0999 V2000
   -7.5000   -2.5981    0.0000 C   0  0  0  0  0  0  0  0  0  0  0  0
   -6.0000   -2.5981    0.0000 N   0  0  0  0  0  0  0  0  0  0  0  0
   -5.2500   -1.2990    0.0000 C   0  0  0  0  0  0  0  0  0  0  0  0
   -3.7500   -1.2990    0.0000 C   0  0  0  0  0  0  0  0  0  0  0  0
   -3.0000   -2.5981    0.0000 C   0  0  0  0  0  0  0  0  0  0  0  0
   -1.5000   -2.5981    0.0000 C   0  0  0  0  0  0  0  0  0  0  0  0
   -0.7500   -3.8971    0.0000 C   0  0  0  0  0  0  0  0  0  0  0  0
   -1.5000   -5.1962    0.0000 O   0  0  0  0  0  0  0  0  0  0  0  0
    0.7500   -3.8971    0.0000 C   0  0  0  0  0  0  0  0  0  0  0  0
    1.5000   -2.5981    0.0000 C   0  0  0  0  0  0  0  0  0  0  0  0
    3.0000   -2.5981    0.0000 O   0  0  0  0  0  0  0  0  0  0  0  0
    0.7500   -1.2990    0.0000 C   0  0  0  0  0  0  0  0  0  0  0  0
    1.5000    0.0000    0.0000 C   0  0  0  0  0  0  0  0  0  0  0  0
    3.0000    0.0000    0.0000 O   0  0  0  0  0  0  0  0  0  0  0  0
    0.7500    1.2990    0.0000 C   0  0  0  0  0  0  0  0  0  0  0  0
   -0.7500    1.2990    0.0000 C   0  0  0  0  0  0  0  0  0  0  0  0
   -1.5000    2.5981    0.0000 C   0  0  0  0  0  0  0  0  0  0  0  0
   -0.7500    3.8971    0.0000 C   0  0  0  0  0  0  0  0  0  0  0  0
   -1.5000    5.1962    0.0000 C   0  0  0  0  0  0  0  0  0  0  0  0
   -3.0000    5.1962    0.0000 C   0  0  0  0  0  0  0  0  0  0  0  0
   -3.7500    3.8971    0.0000 C   0  0  0  0  0  0  0  0  0  0  0  0
   -3.0000    2.5981    0.0000 C   0  0  0  0  0  0  0  0  0  0  0  0
   -3.7500    1.2990    0.0000 Cl  0  0  0  0  0  0  0  0  0  0  0  0
   -1.5000    0.0000    0.0000 O   0  0  0  0  0  0  0  0  0  0  0  0
   -0.7500   -1.2990    0.0000 C   0  0  0  0  0  0  0  0  0  0  0  0
   -3.7500   -3.8971    0.0000 C   0  0  0  0  0  0  0  0  0  0  0  0
   -3.0000   -5.1962    0.0000 O   0  0  0  0  0  0  0  0  0  0  0  0
   -5.2500   -3.8971    0.0000 C   0  0  0  0  0  0  0  0  0  0  0  0
  1  2  1  0
  2  3  1  0
  3  4  1  0
  4  5  1  0
  5  6  1  6
  6  7  2  0
  7  8  1  0
  7  9  1  0
  9 10  2  0
 10 11  1  0
 10 12  1  0
 12 13  1  0
 13 14  2  0
 13 15  1  0
 15 16  2  0
 16 17  1  0
 17 18  2  0
 18 19  1  0
 19 20  2  0
 20 21  1  0
 21 22  2  0
 22 23  1  0
 16 24  1  0
 24 25  1  0
  5 26  1  0
 26 27  1  6
 26 28  1  0
 28  2  1  0
 25  6  1  0
 25 12  2  0
 22 17  1  0
M  END
>  <Compound_ID>  (205) 
CHEMBL8817

>  <Active>  (205) 
1

>  <Smiles>  (205) 
CN1CC[C@H](c2c(O)cc(O)c3c(=O)cc(-c4ccccc4Cl)oc23)[C@H](O)C1

>  <canonical_smi>  (205) 
CN1CC[C@H](c2c(O)cc(O)c3c(=O)cc(-c4ccccc4Cl)oc23)[C@H](O)C1

>  <Set>  (205) 
G2 active

>  <Set_type>  (205) 
Train

>  <MW>  (205) 
401.85

>  <HBD>  (205) 
3

>  <HBA>  (205) 
6

>  <NRB>  (205) 
2

>  <NR>  (205) 
4

>  <NAR>  (205) 
3

>  <PSA>  (205) 
94.14

>  <Standard Type>  (205) 
nan

>  <Standard Relation>  (205) 
nan

>  <Standard Units>  (205) 
nan

>  <Standard Value>  (205) 
nan

>  <Assay ChEMBL ID>  (205) 
nan

>  <Assay Description>  (205) 
nan

>  <BAO Label>  (205) 
nan

$$$$

     RDKit          2D

 27 30  0  0  0  0  0  0  0  0999 V2000
    5.2500   -1.2990    0.0000 C   0  0  0  0  0  0  0  0  0  0  0  0
    3.7500   -1.2990    0.0000 N   0  0  0  0  0  0  0  0  0  0  0  0
    3.0000    0.0000    0.0000 C   0  0  0  0  0  0  0  0  0  0  0  0
    3.7500    1.2990    0.0000 O   0  0  0  0  0  0  0  0  0  0  0  0
    1.5000    0.0000    0.0000 C   0  0  0  0  0  0  0  0  0  0  0  0
    0.7500   -1.2990    0.0000 C   0  0  0  0  0  0  0  0  0  0  0  0
   -0.7500   -1.2990    0.0000 C   0  0  0  0  0  0  0  0  0  0  0  0
   -1.5000    0.0000    0.0000 C   0  0  0  0  0  0  0  0  0  0  0  0
   -3.0000    0.0000    0.0000 N   0  0  0  0  0  0  0  0  0  0  0  0
   -3.7500    1.2990    0.0000 C   0  0  0  0  0  0  0  0  0  0  0  0
   -3.0000    2.5981    0.0000 N   0  0  0  0  0  0  0  0  0  0  0  0
   -3.7500    3.8971    0.0000 C   0  0  0  0  0  0  0  0  0  0  0  0
   -5.2500    3.8971    0.0000 C   0  0  0  0  0  0  0  0  0  0  0  0
   -6.0000    2.5981    0.0000 C   0  0  0  0  0  0  0  0  0  0  0  0
   -7.5000    2.5981    0.0000 C   0  0  0  0  0  0  0  0  0  0  0  0
   -8.3817    1.3846    0.0000 C   0  0  0  0  0  0  0  0  0  0  0  0
   -9.8083    1.8481    0.0000 N   0  0  0  0  0  0  0  0  0  0  0  0
   -9.8083    3.3481    0.0000 C   0  0  0  0  0  0  0  0  0  0  0  0
  -11.0218    4.2298    0.0000 C   0  0  0  0  0  0  0  0  0  0  0  0
   -8.3817    3.8116    0.0000 N   0  0  0  0  0  0  0  0  0  0  0  0
   -7.9182    5.2382    0.0000 C   0  0  0  0  0  0  0  0  0  0  0  0
   -8.9218    6.3529    0.0000 C   0  0  0  0  0  0  0  0  0  0  0  0
  -10.3484    6.8164    0.0000 C   0  0  0  0  0  0  0  0  0  0  0  0
   -9.2337    7.8201    0.0000 C   0  0  0  0  0  0  0  0  0  0  0  0
   -5.2500    1.2990    0.0000 N   0  0  0  0  0  0  0  0  0  0  0  0
   -0.7500    1.2990    0.0000 C   0  0  0  0  0  0  0  0  0  0  0  0
    0.7500    1.2990    0.0000 C   0  0  0  0  0  0  0  0  0  0  0  0
  1  2  1  0
  2  3  1  0
  3  4  2  0
  3  5  1  0
  5  6  2  0
  6  7  1  0
  7  8  2  0
  8  9  1  0
  9 10  1  0
 10 11  2  0
 11 12  1  0
 12 13  2  0
 13 14  1  0
 14 15  1  0
 15 16  2  0
 16 17  1  0
 17 18  2  0
 18 19  1  0
 18 20  1  0
 20 21  1  0
 21 22  1  0
 22 23  1  0
 23 24  1  0
 14 25  2  0
  8 26  1  0
 26 27  2  0
 27  5  1  0
 25 10  1  0
 20 15  1  0
 24 22  1  0
M  END
>  <Compound_ID>  (206) 
CHEMBL488256

>  <Active>  (206) 
1

>  <Smiles>  (206) 
CNC(=O)c1ccc(Nc2nccc(-c3cnc(C)n3CC3CC3)n2)cc1

>  <canonical_smi>  (206) 
CNC(=O)c1ccc(Nc2nccc(-c3cnc(C)n3CC3CC3)n2)cc1

>  <Set>  (206) 
G2 active

>  <Set_type>  (206) 
Train

>  <MW>  (206) 
362.44

>  <HBD>  (206) 
2

>  <HBA>  (206) 
5

>  <NRB>  (206) 
6

>  <NR>  (206) 
4

>  <NAR>  (206) 
3

>  <PSA>  (206) 
84.73

>  <Standard Type>  (206) 
nan

>  <Standard Relation>  (206) 
nan

>  <Standard Units>  (206) 
nan

>  <Standard Value>  (206) 
nan

>  <Assay ChEMBL ID>  (206) 
nan

>  <Assay Description>  (206) 
nan

>  <BAO Label>  (206) 
nan

$$$$

     RDKit          2D

 23 26  0  0  0  0  0  0  0  0999 V2000
   -3.0000   -5.1962    0.0000 O   0  0  0  0  0  0  0  0  0  0  0  0
   -3.7500   -3.8971    0.0000 C   0  0  0  0  0  0  0  0  0  0  0  0
   -5.2500   -3.8971    0.0000 N   0  0  0  0  0  0  0  0  0  0  0  0
   -6.0000   -5.1962    0.0000 C   0  0  0  0  0  0  0  0  0  0  0  0
   -5.3899   -6.5665    0.0000 N   0  0  0  0  0  0  0  0  0  0  0  0
   -6.5046   -7.5702    0.0000 C   0  0  0  0  0  0  0  0  0  0  0  0
   -7.8037   -6.8202    0.0000 C   0  0  0  0  0  0  0  0  0  0  0  0
   -9.1740   -7.4303    0.0000 C   0  0  0  0  0  0  0  0  0  0  0  0
  -10.5743   -6.8927    0.0000 C   0  0  0  0  0  0  0  0  0  0  0  0
  -11.1119   -8.2931    0.0000 C   0  0  0  0  0  0  0  0  0  0  0  0
   -9.7115   -8.8306    0.0000 C   0  0  0  0  0  0  0  0  0  0  0  0
   -7.4918   -5.3529    0.0000 S   0  0  0  0  0  0  0  0  0  0  0  0
   -3.0000   -2.5981    0.0000 N   0  0  0  0  0  0  0  0  0  0  0  0
   -1.5000   -2.5981    0.0000 C   0  0  0  0  0  0  0  0  0  0  0  0
   -0.7500   -3.8971    0.0000 C   0  0  0  0  0  0  0  0  0  0  0  0
    0.7500   -3.8971    0.0000 C   0  0  0  0  0  0  0  0  0  0  0  0
    1.5000   -2.5981    0.0000 C   0  0  0  0  0  0  0  0  0  0  0  0
    0.7500   -1.2990    0.0000 C   0  0  0  0  0  0  0  0  0  0  0  0
    1.5000    0.0000    0.0000 N   0  0  0  0  0  0  0  0  0  0  0  0
    0.7500    1.2990    0.0000 C   0  0  0  0  0  0  0  0  0  0  0  0
   -0.7500    1.2990    0.0000 C   0  0  0  0  0  0  0  0  0  0  0  0
   -1.5000    0.0000    0.0000 C   0  0  0  0  0  0  0  0  0  0  0  0
   -0.7500   -1.2990    0.0000 C   0  0  0  0  0  0  0  0  0  0  0  0
  1  2  2  0
  2  3  1  0
  3  4  1  0
  4  5  2  0
  5  6  1  0
  6  7  2  0
  7  8  1  0
  8  9  1  0
  9 10  1  0
 10 11  1  0
  7 12  1  0
  2 13  1  0
 13 14  1  0
 14 15  2  0
 15 16  1  0
 16 17  2  0
 17 18  1  0
 18 19  2  0
 19 20  1  0
 20 21  2  0
 21 22  1  0
 22 23  2  0
 12  4  1  0
 23 14  1  0
 11  8  1  0
 23 18  1  0
M  END
>  <Compound_ID>  (207) 
CHEMBL187256

>  <Active>  (207) 
1

>  <Smiles>  (207) 
O=C(Nc1ncc(C2CCC2)s1)Nc1cccc2ncccc12

>  <canonical_smi>  (207) 
O=C(Nc1ncc(C2CCC2)s1)Nc1cccc2ncccc12

>  <Set>  (207) 
G2 active

>  <Set_type>  (207) 
Train

>  <MW>  (207) 
324.41

>  <HBD>  (207) 
2

>  <HBA>  (207) 
3

>  <NRB>  (207) 
3

>  <NR>  (207) 
4

>  <NAR>  (207) 
3

>  <PSA>  (207) 
66.91

>  <Standard Type>  (207) 
nan

>  <Standard Relation>  (207) 
nan

>  <Standard Units>  (207) 
nan

>  <Standard Value>  (207) 
nan

>  <Assay ChEMBL ID>  (207) 
nan

>  <Assay Description>  (207) 
nan

>  <BAO Label>  (207) 
nan

$$$$

     RDKit          2D

 25 27  0  0  0  0  0  0  0  0999 V2000
   -0.7500   -3.8971    0.0000 O   0  0  0  0  0  0  0  0  0  0  0  0
    0.7500   -3.8971    0.0000 C   0  0  0  0  0  0  0  0  0  0  0  0
    1.5000   -2.5981    0.0000 N   0  0  0  0  0  0  0  0  0  0  0  0
    0.7500   -1.2990    0.0000 C   0  0  0  0  0  0  0  0  0  0  0  0
    1.5000    0.0000    0.0000 C   0  0  0  0  0  0  0  0  0  0  0  0
    0.7500    1.2990    0.0000 C   0  0  0  0  0  0  0  0  0  0  0  0
   -0.7500    1.2990    0.0000 C   0  0  0  0  0  0  0  0  0  0  0  0
   -1.5000    0.0000    0.0000 N   0  0  0  0  0  0  0  0  0  0  0  0
   -0.7500   -1.2990    0.0000 C   0  0  0  0  0  0  0  0  0  0  0  0
    1.5000   -5.1962    0.0000 C   0  0  0  0  0  0  0  0  0  0  0  0
    2.9918   -5.3529    0.0000 N   0  0  0  0  0  0  0  0  0  0  0  0
    3.3037   -6.8202    0.0000 N   0  0  0  0  0  0  0  0  0  0  0  0
    2.0046   -7.5702    0.0000 C   0  0  0  0  0  0  0  0  0  0  0  0
    0.8899   -6.5665    0.0000 C   0  0  0  0  0  0  0  0  0  0  0  0
   -0.5773   -6.8783    0.0000 N   0  0  0  0  0  0  0  0  0  0  0  0
   -1.0409   -8.3049    0.0000 C   0  0  0  0  0  0  0  0  0  0  0  0
   -0.0372   -9.4196    0.0000 O   0  0  0  0  0  0  0  0  0  0  0  0
   -2.5081   -8.6168    0.0000 C   0  0  0  0  0  0  0  0  0  0  0  0
   -3.5118   -7.5021    0.0000 C   0  0  0  0  0  0  0  0  0  0  0  0
   -3.0482   -6.0755    0.0000 F   0  0  0  0  0  0  0  0  0  0  0  0
   -4.9790   -7.8139    0.0000 C   0  0  0  0  0  0  0  0  0  0  0  0
   -5.4425   -9.2405    0.0000 C   0  0  0  0  0  0  0  0  0  0  0  0
   -4.4388  -10.3552    0.0000 C   0  0  0  0  0  0  0  0  0  0  0  0
   -2.9716  -10.0434    0.0000 C   0  0  0  0  0  0  0  0  0  0  0  0
   -1.9679  -11.1581    0.0000 F   0  0  0  0  0  0  0  0  0  0  0  0
  1  2  2  0
  2  3  1  0
  4  3  1  6
  4  5  1  0
  5  6  1  0
  6  7  1  0
  7  8  1  0
  8  9  1  0
  2 10  1  0
 10 11  2  0
 11 12  1  0
 12 13  1  0
 13 14  2  0
 14 15  1  0
 15 16  1  0
 16 17  2  0
 16 18  1  0
 18 19  2  0
 19 20  1  0
 19 21  1  0
 21 22  2  0
 22 23  1  0
 23 24  2  0
 24 25  1  0
  9  4  1  0
 14 10  1  0
 24 18  1  0
M  END
>  <Compound_ID>  (208) 
CHEMBL498659

>  <Active>  (208) 
1

>  <Smiles>  (208) 
O=C(N[C@H]1CCCNC1)c1n[nH]cc1NC(=O)c1c(F)cccc1F

>  <canonical_smi>  (208) 
O=C(N[C@H]1CCCNC1)c1n[nH]cc1NC(=O)c1c(F)cccc1F

>  <Set>  (208) 
G2 active

>  <Set_type>  (208) 
Train

>  <MW>  (208) 
349.34

>  <HBD>  (208) 
4

>  <HBA>  (208) 
4

>  <NRB>  (208) 
4

>  <NR>  (208) 
3

>  <NAR>  (208) 
2

>  <PSA>  (208) 
98.91

>  <Standard Type>  (208) 
nan

>  <Standard Relation>  (208) 
nan

>  <Standard Units>  (208) 
nan

>  <Standard Value>  (208) 
nan

>  <Assay ChEMBL ID>  (208) 
nan

>  <Assay Description>  (208) 
nan

>  <BAO Label>  (208) 
nan

$$$$

     RDKit          2D

 33 36  0  0  0  0  0  0  0  0999 V2000
    4.6740   -4.8322    0.0000 C   0  0  0  0  0  0  0  0  0  0  0  0
    3.3037   -4.2221    0.0000 C   0  0  0  0  0  0  0  0  0  0  0  0
    2.0046   -4.9721    0.0000 N   0  0  0  0  0  0  0  0  0  0  0  0
    0.8899   -3.9684    0.0000 C   0  0  0  0  0  0  0  0  0  0  0  0
    1.5000   -2.5981    0.0000 C   0  0  0  0  0  0  0  0  0  0  0  0
    0.7500   -1.2990    0.0000 C   0  0  0  0  0  0  0  0  0  0  0  0
    1.5000    0.0000    0.0000 N   0  0  0  0  0  0  0  0  0  0  0  0
    0.7500    1.2990    0.0000 C   0  0  0  0  0  0  0  0  0  0  0  0
    1.5000    2.5981    0.0000 N   0  0  0  0  0  0  0  0  0  0  0  0
    3.0000    2.5981    0.0000 C   0  0  0  0  0  0  0  0  0  0  0  0
    3.7500    1.2990    0.0000 C   0  0  0  0  0  0  0  0  0  0  0  0
    5.2500    1.2990    0.0000 C   0  0  0  0  0  0  0  0  0  0  0  0
    6.0000    2.5981    0.0000 C   0  0  0  0  0  0  0  0  0  0  0  0
    7.5000    2.5981    0.0000 N   0  0  0  0  0  0  0  0  0  0  0  0
    8.3817    3.8116    0.0000 C   0  0  0  0  0  0  0  0  0  0  0  0
    9.8083    3.3481    0.0000 C   0  0  0  0  0  0  0  0  0  0  0  0
    9.8083    1.8481    0.0000 C   0  0  0  0  0  0  0  0  0  0  0  0
    8.3817    1.3846    0.0000 C   0  0  0  0  0  0  0  0  0  0  0  0
    7.9182   -0.0420    0.0000 C   0  0  0  0  0  0  0  0  0  0  0  0
    6.4509   -0.3539    0.0000 O   0  0  0  0  0  0  0  0  0  0  0  0
    8.9218   -1.1568    0.0000 N   0  0  0  0  0  0  0  0  0  0  0  0
    8.4583   -2.5833    0.0000 C   0  0  0  0  0  0  0  0  0  0  0  0
   10.3891   -0.8449    0.0000 C   0  0  0  0  0  0  0  0  0  0  0  0
    5.2500    3.8971    0.0000 C   0  0  0  0  0  0  0  0  0  0  0  0
    3.7500    3.8971    0.0000 C   0  0  0  0  0  0  0  0  0  0  0  0
   -0.7500    1.2990    0.0000 N   0  0  0  0  0  0  0  0  0  0  0  0
   -1.5000    0.0000    0.0000 C   0  0  0  0  0  0  0  0  0  0  0  0
   -0.7500   -1.2990    0.0000 C   0  0  0  0  0  0  0  0  0  0  0  0
   -1.5000   -2.5981    0.0000 F   0  0  0  0  0  0  0  0  0  0  0  0
    2.9918   -2.7549    0.0000 N   0  0  0  0  0  0  0  0  0  0  0  0
    3.9955   -1.6402    0.0000 C   0  0  0  0  0  0  0  0  0  0  0  0
    5.4627   -1.9520    0.0000 C   0  0  0  0  0  0  0  0  0  0  0  0
    3.5320   -0.2136    0.0000 C   0  0  0  0  0  0  0  0  0  0  0  0
  1  2  1  0
  2  3  2  0
  3  4  1  0
  4  5  2  0
  5  6  1  0
  6  7  2  0
  7  8  1  0
  8  9  1  0
  9 10  1  0
 10 11  2  0
 11 12  1  0
 12 13  2  0
 13 14  1  0
 14 15  1  0
 15 16  1  0
 16 17  1  0
 17 18  1  0
 18 19  1  1
 19 20  2  0
 19 21  1  0
 21 22  1  0
 21 23  1  0
 13 24  1  0
 24 25  2  0
  8 26  2  0
 26 27  1  0
 27 28  2  0
 28 29  1  0
  5 30  1  0
 30 31  1  0
 31 32  1  0
 31 33  1  0
 30  2  1  0
 28  6  1  0
 25 10  1  0
 18 14  1  0
M  END
>  <Compound_ID>  (209) 
CHEMBL475948

>  <Active>  (209) 
1

>  <Smiles>  (209) 
Cc1ncc(-c2nc(Nc3ccc(N4CCC[C@H]4C(=O)N(C)C)cc3)ncc2F)n1C(C)C

>  <canonical_smi>  (209) 
Cc1ncc(-c2nc(Nc3ccc(N4CCC[C@H]4C(=O)N(C)C)cc3)ncc2F)n1C(C)C

>  <Set>  (209) 
G2 active

>  <Set_type>  (209) 
Train

>  <MW>  (209) 
451.55

>  <HBD>  (209) 
1

>  <HBA>  (209) 
6

>  <NRB>  (209) 
6

>  <NR>  (209) 
4

>  <NAR>  (209) 
3

>  <PSA>  (209) 
79.18

>  <Standard Type>  (209) 
nan

>  <Standard Relation>  (209) 
nan

>  <Standard Units>  (209) 
nan

>  <Standard Value>  (209) 
nan

>  <Assay ChEMBL ID>  (209) 
nan

>  <Assay Description>  (209) 
nan

>  <BAO Label>  (209) 
nan

$$$$

     RDKit          2D

 27 30  0  0  0  0  0  0  0  0999 V2000
   -2.6401   -3.1891    0.0000 C   0  0  0  0  0  0  0  0  0  0  0  0
   -1.2135   -2.7256    0.0000 C   0  0  0  0  0  0  0  0  0  0  0  0
   -0.0000   -3.6073    0.0000 N   0  0  0  0  0  0  0  0  0  0  0  0
    1.2135   -2.7256    0.0000 N   0  0  0  0  0  0  0  0  0  0  0  0
    0.7500   -1.2990    0.0000 C   0  0  0  0  0  0  0  0  0  0  0  0
    1.5000    0.0000    0.0000 C   0  0  0  0  0  0  0  0  0  0  0  0
    0.7500    1.2990    0.0000 C   0  0  0  0  0  0  0  0  0  0  0  0
   -0.7500    1.2990    0.0000 C   0  0  0  0  0  0  0  0  0  0  0  0
   -1.5000    2.5981    0.0000 C   0  0  0  0  0  0  0  0  0  0  0  0
   -0.7500    3.8971    0.0000 C   0  0  0  0  0  0  0  0  0  0  0  0
   -1.5000    5.1962    0.0000 N   0  0  0  0  0  0  0  0  0  0  0  0
   -3.0000    5.1962    0.0000 C   0  0  0  0  0  0  0  0  0  0  0  0
   -3.7500    3.8971    0.0000 C   0  0  0  0  0  0  0  0  0  0  0  0
   -5.2500    3.8971    0.0000 O   0  0  0  0  0  0  0  0  0  0  0  0
   -6.0000    5.1962    0.0000 C   0  0  0  0  0  0  0  0  0  0  0  0
   -7.5000    5.1962    0.0000 C   0  0  0  0  0  0  0  0  0  0  0  0
   -8.2500    3.8971    0.0000 N   0  0  0  0  0  0  0  0  0  0  0  0
   -8.2500    6.4952    0.0000 C   0  0  0  0  0  0  0  0  0  0  0  0
   -9.7500    6.4952    0.0000 C   0  0  0  0  0  0  0  0  0  0  0  0
  -10.5000    7.7942    0.0000 C   0  0  0  0  0  0  0  0  0  0  0  0
  -12.0000    7.7942    0.0000 C   0  0  0  0  0  0  0  0  0  0  0  0
  -12.7500    6.4952    0.0000 C   0  0  0  0  0  0  0  0  0  0  0  0
  -12.0000    5.1962    0.0000 C   0  0  0  0  0  0  0  0  0  0  0  0
  -10.5000    5.1962    0.0000 C   0  0  0  0  0  0  0  0  0  0  0  0
   -3.0000    2.5981    0.0000 C   0  0  0  0  0  0  0  0  0  0  0  0
   -1.5000    0.0000    0.0000 C   0  0  0  0  0  0  0  0  0  0  0  0
   -0.7500   -1.2990    0.0000 C   0  0  0  0  0  0  0  0  0  0  0  0
  1  2  1  0
  2  3  2  0
  3  4  1  0
  4  5  1  0
  5  6  2  0
  6  7  1  0
  7  8  2  0
  8  9  1  0
  9 10  2  0
 10 11  1  0
 11 12  2  0
 12 13  1  0
 13 14  1  0
 14 15  1  0
 15 16  1  0
 16 17  1  1
 16 18  1  0
 18 19  1  0
 19 20  2  0
 20 21  1  0
 21 22  2  0
 22 23  1  0
 23 24  2  0
 13 25  2  0
  8 26  1  0
 26 27  2  0
 27  2  1  0
 27  5  1  0
 25  9  1  0
 24 19  1  0
M  END
>  <Compound_ID>  (210) 
CHEMBL379218

>  <Active>  (210) 
1

>  <Smiles>  (210) 
Cc1n[nH]c2ccc(-c3cncc(OC[C@@H](N)Cc4ccccc4)c3)cc12

>  <canonical_smi>  (210) 
Cc1n[nH]c2ccc(-c3cncc(OC[C@@H](N)Cc4ccccc4)c3)cc12

>  <Set>  (210) 
G2 active

>  <Set_type>  (210) 
Train

>  <MW>  (210) 
358.44

>  <HBD>  (210) 
2

>  <HBA>  (210) 
4

>  <NRB>  (210) 
6

>  <NR>  (210) 
4

>  <NAR>  (210) 
4

>  <PSA>  (210) 
76.82

>  <Standard Type>  (210) 
nan

>  <Standard Relation>  (210) 
nan

>  <Standard Units>  (210) 
nan

>  <Standard Value>  (210) 
nan

>  <Assay ChEMBL ID>  (210) 
nan

>  <Assay Description>  (210) 
nan

>  <BAO Label>  (210) 
nan

$$$$

     RDKit          2D

 25 27  0  0  0  0  0  0  0  0999 V2000
   -0.7500   -3.8971    0.0000 O   0  0  0  0  0  0  0  0  0  0  0  0
    0.7500   -3.8971    0.0000 C   0  0  0  0  0  0  0  0  0  0  0  0
    1.5000   -2.5981    0.0000 N   0  0  0  0  0  0  0  0  0  0  0  0
    0.7500   -1.2990    0.0000 C   0  0  0  0  0  0  0  0  0  0  0  0
    1.5000    0.0000    0.0000 C   0  0  0  0  0  0  0  0  0  0  0  0
    0.7500    1.2990    0.0000 C   0  0  0  0  0  0  0  0  0  0  0  0
   -0.7500    1.2990    0.0000 N   0  0  0  0  0  0  0  0  0  0  0  0
   -1.5000    0.0000    0.0000 C   0  0  0  0  0  0  0  0  0  0  0  0
   -0.7500   -1.2990    0.0000 C   0  0  0  0  0  0  0  0  0  0  0  0
    1.5000   -5.1962    0.0000 C   0  0  0  0  0  0  0  0  0  0  0  0
    2.9918   -5.3529    0.0000 N   0  0  0  0  0  0  0  0  0  0  0  0
    3.3037   -6.8202    0.0000 N   0  0  0  0  0  0  0  0  0  0  0  0
    2.0046   -7.5702    0.0000 C   0  0  0  0  0  0  0  0  0  0  0  0
    0.8899   -6.5665    0.0000 C   0  0  0  0  0  0  0  0  0  0  0  0
   -0.5773   -6.8783    0.0000 N   0  0  0  0  0  0  0  0  0  0  0  0
   -1.0409   -8.3049    0.0000 C   0  0  0  0  0  0  0  0  0  0  0  0
   -0.0372   -9.4196    0.0000 O   0  0  0  0  0  0  0  0  0  0  0  0
   -2.5081   -8.6168    0.0000 C   0  0  0  0  0  0  0  0  0  0  0  0
   -3.5118   -7.5021    0.0000 C   0  0  0  0  0  0  0  0  0  0  0  0
   -3.0482   -6.0755    0.0000 Cl  0  0  0  0  0  0  0  0  0  0  0  0
   -4.9790   -7.8139    0.0000 C   0  0  0  0  0  0  0  0  0  0  0  0
   -5.4425   -9.2405    0.0000 C   0  0  0  0  0  0  0  0  0  0  0  0
   -4.4388  -10.3552    0.0000 C   0  0  0  0  0  0  0  0  0  0  0  0
   -2.9716  -10.0434    0.0000 C   0  0  0  0  0  0  0  0  0  0  0  0
   -1.9679  -11.1581    0.0000 Cl  0  0  0  0  0  0  0  0  0  0  0  0
  1  2  2  0
  2  3  1  0
  3  4  1  0
  4  5  1  0
  5  6  1  0
  6  7  1  0
  7  8  1  0
  8  9  1  0
  2 10  1  0
 10 11  2  0
 11 12  1  0
 12 13  1  0
 13 14  2  0
 14 15  1  0
 15 16  1  0
 16 17  2  0
 16 18  1  0
 18 19  2  0
 19 20  1  0
 19 21  1  0
 21 22  2  0
 22 23  1  0
 23 24  2  0
 24 25  1  0
  9  4  1  0
 14 10  1  0
 24 18  1  0
M  END
>  <Compound_ID>  (211) 
CHEMBL445813

>  <Active>  (211) 
1

>  <Smiles>  (211) 
O=C(NC1CCNCC1)c1n[nH]cc1NC(=O)c1c(Cl)cccc1Cl

>  <canonical_smi>  (211) 
O=C(NC1CCNCC1)c1n[nH]cc1NC(=O)c1c(Cl)cccc1Cl

>  <Set>  (211) 
G2 active

>  <Set_type>  (211) 
Train

>  <MW>  (211) 
382.25

>  <HBD>  (211) 
4

>  <HBA>  (211) 
4

>  <NRB>  (211) 
4

>  <NR>  (211) 
3

>  <NAR>  (211) 
2

>  <PSA>  (211) 
98.91

>  <Standard Type>  (211) 
nan

>  <Standard Relation>  (211) 
nan

>  <Standard Units>  (211) 
nan

>  <Standard Value>  (211) 
nan

>  <Assay ChEMBL ID>  (211) 
nan

>  <Assay Description>  (211) 
nan

>  <BAO Label>  (211) 
nan

$$$$

     RDKit          2D

 35 39  0  0  0  0  0  0  0  0999 V2000
   -2.2447   -8.9500    0.0000 C   0  0  0  0  0  0  0  0  0  0  0  0
   -2.5565   -7.4827    0.0000 N   0  0  0  0  0  0  0  0  0  0  0  0
   -1.4418   -6.4791    0.0000 C   0  0  0  0  0  0  0  0  0  0  0  0
   -0.0152   -6.9426    0.0000 O   0  0  0  0  0  0  0  0  0  0  0  0
   -1.7537   -5.0118    0.0000 C   0  0  0  0  0  0  0  0  0  0  0  0
   -3.1240   -4.4017    0.0000 N   0  0  0  0  0  0  0  0  0  0  0  0
   -2.9672   -2.9099    0.0000 N   0  0  0  0  0  0  0  0  0  0  0  0
   -4.0819   -1.9062    0.0000 C   0  0  0  0  0  0  0  0  0  0  0  0
   -1.5000   -2.5981    0.0000 C   0  0  0  0  0  0  0  0  0  0  0  0
   -0.7500   -3.8971    0.0000 C   0  0  0  0  0  0  0  0  0  0  0  0
    0.7500   -3.8971    0.0000 C   0  0  0  0  0  0  0  0  0  0  0  0
    2.1595   -4.4101    0.0000 C   0  0  0  0  0  0  0  0  0  0  0  0
    0.4895   -5.3743    0.0000 C   0  0  0  0  0  0  0  0  0  0  0  0
    1.5000   -2.5981    0.0000 C   0  0  0  0  0  0  0  0  0  0  0  0
    0.7500   -1.2990    0.0000 C   0  0  0  0  0  0  0  0  0  0  0  0
    1.5000    0.0000    0.0000 C   0  0  0  0  0  0  0  0  0  0  0  0
    0.7500    1.2990    0.0000 N   0  0  0  0  0  0  0  0  0  0  0  0
   -0.7500    1.2990    0.0000 C   0  0  0  0  0  0  0  0  0  0  0  0
   -1.5000    2.5981    0.0000 N   0  0  0  0  0  0  0  0  0  0  0  0
   -0.7500    3.8971    0.0000 C   0  0  0  0  0  0  0  0  0  0  0  0
    0.7500    3.8971    0.0000 C   0  0  0  0  0  0  0  0  0  0  0  0
    1.5000    5.1962    0.0000 C   0  0  0  0  0  0  0  0  0  0  0  0
    0.7500    6.4952    0.0000 C   0  0  0  0  0  0  0  0  0  0  0  0
   -0.7500    6.4952    0.0000 C   0  0  0  0  0  0  0  0  0  0  0  0
   -1.5000    7.7942    0.0000 O   0  0  0  0  0  0  0  0  0  0  0  0
   -0.7500    9.0933    0.0000 C   0  0  0  0  0  0  0  0  0  0  0  0
    0.7500    9.0933    0.0000 C   0  0  0  0  0  0  0  0  0  0  0  0
    1.5000   10.3923    0.0000 C   0  0  0  0  0  0  0  0  0  0  0  0
    0.7500   11.6913    0.0000 N   0  0  0  0  0  0  0  0  0  0  0  0
    1.5000   12.9904    0.0000 C   0  0  0  0  0  0  0  0  0  0  0  0
   -0.7500   11.6913    0.0000 C   0  0  0  0  0  0  0  0  0  0  0  0
   -1.5000   10.3923    0.0000 C   0  0  0  0  0  0  0  0  0  0  0  0
   -1.5000    5.1962    0.0000 C   0  0  0  0  0  0  0  0  0  0  0  0
   -1.5000    0.0000    0.0000 N   0  0  0  0  0  0  0  0  0  0  0  0
   -0.7500   -1.2990    0.0000 C   0  0  0  0  0  0  0  0  0  0  0  0
  1  2  1  0
  2  3  1  0
  3  4  2  0
  3  5  1  0
  5  6  2  0
  6  7  1  0
  7  8  1  0
  7  9  1  0
  9 10  2  0
 10 11  1  0
 11 12  1  0
 11 13  1  0
 11 14  1  0
 14 15  1  0
 15 16  2  0
 16 17  1  0
 17 18  2  0
 18 19  1  0
 19 20  1  0
 20 21  2  0
 21 22  1  0
 22 23  2  0
 23 24  1  0
 24 25  1  0
 25 26  1  0
 26 27  1  0
 27 28  1  0
 28 29  1  0
 29 30  1  0
 29 31  1  0
 31 32  1  0
 24 33  2  0
 18 34  1  0
 34 35  2  0
 10  5  1  0
 35 15  1  0
 35  9  1  0
 33 20  1  0
 32 26  1  0
M  END
>  <Compound_ID>  (212) 
CHEMBL560102

>  <Active>  (212) 
1

>  <Smiles>  (212) 
CNC(=O)c1nn(C)c2c1C(C)(C)Cc1cnc(Nc3cccc(OC4CCN(C)CC4)c3)nc1-2

>  <canonical_smi>  (212) 
CNC(=O)c1nn(C)c2c1C(C)(C)Cc1cnc(Nc3cccc(OC4CCN(C)CC4)c3)nc1-2

>  <Set>  (212) 
G2 active

>  <Set_type>  (212) 
Train

>  <MW>  (212) 
475.6

>  <HBD>  (212) 
2

>  <HBA>  (212) 
7

>  <NRB>  (212) 
5

>  <NR>  (212) 
5

>  <NAR>  (212) 
3

>  <PSA>  (212) 
97.2

>  <Standard Type>  (212) 
nan

>  <Standard Relation>  (212) 
nan

>  <Standard Units>  (212) 
nan

>  <Standard Value>  (212) 
nan

>  <Assay ChEMBL ID>  (212) 
nan

>  <Assay Description>  (212) 
nan

>  <BAO Label>  (212) 
nan

$$$$

     RDKit          2D

 30 34  0  0  0  0  0  0  0  0999 V2000
   -1.7024   10.0935    0.0000 N   0  0  0  0  0  0  0  0  0  0  0  0
   -2.0143    8.6263    0.0000 C   0  0  0  0  0  0  0  0  0  0  0  0
   -0.8995    7.6226    0.0000 C   0  0  0  0  0  0  0  0  0  0  0  0
   -1.2114    6.1554    0.0000 C   0  0  0  0  0  0  0  0  0  0  0  0
   -2.6380    5.6918    0.0000 C   0  0  0  0  0  0  0  0  0  0  0  0
   -2.9499    4.2246    0.0000 N   0  0  0  0  0  0  0  0  0  0  0  0
   -1.8351    3.2209    0.0000 C   0  0  0  0  0  0  0  0  0  0  0  0
   -0.4086    3.6844    0.0000 N   0  0  0  0  0  0  0  0  0  0  0  0
    0.7062    2.6807    0.0000 C   0  0  0  0  0  0  0  0  0  0  0  0
    2.1328    3.1443    0.0000 N   0  0  0  0  0  0  0  0  0  0  0  0
    2.4446    4.6115    0.0000 C   0  0  0  0  0  0  0  0  0  0  0  0
    3.8712    5.0750    0.0000 C   0  0  0  0  0  0  0  0  0  0  0  0
    4.9859    4.0713    0.0000 C   0  0  0  0  0  0  0  0  0  0  0  0
    6.4125    4.5348    0.0000 C   0  0  0  0  0  0  0  0  0  0  0  0
    6.7244    6.0021    0.0000 C   0  0  0  0  0  0  0  0  0  0  0  0
    5.6097    7.0058    0.0000 C   0  0  0  0  0  0  0  0  0  0  0  0
    4.1831    6.5422    0.0000 C   0  0  0  0  0  0  0  0  0  0  0  0
    0.3943    1.2135    0.0000 C   0  0  0  0  0  0  0  0  0  0  0  0
    1.2760    0.0000    0.0000 N   0  0  0  0  0  0  0  0  0  0  0  0
    0.3943   -1.2135    0.0000 C   0  0  0  0  0  0  0  0  0  0  0  0
   -1.0323   -0.7500    0.0000 N   0  0  0  0  0  0  0  0  0  0  0  0
   -2.2458   -1.6317    0.0000 C   0  0  0  0  0  0  0  0  0  0  0  0
   -2.2458   -3.1317    0.0000 C   0  0  0  0  0  0  0  0  0  0  0  0
   -3.6724   -3.5952    0.0000 C   0  0  0  0  0  0  0  0  0  0  0  0
   -4.5541   -2.3817    0.0000 C   0  0  0  0  0  0  0  0  0  0  0  0
   -3.6724   -1.1682    0.0000 C   0  0  0  0  0  0  0  0  0  0  0  0
   -1.0323    0.7500    0.0000 C   0  0  0  0  0  0  0  0  0  0  0  0
   -2.1470    1.7537    0.0000 N   0  0  0  0  0  0  0  0  0  0  0  0
   -3.7527    6.6955    0.0000 C   0  0  0  0  0  0  0  0  0  0  0  0
   -3.4408    8.1628    0.0000 C   0  0  0  0  0  0  0  0  0  0  0  0
  1  2  1  0
  2  3  1  0
  3  4  1  0
  4  5  1  0
  5  6  1  0
  6  7  1  0
  7  8  2  0
  8  9  1  0
  9 10  1  0
 10 11  1  0
 11 12  1  0
 12 13  2  0
 13 14  1  0
 14 15  2  0
 15 16  1  0
 16 17  2  0
  9 18  2  0
 18 19  1  0
 19 20  2  0
 20 21  1  0
 21 22  1  0
 22 23  1  0
 23 24  1  0
 24 25  1  0
 25 26  1  0
 21 27  1  0
 27 28  2  0
  5 29  1  0
 29 30  1  0
 30  2  1  0
 28  7  1  0
 17 12  1  0
 27 18  1  0
 26 22  1  0
M  END
>  <Compound_ID>  (213) 
CHEMBL150261

>  <Active>  (213) 
1

>  <Smiles>  (213) 
NC1CCC(Nc2nc(NCc3ccccc3)c3ncn(C4CCCC4)c3n2)CC1

>  <canonical_smi>  (213) 
NC1CCC(Nc2nc(NCc3ccccc3)c3ncn(C4CCCC4)c3n2)CC1

>  <Set>  (213) 
G2 active

>  <Set_type>  (213) 
Train

>  <MW>  (213) 
405.55

>  <HBD>  (213) 
3

>  <HBA>  (213) 
6

>  <NRB>  (213) 
6

>  <NR>  (213) 
5

>  <NAR>  (213) 
3

>  <PSA>  (213) 
93.68

>  <Standard Type>  (213) 
nan

>  <Standard Relation>  (213) 
nan

>  <Standard Units>  (213) 
nan

>  <Standard Value>  (213) 
nan

>  <Assay ChEMBL ID>  (213) 
nan

>  <Assay Description>  (213) 
nan

>  <BAO Label>  (213) 
nan

$$$$

     RDKit          2D

 27 31  0  0  0  0  0  0  0  0999 V2000
   -0.0000   -5.1073    0.0000 O   0  0  0  0  0  0  0  0  0  0  0  0
   -0.0000   -3.6073    0.0000 C   0  0  0  0  0  0  0  0  0  0  0  0
    1.2135   -2.7256    0.0000 N   0  0  0  0  0  0  0  0  0  0  0  0
    0.7500   -1.2990    0.0000 C   0  0  0  0  0  0  0  0  0  0  0  0
    1.5000    0.0000    0.0000 C   0  0  0  0  0  0  0  0  0  0  0  0
    0.7500    1.2990    0.0000 C   0  0  0  0  0  0  0  0  0  0  0  0
   -0.7500    1.2990    0.0000 C   0  0  0  0  0  0  0  0  0  0  0  0
   -1.5000    0.0000    0.0000 C   0  0  0  0  0  0  0  0  0  0  0  0
   -3.0000    0.0000    0.0000 C   0  0  0  0  0  0  0  0  0  0  0  0
   -3.7500    1.2990    0.0000 C   0  0  0  0  0  0  0  0  0  0  0  0
   -5.2500    1.2990    0.0000 C   0  0  0  0  0  0  0  0  0  0  0  0
   -6.0000    0.0000    0.0000 N   0  0  0  0  0  0  0  0  0  0  0  0
   -5.2500   -1.2990    0.0000 C   0  0  0  0  0  0  0  0  0  0  0  0
   -3.7500   -1.2990    0.0000 C   0  0  0  0  0  0  0  0  0  0  0  0
   -0.7500   -1.2990    0.0000 C   0  0  0  0  0  0  0  0  0  0  0  0
   -1.2135   -2.7256    0.0000 C   0  0  0  0  0  0  0  0  0  0  0  0
   -2.6401   -3.1891    0.0000 C   0  0  0  0  0  0  0  0  0  0  0  0
   -2.9520   -4.6564    0.0000 C   0  0  0  0  0  0  0  0  0  0  0  0
   -1.9483   -5.7711    0.0000 N   0  0  0  0  0  0  0  0  0  0  0  0
   -2.6983   -7.0701    0.0000 C   0  0  0  0  0  0  0  0  0  0  0  0
   -4.1655   -6.7583    0.0000 C   0  0  0  0  0  0  0  0  0  0  0  0
   -4.3223   -5.2665    0.0000 C   0  0  0  0  0  0  0  0  0  0  0  0
   -5.6926   -4.6564    0.0000 C   0  0  0  0  0  0  0  0  0  0  0  0
   -6.9061   -5.5380    0.0000 C   0  0  0  0  0  0  0  0  0  0  0  0
   -6.7493   -7.0298    0.0000 N   0  0  0  0  0  0  0  0  0  0  0  0
   -5.3790   -7.6399    0.0000 C   0  0  0  0  0  0  0  0  0  0  0  0
   -5.2222   -9.1317    0.0000 O   0  0  0  0  0  0  0  0  0  0  0  0
  1  2  2  0
  2  3  1  0
  3  4  1  0
  4  5  2  0
  5  6  1  0
  6  7  2  0
  7  8  1  0
  8  9  1  0
  9 10  1  0
 10 11  1  0
 11 12  1  0
 12 13  1  0
 13 14  1  0
  8 15  2  0
 15 16  1  0
 16 17  2  0
 17 18  1  0
 18 19  1  0
 19 20  1  0
 20 21  2  0
 21 22  1  0
 22 23  1  0
 23 24  1  0
 24 25  1  0
 25 26  1  0
 26 27  2  0
 16  2  1  0
 22 18  2  0
 15  4  1  0
 26 21  1  0
 14  9  1  0
M  END
>  <Compound_ID>  (214) 
CHEMBL58466

>  <Active>  (214) 
1

>  <Smiles>  (214) 
O=C1Nc2cccc(C3CCNCC3)c2/C1=C/c1[nH]cc2c1CCNC2=O

>  <canonical_smi>  (214) 
O=C1Nc2cccc(C3CCNCC3)c2/C1=C/c1[nH]cc2c1CCNC2=O

>  <Set>  (214) 
G2 active

>  <Set_type>  (214) 
Train

>  <MW>  (214) 
362.43

>  <HBD>  (214) 
4

>  <HBA>  (214) 
3

>  <NRB>  (214) 
2

>  <NR>  (214) 
5

>  <NAR>  (214) 
2

>  <PSA>  (214) 
86.02

>  <Standard Type>  (214) 
nan

>  <Standard Relation>  (214) 
nan

>  <Standard Units>  (214) 
nan

>  <Standard Value>  (214) 
nan

>  <Assay ChEMBL ID>  (214) 
nan

>  <Assay Description>  (214) 
nan

>  <BAO Label>  (214) 
nan

$$$$

     RDKit          2D

 18 18  0  0  0  0  0  0  0  0999 V2000
    5.0260   -1.2990    0.0000 C   0  0  0  0  0  0  0  0  0  0  0  0
    3.5260   -1.2990    0.0000 C   0  0  0  0  0  0  0  0  0  0  0  0
    2.7760   -2.5981    0.0000 O   0  0  0  0  0  0  0  0  0  0  0  0
    2.7760    0.0000    0.0000 N   0  0  0  0  0  0  0  0  0  0  0  0
    1.2760    0.0000    0.0000 C   0  0  0  0  0  0  0  0  0  0  0  0
    0.3943    1.2135    0.0000 N   0  0  0  0  0  0  0  0  0  0  0  0
   -1.0323    0.7500    0.0000 C   0  0  0  0  0  0  0  0  0  0  0  0
   -1.0323   -0.7500    0.0000 C   0  0  0  0  0  0  0  0  0  0  0  0
   -2.2458   -1.6317    0.0000 S   0  0  0  0  0  0  0  0  0  0  0  0
   -3.6161   -1.0216    0.0000 C   0  0  0  0  0  0  0  0  0  0  0  0
   -4.8297   -1.9033    0.0000 C   0  0  0  0  0  0  0  0  0  0  0  0
   -4.6729   -3.3950    0.0000 O   0  0  0  0  0  0  0  0  0  0  0  0
   -6.2000   -1.2931    0.0000 O   0  0  0  0  0  0  0  0  0  0  0  0
   -7.4135   -2.1748    0.0000 C   0  0  0  0  0  0  0  0  0  0  0  0
   -8.2952   -0.9613    0.0000 C   0  0  0  0  0  0  0  0  0  0  0  0
   -6.5318   -3.3883    0.0000 C   0  0  0  0  0  0  0  0  0  0  0  0
   -8.6270   -3.0565    0.0000 C   0  0  0  0  0  0  0  0  0  0  0  0
    0.3943   -1.2135    0.0000 S   0  0  0  0  0  0  0  0  0  0  0  0
  1  2  1  0
  2  3  2  0
  2  4  1  0
  4  5  1  0
  5  6  2  0
  6  7  1  0
  7  8  2  0
  8  9  1  0
  9 10  1  0
 10 11  1  0
 11 12  2  0
 11 13  1  0
 13 14  1  0
 14 15  1  0
 14 16  1  0
 14 17  1  0
  8 18  1  0
 18  5  1  0
M  END
>  <Compound_ID>  (215) 
CHEMBL340012

>  <Active>  (215) 
1

>  <Smiles>  (215) 
CC(=O)Nc1ncc(SCC(=O)OC(C)(C)C)s1

>  <canonical_smi>  (215) 
CC(=O)Nc1ncc(SCC(=O)OC(C)(C)C)s1

>  <Set>  (215) 
G2 active

>  <Set_type>  (215) 
Train

>  <MW>  (215) 
288.39

>  <HBD>  (215) 
1

>  <HBA>  (215) 
5

>  <NRB>  (215) 
4

>  <NR>  (215) 
1

>  <NAR>  (215) 
1

>  <PSA>  (215) 
68.29

>  <Standard Type>  (215) 
nan

>  <Standard Relation>  (215) 
nan

>  <Standard Units>  (215) 
nan

>  <Standard Value>  (215) 
nan

>  <Assay ChEMBL ID>  (215) 
nan

>  <Assay Description>  (215) 
nan

>  <BAO Label>  (215) 
nan

$$$$

     RDKit          2D

 38 43  0  0  0  0  0  0  0  0999 V2000
   -8.5234   -7.7536    0.0000 C   0  0  0  0  0  0  0  0  0  0  0  0
   -7.0317   -7.5968    0.0000 O   0  0  0  0  0  0  0  0  0  0  0  0
   -6.4216   -6.2265    0.0000 C   0  0  0  0  0  0  0  0  0  0  0  0
   -7.3032   -5.0129    0.0000 C   0  0  0  0  0  0  0  0  0  0  0  0
   -6.6931   -3.6426    0.0000 C   0  0  0  0  0  0  0  0  0  0  0  0
   -5.2013   -3.4858    0.0000 C   0  0  0  0  0  0  0  0  0  0  0  0
   -4.5912   -2.1155    0.0000 C   0  0  0  0  0  0  0  0  0  0  0  0
   -5.3412   -0.8165    0.0000 N   0  0  0  0  0  0  0  0  0  0  0  0
   -4.3375    0.2982    0.0000 N   0  0  0  0  0  0  0  0  0  0  0  0
   -2.9672   -0.3119    0.0000 C   0  0  0  0  0  0  0  0  0  0  0  0
   -3.1240   -1.8037    0.0000 C   0  0  0  0  0  0  0  0  0  0  0  0
   -1.7537   -2.4138    0.0000 C   0  0  0  0  0  0  0  0  0  0  0  0
   -1.4418   -3.8810    0.0000 O   0  0  0  0  0  0  0  0  0  0  0  0
   -0.7500   -1.2990    0.0000 C   0  0  0  0  0  0  0  0  0  0  0  0
    0.7500   -1.2990    0.0000 C   0  0  0  0  0  0  0  0  0  0  0  0
    1.5000   -2.5981    0.0000 N   0  0  0  0  0  0  0  0  0  0  0  0
    3.0000   -2.5981    0.0000 C   0  0  0  0  0  0  0  0  0  0  0  0
    3.7500   -1.2990    0.0000 O   0  0  0  0  0  0  0  0  0  0  0  0
    3.7500   -3.8971    0.0000 N   0  0  0  0  0  0  0  0  0  0  0  0
    5.2500   -3.8971    0.0000 N   0  0  0  0  0  0  0  0  0  0  0  0
    6.0000   -5.1962    0.0000 C   0  0  0  0  0  0  0  0  0  0  0  0
    5.2500   -6.4952    0.0000 O   0  0  0  0  0  0  0  0  0  0  0  0
    7.5000   -5.1962    0.0000 C   0  0  0  0  0  0  0  0  0  0  0  0
    8.2500   -3.8971    0.0000 C   0  0  0  0  0  0  0  0  0  0  0  0
    9.7500   -3.8971    0.0000 C   0  0  0  0  0  0  0  0  0  0  0  0
   10.5000   -5.1962    0.0000 C   0  0  0  0  0  0  0  0  0  0  0  0
    9.7500   -6.4952    0.0000 C   0  0  0  0  0  0  0  0  0  0  0  0
   10.5000   -7.7942    0.0000 C   0  0  0  0  0  0  0  0  0  0  0  0
    9.7500   -9.0933    0.0000 C   0  0  0  0  0  0  0  0  0  0  0  0
    8.2500   -9.0933    0.0000 C   0  0  0  0  0  0  0  0  0  0  0  0
    7.5000   -7.7942    0.0000 C   0  0  0  0  0  0  0  0  0  0  0  0
    8.2500   -6.4952    0.0000 C   0  0  0  0  0  0  0  0  0  0  0  0
    1.5000    0.0000    0.0000 C   0  0  0  0  0  0  0  0  0  0  0  0
    0.7500    1.2990    0.0000 C   0  0  0  0  0  0  0  0  0  0  0  0
   -0.7500    1.2990    0.0000 C   0  0  0  0  0  0  0  0  0  0  0  0
   -1.5000    0.0000    0.0000 C   0  0  0  0  0  0  0  0  0  0  0  0
   -4.3197   -4.6994    0.0000 C   0  0  0  0  0  0  0  0  0  0  0  0
   -4.9298   -6.0697    0.0000 C   0  0  0  0  0  0  0  0  0  0  0  0
  1  2  1  0
  2  3  1  0
  3  4  2  0
  4  5  1  0
  5  6  2  0
  6  7  1  0
  7  8  1  0
  8  9  1  0
  9 10  2  0
 10 11  1  0
 11 12  1  0
 12 13  2  0
 12 14  1  0
 14 15  2  0
 15 16  1  0
 16 17  1  0
 17 18  2  0
 17 19  1  0
 19 20  1  0
 20 21  1  0
 21 22  2  0
 21 23  1  0
 23 24  2  0
 24 25  1  0
 25 26  2  0
 26 27  1  0
 27 28  2  0
 28 29  1  0
 29 30  2  0
 30 31  1  0
 31 32  2  0
 15 33  1  0
 33 34  2  0
 34 35  1  0
 35 36  2  0
  6 37  1  0
 37 38  2  0
 38  3  1  0
 11  7  2  0
 36 14  1  0
 36 10  1  0
 32 23  1  0
 32 27  1  0
M  END
>  <Compound_ID>  (216) 
CHEMBL364805

>  <Active>  (216) 
1

>  <Smiles>  (216) 
COc1ccc(-c2[nH]nc3c2C(=O)c2c(NC(=O)NNC(=O)c4cccc5ccccc45)cccc2-3)cc1

>  <canonical_smi>  (216) 
COc1ccc(-c2[nH]nc3c2C(=O)c2c(NC(=O)NNC(=O)c4cccc5ccccc45)cccc2-3)cc1

>  <Set>  (216) 
G2 active

>  <Set_type>  (216) 
Train

>  <MW>  (216) 
503.52

>  <HBD>  (216) 
4

>  <HBA>  (216) 
5

>  <NRB>  (216) 
4

>  <NR>  (216) 
6

>  <NAR>  (216) 
6

>  <PSA>  (216) 
125.21

>  <Standard Type>  (216) 
nan

>  <Standard Relation>  (216) 
nan

>  <Standard Units>  (216) 
nan

>  <Standard Value>  (216) 
nan

>  <Assay ChEMBL ID>  (216) 
nan

>  <Assay Description>  (216) 
nan

>  <BAO Label>  (216) 
nan

$$$$

     RDKit          2D

 24 27  0  0  0  0  0  0  0  0999 V2000
   -5.6213   -4.5165    0.0000 O   0  0  0  0  0  0  0  0  0  0  0  0
   -4.3223   -5.2665    0.0000 C   0  0  0  0  0  0  0  0  0  0  0  0
   -4.1655   -6.7583    0.0000 N   0  0  0  0  0  0  0  0  0  0  0  0
   -2.6983   -7.0701    0.0000 C   0  0  0  0  0  0  0  0  0  0  0  0
   -2.0882   -8.4404    0.0000 N   0  0  0  0  0  0  0  0  0  0  0  0
   -2.9699   -9.6540    0.0000 C   0  0  0  0  0  0  0  0  0  0  0  0
   -2.3597  -11.0243    0.0000 C   0  0  0  0  0  0  0  0  0  0  0  0
   -3.2414  -12.2378    0.0000 C   0  0  0  0  0  0  0  0  0  0  0  0
   -2.6313  -13.6081    0.0000 C   0  0  0  0  0  0  0  0  0  0  0  0
   -1.1395  -13.7649    0.0000 C   0  0  0  0  0  0  0  0  0  0  0  0
   -0.2579  -12.5514    0.0000 C   0  0  0  0  0  0  0  0  0  0  0  0
   -0.8680  -11.1811    0.0000 C   0  0  0  0  0  0  0  0  0  0  0  0
   -1.9483   -5.7711    0.0000 S   0  0  0  0  0  0  0  0  0  0  0  0
   -2.9520   -4.6564    0.0000 C   0  0  0  0  0  0  0  0  0  0  0  0
   -2.6401   -3.1891    0.0000 C   0  0  0  0  0  0  0  0  0  0  0  0
   -1.2135   -2.7256    0.0000 C   0  0  0  0  0  0  0  0  0  0  0  0
   -0.0000   -3.6073    0.0000 C   0  0  0  0  0  0  0  0  0  0  0  0
    1.2135   -2.7256    0.0000 N   0  0  0  0  0  0  0  0  0  0  0  0
    0.7500   -1.2990    0.0000 C   0  0  0  0  0  0  0  0  0  0  0  0
    1.5000    0.0000    0.0000 N   0  0  0  0  0  0  0  0  0  0  0  0
    0.7500    1.2990    0.0000 C   0  0  0  0  0  0  0  0  0  0  0  0
   -0.7500    1.2990    0.0000 C   0  0  0  0  0  0  0  0  0  0  0  0
   -1.5000    0.0000    0.0000 C   0  0  0  0  0  0  0  0  0  0  0  0
   -0.7500   -1.2990    0.0000 C   0  0  0  0  0  0  0  0  0  0  0  0
  1  2  2  0
  2  3  1  0
  3  4  2  0
  4  5  1  0
  5  6  1  0
  6  7  1  0
  7  8  2  0
  8  9  1  0
  9 10  2  0
 10 11  1  0
 11 12  2  0
  4 13  1  0
 13 14  1  0
 14 15  2  0
 15 16  1  0
 16 17  2  0
 17 18  1  0
 18 19  1  0
 19 20  2  0
 20 21  1  0
 21 22  2  0
 22 23  1  0
 23 24  2  0
 14  2  1  0
 24 16  1  0
 12  7  1  0
 24 19  1  0
M  END
>  <Compound_ID>  (217) 
CHEMBL484990

>  <Active>  (217) 
1

>  <Smiles>  (217) 
O=C1N=C(NCc2ccccc2)S/C1=C\c1c[nH]c2ncccc12

>  <canonical_smi>  (217) 
O=C1N=C(NCc2ccccc2)S/C1=C\c1c[nH]c2ncccc12

>  <Set>  (217) 
G2 active

>  <Set_type>  (217) 
Train

>  <MW>  (217) 
334.4

>  <HBD>  (217) 
2

>  <HBA>  (217) 
4

>  <NRB>  (217) 
3

>  <NR>  (217) 
4

>  <NAR>  (217) 
3

>  <PSA>  (217) 
70.14

>  <Standard Type>  (217) 
nan

>  <Standard Relation>  (217) 
nan

>  <Standard Units>  (217) 
nan

>  <Standard Value>  (217) 
nan

>  <Assay ChEMBL ID>  (217) 
nan

>  <Assay Description>  (217) 
nan

>  <BAO Label>  (217) 
nan

$$$$

     RDKit          2D

 17 18  0  0  0  0  0  0  0  0999 V2000
    5.0260   -1.2990    0.0000 C   0  0  0  0  0  0  0  0  0  0  0  0
    3.5260   -1.2990    0.0000 C   0  0  0  0  0  0  0  0  0  0  0  0
    2.7760   -2.5981    0.0000 O   0  0  0  0  0  0  0  0  0  0  0  0
    2.7760    0.0000    0.0000 N   0  0  0  0  0  0  0  0  0  0  0  0
    1.2760    0.0000    0.0000 C   0  0  0  0  0  0  0  0  0  0  0  0
    0.3943    1.2135    0.0000 N   0  0  0  0  0  0  0  0  0  0  0  0
   -1.0323    0.7500    0.0000 C   0  0  0  0  0  0  0  0  0  0  0  0
   -2.2458    1.6317    0.0000 C   0  0  0  0  0  0  0  0  0  0  0  0
   -2.0890    3.1235    0.0000 C   0  0  0  0  0  0  0  0  0  0  0  0
   -3.2037    4.1272    0.0000 N   0  0  0  0  0  0  0  0  0  0  0  0
   -2.5936    5.4975    0.0000 N   0  0  0  0  0  0  0  0  0  0  0  0
   -1.1018    5.3407    0.0000 C   0  0  0  0  0  0  0  0  0  0  0  0
   -0.0982    6.4554    0.0000 S   0  0  0  0  0  0  0  0  0  0  0  0
   -0.7900    3.8735    0.0000 N   0  0  0  0  0  0  0  0  0  0  0  0
    0.5803    3.2634    0.0000 N   0  0  0  0  0  0  0  0  0  0  0  0
   -1.0323   -0.7500    0.0000 C   0  0  0  0  0  0  0  0  0  0  0  0
    0.3943   -1.2135    0.0000 S   0  0  0  0  0  0  0  0  0  0  0  0
  1  2  1  0
  2  3  2  0
  2  4  1  0
  4  5  1  0
  5  6  2  0
  6  7  1  0
  7  8  1  0
  8  9  1  0
  9 10  2  0
 10 11  1  0
 11 12  2  0
 12 13  1  0
 12 14  1  0
 14 15  1  0
  7 16  2  0
 16 17  1  0
 17  5  1  0
 14  9  1  0
M  END
>  <Compound_ID>  (218) 
CHEMBL390918

>  <Active>  (218) 
1

>  <Smiles>  (218) 
CC(=O)Nc1nc(Cc2nnc(S)n2N)cs1

>  <canonical_smi>  (218) 
CC(=O)Nc1nc(Cc2nnc(S)n2N)cs1

>  <Set>  (218) 
G2 active

>  <Set_type>  (218) 
Train

>  <MW>  (218) 
270.34

>  <HBD>  (218) 
3

>  <HBA>  (218) 
5

>  <NRB>  (218) 
3

>  <NR>  (218) 
2

>  <NAR>  (218) 
2

>  <PSA>  (218) 
98.72

>  <Standard Type>  (218) 
nan

>  <Standard Relation>  (218) 
nan

>  <Standard Units>  (218) 
nan

>  <Standard Value>  (218) 
nan

>  <Assay ChEMBL ID>  (218) 
nan

>  <Assay Description>  (218) 
nan

>  <BAO Label>  (218) 
nan

$$$$

     RDKit          2D

 31 34  0  0  0  0  0  0  0  0999 V2000
    8.0260   -3.8971    0.0000 C   0  0  0  0  0  0  0  0  0  0  0  0
    7.2760   -2.5981    0.0000 C   0  0  0  0  0  0  0  0  0  0  0  0
    5.7760   -2.5981    0.0000 C   0  0  0  0  0  0  0  0  0  0  0  0
    5.0260   -1.2990    0.0000 C   0  0  0  0  0  0  0  0  0  0  0  0
    3.5260   -1.2990    0.0000 N   0  0  0  0  0  0  0  0  0  0  0  0
    2.7760    0.0000    0.0000 C   0  0  0  0  0  0  0  0  0  0  0  0
    3.5260    1.2990    0.0000 O   0  0  0  0  0  0  0  0  0  0  0  0
    1.2760    0.0000    0.0000 N   0  0  0  0  0  0  0  0  0  0  0  0
    0.3943    1.2135    0.0000 C   0  0  0  0  0  0  0  0  0  0  0  0
   -1.0323    0.7500    0.0000 C   0  0  0  0  0  0  0  0  0  0  0  0
   -2.4589    1.2135    0.0000 N   0  0  0  0  0  0  0  0  0  0  0  0
   -3.3405    0.0000    0.0000 N   0  0  0  0  0  0  0  0  0  0  0  0
   -2.4589   -1.2135    0.0000 C   0  0  0  0  0  0  0  0  0  0  0  0
   -2.9224   -2.6401    0.0000 N   0  0  0  0  0  0  0  0  0  0  0  0
   -4.3896   -2.9520    0.0000 C   0  0  0  0  0  0  0  0  0  0  0  0
   -5.3933   -1.8373    0.0000 O   0  0  0  0  0  0  0  0  0  0  0  0
   -4.8531   -4.3786    0.0000 C   0  0  0  0  0  0  0  0  0  0  0  0
   -6.3204   -4.6904    0.0000 C   0  0  0  0  0  0  0  0  0  0  0  0
   -7.3241   -3.5757    0.0000 C   0  0  0  0  0  0  0  0  0  0  0  0
   -8.7913   -3.8876    0.0000 C   0  0  0  0  0  0  0  0  0  0  0  0
   -9.2548   -5.3142    0.0000 C   0  0  0  0  0  0  0  0  0  0  0  0
  -10.7220   -5.6260    0.0000 N   0  0  0  0  0  0  0  0  0  0  0  0
  -11.3321   -6.9964    0.0000 C   0  0  0  0  0  0  0  0  0  0  0  0
  -12.8239   -6.8396    0.0000 C   0  0  0  0  0  0  0  0  0  0  0  0
  -13.1358   -5.3723    0.0000 C   0  0  0  0  0  0  0  0  0  0  0  0
  -11.8367   -4.6223    0.0000 C   0  0  0  0  0  0  0  0  0  0  0  0
  -11.6800   -3.1306    0.0000 O   0  0  0  0  0  0  0  0  0  0  0  0
   -8.2511   -6.4289    0.0000 C   0  0  0  0  0  0  0  0  0  0  0  0
   -6.7839   -6.1170    0.0000 C   0  0  0  0  0  0  0  0  0  0  0  0
   -1.0323   -0.7500    0.0000 C   0  0  0  0  0  0  0  0  0  0  0  0
    0.3943   -1.2135    0.0000 C   0  0  0  0  0  0  0  0  0  0  0  0
  1  2  1  0
  2  3  1  0
  3  4  1  0
  4  5  1  0
  5  6  1  0
  6  7  2  0
  6  8  1  0
  8  9  1  0
  9 10  1  0
 10 11  2  0
 11 12  1  0
 12 13  1  0
 13 14  1  0
 14 15  1  0
 15 16  2  0
 15 17  1  0
 17 18  1  0
 18 19  2  0
 19 20  1  0
 20 21  2  0
 21 22  1  0
 22 23  1  0
 23 24  1  0
 24 25  1  0
 25 26  1  0
 26 27  2  0
 21 28  1  0
 28 29  2  0
 13 30  2  0
 30 31  1  0
 31  8  1  0
 30 10  1  0
 29 18  1  0
 26 22  1  0
M  END
>  <Compound_ID>  (219) 
CHEMBL381565

>  <Active>  (219) 
1

>  <Smiles>  (219) 
CCCCNC(=O)N1Cc2n[nH]c(NC(=O)Cc3ccc(N4CCCC4=O)cc3)c2C1

>  <canonical_smi>  (219) 
CCCCNC(=O)N1Cc2n[nH]c(NC(=O)Cc3ccc(N4CCCC4=O)cc3)c2C1

>  <Set>  (219) 
G2 active

>  <Set_type>  (219) 
Train

>  <MW>  (219) 
424.51

>  <HBD>  (219) 
3

>  <HBA>  (219) 
4

>  <NRB>  (219) 
7

>  <NR>  (219) 
4

>  <NAR>  (219) 
2

>  <PSA>  (219) 
110.43

>  <Standard Type>  (219) 
nan

>  <Standard Relation>  (219) 
nan

>  <Standard Units>  (219) 
nan

>  <Standard Value>  (219) 
nan

>  <Assay ChEMBL ID>  (219) 
nan

>  <Assay Description>  (219) 
nan

>  <BAO Label>  (219) 
nan

$$$$

     RDKit          2D

 23 26  0  0  0  0  0  0  0  0999 V2000
    3.4430   -7.9964    0.0000 O   0  0  0  0  0  0  0  0  0  0  0  0
    3.7548   -6.5291    0.0000 C   0  0  0  0  0  0  0  0  0  0  0  0
    2.6401   -5.5255    0.0000 N   0  0  0  0  0  0  0  0  0  0  0  0
    1.2135   -5.9890    0.0000 C   0  0  0  0  0  0  0  0  0  0  0  0
    0.7500   -7.4156    0.0000 C   0  0  0  0  0  0  0  0  0  0  0  0
   -0.7500   -7.4156    0.0000 N   0  0  0  0  0  0  0  0  0  0  0  0
   -1.2135   -5.9890    0.0000 N   0  0  0  0  0  0  0  0  0  0  0  0
   -0.0000   -5.1073    0.0000 C   0  0  0  0  0  0  0  0  0  0  0  0
   -0.0000   -3.6073    0.0000 C   0  0  0  0  0  0  0  0  0  0  0  0
    1.2135   -2.7256    0.0000 N   0  0  0  0  0  0  0  0  0  0  0  0
    0.7500   -1.2990    0.0000 C   0  0  0  0  0  0  0  0  0  0  0  0
    1.5000    0.0000    0.0000 C   0  0  0  0  0  0  0  0  0  0  0  0
    0.7500    1.2990    0.0000 C   0  0  0  0  0  0  0  0  0  0  0  0
   -0.7500    1.2990    0.0000 C   0  0  0  0  0  0  0  0  0  0  0  0
   -1.5000    0.0000    0.0000 C   0  0  0  0  0  0  0  0  0  0  0  0
   -0.7500   -1.2990    0.0000 C   0  0  0  0  0  0  0  0  0  0  0  0
   -1.2135   -2.7256    0.0000 N   0  0  0  0  0  0  0  0  0  0  0  0
    5.1814   -6.0656    0.0000 C   0  0  0  0  0  0  0  0  0  0  0  0
    6.2961   -7.0693    0.0000 C   0  0  0  0  0  0  0  0  0  0  0  0
    7.7227   -6.6058    0.0000 C   0  0  0  0  0  0  0  0  0  0  0  0
    8.0346   -5.1386    0.0000 C   0  0  0  0  0  0  0  0  0  0  0  0
    6.9199   -4.1349    0.0000 C   0  0  0  0  0  0  0  0  0  0  0  0
    5.4933   -4.5984    0.0000 C   0  0  0  0  0  0  0  0  0  0  0  0
  1  2  2  0
  2  3  1  0
  3  4  1  0
  4  5  2  0
  5  6  1  0
  6  7  1  0
  7  8  2  0
  8  9  1  0
  9 10  2  0
 10 11  1  0
 11 12  2  0
 12 13  1  0
 13 14  2  0
 14 15  1  0
 15 16  2  0
 16 17  1  0
  2 18  1  0
 18 19  2  0
 19 20  1  0
 20 21  2  0
 21 22  1  0
 22 23  2  0
  8  4  1  0
 17  9  1  0
 23 18  1  0
 16 11  1  0
M  END
>  <Compound_ID>  (220) 
CHEMBL522891

>  <Active>  (220) 
1

>  <Smiles>  (220) 
O=C(Nc1c[nH]nc1-c1nc2ccccc2[nH]1)c1ccccc1

>  <canonical_smi>  (220) 
O=C(Nc1c[nH]nc1-c1nc2ccccc2[nH]1)c1ccccc1

>  <Set>  (220) 
G2 active

>  <Set_type>  (220) 
Train

>  <MW>  (220) 
303.33

>  <HBD>  (220) 
3

>  <HBA>  (220) 
3

>  <NRB>  (220) 
3

>  <NR>  (220) 
4

>  <NAR>  (220) 
4

>  <PSA>  (220) 
86.46

>  <Standard Type>  (220) 
nan

>  <Standard Relation>  (220) 
nan

>  <Standard Units>  (220) 
nan

>  <Standard Value>  (220) 
nan

>  <Assay ChEMBL ID>  (220) 
nan

>  <Assay Description>  (220) 
nan

>  <BAO Label>  (220) 
nan

$$$$

     RDKit          2D

 30 33  0  0  0  0  0  0  0  0999 V2000
   -1.5342  -12.0455    0.0000 N   0  0  0  0  0  0  0  0  0  0  0  0
   -2.9046  -11.4354    0.0000 C   0  0  0  0  0  0  0  0  0  0  0  0
   -3.0613   -9.9436    0.0000 C   0  0  0  0  0  0  0  0  0  0  0  0
   -1.8478   -9.0619    0.0000 N   0  0  0  0  0  0  0  0  0  0  0  0
   -2.0046   -7.5702    0.0000 C   0  0  0  0  0  0  0  0  0  0  0  0
   -3.3037   -6.8202    0.0000 N   0  0  0  0  0  0  0  0  0  0  0  0
   -2.9918   -5.3529    0.0000 N   0  0  0  0  0  0  0  0  0  0  0  0
   -1.5000   -5.1962    0.0000 C   0  0  0  0  0  0  0  0  0  0  0  0
   -0.7500   -3.8971    0.0000 C   0  0  0  0  0  0  0  0  0  0  0  0
    0.7500   -3.8971    0.0000 C   0  0  0  0  0  0  0  0  0  0  0  0
    1.5000   -2.5981    0.0000 C   0  0  0  0  0  0  0  0  0  0  0  0
    0.7500   -1.2990    0.0000 C   0  0  0  0  0  0  0  0  0  0  0  0
    1.5000    0.0000    0.0000 C   0  0  0  0  0  0  0  0  0  0  0  0
    0.7500    1.2990    0.0000 N   0  0  0  0  0  0  0  0  0  0  0  0
   -0.7500    1.2990    0.0000 C   0  0  0  0  0  0  0  0  0  0  0  0
   -1.5000    0.0000    0.0000 C   0  0  0  0  0  0  0  0  0  0  0  0
   -0.7500   -1.2990    0.0000 C   0  0  0  0  0  0  0  0  0  0  0  0
   -1.5000   -2.5981    0.0000 C   0  0  0  0  0  0  0  0  0  0  0  0
   -0.8899   -6.5665    0.0000 S   0  0  0  0  0  0  0  0  0  0  0  0
   -4.1181  -12.3171    0.0000 C   0  0  0  0  0  0  0  0  0  0  0  0
   -3.9613  -13.8089    0.0000 C   0  0  0  0  0  0  0  0  0  0  0  0
   -5.1748  -14.6905    0.0000 C   0  0  0  0  0  0  0  0  0  0  0  0
   -5.0180  -16.1823    0.0000 C   0  0  0  0  0  0  0  0  0  0  0  0
   -3.6477  -16.7924    0.0000 C   0  0  0  0  0  0  0  0  0  0  0  0
   -3.4909  -18.2842    0.0000 C   0  0  0  0  0  0  0  0  0  0  0  0
   -3.3341  -19.7760    0.0000 F   0  0  0  0  0  0  0  0  0  0  0  0
   -4.9827  -18.4410    0.0000 F   0  0  0  0  0  0  0  0  0  0  0  0
   -1.9991  -18.1274    0.0000 F   0  0  0  0  0  0  0  0  0  0  0  0
   -2.4342  -15.9108    0.0000 C   0  0  0  0  0  0  0  0  0  0  0  0
   -2.5910  -14.4190    0.0000 C   0  0  0  0  0  0  0  0  0  0  0  0
  2  1  1  1
  2  3  1  0
  3  4  1  0
  4  5  1  0
  5  6  2  0
  6  7  1  0
  7  8  2  0
  8  9  1  0
  9 10  2  0
 10 11  1  0
 11 12  2  0
 12 13  1  0
 13 14  2  0
 14 15  1  0
 15 16  2  0
 16 17  1  0
 17 18  2  0
  8 19  1  0
  2 20  1  0
 20 21  1  0
 21 22  2  0
 22 23  1  0
 23 24  2  0
 24 25  1  0
 25 26  1  0
 25 27  1  0
 25 28  1  0
 24 29  1  0
 29 30  2  0
 19  5  1  0
 30 21  1  0
 18  9  1  0
 17 12  1  0
M  END
>  <Compound_ID>  (221) 
CHEMBL1080569

>  <Active>  (221) 
1

>  <Smiles>  (221) 
N[C@H](CNc1nnc(-c2ccc3cnccc3c2)s1)Cc1ccc(C(F)(F)F)cc1

>  <canonical_smi>  (221) 
N[C@H](CNc1nnc(-c2ccc3cnccc3c2)s1)Cc1ccc(C(F)(F)F)cc1

>  <Set>  (221) 
G2 active

>  <Set_type>  (221) 
Train

>  <MW>  (221) 
429.47

>  <HBD>  (221) 
2

>  <HBA>  (221) 
5

>  <NRB>  (221) 
6

>  <NR>  (221) 
4

>  <NAR>  (221) 
4

>  <PSA>  (221) 
76.72

>  <Standard Type>  (221) 
nan

>  <Standard Relation>  (221) 
nan

>  <Standard Units>  (221) 
nan

>  <Standard Value>  (221) 
nan

>  <Assay ChEMBL ID>  (221) 
nan

>  <Assay Description>  (221) 
nan

>  <BAO Label>  (221) 
nan

$$$$

     RDKit          2D

 35 39  0  0  0  0  0  0  0  0999 V2000
   -2.2447   -8.9500    0.0000 C   0  0  0  0  0  0  0  0  0  0  0  0
   -2.5565   -7.4827    0.0000 N   0  0  0  0  0  0  0  0  0  0  0  0
   -1.4418   -6.4791    0.0000 C   0  0  0  0  0  0  0  0  0  0  0  0
   -0.0152   -6.9426    0.0000 O   0  0  0  0  0  0  0  0  0  0  0  0
   -1.7537   -5.0118    0.0000 C   0  0  0  0  0  0  0  0  0  0  0  0
   -3.1240   -4.4017    0.0000 N   0  0  0  0  0  0  0  0  0  0  0  0
   -2.9672   -2.9099    0.0000 N   0  0  0  0  0  0  0  0  0  0  0  0
   -4.0819   -1.9062    0.0000 C   0  0  0  0  0  0  0  0  0  0  0  0
   -1.5000   -2.5981    0.0000 C   0  0  0  0  0  0  0  0  0  0  0  0
   -0.7500   -3.8971    0.0000 C   0  0  0  0  0  0  0  0  0  0  0  0
    0.7500   -3.8971    0.0000 C   0  0  0  0  0  0  0  0  0  0  0  0
    2.1595   -4.4101    0.0000 C   0  0  0  0  0  0  0  0  0  0  0  0
    0.4895   -5.3743    0.0000 C   0  0  0  0  0  0  0  0  0  0  0  0
    1.5000   -2.5981    0.0000 C   0  0  0  0  0  0  0  0  0  0  0  0
    0.7500   -1.2990    0.0000 C   0  0  0  0  0  0  0  0  0  0  0  0
    1.5000    0.0000    0.0000 C   0  0  0  0  0  0  0  0  0  0  0  0
    0.7500    1.2990    0.0000 N   0  0  0  0  0  0  0  0  0  0  0  0
   -0.7500    1.2990    0.0000 C   0  0  0  0  0  0  0  0  0  0  0  0
   -1.5000    2.5981    0.0000 N   0  0  0  0  0  0  0  0  0  0  0  0
   -0.7500    3.8971    0.0000 C   0  0  0  0  0  0  0  0  0  0  0  0
    0.7500    3.8971    0.0000 C   0  0  0  0  0  0  0  0  0  0  0  0
    1.5000    5.1962    0.0000 C   0  0  0  0  0  0  0  0  0  0  0  0
    0.7500    6.4952    0.0000 C   0  0  0  0  0  0  0  0  0  0  0  0
    1.5000    7.7942    0.0000 C   0  0  0  0  0  0  0  0  0  0  0  0
    3.0000    7.7942    0.0000 N   0  0  0  0  0  0  0  0  0  0  0  0
    3.7500    6.4952    0.0000 C   0  0  0  0  0  0  0  0  0  0  0  0
    5.2500    6.4952    0.0000 C   0  0  0  0  0  0  0  0  0  0  0  0
    6.0000    7.7942    0.0000 N   0  0  0  0  0  0  0  0  0  0  0  0
    7.5000    7.7942    0.0000 C   0  0  0  0  0  0  0  0  0  0  0  0
    5.2500    9.0933    0.0000 C   0  0  0  0  0  0  0  0  0  0  0  0
    3.7500    9.0933    0.0000 C   0  0  0  0  0  0  0  0  0  0  0  0
   -0.7500    6.4952    0.0000 C   0  0  0  0  0  0  0  0  0  0  0  0
   -1.5000    5.1962    0.0000 C   0  0  0  0  0  0  0  0  0  0  0  0
   -1.5000    0.0000    0.0000 N   0  0  0  0  0  0  0  0  0  0  0  0
   -0.7500   -1.2990    0.0000 C   0  0  0  0  0  0  0  0  0  0  0  0
  1  2  1  0
  2  3  1  0
  3  4  2  0
  3  5  1  0
  5  6  2  0
  6  7  1  0
  7  8  1  0
  7  9  1  0
  9 10  2  0
 10 11  1  0
 11 12  1  0
 11 13  1  0
 11 14  1  0
 14 15  1  0
 15 16  2  0
 16 17  1  0
 17 18  2  0
 18 19  1  0
 19 20  1  0
 20 21  2  0
 21 22  1  0
 22 23  2  0
 23 24  1  0
 24 25  1  0
 25 26  1  0
 26 27  1  0
 27 28  1  0
 28 29  1  0
 28 30  1  0
 30 31  1  0
 23 32  1  0
 32 33  2  0
 18 34  1  0
 34 35  2  0
 10  5  1  0
 35 15  1  0
 35  9  1  0
 33 20  1  0
 31 25  1  0
M  END
>  <Compound_ID>  (222) 
CHEMBL549675

>  <Active>  (222) 
1

>  <Smiles>  (222) 
CNC(=O)c1nn(C)c2c1C(C)(C)Cc1cnc(Nc3ccc(CN4CCN(C)CC4)cc3)nc1-2

>  <canonical_smi>  (222) 
CNC(=O)c1nn(C)c2c1C(C)(C)Cc1cnc(Nc3ccc(CN4CCN(C)CC4)cc3)nc1-2

>  <Set>  (222) 
G2 active

>  <Set_type>  (222) 
Train

>  <MW>  (222) 
474.61

>  <HBD>  (222) 
2

>  <HBA>  (222) 
7

>  <NRB>  (222) 
5

>  <NR>  (222) 
5

>  <NAR>  (222) 
3

>  <PSA>  (222) 
91.21

>  <Standard Type>  (222) 
nan

>  <Standard Relation>  (222) 
nan

>  <Standard Units>  (222) 
nan

>  <Standard Value>  (222) 
nan

>  <Assay ChEMBL ID>  (222) 
nan

>  <Assay Description>  (222) 
nan

>  <BAO Label>  (222) 
nan

$$$$

     RDKit          2D

 30 33  0  0  0  0  0  0  0  0999 V2000
    7.4146   -6.0524    0.0000 N   0  0  0  0  0  0  0  0  0  0  0  0
    6.2011   -6.9341    0.0000 C   0  0  0  0  0  0  0  0  0  0  0  0
    4.8308   -6.3240    0.0000 C   0  0  0  0  0  0  0  0  0  0  0  0
    4.6740   -4.8322    0.0000 N   0  0  0  0  0  0  0  0  0  0  0  0
    3.3037   -4.2221    0.0000 C   0  0  0  0  0  0  0  0  0  0  0  0
    2.0046   -4.9721    0.0000 N   0  0  0  0  0  0  0  0  0  0  0  0
    0.8899   -3.9684    0.0000 C   0  0  0  0  0  0  0  0  0  0  0  0
    1.5000   -2.5981    0.0000 C   0  0  0  0  0  0  0  0  0  0  0  0
    0.7500   -1.2990    0.0000 C   0  0  0  0  0  0  0  0  0  0  0  0
    1.5000    0.0000    0.0000 C   0  0  0  0  0  0  0  0  0  0  0  0
    0.7500    1.2990    0.0000 C   0  0  0  0  0  0  0  0  0  0  0  0
   -0.7500    1.2990    0.0000 C   0  0  0  0  0  0  0  0  0  0  0  0
   -1.7537    2.4138    0.0000 N   0  0  0  0  0  0  0  0  0  0  0  0
   -3.1240    1.8037    0.0000 N   0  0  0  0  0  0  0  0  0  0  0  0
   -2.9672    0.3119    0.0000 N   0  0  0  0  0  0  0  0  0  0  0  0
   -4.0819   -0.6918    0.0000 N   0  0  0  0  0  0  0  0  0  0  0  0
   -1.5000    0.0000    0.0000 C   0  0  0  0  0  0  0  0  0  0  0  0
   -0.7500   -1.2990    0.0000 C   0  0  0  0  0  0  0  0  0  0  0  0
    2.9918   -2.7549    0.0000 S   0  0  0  0  0  0  0  0  0  0  0  0
    6.3579   -8.4259    0.0000 C   0  0  0  0  0  0  0  0  0  0  0  0
    7.7282   -9.0360    0.0000 C   0  0  0  0  0  0  0  0  0  0  0  0
    7.8850  -10.5278    0.0000 C   0  0  0  0  0  0  0  0  0  0  0  0
    9.2553  -11.1379    0.0000 C   0  0  0  0  0  0  0  0  0  0  0  0
   10.4688  -10.2562    0.0000 C   0  0  0  0  0  0  0  0  0  0  0  0
   11.8391  -10.8663    0.0000 C   0  0  0  0  0  0  0  0  0  0  0  0
   13.2095  -11.4764    0.0000 F   0  0  0  0  0  0  0  0  0  0  0  0
   11.2290  -12.2366    0.0000 F   0  0  0  0  0  0  0  0  0  0  0  0
   12.4492   -9.4960    0.0000 F   0  0  0  0  0  0  0  0  0  0  0  0
   10.3120   -8.7644    0.0000 C   0  0  0  0  0  0  0  0  0  0  0  0
    8.9417   -8.1543    0.0000 C   0  0  0  0  0  0  0  0  0  0  0  0
  2  1  1  1
  2  3  1  0
  3  4  1  0
  4  5  1  0
  5  6  2  0
  6  7  1  0
  7  8  2  0
  8  9  1  0
  9 10  2  0
 10 11  1  0
 11 12  2  0
 12 13  1  0
 13 14  2  0
 14 15  1  0
 15 16  1  0
 15 17  1  0
 17 18  2  0
  8 19  1  0
  2 20  1  0
 20 21  1  0
 21 22  2  0
 22 23  1  0
 23 24  2  0
 24 25  1  0
 25 26  1  0
 25 27  1  0
 25 28  1  0
 24 29  1  0
 29 30  2  0
 19  5  1  0
 30 21  1  0
 18  9  1  0
 17 12  1  0
M  END
>  <Compound_ID>  (223) 
CHEMBL1081830

>  <Active>  (223) 
1

>  <Smiles>  (223) 
N[C@H](CNc1ncc(-c2ccc3nnn(N)c3c2)s1)Cc1ccc(C(F)(F)F)cc1

>  <canonical_smi>  (223) 
N[C@H](CNc1ncc(-c2ccc3nnn(N)c3c2)s1)Cc1ccc(C(F)(F)F)cc1

>  <Set>  (223) 
G2 active

>  <Set_type>  (223) 
Train

>  <MW>  (223) 
433.46

>  <HBD>  (223) 
3

>  <HBA>  (223) 
6

>  <NRB>  (223) 
6

>  <NR>  (223) 
4

>  <NAR>  (223) 
4

>  <PSA>  (223) 
107.67

>  <Standard Type>  (223) 
nan

>  <Standard Relation>  (223) 
nan

>  <Standard Units>  (223) 
nan

>  <Standard Value>  (223) 
nan

>  <Assay ChEMBL ID>  (223) 
nan

>  <Assay Description>  (223) 
nan

>  <BAO Label>  (223) 
nan

$$$$

     RDKit          2D

 29 32  0  0  0  0  0  0  0  0999 V2000
    3.0000    0.0000    0.0000 C   0  0  0  0  0  0  0  0  0  0  0  0
    1.5000    0.0000    0.0000 C   0  0  0  0  0  0  0  0  0  0  0  0
    0.7500   -1.2990    0.0000 C   0  0  0  0  0  0  0  0  0  0  0  0
   -0.7500   -1.2990    0.0000 C   0  0  0  0  0  0  0  0  0  0  0  0
   -1.5000   -2.5981    0.0000 N   0  0  0  0  0  0  0  0  0  0  0  0
   -0.8899   -3.9684    0.0000 C   0  0  0  0  0  0  0  0  0  0  0  0
    0.5773   -4.2803    0.0000 O   0  0  0  0  0  0  0  0  0  0  0  0
   -2.0046   -4.9721    0.0000 C   0  0  0  0  0  0  0  0  0  0  0  0
   -3.3037   -4.2221    0.0000 N   0  0  0  0  0  0  0  0  0  0  0  0
   -4.6740   -4.8322    0.0000 C   0  0  0  0  0  0  0  0  0  0  0  0
   -2.9918   -2.7549    0.0000 C   0  0  0  0  0  0  0  0  0  0  0  0
   -3.9955   -1.6402    0.0000 O   0  0  0  0  0  0  0  0  0  0  0  0
   -1.5000    0.0000    0.0000 C   0  0  0  0  0  0  0  0  0  0  0  0
   -3.0000    0.0000    0.0000 O   0  0  0  0  0  0  0  0  0  0  0  0
   -3.7500    1.2990    0.0000 C   0  0  0  0  0  0  0  0  0  0  0  0
   -5.2500    1.2990    0.0000 C   0  0  0  0  0  0  0  0  0  0  0  0
   -6.0000    2.5981    0.0000 C   0  0  0  0  0  0  0  0  0  0  0  0
   -7.5000    2.5981    0.0000 C   0  0  0  0  0  0  0  0  0  0  0  0
   -8.2500    1.2990    0.0000 C   0  0  0  0  0  0  0  0  0  0  0  0
   -9.7500    1.2990    0.0000 O   0  0  0  0  0  0  0  0  0  0  0  0
   -7.5000    0.0000    0.0000 C   0  0  0  0  0  0  0  0  0  0  0  0
   -8.2500   -1.2990    0.0000 O   0  0  0  0  0  0  0  0  0  0  0  0
   -6.0000    0.0000    0.0000 C   0  0  0  0  0  0  0  0  0  0  0  0
   -3.0000    2.5981    0.0000 C   0  0  0  0  0  0  0  0  0  0  0  0
   -3.7500    3.8971    0.0000 O   0  0  0  0  0  0  0  0  0  0  0  0
   -1.5000    2.5981    0.0000 C   0  0  0  0  0  0  0  0  0  0  0  0
   -0.7500    3.8971    0.0000 O   0  0  0  0  0  0  0  0  0  0  0  0
   -0.7500    1.2990    0.0000 C   0  0  0  0  0  0  0  0  0  0  0  0
    0.7500    1.2990    0.0000 C   0  0  0  0  0  0  0  0  0  0  0  0
  1  2  1  0
  2  3  2  0
  3  4  1  0
  4  5  1  0
  5  6  1  0
  6  7  2  0
  6  8  1  0
  8  9  1  0
  9 10  1  0
  9 11  1  0
 11 12  2  0
  4 13  2  0
 13 14  1  0
 14 15  1  0
 15 16  1  0
 16 17  2  0
 17 18  1  0
 18 19  2  0
 19 20  1  0
 19 21  1  0
 21 22  1  0
 21 23  2  0
 15 24  2  0
 24 25  1  0
 24 26  1  0
 26 27  2  0
 26 28  1  0
 28 29  2  0
 29  2  1  0
 11  5  1  0
 28 13  1  0
 23 16  1  0
M  END
>  <Compound_ID>  (224) 
CHEMBL232556

>  <Active>  (224) 
1

>  <Smiles>  (224) 
Cc1cc(N2C(=O)CN(C)C2=O)c2oc(-c3ccc(O)c(O)c3)c(O)c(=O)c2c1

>  <canonical_smi>  (224) 
Cc1cc(N2C(=O)CN(C)C2=O)c2oc(-c3ccc(O)c(O)c3)c(O)c(=O)c2c1

>  <Set>  (224) 
G2 active

>  <Set_type>  (224) 
Train

>  <MW>  (224) 
396.36

>  <HBD>  (224) 
3

>  <HBA>  (224) 
7

>  <NRB>  (224) 
2

>  <NR>  (224) 
4

>  <NAR>  (224) 
3

>  <PSA>  (224) 
131.52

>  <Standard Type>  (224) 
nan

>  <Standard Relation>  (224) 
nan

>  <Standard Units>  (224) 
nan

>  <Standard Value>  (224) 
nan

>  <Assay ChEMBL ID>  (224) 
nan

>  <Assay Description>  (224) 
nan

>  <BAO Label>  (224) 
nan

$$$$

     RDKit          2D

 40 42  0  0  0  0  0  0  0  0999 V2000
    8.2500   -9.0933    0.0000 C   0  0  0  0  0  0  0  0  0  0  0  0
    7.5000   -7.7942    0.0000 C   0  0  0  0  0  0  0  0  0  0  0  0
    8.2500   -6.4952    0.0000 C   0  0  0  0  0  0  0  0  0  0  0  0
    6.0000   -7.7942    0.0000 C   0  0  0  0  0  0  0  0  0  0  0  0
    5.2500   -6.4952    0.0000 C   0  0  0  0  0  0  0  0  0  0  0  0
    3.7500   -6.4952    0.0000 N   0  0  0  0  0  0  0  0  0  0  0  0
    3.0000   -5.1962    0.0000 C   0  0  0  0  0  0  0  0  0  0  0  0
    3.7500   -3.8971    0.0000 O   0  0  0  0  0  0  0  0  0  0  0  0
    1.5000   -5.1962    0.0000 C   0  0  0  0  0  0  0  0  0  0  0  0
    0.7500   -6.4952    0.0000 C   0  0  0  0  0  0  0  0  0  0  0  0
    0.7500   -3.8971    0.0000 N   0  0  0  0  0  0  0  0  0  0  0  0
    1.5000   -2.5981    0.0000 C   0  0  0  0  0  0  0  0  0  0  0  0
    3.0000   -2.5981    0.0000 O   0  0  0  0  0  0  0  0  0  0  0  0
    0.7500   -1.2990    0.0000 C   0  0  0  0  0  0  0  0  0  0  0  0
    1.5000    0.0000    0.0000 C   0  0  0  0  0  0  0  0  0  0  0  0
    0.7500    1.2990    0.0000 C   0  0  0  0  0  0  0  0  0  0  0  0
   -0.7500    1.2990    0.0000 C   0  0  0  0  0  0  0  0  0  0  0  0
   -1.5000    2.5981    0.0000 C   0  0  0  0  0  0  0  0  0  0  0  0
   -0.7500    3.8971    0.0000 N   0  0  0  0  0  0  0  0  0  0  0  0
   -1.5000    5.1962    0.0000 C   0  0  0  0  0  0  0  0  0  0  0  0
   -0.7500    6.4952    0.0000 N   0  0  0  0  0  0  0  0  0  0  0  0
   -3.0000    5.1962    0.0000 N   0  0  0  0  0  0  0  0  0  0  0  0
   -1.5000    0.0000    0.0000 C   0  0  0  0  0  0  0  0  0  0  0  0
   -0.7500   -1.2990    0.0000 C   0  0  0  0  0  0  0  0  0  0  0  0
    6.0000   -5.1962    0.0000 C   0  0  0  0  0  0  0  0  0  0  0  0
    5.2500   -3.8971    0.0000 O   0  0  0  0  0  0  0  0  0  0  0  0
    7.5000   -5.1962    0.0000 N   0  0  0  0  0  0  0  0  0  0  0  0
    8.2500   -3.8971    0.0000 C   0  0  0  0  0  0  0  0  0  0  0  0
    7.5000   -2.5981    0.0000 C   0  0  0  0  0  0  0  0  0  0  0  0
    8.2500   -1.2990    0.0000 C   0  0  0  0  0  0  0  0  0  0  0  0
    9.7500   -1.2990    0.0000 C   0  0  0  0  0  0  0  0  0  0  0  0
   10.5000   -2.5981    0.0000 C   0  0  0  0  0  0  0  0  0  0  0  0
    9.7500   -3.8971    0.0000 C   0  0  0  0  0  0  0  0  0  0  0  0
   10.5000   -5.1962    0.0000 C   0  0  0  0  0  0  0  0  0  0  0  0
    9.7500   -6.4952    0.0000 C   0  0  0  0  0  0  0  0  0  0  0  0
   10.5000   -7.7942    0.0000 C   0  0  0  0  0  0  0  0  0  0  0  0
   12.0000   -7.7942    0.0000 C   0  0  0  0  0  0  0  0  0  0  0  0
   12.7500   -6.4952    0.0000 C   0  0  0  0  0  0  0  0  0  0  0  0
   14.2500   -6.4952    0.0000 Cl  0  0  0  0  0  0  0  0  0  0  0  0
   12.0000   -5.1962    0.0000 C   0  0  0  0  0  0  0  0  0  0  0  0
  1  2  1  0
  2  3  1  0
  2  4  1  0
  5  4  1  6
  5  6  1  0
  6  7  1  0
  7  8  2  0
  7  9  1  0
  9 10  1  6
  9 11  1  0
 11 12  1  0
 12 13  2  0
 12 14  1  0
 14 15  2  0
 15 16  1  0
 16 17  2  0
 17 18  1  0
 18 19  1  0
 19 20  2  0
 20 21  1  0
 20 22  1  0
 17 23  1  0
 23 24  2  0
  5 25  1  0
 25 26  2  0
 25 27  1  0
 28 27  1  6
 28 29  1  0
 29 30  1  0
 30 31  1  0
 31 32  1  0
 32 33  1  0
 33 34  1  1
 34 35  2  0
 35 36  1  0
 36 37  2  0
 37 38  1  0
 38 39  1  0
 38 40  2  0
 24 14  1  0
 33 28  1  0
 40 34  1  0
M  END
>  <Compound_ID>  (225) 
CHEMBL205197

>  <Active>  (225) 
1

>  <Smiles>  (225) 
CC(C)C[C@H](NC(=O)[C@H](C)NC(=O)c1ccc(CN=C(N)N)cc1)C(=O)N[C@@H]1CCCC[C@H]1c1cccc(Cl)c1

>  <canonical_smi>  (225) 
CC(C)C[C@H](NC(=O)[C@H](C)NC(=O)c1ccc(CN=C(N)N)cc1)C(=O)N[C@@H]1CCCC[C@H]1c1cccc(Cl)c1

>  <Set>  (225) 
G2 active

>  <Set_type>  (225) 
Train

>  <MW>  (225) 
569.15

>  <HBD>  (225) 
5

>  <HBA>  (225) 
5

>  <NRB>  (225) 
11

>  <NR>  (225) 
3

>  <NAR>  (225) 
2

>  <PSA>  (225) 
151.7

>  <Standard Type>  (225) 
nan

>  <Standard Relation>  (225) 
nan

>  <Standard Units>  (225) 
nan

>  <Standard Value>  (225) 
nan

>  <Assay ChEMBL ID>  (225) 
nan

>  <Assay Description>  (225) 
nan

>  <BAO Label>  (225) 
nan

$$$$

     RDKit          2D

 28 31  0  0  0  0  0  0  0  0999 V2000
   -3.7500   -1.2990    0.0000 C   0  0  0  0  0  0  0  0  0  0  0  0
   -3.0000   -2.5981    0.0000 C   0  0  0  0  0  0  0  0  0  0  0  0
   -3.7500   -3.8971    0.0000 C   0  0  0  0  0  0  0  0  0  0  0  0
   -1.5000   -2.5981    0.0000 N   0  0  0  0  0  0  0  0  0  0  0  0
   -0.7500   -3.8971    0.0000 C   0  0  0  0  0  0  0  0  0  0  0  0
   -1.5000   -5.1962    0.0000 O   0  0  0  0  0  0  0  0  0  0  0  0
    0.7500   -3.8971    0.0000 C   0  0  0  0  0  0  0  0  0  0  0  0
    1.5000   -2.5981    0.0000 C   0  0  0  0  0  0  0  0  0  0  0  0
    0.7500   -1.2990    0.0000 C   0  0  0  0  0  0  0  0  0  0  0  0
    1.5000    0.0000    0.0000 C   0  0  0  0  0  0  0  0  0  0  0  0
    0.7500    1.2990    0.0000 N   0  0  0  0  0  0  0  0  0  0  0  0
   -0.7500    1.2990    0.0000 C   0  0  0  0  0  0  0  0  0  0  0  0
   -1.5000    2.5981    0.0000 N   0  0  0  0  0  0  0  0  0  0  0  0
   -0.7500    3.8971    0.0000 C   0  0  0  0  0  0  0  0  0  0  0  0
    0.7500    3.8971    0.0000 C   0  0  0  0  0  0  0  0  0  0  0  0
    1.5000    5.1962    0.0000 C   0  0  0  0  0  0  0  0  0  0  0  0
    0.7500    6.4952    0.0000 C   0  0  0  0  0  0  0  0  0  0  0  0
    1.5000    7.7942    0.0000 N   0  0  0  0  0  0  0  0  0  0  0  0
    3.0000    7.7942    0.0000 C   0  0  0  0  0  0  0  0  0  0  0  0
    3.7500    9.0933    0.0000 C   0  0  0  0  0  0  0  0  0  0  0  0
    3.0000   10.3923    0.0000 N   0  0  0  0  0  0  0  0  0  0  0  0
    3.7500   11.6913    0.0000 C   0  0  0  0  0  0  0  0  0  0  0  0
    1.5000   10.3923    0.0000 C   0  0  0  0  0  0  0  0  0  0  0  0
    0.7500    9.0933    0.0000 C   0  0  0  0  0  0  0  0  0  0  0  0
   -0.7500    6.4952    0.0000 C   0  0  0  0  0  0  0  0  0  0  0  0
   -1.5000    5.1962    0.0000 C   0  0  0  0  0  0  0  0  0  0  0  0
   -1.5000    0.0000    0.0000 N   0  0  0  0  0  0  0  0  0  0  0  0
   -0.7500   -1.2990    0.0000 C   0  0  0  0  0  0  0  0  0  0  0  0
  1  2  1  0
  2  3  1  0
  2  4  1  0
  4  5  1  0
  5  6  2  0
  5  7  1  0
  7  8  2  0
  8  9  1  0
  9 10  2  0
 10 11  1  0
 11 12  2  0
 12 13  1  0
 13 14  1  0
 14 15  2  0
 15 16  1  0
 16 17  2  0
 17 18  1  0
 18 19  1  0
 19 20  1  0
 20 21  1  0
 21 22  1  0
 21 23  1  0
 23 24  1  0
 17 25  1  0
 25 26  2  0
 12 27  1  0
 27 28  2  0
 28  4  1  0
 28  9  1  0
 26 14  1  0
 24 18  1  0
M  END
>  <Compound_ID>  (226) 
CHEMBL143147

>  <Active>  (226) 
1

>  <Smiles>  (226) 
CC(C)n1c(=O)ccc2cnc(Nc3ccc(N4CCN(C)CC4)cc3)nc21

>  <canonical_smi>  (226) 
CC(C)n1c(=O)ccc2cnc(Nc3ccc(N4CCN(C)CC4)cc3)nc21

>  <Set>  (226) 
G2 active

>  <Set_type>  (226) 
Train

>  <MW>  (226) 
378.48

>  <HBD>  (226) 
1

>  <HBA>  (226) 
6

>  <NRB>  (226) 
4

>  <NR>  (226) 
4

>  <NAR>  (226) 
3

>  <PSA>  (226) 
66.29

>  <Standard Type>  (226) 
nan

>  <Standard Relation>  (226) 
nan

>  <Standard Units>  (226) 
nan

>  <Standard Value>  (226) 
nan

>  <Assay ChEMBL ID>  (226) 
nan

>  <Assay Description>  (226) 
nan

>  <BAO Label>  (226) 
nan

$$$$

     RDKit          2D

 31 34  0  0  0  0  0  0  0  0999 V2000
   11.5919    6.2498    0.0000 C   0  0  0  0  0  0  0  0  0  0  0  0
   10.5882    7.3645    0.0000 C   0  0  0  0  0  0  0  0  0  0  0  0
    9.1210    7.0526    0.0000 N   0  0  0  0  0  0  0  0  0  0  0  0
    8.6575    5.6260    0.0000 C   0  0  0  0  0  0  0  0  0  0  0  0
    7.1902    5.3142    0.0000 C   0  0  0  0  0  0  0  0  0  0  0  0
    6.1865    6.4289    0.0000 N   0  0  0  0  0  0  0  0  0  0  0  0
    4.7193    6.1170    0.0000 C   0  0  0  0  0  0  0  0  0  0  0  0
    4.2558    4.6904    0.0000 C   0  0  0  0  0  0  0  0  0  0  0  0
    2.7886    4.3786    0.0000 C   0  0  0  0  0  0  0  0  0  0  0  0
    2.3250    2.9520    0.0000 C   0  0  0  0  0  0  0  0  0  0  0  0
    3.3287    1.8373    0.0000 O   0  0  0  0  0  0  0  0  0  0  0  0
    0.8578    2.6401    0.0000 N   0  0  0  0  0  0  0  0  0  0  0  0
    0.3943    1.2135    0.0000 C   0  0  0  0  0  0  0  0  0  0  0  0
    1.2760    0.0000    0.0000 N   0  0  0  0  0  0  0  0  0  0  0  0
    0.3943   -1.2135    0.0000 N   0  0  0  0  0  0  0  0  0  0  0  0
   -1.0323   -0.7500    0.0000 C   0  0  0  0  0  0  0  0  0  0  0  0
   -2.3313   -1.5000    0.0000 N   0  0  0  0  0  0  0  0  0  0  0  0
   -3.6304   -0.7500    0.0000 C   0  0  0  0  0  0  0  0  0  0  0  0
   -4.9294   -1.5000    0.0000 C   0  0  0  0  0  0  0  0  0  0  0  0
   -6.2284   -0.7500    0.0000 C   0  0  0  0  0  0  0  0  0  0  0  0
   -7.5275   -1.5000    0.0000 C   0  0  0  0  0  0  0  0  0  0  0  0
   -7.5275   -3.0000    0.0000 C   0  0  0  0  0  0  0  0  0  0  0  0
   -8.8265   -3.7500    0.0000 O   0  0  0  0  0  0  0  0  0  0  0  0
   -6.2284   -3.7500    0.0000 C   0  0  0  0  0  0  0  0  0  0  0  0
   -4.9294   -3.0000    0.0000 C   0  0  0  0  0  0  0  0  0  0  0  0
   -3.6304    0.7500    0.0000 C   0  0  0  0  0  0  0  0  0  0  0  0
   -4.9294    1.5000    0.0000 Br  0  0  0  0  0  0  0  0  0  0  0  0
   -2.3313    1.5000    0.0000 C   0  0  0  0  0  0  0  0  0  0  0  0
   -1.0323    0.7500    0.0000 C   0  0  0  0  0  0  0  0  0  0  0  0
    6.6501    7.8555    0.0000 C   0  0  0  0  0  0  0  0  0  0  0  0
    8.1173    8.1673    0.0000 C   0  0  0  0  0  0  0  0  0  0  0  0
  1  2  1  0
  2  3  1  0
  3  4  1  0
  4  5  1  0
  5  6  1  0
  6  7  1  0
  7  8  1  0
  8  9  1  0
  9 10  1  0
 10 11  2  0
 10 12  1  0
 12 13  1  0
 13 14  2  0
 14 15  1  0
 15 16  1  0
 16 17  2  0
 17 18  1  0
 18 19  1  0
 19 20  2  0
 20 21  1  0
 21 22  2  0
 22 23  1  0
 22 24  1  0
 24 25  2  0
 18 26  2  0
 26 27  1  0
 26 28  1  0
 28 29  2  0
  6 30  1  0
 30 31  1  0
 31  3  1  0
 29 13  1  0
 29 16  1  0
 25 19  1  0
M  END
>  <Compound_ID>  (227) 
CHEMBL407981

>  <Active>  (227) 
1

>  <Smiles>  (227) 
CCN1CCN(CCCC(=O)Nc2n[nH]c3nc(-c4ccc(O)cc4)c(Br)cc23)CC1

>  <canonical_smi>  (227) 
CCN1CCN(CCCC(=O)Nc2n[nH]c3nc(-c4ccc(O)cc4)c(Br)cc23)CC1

>  <Set>  (227) 
G2 active

>  <Set_type>  (227) 
Train

>  <MW>  (227) 
487.4

>  <HBD>  (227) 
3

>  <HBA>  (227) 
6

>  <NRB>  (227) 
7

>  <NR>  (227) 
4

>  <NAR>  (227) 
3

>  <PSA>  (227) 
97.38

>  <Standard Type>  (227) 
nan

>  <Standard Relation>  (227) 
nan

>  <Standard Units>  (227) 
nan

>  <Standard Value>  (227) 
nan

>  <Assay ChEMBL ID>  (227) 
nan

>  <Assay Description>  (227) 
nan

>  <BAO Label>  (227) 
nan

$$$$

     RDKit          2D

 24 27  0  0  0  0  0  0  0  0999 V2000
    3.8083   -8.1375    0.0000 C   0  0  0  0  0  0  0  0  0  0  0  0
    2.3817   -7.6740    0.0000 C   0  0  0  0  0  0  0  0  0  0  0  0
    1.9182   -6.2474    0.0000 C   0  0  0  0  0  0  0  0  0  0  0  0
    0.4182   -6.2474    0.0000 C   0  0  0  0  0  0  0  0  0  0  0  0
   -0.4635   -5.0339    0.0000 C   0  0  0  0  0  0  0  0  0  0  0  0
   -1.9635   -5.0339    0.0000 N   0  0  0  0  0  0  0  0  0  0  0  0
   -2.4271   -3.6073    0.0000 N   0  0  0  0  0  0  0  0  0  0  0  0
   -1.2135   -2.7256    0.0000 C   0  0  0  0  0  0  0  0  0  0  0  0
   -0.0000   -3.6073    0.0000 C   0  0  0  0  0  0  0  0  0  0  0  0
    1.2135   -2.7256    0.0000 C   0  0  0  0  0  0  0  0  0  0  0  0
    2.6401   -3.1891    0.0000 O   0  0  0  0  0  0  0  0  0  0  0  0
    0.7500   -1.2990    0.0000 C   0  0  0  0  0  0  0  0  0  0  0  0
    1.5000    0.0000    0.0000 C   0  0  0  0  0  0  0  0  0  0  0  0
    3.0000    0.0000    0.0000 N   0  0  0  0  0  0  0  0  0  0  0  0
    3.7500    1.2990    0.0000 C   0  0  0  0  0  0  0  0  0  0  0  0
    5.2500    1.2990    0.0000 N   0  0  0  0  0  0  0  0  0  0  0  0
    3.0000    2.5981    0.0000 O   0  0  0  0  0  0  0  0  0  0  0  0
    0.7500    1.2990    0.0000 C   0  0  0  0  0  0  0  0  0  0  0  0
   -0.7500    1.2990    0.0000 C   0  0  0  0  0  0  0  0  0  0  0  0
   -1.5000    0.0000    0.0000 C   0  0  0  0  0  0  0  0  0  0  0  0
   -0.7500   -1.2990    0.0000 C   0  0  0  0  0  0  0  0  0  0  0  0
   -0.0454   -7.6740    0.0000 C   0  0  0  0  0  0  0  0  0  0  0  0
   -1.4720   -8.1375    0.0000 C   0  0  0  0  0  0  0  0  0  0  0  0
    1.1682   -8.5557    0.0000 S   0  0  0  0  0  0  0  0  0  0  0  0
  1  2  1  0
  2  3  2  0
  3  4  1  0
  4  5  1  0
  5  6  1  0
  6  7  1  0
  7  8  2  0
  8  9  1  0
  9 10  1  0
 10 11  2  0
 10 12  1  0
 12 13  2  0
 13 14  1  0
 14 15  1  0
 15 16  1  0
 15 17  2  0
 13 18  1  0
 18 19  2  0
 19 20  1  0
 20 21  2  0
  4 22  2  0
 22 23  1  0
 22 24  1  0
 24  2  1  0
  9  5  2  0
 21 12  1  0
 21  8  1  0
M  END
>  <Compound_ID>  (228) 
CHEMBL150859

>  <Active>  (228) 
1

>  <Smiles>  (228) 
Cc1cc(-c2[nH]nc3c2C(=O)c2c(NC(N)=O)cccc2-3)c(C)s1

>  <canonical_smi>  (228) 
Cc1cc(-c2[nH]nc3c2C(=O)c2c(NC(N)=O)cccc2-3)c(C)s1

>  <Set>  (228) 
G2 active

>  <Set_type>  (228) 
Train

>  <MW>  (228) 
338.39

>  <HBD>  (228) 
3

>  <HBA>  (228) 
3

>  <NRB>  (228) 
2

>  <NR>  (228) 
4

>  <NAR>  (228) 
4

>  <PSA>  (228) 
100.87

>  <Standard Type>  (228) 
nan

>  <Standard Relation>  (228) 
nan

>  <Standard Units>  (228) 
nan

>  <Standard Value>  (228) 
nan

>  <Assay ChEMBL ID>  (228) 
nan

>  <Assay Description>  (228) 
nan

>  <BAO Label>  (228) 
nan

$$$$

     RDKit          2D

 37 40  0  0  0  0  0  0  0  0999 V2000
    4.5000    0.0000    0.0000 N   0  0  0  0  0  0  0  0  0  0  0  0
    3.0000    0.0000    0.0000 S   0  0  0  0  0  0  0  0  0  0  0  0
    3.0000   -1.5000    0.0000 O   0  0  0  0  0  0  0  0  0  0  0  0
    3.0000    1.5000    0.0000 O   0  0  0  0  0  0  0  0  0  0  0  0
    1.5000    0.0000    0.0000 C   0  0  0  0  0  0  0  0  0  0  0  0
    0.7500   -1.2990    0.0000 C   0  0  0  0  0  0  0  0  0  0  0  0
   -0.7500   -1.2990    0.0000 C   0  0  0  0  0  0  0  0  0  0  0  0
   -1.5000    0.0000    0.0000 C   0  0  0  0  0  0  0  0  0  0  0  0
   -3.0000    0.0000    0.0000 N   0  0  0  0  0  0  0  0  0  0  0  0
   -3.7500    1.2990    0.0000 C   0  0  0  0  0  0  0  0  0  0  0  0
   -5.2418    1.4558    0.0000 C   0  0  0  0  0  0  0  0  0  0  0  0
   -5.5537    2.9231    0.0000 C   0  0  0  0  0  0  0  0  0  0  0  0
   -6.9240    3.5332    0.0000 C   0  0  0  0  0  0  0  0  0  0  0  0
   -7.0808    5.0249    0.0000 C   0  0  0  0  0  0  0  0  0  0  0  0
   -8.4511    5.6350    0.0000 C   0  0  0  0  0  0  0  0  0  0  0  0
   -9.6646    4.7534    0.0000 C   0  0  0  0  0  0  0  0  0  0  0  0
   -9.5078    3.2616    0.0000 C   0  0  0  0  0  0  0  0  0  0  0  0
  -10.7213    2.3799    0.0000 N   0  0  0  0  0  0  0  0  0  0  0  0
  -12.0917    2.9900    0.0000 C   0  0  0  0  0  0  0  0  0  0  0  0
  -12.2484    4.4818    0.0000 O   0  0  0  0  0  0  0  0  0  0  0  0
  -13.3052    2.1083    0.0000 N   0  0  0  0  0  0  0  0  0  0  0  0
  -14.6755    2.7184    0.0000 C   0  0  0  0  0  0  0  0  0  0  0  0
  -14.8323    4.2102    0.0000 C   0  0  0  0  0  0  0  0  0  0  0  0
  -16.2026    4.8203    0.0000 C   0  0  0  0  0  0  0  0  0  0  0  0
  -16.3594    6.3121    0.0000 C   0  0  0  0  0  0  0  0  0  0  0  0
  -16.5162    7.8039    0.0000 F   0  0  0  0  0  0  0  0  0  0  0  0
  -14.8676    6.4689    0.0000 F   0  0  0  0  0  0  0  0  0  0  0  0
  -17.8512    6.1553    0.0000 F   0  0  0  0  0  0  0  0  0  0  0  0
  -17.4161    3.9386    0.0000 C   0  0  0  0  0  0  0  0  0  0  0  0
  -17.2593    2.4469    0.0000 C   0  0  0  0  0  0  0  0  0  0  0  0
  -15.8890    1.8368    0.0000 C   0  0  0  0  0  0  0  0  0  0  0  0
  -15.7322    0.3450    0.0000 F   0  0  0  0  0  0  0  0  0  0  0  0
   -8.1375    2.6515    0.0000 C   0  0  0  0  0  0  0  0  0  0  0  0
   -4.2546    3.6731    0.0000 N   0  0  0  0  0  0  0  0  0  0  0  0
   -3.1399    2.6694    0.0000 N   0  0  0  0  0  0  0  0  0  0  0  0
   -0.7500    1.2990    0.0000 C   0  0  0  0  0  0  0  0  0  0  0  0
    0.7500    1.2990    0.0000 C   0  0  0  0  0  0  0  0  0  0  0  0
  1  2  1  0
  2  3  2  0
  2  4  2  0
  2  5  1  0
  5  6  2  0
  6  7  1  0
  7  8  2  0
  8  9  1  0
  9 10  1  0
 10 11  1  0
 11 12  2  0
 12 13  1  0
 13 14  2  0
 14 15  1  0
 15 16  2  0
 16 17  1  0
 17 18  1  0
 18 19  1  0
 19 20  2  0
 19 21  1  0
 21 22  1  0
 22 23  2  0
 23 24  1  0
 24 25  1  0
 25 26  1  0
 25 27  1  0
 25 28  1  0
 24 29  2  0
 29 30  1  0
 30 31  2  0
 31 32  1  0
 17 33  2  0
 12 34  1  0
 34 35  1  0
  8 36  1  0
 36 37  2  0
 37  5  1  0
 35 10  2  0
 33 13  1  0
 31 22  1  0
M  END
>  <Compound_ID>  (229) 
CHEMBL321939

>  <Active>  (229) 
1

>  <Smiles>  (229) 
NS(=O)(=O)c1ccc(Nc2cc(-c3cccc(NC(=O)Nc4cc(C(F)(F)F)ccc4F)c3)[nH]n2)cc1

>  <canonical_smi>  (229) 
NS(=O)(=O)c1ccc(Nc2cc(-c3cccc(NC(=O)Nc4cc(C(F)(F)F)ccc4F)c3)[nH]n2)cc1

>  <Set>  (229) 
G2 active

>  <Set_type>  (229) 
Train

>  <MW>  (229) 
534.5

>  <HBD>  (229) 
5

>  <HBA>  (229) 
5

>  <NRB>  (229) 
6

>  <NR>  (229) 
4

>  <NAR>  (229) 
4

>  <PSA>  (229) 
142.0

>  <Standard Type>  (229) 
nan

>  <Standard Relation>  (229) 
nan

>  <Standard Units>  (229) 
nan

>  <Standard Value>  (229) 
nan

>  <Assay ChEMBL ID>  (229) 
nan

>  <Assay Description>  (229) 
nan

>  <BAO Label>  (229) 
nan

$$$$

     RDKit          2D

 21 24  0  0  0  0  0  0  0  0999 V2000
   -4.6613    6.0728    0.0000 N   0  0  0  0  0  0  0  0  0  0  0  0
   -3.2910    5.4627    0.0000 C   0  0  0  0  0  0  0  0  0  0  0  0
   -2.0774    6.3444    0.0000 O   0  0  0  0  0  0  0  0  0  0  0  0
   -3.1342    3.9709    0.0000 C   0  0  0  0  0  0  0  0  0  0  0  0
   -4.2489    2.9672    0.0000 N   0  0  0  0  0  0  0  0  0  0  0  0
   -3.6388    1.5969    0.0000 N   0  0  0  0  0  0  0  0  0  0  0  0
   -4.3888    0.2979    0.0000 C   0  0  0  0  0  0  0  0  0  0  0  0
   -5.8888    0.2979    0.0000 C   0  0  0  0  0  0  0  0  0  0  0  0
   -6.6388   -1.0012    0.0000 C   0  0  0  0  0  0  0  0  0  0  0  0
   -5.8888   -2.3002    0.0000 C   0  0  0  0  0  0  0  0  0  0  0  0
   -4.3888   -2.3002    0.0000 N   0  0  0  0  0  0  0  0  0  0  0  0
   -3.6388   -1.0012    0.0000 C   0  0  0  0  0  0  0  0  0  0  0  0
   -2.1470    1.7537    0.0000 C   0  0  0  0  0  0  0  0  0  0  0  0
   -1.8351    3.2209    0.0000 C   0  0  0  0  0  0  0  0  0  0  0  0
   -0.4086    3.6844    0.0000 C   0  0  0  0  0  0  0  0  0  0  0  0
    0.7062    2.6807    0.0000 C   0  0  0  0  0  0  0  0  0  0  0  0
    0.3943    1.2135    0.0000 C   0  0  0  0  0  0  0  0  0  0  0  0
    1.2760    0.0000    0.0000 N   0  0  0  0  0  0  0  0  0  0  0  0
    0.3943   -1.2135    0.0000 N   0  0  0  0  0  0  0  0  0  0  0  0
   -1.0323   -0.7500    0.0000 C   0  0  0  0  0  0  0  0  0  0  0  0
   -1.0323    0.7500    0.0000 C   0  0  0  0  0  0  0  0  0  0  0  0
  1  2  1  0
  2  3  2  0
  2  4  1  0
  4  5  2  0
  5  6  1  0
  6  7  1  0
  7  8  2  0
  8  9  1  0
  9 10  2  0
 10 11  1  0
 11 12  2  0
  6 13  1  0
 13 14  2  0
 14 15  1  0
 15 16  2  0
 16 17  1  0
 17 18  1  0
 18 19  1  0
 19 20  2  0
 20 21  1  0
 14  4  1  0
 21 17  2  0
 12  7  1  0
 21 13  1  0
M  END
>  <Compound_ID>  (230) 
CHEMBL367363

>  <Active>  (230) 
1

>  <Smiles>  (230) 
NC(=O)c1nn(-c2cccnc2)c2c1ccc1[nH]ncc12

>  <canonical_smi>  (230) 
NC(=O)c1nn(-c2cccnc2)c2c1ccc1[nH]ncc12

>  <Set>  (230) 
G2 active

>  <Set_type>  (230) 
Train

>  <MW>  (230) 
278.28

>  <HBD>  (230) 
2

>  <HBA>  (230) 
4

>  <NRB>  (230) 
2

>  <NR>  (230) 
4

>  <NAR>  (230) 
4

>  <PSA>  (230) 
102.48

>  <Standard Type>  (230) 
nan

>  <Standard Relation>  (230) 
nan

>  <Standard Units>  (230) 
nan

>  <Standard Value>  (230) 
nan

>  <Assay ChEMBL ID>  (230) 
nan

>  <Assay Description>  (230) 
nan

>  <BAO Label>  (230) 
nan

$$$$

     RDKit          2D

 22 24  0  0  0  0  0  0  0  0999 V2000
    3.7500   -1.2990    0.0000 C   0  0  0  0  0  0  0  0  0  0  0  0
    3.0000    0.0000    0.0000 O   0  0  0  0  0  0  0  0  0  0  0  0
    1.5000    0.0000    0.0000 C   0  0  0  0  0  0  0  0  0  0  0  0
    0.7500   -1.2990    0.0000 C   0  0  0  0  0  0  0  0  0  0  0  0
   -0.7500   -1.2990    0.0000 C   0  0  0  0  0  0  0  0  0  0  0  0
   -1.5000    0.0000    0.0000 C   0  0  0  0  0  0  0  0  0  0  0  0
   -3.0000    0.0000    0.0000 C   0  0  0  0  0  0  0  0  0  0  0  0
   -3.8817   -1.2135    0.0000 N   0  0  0  0  0  0  0  0  0  0  0  0
   -5.3083   -0.7500    0.0000 N   0  0  0  0  0  0  0  0  0  0  0  0
   -5.3083    0.7500    0.0000 C   0  0  0  0  0  0  0  0  0  0  0  0
   -6.5218    1.6317    0.0000 O   0  0  0  0  0  0  0  0  0  0  0  0
   -3.8817    1.2135    0.0000 C   0  0  0  0  0  0  0  0  0  0  0  0
   -3.4182    2.6401    0.0000 N   0  0  0  0  0  0  0  0  0  0  0  0
   -4.4218    3.7548    0.0000 N   0  0  0  0  0  0  0  0  0  0  0  0
   -3.9583    5.1814    0.0000 C   0  0  0  0  0  0  0  0  0  0  0  0
   -2.4911    5.4933    0.0000 C   0  0  0  0  0  0  0  0  0  0  0  0
   -2.0276    6.9199    0.0000 C   0  0  0  0  0  0  0  0  0  0  0  0
   -3.0313    8.0346    0.0000 C   0  0  0  0  0  0  0  0  0  0  0  0
   -4.4985    7.7227    0.0000 N   0  0  0  0  0  0  0  0  0  0  0  0
   -4.9620    6.2961    0.0000 C   0  0  0  0  0  0  0  0  0  0  0  0
   -0.7500    1.2990    0.0000 C   0  0  0  0  0  0  0  0  0  0  0  0
    0.7500    1.2990    0.0000 C   0  0  0  0  0  0  0  0  0  0  0  0
  1  2  1  0
  2  3  1  0
  3  4  2  0
  4  5  1  0
  5  6  2  0
  6  7  1  0
  7  8  2  0
  8  9  1  0
  9 10  1  0
 10 11  2  0
 10 12  1  0
 12 13  2  0
 13 14  1  0
 14 15  1  0
 15 16  2  0
 16 17  1  0
 17 18  2  0
 18 19  1  0
 19 20  2  0
  6 21  1  0
 21 22  2  0
 22  3  1  0
 12  7  1  0
 20 15  1  0
M  END
>  <Compound_ID>  (231) 
CHEMBL1076721

>  <Active>  (231) 
1

>  <Smiles>  (231) 
COc1ccc(C2=NNC(=O)/C2=N\Nc2cccnc2)cc1

>  <canonical_smi>  (231) 
COc1ccc(C2=NNC(=O)/C2=N\Nc2cccnc2)cc1

>  <Set>  (231) 
G2 active

>  <Set_type>  (231) 
Train

>  <MW>  (231) 
295.3

>  <HBD>  (231) 
2

>  <HBA>  (231) 
4

>  <NRB>  (231) 
4

>  <NR>  (231) 
3

>  <NAR>  (231) 
2

>  <PSA>  (231) 
87.97

>  <Standard Type>  (231) 
nan

>  <Standard Relation>  (231) 
nan

>  <Standard Units>  (231) 
nan

>  <Standard Value>  (231) 
nan

>  <Assay ChEMBL ID>  (231) 
nan

>  <Assay Description>  (231) 
nan

>  <BAO Label>  (231) 
nan

$$$$

     RDKit          2D

 30 33  0  0  0  0  0  0  0  0999 V2000
    0.7500   -3.8971    0.0000 C   0  0  0  0  0  0  0  0  0  0  0  0
    1.5000   -2.5981    0.0000 C   0  0  0  0  0  0  0  0  0  0  0  0
    0.7500   -1.2990    0.0000 C   0  0  0  0  0  0  0  0  0  0  0  0
    1.5000    0.0000    0.0000 C   0  0  0  0  0  0  0  0  0  0  0  0
    0.7500    1.2990    0.0000 C   0  0  0  0  0  0  0  0  0  0  0  0
   -0.7500    1.2990    0.0000 C   0  0  0  0  0  0  0  0  0  0  0  0
   -1.7537    2.4138    0.0000 N   0  0  0  0  0  0  0  0  0  0  0  0
   -3.1240    1.8037    0.0000 C   0  0  0  0  0  0  0  0  0  0  0  0
   -4.4231    2.5537    0.0000 N   0  0  0  0  0  0  0  0  0  0  0  0
   -2.9672    0.3119    0.0000 C   0  0  0  0  0  0  0  0  0  0  0  0
   -4.0819   -0.6918    0.0000 C   0  0  0  0  0  0  0  0  0  0  0  0
   -5.5085   -0.2283    0.0000 O   0  0  0  0  0  0  0  0  0  0  0  0
   -3.7701   -2.1590    0.0000 C   0  0  0  0  0  0  0  0  0  0  0  0
   -2.3435   -2.6226    0.0000 C   0  0  0  0  0  0  0  0  0  0  0  0
   -1.1515   -1.9889    0.0000 F   0  0  0  0  0  0  0  0  0  0  0  0
   -2.0316   -4.0898    0.0000 C   0  0  0  0  0  0  0  0  0  0  0  0
   -3.1463   -5.0935    0.0000 C   0  0  0  0  0  0  0  0  0  0  0  0
   -4.5729   -4.6300    0.0000 C   0  0  0  0  0  0  0  0  0  0  0  0
   -4.8848   -3.1627    0.0000 C   0  0  0  0  0  0  0  0  0  0  0  0
   -6.3114   -2.6992    0.0000 F   0  0  0  0  0  0  0  0  0  0  0  0
   -1.5000    0.0000    0.0000 N   0  0  0  0  0  0  0  0  0  0  0  0
   -0.7500   -1.2990    0.0000 C   0  0  0  0  0  0  0  0  0  0  0  0
    3.0000   -2.5981    0.0000 C   0  0  0  0  0  0  0  0  0  0  0  0
    3.7500   -3.8971    0.0000 C   0  0  0  0  0  0  0  0  0  0  0  0
    3.0000   -5.1962    0.0000 F   0  0  0  0  0  0  0  0  0  0  0  0
    5.2500   -3.8971    0.0000 C   0  0  0  0  0  0  0  0  0  0  0  0
    6.0000   -2.5981    0.0000 C   0  0  0  0  0  0  0  0  0  0  0  0
    5.2500   -1.2990    0.0000 C   0  0  0  0  0  0  0  0  0  0  0  0
    3.7500   -1.2990    0.0000 C   0  0  0  0  0  0  0  0  0  0  0  0
    3.0000   -0.0000    0.0000 F   0  0  0  0  0  0  0  0  0  0  0  0
  1  2  2  0
  2  3  1  0
  3  4  1  0
  4  5  2  0
  5  6  1  0
  6  7  2  0
  7  8  1  0
  8  9  1  0
  8 10  2  0
 10 11  1  0
 11 12  2  0
 11 13  1  0
 13 14  2  0
 14 15  1  0
 14 16  1  0
 16 17  2  0
 17 18  1  0
 18 19  2  0
 19 20  1  0
 10 21  1  0
 21 22  1  0
  2 23  1  0
 23 24  2  0
 24 25  1  0
 24 26  1  0
 26 27  2  0
 27 28  1  0
 28 29  2  0
 29 30  1  0
 22  3  2  0
 29 23  1  0
 21  6  1  0
 19 13  1  0
M  END
>  <Compound_ID>  (232) 
CHEMBL365608

>  <Active>  (232) 
1

>  <Smiles>  (232) 
C=C(c1ccc2nc(N)c(C(=O)c3c(F)cccc3F)n2c1)c1c(F)cccc1F

>  <canonical_smi>  (232) 
C=C(c1ccc2nc(N)c(C(=O)c3c(F)cccc3F)n2c1)c1c(F)cccc1F

>  <Set>  (232) 
G2 active

>  <Set_type>  (232) 
Train

>  <MW>  (232) 
411.36

>  <HBD>  (232) 
1

>  <HBA>  (232) 
3

>  <NRB>  (232) 
4

>  <NR>  (232) 
4

>  <NAR>  (232) 
4

>  <PSA>  (232) 
60.39

>  <Standard Type>  (232) 
nan

>  <Standard Relation>  (232) 
nan

>  <Standard Units>  (232) 
nan

>  <Standard Value>  (232) 
nan

>  <Assay ChEMBL ID>  (232) 
nan

>  <Assay Description>  (232) 
nan

>  <BAO Label>  (232) 
nan

$$$$

     RDKit          2D

 35 38  0  0  0  0  0  0  0  0999 V2000
   -7.7508   -0.0575    0.0000 C   0  0  0  0  0  0  0  0  0  0  0  0
   -6.4517   -0.8075    0.0000 O   0  0  0  0  0  0  0  0  0  0  0  0
   -5.1527   -0.0575    0.0000 C   0  0  0  0  0  0  0  0  0  0  0  0
   -5.1527    1.4425    0.0000 C   0  0  0  0  0  0  0  0  0  0  0  0
   -3.8536    2.1925    0.0000 C   0  0  0  0  0  0  0  0  0  0  0  0
   -2.5546    1.4425    0.0000 C   0  0  0  0  0  0  0  0  0  0  0  0
   -2.5546   -0.0575    0.0000 C   0  0  0  0  0  0  0  0  0  0  0  0
   -3.8536   -0.8075    0.0000 C   0  0  0  0  0  0  0  0  0  0  0  0
   -3.8536   -2.3075    0.0000 C   0  0  0  0  0  0  0  0  0  0  0  0
   -2.6401   -3.1891    0.0000 C   0  0  0  0  0  0  0  0  0  0  0  0
   -1.2135   -2.7256    0.0000 C   0  0  0  0  0  0  0  0  0  0  0  0
   -0.0000   -3.6073    0.0000 C   0  0  0  0  0  0  0  0  0  0  0  0
    1.2135   -2.7256    0.0000 N   0  0  0  0  0  0  0  0  0  0  0  0
    2.6401   -3.1891    0.0000 C   0  0  0  0  0  0  0  0  0  0  0  0
    2.9520   -4.6564    0.0000 C   0  0  0  0  0  0  0  0  0  0  0  0
    4.3786   -5.1199    0.0000 C   0  0  0  0  0  0  0  0  0  0  0  0
    4.6904   -6.5871    0.0000 N   0  0  0  0  0  0  0  0  0  0  0  0
    6.1170   -7.0506    0.0000 C   0  0  0  0  0  0  0  0  0  0  0  0
    7.2317   -6.0469    0.0000 O   0  0  0  0  0  0  0  0  0  0  0  0
    6.4289   -8.5179    0.0000 O   0  0  0  0  0  0  0  0  0  0  0  0
    7.8555   -8.9814    0.0000 C   0  0  0  0  0  0  0  0  0  0  0  0
    7.3919  -10.4080    0.0000 C   0  0  0  0  0  0  0  0  0  0  0  0
    8.3190   -7.5548    0.0000 C   0  0  0  0  0  0  0  0  0  0  0  0
    9.2821   -9.4449    0.0000 C   0  0  0  0  0  0  0  0  0  0  0  0
    0.7500   -1.2990    0.0000 C   0  0  0  0  0  0  0  0  0  0  0  0
    1.5000    0.0000    0.0000 N   0  0  0  0  0  0  0  0  0  0  0  0
    0.7500    1.2990    0.0000 C   0  0  0  0  0  0  0  0  0  0  0  0
   -0.7500    1.2990    0.0000 C   0  0  0  0  0  0  0  0  0  0  0  0
   -1.5000    0.0000    0.0000 C   0  0  0  0  0  0  0  0  0  0  0  0
   -0.7500   -1.2990    0.0000 C   0  0  0  0  0  0  0  0  0  0  0  0
   -3.1036   -4.6157    0.0000 C   0  0  0  0  0  0  0  0  0  0  0  0
   -2.2220   -5.8293    0.0000 O   0  0  0  0  0  0  0  0  0  0  0  0
   -4.6036   -4.6157    0.0000 N   0  0  0  0  0  0  0  0  0  0  0  0
   -5.0672   -3.1891    0.0000 C   0  0  0  0  0  0  0  0  0  0  0  0
   -6.4937   -2.7256    0.0000 O   0  0  0  0  0  0  0  0  0  0  0  0
  1  2  1  0
  2  3  1  0
  3  4  2  0
  4  5  1  0
  5  6  2  0
  6  7  1  0
  7  8  2  0
  8  9  1  0
  9 10  2  0
 10 11  1  0
 11 12  2  0
 12 13  1  0
 13 14  1  0
 14 15  1  0
 15 16  1  0
 16 17  1  0
 17 18  1  0
 18 19  2  0
 18 20  1  0
 20 21  1  0
 21 22  1  0
 21 23  1  0
 21 24  1  0
 13 25  1  0
 25 26  2  0
 26 27  1  0
 27 28  2  0
 28 29  1  0
 29 30  2  0
 10 31  1  0
 31 32  2  0
 31 33  1  0
 33 34  1  0
 34 35  2  0
  8  3  1  0
 34  9  1  0
 30 11  1  0
 30 25  1  0
M  END
>  <Compound_ID>  (233) 
CHEMBL109981

>  <Active>  (233) 
1

>  <Smiles>  (233) 
COc1ccccc1C1=C(c2cn(CCCNC(=O)OC(C)(C)C)c3ncccc23)C(=O)NC1=O

>  <canonical_smi>  (233) 
COc1ccccc1C1=C(c2cn(CCCNC(=O)OC(C)(C)C)c3ncccc23)C(=O)NC1=O

>  <Set>  (233) 
G2 active

>  <Set_type>  (233) 
Train

>  <MW>  (233) 
476.53

>  <HBD>  (233) 
2

>  <HBA>  (233) 
6

>  <NRB>  (233) 
7

>  <NR>  (233) 
4

>  <NAR>  (233) 
3

>  <PSA>  (233) 
111.55

>  <Standard Type>  (233) 
nan

>  <Standard Relation>  (233) 
nan

>  <Standard Units>  (233) 
nan

>  <Standard Value>  (233) 
nan

>  <Assay ChEMBL ID>  (233) 
nan

>  <Assay Description>  (233) 
nan

>  <BAO Label>  (233) 
nan

$$$$

     RDKit          2D

 23 26  0  0  0  0  0  0  0  0999 V2000
   -3.0000   -5.1962    0.0000 O   0  0  0  0  0  0  0  0  0  0  0  0
   -3.7500   -3.8971    0.0000 C   0  0  0  0  0  0  0  0  0  0  0  0
   -3.0000   -2.5981    0.0000 C   0  0  0  0  0  0  0  0  0  0  0  0
   -1.5000   -2.5981    0.0000 C   0  0  0  0  0  0  0  0  0  0  0  0
   -0.7500   -3.8971    0.0000 C   0  0  0  0  0  0  0  0  0  0  0  0
    0.7500   -3.8971    0.0000 C   0  0  0  0  0  0  0  0  0  0  0  0
    1.5000   -2.5981    0.0000 C   0  0  0  0  0  0  0  0  0  0  0  0
    0.7500   -1.2990    0.0000 C   0  0  0  0  0  0  0  0  0  0  0  0
    1.5000    0.0000    0.0000 C   0  0  0  0  0  0  0  0  0  0  0  0
    0.7500    1.2990    0.0000 N   0  0  0  0  0  0  0  0  0  0  0  0
   -0.7500    1.2990    0.0000 C   0  0  0  0  0  0  0  0  0  0  0  0
   -1.5000    0.0000    0.0000 C   0  0  0  0  0  0  0  0  0  0  0  0
   -0.7500   -1.2990    0.0000 C   0  0  0  0  0  0  0  0  0  0  0  0
   -5.2500   -3.8971    0.0000 N   0  0  0  0  0  0  0  0  0  0  0  0
   -6.0000   -5.1962    0.0000 C   0  0  0  0  0  0  0  0  0  0  0  0
   -5.3899   -6.5665    0.0000 N   0  0  0  0  0  0  0  0  0  0  0  0
   -6.5046   -7.5702    0.0000 C   0  0  0  0  0  0  0  0  0  0  0  0
   -7.8037   -6.8202    0.0000 C   0  0  0  0  0  0  0  0  0  0  0  0
   -9.1740   -7.4303    0.0000 C   0  0  0  0  0  0  0  0  0  0  0  0
  -10.5743   -6.8927    0.0000 C   0  0  0  0  0  0  0  0  0  0  0  0
  -11.1119   -8.2931    0.0000 C   0  0  0  0  0  0  0  0  0  0  0  0
   -9.7115   -8.8306    0.0000 C   0  0  0  0  0  0  0  0  0  0  0  0
   -7.4918   -5.3529    0.0000 S   0  0  0  0  0  0  0  0  0  0  0  0
  1  2  2  0
  2  3  1  0
  3  4  1  0
  4  5  2  0
  5  6  1  0
  6  7  2  0
  7  8  1  0
  8  9  2  0
  9 10  1  0
 10 11  2  0
 11 12  1  0
 12 13  2  0
  2 14  1  0
 14 15  1  0
 15 16  2  0
 16 17  1  0
 17 18  2  0
 18 19  1  0
 19 20  1  0
 20 21  1  0
 21 22  1  0
 18 23  1  0
 13  4  1  0
 23 15  1  0
 13  8  1  0
 22 19  1  0
M  END
>  <Compound_ID>  (234) 
CHEMBL184404

>  <Active>  (234) 
1

>  <Smiles>  (234) 
O=C(Cc1cccc2cnccc12)Nc1ncc(C2CCC2)s1

>  <canonical_smi>  (234) 
O=C(Cc1cccc2cnccc12)Nc1ncc(C2CCC2)s1

>  <Set>  (234) 
G2 active

>  <Set_type>  (234) 
Train

>  <MW>  (234) 
323.42

>  <HBD>  (234) 
1

>  <HBA>  (234) 
3

>  <NRB>  (234) 
4

>  <NR>  (234) 
4

>  <NAR>  (234) 
3

>  <PSA>  (234) 
54.88

>  <Standard Type>  (234) 
nan

>  <Standard Relation>  (234) 
nan

>  <Standard Units>  (234) 
nan

>  <Standard Value>  (234) 
nan

>  <Assay ChEMBL ID>  (234) 
nan

>  <Assay Description>  (234) 
nan

>  <BAO Label>  (234) 
nan

$$$$

     RDKit          2D

 25 28  0  0  0  0  0  0  0  0999 V2000
    0.7500   -3.8971    0.0000 C   0  0  0  0  0  0  0  0  0  0  0  0
    1.5000   -2.5981    0.0000 C   0  0  0  0  0  0  0  0  0  0  0  0
    3.0000   -2.5981    0.0000 C   0  0  0  0  0  0  0  0  0  0  0  0
    3.7500   -1.2990    0.0000 O   0  0  0  0  0  0  0  0  0  0  0  0
    3.7500   -3.8971    0.0000 N   0  0  0  0  0  0  0  0  0  0  0  0
    5.2500   -3.8971    0.0000 C   0  0  0  0  0  0  0  0  0  0  0  0
    6.1317   -2.6836    0.0000 C   0  0  0  0  0  0  0  0  0  0  0  0
    7.5583   -3.1471    0.0000 C   0  0  0  0  0  0  0  0  0  0  0  0
    8.7718   -2.2654    0.0000 C   0  0  0  0  0  0  0  0  0  0  0  0
    9.3819   -0.8951    0.0000 C   0  0  0  0  0  0  0  0  0  0  0  0
   10.2636   -2.1086    0.0000 C   0  0  0  0  0  0  0  0  0  0  0  0
    7.5583   -4.6471    0.0000 N   0  0  0  0  0  0  0  0  0  0  0  0
    6.1317   -5.1106    0.0000 N   0  0  0  0  0  0  0  0  0  0  0  0
    0.7500   -1.2990    0.0000 C   0  0  0  0  0  0  0  0  0  0  0  0
    1.5000    0.0000    0.0000 C   0  0  0  0  0  0  0  0  0  0  0  0
    0.7500    1.2990    0.0000 C   0  0  0  0  0  0  0  0  0  0  0  0
   -0.7500    1.2990    0.0000 C   0  0  0  0  0  0  0  0  0  0  0  0
   -1.5000    2.5981    0.0000 N   0  0  0  0  0  0  0  0  0  0  0  0
   -2.9918    2.7549    0.0000 C   0  0  0  0  0  0  0  0  0  0  0  0
   -3.3037    4.2221    0.0000 N   0  0  0  0  0  0  0  0  0  0  0  0
   -2.0046    4.9721    0.0000 N   0  0  0  0  0  0  0  0  0  0  0  0
   -0.8899    3.9684    0.0000 C   0  0  0  0  0  0  0  0  0  0  0  0
    0.5773    4.2803    0.0000 O   0  0  0  0  0  0  0  0  0  0  0  0
   -1.5000    0.0000    0.0000 C   0  0  0  0  0  0  0  0  0  0  0  0
   -0.7500   -1.2990    0.0000 C   0  0  0  0  0  0  0  0  0  0  0  0
  1  2  1  0
  2  3  1  0
  3  4  2  0
  3  5  1  0
  5  6  1  0
  6  7  1  0
  7  8  2  0
  8  9  1  0
  9 10  1  0
 10 11  1  0
  8 12  1  0
 12 13  1  0
  2 14  1  0
 14 15  2  0
 15 16  1  0
 16 17  2  0
 17 18  1  0
 18 19  1  0
 19 20  2  0
 20 21  1  0
 21 22  2  0
 22 23  1  0
 17 24  1  0
 24 25  2  0
 13  6  2  0
 25 14  1  0
 11  9  1  0
 22 18  1  0
M  END
>  <Compound_ID>  (235) 
CHEMBL370817

>  <Active>  (235) 
1

>  <Smiles>  (235) 
CC(C(=O)Nc1cc(C2CC2)[nH]n1)c1ccc(-n2cnnc2O)cc1

>  <canonical_smi>  (235) 
CC(C(=O)Nc1cc(C2CC2)[nH]n1)c1ccc(-n2cnnc2O)cc1

>  <Set>  (235) 
G2 active

>  <Set_type>  (235) 
Train

>  <MW>  (235) 
338.37

>  <HBD>  (235) 
3

>  <HBA>  (235) 
5

>  <NRB>  (235) 
5

>  <NR>  (235) 
4

>  <NAR>  (235) 
3

>  <PSA>  (235) 
108.72

>  <Standard Type>  (235) 
nan

>  <Standard Relation>  (235) 
nan

>  <Standard Units>  (235) 
nan

>  <Standard Value>  (235) 
nan

>  <Assay ChEMBL ID>  (235) 
nan

>  <Assay Description>  (235) 
nan

>  <BAO Label>  (235) 
nan

$$$$

     RDKit          2D

 26 30  0  0  0  0  0  0  0  0999 V2000
   -4.6613    6.0728    0.0000 N   0  0  0  0  0  0  0  0  0  0  0  0
   -3.2910    5.4627    0.0000 C   0  0  0  0  0  0  0  0  0  0  0  0
   -2.0774    6.3444    0.0000 O   0  0  0  0  0  0  0  0  0  0  0  0
   -3.1342    3.9709    0.0000 C   0  0  0  0  0  0  0  0  0  0  0  0
   -4.2489    2.9672    0.0000 N   0  0  0  0  0  0  0  0  0  0  0  0
   -3.6388    1.5969    0.0000 N   0  0  0  0  0  0  0  0  0  0  0  0
   -4.3888    0.2979    0.0000 C   0  0  0  0  0  0  0  0  0  0  0  0
   -5.8888    0.2979    0.0000 C   0  0  0  0  0  0  0  0  0  0  0  0
   -6.6388   -1.0012    0.0000 C   0  0  0  0  0  0  0  0  0  0  0  0
   -5.8888   -2.3002    0.0000 C   0  0  0  0  0  0  0  0  0  0  0  0
   -6.6388   -3.5992    0.0000 C   0  0  0  0  0  0  0  0  0  0  0  0
   -6.0287   -4.9696    0.0000 N   0  0  0  0  0  0  0  0  0  0  0  0
   -7.1434   -5.9733    0.0000 C   0  0  0  0  0  0  0  0  0  0  0  0
   -8.4424   -5.2233    0.0000 C   0  0  0  0  0  0  0  0  0  0  0  0
   -8.1306   -3.7560    0.0000 N   0  0  0  0  0  0  0  0  0  0  0  0
   -4.3888   -2.3002    0.0000 C   0  0  0  0  0  0  0  0  0  0  0  0
   -3.6388   -1.0012    0.0000 C   0  0  0  0  0  0  0  0  0  0  0  0
   -2.1470    1.7537    0.0000 C   0  0  0  0  0  0  0  0  0  0  0  0
   -1.8351    3.2209    0.0000 C   0  0  0  0  0  0  0  0  0  0  0  0
   -0.4086    3.6844    0.0000 C   0  0  0  0  0  0  0  0  0  0  0  0
    0.7062    2.6807    0.0000 C   0  0  0  0  0  0  0  0  0  0  0  0
    0.3943    1.2135    0.0000 C   0  0  0  0  0  0  0  0  0  0  0  0
    1.2760    0.0000    0.0000 N   0  0  0  0  0  0  0  0  0  0  0  0
    0.3943   -1.2135    0.0000 N   0  0  0  0  0  0  0  0  0  0  0  0
   -1.0323   -0.7500    0.0000 C   0  0  0  0  0  0  0  0  0  0  0  0
   -1.0323    0.7500    0.0000 C   0  0  0  0  0  0  0  0  0  0  0  0
  1  2  1  0
  2  3  2  0
  2  4  1  0
  4  5  2  0
  5  6  1  0
  6  7  1  0
  7  8  2  0
  8  9  1  0
  9 10  2  0
 10 11  1  0
 11 12  2  0
 12 13  1  0
 13 14  1  0
 14 15  2  0
 10 16  1  0
 16 17  2  0
  6 18  1  0
 18 19  2  0
 19 20  1  0
 20 21  2  0
 21 22  1  0
 22 23  1  0
 23 24  1  0
 24 25  2  0
 25 26  1  0
 19  4  1  0
 26 22  2  0
 17  7  1  0
 26 18  1  0
 15 11  1  0
M  END
>  <Compound_ID>  (236) 
CHEMBL179599

>  <Active>  (236) 
1

>  <Smiles>  (236) 
NC(=O)c1nn(-c2ccc(C3=NCC=N3)cc2)c2c1ccc1[nH]ncc12

>  <canonical_smi>  (236) 
NC(=O)c1nn(-c2ccc(C3=NCC=N3)cc2)c2c1ccc1[nH]ncc12

>  <Set>  (236) 
G2 active

>  <Set_type>  (236) 
Train

>  <MW>  (236) 
343.35

>  <HBD>  (236) 
2

>  <HBA>  (236) 
3

>  <NRB>  (236) 
3

>  <NR>  (236) 
5

>  <NAR>  (236) 
4

>  <PSA>  (236) 
114.31

>  <Standard Type>  (236) 
nan

>  <Standard Relation>  (236) 
nan

>  <Standard Units>  (236) 
nan

>  <Standard Value>  (236) 
nan

>  <Assay ChEMBL ID>  (236) 
nan

>  <Assay Description>  (236) 
nan

>  <BAO Label>  (236) 
nan

$$$$

     RDKit          2D

 22 24  0  0  0  0  0  0  0  0999 V2000
    3.7500   -1.2990    0.0000 C   0  0  0  0  0  0  0  0  0  0  0  0
    3.0000    0.0000    0.0000 O   0  0  0  0  0  0  0  0  0  0  0  0
    1.5000    0.0000    0.0000 C   0  0  0  0  0  0  0  0  0  0  0  0
    0.7500   -1.2990    0.0000 C   0  0  0  0  0  0  0  0  0  0  0  0
   -0.7500   -1.2990    0.0000 C   0  0  0  0  0  0  0  0  0  0  0  0
   -1.5000    0.0000    0.0000 N   0  0  0  0  0  0  0  0  0  0  0  0
   -0.7500    1.2990    0.0000 C   0  0  0  0  0  0  0  0  0  0  0  0
    0.7500    1.2990    0.0000 C   0  0  0  0  0  0  0  0  0  0  0  0
    1.5000    2.5981    0.0000 C   0  0  0  0  0  0  0  0  0  0  0  0
    0.8899    3.9684    0.0000 N   0  0  0  0  0  0  0  0  0  0  0  0
    2.0046    4.9721    0.0000 N   0  0  0  0  0  0  0  0  0  0  0  0
    3.3037    4.2221    0.0000 C   0  0  0  0  0  0  0  0  0  0  0  0
    4.6740    4.8322    0.0000 O   0  0  0  0  0  0  0  0  0  0  0  0
    2.9918    2.7549    0.0000 C   0  0  0  0  0  0  0  0  0  0  0  0
    3.9955    1.6402    0.0000 N   0  0  0  0  0  0  0  0  0  0  0  0
    5.4627    1.9520    0.0000 N   0  0  0  0  0  0  0  0  0  0  0  0
    6.4664    0.8373    0.0000 C   0  0  0  0  0  0  0  0  0  0  0  0
    6.0029   -0.5893    0.0000 C   0  0  0  0  0  0  0  0  0  0  0  0
    7.0066   -1.7040    0.0000 C   0  0  0  0  0  0  0  0  0  0  0  0
    8.4738   -1.3921    0.0000 C   0  0  0  0  0  0  0  0  0  0  0  0
    8.9373    0.0345    0.0000 C   0  0  0  0  0  0  0  0  0  0  0  0
    7.9336    1.1492    0.0000 C   0  0  0  0  0  0  0  0  0  0  0  0
  1  2  1  0
  2  3  1  0
  3  4  2  0
  4  5  1  0
  5  6  2  0
  6  7  1  0
  7  8  2  0
  8  9  1  0
  9 10  2  0
 10 11  1  0
 11 12  1  0
 12 13  2  0
 12 14  1  0
 14 15  2  0
 15 16  1  0
 16 17  1  0
 17 18  2  0
 18 19  1  0
 19 20  2  0
 20 21  1  0
 21 22  2  0
  8  3  1  0
 14  9  1  0
 22 17  1  0
M  END
>  <Compound_ID>  (237) 
CHEMBL1086736

>  <Active>  (237) 
1

>  <Smiles>  (237) 
COc1ccncc1C1=NNC(=O)/C1=N\Nc1ccccc1

>  <canonical_smi>  (237) 
COc1ccncc1C1=NNC(=O)/C1=N\Nc1ccccc1

>  <Set>  (237) 
G2 active

>  <Set_type>  (237) 
Train

>  <MW>  (237) 
295.3

>  <HBD>  (237) 
2

>  <HBA>  (237) 
4

>  <NRB>  (237) 
4

>  <NR>  (237) 
3

>  <NAR>  (237) 
2

>  <PSA>  (237) 
87.97

>  <Standard Type>  (237) 
nan

>  <Standard Relation>  (237) 
nan

>  <Standard Units>  (237) 
nan

>  <Standard Value>  (237) 
nan

>  <Assay ChEMBL ID>  (237) 
nan

>  <Assay Description>  (237) 
nan

>  <BAO Label>  (237) 
nan

$$$$

     RDKit          2D

 15 17  0  0  0  0  0  0  0  0999 V2000
   -4.6613    6.0728    0.0000 N   0  0  0  0  0  0  0  0  0  0  0  0
   -3.2910    5.4627    0.0000 C   0  0  0  0  0  0  0  0  0  0  0  0
   -2.0774    6.3444    0.0000 O   0  0  0  0  0  0  0  0  0  0  0  0
   -3.1342    3.9709    0.0000 C   0  0  0  0  0  0  0  0  0  0  0  0
   -4.2489    2.9672    0.0000 N   0  0  0  0  0  0  0  0  0  0  0  0
   -3.6388    1.5969    0.0000 N   0  0  0  0  0  0  0  0  0  0  0  0
   -2.1470    1.7537    0.0000 C   0  0  0  0  0  0  0  0  0  0  0  0
   -1.8351    3.2209    0.0000 C   0  0  0  0  0  0  0  0  0  0  0  0
   -0.4086    3.6844    0.0000 C   0  0  0  0  0  0  0  0  0  0  0  0
    0.7062    2.6807    0.0000 C   0  0  0  0  0  0  0  0  0  0  0  0
    0.3943    1.2135    0.0000 C   0  0  0  0  0  0  0  0  0  0  0  0
    1.2760    0.0000    0.0000 N   0  0  0  0  0  0  0  0  0  0  0  0
    0.3943   -1.2135    0.0000 N   0  0  0  0  0  0  0  0  0  0  0  0
   -1.0323   -0.7500    0.0000 C   0  0  0  0  0  0  0  0  0  0  0  0
   -1.0323    0.7500    0.0000 C   0  0  0  0  0  0  0  0  0  0  0  0
  1  2  1  0
  2  3  2  0
  2  4  1  0
  4  5  1  0
  5  6  1  0
  6  7  2  0
  7  8  1  0
  8  9  1  0
  9 10  2  0
 10 11  1  0
 11 12  1  0
 12 13  1  0
 13 14  2  0
 14 15  1  0
  8  4  2  0
 15 11  2  0
 15  7  1  0
M  END
>  <Compound_ID>  (238) 
CHEMBL362004

>  <Active>  (238) 
1

>  <Smiles>  (238) 
NC(=O)c1[nH]nc2c1ccc1[nH]ncc12

>  <canonical_smi>  (238) 
NC(=O)c1[nH]nc2c1ccc1[nH]ncc12

>  <Set>  (238) 
G2 active

>  <Set_type>  (238) 
Train

>  <MW>  (238) 
201.19

>  <HBD>  (238) 
3

>  <HBA>  (238) 
3

>  <NRB>  (238) 
1

>  <NR>  (238) 
3

>  <NAR>  (238) 
3

>  <PSA>  (238) 
100.45

>  <Standard Type>  (238) 
nan

>  <Standard Relation>  (238) 
nan

>  <Standard Units>  (238) 
nan

>  <Standard Value>  (238) 
nan

>  <Assay ChEMBL ID>  (238) 
nan

>  <Assay Description>  (238) 
nan

>  <BAO Label>  (238) 
nan

$$$$

     RDKit          2D

 23 26  0  0  0  0  0  0  0  0999 V2000
    3.7385    5.7246    0.0000 O   0  0  0  0  0  0  0  0  0  0  0  0
    4.0503    4.2574    0.0000 C   0  0  0  0  0  0  0  0  0  0  0  0
    5.4769    3.7939    0.0000 N   0  0  0  0  0  0  0  0  0  0  0  0
    6.5916    4.7976    0.0000 C   0  0  0  0  0  0  0  0  0  0  0  0
    8.0182    4.3340    0.0000 C   0  0  0  0  0  0  0  0  0  0  0  0
    9.1329    5.3377    0.0000 C   0  0  0  0  0  0  0  0  0  0  0  0
    8.8211    6.8050    0.0000 C   0  0  0  0  0  0  0  0  0  0  0  0
    7.3945    7.2685    0.0000 C   0  0  0  0  0  0  0  0  0  0  0  0
    6.2798    6.2648    0.0000 N   0  0  0  0  0  0  0  0  0  0  0  0
    2.9356    3.2537    0.0000 N   0  0  0  0  0  0  0  0  0  0  0  0
    1.5090    3.7172    0.0000 C   0  0  0  0  0  0  0  0  0  0  0  0
    1.1971    5.1844    0.0000 C   0  0  0  0  0  0  0  0  0  0  0  0
   -0.2294    5.6480    0.0000 C   0  0  0  0  0  0  0  0  0  0  0  0
   -1.3442    4.6443    0.0000 C   0  0  0  0  0  0  0  0  0  0  0  0
   -1.0323    3.1771    0.0000 C   0  0  0  0  0  0  0  0  0  0  0  0
    0.3943    2.7135    0.0000 C   0  0  0  0  0  0  0  0  0  0  0  0
    0.3943    1.2135    0.0000 C   0  0  0  0  0  0  0  0  0  0  0  0
    1.2760    0.0000    0.0000 C   0  0  0  0  0  0  0  0  0  0  0  0
    0.3943   -1.2135    0.0000 C   0  0  0  0  0  0  0  0  0  0  0  0
   -1.0323   -0.7500    0.0000 C   0  0  0  0  0  0  0  0  0  0  0  0
   -1.0323    0.7500    0.0000 N   0  0  0  0  0  0  0  0  0  0  0  0
   -1.9140    1.9635    0.0000 C   0  0  0  0  0  0  0  0  0  0  0  0
   -3.4140    1.9635    0.0000 O   0  0  0  0  0  0  0  0  0  0  0  0
  1  2  2  0
  2  3  1  0
  3  4  1  0
  4  5  2  0
  5  6  1  0
  6  7  2  0
  7  8  1  0
  8  9  2  0
  2 10  1  0
 10 11  1  0
 11 12  2  0
 12 13  1  0
 13 14  2  0
 14 15  1  0
 15 16  2  0
 16 17  1  0
 17 18  1  1
 18 19  1  0
 19 20  1  0
 20 21  1  0
 21 22  1  0
 22 23  2  0
  9  4  1  0
 16 11  1  0
 21 17  1  0
 22 15  1  0
M  END
>  <Compound_ID>  (239) 
CHEMBL141247

>  <Active>  (239) 
1

>  <Smiles>  (239) 
O=C(Nc1ccccn1)Nc1cccc2c1[C@H]1CCCN1C2=O

>  <canonical_smi>  (239) 
O=C(Nc1ccccn1)Nc1cccc2c1[C@H]1CCCN1C2=O

>  <Set>  (239) 
G2 active

>  <Set_type>  (239) 
Train

>  <MW>  (239) 
308.34

>  <HBD>  (239) 
2

>  <HBA>  (239) 
3

>  <NRB>  (239) 
2

>  <NR>  (239) 
4

>  <NAR>  (239) 
2

>  <PSA>  (239) 
74.33

>  <Standard Type>  (239) 
nan

>  <Standard Relation>  (239) 
nan

>  <Standard Units>  (239) 
nan

>  <Standard Value>  (239) 
nan

>  <Assay ChEMBL ID>  (239) 
nan

>  <Assay Description>  (239) 
nan

>  <BAO Label>  (239) 
nan

$$$$

     RDKit          2D

 31 37  0  0  0  0  0  0  0  0999 V2000
    4.2660   -1.2584    0.0000 O   0  0  0  0  0  0  0  0  0  0  0  0
    3.9542   -2.7256    0.0000 C   0  0  0  0  0  0  0  0  0  0  0  0
    4.9579   -3.8403    0.0000 N   0  0  0  0  0  0  0  0  0  0  0  0
    4.2079   -5.1394    0.0000 C   0  0  0  0  0  0  0  0  0  0  0  0
    4.8180   -6.5097    0.0000 O   0  0  0  0  0  0  0  0  0  0  0  0
    2.7406   -4.8275    0.0000 C   0  0  0  0  0  0  0  0  0  0  0  0
    2.5838   -3.3357    0.0000 C   0  0  0  0  0  0  0  0  0  0  0  0
    1.2135   -2.7256    0.0000 C   0  0  0  0  0  0  0  0  0  0  0  0
    0.7500   -1.2990    0.0000 C   0  0  0  0  0  0  0  0  0  0  0  0
    1.5000    0.0000    0.0000 C   0  0  0  0  0  0  0  0  0  0  0  0
    0.7500    1.2990    0.0000 C   0  0  0  0  0  0  0  0  0  0  0  0
   -0.7500    1.2990    0.0000 C   0  0  0  0  0  0  0  0  0  0  0  0
   -1.5000    2.5981    0.0000 F   0  0  0  0  0  0  0  0  0  0  0  0
   -1.5000    0.0000    0.0000 C   0  0  0  0  0  0  0  0  0  0  0  0
   -0.7500   -1.2990    0.0000 C   0  0  0  0  0  0  0  0  0  0  0  0
   -1.2135   -2.7256    0.0000 N   0  0  0  0  0  0  0  0  0  0  0  0
    0.0000   -3.6073    0.0000 C   0  0  0  0  0  0  0  0  0  0  0  0
    0.1568   -5.0991    0.0000 C   0  0  0  0  0  0  0  0  0  0  0  0
    1.5271   -5.7092    0.0000 C   0  0  0  0  0  0  0  0  0  0  0  0
    1.3703   -7.2010    0.0000 C   0  0  0  0  0  0  0  0  0  0  0  0
    2.3740   -8.3157    0.0000 C   0  0  0  0  0  0  0  0  0  0  0  0
    1.9105   -9.7423    0.0000 C   0  0  0  0  0  0  0  0  0  0  0  0
    0.4433  -10.0541    0.0000 C   0  0  0  0  0  0  0  0  0  0  0  0
   -0.5604   -8.9394    0.0000 C   0  0  0  0  0  0  0  0  0  0  0  0
   -0.0969   -7.5128    0.0000 C   0  0  0  0  0  0  0  0  0  0  0  0
   -0.8469   -6.2138    0.0000 N   0  0  0  0  0  0  0  0  0  0  0  0
   -2.3238   -6.5124    0.0000 C   0  0  0  0  0  0  0  0  0  0  0  0
   -3.2055   -5.2988    0.0000 C   0  0  0  0  0  0  0  0  0  0  0  0
   -4.6972   -5.4556    0.0000 O   0  0  0  0  0  0  0  0  0  0  0  0
   -2.9339   -7.8827    0.0000 C   0  0  0  0  0  0  0  0  0  0  0  0
   -2.0522   -9.0962    0.0000 C   0  0  0  0  0  0  0  0  0  0  0  0
  1  2  2  0
  2  3  1  0
  3  4  1  0
  4  5  2  0
  4  6  1  0
  6  7  2  0
  7  8  1  0
  8  9  1  0
  9 10  2  0
 10 11  1  0
 11 12  2  0
 12 13  1  0
 12 14  1  0
 14 15  2  0
 15 16  1  0
 16 17  1  0
 17 18  1  0
 18 19  2  0
 19 20  1  0
 20 21  2  0
 21 22  1  0
 22 23  2  0
 23 24  1  0
 24 25  2  0
 25 26  1  0
 26 27  1  0
 27 28  1  0
 28 29  1  0
 27 30  1  0
 30 31  1  0
  7  2  1  0
 17  8  2  0
 26 18  1  0
 19  6  1  0
 25 20  1  0
 15  9  1  0
 31 24  1  0
M  END
>  <Compound_ID>  (240) 
CHEMBL318076

>  <Active>  (240) 
1

>  <Smiles>  (240) 
O=C1NC(=O)c2c1c1c3ccc(F)cc3[nH]c1c1c2c2cccc3c2n1C(CO)CC3

>  <canonical_smi>  (240) 
O=C1NC(=O)c2c1c1c3ccc(F)cc3[nH]c1c1c2c2cccc3c2n1C(CO)CC3

>  <Set>  (240) 
G2 active

>  <Set_type>  (240) 
Train

>  <MW>  (240) 
413.41

>  <HBD>  (240) 
3

>  <HBA>  (240) 
3

>  <NRB>  (240) 
1

>  <NR>  (240) 
7

>  <NAR>  (240) 
5

>  <PSA>  (240) 
87.12

>  <Standard Type>  (240) 
nan

>  <Standard Relation>  (240) 
nan

>  <Standard Units>  (240) 
nan

>  <Standard Value>  (240) 
nan

>  <Assay ChEMBL ID>  (240) 
nan

>  <Assay Description>  (240) 
nan

>  <BAO Label>  (240) 
nan

$$$$

     RDKit          2D

 35 39  0  0  0  0  0  0  0  0999 V2000
    7.4146   -6.0524    0.0000 N   0  0  0  0  0  0  0  0  0  0  0  0
    6.2011   -6.9341    0.0000 C   0  0  0  0  0  0  0  0  0  0  0  0
    4.8308   -6.3240    0.0000 C   0  0  0  0  0  0  0  0  0  0  0  0
    4.6740   -4.8322    0.0000 N   0  0  0  0  0  0  0  0  0  0  0  0
    3.3037   -4.2221    0.0000 C   0  0  0  0  0  0  0  0  0  0  0  0
    2.0046   -4.9721    0.0000 N   0  0  0  0  0  0  0  0  0  0  0  0
    0.8899   -3.9684    0.0000 N   0  0  0  0  0  0  0  0  0  0  0  0
    1.5000   -2.5981    0.0000 C   0  0  0  0  0  0  0  0  0  0  0  0
    0.7500   -1.2990    0.0000 C   0  0  0  0  0  0  0  0  0  0  0  0
    1.5000    0.0000    0.0000 C   0  0  0  0  0  0  0  0  0  0  0  0
    0.7500    1.2990    0.0000 C   0  0  0  0  0  0  0  0  0  0  0  0
   -0.7500    1.2990    0.0000 C   0  0  0  0  0  0  0  0  0  0  0  0
   -1.7537    2.4138    0.0000 N   0  0  0  0  0  0  0  0  0  0  0  0
   -3.1240    1.8037    0.0000 N   0  0  0  0  0  0  0  0  0  0  0  0
   -2.9672    0.3119    0.0000 C   0  0  0  0  0  0  0  0  0  0  0  0
   -4.0819   -0.6918    0.0000 C   0  0  0  0  0  0  0  0  0  0  0  0
   -5.5085   -0.2283    0.0000 C   0  0  0  0  0  0  0  0  0  0  0  0
   -6.6232   -1.2320    0.0000 C   0  0  0  0  0  0  0  0  0  0  0  0
   -6.3114   -2.6992    0.0000 C   0  0  0  0  0  0  0  0  0  0  0  0
   -4.8848   -3.1627    0.0000 C   0  0  0  0  0  0  0  0  0  0  0  0
   -3.7701   -2.1590    0.0000 C   0  0  0  0  0  0  0  0  0  0  0  0
   -1.5000    0.0000    0.0000 C   0  0  0  0  0  0  0  0  0  0  0  0
   -0.7500   -1.2990    0.0000 C   0  0  0  0  0  0  0  0  0  0  0  0
    2.9918   -2.7549    0.0000 S   0  0  0  0  0  0  0  0  0  0  0  0
    6.3579   -8.4259    0.0000 C   0  0  0  0  0  0  0  0  0  0  0  0
    7.7282   -9.0360    0.0000 C   0  0  0  0  0  0  0  0  0  0  0  0
    7.8850  -10.5278    0.0000 C   0  0  0  0  0  0  0  0  0  0  0  0
    9.2553  -11.1379    0.0000 C   0  0  0  0  0  0  0  0  0  0  0  0
   10.4688  -10.2562    0.0000 C   0  0  0  0  0  0  0  0  0  0  0  0
   10.3120   -8.7644    0.0000 C   0  0  0  0  0  0  0  0  0  0  0  0
   11.5256   -7.8827    0.0000 C   0  0  0  0  0  0  0  0  0  0  0  0
   12.7391   -7.0010    0.0000 F   0  0  0  0  0  0  0  0  0  0  0  0
   12.4072   -9.0962    0.0000 F   0  0  0  0  0  0  0  0  0  0  0  0
   10.6439   -6.6692    0.0000 F   0  0  0  0  0  0  0  0  0  0  0  0
    8.9417   -8.1543    0.0000 C   0  0  0  0  0  0  0  0  0  0  0  0
  2  1  1  1
  2  3  1  0
  3  4  1  0
  4  5  1  0
  5  6  2  0
  6  7  1  0
  7  8  2  0
  8  9  1  0
  9 10  2  0
 10 11  1  0
 11 12  2  0
 12 13  1  0
 13 14  1  0
 14 15  2  0
 15 16  1  0
 16 17  2  0
 17 18  1  0
 18 19  2  0
 19 20  1  0
 20 21  2  0
 15 22  1  0
 22 23  2  0
  8 24  1  0
  2 25  1  0
 25 26  1  0
 26 27  2  0
 27 28  1  0
 28 29  2  0
 29 30  1  0
 30 31  1  0
 31 32  1  0
 31 33  1  0
 31 34  1  0
 30 35  2  0
 24  5  1  0
 35 26  1  0
 23  9  1  0
 22 12  1  0
 21 16  1  0
M  END
>  <Compound_ID>  (241) 
CHEMBL1081438

>  <Active>  (241) 
1

>  <Smiles>  (241) 
N[C@H](CNc1nnc(-c2ccc3[nH]nc(-c4ccccc4)c3c2)s1)Cc1cccc(C(F)(F)F)c1

>  <canonical_smi>  (241) 
N[C@H](CNc1nnc(-c2ccc3[nH]nc(-c4ccccc4)c3c2)s1)Cc1cccc(C(F)(F)F)c1

>  <Set>  (241) 
G2 active

>  <Set_type>  (241) 
Train

>  <MW>  (241) 
494.55

>  <HBD>  (241) 
3

>  <HBA>  (241) 
5

>  <NRB>  (241) 
7

>  <NR>  (241) 
5

>  <NAR>  (241) 
5

>  <PSA>  (241) 
92.51

>  <Standard Type>  (241) 
nan

>  <Standard Relation>  (241) 
nan

>  <Standard Units>  (241) 
nan

>  <Standard Value>  (241) 
nan

>  <Assay ChEMBL ID>  (241) 
nan

>  <Assay Description>  (241) 
nan

>  <BAO Label>  (241) 
nan

$$$$

     RDKit          2D

 23 26  0  0  0  0  0  0  0  0999 V2000
    3.7500   -1.2990    0.0000 C   0  0  0  0  0  0  0  0  0  0  0  0
    3.0000    0.0000    0.0000 O   0  0  0  0  0  0  0  0  0  0  0  0
    1.5000    0.0000    0.0000 C   0  0  0  0  0  0  0  0  0  0  0  0
    0.7500   -1.2990    0.0000 C   0  0  0  0  0  0  0  0  0  0  0  0
   -0.7500   -1.2990    0.0000 C   0  0  0  0  0  0  0  0  0  0  0  0
   -1.5000    0.0000    0.0000 N   0  0  0  0  0  0  0  0  0  0  0  0
   -0.7500    1.2990    0.0000 C   0  0  0  0  0  0  0  0  0  0  0  0
    0.7500    1.2990    0.0000 C   0  0  0  0  0  0  0  0  0  0  0  0
    1.2135    2.7256    0.0000 C   0  0  0  0  0  0  0  0  0  0  0  0
    2.6401    3.1891    0.0000 C   0  0  0  0  0  0  0  0  0  0  0  0
    3.7548    2.1855    0.0000 C   0  0  0  0  0  0  0  0  0  0  0  0
    5.1814    2.6490    0.0000 C   0  0  0  0  0  0  0  0  0  0  0  0
    5.4933    4.1162    0.0000 N   0  0  0  0  0  0  0  0  0  0  0  0
    4.3786    5.1199    0.0000 C   0  0  0  0  0  0  0  0  0  0  0  0
    4.6904    6.5871    0.0000 N   0  0  0  0  0  0  0  0  0  0  0  0
    2.9520    4.6564    0.0000 N   0  0  0  0  0  0  0  0  0  0  0  0
    0.0000    3.6073    0.0000 C   0  0  0  0  0  0  0  0  0  0  0  0
   -0.1568    5.0991    0.0000 C   0  0  0  0  0  0  0  0  0  0  0  0
   -1.5271    5.7092    0.0000 C   0  0  0  0  0  0  0  0  0  0  0  0
   -2.7406    4.8275    0.0000 N   0  0  0  0  0  0  0  0  0  0  0  0
   -2.5838    3.3357    0.0000 C   0  0  0  0  0  0  0  0  0  0  0  0
   -3.7974    2.4540    0.0000 N   0  0  0  0  0  0  0  0  0  0  0  0
   -1.2135    2.7256    0.0000 N   0  0  0  0  0  0  0  0  0  0  0  0
  1  2  1  0
  2  3  1  0
  3  4  2  0
  4  5  1  0
  5  6  2  0
  6  7  1  0
  7  8  2  0
  8  9  1  0
  9 10  1  0
 10 11  2  0
 11 12  1  0
 12 13  2  0
 13 14  1  0
 14 15  1  0
 14 16  2  0
  9 17  2  0
 17 18  1  0
 18 19  2  0
 19 20  1  0
 20 21  2  0
 21 22  1  0
 21 23  1  0
  8  3  1  0
 16 10  1  0
 23 17  1  0
 23  7  1  0
M  END
>  <Compound_ID>  (242) 
CHEMBL411704

>  <Active>  (242) 
1

>  <Smiles>  (242) 
COc1ccnc2c1c(-c1ccnc(N)n1)c1ccnc(N)n12

>  <canonical_smi>  (242) 
COc1ccnc2c1c(-c1ccnc(N)n1)c1ccnc(N)n12

>  <Set>  (242) 
G2 active

>  <Set_type>  (242) 
Train

>  <MW>  (242) 
307.32

>  <HBD>  (242) 
2

>  <HBA>  (242) 
7

>  <NRB>  (242) 
2

>  <NR>  (242) 
4

>  <NAR>  (242) 
4

>  <PSA>  (242) 
117.24

>  <Standard Type>  (242) 
nan

>  <Standard Relation>  (242) 
nan

>  <Standard Units>  (242) 
nan

>  <Standard Value>  (242) 
nan

>  <Assay ChEMBL ID>  (242) 
nan

>  <Assay Description>  (242) 
nan

>  <BAO Label>  (242) 
nan

$$$$

     RDKit          2D

 28 31  0  0  0  0  0  0  0  0999 V2000
    5.2500   -1.2990    0.0000 C   0  0  0  0  0  0  0  0  0  0  0  0
    3.7500   -1.2990    0.0000 N   0  0  0  0  0  0  0  0  0  0  0  0
    3.0000    0.0000    0.0000 C   0  0  0  0  0  0  0  0  0  0  0  0
    3.7500    1.2990    0.0000 O   0  0  0  0  0  0  0  0  0  0  0  0
    1.5000    0.0000    0.0000 C   0  0  0  0  0  0  0  0  0  0  0  0
    0.7500   -1.2990    0.0000 C   0  0  0  0  0  0  0  0  0  0  0  0
   -0.7500   -1.2990    0.0000 C   0  0  0  0  0  0  0  0  0  0  0  0
   -1.5000    0.0000    0.0000 C   0  0  0  0  0  0  0  0  0  0  0  0
   -3.0000    0.0000    0.0000 N   0  0  0  0  0  0  0  0  0  0  0  0
   -3.7500    1.2990    0.0000 C   0  0  0  0  0  0  0  0  0  0  0  0
   -3.0000    2.5981    0.0000 N   0  0  0  0  0  0  0  0  0  0  0  0
   -3.7500    3.8971    0.0000 C   0  0  0  0  0  0  0  0  0  0  0  0
   -5.2500    3.8971    0.0000 C   0  0  0  0  0  0  0  0  0  0  0  0
   -6.0000    2.5981    0.0000 C   0  0  0  0  0  0  0  0  0  0  0  0
   -7.5000    2.5981    0.0000 C   0  0  0  0  0  0  0  0  0  0  0  0
   -8.3817    1.3846    0.0000 C   0  0  0  0  0  0  0  0  0  0  0  0
   -9.8083    1.8481    0.0000 N   0  0  0  0  0  0  0  0  0  0  0  0
   -9.8083    3.3481    0.0000 C   0  0  0  0  0  0  0  0  0  0  0  0
  -11.0218    4.2298    0.0000 C   0  0  0  0  0  0  0  0  0  0  0  0
  -12.5136    4.3865    0.0000 C   0  0  0  0  0  0  0  0  0  0  0  0
  -11.6319    5.6001    0.0000 C   0  0  0  0  0  0  0  0  0  0  0  0
   -8.3817    3.8116    0.0000 N   0  0  0  0  0  0  0  0  0  0  0  0
   -7.9182    5.2382    0.0000 C   0  0  0  0  0  0  0  0  0  0  0  0
   -6.4509    5.5501    0.0000 C   0  0  0  0  0  0  0  0  0  0  0  0
   -8.9218    6.3529    0.0000 C   0  0  0  0  0  0  0  0  0  0  0  0
   -5.2500    1.2990    0.0000 N   0  0  0  0  0  0  0  0  0  0  0  0
   -0.7500    1.2990    0.0000 C   0  0  0  0  0  0  0  0  0  0  0  0
    0.7500    1.2990    0.0000 C   0  0  0  0  0  0  0  0  0  0  0  0
  1  2  1  0
  2  3  1  0
  3  4  2  0
  3  5  1  0
  5  6  2  0
  6  7  1  0
  7  8  2  0
  8  9  1  0
  9 10  1  0
 10 11  2  0
 11 12  1  0
 12 13  2  0
 13 14  1  0
 14 15  1  0
 15 16  2  0
 16 17  1  0
 17 18  2  0
 18 19  1  0
 19 20  1  0
 20 21  1  0
 18 22  1  0
 22 23  1  0
 23 24  1  0
 23 25  1  0
 14 26  2  0
  8 27  1  0
 27 28  2  0
 28  5  1  0
 26 10  1  0
 22 15  1  0
 21 19  1  0
M  END
>  <Compound_ID>  (243) 
CHEMBL507142

>  <Active>  (243) 
1

>  <Smiles>  (243) 
CNC(=O)c1ccc(Nc2nccc(-c3cnc(C4CC4)n3C(C)C)n2)cc1

>  <canonical_smi>  (243) 
CNC(=O)c1ccc(Nc2nccc(-c3cnc(C4CC4)n3C(C)C)n2)cc1

>  <Set>  (243) 
G2 active

>  <Set_type>  (243) 
Train

>  <MW>  (243) 
376.46

>  <HBD>  (243) 
2

>  <HBA>  (243) 
5

>  <NRB>  (243) 
6

>  <NR>  (243) 
4

>  <NAR>  (243) 
3

>  <PSA>  (243) 
84.73

>  <Standard Type>  (243) 
nan

>  <Standard Relation>  (243) 
nan

>  <Standard Units>  (243) 
nan

>  <Standard Value>  (243) 
nan

>  <Assay ChEMBL ID>  (243) 
nan

>  <Assay Description>  (243) 
nan

>  <BAO Label>  (243) 
nan

$$$$

     RDKit          2D

 31 34  0  0  0  0  0  0  0  0999 V2000
    9.0000   -2.5981    0.0000 C   0  0  0  0  0  0  0  0  0  0  0  0
    7.5000   -2.5981    0.0000 O   0  0  0  0  0  0  0  0  0  0  0  0
    6.7500   -1.2990    0.0000 C   0  0  0  0  0  0  0  0  0  0  0  0
    5.2500   -1.2990    0.0000 C   0  0  0  0  0  0  0  0  0  0  0  0
    4.5000    0.0000    0.0000 N   0  0  0  0  0  0  0  0  0  0  0  0
    5.2500    1.2990    0.0000 C   0  0  0  0  0  0  0  0  0  0  0  0
    3.0000    0.0000    0.0000 S   0  0  0  0  0  0  0  0  0  0  0  0
    3.0000   -1.5000    0.0000 O   0  0  0  0  0  0  0  0  0  0  0  0
    3.0000    1.5000    0.0000 O   0  0  0  0  0  0  0  0  0  0  0  0
    1.5000    0.0000    0.0000 C   0  0  0  0  0  0  0  0  0  0  0  0
    0.7500   -1.2990    0.0000 C   0  0  0  0  0  0  0  0  0  0  0  0
   -0.7500   -1.2990    0.0000 C   0  0  0  0  0  0  0  0  0  0  0  0
   -1.5000    0.0000    0.0000 C   0  0  0  0  0  0  0  0  0  0  0  0
   -3.0000    0.0000    0.0000 N   0  0  0  0  0  0  0  0  0  0  0  0
   -3.7500    1.2990    0.0000 C   0  0  0  0  0  0  0  0  0  0  0  0
   -3.0000    2.5981    0.0000 N   0  0  0  0  0  0  0  0  0  0  0  0
   -3.7500    3.8971    0.0000 C   0  0  0  0  0  0  0  0  0  0  0  0
   -5.2500    3.8971    0.0000 C   0  0  0  0  0  0  0  0  0  0  0  0
   -6.0000    2.5981    0.0000 C   0  0  0  0  0  0  0  0  0  0  0  0
   -7.5000    2.5981    0.0000 C   0  0  0  0  0  0  0  0  0  0  0  0
   -8.3817    1.3846    0.0000 C   0  0  0  0  0  0  0  0  0  0  0  0
   -9.8083    1.8481    0.0000 N   0  0  0  0  0  0  0  0  0  0  0  0
   -9.8083    3.3481    0.0000 C   0  0  0  0  0  0  0  0  0  0  0  0
  -11.0218    4.2298    0.0000 C   0  0  0  0  0  0  0  0  0  0  0  0
   -8.3817    3.8116    0.0000 N   0  0  0  0  0  0  0  0  0  0  0  0
   -7.9182    5.2382    0.0000 C   0  0  0  0  0  0  0  0  0  0  0  0
   -8.2300    6.7054    0.0000 C   0  0  0  0  0  0  0  0  0  0  0  0
   -6.8034    6.2419    0.0000 C   0  0  0  0  0  0  0  0  0  0  0  0
   -5.2500    1.2990    0.0000 N   0  0  0  0  0  0  0  0  0  0  0  0
   -0.7500    1.2990    0.0000 C   0  0  0  0  0  0  0  0  0  0  0  0
    0.7500    1.2990    0.0000 C   0  0  0  0  0  0  0  0  0  0  0  0
  1  2  1  0
  2  3  1  0
  3  4  1  0
  4  5  1  0
  5  6  1  0
  5  7  1  0
  7  8  2  0
  7  9  2  0
  7 10  1  0
 10 11  2  0
 11 12  1  0
 12 13  2  0
 13 14  1  0
 14 15  1  0
 15 16  2  0
 16 17  1  0
 17 18  2  0
 18 19  1  0
 19 20  1  0
 20 21  2  0
 21 22  1  0
 22 23  2  0
 23 24  1  0
 23 25  1  0
 25 26  1  0
 26 27  1  0
 27 28  1  0
 19 29  2  0
 13 30  1  0
 30 31  2  0
 31 10  1  0
 29 15  1  0
 25 20  1  0
 28 26  1  0
M  END
>  <Compound_ID>  (244) 
CHEMBL483590

>  <Active>  (244) 
1

>  <Smiles>  (244) 
COCCN(C)S(=O)(=O)c1ccc(Nc2nccc(-c3cnc(C)n3C3CC3)n2)cc1

>  <canonical_smi>  (244) 
COCCN(C)S(=O)(=O)c1ccc(Nc2nccc(-c3cnc(C)n3C3CC3)n2)cc1

>  <Set>  (244) 
G2 active

>  <Set_type>  (244) 
Train

>  <MW>  (244) 
442.55

>  <HBD>  (244) 
1

>  <HBA>  (244) 
7

>  <NRB>  (244) 
9

>  <NR>  (244) 
4

>  <NAR>  (244) 
3

>  <PSA>  (244) 
102.24

>  <Standard Type>  (244) 
nan

>  <Standard Relation>  (244) 
nan

>  <Standard Units>  (244) 
nan

>  <Standard Value>  (244) 
nan

>  <Assay ChEMBL ID>  (244) 
nan

>  <Assay Description>  (244) 
nan

>  <BAO Label>  (244) 
nan

$$$$

     RDKit          2D

 20 22  0  0  0  0  0  0  0  0999 V2000
   -0.1920   -7.6177    0.0000 C   0  0  0  0  0  0  0  0  0  0  0  0
    0.4182   -6.2474    0.0000 C   0  0  0  0  0  0  0  0  0  0  0  0
    1.9099   -6.0906    0.0000 C   0  0  0  0  0  0  0  0  0  0  0  0
   -0.4635   -5.0339    0.0000 C   0  0  0  0  0  0  0  0  0  0  0  0
   -1.9635   -5.0339    0.0000 N   0  0  0  0  0  0  0  0  0  0  0  0
   -2.4271   -3.6073    0.0000 N   0  0  0  0  0  0  0  0  0  0  0  0
   -1.2135   -2.7256    0.0000 C   0  0  0  0  0  0  0  0  0  0  0  0
   -0.0000   -3.6073    0.0000 C   0  0  0  0  0  0  0  0  0  0  0  0
    1.2135   -2.7256    0.0000 C   0  0  0  0  0  0  0  0  0  0  0  0
    2.6401   -3.1891    0.0000 O   0  0  0  0  0  0  0  0  0  0  0  0
    0.7500   -1.2990    0.0000 C   0  0  0  0  0  0  0  0  0  0  0  0
    1.5000    0.0000    0.0000 C   0  0  0  0  0  0  0  0  0  0  0  0
    3.0000    0.0000    0.0000 N   0  0  0  0  0  0  0  0  0  0  0  0
    3.7500    1.2990    0.0000 C   0  0  0  0  0  0  0  0  0  0  0  0
    5.2500    1.2990    0.0000 N   0  0  0  0  0  0  0  0  0  0  0  0
    3.0000    2.5981    0.0000 O   0  0  0  0  0  0  0  0  0  0  0  0
    0.7500    1.2990    0.0000 C   0  0  0  0  0  0  0  0  0  0  0  0
   -0.7500    1.2990    0.0000 C   0  0  0  0  0  0  0  0  0  0  0  0
   -1.5000    0.0000    0.0000 C   0  0  0  0  0  0  0  0  0  0  0  0
   -0.7500   -1.2990    0.0000 C   0  0  0  0  0  0  0  0  0  0  0  0
  1  2  1  0
  2  3  1  0
  2  4  1  0
  4  5  2  0
  5  6  1  0
  6  7  1  0
  7  8  2  0
  8  9  1  0
  9 10  2  0
  9 11  1  0
 11 12  2  0
 12 13  1  0
 13 14  1  0
 14 15  1  0
 14 16  2  0
 12 17  1  0
 17 18  2  0
 18 19  1  0
 19 20  2  0
  8  4  1  0
 20 11  1  0
 20  7  1  0
M  END
>  <Compound_ID>  (245) 
CHEMBL148977

>  <Active>  (245) 
1

>  <Smiles>  (245) 
CC(C)c1n[nH]c2c1C(=O)c1c(NC(N)=O)cccc1-2

>  <canonical_smi>  (245) 
CC(C)c1n[nH]c2c1C(=O)c1c(NC(N)=O)cccc1-2

>  <Set>  (245) 
G2 active

>  <Set_type>  (245) 
Train

>  <MW>  (245) 
270.29

>  <HBD>  (245) 
3

>  <HBA>  (245) 
3

>  <NRB>  (245) 
2

>  <NR>  (245) 
3

>  <NAR>  (245) 
3

>  <PSA>  (245) 
100.87

>  <Standard Type>  (245) 
nan

>  <Standard Relation>  (245) 
nan

>  <Standard Units>  (245) 
nan

>  <Standard Value>  (245) 
nan

>  <Assay ChEMBL ID>  (245) 
nan

>  <Assay Description>  (245) 
nan

>  <BAO Label>  (245) 
nan

$$$$

     RDKit          2D

 33 35  0  0  0  0  0  0  0  0999 V2000
    7.5000   -2.5981    0.0000 C   0  0  0  0  0  0  0  0  0  0  0  0
    6.0000   -2.5981    0.0000 C   0  0  0  0  0  0  0  0  0  0  0  0
    5.2500   -1.2990    0.0000 C   0  0  0  0  0  0  0  0  0  0  0  0
    3.7500   -1.2990    0.0000 C   0  0  0  0  0  0  0  0  0  0  0  0
    3.0000    0.0000    0.0000 O   0  0  0  0  0  0  0  0  0  0  0  0
    1.5000    0.0000    0.0000 C   0  0  0  0  0  0  0  0  0  0  0  0
    0.7500   -1.2990    0.0000 C   0  0  0  0  0  0  0  0  0  0  0  0
   -0.7500   -1.2990    0.0000 C   0  0  0  0  0  0  0  0  0  0  0  0
   -1.5000   -2.5981    0.0000 F   0  0  0  0  0  0  0  0  0  0  0  0
   -1.5000    0.0000    0.0000 C   0  0  0  0  0  0  0  0  0  0  0  0
   -3.0000    0.0000    0.0000 C   0  0  0  0  0  0  0  0  0  0  0  0
   -3.7500   -1.2990    0.0000 O   0  0  0  0  0  0  0  0  0  0  0  0
   -3.7500    1.2990    0.0000 C   0  0  0  0  0  0  0  0  0  0  0  0
   -3.0000    2.5981    0.0000 C   0  0  0  0  0  0  0  0  0  0  0  0
   -3.7500    3.8971    0.0000 C   0  0  0  0  0  0  0  0  0  0  0  0
   -5.2500    3.8971    0.0000 C   0  0  0  0  0  0  0  0  0  0  0  0
   -6.0000    5.1962    0.0000 N   0  0  0  0  0  0  0  0  0  0  0  0
   -5.2500    6.4952    0.0000 C   0  0  0  0  0  0  0  0  0  0  0  0
   -3.7500    6.4952    0.0000 C   0  0  0  0  0  0  0  0  0  0  0  0
   -3.0000    7.7942    0.0000 C   0  0  0  0  0  0  0  0  0  0  0  0
   -3.7500    9.0933    0.0000 C   0  0  0  0  0  0  0  0  0  0  0  0
   -3.0000   10.3923    0.0000 S   0  0  0  0  0  0  0  0  0  0  0  0
   -2.2500   11.6913    0.0000 N   0  0  0  0  0  0  0  0  0  0  0  0
   -1.7010    9.6423    0.0000 O   0  0  0  0  0  0  0  0  0  0  0  0
   -4.2990   11.1423    0.0000 O   0  0  0  0  0  0  0  0  0  0  0  0
   -5.2500    9.0933    0.0000 C   0  0  0  0  0  0  0  0  0  0  0  0
   -6.0000    7.7942    0.0000 C   0  0  0  0  0  0  0  0  0  0  0  0
   -6.0000    2.5981    0.0000 N   0  0  0  0  0  0  0  0  0  0  0  0
   -5.2500    1.2990    0.0000 C   0  0  0  0  0  0  0  0  0  0  0  0
   -6.0000    0.0000    0.0000 N   0  0  0  0  0  0  0  0  0  0  0  0
   -0.7500    1.2990    0.0000 C   0  0  0  0  0  0  0  0  0  0  0  0
   -1.5000    2.5981    0.0000 F   0  0  0  0  0  0  0  0  0  0  0  0
    0.7500    1.2990    0.0000 C   0  0  0  0  0  0  0  0  0  0  0  0
  1  2  1  0
  2  3  1  0
  3  4  1  0
  4  5  1  0
  5  6  1  0
  6  7  2  0
  7  8  1  0
  8  9  1  0
  8 10  2  0
 10 11  1  0
 11 12  2  0
 11 13  1  0
 13 14  2  0
 14 15  1  0
 15 16  2  0
 16 17  1  0
 17 18  1  0
 18 19  2  0
 19 20  1  0
 20 21  2  0
 21 22  1  0
 22 23  1  0
 22 24  2  0
 22 25  2  0
 21 26  1  0
 26 27  2  0
 16 28  1  0
 28 29  2  0
 29 30  1  0
 10 31  1  0
 31 32  1  0
 31 33  2  0
 33  6  1  0
 29 13  1  0
 27 18  1  0
M  END
>  <Compound_ID>  (246) 
CHEMBL196508

>  <Active>  (246) 
1

>  <Smiles>  (246) 
CCCCOc1cc(F)c(C(=O)c2ccc(Nc3ccc(S(N)(=O)=O)cc3)nc2N)c(F)c1

>  <canonical_smi>  (246) 
CCCCOc1cc(F)c(C(=O)c2ccc(Nc3ccc(S(N)(=O)=O)cc3)nc2N)c(F)c1

>  <Set>  (246) 
G2 active

>  <Set_type>  (246) 
Train

>  <MW>  (246) 
476.51

>  <HBD>  (246) 
3

>  <HBA>  (246) 
7

>  <NRB>  (246) 
9

>  <NR>  (246) 
3

>  <NAR>  (246) 
3

>  <PSA>  (246) 
137.4

>  <Standard Type>  (246) 
nan

>  <Standard Relation>  (246) 
nan

>  <Standard Units>  (246) 
nan

>  <Standard Value>  (246) 
nan

>  <Assay ChEMBL ID>  (246) 
nan

>  <Assay Description>  (246) 
nan

>  <BAO Label>  (246) 
nan

$$$$

     RDKit          2D

 22 25  0  0  0  0  0  0  0  0999 V2000
    5.2500   -1.2990    0.0000 N   0  0  0  0  0  0  0  0  0  0  0  0
    3.7500   -1.2990    0.0000 C   0  0  0  0  0  0  0  0  0  0  0  0
    3.0000   -2.5981    0.0000 O   0  0  0  0  0  0  0  0  0  0  0  0
    3.0000    0.0000    0.0000 N   0  0  0  0  0  0  0  0  0  0  0  0
    1.5000    0.0000    0.0000 C   0  0  0  0  0  0  0  0  0  0  0  0
    0.7500   -1.2990    0.0000 C   0  0  0  0  0  0  0  0  0  0  0  0
   -0.7500   -1.2990    0.0000 C   0  0  0  0  0  0  0  0  0  0  0  0
   -1.5000    0.0000    0.0000 C   0  0  0  0  0  0  0  0  0  0  0  0
   -0.7500    1.2990    0.0000 C   0  0  0  0  0  0  0  0  0  0  0  0
    0.7500    1.2990    0.0000 C   0  0  0  0  0  0  0  0  0  0  0  0
    1.2135    2.7256    0.0000 C   0  0  0  0  0  0  0  0  0  0  0  0
    2.6401    3.1891    0.0000 O   0  0  0  0  0  0  0  0  0  0  0  0
    0.0000    3.6073    0.0000 C   0  0  0  0  0  0  0  0  0  0  0  0
   -0.4635    5.0339    0.0000 C   0  0  0  0  0  0  0  0  0  0  0  0
    0.4182    6.2474    0.0000 C   0  0  0  0  0  0  0  0  0  0  0  0
   -0.0454    7.6740    0.0000 C   0  0  0  0  0  0  0  0  0  0  0  0
    1.1682    8.5557    0.0000 C   0  0  0  0  0  0  0  0  0  0  0  0
    2.3817    7.6740    0.0000 C   0  0  0  0  0  0  0  0  0  0  0  0
    1.9182    6.2474    0.0000 O   0  0  0  0  0  0  0  0  0  0  0  0
   -1.9635    5.0339    0.0000 N   0  0  0  0  0  0  0  0  0  0  0  0
   -2.4271    3.6073    0.0000 N   0  0  0  0  0  0  0  0  0  0  0  0
   -1.2135    2.7256    0.0000 C   0  0  0  0  0  0  0  0  0  0  0  0
  1  2  1  0
  2  3  2  0
  2  4  1  0
  4  5  1  0
  5  6  2  0
  6  7  1  0
  7  8  2  0
  8  9  1  0
  9 10  2  0
 10 11  1  0
 11 12  2  0
 11 13  1  0
 13 14  1  0
 14 15  1  0
 15 16  2  0
 16 17  1  0
 17 18  2  0
 18 19  1  0
 14 20  2  0
 20 21  1  0
 21 22  1  0
 10  5  1  0
 22 13  2  0
 22  9  1  0
 19 15  1  0
M  END
>  <Compound_ID>  (247) 
CHEMBL434700

>  <Active>  (247) 
1

>  <Smiles>  (247) 
NC(=O)Nc1cccc2c1C(=O)c1c(-c3ccco3)n[nH]c1-2

>  <canonical_smi>  (247) 
NC(=O)Nc1cccc2c1C(=O)c1c(-c3ccco3)n[nH]c1-2

>  <Set>  (247) 
G2 active

>  <Set_type>  (247) 
Train

>  <MW>  (247) 
294.27

>  <HBD>  (247) 
3

>  <HBA>  (247) 
4

>  <NRB>  (247) 
2

>  <NR>  (247) 
4

>  <NAR>  (247) 
4

>  <PSA>  (247) 
114.01

>  <Standard Type>  (247) 
nan

>  <Standard Relation>  (247) 
nan

>  <Standard Units>  (247) 
nan

>  <Standard Value>  (247) 
nan

>  <Assay ChEMBL ID>  (247) 
nan

>  <Assay Description>  (247) 
nan

>  <BAO Label>  (247) 
nan

$$$$

     RDKit          2D

 19 21  0  0  0  0  0  0  0  0999 V2000
    3.0000   -2.5981    0.0000 O   0  0  0  0  0  0  0  0  0  0  0  0
    1.5000   -2.5981    0.0000 C   0  0  0  0  0  0  0  0  0  0  0  0
    0.7500   -3.8971    0.0000 N   0  0  0  0  0  0  0  0  0  0  0  0
    1.5000   -5.1962    0.0000 C   0  0  0  0  0  0  0  0  0  0  0  0
    2.9918   -5.3529    0.0000 C   0  0  0  0  0  0  0  0  0  0  0  0
    3.3037   -6.8202    0.0000 C   0  0  0  0  0  0  0  0  0  0  0  0
    4.6740   -7.4303    0.0000 C   0  0  0  0  0  0  0  0  0  0  0  0
    5.2115   -8.8306    0.0000 C   0  0  0  0  0  0  0  0  0  0  0  0
    6.6119   -8.2931    0.0000 C   0  0  0  0  0  0  0  0  0  0  0  0
    6.0743   -6.8927    0.0000 C   0  0  0  0  0  0  0  0  0  0  0  0
    2.0046   -7.5702    0.0000 N   0  0  0  0  0  0  0  0  0  0  0  0
    0.8899   -6.5665    0.0000 N   0  0  0  0  0  0  0  0  0  0  0  0
    0.7500   -1.2990    0.0000 C   0  0  0  0  0  0  0  0  0  0  0  0
    1.5000    0.0000    0.0000 C   0  0  0  0  0  0  0  0  0  0  0  0
    0.7500    1.2990    0.0000 C   0  0  0  0  0  0  0  0  0  0  0  0
   -0.7500    1.2990    0.0000 C   0  0  0  0  0  0  0  0  0  0  0  0
   -1.5000    2.5981    0.0000 Br  0  0  0  0  0  0  0  0  0  0  0  0
   -1.5000    0.0000    0.0000 C   0  0  0  0  0  0  0  0  0  0  0  0
   -0.7500   -1.2990    0.0000 C   0  0  0  0  0  0  0  0  0  0  0  0
  1  2  2  0
  2  3  1  0
  3  4  1  0
  4  5  1  0
  5  6  2  0
  6  7  1  0
  7  8  1  0
  8  9  1  0
  9 10  1  0
  6 11  1  0
 11 12  1  0
  2 13  1  0
 13 14  2  0
 14 15  1  0
 15 16  2  0
 16 17  1  0
 16 18  1  0
 18 19  2  0
 12  4  2  0
 19 13  1  0
 10  7  1  0
M  END
>  <Compound_ID>  (248) 
CHEMBL112136

>  <Active>  (248) 
1

>  <Smiles>  (248) 
O=C(Nc1cc(C2CCC2)[nH]n1)c1ccc(Br)cc1

>  <canonical_smi>  (248) 
O=C(Nc1cc(C2CCC2)[nH]n1)c1ccc(Br)cc1

>  <Set>  (248) 
G2 active

>  <Set_type>  (248) 
Train

>  <MW>  (248) 
320.19

>  <HBD>  (248) 
2

>  <HBA>  (248) 
2

>  <NRB>  (248) 
3

>  <NR>  (248) 
3

>  <NAR>  (248) 
2

>  <PSA>  (248) 
57.78

>  <Standard Type>  (248) 
nan

>  <Standard Relation>  (248) 
nan

>  <Standard Units>  (248) 
nan

>  <Standard Value>  (248) 
nan

>  <Assay ChEMBL ID>  (248) 
nan

>  <Assay Description>  (248) 
nan

>  <BAO Label>  (248) 
nan

$$$$

     RDKit          2D

 24 26  0  0  0  0  0  0  0  0999 V2000
   -0.7500   -3.8971    0.0000 O   0  0  0  0  0  0  0  0  0  0  0  0
    0.7500   -3.8971    0.0000 C   0  0  0  0  0  0  0  0  0  0  0  0
    1.5000   -2.5981    0.0000 N   0  0  0  0  0  0  0  0  0  0  0  0
    0.7500   -1.2990    0.0000 C   0  0  0  0  0  0  0  0  0  0  0  0
    1.5000    0.0000    0.0000 C   0  0  0  0  0  0  0  0  0  0  0  0
    0.7500    1.2990    0.0000 C   0  0  0  0  0  0  0  0  0  0  0  0
   -0.7500    1.2990    0.0000 C   0  0  0  0  0  0  0  0  0  0  0  0
   -1.5000    2.5981    0.0000 F   0  0  0  0  0  0  0  0  0  0  0  0
   -1.5000    0.0000    0.0000 C   0  0  0  0  0  0  0  0  0  0  0  0
   -0.7500   -1.2990    0.0000 C   0  0  0  0  0  0  0  0  0  0  0  0
    1.5000   -5.1962    0.0000 C   0  0  0  0  0  0  0  0  0  0  0  0
    2.9918   -5.3529    0.0000 N   0  0  0  0  0  0  0  0  0  0  0  0
    3.3037   -6.8202    0.0000 N   0  0  0  0  0  0  0  0  0  0  0  0
    2.0046   -7.5702    0.0000 C   0  0  0  0  0  0  0  0  0  0  0  0
    0.8899   -6.5665    0.0000 C   0  0  0  0  0  0  0  0  0  0  0  0
   -0.5773   -6.8783    0.0000 N   0  0  0  0  0  0  0  0  0  0  0  0
   -1.0409   -8.3049    0.0000 C   0  0  0  0  0  0  0  0  0  0  0  0
   -0.0372   -9.4196    0.0000 O   0  0  0  0  0  0  0  0  0  0  0  0
   -2.5081   -8.6168    0.0000 C   0  0  0  0  0  0  0  0  0  0  0  0
   -3.5118   -7.5021    0.0000 C   0  0  0  0  0  0  0  0  0  0  0  0
   -4.9790   -7.8139    0.0000 C   0  0  0  0  0  0  0  0  0  0  0  0
   -5.4425   -9.2405    0.0000 C   0  0  0  0  0  0  0  0  0  0  0  0
   -4.4388  -10.3552    0.0000 C   0  0  0  0  0  0  0  0  0  0  0  0
   -2.9716  -10.0434    0.0000 C   0  0  0  0  0  0  0  0  0  0  0  0
  1  2  2  0
  2  3  1  0
  3  4  1  0
  4  5  2  0
  5  6  1  0
  6  7  2  0
  7  8  1  0
  7  9  1  0
  9 10  2  0
  2 11  1  0
 11 12  2  0
 12 13  1  0
 13 14  1  0
 14 15  2  0
 15 16  1  0
 16 17  1  0
 17 18  2  0
 17 19  1  0
 19 20  1  0
 20 21  1  0
 21 22  1  0
 22 23  1  0
 23 24  1  0
 10  4  1  0
 15 11  1  0
 24 19  1  0
M  END
>  <Compound_ID>  (249) 
CHEMBL463579

>  <Active>  (249) 
1

>  <Smiles>  (249) 
O=C(Nc1ccc(F)cc1)c1n[nH]cc1NC(=O)C1CCCCC1

>  <canonical_smi>  (249) 
O=C(Nc1ccc(F)cc1)c1n[nH]cc1NC(=O)C1CCCCC1

>  <Set>  (249) 
G2 active

>  <Set_type>  (249) 
Train

>  <MW>  (249) 
330.36

>  <HBD>  (249) 
3

>  <HBA>  (249) 
3

>  <NRB>  (249) 
4

>  <NR>  (249) 
3

>  <NAR>  (249) 
2

>  <PSA>  (249) 
86.88

>  <Standard Type>  (249) 
nan

>  <Standard Relation>  (249) 
nan

>  <Standard Units>  (249) 
nan

>  <Standard Value>  (249) 
nan

>  <Assay ChEMBL ID>  (249) 
nan

>  <Assay Description>  (249) 
nan

>  <BAO Label>  (249) 
nan

$$$$

     RDKit          2D

 30 33  0  0  0  0  0  0  0  0999 V2000
   -7.4146   -8.6505    0.0000 N   0  0  0  0  0  0  0  0  0  0  0  0
   -7.2578   -7.1587    0.0000 C   0  0  0  0  0  0  0  0  0  0  0  0
   -5.8875   -6.5486    0.0000 C   0  0  0  0  0  0  0  0  0  0  0  0
   -4.6740   -7.4303    0.0000 N   0  0  0  0  0  0  0  0  0  0  0  0
   -3.3037   -6.8202    0.0000 C   0  0  0  0  0  0  0  0  0  0  0  0
   -2.9918   -5.3529    0.0000 C   0  0  0  0  0  0  0  0  0  0  0  0
   -1.5000   -5.1962    0.0000 C   0  0  0  0  0  0  0  0  0  0  0  0
   -0.7500   -3.8971    0.0000 C   0  0  0  0  0  0  0  0  0  0  0  0
    0.7500   -3.8971    0.0000 C   0  0  0  0  0  0  0  0  0  0  0  0
    1.5000   -2.5981    0.0000 C   0  0  0  0  0  0  0  0  0  0  0  0
    0.7500   -1.2990    0.0000 C   0  0  0  0  0  0  0  0  0  0  0  0
    1.5000    0.0000    0.0000 C   0  0  0  0  0  0  0  0  0  0  0  0
    0.7500    1.2990    0.0000 N   0  0  0  0  0  0  0  0  0  0  0  0
   -0.7500    1.2990    0.0000 C   0  0  0  0  0  0  0  0  0  0  0  0
   -1.5000    0.0000    0.0000 C   0  0  0  0  0  0  0  0  0  0  0  0
   -0.7500   -1.2990    0.0000 C   0  0  0  0  0  0  0  0  0  0  0  0
   -1.5000   -2.5981    0.0000 C   0  0  0  0  0  0  0  0  0  0  0  0
   -0.8899   -6.5665    0.0000 N   0  0  0  0  0  0  0  0  0  0  0  0
   -2.0046   -7.5702    0.0000 O   0  0  0  0  0  0  0  0  0  0  0  0
   -8.4713   -6.2770    0.0000 C   0  0  0  0  0  0  0  0  0  0  0  0
   -9.8417   -6.8871    0.0000 C   0  0  0  0  0  0  0  0  0  0  0  0
  -11.0552   -6.0054    0.0000 C   0  0  0  0  0  0  0  0  0  0  0  0
  -12.4255   -6.6156    0.0000 C   0  0  0  0  0  0  0  0  0  0  0  0
  -12.5823   -8.1073    0.0000 C   0  0  0  0  0  0  0  0  0  0  0  0
  -13.9526   -8.7174    0.0000 C   0  0  0  0  0  0  0  0  0  0  0  0
  -15.3229   -9.3275    0.0000 F   0  0  0  0  0  0  0  0  0  0  0  0
  -14.5627   -7.3471    0.0000 F   0  0  0  0  0  0  0  0  0  0  0  0
  -13.3425  -10.0878    0.0000 F   0  0  0  0  0  0  0  0  0  0  0  0
  -11.3688   -8.9890    0.0000 C   0  0  0  0  0  0  0  0  0  0  0  0
   -9.9984   -8.3789    0.0000 C   0  0  0  0  0  0  0  0  0  0  0  0
  2  1  1  1
  2  3  1  0
  3  4  1  0
  4  5  1  0
  5  6  2  0
  6  7  1  0
  7  8  1  0
  8  9  2  0
  9 10  1  0
 10 11  2  0
 11 12  1  0
 12 13  2  0
 13 14  1  0
 14 15  2  0
 15 16  1  0
 16 17  2  0
  7 18  2  0
 18 19  1  0
  2 20  1  0
 20 21  1  0
 21 22  2  0
 22 23  1  0
 23 24  2  0
 24 25  1  0
 25 26  1  0
 25 27  1  0
 25 28  1  0
 24 29  1  0
 29 30  2  0
 19  5  1  0
 30 21  1  0
 17  8  1  0
 16 11  1  0
M  END
>  <Compound_ID>  (250) 
CHEMBL1081104

>  <Active>  (250) 
1

>  <Smiles>  (250) 
N[C@H](CNc1cc(-c2ccc3cnccc3c2)no1)Cc1ccc(C(F)(F)F)cc1

>  <canonical_smi>  (250) 
N[C@H](CNc1cc(-c2ccc3cnccc3c2)no1)Cc1ccc(C(F)(F)F)cc1

>  <Set>  (250) 
G2 active

>  <Set_type>  (250) 
Train

>  <MW>  (250) 
412.42

>  <HBD>  (250) 
2

>  <HBA>  (250) 
5

>  <NRB>  (250) 
6

>  <NR>  (250) 
4

>  <NAR>  (250) 
4

>  <PSA>  (250) 
76.97

>  <Standard Type>  (250) 
nan

>  <Standard Relation>  (250) 
nan

>  <Standard Units>  (250) 
nan

>  <Standard Value>  (250) 
nan

>  <Assay ChEMBL ID>  (250) 
nan

>  <Assay Description>  (250) 
nan

>  <BAO Label>  (250) 
nan

$$$$

     RDKit          2D

 32 36  0  0  0  0  0  0  0  0999 V2000
   -8.5234   -7.7536    0.0000 C   0  0  0  0  0  0  0  0  0  0  0  0
   -7.0317   -7.5968    0.0000 O   0  0  0  0  0  0  0  0  0  0  0  0
   -6.4216   -6.2265    0.0000 C   0  0  0  0  0  0  0  0  0  0  0  0
   -7.3032   -5.0129    0.0000 C   0  0  0  0  0  0  0  0  0  0  0  0
   -6.6931   -3.6426    0.0000 C   0  0  0  0  0  0  0  0  0  0  0  0
   -5.2013   -3.4858    0.0000 C   0  0  0  0  0  0  0  0  0  0  0  0
   -4.5912   -2.1155    0.0000 C   0  0  0  0  0  0  0  0  0  0  0  0
   -5.3412   -0.8165    0.0000 N   0  0  0  0  0  0  0  0  0  0  0  0
   -4.3375    0.2982    0.0000 N   0  0  0  0  0  0  0  0  0  0  0  0
   -2.9672   -0.3119    0.0000 C   0  0  0  0  0  0  0  0  0  0  0  0
   -3.1240   -1.8037    0.0000 C   0  0  0  0  0  0  0  0  0  0  0  0
   -1.7537   -2.4138    0.0000 C   0  0  0  0  0  0  0  0  0  0  0  0
   -1.4418   -3.8810    0.0000 O   0  0  0  0  0  0  0  0  0  0  0  0
   -0.7500   -1.2990    0.0000 C   0  0  0  0  0  0  0  0  0  0  0  0
    0.7500   -1.2990    0.0000 C   0  0  0  0  0  0  0  0  0  0  0  0
    1.5000   -2.5981    0.0000 N   0  0  0  0  0  0  0  0  0  0  0  0
    3.0000   -2.5981    0.0000 C   0  0  0  0  0  0  0  0  0  0  0  0
    3.7500   -1.2990    0.0000 O   0  0  0  0  0  0  0  0  0  0  0  0
    3.7500   -3.8971    0.0000 N   0  0  0  0  0  0  0  0  0  0  0  0
    5.2500   -3.8971    0.0000 C   0  0  0  0  0  0  0  0  0  0  0  0
    6.0000   -5.1962    0.0000 C   0  0  0  0  0  0  0  0  0  0  0  0
    5.2500   -6.4952    0.0000 C   0  0  0  0  0  0  0  0  0  0  0  0
    6.0000   -7.7942    0.0000 C   0  0  0  0  0  0  0  0  0  0  0  0
    7.5000   -7.7942    0.0000 C   0  0  0  0  0  0  0  0  0  0  0  0
    8.2500   -6.4952    0.0000 C   0  0  0  0  0  0  0  0  0  0  0  0
    7.5000   -5.1962    0.0000 C   0  0  0  0  0  0  0  0  0  0  0  0
    1.5000    0.0000    0.0000 C   0  0  0  0  0  0  0  0  0  0  0  0
    0.7500    1.2990    0.0000 C   0  0  0  0  0  0  0  0  0  0  0  0
   -0.7500    1.2990    0.0000 C   0  0  0  0  0  0  0  0  0  0  0  0
   -1.5000    0.0000    0.0000 C   0  0  0  0  0  0  0  0  0  0  0  0
   -4.3197   -4.6994    0.0000 C   0  0  0  0  0  0  0  0  0  0  0  0
   -4.9298   -6.0697    0.0000 C   0  0  0  0  0  0  0  0  0  0  0  0
  1  2  1  0
  2  3  1  0
  3  4  2  0
  4  5  1  0
  5  6  2  0
  6  7  1  0
  7  8  1  0
  8  9  1  0
  9 10  2  0
 10 11  1  0
 11 12  1  0
 12 13  2  0
 12 14  1  0
 14 15  2  0
 15 16  1  0
 16 17  1  0
 17 18  2  0
 17 19  1  0
 19 20  1  0
 20 21  1  0
 21 22  2  0
 22 23  1  0
 23 24  2  0
 24 25  1  0
 25 26  2  0
 15 27  1  0
 27 28  2  0
 28 29  1  0
 29 30  2  0
  6 31  1  0
 31 32  2  0
 32  3  1  0
 11  7  2  0
 30 14  1  0
 30 10  1  0
 26 21  1  0
M  END
>  <Compound_ID>  (251) 
CHEMBL358281

>  <Active>  (251) 
1

>  <Smiles>  (251) 
COc1ccc(-c2[nH]nc3c2C(=O)c2c(NC(=O)NCc4ccccc4)cccc2-3)cc1

>  <canonical_smi>  (251) 
COc1ccc(-c2[nH]nc3c2C(=O)c2c(NC(=O)NCc4ccccc4)cccc2-3)cc1

>  <Set>  (251) 
G2 active

>  <Set_type>  (251) 
Train

>  <MW>  (251) 
424.46

>  <HBD>  (251) 
3

>  <HBA>  (251) 
4

>  <NRB>  (251) 
5

>  <NR>  (251) 
5

>  <NAR>  (251) 
5

>  <PSA>  (251) 
96.11

>  <Standard Type>  (251) 
nan

>  <Standard Relation>  (251) 
nan

>  <Standard Units>  (251) 
nan

>  <Standard Value>  (251) 
nan

>  <Assay ChEMBL ID>  (251) 
nan

>  <Assay Description>  (251) 
nan

>  <BAO Label>  (251) 
nan

$$$$

     RDKit          2D

 26 29  0  0  0  0  0  0  0  0999 V2000
   -0.7500   -3.8971    0.0000 O   0  0  0  0  0  0  0  0  0  0  0  0
    0.7500   -3.8971    0.0000 C   0  0  0  0  0  0  0  0  0  0  0  0
    1.5000   -2.5981    0.0000 C   0  0  0  0  0  0  0  0  0  0  0  0
    0.7500   -1.2990    0.0000 C   0  0  0  0  0  0  0  0  0  0  0  0
    1.5000    0.0000    0.0000 C   0  0  0  0  0  0  0  0  0  0  0  0
    0.7500    1.2990    0.0000 C   0  0  0  0  0  0  0  0  0  0  0  0
   -0.7500    1.2990    0.0000 C   0  0  0  0  0  0  0  0  0  0  0  0
   -1.5000    2.5981    0.0000 O   0  0  0  0  0  0  0  0  0  0  0  0
   -0.7500    3.8971    0.0000 C   0  0  0  0  0  0  0  0  0  0  0  0
   -1.5000    5.1962    0.0000 C   0  0  0  0  0  0  0  0  0  0  0  0
   -0.7500    6.4952    0.0000 N   0  0  0  0  0  0  0  0  0  0  0  0
   -1.3601    7.8655    0.0000 C   0  0  0  0  0  0  0  0  0  0  0  0
   -0.2454    8.8692    0.0000 C   0  0  0  0  0  0  0  0  0  0  0  0
    1.0537    8.1192    0.0000 C   0  0  0  0  0  0  0  0  0  0  0  0
    0.7418    6.6520    0.0000 C   0  0  0  0  0  0  0  0  0  0  0  0
   -1.5000    0.0000    0.0000 C   0  0  0  0  0  0  0  0  0  0  0  0
   -0.7500   -1.2990    0.0000 C   0  0  0  0  0  0  0  0  0  0  0  0
    1.5000   -5.1962    0.0000 N   0  0  0  0  0  0  0  0  0  0  0  0
    0.7500   -6.4952    0.0000 C   0  0  0  0  0  0  0  0  0  0  0  0
    1.3601   -7.8655    0.0000 C   0  0  0  0  0  0  0  0  0  0  0  0
    0.2454   -8.8692    0.0000 C   0  0  0  0  0  0  0  0  0  0  0  0
    0.4022  -10.3610    0.0000 C   0  0  0  0  0  0  0  0  0  0  0  0
    1.2839  -11.5745    0.0000 C   0  0  0  0  0  0  0  0  0  0  0  0
   -0.2079  -11.7313    0.0000 C   0  0  0  0  0  0  0  0  0  0  0  0
   -1.0537   -8.1192    0.0000 N   0  0  0  0  0  0  0  0  0  0  0  0
   -0.7418   -6.6520    0.0000 N   0  0  0  0  0  0  0  0  0  0  0  0
  1  2  2  0
  2  3  1  0
  3  4  1  0
  4  5  2  0
  5  6  1  0
  6  7  2  0
  7  8  1  0
  8  9  1  0
  9 10  1  0
 10 11  1  0
 11 12  1  0
 12 13  1  0
 13 14  1  0
 14 15  1  0
  7 16  1  0
 16 17  2  0
  2 18  1  0
 18 19  1  0
 19 20  1  0
 20 21  2  0
 21 22  1  0
 22 23  1  0
 23 24  1  0
 21 25  1  0
 25 26  1  0
 17  4  1  0
 26 19  2  0
 15 11  1  0
 24 22  1  0
M  END
>  <Compound_ID>  (252) 
CHEMBL323821

>  <Active>  (252) 
1

>  <Smiles>  (252) 
O=C(Cc1ccc(OCCN2CCCC2)cc1)Nc1cc(C2CC2)[nH]n1

>  <canonical_smi>  (252) 
O=C(Cc1ccc(OCCN2CCCC2)cc1)Nc1cc(C2CC2)[nH]n1

>  <Set>  (252) 
G2 active

>  <Set_type>  (252) 
Train

>  <MW>  (252) 
354.45

>  <HBD>  (252) 
2

>  <HBA>  (252) 
4

>  <NRB>  (252) 
8

>  <NR>  (252) 
4

>  <NAR>  (252) 
2

>  <PSA>  (252) 
70.25

>  <Standard Type>  (252) 
nan

>  <Standard Relation>  (252) 
nan

>  <Standard Units>  (252) 
nan

>  <Standard Value>  (252) 
nan

>  <Assay ChEMBL ID>  (252) 
nan

>  <Assay Description>  (252) 
nan

>  <BAO Label>  (252) 
nan

$$$$

     RDKit          2D

 24 26  0  0  0  0  0  0  0  0999 V2000
    3.7500   -1.2990    0.0000 C   0  0  0  0  0  0  0  0  0  0  0  0
    3.0000    0.0000    0.0000 O   0  0  0  0  0  0  0  0  0  0  0  0
    1.5000    0.0000    0.0000 C   0  0  0  0  0  0  0  0  0  0  0  0
    0.7500   -1.2990    0.0000 C   0  0  0  0  0  0  0  0  0  0  0  0
   -0.7500   -1.2990    0.0000 C   0  0  0  0  0  0  0  0  0  0  0  0
   -1.5000    0.0000    0.0000 C   0  0  0  0  0  0  0  0  0  0  0  0
   -3.0000    0.0000    0.0000 C   0  0  0  0  0  0  0  0  0  0  0  0
   -3.8817   -1.2135    0.0000 N   0  0  0  0  0  0  0  0  0  0  0  0
   -5.3083   -0.7500    0.0000 N   0  0  0  0  0  0  0  0  0  0  0  0
   -5.3083    0.7500    0.0000 C   0  0  0  0  0  0  0  0  0  0  0  0
   -6.5218    1.6317    0.0000 O   0  0  0  0  0  0  0  0  0  0  0  0
   -3.8817    1.2135    0.0000 C   0  0  0  0  0  0  0  0  0  0  0  0
   -3.4182    2.6401    0.0000 N   0  0  0  0  0  0  0  0  0  0  0  0
   -4.4218    3.7548    0.0000 N   0  0  0  0  0  0  0  0  0  0  0  0
   -3.9583    5.1814    0.0000 C   0  0  0  0  0  0  0  0  0  0  0  0
   -2.4911    5.4933    0.0000 C   0  0  0  0  0  0  0  0  0  0  0  0
   -2.0276    6.9199    0.0000 C   0  0  0  0  0  0  0  0  0  0  0  0
   -3.0313    8.0346    0.0000 C   0  0  0  0  0  0  0  0  0  0  0  0
   -4.4985    7.7227    0.0000 C   0  0  0  0  0  0  0  0  0  0  0  0
   -5.5022    8.8374    0.0000 O   0  0  0  0  0  0  0  0  0  0  0  0
   -5.0387   10.2640    0.0000 C   0  0  0  0  0  0  0  0  0  0  0  0
   -4.9620    6.2961    0.0000 C   0  0  0  0  0  0  0  0  0  0  0  0
   -0.7500    1.2990    0.0000 C   0  0  0  0  0  0  0  0  0  0  0  0
    0.7500    1.2990    0.0000 C   0  0  0  0  0  0  0  0  0  0  0  0
  1  2  1  0
  2  3  1  0
  3  4  2  0
  4  5  1  0
  5  6  2  0
  6  7  1  0
  7  8  2  0
  8  9  1  0
  9 10  1  0
 10 11  2  0
 10 12  1  0
 12 13  2  0
 13 14  1  0
 14 15  1  0
 15 16  2  0
 16 17  1  0
 17 18  2  0
 18 19  1  0
 19 20  1  0
 20 21  1  0
 19 22  2  0
  6 23  1  0
 23 24  2  0
 24  3  1  0
 12  7  1  0
 22 15  1  0
M  END
>  <Compound_ID>  (253) 
CHEMBL1080902

>  <Active>  (253) 
1

>  <Smiles>  (253) 
COc1ccc(C2=NNC(=O)/C2=N\Nc2cccc(OC)c2)cc1

>  <canonical_smi>  (253) 
COc1ccc(C2=NNC(=O)/C2=N\Nc2cccc(OC)c2)cc1

>  <Set>  (253) 
G2 active

>  <Set_type>  (253) 
Train

>  <MW>  (253) 
324.34

>  <HBD>  (253) 
2

>  <HBA>  (253) 
4

>  <NRB>  (253) 
5

>  <NR>  (253) 
3

>  <NAR>  (253) 
2

>  <PSA>  (253) 
84.31

>  <Standard Type>  (253) 
nan

>  <Standard Relation>  (253) 
nan

>  <Standard Units>  (253) 
nan

>  <Standard Value>  (253) 
nan

>  <Assay ChEMBL ID>  (253) 
nan

>  <Assay Description>  (253) 
nan

>  <BAO Label>  (253) 
nan

$$$$

     RDKit          2D

 23 26  0  0  0  0  0  0  0  0999 V2000
   -3.0000   -5.1962    0.0000 O   0  0  0  0  0  0  0  0  0  0  0  0
   -3.7500   -3.8971    0.0000 C   0  0  0  0  0  0  0  0  0  0  0  0
   -5.2500   -3.8971    0.0000 N   0  0  0  0  0  0  0  0  0  0  0  0
   -6.0000   -5.1962    0.0000 C   0  0  0  0  0  0  0  0  0  0  0  0
   -5.3899   -6.5665    0.0000 N   0  0  0  0  0  0  0  0  0  0  0  0
   -6.5046   -7.5702    0.0000 C   0  0  0  0  0  0  0  0  0  0  0  0
   -7.8037   -6.8202    0.0000 C   0  0  0  0  0  0  0  0  0  0  0  0
   -9.1740   -7.4303    0.0000 C   0  0  0  0  0  0  0  0  0  0  0  0
  -10.5743   -6.8927    0.0000 C   0  0  0  0  0  0  0  0  0  0  0  0
  -11.1119   -8.2931    0.0000 C   0  0  0  0  0  0  0  0  0  0  0  0
   -9.7115   -8.8306    0.0000 C   0  0  0  0  0  0  0  0  0  0  0  0
   -7.4918   -5.3529    0.0000 S   0  0  0  0  0  0  0  0  0  0  0  0
   -3.0000   -2.5981    0.0000 N   0  0  0  0  0  0  0  0  0  0  0  0
   -1.5000   -2.5981    0.0000 C   0  0  0  0  0  0  0  0  0  0  0  0
   -0.7500   -3.8971    0.0000 C   0  0  0  0  0  0  0  0  0  0  0  0
    0.7500   -3.8971    0.0000 C   0  0  0  0  0  0  0  0  0  0  0  0
    1.5000   -2.5981    0.0000 C   0  0  0  0  0  0  0  0  0  0  0  0
    0.7500   -1.2990    0.0000 C   0  0  0  0  0  0  0  0  0  0  0  0
    1.5000    0.0000    0.0000 C   0  0  0  0  0  0  0  0  0  0  0  0
    0.7500    1.2990    0.0000 N   0  0  0  0  0  0  0  0  0  0  0  0
   -0.7500    1.2990    0.0000 C   0  0  0  0  0  0  0  0  0  0  0  0
   -1.5000    0.0000    0.0000 C   0  0  0  0  0  0  0  0  0  0  0  0
   -0.7500   -1.2990    0.0000 C   0  0  0  0  0  0  0  0  0  0  0  0
  1  2  2  0
  2  3  1  0
  3  4  1  0
  4  5  2  0
  5  6  1  0
  6  7  2  0
  7  8  1  0
  8  9  1  0
  9 10  1  0
 10 11  1  0
  7 12  1  0
  2 13  1  0
 13 14  1  0
 14 15  2  0
 15 16  1  0
 16 17  2  0
 17 18  1  0
 18 19  2  0
 19 20  1  0
 20 21  2  0
 21 22  1  0
 22 23  2  0
 12  4  1  0
 23 14  1  0
 11  8  1  0
 23 18  1  0
M  END
>  <Compound_ID>  (254) 
CHEMBL364213

>  <Active>  (254) 
1

>  <Smiles>  (254) 
O=C(Nc1ncc(C2CCC2)s1)Nc1cccc2cnccc12

>  <canonical_smi>  (254) 
O=C(Nc1ncc(C2CCC2)s1)Nc1cccc2cnccc12

>  <Set>  (254) 
G2 active

>  <Set_type>  (254) 
Train

>  <MW>  (254) 
324.41

>  <HBD>  (254) 
2

>  <HBA>  (254) 
3

>  <NRB>  (254) 
3

>  <NR>  (254) 
4

>  <NAR>  (254) 
3

>  <PSA>  (254) 
66.91

>  <Standard Type>  (254) 
nan

>  <Standard Relation>  (254) 
nan

>  <Standard Units>  (254) 
nan

>  <Standard Value>  (254) 
nan

>  <Assay ChEMBL ID>  (254) 
nan

>  <Assay Description>  (254) 
nan

>  <BAO Label>  (254) 
nan

$$$$

     RDKit          2D

 18 19  0  0  0  0  0  0  0  0999 V2000
   -3.6375   -7.8476    0.0000 C   0  0  0  0  0  0  0  0  0  0  0  0
   -2.4240   -8.7293    0.0000 C   0  0  0  0  0  0  0  0  0  0  0  0
   -2.5808  -10.2211    0.0000 C   0  0  0  0  0  0  0  0  0  0  0  0
   -1.0537   -8.1192    0.0000 C   0  0  0  0  0  0  0  0  0  0  0  0
    0.2454   -8.8692    0.0000 C   0  0  0  0  0  0  0  0  0  0  0  0
    1.3601   -7.8655    0.0000 N   0  0  0  0  0  0  0  0  0  0  0  0
    0.7500   -6.4952    0.0000 C   0  0  0  0  0  0  0  0  0  0  0  0
    1.5000   -5.1962    0.0000 N   0  0  0  0  0  0  0  0  0  0  0  0
    0.7500   -3.8971    0.0000 C   0  0  0  0  0  0  0  0  0  0  0  0
   -0.7500   -3.8971    0.0000 O   0  0  0  0  0  0  0  0  0  0  0  0
    1.5000   -2.5981    0.0000 C   0  0  0  0  0  0  0  0  0  0  0  0
    0.7500   -1.2990    0.0000 C   0  0  0  0  0  0  0  0  0  0  0  0
    1.5000    0.0000    0.0000 C   0  0  0  0  0  0  0  0  0  0  0  0
    0.7500    1.2990    0.0000 C   0  0  0  0  0  0  0  0  0  0  0  0
   -0.7500    1.2990    0.0000 C   0  0  0  0  0  0  0  0  0  0  0  0
   -1.5000    0.0000    0.0000 C   0  0  0  0  0  0  0  0  0  0  0  0
   -0.7500   -1.2990    0.0000 C   0  0  0  0  0  0  0  0  0  0  0  0
   -0.7418   -6.6520    0.0000 S   0  0  0  0  0  0  0  0  0  0  0  0
  1  2  1  0
  2  3  1  0
  2  4  1  0
  4  5  2  0
  5  6  1  0
  6  7  2  0
  7  8  1  0
  8  9  1  0
  9 10  2  0
  9 11  1  0
 11 12  1  0
 12 13  2  0
 13 14  1  0
 14 15  2  0
 15 16  1  0
 16 17  2  0
  7 18  1  0
 18  4  1  0
 17 12  1  0
M  END
>  <Compound_ID>  (255) 
CHEMBL426972

>  <Active>  (255) 
1

>  <Smiles>  (255) 
CC(C)c1cnc(NC(=O)Cc2ccccc2)s1

>  <canonical_smi>  (255) 
CC(C)c1cnc(NC(=O)Cc2ccccc2)s1

>  <Set>  (255) 
G2 active

>  <Set_type>  (255) 
Train

>  <MW>  (255) 
260.36

>  <HBD>  (255) 
1

>  <HBA>  (255) 
2

>  <NRB>  (255) 
4

>  <NR>  (255) 
2

>  <NAR>  (255) 
2

>  <PSA>  (255) 
41.99

>  <Standard Type>  (255) 
nan

>  <Standard Relation>  (255) 
nan

>  <Standard Units>  (255) 
nan

>  <Standard Value>  (255) 
nan

>  <Assay ChEMBL ID>  (255) 
nan

>  <Assay Description>  (255) 
nan

>  <BAO Label>  (255) 
nan

$$$$

     RDKit          2D

 22 25  0  0  0  0  0  0  0  0999 V2000
   -1.8373   -5.6601    0.0000 O   0  0  0  0  0  0  0  0  0  0  0  0
   -2.9520   -4.6564    0.0000 C   0  0  0  0  0  0  0  0  0  0  0  0
   -2.6401   -3.1891    0.0000 C   0  0  0  0  0  0  0  0  0  0  0  0
   -1.2135   -2.7256    0.0000 N   0  0  0  0  0  0  0  0  0  0  0  0
   -0.0000   -3.6073    0.0000 C   0  0  0  0  0  0  0  0  0  0  0  0
    1.2135   -2.7256    0.0000 C   0  0  0  0  0  0  0  0  0  0  0  0
    0.7500   -1.2990    0.0000 C   0  0  0  0  0  0  0  0  0  0  0  0
    1.5000    0.0000    0.0000 C   0  0  0  0  0  0  0  0  0  0  0  0
    0.7500    1.2990    0.0000 C   0  0  0  0  0  0  0  0  0  0  0  0
   -0.7500    1.2990    0.0000 C   0  0  0  0  0  0  0  0  0  0  0  0
   -1.5000    0.0000    0.0000 C   0  0  0  0  0  0  0  0  0  0  0  0
   -0.7500   -1.2990    0.0000 C   0  0  0  0  0  0  0  0  0  0  0  0
   -4.3786   -5.1199    0.0000 N   0  0  0  0  0  0  0  0  0  0  0  0
   -4.6904   -6.5871    0.0000 C   0  0  0  0  0  0  0  0  0  0  0  0
   -3.6867   -7.7018    0.0000 N   0  0  0  0  0  0  0  0  0  0  0  0
   -4.4367   -9.0009    0.0000 C   0  0  0  0  0  0  0  0  0  0  0  0
   -5.9040   -8.6890    0.0000 C   0  0  0  0  0  0  0  0  0  0  0  0
   -7.0187   -9.6927    0.0000 C   0  0  0  0  0  0  0  0  0  0  0  0
   -8.5166   -9.6142    0.0000 C   0  0  0  0  0  0  0  0  0  0  0  0
   -8.5951  -11.1121    0.0000 C   0  0  0  0  0  0  0  0  0  0  0  0
   -7.0972  -11.1906    0.0000 C   0  0  0  0  0  0  0  0  0  0  0  0
   -6.0607   -7.1972    0.0000 S   0  0  0  0  0  0  0  0  0  0  0  0
  1  2  2  0
  2  3  1  0
  3  4  1  0
  4  5  1  0
  5  6  2  0
  6  7  1  0
  7  8  2  0
  8  9  1  0
  9 10  2  0
 10 11  1  0
 11 12  2  0
  2 13  1  0
 13 14  1  0
 14 15  2  0
 15 16  1  0
 16 17  2  0
 17 18  1  0
 18 19  1  0
 19 20  1  0
 20 21  1  0
 17 22  1  0
 12  4  1  0
 22 14  1  0
 12  7  1  0
 21 18  1  0
M  END
>  <Compound_ID>  (256) 
CHEMBL364338

>  <Active>  (256) 
1

>  <Smiles>  (256) 
O=C(Cn1ccc2ccccc21)Nc1ncc(C2CCC2)s1

>  <canonical_smi>  (256) 
O=C(Cn1ccc2ccccc21)Nc1ncc(C2CCC2)s1

>  <Set>  (256) 
G2 active

>  <Set_type>  (256) 
Train

>  <MW>  (256) 
311.41

>  <HBD>  (256) 
1

>  <HBA>  (256) 
2

>  <NRB>  (256) 
4

>  <NR>  (256) 
4

>  <NAR>  (256) 
3

>  <PSA>  (256) 
46.92

>  <Standard Type>  (256) 
nan

>  <Standard Relation>  (256) 
nan

>  <Standard Units>  (256) 
nan

>  <Standard Value>  (256) 
nan

>  <Assay ChEMBL ID>  (256) 
nan

>  <Assay Description>  (256) 
nan

>  <BAO Label>  (256) 
nan

$$$$

     RDKit          2D

 21 23  0  0  0  0  0  0  0  0999 V2000
    3.0000    0.0000    0.0000 C   0  0  0  0  0  0  0  0  0  0  0  0
    1.5000    0.0000    0.0000 C   0  0  0  0  0  0  0  0  0  0  0  0
    0.7500   -1.2990    0.0000 C   0  0  0  0  0  0  0  0  0  0  0  0
   -0.7500   -1.2990    0.0000 C   0  0  0  0  0  0  0  0  0  0  0  0
   -1.5000   -2.5981    0.0000 C   0  0  0  0  0  0  0  0  0  0  0  0
   -1.5000    0.0000    0.0000 C   0  0  0  0  0  0  0  0  0  0  0  0
   -0.7500    1.2990    0.0000 C   0  0  0  0  0  0  0  0  0  0  0  0
   -1.5000    2.5981    0.0000 N   0  0  0  0  0  0  0  0  0  0  0  0
   -0.7500    3.8971    0.0000 C   0  0  0  0  0  0  0  0  0  0  0  0
    0.7500    3.8971    0.0000 N   0  0  0  0  0  0  0  0  0  0  0  0
    1.5000    5.1962    0.0000 C   0  0  0  0  0  0  0  0  0  0  0  0
    0.7500    6.4952    0.0000 C   0  0  0  0  0  0  0  0  0  0  0  0
   -0.7500    6.4952    0.0000 C   0  0  0  0  0  0  0  0  0  0  0  0
   -1.5000    7.7942    0.0000 C   0  0  0  0  0  0  0  0  0  0  0  0
   -2.9918    7.9510    0.0000 N   0  0  0  0  0  0  0  0  0  0  0  0
   -3.3037    9.4182    0.0000 C   0  0  0  0  0  0  0  0  0  0  0  0
   -4.6740   10.0283    0.0000 C   0  0  0  0  0  0  0  0  0  0  0  0
   -2.0046   10.1682    0.0000 C   0  0  0  0  0  0  0  0  0  0  0  0
   -0.8899    9.1645    0.0000 S   0  0  0  0  0  0  0  0  0  0  0  0
   -1.5000    5.1962    0.0000 N   0  0  0  0  0  0  0  0  0  0  0  0
    0.7500    1.2990    0.0000 C   0  0  0  0  0  0  0  0  0  0  0  0
  1  2  1  0
  2  3  2  0
  3  4  1  0
  4  5  1  0
  4  6  2  0
  6  7  1  0
  7  8  1  0
  8  9  1  0
  9 10  2  0
 10 11  1  0
 11 12  2  0
 12 13  1  0
 13 14  1  0
 14 15  2  0
 15 16  1  0
 16 17  1  0
 16 18  2  0
 18 19  1  0
 13 20  2  0
  7 21  2  0
 21  2  1  0
 20  9  1  0
 19 14  1  0
M  END
>  <Compound_ID>  (257) 
CHEMBL453217

>  <Active>  (257) 
1

>  <Smiles>  (257) 
Cc1cc(C)cc(Nc2nccc(-c3nc(C)cs3)n2)c1

>  <canonical_smi>  (257) 
Cc1cc(C)cc(Nc2nccc(-c3nc(C)cs3)n2)c1

>  <Set>  (257) 
G2 active

>  <Set_type>  (257) 
Train

>  <MW>  (257) 
296.4

>  <HBD>  (257) 
1

>  <HBA>  (257) 
4

>  <NRB>  (257) 
3

>  <NR>  (257) 
3

>  <NAR>  (257) 
3

>  <PSA>  (257) 
50.7

>  <Standard Type>  (257) 
nan

>  <Standard Relation>  (257) 
nan

>  <Standard Units>  (257) 
nan

>  <Standard Value>  (257) 
nan

>  <Assay ChEMBL ID>  (257) 
nan

>  <Assay Description>  (257) 
nan

>  <BAO Label>  (257) 
nan

$$$$

     RDKit          2D

 30 34  0  0  0  0  0  0  0  0999 V2000
    7.4261    1.1048    0.0000 C   0  0  0  0  0  0  0  0  0  0  0  0
    6.3114    0.1011    0.0000 N   0  0  0  0  0  0  0  0  0  0  0  0
    6.6232   -1.3661    0.0000 C   0  0  0  0  0  0  0  0  0  0  0  0
    5.5085   -2.3698    0.0000 C   0  0  0  0  0  0  0  0  0  0  0  0
    4.0819   -1.9062    0.0000 C   0  0  0  0  0  0  0  0  0  0  0  0
    2.9672   -2.9099    0.0000 N   0  0  0  0  0  0  0  0  0  0  0  0
    3.1240   -4.4017    0.0000 N   0  0  0  0  0  0  0  0  0  0  0  0
    1.7537   -5.0118    0.0000 C   0  0  0  0  0  0  0  0  0  0  0  0
    1.4418   -6.4791    0.0000 C   0  0  0  0  0  0  0  0  0  0  0  0
    2.5565   -7.4827    0.0000 N   0  0  0  0  0  0  0  0  0  0  0  0
    0.0152   -6.9426    0.0000 O   0  0  0  0  0  0  0  0  0  0  0  0
    0.7500   -3.8971    0.0000 C   0  0  0  0  0  0  0  0  0  0  0  0
    1.5000   -2.5981    0.0000 C   0  0  0  0  0  0  0  0  0  0  0  0
    0.7500   -1.2990    0.0000 C   0  0  0  0  0  0  0  0  0  0  0  0
    1.5000    0.0000    0.0000 N   0  0  0  0  0  0  0  0  0  0  0  0
    0.7500    1.2990    0.0000 C   0  0  0  0  0  0  0  0  0  0  0  0
    1.5000    2.5981    0.0000 N   0  0  0  0  0  0  0  0  0  0  0  0
    3.0000    2.5981    0.0000 C   0  0  0  0  0  0  0  0  0  0  0  0
    3.7500    1.2990    0.0000 C   0  0  0  0  0  0  0  0  0  0  0  0
    5.2500    1.2990    0.0000 C   0  0  0  0  0  0  0  0  0  0  0  0
    6.0000    2.5981    0.0000 C   0  0  0  0  0  0  0  0  0  0  0  0
    5.2500    3.8971    0.0000 C   0  0  0  0  0  0  0  0  0  0  0  0
    3.7500    3.8971    0.0000 C   0  0  0  0  0  0  0  0  0  0  0  0
   -0.7500    1.2990    0.0000 N   0  0  0  0  0  0  0  0  0  0  0  0
   -1.5000    0.0000    0.0000 C   0  0  0  0  0  0  0  0  0  0  0  0
   -0.7500   -1.2990    0.0000 C   0  0  0  0  0  0  0  0  0  0  0  0
   -1.5000   -2.5981    0.0000 C   0  0  0  0  0  0  0  0  0  0  0  0
   -0.7500   -3.8971    0.0000 C   0  0  0  0  0  0  0  0  0  0  0  0
    3.7701   -0.4390    0.0000 C   0  0  0  0  0  0  0  0  0  0  0  0
    4.8848    0.5647    0.0000 C   0  0  0  0  0  0  0  0  0  0  0  0
  1  2  1  0
  2  3  1  0
  3  4  1  0
  4  5  1  0
  5  6  1  0
  6  7  1  0
  7  8  2  0
  8  9  1  0
  9 10  1  0
  9 11  2  0
  8 12  1  0
 12 13  2  0
 13 14  1  0
 14 15  2  0
 15 16  1  0
 16 17  1  0
 17 18  1  0
 18 19  2  0
 19 20  1  0
 20 21  2  0
 21 22  1  0
 22 23  2  0
 16 24  2  0
 24 25  1  0
 25 26  2  0
 26 27  1  0
 27 28  1  0
  5 29  1  0
 29 30  1  0
 30  2  1  0
 13  6  1  0
 26 14  1  0
 28 12  1  0
 23 18  1  0
M  END
>  <Compound_ID>  (258) 
CHEMBL1098057

>  <Active>  (258) 
1

>  <Smiles>  (258) 
CN1CCC(n2nc(C(N)=O)c3c2-c2nc(Nc4ccccc4)ncc2CC3)CC1

>  <canonical_smi>  (258) 
CN1CCC(n2nc(C(N)=O)c3c2-c2nc(Nc4ccccc4)ncc2CC3)CC1

>  <Set>  (258) 
G2 active

>  <Set_type>  (258) 
Train

>  <MW>  (258) 
403.49

>  <HBD>  (258) 
2

>  <HBA>  (258) 
6

>  <NRB>  (258) 
4

>  <NR>  (258) 
5

>  <NAR>  (258) 
3

>  <PSA>  (258) 
101.96

>  <Standard Type>  (258) 
nan

>  <Standard Relation>  (258) 
nan

>  <Standard Units>  (258) 
nan

>  <Standard Value>  (258) 
nan

>  <Assay ChEMBL ID>  (258) 
nan

>  <Assay Description>  (258) 
nan

>  <BAO Label>  (258) 
nan

$$$$

     RDKit          2D

 22 25  0  0  0  0  0  0  0  0999 V2000
   -4.3764    3.7611    0.0000 O   0  0  0  0  0  0  0  0  0  0  0  0
   -4.6883    2.2939    0.0000 C   0  0  0  0  0  0  0  0  0  0  0  0
   -6.1149    1.8303    0.0000 N   0  0  0  0  0  0  0  0  0  0  0  0
   -7.2296    2.8340    0.0000 C   0  0  0  0  0  0  0  0  0  0  0  0
   -8.6968    2.5222    0.0000 N   0  0  0  0  0  0  0  0  0  0  0  0
   -9.4468    3.8212    0.0000 C   0  0  0  0  0  0  0  0  0  0  0  0
   -8.4431    4.9359    0.0000 C   0  0  0  0  0  0  0  0  0  0  0  0
   -8.7550    6.4031    0.0000 C   0  0  0  0  0  0  0  0  0  0  0  0
   -7.9380    7.6612    0.0000 C   0  0  0  0  0  0  0  0  0  0  0  0
   -9.1960    8.4781    0.0000 C   0  0  0  0  0  0  0  0  0  0  0  0
  -10.0130    7.2201    0.0000 C   0  0  0  0  0  0  0  0  0  0  0  0
   -7.0728    4.3258    0.0000 S   0  0  0  0  0  0  0  0  0  0  0  0
   -3.5736    1.2902    0.0000 N   0  0  0  0  0  0  0  0  0  0  0  0
   -2.1470    1.7537    0.0000 C   0  0  0  0  0  0  0  0  0  0  0  0
   -1.8351    3.2209    0.0000 C   0  0  0  0  0  0  0  0  0  0  0  0
   -0.4086    3.6844    0.0000 C   0  0  0  0  0  0  0  0  0  0  0  0
    0.7062    2.6807    0.0000 C   0  0  0  0  0  0  0  0  0  0  0  0
    0.3943    1.2135    0.0000 C   0  0  0  0  0  0  0  0  0  0  0  0
    1.2760    0.0000    0.0000 N   0  0  0  0  0  0  0  0  0  0  0  0
    0.3943   -1.2135    0.0000 N   0  0  0  0  0  0  0  0  0  0  0  0
   -1.0323   -0.7500    0.0000 N   0  0  0  0  0  0  0  0  0  0  0  0
   -1.0323    0.7500    0.0000 C   0  0  0  0  0  0  0  0  0  0  0  0
  1  2  2  0
  2  3  1  0
  3  4  1  0
  4  5  2  0
  5  6  1  0
  6  7  2  0
  7  8  1  0
  8  9  1  0
  9 10  1  0
 10 11  1  0
  7 12  1  0
  2 13  1  0
 13 14  1  0
 14 15  2  0
 15 16  1  0
 16 17  2  0
 17 18  1  0
 18 19  1  0
 19 20  1  0
 20 21  2  0
 21 22  1  0
 12  4  1  0
 22 14  1  0
 11  8  1  0
 22 18  2  0
M  END
>  <Compound_ID>  (259) 
CHEMBL186371

>  <Active>  (259) 
1

>  <Smiles>  (259) 
O=C(Nc1ncc(C2CCC2)s1)Nc1cccc2[nH]nnc12

>  <canonical_smi>  (259) 
O=C(Nc1ncc(C2CCC2)s1)Nc1cccc2[nH]nnc12

>  <Set>  (259) 
G2 active

>  <Set_type>  (259) 
Train

>  <MW>  (259) 
314.37

>  <HBD>  (259) 
3

>  <HBA>  (259) 
4

>  <NRB>  (259) 
3

>  <NR>  (259) 
4

>  <NAR>  (259) 
3

>  <PSA>  (259) 
95.59

>  <Standard Type>  (259) 
nan

>  <Standard Relation>  (259) 
nan

>  <Standard Units>  (259) 
nan

>  <Standard Value>  (259) 
nan

>  <Assay ChEMBL ID>  (259) 
nan

>  <Assay Description>  (259) 
nan

>  <BAO Label>  (259) 
nan

$$$$

     RDKit          2D

 18 20  0  0  0  0  0  0  0  0999 V2000
    3.7500   -1.2990    0.0000 C   0  0  0  0  0  0  0  0  0  0  0  0
    3.0000    0.0000    0.0000 O   0  0  0  0  0  0  0  0  0  0  0  0
    1.5000    0.0000    0.0000 C   0  0  0  0  0  0  0  0  0  0  0  0
    0.7500   -1.2990    0.0000 C   0  0  0  0  0  0  0  0  0  0  0  0
   -0.7500   -1.2990    0.0000 C   0  0  0  0  0  0  0  0  0  0  0  0
   -1.5000    0.0000    0.0000 C   0  0  0  0  0  0  0  0  0  0  0  0
   -0.7500    1.2990    0.0000 C   0  0  0  0  0  0  0  0  0  0  0  0
    0.7500    1.2990    0.0000 C   0  0  0  0  0  0  0  0  0  0  0  0
   -1.7537    2.4138    0.0000 C   0  0  0  0  0  0  0  0  0  0  0  0
   -1.4418    3.8810    0.0000 C   0  0  0  0  0  0  0  0  0  0  0  0
   -2.5565    4.8847    0.0000 C   0  0  0  0  0  0  0  0  0  0  0  0
   -4.0238    4.5728    0.0000 C   0  0  0  0  0  0  0  0  0  0  0  0
   -4.7738    5.8718    0.0000 N   0  0  0  0  0  0  0  0  0  0  0  0
   -3.7701    6.9866    0.0000 C   0  0  0  0  0  0  0  0  0  0  0  0
   -2.3998    6.3765    0.0000 N   0  0  0  0  0  0  0  0  0  0  0  0
   -3.1240    1.8037    0.0000 C   0  0  0  0  0  0  0  0  0  0  0  0
   -4.4231    2.5537    0.0000 O   0  0  0  0  0  0  0  0  0  0  0  0
   -2.9672    0.3119    0.0000 N   0  0  0  0  0  0  0  0  0  0  0  0
  1  2  1  0
  2  3  1  0
  3  4  2  0
  4  5  1  0
  5  6  2  0
  6  7  1  0
  7  8  2  0
  7  9  1  0
  9 10  2  0
 10 11  1  0
 11 12  2  0
 12 13  1  0
 13 14  2  0
 14 15  1  0
  9 16  1  0
 16 17  2  0
 16 18  1  0
  8  3  1  0
 15 11  1  0
 18  6  1  0
M  END
>  <Compound_ID>  (260) 
CHEMBL258805

>  <Active>  (260) 
1

>  <Smiles>  (260) 
COc1ccc2c(c1)/C(=C/c1cnc[nH]1)C(=O)N2

>  <canonical_smi>  (260) 
COc1ccc2c(c1)/C(=C/c1cnc[nH]1)C(=O)N2

>  <Set>  (260) 
G2 active

>  <Set_type>  (260) 
Train

>  <MW>  (260) 
241.25

>  <HBD>  (260) 
2

>  <HBA>  (260) 
3

>  <NRB>  (260) 
2

>  <NR>  (260) 
3

>  <NAR>  (260) 
2

>  <PSA>  (260) 
67.01

>  <Standard Type>  (260) 
nan

>  <Standard Relation>  (260) 
nan

>  <Standard Units>  (260) 
nan

>  <Standard Value>  (260) 
nan

>  <Assay ChEMBL ID>  (260) 
nan

>  <Assay Description>  (260) 
nan

>  <BAO Label>  (260) 
nan

$$$$

     RDKit          2D

 24 27  0  0  0  0  0  0  0  0999 V2000
    4.6740   -7.4303    0.0000 C   0  0  0  0  0  0  0  0  0  0  0  0
    3.3037   -6.8202    0.0000 C   0  0  0  0  0  0  0  0  0  0  0  0
    2.9918   -5.3529    0.0000 C   0  0  0  0  0  0  0  0  0  0  0  0
    1.5000   -5.1962    0.0000 C   0  0  0  0  0  0  0  0  0  0  0  0
    0.7500   -3.8971    0.0000 C   0  0  0  0  0  0  0  0  0  0  0  0
    1.5000   -2.5981    0.0000 N   0  0  0  0  0  0  0  0  0  0  0  0
    0.7500   -1.2990    0.0000 C   0  0  0  0  0  0  0  0  0  0  0  0
    1.5000    0.0000    0.0000 N   0  0  0  0  0  0  0  0  0  0  0  0
    0.7500    1.2990    0.0000 C   0  0  0  0  0  0  0  0  0  0  0  0
   -0.7500    1.2990    0.0000 C   0  0  0  0  0  0  0  0  0  0  0  0
   -1.5000    2.5981    0.0000 Br  0  0  0  0  0  0  0  0  0  0  0  0
   -1.5000    0.0000    0.0000 C   0  0  0  0  0  0  0  0  0  0  0  0
   -3.0000    0.0000    0.0000 N   0  0  0  0  0  0  0  0  0  0  0  0
   -3.7500    1.2990    0.0000 C   0  0  0  0  0  0  0  0  0  0  0  0
   -5.2418    1.4558    0.0000 C   0  0  0  0  0  0  0  0  0  0  0  0
   -5.5537    2.9231    0.0000 C   0  0  0  0  0  0  0  0  0  0  0  0
   -6.9240    3.5332    0.0000 C   0  0  0  0  0  0  0  0  0  0  0  0
   -8.4158    3.3764    0.0000 C   0  0  0  0  0  0  0  0  0  0  0  0
   -7.8056    4.7467    0.0000 C   0  0  0  0  0  0  0  0  0  0  0  0
   -4.2546    3.6731    0.0000 N   0  0  0  0  0  0  0  0  0  0  0  0
   -3.1399    2.6694    0.0000 N   0  0  0  0  0  0  0  0  0  0  0  0
   -0.7500   -1.2990    0.0000 N   0  0  0  0  0  0  0  0  0  0  0  0
    0.8899   -6.5665    0.0000 O   0  0  0  0  0  0  0  0  0  0  0  0
    2.0046   -7.5702    0.0000 N   0  0  0  0  0  0  0  0  0  0  0  0
  1  2  1  0
  2  3  1  0
  3  4  2  0
  4  5  1  0
  5  6  1  0
  6  7  1  0
  7  8  2  0
  8  9  1  0
  9 10  2  0
 10 11  1  0
 10 12  1  0
 12 13  1  0
 13 14  1  0
 14 15  1  0
 15 16  2  0
 16 17  1  0
 17 18  1  0
 18 19  1  0
 16 20  1  0
 20 21  1  0
 12 22  2  0
  4 23  1  0
 23 24  1  0
 24  2  2  0
 22  7  1  0
 21 14  2  0
 19 17  1  0
M  END
>  <Compound_ID>  (261) 
CHEMBL497854

>  <Active>  (261) 
1

>  <Smiles>  (261) 
Cc1cc(CNc2ncc(Br)c(Nc3cc(C4CC4)[nH]n3)n2)on1

>  <canonical_smi>  (261) 
Cc1cc(CNc2ncc(Br)c(Nc3cc(C4CC4)[nH]n3)n2)on1

>  <Set>  (261) 
G2 active

>  <Set_type>  (261) 
Train

>  <MW>  (261) 
390.25

>  <HBD>  (261) 
3

>  <HBA>  (261) 
7

>  <NRB>  (261) 
6

>  <NR>  (261) 
4

>  <NAR>  (261) 
3

>  <PSA>  (261) 
104.55

>  <Standard Type>  (261) 
nan

>  <Standard Relation>  (261) 
nan

>  <Standard Units>  (261) 
nan

>  <Standard Value>  (261) 
nan

>  <Assay ChEMBL ID>  (261) 
nan

>  <Assay Description>  (261) 
nan

>  <BAO Label>  (261) 
nan

$$$$

     RDKit          2D

 30 33  0  0  0  0  0  0  0  0999 V2000
   -7.4146   -8.6505    0.0000 N   0  0  0  0  0  0  0  0  0  0  0  0
   -7.2578   -7.1587    0.0000 C   0  0  0  0  0  0  0  0  0  0  0  0
   -5.8875   -6.5486    0.0000 C   0  0  0  0  0  0  0  0  0  0  0  0
   -4.6740   -7.4303    0.0000 C   0  0  0  0  0  0  0  0  0  0  0  0
   -3.3037   -6.8202    0.0000 C   0  0  0  0  0  0  0  0  0  0  0  0
   -2.9918   -5.3529    0.0000 C   0  0  0  0  0  0  0  0  0  0  0  0
   -1.5000   -5.1962    0.0000 C   0  0  0  0  0  0  0  0  0  0  0  0
   -0.7500   -3.8971    0.0000 C   0  0  0  0  0  0  0  0  0  0  0  0
    0.7500   -3.8971    0.0000 C   0  0  0  0  0  0  0  0  0  0  0  0
    1.5000   -2.5981    0.0000 C   0  0  0  0  0  0  0  0  0  0  0  0
    0.7500   -1.2990    0.0000 C   0  0  0  0  0  0  0  0  0  0  0  0
    1.5000    0.0000    0.0000 C   0  0  0  0  0  0  0  0  0  0  0  0
    0.7500    1.2990    0.0000 N   0  0  0  0  0  0  0  0  0  0  0  0
   -0.7500    1.2990    0.0000 C   0  0  0  0  0  0  0  0  0  0  0  0
   -1.5000    0.0000    0.0000 C   0  0  0  0  0  0  0  0  0  0  0  0
   -0.7500   -1.2990    0.0000 C   0  0  0  0  0  0  0  0  0  0  0  0
   -1.5000   -2.5981    0.0000 C   0  0  0  0  0  0  0  0  0  0  0  0
   -0.8899   -6.5665    0.0000 N   0  0  0  0  0  0  0  0  0  0  0  0
   -2.0046   -7.5702    0.0000 O   0  0  0  0  0  0  0  0  0  0  0  0
   -8.4713   -6.2770    0.0000 C   0  0  0  0  0  0  0  0  0  0  0  0
   -9.8417   -6.8871    0.0000 C   0  0  0  0  0  0  0  0  0  0  0  0
  -11.0552   -6.0054    0.0000 C   0  0  0  0  0  0  0  0  0  0  0  0
  -12.4255   -6.6156    0.0000 C   0  0  0  0  0  0  0  0  0  0  0  0
  -12.5823   -8.1073    0.0000 C   0  0  0  0  0  0  0  0  0  0  0  0
  -13.9526   -8.7174    0.0000 C   0  0  0  0  0  0  0  0  0  0  0  0
  -15.3229   -9.3275    0.0000 F   0  0  0  0  0  0  0  0  0  0  0  0
  -14.5627   -7.3471    0.0000 F   0  0  0  0  0  0  0  0  0  0  0  0
  -13.3425  -10.0878    0.0000 F   0  0  0  0  0  0  0  0  0  0  0  0
  -11.3688   -8.9890    0.0000 C   0  0  0  0  0  0  0  0  0  0  0  0
   -9.9984   -8.3789    0.0000 C   0  0  0  0  0  0  0  0  0  0  0  0
  2  1  1  1
  2  3  1  0
  3  4  1  0
  4  5  1  0
  5  6  2  0
  6  7  1  0
  7  8  1  0
  8  9  2  0
  9 10  1  0
 10 11  2  0
 11 12  1  0
 12 13  2  0
 13 14  1  0
 14 15  2  0
 15 16  1  0
 16 17  2  0
  7 18  2  0
 18 19  1  0
  2 20  1  0
 20 21  1  0
 21 22  2  0
 22 23  1  0
 23 24  2  0
 24 25  1  0
 25 26  1  0
 25 27  1  0
 25 28  1  0
 24 29  1  0
 29 30  2  0
 19  5  1  0
 30 21  1  0
 17  8  1  0
 16 11  1  0
M  END
>  <Compound_ID>  (262) 
CHEMBL1081105

>  <Active>  (262) 
1

>  <Smiles>  (262) 
N[C@H](CCc1cc(-c2ccc3cnccc3c2)no1)Cc1ccc(C(F)(F)F)cc1

>  <canonical_smi>  (262) 
N[C@H](CCc1cc(-c2ccc3cnccc3c2)no1)Cc1ccc(C(F)(F)F)cc1

>  <Set>  (262) 
G2 active

>  <Set_type>  (262) 
Train

>  <MW>  (262) 
411.43

>  <HBD>  (262) 
1

>  <HBA>  (262) 
4

>  <NRB>  (262) 
6

>  <NR>  (262) 
4

>  <NAR>  (262) 
4

>  <PSA>  (262) 
64.94

>  <Standard Type>  (262) 
nan

>  <Standard Relation>  (262) 
nan

>  <Standard Units>  (262) 
nan

>  <Standard Value>  (262) 
nan

>  <Assay ChEMBL ID>  (262) 
nan

>  <Assay Description>  (262) 
nan

>  <BAO Label>  (262) 
nan

$$$$

     RDKit          2D

 26 29  0  0  0  0  0  0  0  0999 V2000
    9.9762    6.5662    0.0000 C   0  0  0  0  0  0  0  0  0  0  0  0
    9.0946    7.7797    0.0000 C   0  0  0  0  0  0  0  0  0  0  0  0
    9.7047    9.1501    0.0000 C   0  0  0  0  0  0  0  0  0  0  0  0
    7.6028    7.6230    0.0000 N   0  0  0  0  0  0  0  0  0  0  0  0
    6.7211    8.8365    0.0000 C   0  0  0  0  0  0  0  0  0  0  0  0
    7.3312   10.2068    0.0000 O   0  0  0  0  0  0  0  0  0  0  0  0
    5.2293    8.6797    0.0000 N   0  0  0  0  0  0  0  0  0  0  0  0
    4.2256    9.7944    0.0000 C   0  0  0  0  0  0  0  0  0  0  0  0
    2.8553    9.1843    0.0000 C   0  0  0  0  0  0  0  0  0  0  0  0
    1.3881    9.4962    0.0000 N   0  0  0  0  0  0  0  0  0  0  0  0
    0.6381    8.1971    0.0000 N   0  0  0  0  0  0  0  0  0  0  0  0
    1.6418    7.0824    0.0000 C   0  0  0  0  0  0  0  0  0  0  0  0
    1.3299    5.6152    0.0000 N   0  0  0  0  0  0  0  0  0  0  0  0
   -0.0967    5.1517    0.0000 C   0  0  0  0  0  0  0  0  0  0  0  0
   -1.2114    6.1554    0.0000 O   0  0  0  0  0  0  0  0  0  0  0  0
   -0.4086    3.6844    0.0000 C   0  0  0  0  0  0  0  0  0  0  0  0
   -1.8351    3.2209    0.0000 C   0  0  0  0  0  0  0  0  0  0  0  0
   -2.1470    1.7537    0.0000 C   0  0  0  0  0  0  0  0  0  0  0  0
   -1.0323    0.7500    0.0000 C   0  0  0  0  0  0  0  0  0  0  0  0
    0.3943    1.2135    0.0000 C   0  0  0  0  0  0  0  0  0  0  0  0
    0.7062    2.6807    0.0000 C   0  0  0  0  0  0  0  0  0  0  0  0
    1.2760    0.0000    0.0000 O   0  0  0  0  0  0  0  0  0  0  0  0
    0.3943   -1.2135    0.0000 C   0  0  0  0  0  0  0  0  0  0  0  0
   -1.0323   -0.7500    0.0000 O   0  0  0  0  0  0  0  0  0  0  0  0
    3.0121    7.6925    0.0000 C   0  0  0  0  0  0  0  0  0  0  0  0
    4.4793    7.3806    0.0000 C   0  0  0  0  0  0  0  0  0  0  0  0
  1  2  1  0
  2  3  1  0
  2  4  1  0
  4  5  1  0
  5  6  2  0
  5  7  1  0
  7  8  1  0
  8  9  1  0
  9 10  2  0
 10 11  1  0
 11 12  1  0
 12 13  1  0
 13 14  1  0
 14 15  2  0
 14 16  1  0
 16 17  2  0
 17 18  1  0
 18 19  2  0
 19 20  1  0
 20 21  2  0
 20 22  1  0
 22 23  1  0
 23 24  1  0
 12 25  2  0
 25 26  1  0
 26  7  1  0
 25  9  1  0
 21 16  1  0
 24 19  1  0
M  END
>  <Compound_ID>  (263) 
CHEMBL439514

>  <Active>  (263) 
1

>  <Smiles>  (263) 
CC(C)NC(=O)N1Cc2n[nH]c(NC(=O)c3ccc4c(c3)OCO4)c2C1

>  <canonical_smi>  (263) 
CC(C)NC(=O)N1Cc2n[nH]c(NC(=O)c3ccc4c(c3)OCO4)c2C1

>  <Set>  (263) 
G2 active

>  <Set_type>  (263) 
Train

>  <MW>  (263) 
357.37

>  <HBD>  (263) 
3

>  <HBA>  (263) 
5

>  <NRB>  (263) 
3

>  <NR>  (263) 
4

>  <NAR>  (263) 
2

>  <PSA>  (263) 
108.58

>  <Standard Type>  (263) 
nan

>  <Standard Relation>  (263) 
nan

>  <Standard Units>  (263) 
nan

>  <Standard Value>  (263) 
nan

>  <Assay ChEMBL ID>  (263) 
nan

>  <Assay Description>  (263) 
nan

>  <BAO Label>  (263) 
nan

$$$$

     RDKit          2D

 19 22  0  0  0  0  0  0  0  0999 V2000
    1.5000    0.0000    0.0000 C   0  0  0  0  0  0  0  0  0  0  0  0
    0.7500   -1.2990    0.0000 C   0  0  0  0  0  0  0  0  0  0  0  0
   -0.7500   -1.2990    0.0000 N   0  0  0  0  0  0  0  0  0  0  0  0
   -1.5000    0.0000    0.0000 N   0  0  0  0  0  0  0  0  0  0  0  0
   -2.9672    0.3119    0.0000 N   0  0  0  0  0  0  0  0  0  0  0  0
   -3.1240    1.8037    0.0000 C   0  0  0  0  0  0  0  0  0  0  0  0
   -1.7537    2.4138    0.0000 C   0  0  0  0  0  0  0  0  0  0  0  0
   -1.4418    3.8810    0.0000 C   0  0  0  0  0  0  0  0  0  0  0  0
   -0.0152    4.3445    0.0000 C   0  0  0  0  0  0  0  0  0  0  0  0
    0.2966    5.8117    0.0000 C   0  0  0  0  0  0  0  0  0  0  0  0
   -0.8181    6.8154    0.0000 N   0  0  0  0  0  0  0  0  0  0  0  0
   -2.2447    6.3519    0.0000 C   0  0  0  0  0  0  0  0  0  0  0  0
   -3.3594    7.3556    0.0000 N   0  0  0  0  0  0  0  0  0  0  0  0
   -3.0475    8.8228    0.0000 C   0  0  0  0  0  0  0  0  0  0  0  0
   -3.5111   10.2494    0.0000 C   0  0  0  0  0  0  0  0  0  0  0  0
   -2.0438    9.9375    0.0000 C   0  0  0  0  0  0  0  0  0  0  0  0
   -2.5565    4.8847    0.0000 N   0  0  0  0  0  0  0  0  0  0  0  0
   -0.7500    1.2990    0.0000 C   0  0  0  0  0  0  0  0  0  0  0  0
    0.7500    1.2990    0.0000 C   0  0  0  0  0  0  0  0  0  0  0  0
  1  2  1  0
  2  3  2  0
  3  4  1  0
  4  5  1  0
  5  6  2  0
  6  7  1  0
  7  8  1  0
  8  9  2  0
  9 10  1  0
 10 11  2  0
 11 12  1  0
 12 13  1  0
 13 14  1  0
 14 15  1  0
 15 16  1  0
 12 17  2  0
  7 18  2  0
 18 19  1  0
 19  1  2  0
 18  4  1  0
 17  8  1  0
 16 14  1  0
M  END
>  <Compound_ID>  (264) 
CHEMBL525194

>  <Active>  (264) 
1

>  <Smiles>  (264) 
c1cnn2ncc(-c3ccnc(NC4CC4)n3)c2c1

>  <canonical_smi>  (264) 
c1cnn2ncc(-c3ccnc(NC4CC4)n3)c2c1

>  <Set>  (264) 
G2 active

>  <Set_type>  (264) 
Train

>  <MW>  (264) 
252.28

>  <HBD>  (264) 
1

>  <HBA>  (264) 
5

>  <NRB>  (264) 
3

>  <NR>  (264) 
4

>  <NAR>  (264) 
3

>  <PSA>  (264) 
68.0

>  <Standard Type>  (264) 
nan

>  <Standard Relation>  (264) 
nan

>  <Standard Units>  (264) 
nan

>  <Standard Value>  (264) 
nan

>  <Assay ChEMBL ID>  (264) 
nan

>  <Assay Description>  (264) 
nan

>  <BAO Label>  (264) 
nan

$$$$

     RDKit          2D

 28 31  0  0  0  0  0  0  0  0999 V2000
   -1.8836    6.6179    0.0000 C   0  0  0  0  0  0  0  0  0  0  0  0
   -3.3102    6.1544    0.0000 N   0  0  0  0  0  0  0  0  0  0  0  0
   -3.6221    4.6871    0.0000 C   0  0  0  0  0  0  0  0  0  0  0  0
   -2.5074    3.6834    0.0000 O   0  0  0  0  0  0  0  0  0  0  0  0
   -5.0487    4.2236    0.0000 C   0  0  0  0  0  0  0  0  0  0  0  0
   -5.3605    2.7564    0.0000 N   0  0  0  0  0  0  0  0  0  0  0  0
   -4.2458    1.7527    0.0000 C   0  0  0  0  0  0  0  0  0  0  0  0
   -4.5577    0.2855    0.0000 C   0  0  0  0  0  0  0  0  0  0  0  0
   -5.9843   -0.1781    0.0000 C   0  0  0  0  0  0  0  0  0  0  0  0
   -6.2961   -1.6453    0.0000 N   0  0  0  0  0  0  0  0  0  0  0  0
   -5.1814   -2.6490    0.0000 C   0  0  0  0  0  0  0  0  0  0  0  0
   -5.4933   -4.1162    0.0000 N   0  0  0  0  0  0  0  0  0  0  0  0
   -4.3786   -5.1199    0.0000 C   0  0  0  0  0  0  0  0  0  0  0  0
   -2.9520   -4.6564    0.0000 C   0  0  0  0  0  0  0  0  0  0  0  0
   -1.8373   -5.6601    0.0000 Cl  0  0  0  0  0  0  0  0  0  0  0  0
   -2.6401   -3.1891    0.0000 C   0  0  0  0  0  0  0  0  0  0  0  0
   -1.2135   -2.7256    0.0000 C   0  0  0  0  0  0  0  0  0  0  0  0
   -0.0000   -3.6073    0.0000 C   0  0  0  0  0  0  0  0  0  0  0  0
    1.2135   -2.7256    0.0000 N   0  0  0  0  0  0  0  0  0  0  0  0
    0.7500   -1.2990    0.0000 C   0  0  0  0  0  0  0  0  0  0  0  0
    1.5000    0.0000    0.0000 C   0  0  0  0  0  0  0  0  0  0  0  0
    0.7500    1.2990    0.0000 C   0  0  0  0  0  0  0  0  0  0  0  0
   -0.7500    1.2990    0.0000 C   0  0  0  0  0  0  0  0  0  0  0  0
   -1.5000    0.0000    0.0000 C   0  0  0  0  0  0  0  0  0  0  0  0
   -0.7500   -1.2990    0.0000 C   0  0  0  0  0  0  0  0  0  0  0  0
   -3.7548   -2.1855    0.0000 N   0  0  0  0  0  0  0  0  0  0  0  0
   -7.0990    0.8256    0.0000 C   0  0  0  0  0  0  0  0  0  0  0  0
   -6.7871    2.2929    0.0000 C   0  0  0  0  0  0  0  0  0  0  0  0
  1  2  1  0
  2  3  1  0
  3  4  2  0
  3  5  1  0
  5  6  1  0
  6  7  1  0
  7  8  1  0
  8  9  1  0
  9 10  1  0
 10 11  1  0
 11 12  2  0
 12 13  1  0
 13 14  2  0
 14 15  1  0
 14 16  1  0
 16 17  1  0
 17 18  2  0
 18 19  1  0
 19 20  1  0
 20 21  2  0
 21 22  1  0
 22 23  2  0
 23 24  1  0
 24 25  2  0
 16 26  2  0
  9 27  1  0
 27 28  1  0
 28  6  1  0
 26 11  1  0
 25 17  1  0
 25 20  1  0
M  END
>  <Compound_ID>  (265) 
CHEMBL245336

>  <Active>  (265) 
1

>  <Smiles>  (265) 
CNC(=O)CN1CCC(Nc2ncc(Cl)c(-c3c[nH]c4ccccc34)n2)CC1

>  <canonical_smi>  (265) 
CNC(=O)CN1CCC(Nc2ncc(Cl)c(-c3c[nH]c4ccccc34)n2)CC1

>  <Set>  (265) 
G2 active

>  <Set_type>  (265) 
Train

>  <MW>  (265) 
398.9

>  <HBD>  (265) 
3

>  <HBA>  (265) 
5

>  <NRB>  (265) 
5

>  <NR>  (265) 
4

>  <NAR>  (265) 
3

>  <PSA>  (265) 
85.94

>  <Standard Type>  (265) 
nan

>  <Standard Relation>  (265) 
nan

>  <Standard Units>  (265) 
nan

>  <Standard Value>  (265) 
nan

>  <Assay ChEMBL ID>  (265) 
nan

>  <Assay Description>  (265) 
nan

>  <BAO Label>  (265) 
nan

$$$$

     RDKit          2D

 26 29  0  0  0  0  0  0  0  0999 V2000
    0.7500   -3.8971    0.0000 C   0  0  0  0  0  0  0  0  0  0  0  0
    1.5000   -2.5981    0.0000 C   0  0  0  0  0  0  0  0  0  0  0  0
    3.0000   -2.5981    0.0000 C   0  0  0  0  0  0  0  0  0  0  0  0
    3.7500   -1.2990    0.0000 O   0  0  0  0  0  0  0  0  0  0  0  0
    3.7500   -3.8971    0.0000 N   0  0  0  0  0  0  0  0  0  0  0  0
    5.2500   -3.8971    0.0000 C   0  0  0  0  0  0  0  0  0  0  0  0
    6.1317   -2.6836    0.0000 C   0  0  0  0  0  0  0  0  0  0  0  0
    7.5583   -3.1471    0.0000 C   0  0  0  0  0  0  0  0  0  0  0  0
    8.7718   -2.2654    0.0000 C   0  0  0  0  0  0  0  0  0  0  0  0
    9.3819   -0.8951    0.0000 C   0  0  0  0  0  0  0  0  0  0  0  0
   10.2636   -2.1086    0.0000 C   0  0  0  0  0  0  0  0  0  0  0  0
    7.5583   -4.6471    0.0000 N   0  0  0  0  0  0  0  0  0  0  0  0
    6.1317   -5.1106    0.0000 N   0  0  0  0  0  0  0  0  0  0  0  0
    0.7500   -1.2990    0.0000 C   0  0  0  0  0  0  0  0  0  0  0  0
    1.5000    0.0000    0.0000 C   0  0  0  0  0  0  0  0  0  0  0  0
    0.7500    1.2990    0.0000 C   0  0  0  0  0  0  0  0  0  0  0  0
   -0.7500    1.2990    0.0000 C   0  0  0  0  0  0  0  0  0  0  0  0
   -1.5000    2.5981    0.0000 N   0  0  0  0  0  0  0  0  0  0  0  0
   -2.9918    2.7549    0.0000 C   0  0  0  0  0  0  0  0  0  0  0  0
   -3.9955    1.6402    0.0000 O   0  0  0  0  0  0  0  0  0  0  0  0
   -3.3037    4.2221    0.0000 C   0  0  0  0  0  0  0  0  0  0  0  0
   -2.0046    4.9721    0.0000 N   0  0  0  0  0  0  0  0  0  0  0  0
   -0.8899    3.9684    0.0000 C   0  0  0  0  0  0  0  0  0  0  0  0
    0.5773    4.2803    0.0000 O   0  0  0  0  0  0  0  0  0  0  0  0
   -1.5000    0.0000    0.0000 C   0  0  0  0  0  0  0  0  0  0  0  0
   -0.7500   -1.2990    0.0000 C   0  0  0  0  0  0  0  0  0  0  0  0
  1  2  1  0
  2  3  1  0
  3  4  2  0
  3  5  1  0
  5  6  1  0
  6  7  1  0
  7  8  2  0
  8  9  1  0
  9 10  1  0
 10 11  1  0
  8 12  1  0
 12 13  1  0
  2 14  1  0
 14 15  2  0
 15 16  1  0
 16 17  2  0
 17 18  1  0
 18 19  1  0
 19 20  2  0
 19 21  1  0
 21 22  1  0
 22 23  1  0
 23 24  2  0
 17 25  1  0
 25 26  2  0
 13  6  2  0
 26 14  1  0
 11  9  1  0
 23 18  1  0
M  END
>  <Compound_ID>  (266) 
CHEMBL372467

>  <Active>  (266) 
1

>  <Smiles>  (266) 
CC(C(=O)Nc1cc(C2CC2)[nH]n1)c1ccc(N2C(=O)CNC2=O)cc1

>  <canonical_smi>  (266) 
CC(C(=O)Nc1cc(C2CC2)[nH]n1)c1ccc(N2C(=O)CNC2=O)cc1

>  <Set>  (266) 
G2 active

>  <Set_type>  (266) 
Train

>  <MW>  (266) 
353.38

>  <HBD>  (266) 
3

>  <HBA>  (266) 
4

>  <NRB>  (266) 
5

>  <NR>  (266) 
4

>  <NAR>  (266) 
2

>  <PSA>  (266) 
107.19

>  <Standard Type>  (266) 
nan

>  <Standard Relation>  (266) 
nan

>  <Standard Units>  (266) 
nan

>  <Standard Value>  (266) 
nan

>  <Assay ChEMBL ID>  (266) 
nan

>  <Assay Description>  (266) 
nan

>  <BAO Label>  (266) 
nan

$$$$

     RDKit          2D

 30 33  0  0  0  0  0  0  0  0999 V2000
   -1.5342  -12.0455    0.0000 N   0  0  0  0  0  0  0  0  0  0  0  0
   -2.9046  -11.4354    0.0000 C   0  0  0  0  0  0  0  0  0  0  0  0
   -3.0613   -9.9436    0.0000 C   0  0  0  0  0  0  0  0  0  0  0  0
   -1.8478   -9.0619    0.0000 N   0  0  0  0  0  0  0  0  0  0  0  0
   -2.0046   -7.5702    0.0000 C   0  0  0  0  0  0  0  0  0  0  0  0
   -3.3037   -6.8202    0.0000 N   0  0  0  0  0  0  0  0  0  0  0  0
   -2.9918   -5.3529    0.0000 C   0  0  0  0  0  0  0  0  0  0  0  0
   -1.5000   -5.1962    0.0000 C   0  0  0  0  0  0  0  0  0  0  0  0
   -0.7500   -3.8971    0.0000 C   0  0  0  0  0  0  0  0  0  0  0  0
    0.7500   -3.8971    0.0000 C   0  0  0  0  0  0  0  0  0  0  0  0
    1.5000   -2.5981    0.0000 C   0  0  0  0  0  0  0  0  0  0  0  0
    0.7500   -1.2990    0.0000 C   0  0  0  0  0  0  0  0  0  0  0  0
    1.5000    0.0000    0.0000 C   0  0  0  0  0  0  0  0  0  0  0  0
    0.7500    1.2990    0.0000 N   0  0  0  0  0  0  0  0  0  0  0  0
   -0.7500    1.2990    0.0000 C   0  0  0  0  0  0  0  0  0  0  0  0
   -1.5000    0.0000    0.0000 N   0  0  0  0  0  0  0  0  0  0  0  0
   -0.7500   -1.2990    0.0000 C   0  0  0  0  0  0  0  0  0  0  0  0
   -1.5000   -2.5981    0.0000 C   0  0  0  0  0  0  0  0  0  0  0  0
   -0.8899   -6.5665    0.0000 S   0  0  0  0  0  0  0  0  0  0  0  0
   -4.1181  -12.3171    0.0000 C   0  0  0  0  0  0  0  0  0  0  0  0
   -3.9613  -13.8089    0.0000 C   0  0  0  0  0  0  0  0  0  0  0  0
   -5.1748  -14.6905    0.0000 C   0  0  0  0  0  0  0  0  0  0  0  0
   -5.0180  -16.1823    0.0000 C   0  0  0  0  0  0  0  0  0  0  0  0
   -3.6477  -16.7924    0.0000 C   0  0  0  0  0  0  0  0  0  0  0  0
   -3.4909  -18.2842    0.0000 C   0  0  0  0  0  0  0  0  0  0  0  0
   -3.3341  -19.7760    0.0000 F   0  0  0  0  0  0  0  0  0  0  0  0
   -4.9827  -18.4410    0.0000 F   0  0  0  0  0  0  0  0  0  0  0  0
   -1.9991  -18.1274    0.0000 F   0  0  0  0  0  0  0  0  0  0  0  0
   -2.4342  -15.9108    0.0000 C   0  0  0  0  0  0  0  0  0  0  0  0
   -2.5910  -14.4190    0.0000 C   0  0  0  0  0  0  0  0  0  0  0  0
  2  1  1  1
  2  3  1  0
  3  4  1  0
  4  5  1  0
  5  6  2  0
  6  7  1  0
  7  8  2  0
  8  9  1  0
  9 10  2  0
 10 11  1  0
 11 12  2  0
 12 13  1  0
 13 14  2  0
 14 15  1  0
 15 16  2  0
 16 17  1  0
 17 18  2  0
  8 19  1  0
  2 20  1  0
 20 21  1  0
 21 22  2  0
 22 23  1  0
 23 24  2  0
 24 25  1  0
 25 26  1  0
 25 27  1  0
 25 28  1  0
 24 29  1  0
 29 30  2  0
 19  5  1  0
 30 21  1  0
 18  9  1  0
 17 12  1  0
M  END
>  <Compound_ID>  (267) 
CHEMBL1081296

>  <Active>  (267) 
1

>  <Smiles>  (267) 
N[C@H](CNc1ncc(-c2ccc3cncnc3c2)s1)Cc1ccc(C(F)(F)F)cc1

>  <canonical_smi>  (267) 
N[C@H](CNc1ncc(-c2ccc3cncnc3c2)s1)Cc1ccc(C(F)(F)F)cc1

>  <Set>  (267) 
G2 active

>  <Set_type>  (267) 
Train

>  <MW>  (267) 
429.47

>  <HBD>  (267) 
2

>  <HBA>  (267) 
5

>  <NRB>  (267) 
6

>  <NR>  (267) 
4

>  <NAR>  (267) 
4

>  <PSA>  (267) 
76.72

>  <Standard Type>  (267) 
nan

>  <Standard Relation>  (267) 
nan

>  <Standard Units>  (267) 
nan

>  <Standard Value>  (267) 
nan

>  <Assay ChEMBL ID>  (267) 
nan

>  <Assay Description>  (267) 
nan

>  <BAO Label>  (267) 
nan

$$$$

     RDKit          2D

 30 33  0  0  0  0  0  0  0  0999 V2000
    7.4146   -6.0524    0.0000 N   0  0  0  0  0  0  0  0  0  0  0  0
    6.2011   -6.9341    0.0000 C   0  0  0  0  0  0  0  0  0  0  0  0
    4.8308   -6.3240    0.0000 C   0  0  0  0  0  0  0  0  0  0  0  0
    4.6740   -4.8322    0.0000 N   0  0  0  0  0  0  0  0  0  0  0  0
    3.3037   -4.2221    0.0000 C   0  0  0  0  0  0  0  0  0  0  0  0
    2.0046   -4.9721    0.0000 N   0  0  0  0  0  0  0  0  0  0  0  0
    0.8899   -3.9684    0.0000 C   0  0  0  0  0  0  0  0  0  0  0  0
    1.5000   -2.5981    0.0000 C   0  0  0  0  0  0  0  0  0  0  0  0
    0.7500   -1.2990    0.0000 C   0  0  0  0  0  0  0  0  0  0  0  0
    1.5000    0.0000    0.0000 C   0  0  0  0  0  0  0  0  0  0  0  0
    0.7500    1.2990    0.0000 C   0  0  0  0  0  0  0  0  0  0  0  0
   -0.7500    1.2990    0.0000 C   0  0  0  0  0  0  0  0  0  0  0  0
   -1.7537    2.4138    0.0000 N   0  0  0  0  0  0  0  0  0  0  0  0
   -3.1240    1.8037    0.0000 C   0  0  0  0  0  0  0  0  0  0  0  0
   -4.4231    2.5537    0.0000 O   0  0  0  0  0  0  0  0  0  0  0  0
   -2.9672    0.3119    0.0000 O   0  0  0  0  0  0  0  0  0  0  0  0
   -1.5000    0.0000    0.0000 C   0  0  0  0  0  0  0  0  0  0  0  0
   -0.7500   -1.2990    0.0000 C   0  0  0  0  0  0  0  0  0  0  0  0
    2.9918   -2.7549    0.0000 S   0  0  0  0  0  0  0  0  0  0  0  0
    6.3579   -8.4259    0.0000 C   0  0  0  0  0  0  0  0  0  0  0  0
    7.7282   -9.0360    0.0000 C   0  0  0  0  0  0  0  0  0  0  0  0
    7.8850  -10.5278    0.0000 C   0  0  0  0  0  0  0  0  0  0  0  0
    9.2553  -11.1379    0.0000 C   0  0  0  0  0  0  0  0  0  0  0  0
   10.4688  -10.2562    0.0000 C   0  0  0  0  0  0  0  0  0  0  0  0
   11.8391  -10.8663    0.0000 C   0  0  0  0  0  0  0  0  0  0  0  0
   13.2095  -11.4764    0.0000 F   0  0  0  0  0  0  0  0  0  0  0  0
   11.2290  -12.2366    0.0000 F   0  0  0  0  0  0  0  0  0  0  0  0
   12.4492   -9.4960    0.0000 F   0  0  0  0  0  0  0  0  0  0  0  0
   10.3120   -8.7644    0.0000 C   0  0  0  0  0  0  0  0  0  0  0  0
    8.9417   -8.1543    0.0000 C   0  0  0  0  0  0  0  0  0  0  0  0
  2  1  1  1
  2  3  1  0
  3  4  1  0
  4  5  1  0
  5  6  2  0
  6  7  1  0
  7  8  2  0
  8  9  1  0
  9 10  2  0
 10 11  1  0
 11 12  2  0
 12 13  1  0
 13 14  1  0
 14 15  2  0
 14 16  1  0
 16 17  1  0
 17 18  2  0
  8 19  1  0
  2 20  1  0
 20 21  1  0
 21 22  2  0
 22 23  1  0
 23 24  2  0
 24 25  1  0
 25 26  1  0
 25 27  1  0
 25 28  1  0
 24 29  1  0
 29 30  2  0
 19  5  1  0
 30 21  1  0
 18  9  1  0
 17 12  1  0
M  END
>  <Compound_ID>  (268) 
CHEMBL1081852

>  <Active>  (268) 
1

>  <Smiles>  (268) 
N[C@H](CNc1ncc(-c2ccc3[nH]c(=O)oc3c2)s1)Cc1ccc(C(F)(F)F)cc1

>  <canonical_smi>  (268) 
N[C@H](CNc1ncc(-c2ccc3[nH]c(=O)oc3c2)s1)Cc1ccc(C(F)(F)F)cc1

>  <Set>  (268) 
G2 active

>  <Set_type>  (268) 
Train

>  <MW>  (268) 
434.44

>  <HBD>  (268) 
3

>  <HBA>  (268) 
5

>  <NRB>  (268) 
6

>  <NR>  (268) 
4

>  <NAR>  (268) 
4

>  <PSA>  (268) 
96.94

>  <Standard Type>  (268) 
nan

>  <Standard Relation>  (268) 
nan

>  <Standard Units>  (268) 
nan

>  <Standard Value>  (268) 
nan

>  <Assay ChEMBL ID>  (268) 
nan

>  <Assay Description>  (268) 
nan

>  <BAO Label>  (268) 
nan

$$$$

     RDKit          2D

 20 23  0  0  0  0  0  0  0  0999 V2000
    5.2500   -1.2990    0.0000 N   0  0  0  0  0  0  0  0  0  0  0  0
    3.7500   -1.2990    0.0000 C   0  0  0  0  0  0  0  0  0  0  0  0
    3.0000   -2.5981    0.0000 O   0  0  0  0  0  0  0  0  0  0  0  0
    3.0000    0.0000    0.0000 N   0  0  0  0  0  0  0  0  0  0  0  0
    1.5000    0.0000    0.0000 C   0  0  0  0  0  0  0  0  0  0  0  0
    0.7500   -1.2990    0.0000 C   0  0  0  0  0  0  0  0  0  0  0  0
   -0.7500   -1.2990    0.0000 C   0  0  0  0  0  0  0  0  0  0  0  0
   -1.5000    0.0000    0.0000 C   0  0  0  0  0  0  0  0  0  0  0  0
   -0.7500    1.2990    0.0000 C   0  0  0  0  0  0  0  0  0  0  0  0
    0.7500    1.2990    0.0000 C   0  0  0  0  0  0  0  0  0  0  0  0
    1.2135    2.7256    0.0000 C   0  0  0  0  0  0  0  0  0  0  0  0
    2.6401    3.1891    0.0000 O   0  0  0  0  0  0  0  0  0  0  0  0
    0.0000    3.6073    0.0000 C   0  0  0  0  0  0  0  0  0  0  0  0
   -0.4635    5.0339    0.0000 C   0  0  0  0  0  0  0  0  0  0  0  0
    0.4182    6.2474    0.0000 C   0  0  0  0  0  0  0  0  0  0  0  0
    0.5749    7.7392    0.0000 C   0  0  0  0  0  0  0  0  0  0  0  0
    1.7885    6.8575    0.0000 C   0  0  0  0  0  0  0  0  0  0  0  0
   -1.9635    5.0339    0.0000 N   0  0  0  0  0  0  0  0  0  0  0  0
   -2.4271    3.6073    0.0000 N   0  0  0  0  0  0  0  0  0  0  0  0
   -1.2135    2.7256    0.0000 C   0  0  0  0  0  0  0  0  0  0  0  0
  1  2  1  0
  2  3  2  0
  2  4  1  0
  4  5  1  0
  5  6  2  0
  6  7  1  0
  7  8  2  0
  8  9  1  0
  9 10  2  0
 10 11  1  0
 11 12  2  0
 11 13  1  0
 13 14  1  0
 14 15  1  0
 15 16  1  0
 16 17  1  0
 14 18  2  0
 18 19  1  0
 19 20  1  0
 10  5  1  0
 20 13  2  0
 20  9  1  0
 17 15  1  0
M  END
>  <Compound_ID>  (269) 
CHEMBL148865

>  <Active>  (269) 
1

>  <Smiles>  (269) 
NC(=O)Nc1cccc2c1C(=O)c1c(C3CC3)n[nH]c1-2

>  <canonical_smi>  (269) 
NC(=O)Nc1cccc2c1C(=O)c1c(C3CC3)n[nH]c1-2

>  <Set>  (269) 
G2 active

>  <Set_type>  (269) 
Train

>  <MW>  (269) 
268.28

>  <HBD>  (269) 
3

>  <HBA>  (269) 
3

>  <NRB>  (269) 
2

>  <NR>  (269) 
4

>  <NAR>  (269) 
3

>  <PSA>  (269) 
100.87

>  <Standard Type>  (269) 
nan

>  <Standard Relation>  (269) 
nan

>  <Standard Units>  (269) 
nan

>  <Standard Value>  (269) 
nan

>  <Assay ChEMBL ID>  (269) 
nan

>  <Assay Description>  (269) 
nan

>  <BAO Label>  (269) 
nan

$$$$

     RDKit          2D

 23 24  0  0  0  0  0  0  0  0999 V2000
    5.7760   -2.5981    0.0000 C   0  0  0  0  0  0  0  0  0  0  0  0
    5.0260   -1.2990    0.0000 C   0  0  0  0  0  0  0  0  0  0  0  0
    5.7760    0.0000    0.0000 C   0  0  0  0  0  0  0  0  0  0  0  0
    3.5260   -1.2990    0.0000 C   0  0  0  0  0  0  0  0  0  0  0  0
    2.7760   -2.5981    0.0000 O   0  0  0  0  0  0  0  0  0  0  0  0
    2.7760    0.0000    0.0000 N   0  0  0  0  0  0  0  0  0  0  0  0
    1.2760    0.0000    0.0000 C   0  0  0  0  0  0  0  0  0  0  0  0
    0.3943    1.2135    0.0000 N   0  0  0  0  0  0  0  0  0  0  0  0
   -1.0323    0.7500    0.0000 C   0  0  0  0  0  0  0  0  0  0  0  0
   -1.0323   -0.7500    0.0000 C   0  0  0  0  0  0  0  0  0  0  0  0
   -2.2458   -1.6317    0.0000 S   0  0  0  0  0  0  0  0  0  0  0  0
   -2.0890   -3.1235    0.0000 O   0  0  0  0  0  0  0  0  0  0  0  0
   -3.6161   -1.0216    0.0000 C   0  0  0  0  0  0  0  0  0  0  0  0
   -4.8297   -1.9033    0.0000 C   0  0  0  0  0  0  0  0  0  0  0  0
   -4.8297   -3.4033    0.0000 N   0  0  0  0  0  0  0  0  0  0  0  0
   -6.2562   -3.8668    0.0000 C   0  0  0  0  0  0  0  0  0  0  0  0
   -7.1379   -2.6533    0.0000 C   0  0  0  0  0  0  0  0  0  0  0  0
   -8.6379   -2.6533    0.0000 C   0  0  0  0  0  0  0  0  0  0  0  0
   -8.6379   -1.1533    0.0000 C   0  0  0  0  0  0  0  0  0  0  0  0
   -8.6379   -4.1533    0.0000 C   0  0  0  0  0  0  0  0  0  0  0  0
  -10.1379   -2.6533    0.0000 C   0  0  0  0  0  0  0  0  0  0  0  0
   -6.2562   -1.4397    0.0000 O   0  0  0  0  0  0  0  0  0  0  0  0
    0.3943   -1.2135    0.0000 S   0  0  0  0  0  0  0  0  0  0  0  0
  1  2  1  0
  2  3  1  0
  2  4  1  0
  4  5  2  0
  4  6  1  0
  6  7  1  0
  7  8  2  0
  8  9  1  0
  9 10  2  0
 10 11  1  0
 11 12  2  0
 11 13  1  0
 13 14  1  0
 14 15  2  0
 15 16  1  0
 16 17  2  0
 17 18  1  0
 18 19  1  0
 18 20  1  0
 18 21  1  0
 17 22  1  0
 10 23  1  0
 23  7  1  0
 22 14  1  0
M  END
>  <Compound_ID>  (270) 
CHEMBL126782

>  <Active>  (270) 
1

>  <Smiles>  (270) 
CC(C)C(=O)Nc1ncc(S(=O)Cc2ncc(C(C)(C)C)o2)s1

>  <canonical_smi>  (270) 
CC(C)C(=O)Nc1ncc(S(=O)Cc2ncc(C(C)(C)C)o2)s1

>  <Set>  (270) 
G2 active

>  <Set_type>  (270) 
Train

>  <MW>  (270) 
355.49

>  <HBD>  (270) 
1

>  <HBA>  (270) 
5

>  <NRB>  (270) 
5

>  <NR>  (270) 
2

>  <NAR>  (270) 
2

>  <PSA>  (270) 
85.09

>  <Standard Type>  (270) 
nan

>  <Standard Relation>  (270) 
nan

>  <Standard Units>  (270) 
nan

>  <Standard Value>  (270) 
nan

>  <Assay ChEMBL ID>  (270) 
nan

>  <Assay Description>  (270) 
nan

>  <BAO Label>  (270) 
nan

$$$$

     RDKit          2D

 30 34  0  0  0  0  0  0  0  0999 V2000
    3.4430   -7.9964    0.0000 O   0  0  0  0  0  0  0  0  0  0  0  0
    3.7548   -6.5291    0.0000 C   0  0  0  0  0  0  0  0  0  0  0  0
    2.6401   -5.5255    0.0000 N   0  0  0  0  0  0  0  0  0  0  0  0
    1.2135   -5.9890    0.0000 C   0  0  0  0  0  0  0  0  0  0  0  0
    0.7500   -7.4156    0.0000 C   0  0  0  0  0  0  0  0  0  0  0  0
   -0.7500   -7.4156    0.0000 N   0  0  0  0  0  0  0  0  0  0  0  0
   -1.2135   -5.9890    0.0000 N   0  0  0  0  0  0  0  0  0  0  0  0
   -0.0000   -5.1073    0.0000 C   0  0  0  0  0  0  0  0  0  0  0  0
   -0.0000   -3.6073    0.0000 C   0  0  0  0  0  0  0  0  0  0  0  0
    1.2135   -2.7256    0.0000 N   0  0  0  0  0  0  0  0  0  0  0  0
    0.7500   -1.2990    0.0000 C   0  0  0  0  0  0  0  0  0  0  0  0
    1.5000    0.0000    0.0000 C   0  0  0  0  0  0  0  0  0  0  0  0
    0.7500    1.2990    0.0000 C   0  0  0  0  0  0  0  0  0  0  0  0
    1.5000    2.5981    0.0000 C   0  0  0  0  0  0  0  0  0  0  0  0
    3.0000    2.5981    0.0000 N   0  0  0  0  0  0  0  0  0  0  0  0
    3.7500    1.2990    0.0000 C   0  0  0  0  0  0  0  0  0  0  0  0
    5.2500    1.2990    0.0000 C   0  0  0  0  0  0  0  0  0  0  0  0
    6.0000    2.5981    0.0000 O   0  0  0  0  0  0  0  0  0  0  0  0
    5.2500    3.8971    0.0000 C   0  0  0  0  0  0  0  0  0  0  0  0
    3.7500    3.8971    0.0000 C   0  0  0  0  0  0  0  0  0  0  0  0
   -0.7500    1.2990    0.0000 C   0  0  0  0  0  0  0  0  0  0  0  0
   -1.5000    0.0000    0.0000 C   0  0  0  0  0  0  0  0  0  0  0  0
   -0.7500   -1.2990    0.0000 C   0  0  0  0  0  0  0  0  0  0  0  0
   -1.2135   -2.7256    0.0000 N   0  0  0  0  0  0  0  0  0  0  0  0
    5.1814   -6.0656    0.0000 C   0  0  0  0  0  0  0  0  0  0  0  0
    6.2961   -7.0693    0.0000 C   0  0  0  0  0  0  0  0  0  0  0  0
    7.7227   -6.6058    0.0000 C   0  0  0  0  0  0  0  0  0  0  0  0
    8.0346   -5.1386    0.0000 C   0  0  0  0  0  0  0  0  0  0  0  0
    6.9199   -4.1349    0.0000 C   0  0  0  0  0  0  0  0  0  0  0  0
    5.4933   -4.5984    0.0000 C   0  0  0  0  0  0  0  0  0  0  0  0
  1  2  2  0
  2  3  1  0
  3  4  1  0
  4  5  2  0
  5  6  1  0
  6  7  1  0
  7  8  2  0
  8  9  1  0
  9 10  2  0
 10 11  1  0
 11 12  2  0
 12 13  1  0
 13 14  1  0
 14 15  1  0
 15 16  1  0
 16 17  1  0
 17 18  1  0
 18 19  1  0
 19 20  1  0
 13 21  2  0
 21 22  1  0
 22 23  2  0
 23 24  1  0
  2 25  1  0
 25 26  2  0
 26 27  1  0
 27 28  2  0
 28 29  1  0
 29 30  2  0
  8  4  1  0
 24  9  1  0
 30 25  1  0
 23 11  1  0
 20 15  1  0
M  END
>  <Compound_ID>  (271) 
CHEMBL496569

>  <Active>  (271) 
1

>  <Smiles>  (271) 
O=C(Nc1c[nH]nc1-c1nc2cc(CN3CCOCC3)ccc2[nH]1)c1ccccc1

>  <canonical_smi>  (271) 
O=C(Nc1c[nH]nc1-c1nc2cc(CN3CCOCC3)ccc2[nH]1)c1ccccc1

>  <Set>  (271) 
G2 active

>  <Set_type>  (271) 
Train

>  <MW>  (271) 
402.46

>  <HBD>  (271) 
3

>  <HBA>  (271) 
5

>  <NRB>  (271) 
5

>  <NR>  (271) 
5

>  <NAR>  (271) 
4

>  <PSA>  (271) 
98.93

>  <Standard Type>  (271) 
nan

>  <Standard Relation>  (271) 
nan

>  <Standard Units>  (271) 
nan

>  <Standard Value>  (271) 
nan

>  <Assay ChEMBL ID>  (271) 
nan

>  <Assay Description>  (271) 
nan

>  <BAO Label>  (271) 
nan

$$$$

     RDKit          2D

 29 32  0  0  0  0  0  0  0  0999 V2000
   -0.7500   -6.4952    0.0000 C   0  0  0  0  0  0  0  0  0  0  0  0
   -1.5000   -5.1962    0.0000 O   0  0  0  0  0  0  0  0  0  0  0  0
   -0.7500   -3.8971    0.0000 C   0  0  0  0  0  0  0  0  0  0  0  0
    0.7500   -3.8971    0.0000 C   0  0  0  0  0  0  0  0  0  0  0  0
    1.5000   -2.5981    0.0000 C   0  0  0  0  0  0  0  0  0  0  0  0
    0.7500   -1.2990    0.0000 C   0  0  0  0  0  0  0  0  0  0  0  0
    1.5000    0.0000    0.0000 C   0  0  0  0  0  0  0  0  0  0  0  0
    0.7500    1.2990    0.0000 N   0  0  0  0  0  0  0  0  0  0  0  0
   -0.7500    1.2990    0.0000 C   0  0  0  0  0  0  0  0  0  0  0  0
   -1.5000    2.5981    0.0000 N   0  0  0  0  0  0  0  0  0  0  0  0
   -0.7500    3.8971    0.0000 C   0  0  0  0  0  0  0  0  0  0  0  0
    0.7500    3.8971    0.0000 C   0  0  0  0  0  0  0  0  0  0  0  0
    1.5000    5.1962    0.0000 C   0  0  0  0  0  0  0  0  0  0  0  0
    0.7500    6.4952    0.0000 C   0  0  0  0  0  0  0  0  0  0  0  0
    1.5000    7.7942    0.0000 N   0  0  0  0  0  0  0  0  0  0  0  0
    3.0000    7.7942    0.0000 C   0  0  0  0  0  0  0  0  0  0  0  0
    3.7500    9.0933    0.0000 C   0  0  0  0  0  0  0  0  0  0  0  0
    3.0000   10.3923    0.0000 N   0  0  0  0  0  0  0  0  0  0  0  0
    1.5000   10.3923    0.0000 C   0  0  0  0  0  0  0  0  0  0  0  0
    0.7500    9.0933    0.0000 C   0  0  0  0  0  0  0  0  0  0  0  0
   -0.7500    6.4952    0.0000 C   0  0  0  0  0  0  0  0  0  0  0  0
   -1.5000    7.7942    0.0000 F   0  0  0  0  0  0  0  0  0  0  0  0
   -1.5000    5.1962    0.0000 C   0  0  0  0  0  0  0  0  0  0  0  0
   -1.5000    0.0000    0.0000 N   0  0  0  0  0  0  0  0  0  0  0  0
   -0.7500   -1.2990    0.0000 C   0  0  0  0  0  0  0  0  0  0  0  0
   -1.5000   -2.5981    0.0000 C   0  0  0  0  0  0  0  0  0  0  0  0
   -3.0000   -2.5981    0.0000 C   0  0  0  0  0  0  0  0  0  0  0  0
   -3.7500   -3.8971    0.0000 C   0  0  0  0  0  0  0  0  0  0  0  0
   -3.7500   -1.2990    0.0000 C   0  0  0  0  0  0  0  0  0  0  0  0
  1  2  1  0
  2  3  1  0
  3  4  2  0
  4  5  1  0
  5  6  2  0
  6  7  1  0
  7  8  2  0
  8  9  1  0
  9 10  1  0
 10 11  1  0
 11 12  2  0
 12 13  1  0
 13 14  2  0
 14 15  1  0
 15 16  1  0
 16 17  1  0
 17 18  1  0
 18 19  1  0
 19 20  1  0
 14 21  1  0
 21 22  1  0
 21 23  2  0
  9 24  2  0
 24 25  1  0
 25 26  2  0
 26 27  1  0
 27 28  1  0
 27 29  1  0
 26  3  1  0
 25  6  1  0
 23 11  1  0
 20 15  1  0
M  END
>  <Compound_ID>  (272) 
CHEMBL182498

>  <Active>  (272) 
1

>  <Smiles>  (272) 
COc1ccc2cnc(Nc3ccc(N4CCNCC4)c(F)c3)nc2c1C(C)C

>  <canonical_smi>  (272) 
COc1ccc2cnc(Nc3ccc(N4CCNCC4)c(F)c3)nc2c1C(C)C

>  <Set>  (272) 
G2 active

>  <Set_type>  (272) 
Train

>  <MW>  (272) 
395.48

>  <HBD>  (272) 
2

>  <HBA>  (272) 
6

>  <NRB>  (272) 
5

>  <NR>  (272) 
4

>  <NAR>  (272) 
3

>  <PSA>  (272) 
62.31

>  <Standard Type>  (272) 
nan

>  <Standard Relation>  (272) 
nan

>  <Standard Units>  (272) 
nan

>  <Standard Value>  (272) 
nan

>  <Assay ChEMBL ID>  (272) 
nan

>  <Assay Description>  (272) 
nan

>  <BAO Label>  (272) 
nan

$$$$

     RDKit          2D

 27 29  0  0  0  0  0  0  0  0999 V2000
    7.4557  -15.8033    0.0000 C   0  0  0  0  0  0  0  0  0  0  0  0
    8.7547  -15.0533    0.0000 C   0  0  0  0  0  0  0  0  0  0  0  0
   10.0538  -14.3033    0.0000 C   0  0  0  0  0  0  0  0  0  0  0  0
    9.5047  -16.3523    0.0000 C   0  0  0  0  0  0  0  0  0  0  0  0
    8.0047  -13.7542    0.0000 C   0  0  0  0  0  0  0  0  0  0  0  0
    8.6148  -12.3839    0.0000 C   0  0  0  0  0  0  0  0  0  0  0  0
    7.5001  -11.3802    0.0000 N   0  0  0  0  0  0  0  0  0  0  0  0
    6.2011  -12.1302    0.0000 C   0  0  0  0  0  0  0  0  0  0  0  0
    4.8308  -11.5201    0.0000 C   0  0  0  0  0  0  0  0  0  0  0  0
    4.6740  -10.0283    0.0000 S   0  0  0  0  0  0  0  0  0  0  0  0
    3.3037   -9.4182    0.0000 C   0  0  0  0  0  0  0  0  0  0  0  0
    2.0046  -10.1682    0.0000 C   0  0  0  0  0  0  0  0  0  0  0  0
    0.8899   -9.1645    0.0000 N   0  0  0  0  0  0  0  0  0  0  0  0
    1.5000   -7.7942    0.0000 C   0  0  0  0  0  0  0  0  0  0  0  0
    0.7500   -6.4952    0.0000 N   0  0  0  0  0  0  0  0  0  0  0  0
    1.5000   -5.1962    0.0000 C   0  0  0  0  0  0  0  0  0  0  0  0
    3.0000   -5.1962    0.0000 O   0  0  0  0  0  0  0  0  0  0  0  0
    0.7500   -3.8971    0.0000 O   0  0  0  0  0  0  0  0  0  0  0  0
    1.5000   -2.5981    0.0000 C   0  0  0  0  0  0  0  0  0  0  0  0
    0.7500   -1.2990    0.0000 C   0  0  0  0  0  0  0  0  0  0  0  0
    1.5000    0.0000    0.0000 C   0  0  0  0  0  0  0  0  0  0  0  0
    0.7500    1.2990    0.0000 C   0  0  0  0  0  0  0  0  0  0  0  0
   -0.7500    1.2990    0.0000 C   0  0  0  0  0  0  0  0  0  0  0  0
   -1.5000    0.0000    0.0000 C   0  0  0  0  0  0  0  0  0  0  0  0
   -0.7500   -1.2990    0.0000 C   0  0  0  0  0  0  0  0  0  0  0  0
    2.9918   -7.9510    0.0000 S   0  0  0  0  0  0  0  0  0  0  0  0
    6.5129  -13.5975    0.0000 O   0  0  0  0  0  0  0  0  0  0  0  0
  1  2  1  0
  2  3  1  0
  2  4  1  0
  2  5  1  0
  5  6  2  0
  6  7  1  0
  7  8  2  0
  8  9  1  0
  9 10  1  0
 10 11  1  0
 11 12  2  0
 12 13  1  0
 13 14  2  0
 14 15  1  0
 15 16  1  0
 16 17  2  0
 16 18  1  0
 18 19  1  0
 19 20  1  0
 20 21  2  0
 21 22  1  0
 22 23  2  0
 23 24  1  0
 24 25  2  0
 14 26  1  0
  8 27  1  0
 27  5  1  0
 26 11  1  0
 25 20  1  0
M  END
>  <Compound_ID>  (273) 
CHEMBL129475

>  <Active>  (273) 
1

>  <Smiles>  (273) 
CC(C)(C)c1cnc(CSc2cnc(NC(=O)OCc3ccccc3)s2)o1

>  <canonical_smi>  (273) 
CC(C)(C)c1cnc(CSc2cnc(NC(=O)OCc3ccccc3)s2)o1

>  <Set>  (273) 
G2 active

>  <Set_type>  (273) 
Train

>  <MW>  (273) 
403.53

>  <HBD>  (273) 
1

>  <HBA>  (273) 
6

>  <NRB>  (273) 
6

>  <NR>  (273) 
3

>  <NAR>  (273) 
3

>  <PSA>  (273) 
77.25

>  <Standard Type>  (273) 
nan

>  <Standard Relation>  (273) 
nan

>  <Standard Units>  (273) 
nan

>  <Standard Value>  (273) 
nan

>  <Assay ChEMBL ID>  (273) 
nan

>  <Assay Description>  (273) 
nan

>  <BAO Label>  (273) 
nan

$$$$

     RDKit          2D

 31 35  0  0  0  0  0  0  0  0999 V2000
   -9.6388   -8.7954    0.0000 C   0  0  0  0  0  0  0  0  0  0  0  0
   -8.8888   -7.4964    0.0000 N   0  0  0  0  0  0  0  0  0  0  0  0
   -9.6388   -6.1973    0.0000 C   0  0  0  0  0  0  0  0  0  0  0  0
   -8.8888   -4.8983    0.0000 C   0  0  0  0  0  0  0  0  0  0  0  0
   -7.3888   -4.8983    0.0000 N   0  0  0  0  0  0  0  0  0  0  0  0
   -6.6388   -3.5992    0.0000 S   0  0  0  0  0  0  0  0  0  0  0  0
   -7.9378   -2.8492    0.0000 O   0  0  0  0  0  0  0  0  0  0  0  0
   -5.3397   -4.3492    0.0000 O   0  0  0  0  0  0  0  0  0  0  0  0
   -5.8888   -2.3002    0.0000 C   0  0  0  0  0  0  0  0  0  0  0  0
   -4.3888   -2.3002    0.0000 C   0  0  0  0  0  0  0  0  0  0  0  0
   -3.6388   -1.0012    0.0000 C   0  0  0  0  0  0  0  0  0  0  0  0
   -4.3888    0.2979    0.0000 C   0  0  0  0  0  0  0  0  0  0  0  0
   -3.6388    1.5969    0.0000 N   0  0  0  0  0  0  0  0  0  0  0  0
   -4.2489    2.9672    0.0000 N   0  0  0  0  0  0  0  0  0  0  0  0
   -3.1342    3.9709    0.0000 C   0  0  0  0  0  0  0  0  0  0  0  0
   -3.2910    5.4627    0.0000 C   0  0  0  0  0  0  0  0  0  0  0  0
   -4.6613    6.0728    0.0000 N   0  0  0  0  0  0  0  0  0  0  0  0
   -2.0774    6.3444    0.0000 O   0  0  0  0  0  0  0  0  0  0  0  0
   -1.8351    3.2209    0.0000 C   0  0  0  0  0  0  0  0  0  0  0  0
   -0.4086    3.6844    0.0000 C   0  0  0  0  0  0  0  0  0  0  0  0
    0.7062    2.6807    0.0000 C   0  0  0  0  0  0  0  0  0  0  0  0
    0.3943    1.2135    0.0000 C   0  0  0  0  0  0  0  0  0  0  0  0
    1.2760    0.0000    0.0000 N   0  0  0  0  0  0  0  0  0  0  0  0
    0.3943   -1.2135    0.0000 N   0  0  0  0  0  0  0  0  0  0  0  0
   -1.0323   -0.7500    0.0000 C   0  0  0  0  0  0  0  0  0  0  0  0
   -1.0323    0.7500    0.0000 C   0  0  0  0  0  0  0  0  0  0  0  0
   -2.1470    1.7537    0.0000 C   0  0  0  0  0  0  0  0  0  0  0  0
   -5.8888    0.2979    0.0000 C   0  0  0  0  0  0  0  0  0  0  0  0
   -6.6388   -1.0012    0.0000 C   0  0  0  0  0  0  0  0  0  0  0  0
   -6.6388   -6.1973    0.0000 C   0  0  0  0  0  0  0  0  0  0  0  0
   -7.3888   -7.4964    0.0000 C   0  0  0  0  0  0  0  0  0  0  0  0
  1  2  1  0
  2  3  1  0
  3  4  1  0
  4  5  1  0
  5  6  1  0
  6  7  2  0
  6  8  2  0
  6  9  1  0
  9 10  2  0
 10 11  1  0
 11 12  2  0
 12 13  1  0
 13 14  1  0
 14 15  2  0
 15 16  1  0
 16 17  1  0
 16 18  2  0
 15 19  1  0
 19 20  2  0
 20 21  1  0
 21 22  2  0
 22 23  1  0
 23 24  1  0
 24 25  2  0
 25 26  1  0
 26 27  2  0
 12 28  1  0
 28 29  2  0
  5 30  1  0
 30 31  1  0
 31  2  1  0
 29  9  1  0
 27 13  1  0
 27 19  1  0
 26 22  1  0
M  END
>  <Compound_ID>  (274) 
CHEMBL360695

>  <Active>  (274) 
1

>  <Smiles>  (274) 
CN1CCN(S(=O)(=O)c2ccc(-n3nc(C(N)=O)c4ccc5[nH]ncc5c43)cc2)CC1

>  <canonical_smi>  (274) 
CN1CCN(S(=O)(=O)c2ccc(-n3nc(C(N)=O)c4ccc5[nH]ncc5c43)cc2)CC1

>  <Set>  (274) 
G2 active

>  <Set_type>  (274) 
Train

>  <MW>  (274) 
439.5

>  <HBD>  (274) 
2

>  <HBA>  (274) 
6

>  <NRB>  (274) 
4

>  <NR>  (274) 
5

>  <NAR>  (274) 
4

>  <PSA>  (274) 
130.21

>  <Standard Type>  (274) 
nan

>  <Standard Relation>  (274) 
nan

>  <Standard Units>  (274) 
nan

>  <Standard Value>  (274) 
nan

>  <Assay ChEMBL ID>  (274) 
nan

>  <Assay Description>  (274) 
nan

>  <BAO Label>  (274) 
nan

$$$$

     RDKit          2D

 30 33  0  0  0  0  0  0  0  0999 V2000
   -1.6317   -0.0855    0.0000 C   0  0  0  0  0  0  0  0  0  0  0  0
   -0.7500   -1.2990    0.0000 N   0  0  0  0  0  0  0  0  0  0  0  0
    0.7500   -1.2990    0.0000 C   0  0  0  0  0  0  0  0  0  0  0  0
    1.2135   -2.7256    0.0000 C   0  0  0  0  0  0  0  0  0  0  0  0
    2.6401   -3.1891    0.0000 C   0  0  0  0  0  0  0  0  0  0  0  0
    3.8536   -2.3075    0.0000 C   0  0  0  0  0  0  0  0  0  0  0  0
    3.8536   -0.8075    0.0000 C   0  0  0  0  0  0  0  0  0  0  0  0
    5.1527   -0.0575    0.0000 C   0  0  0  0  0  0  0  0  0  0  0  0
    5.1527    1.4425    0.0000 C   0  0  0  0  0  0  0  0  0  0  0  0
    3.8536    2.1925    0.0000 C   0  0  0  0  0  0  0  0  0  0  0  0
    2.5546    1.4425    0.0000 C   0  0  0  0  0  0  0  0  0  0  0  0
    1.2556    2.1925    0.0000 N   0  0  0  0  0  0  0  0  0  0  0  0
    1.2556    3.6925    0.0000 C   0  0  0  0  0  0  0  0  0  0  0  0
   -0.0435    4.4425    0.0000 C   0  0  0  0  0  0  0  0  0  0  0  0
   -1.3425    3.6925    0.0000 O   0  0  0  0  0  0  0  0  0  0  0  0
   -0.0435    5.9425    0.0000 C   0  0  0  0  0  0  0  0  0  0  0  0
   -1.3425    6.6925    0.0000 O   0  0  0  0  0  0  0  0  0  0  0  0
    2.5546   -0.0575    0.0000 C   0  0  0  0  0  0  0  0  0  0  0  0
    5.0672   -3.1891    0.0000 C   0  0  0  0  0  0  0  0  0  0  0  0
    6.4937   -2.7256    0.0000 O   0  0  0  0  0  0  0  0  0  0  0  0
    4.6036   -4.6157    0.0000 N   0  0  0  0  0  0  0  0  0  0  0  0
    3.1036   -4.6157    0.0000 C   0  0  0  0  0  0  0  0  0  0  0  0
    2.2220   -5.8293    0.0000 O   0  0  0  0  0  0  0  0  0  0  0  0
   -0.0000   -3.6073    0.0000 C   0  0  0  0  0  0  0  0  0  0  0  0
   -0.1568   -5.0991    0.0000 C   0  0  0  0  0  0  0  0  0  0  0  0
   -1.5271   -5.7092    0.0000 C   0  0  0  0  0  0  0  0  0  0  0  0
   -1.6839   -7.2010    0.0000 F   0  0  0  0  0  0  0  0  0  0  0  0
   -2.7406   -4.8275    0.0000 C   0  0  0  0  0  0  0  0  0  0  0  0
   -2.5838   -3.3357    0.0000 C   0  0  0  0  0  0  0  0  0  0  0  0
   -1.2135   -2.7256    0.0000 C   0  0  0  0  0  0  0  0  0  0  0  0
  1  2  1  0
  2  3  1  0
  3  4  2  0
  4  5  1  0
  5  6  2  0
  6  7  1  0
  7  8  2  0
  8  9  1  0
  9 10  2  0
 10 11  1  0
 11 12  1  0
 12 13  1  0
 13 14  1  0
 14 15  1  0
 14 16  1  0
 16 17  1  0
 11 18  2  0
  6 19  1  0
 19 20  2  0
 19 21  1  0
 21 22  1  0
 22 23  2  0
  4 24  1  0
 24 25  2  0
 25 26  1  0
 26 27  1  0
 26 28  2  0
 28 29  1  0
 29 30  2  0
 30  2  1  0
 22  5  1  0
 30 24  1  0
 18  7  1  0
M  END
>  <Compound_ID>  (275) 
CHEMBL1082152

>  <Active>  (275) 
1

>  <Smiles>  (275) 
Cn1cc(C2=C(c3cccc(NCC(O)CO)c3)C(=O)NC2=O)c2cc(F)ccc21

>  <canonical_smi>  (275) 
Cn1cc(C2=C(c3cccc(NCC(O)CO)c3)C(=O)NC2=O)c2cc(F)ccc21

>  <Set>  (275) 
G2 active

>  <Set_type>  (275) 
Train

>  <MW>  (275) 
409.42

>  <HBD>  (275) 
4

>  <HBA>  (275) 
5

>  <NRB>  (275) 
6

>  <NR>  (275) 
4

>  <NAR>  (275) 
3

>  <PSA>  (275) 
103.59

>  <Standard Type>  (275) 
nan

>  <Standard Relation>  (275) 
nan

>  <Standard Units>  (275) 
nan

>  <Standard Value>  (275) 
nan

>  <Assay ChEMBL ID>  (275) 
nan

>  <Assay Description>  (275) 
nan

>  <BAO Label>  (275) 
nan

$$$$

     RDKit          2D

 28 31  0  0  0  0  0  0  0  0999 V2000
    0.3207   -8.5658    0.0000 C   0  0  0  0  0  0  0  0  0  0  0  0
    0.4775   -7.0740    0.0000 C   0  0  0  0  0  0  0  0  0  0  0  0
    1.8478   -6.4639    0.0000 N   0  0  0  0  0  0  0  0  0  0  0  0
    2.0046   -4.9721    0.0000 C   0  0  0  0  0  0  0  0  0  0  0  0
    3.3037   -4.2221    0.0000 N   0  0  0  0  0  0  0  0  0  0  0  0
    2.9918   -2.7549    0.0000 C   0  0  0  0  0  0  0  0  0  0  0  0
    3.9955   -1.6402    0.0000 C   0  0  0  0  0  0  0  0  0  0  0  0
    1.5000   -2.5981    0.0000 C   0  0  0  0  0  0  0  0  0  0  0  0
    0.7500   -1.2990    0.0000 C   0  0  0  0  0  0  0  0  0  0  0  0
    1.5000    0.0000    0.0000 C   0  0  0  0  0  0  0  0  0  0  0  0
    0.7500    1.2990    0.0000 C   0  0  0  0  0  0  0  0  0  0  0  0
   -0.7500    1.2990    0.0000 N   0  0  0  0  0  0  0  0  0  0  0  0
   -1.5000    0.0000    0.0000 C   0  0  0  0  0  0  0  0  0  0  0  0
   -3.0000    0.0000    0.0000 N   0  0  0  0  0  0  0  0  0  0  0  0
   -3.7500    1.2990    0.0000 C   0  0  0  0  0  0  0  0  0  0  0  0
   -3.0000    2.5981    0.0000 C   0  0  0  0  0  0  0  0  0  0  0  0
   -3.7500    3.8971    0.0000 C   0  0  0  0  0  0  0  0  0  0  0  0
   -5.2500    3.8971    0.0000 C   0  0  0  0  0  0  0  0  0  0  0  0
   -6.0000    5.1962    0.0000 N   0  0  0  0  0  0  0  0  0  0  0  0
   -5.2500    6.4952    0.0000 C   0  0  0  0  0  0  0  0  0  0  0  0
   -6.0000    7.7942    0.0000 C   0  0  0  0  0  0  0  0  0  0  0  0
   -7.5000    7.7942    0.0000 O   0  0  0  0  0  0  0  0  0  0  0  0
   -8.2500    6.4952    0.0000 C   0  0  0  0  0  0  0  0  0  0  0  0
   -7.5000    5.1962    0.0000 C   0  0  0  0  0  0  0  0  0  0  0  0
   -6.0000    2.5981    0.0000 C   0  0  0  0  0  0  0  0  0  0  0  0
   -5.2500    1.2990    0.0000 C   0  0  0  0  0  0  0  0  0  0  0  0
   -0.7500   -1.2990    0.0000 N   0  0  0  0  0  0  0  0  0  0  0  0
    0.8899   -3.9684    0.0000 S   0  0  0  0  0  0  0  0  0  0  0  0
  1  2  1  0
  2  3  1  0
  3  4  1  0
  4  5  2  0
  5  6  1  0
  6  7  1  0
  6  8  2  0
  8  9  1  0
  9 10  2  0
 10 11  1  0
 11 12  2  0
 12 13  1  0
 13 14  1  0
 14 15  1  0
 15 16  2  0
 16 17  1  0
 17 18  2  0
 18 19  1  0
 19 20  1  0
 20 21  1  0
 21 22  1  0
 22 23  1  0
 23 24  1  0
 18 25  1  0
 25 26  2  0
 13 27  2  0
  8 28  1  0
 28  4  1  0
 27  9  1  0
 26 15  1  0
 24 19  1  0
M  END
>  <Compound_ID>  (276) 
CHEMBL1084630

>  <Active>  (276) 
1

>  <Smiles>  (276) 
CCNc1nc(C)c(-c2ccnc(Nc3ccc(N4CCOCC4)cc3)n2)s1

>  <canonical_smi>  (276) 
CCNc1nc(C)c(-c2ccnc(Nc3ccc(N4CCOCC4)cc3)n2)s1

>  <Set>  (276) 
G2 active

>  <Set_type>  (276) 
Train

>  <MW>  (276) 
396.52

>  <HBD>  (276) 
2

>  <HBA>  (276) 
7

>  <NRB>  (276) 
6

>  <NR>  (276) 
4

>  <NAR>  (276) 
3

>  <PSA>  (276) 
75.2

>  <Standard Type>  (276) 
nan

>  <Standard Relation>  (276) 
nan

>  <Standard Units>  (276) 
nan

>  <Standard Value>  (276) 
nan

>  <Assay ChEMBL ID>  (276) 
nan

>  <Assay Description>  (276) 
nan

>  <BAO Label>  (276) 
nan

$$$$

     RDKit          2D

 31 35  0  0  0  0  0  0  0  0999 V2000
    3.4430   -7.9964    0.0000 O   0  0  0  0  0  0  0  0  0  0  0  0
    3.7548   -6.5291    0.0000 C   0  0  0  0  0  0  0  0  0  0  0  0
    5.1814   -6.0656    0.0000 N   0  0  0  0  0  0  0  0  0  0  0  0
    6.2961   -7.0693    0.0000 C   0  0  0  0  0  0  0  0  0  0  0  0
    5.9843   -8.5365    0.0000 C   0  0  0  0  0  0  0  0  0  0  0  0
    7.0990   -9.5402    0.0000 C   0  0  0  0  0  0  0  0  0  0  0  0
    8.5256   -9.0767    0.0000 C   0  0  0  0  0  0  0  0  0  0  0  0
    8.8374   -7.6095    0.0000 N   0  0  0  0  0  0  0  0  0  0  0  0
    7.7227   -6.6058    0.0000 C   0  0  0  0  0  0  0  0  0  0  0  0
    2.6401   -5.5255    0.0000 N   0  0  0  0  0  0  0  0  0  0  0  0
    1.2135   -5.9890    0.0000 C   0  0  0  0  0  0  0  0  0  0  0  0
    0.7500   -7.4156    0.0000 C   0  0  0  0  0  0  0  0  0  0  0  0
   -0.7500   -7.4156    0.0000 N   0  0  0  0  0  0  0  0  0  0  0  0
   -1.2135   -5.9890    0.0000 N   0  0  0  0  0  0  0  0  0  0  0  0
   -0.0000   -5.1073    0.0000 C   0  0  0  0  0  0  0  0  0  0  0  0
   -0.0000   -3.6073    0.0000 C   0  0  0  0  0  0  0  0  0  0  0  0
    1.2135   -2.7256    0.0000 N   0  0  0  0  0  0  0  0  0  0  0  0
    0.7500   -1.2990    0.0000 C   0  0  0  0  0  0  0  0  0  0  0  0
    1.5000    0.0000    0.0000 C   0  0  0  0  0  0  0  0  0  0  0  0
    0.7500    1.2990    0.0000 C   0  0  0  0  0  0  0  0  0  0  0  0
    1.5000    2.5981    0.0000 C   0  0  0  0  0  0  0  0  0  0  0  0
    3.0000    2.5981    0.0000 N   0  0  0  0  0  0  0  0  0  0  0  0
    3.7500    1.2990    0.0000 C   0  0  0  0  0  0  0  0  0  0  0  0
    5.2500    1.2990    0.0000 C   0  0  0  0  0  0  0  0  0  0  0  0
    6.0000    2.5981    0.0000 O   0  0  0  0  0  0  0  0  0  0  0  0
    5.2500    3.8971    0.0000 C   0  0  0  0  0  0  0  0  0  0  0  0
    3.7500    3.8971    0.0000 C   0  0  0  0  0  0  0  0  0  0  0  0
   -0.7500    1.2990    0.0000 C   0  0  0  0  0  0  0  0  0  0  0  0
   -1.5000    0.0000    0.0000 C   0  0  0  0  0  0  0  0  0  0  0  0
   -0.7500   -1.2990    0.0000 C   0  0  0  0  0  0  0  0  0  0  0  0
   -1.2135   -2.7256    0.0000 N   0  0  0  0  0  0  0  0  0  0  0  0
  1  2  2  0
  2  3  1  0
  3  4  1  0
  4  5  2  0
  5  6  1  0
  6  7  2  0
  7  8  1  0
  8  9  2  0
  2 10  1  0
 10 11  1  0
 11 12  2  0
 12 13  1  0
 13 14  1  0
 14 15  2  0
 15 16  1  0
 16 17  2  0
 17 18  1  0
 18 19  2  0
 19 20  1  0
 20 21  1  0
 21 22  1  0
 22 23  1  0
 23 24  1  0
 24 25  1  0
 25 26  1  0
 26 27  1  0
 20 28  2  0
 28 29  1  0
 29 30  2  0
 30 31  1  0
  9  4  1  0
 15 11  1  0
 31 16  1  0
 30 18  1  0
 27 22  1  0
M  END
>  <Compound_ID>  (277) 
CHEMBL523923

>  <Active>  (277) 
1

>  <Smiles>  (277) 
O=C(Nc1cccnc1)Nc1c[nH]nc1-c1nc2cc(CN3CCOCC3)ccc2[nH]1

>  <canonical_smi>  (277) 
O=C(Nc1cccnc1)Nc1c[nH]nc1-c1nc2cc(CN3CCOCC3)ccc2[nH]1

>  <Set>  (277) 
G2 active

>  <Set_type>  (277) 
Train

>  <MW>  (277) 
418.46

>  <HBD>  (277) 
4

>  <HBA>  (277) 
6

>  <NRB>  (277) 
5

>  <NR>  (277) 
5

>  <NAR>  (277) 
4

>  <PSA>  (277) 
123.85

>  <Standard Type>  (277) 
nan

>  <Standard Relation>  (277) 
nan

>  <Standard Units>  (277) 
nan

>  <Standard Value>  (277) 
nan

>  <Assay ChEMBL ID>  (277) 
nan

>  <Assay Description>  (277) 
nan

>  <BAO Label>  (277) 
nan

$$$$

     RDKit          2D

 30 34  0  0  0  0  0  0  0  0999 V2000
   -1.7455   -5.5373    0.0000 C   0  0  0  0  0  0  0  0  0  0  0  0
   -0.7418   -6.6520    0.0000 N   0  0  0  0  0  0  0  0  0  0  0  0
   -1.0537   -8.1192    0.0000 N   0  0  0  0  0  0  0  0  0  0  0  0
    0.2454   -8.8692    0.0000 C   0  0  0  0  0  0  0  0  0  0  0  0
    1.3601   -7.8655    0.0000 C   0  0  0  0  0  0  0  0  0  0  0  0
    0.7500   -6.4952    0.0000 C   0  0  0  0  0  0  0  0  0  0  0  0
    1.5000   -5.1962    0.0000 C   0  0  0  0  0  0  0  0  0  0  0  0
    0.7500   -3.8971    0.0000 N   0  0  0  0  0  0  0  0  0  0  0  0
    1.5000   -2.5981    0.0000 C   0  0  0  0  0  0  0  0  0  0  0  0
    3.0000   -2.5981    0.0000 O   0  0  0  0  0  0  0  0  0  0  0  0
    0.7500   -1.2990    0.0000 C   0  0  0  0  0  0  0  0  0  0  0  0
    1.5000    0.0000    0.0000 C   0  0  0  0  0  0  0  0  0  0  0  0
    0.7500    1.2990    0.0000 C   0  0  0  0  0  0  0  0  0  0  0  0
   -0.7500    1.2990    0.0000 C   0  0  0  0  0  0  0  0  0  0  0  0
   -1.7537    2.4138    0.0000 C   0  0  0  0  0  0  0  0  0  0  0  0
   -3.1240    1.8037    0.0000 C   0  0  0  0  0  0  0  0  0  0  0  0
   -4.4231    2.5537    0.0000 C   0  0  0  0  0  0  0  0  0  0  0  0
   -5.7934    1.9435    0.0000 N   0  0  0  0  0  0  0  0  0  0  0  0
   -6.7971    3.0583    0.0000 N   0  0  0  0  0  0  0  0  0  0  0  0
   -6.0471    4.3573    0.0000 C   0  0  0  0  0  0  0  0  0  0  0  0
   -4.5798    4.0454    0.0000 C   0  0  0  0  0  0  0  0  0  0  0  0
   -3.4651    5.0491    0.0000 C   0  0  0  0  0  0  0  0  0  0  0  0
   -2.0385    4.5856    0.0000 C   0  0  0  0  0  0  0  0  0  0  0  0
   -0.9238    5.5893    0.0000 C   0  0  0  0  0  0  0  0  0  0  0  0
   -1.2357    7.0565    0.0000 C   0  0  0  0  0  0  0  0  0  0  0  0
   -2.6623    7.5200    0.0000 C   0  0  0  0  0  0  0  0  0  0  0  0
   -3.7770    6.5164    0.0000 C   0  0  0  0  0  0  0  0  0  0  0  0
   -2.9672    0.3119    0.0000 N   0  0  0  0  0  0  0  0  0  0  0  0
   -1.5000    0.0000    0.0000 C   0  0  0  0  0  0  0  0  0  0  0  0
   -0.7500   -1.2990    0.0000 C   0  0  0  0  0  0  0  0  0  0  0  0
  1  2  1  0
  2  3  1  0
  3  4  2  0
  4  5  1  0
  5  6  2  0
  6  7  1  0
  7  8  1  0
  8  9  1  0
  9 10  2  0
  9 11  1  0
 11 12  2  0
 12 13  1  0
 13 14  2  0
 14 15  1  0
 15 16  2  0
 16 17  1  0
 17 18  2  0
 18 19  1  0
 19 20  1  0
 20 21  2  0
 21 22  1  0
 22 23  2  0
 23 24  1  0
 24 25  2  0
 25 26  1  0
 26 27  2  0
 16 28  1  0
 28 29  1  0
 29 30  2  0
  6  2  1  0
 30 11  1  0
 29 14  1  0
 21 17  1  0
 27 22  1  0
M  END
>  <Compound_ID>  (278) 
CHEMBL1164262

>  <Active>  (278) 
1

>  <Smiles>  (278) 
Cn1nccc1CNC(=O)c1ccc2cc(-c3n[nH]cc3-c3ccccc3)[nH]c2c1

>  <canonical_smi>  (278) 
Cn1nccc1CNC(=O)c1ccc2cc(-c3n[nH]cc3-c3ccccc3)[nH]c2c1

>  <Set>  (278) 
G2 active

>  <Set_type>  (278) 
Train

>  <MW>  (278) 
396.45

>  <HBD>  (278) 
3

>  <HBA>  (278) 
3

>  <NRB>  (278) 
5

>  <NR>  (278) 
5

>  <NAR>  (278) 
5

>  <PSA>  (278) 
91.39

>  <Standard Type>  (278) 
nan

>  <Standard Relation>  (278) 
nan

>  <Standard Units>  (278) 
nan

>  <Standard Value>  (278) 
nan

>  <Assay ChEMBL ID>  (278) 
nan

>  <Assay Description>  (278) 
nan

>  <BAO Label>  (278) 
nan

$$$$

     RDKit          2D

 34 38  0  0  0  0  0  0  0  0999 V2000
   -2.2447   -8.9500    0.0000 C   0  0  0  0  0  0  0  0  0  0  0  0
   -2.5565   -7.4827    0.0000 N   0  0  0  0  0  0  0  0  0  0  0  0
   -1.4418   -6.4791    0.0000 C   0  0  0  0  0  0  0  0  0  0  0  0
   -0.0152   -6.9426    0.0000 O   0  0  0  0  0  0  0  0  0  0  0  0
   -1.7537   -5.0118    0.0000 C   0  0  0  0  0  0  0  0  0  0  0  0
   -3.1240   -4.4017    0.0000 N   0  0  0  0  0  0  0  0  0  0  0  0
   -2.9672   -2.9099    0.0000 N   0  0  0  0  0  0  0  0  0  0  0  0
   -4.0819   -1.9062    0.0000 C   0  0  0  0  0  0  0  0  0  0  0  0
   -1.5000   -2.5981    0.0000 C   0  0  0  0  0  0  0  0  0  0  0  0
   -0.7500   -3.8971    0.0000 C   0  0  0  0  0  0  0  0  0  0  0  0
    0.7500   -3.8971    0.0000 C   0  0  0  0  0  0  0  0  0  0  0  0
    2.1595   -4.4101    0.0000 C   0  0  0  0  0  0  0  0  0  0  0  0
    0.4895   -5.3743    0.0000 C   0  0  0  0  0  0  0  0  0  0  0  0
    1.5000   -2.5981    0.0000 C   0  0  0  0  0  0  0  0  0  0  0  0
    0.7500   -1.2990    0.0000 C   0  0  0  0  0  0  0  0  0  0  0  0
    1.5000    0.0000    0.0000 C   0  0  0  0  0  0  0  0  0  0  0  0
    0.7500    1.2990    0.0000 N   0  0  0  0  0  0  0  0  0  0  0  0
   -0.7500    1.2990    0.0000 C   0  0  0  0  0  0  0  0  0  0  0  0
   -1.5000    2.5981    0.0000 N   0  0  0  0  0  0  0  0  0  0  0  0
   -0.7500    3.8971    0.0000 C   0  0  0  0  0  0  0  0  0  0  0  0
    0.7500    3.8971    0.0000 C   0  0  0  0  0  0  0  0  0  0  0  0
    1.5000    5.1962    0.0000 C   0  0  0  0  0  0  0  0  0  0  0  0
    0.7500    6.4952    0.0000 C   0  0  0  0  0  0  0  0  0  0  0  0
   -0.7500    6.4952    0.0000 C   0  0  0  0  0  0  0  0  0  0  0  0
   -1.5000    7.7942    0.0000 C   0  0  0  0  0  0  0  0  0  0  0  0
   -0.7500    9.0933    0.0000 N   0  0  0  0  0  0  0  0  0  0  0  0
    0.7500    9.0933    0.0000 C   0  0  0  0  0  0  0  0  0  0  0  0
    1.5000   10.3923    0.0000 C   0  0  0  0  0  0  0  0  0  0  0  0
    0.7500   11.6913    0.0000 O   0  0  0  0  0  0  0  0  0  0  0  0
   -0.7500   11.6913    0.0000 C   0  0  0  0  0  0  0  0  0  0  0  0
   -1.5000   10.3923    0.0000 C   0  0  0  0  0  0  0  0  0  0  0  0
   -1.5000    5.1962    0.0000 C   0  0  0  0  0  0  0  0  0  0  0  0
   -1.5000    0.0000    0.0000 N   0  0  0  0  0  0  0  0  0  0  0  0
   -0.7500   -1.2990    0.0000 C   0  0  0  0  0  0  0  0  0  0  0  0
  1  2  1  0
  2  3  1  0
  3  4  2  0
  3  5  1  0
  5  6  2  0
  6  7  1  0
  7  8  1  0
  7  9  1  0
  9 10  2  0
 10 11  1  0
 11 12  1  0
 11 13  1  0
 11 14  1  0
 14 15  1  0
 15 16  2  0
 16 17  1  0
 17 18  2  0
 18 19  1  0
 19 20  1  0
 20 21  2  0
 21 22  1  0
 22 23  2  0
 23 24  1  0
 24 25  1  0
 25 26  1  0
 26 27  1  0
 27 28  1  0
 28 29  1  0
 29 30  1  0
 30 31  1  0
 24 32  2  0
 18 33  1  0
 33 34  2  0
 10  5  1  0
 34 15  1  0
 34  9  1  0
 32 20  1  0
 31 26  1  0
M  END
>  <Compound_ID>  (279) 
CHEMBL565160

>  <Active>  (279) 
1

>  <Smiles>  (279) 
CNC(=O)c1nn(C)c2c1C(C)(C)Cc1cnc(Nc3cccc(CN4CCOCC4)c3)nc1-2

>  <canonical_smi>  (279) 
CNC(=O)c1nn(C)c2c1C(C)(C)Cc1cnc(Nc3cccc(CN4CCOCC4)c3)nc1-2

>  <Set>  (279) 
G2 active

>  <Set_type>  (279) 
Train

>  <MW>  (279) 
461.57

>  <HBD>  (279) 
2

>  <HBA>  (279) 
7

>  <NRB>  (279) 
5

>  <NR>  (279) 
5

>  <NAR>  (279) 
3

>  <PSA>  (279) 
97.2

>  <Standard Type>  (279) 
nan

>  <Standard Relation>  (279) 
nan

>  <Standard Units>  (279) 
nan

>  <Standard Value>  (279) 
nan

>  <Assay ChEMBL ID>  (279) 
nan

>  <Assay Description>  (279) 
nan

>  <BAO Label>  (279) 
nan

$$$$

     RDKit          2D

 23 26  0  0  0  0  0  0  0  0999 V2000
   -3.7500   -3.8971    0.0000 O   0  0  0  0  0  0  0  0  0  0  0  0
   -3.0000   -5.1962    0.0000 C   0  0  0  0  0  0  0  0  0  0  0  0
   -1.5000   -5.1962    0.0000 N   0  0  0  0  0  0  0  0  0  0  0  0
   -0.7500   -3.8971    0.0000 C   0  0  0  0  0  0  0  0  0  0  0  0
    0.7500   -3.8971    0.0000 C   0  0  0  0  0  0  0  0  0  0  0  0
    1.5000   -2.5981    0.0000 C   0  0  0  0  0  0  0  0  0  0  0  0
    0.7500   -1.2990    0.0000 C   0  0  0  0  0  0  0  0  0  0  0  0
    1.5000    0.0000    0.0000 N   0  0  0  0  0  0  0  0  0  0  0  0
    0.7500    1.2990    0.0000 C   0  0  0  0  0  0  0  0  0  0  0  0
   -0.7500    1.2990    0.0000 C   0  0  0  0  0  0  0  0  0  0  0  0
   -1.5000    0.0000    0.0000 C   0  0  0  0  0  0  0  0  0  0  0  0
   -0.7500   -1.2990    0.0000 C   0  0  0  0  0  0  0  0  0  0  0  0
   -1.5000   -2.5981    0.0000 C   0  0  0  0  0  0  0  0  0  0  0  0
   -3.7500   -6.4952    0.0000 N   0  0  0  0  0  0  0  0  0  0  0  0
   -5.2500   -6.4952    0.0000 C   0  0  0  0  0  0  0  0  0  0  0  0
   -6.1317   -7.7087    0.0000 N   0  0  0  0  0  0  0  0  0  0  0  0
   -7.5583   -7.2452    0.0000 C   0  0  0  0  0  0  0  0  0  0  0  0
   -7.5583   -5.7452    0.0000 C   0  0  0  0  0  0  0  0  0  0  0  0
   -8.7718   -4.8635    0.0000 C   0  0  0  0  0  0  0  0  0  0  0  0
   -9.0064   -3.3820    0.0000 C   0  0  0  0  0  0  0  0  0  0  0  0
  -10.4880   -3.6166    0.0000 C   0  0  0  0  0  0  0  0  0  0  0  0
  -10.2533   -5.0982    0.0000 C   0  0  0  0  0  0  0  0  0  0  0  0
   -6.1317   -5.2817    0.0000 S   0  0  0  0  0  0  0  0  0  0  0  0
  1  2  2  0
  2  3  1  0
  3  4  1  0
  4  5  2  0
  5  6  1  0
  6  7  2  0
  7  8  1  0
  8  9  2  0
  9 10  1  0
 10 11  2  0
 11 12  1  0
 12 13  2  0
  2 14  1  0
 14 15  1  0
 15 16  2  0
 16 17  1  0
 17 18  2  0
 18 19  1  0
 19 20  1  0
 20 21  1  0
 21 22  1  0
 18 23  1  0
 13  4  1  0
 23 15  1  0
 12  7  1  0
 22 19  1  0
M  END
>  <Compound_ID>  (280) 
CHEMBL187015

>  <Active>  (280) 
1

>  <Smiles>  (280) 
O=C(Nc1ccc2ncccc2c1)Nc1ncc(C2CCC2)s1

>  <canonical_smi>  (280) 
O=C(Nc1ccc2ncccc2c1)Nc1ncc(C2CCC2)s1

>  <Set>  (280) 
G2 active

>  <Set_type>  (280) 
Train

>  <MW>  (280) 
324.41

>  <HBD>  (280) 
2

>  <HBA>  (280) 
3

>  <NRB>  (280) 
3

>  <NR>  (280) 
4

>  <NAR>  (280) 
3

>  <PSA>  (280) 
66.91

>  <Standard Type>  (280) 
nan

>  <Standard Relation>  (280) 
nan

>  <Standard Units>  (280) 
nan

>  <Standard Value>  (280) 
nan

>  <Assay ChEMBL ID>  (280) 
nan

>  <Assay Description>  (280) 
nan

>  <BAO Label>  (280) 
nan

$$$$

     RDKit          2D

 23 26  0  0  0  0  0  0  0  0999 V2000
   -3.7500   -3.8971    0.0000 O   0  0  0  0  0  0  0  0  0  0  0  0
   -3.0000   -5.1962    0.0000 C   0  0  0  0  0  0  0  0  0  0  0  0
   -1.5000   -5.1962    0.0000 N   0  0  0  0  0  0  0  0  0  0  0  0
   -0.7500   -3.8971    0.0000 C   0  0  0  0  0  0  0  0  0  0  0  0
    0.7500   -3.8971    0.0000 C   0  0  0  0  0  0  0  0  0  0  0  0
    1.5000   -2.5981    0.0000 C   0  0  0  0  0  0  0  0  0  0  0  0
    0.7500   -1.2990    0.0000 C   0  0  0  0  0  0  0  0  0  0  0  0
    1.5000    0.0000    0.0000 C   0  0  0  0  0  0  0  0  0  0  0  0
    0.7500    1.2990    0.0000 N   0  0  0  0  0  0  0  0  0  0  0  0
   -0.7500    1.2990    0.0000 C   0  0  0  0  0  0  0  0  0  0  0  0
   -1.5000    0.0000    0.0000 C   0  0  0  0  0  0  0  0  0  0  0  0
   -0.7500   -1.2990    0.0000 C   0  0  0  0  0  0  0  0  0  0  0  0
   -1.5000   -2.5981    0.0000 C   0  0  0  0  0  0  0  0  0  0  0  0
   -3.7500   -6.4952    0.0000 N   0  0  0  0  0  0  0  0  0  0  0  0
   -5.2500   -6.4952    0.0000 C   0  0  0  0  0  0  0  0  0  0  0  0
   -6.1317   -7.7087    0.0000 N   0  0  0  0  0  0  0  0  0  0  0  0
   -7.5583   -7.2452    0.0000 C   0  0  0  0  0  0  0  0  0  0  0  0
   -7.5583   -5.7452    0.0000 C   0  0  0  0  0  0  0  0  0  0  0  0
   -8.7718   -4.8635    0.0000 C   0  0  0  0  0  0  0  0  0  0  0  0
   -9.0064   -3.3820    0.0000 C   0  0  0  0  0  0  0  0  0  0  0  0
  -10.4880   -3.6166    0.0000 C   0  0  0  0  0  0  0  0  0  0  0  0
  -10.2533   -5.0982    0.0000 C   0  0  0  0  0  0  0  0  0  0  0  0
   -6.1317   -5.2817    0.0000 S   0  0  0  0  0  0  0  0  0  0  0  0
  1  2  2  0
  2  3  1  0
  3  4  1  0
  4  5  2  0
  5  6  1  0
  6  7  2  0
  7  8  1  0
  8  9  2  0
  9 10  1  0
 10 11  2  0
 11 12  1  0
 12 13  2  0
  2 14  1  0
 14 15  1  0
 15 16  2  0
 16 17  1  0
 17 18  2  0
 18 19  1  0
 19 20  1  0
 20 21  1  0
 21 22  1  0
 18 23  1  0
 13  4  1  0
 23 15  1  0
 12  7  1  0
 22 19  1  0
M  END
>  <Compound_ID>  (281) 
CHEMBL359591

>  <Active>  (281) 
1

>  <Smiles>  (281) 
O=C(Nc1ccc2cnccc2c1)Nc1ncc(C2CCC2)s1

>  <canonical_smi>  (281) 
O=C(Nc1ccc2cnccc2c1)Nc1ncc(C2CCC2)s1

>  <Set>  (281) 
G2 active

>  <Set_type>  (281) 
Train

>  <MW>  (281) 
324.41

>  <HBD>  (281) 
2

>  <HBA>  (281) 
3

>  <NRB>  (281) 
3

>  <NR>  (281) 
4

>  <NAR>  (281) 
3

>  <PSA>  (281) 
66.91

>  <Standard Type>  (281) 
nan

>  <Standard Relation>  (281) 
nan

>  <Standard Units>  (281) 
nan

>  <Standard Value>  (281) 
nan

>  <Assay ChEMBL ID>  (281) 
nan

>  <Assay Description>  (281) 
nan

>  <BAO Label>  (281) 
nan

$$$$

     RDKit          2D

 25 28  0  0  0  0  0  0  0  0999 V2000
   -1.8373   -5.6601    0.0000 O   0  0  0  0  0  0  0  0  0  0  0  0
   -2.9520   -4.6564    0.0000 C   0  0  0  0  0  0  0  0  0  0  0  0
   -4.3786   -5.1199    0.0000 C   0  0  0  0  0  0  0  0  0  0  0  0
   -4.6904   -6.5871    0.0000 C   0  0  0  0  0  0  0  0  0  0  0  0
   -6.1170   -7.0506    0.0000 C   0  0  0  0  0  0  0  0  0  0  0  0
   -6.4289   -8.5179    0.0000 C   0  0  0  0  0  0  0  0  0  0  0  0
   -5.3142   -9.5216    0.0000 C   0  0  0  0  0  0  0  0  0  0  0  0
   -3.8876   -9.0580    0.0000 C   0  0  0  0  0  0  0  0  0  0  0  0
   -3.5757   -7.5908    0.0000 C   0  0  0  0  0  0  0  0  0  0  0  0
   -2.6401   -3.1891    0.0000 N   0  0  0  0  0  0  0  0  0  0  0  0
   -1.2135   -2.7256    0.0000 C   0  0  0  0  0  0  0  0  0  0  0  0
   -0.0000   -3.6073    0.0000 N   0  0  0  0  0  0  0  0  0  0  0  0
    1.2135   -2.7256    0.0000 N   0  0  0  0  0  0  0  0  0  0  0  0
    0.7500   -1.2990    0.0000 C   0  0  0  0  0  0  0  0  0  0  0  0
    1.5000    0.0000    0.0000 C   0  0  0  0  0  0  0  0  0  0  0  0
    0.7500    1.2990    0.0000 C   0  0  0  0  0  0  0  0  0  0  0  0
   -0.7500    1.2990    0.0000 C   0  0  0  0  0  0  0  0  0  0  0  0
   -1.5000    2.5981    0.0000 N   0  0  0  0  0  0  0  0  0  0  0  0
   -2.9918    2.7549    0.0000 C   0  0  0  0  0  0  0  0  0  0  0  0
   -3.3037    4.2221    0.0000 C   0  0  0  0  0  0  0  0  0  0  0  0
   -2.0046    4.9721    0.0000 C   0  0  0  0  0  0  0  0  0  0  0  0
   -0.8899    3.9684    0.0000 C   0  0  0  0  0  0  0  0  0  0  0  0
    0.5773    4.2803    0.0000 O   0  0  0  0  0  0  0  0  0  0  0  0
   -1.5000    0.0000    0.0000 C   0  0  0  0  0  0  0  0  0  0  0  0
   -0.7500   -1.2990    0.0000 C   0  0  0  0  0  0  0  0  0  0  0  0
  1  2  2  0
  2  3  1  0
  3  4  1  0
  4  5  2  0
  5  6  1  0
  6  7  2  0
  7  8  1  0
  8  9  2  0
  2 10  1  0
 10 11  1  0
 11 12  2  0
 12 13  1  0
 13 14  1  0
 14 15  2  0
 15 16  1  0
 16 17  2  0
 17 18  1  0
 18 19  1  0
 19 20  1  0
 20 21  1  0
 21 22  1  0
 22 23  2  0
 17 24  1  0
 24 25  2  0
  9  4  1  0
 25 11  1  0
 25 14  1  0
 22 18  1  0
M  END
>  <Compound_ID>  (282) 
CHEMBL404747

>  <Active>  (282) 
1

>  <Smiles>  (282) 
O=C(Cc1ccccc1)Nc1n[nH]c2ccc(N3CCCC3=O)cc12

>  <canonical_smi>  (282) 
O=C(Cc1ccccc1)Nc1n[nH]c2ccc(N3CCCC3=O)cc12

>  <Set>  (282) 
G2 active

>  <Set_type>  (282) 
Train

>  <MW>  (282) 
334.38

>  <HBD>  (282) 
2

>  <HBA>  (282) 
3

>  <NRB>  (282) 
4

>  <NR>  (282) 
4

>  <NAR>  (282) 
3

>  <PSA>  (282) 
78.09

>  <Standard Type>  (282) 
nan

>  <Standard Relation>  (282) 
nan

>  <Standard Units>  (282) 
nan

>  <Standard Value>  (282) 
nan

>  <Assay ChEMBL ID>  (282) 
nan

>  <Assay Description>  (282) 
nan

>  <BAO Label>  (282) 
nan

$$$$

     RDKit          2D

 37 41  0  0  0  0  0  0  0  0999 V2000
    7.5000   -2.5981    0.0000 C   0  0  0  0  0  0  0  0  0  0  0  0
    6.0000   -2.5981    0.0000 C   0  0  0  0  0  0  0  0  0  0  0  0
    5.2500   -3.8971    0.0000 C   0  0  0  0  0  0  0  0  0  0  0  0
    3.7500   -3.8971    0.0000 N   0  0  0  0  0  0  0  0  0  0  0  0
    3.0000   -2.5981    0.0000 C   0  0  0  0  0  0  0  0  0  0  0  0
    1.5000   -2.5981    0.0000 N   0  0  0  0  0  0  0  0  0  0  0  0
    0.7500   -1.2990    0.0000 C   0  0  0  0  0  0  0  0  0  0  0  0
    1.5000    0.0000    0.0000 C   0  0  0  0  0  0  0  0  0  0  0  0
    0.7500    1.2990    0.0000 C   0  0  0  0  0  0  0  0  0  0  0  0
   -0.7500    1.2990    0.0000 C   0  0  0  0  0  0  0  0  0  0  0  0
   -1.5000    0.0000    0.0000 C   0  0  0  0  0  0  0  0  0  0  0  0
   -0.7500   -1.2990    0.0000 C   0  0  0  0  0  0  0  0  0  0  0  0
   -1.7537   -2.4138    0.0000 O   0  0  0  0  0  0  0  0  0  0  0  0
   -3.1240   -1.8037    0.0000 C   0  0  0  0  0  0  0  0  0  0  0  0
   -3.5875   -3.2302    0.0000 F   0  0  0  0  0  0  0  0  0  0  0  0
   -4.5912   -1.4918    0.0000 F   0  0  0  0  0  0  0  0  0  0  0  0
   -2.9672   -0.3119    0.0000 O   0  0  0  0  0  0  0  0  0  0  0  0
    3.7500   -1.2990    0.0000 N   0  0  0  0  0  0  0  0  0  0  0  0
    5.2500   -1.2990    0.0000 C   0  0  0  0  0  0  0  0  0  0  0  0
    6.0000   -0.0000    0.0000 C   0  0  0  0  0  0  0  0  0  0  0  0
    5.3899    1.3703    0.0000 C   0  0  0  0  0  0  0  0  0  0  0  0
    6.5046    2.3740    0.0000 N   0  0  0  0  0  0  0  0  0  0  0  0
    7.8037    1.6240    0.0000 C   0  0  0  0  0  0  0  0  0  0  0  0
    9.1740    2.2341    0.0000 C   0  0  0  0  0  0  0  0  0  0  0  0
    9.3308    3.7259    0.0000 O   0  0  0  0  0  0  0  0  0  0  0  0
   10.3875    1.3524    0.0000 N   0  0  0  0  0  0  0  0  0  0  0  0
   11.7578    1.9625    0.0000 C   0  0  0  0  0  0  0  0  0  0  0  0
   11.9146    3.4543    0.0000 C   0  0  0  0  0  0  0  0  0  0  0  0
   13.2849    4.0644    0.0000 O   0  0  0  0  0  0  0  0  0  0  0  0
   12.9713    1.0809    0.0000 C   0  0  0  0  0  0  0  0  0  0  0  0
   12.8145   -0.4109    0.0000 C   0  0  0  0  0  0  0  0  0  0  0  0
   14.0281   -1.2926    0.0000 C   0  0  0  0  0  0  0  0  0  0  0  0
   15.3984   -0.6825    0.0000 C   0  0  0  0  0  0  0  0  0  0  0  0
   15.5552    0.8093    0.0000 C   0  0  0  0  0  0  0  0  0  0  0  0
   16.9255    1.4194    0.0000 Cl  0  0  0  0  0  0  0  0  0  0  0  0
   14.3417    1.6910    0.0000 C   0  0  0  0  0  0  0  0  0  0  0  0
    7.4918    0.1568    0.0000 C   0  0  0  0  0  0  0  0  0  0  0  0
  1  2  1  0
  2  3  2  0
  3  4  1  0
  4  5  2  0
  5  6  1  0
  6  7  1  0
  7  8  2  0
  8  9  1  0
  9 10  2  0
 10 11  1  0
 11 12  2  0
 12 13  1  0
 13 14  1  0
 14 15  1  0
 14 16  1  0
 14 17  1  0
  5 18  1  0
 18 19  2  0
 19 20  1  0
 20 21  2  0
 21 22  1  0
 22 23  1  0
 23 24  1  0
 24 25  2  0
 24 26  1  0
 26 27  1  0
 27 28  1  6
 28 29  1  0
 27 30  1  0
 30 31  2  0
 31 32  1  0
 32 33  2  0
 33 34  1  0
 34 35  1  0
 34 36  2  0
 23 37  2  0
 19  2  1  0
 37 20  1  0
 12  7  1  0
 36 30  1  0
 17 11  1  0
M  END
>  <Compound_ID>  (283) 
CHEMBL576683

>  <Active>  (283) 
1

>  <Smiles>  (283) 
Cc1cnc(Nc2cccc3c2OC(F)(F)O3)nc1-c1c[nH]c(C(=O)N[C@H](CO)c2cccc(Cl)c2)c1

>  <canonical_smi>  (283) 
Cc1cnc(Nc2cccc3c2OC(F)(F)O3)nc1-c1c[nH]c(C(=O)N[C@H](CO)c2cccc(Cl)c2)c1

>  <Set>  (283) 
G2 active

>  <Set_type>  (283) 
Train

>  <MW>  (283) 
527.92

>  <HBD>  (283) 
4

>  <HBA>  (283) 
7

>  <NRB>  (283) 
7

>  <NR>  (283) 
5

>  <NAR>  (283) 
4

>  <PSA>  (283) 
121.39

>  <Standard Type>  (283) 
nan

>  <Standard Relation>  (283) 
nan

>  <Standard Units>  (283) 
nan

>  <Standard Value>  (283) 
nan

>  <Assay ChEMBL ID>  (283) 
nan

>  <Assay Description>  (283) 
nan

>  <BAO Label>  (283) 
nan

$$$$

     RDKit          2D

 29 33  0  0  0  0  0  0  0  0999 V2000
   -1.5000   -5.1962    0.0000 O   0  0  0  0  0  0  0  0  0  0  0  0
   -0.7500   -3.8971    0.0000 C   0  0  0  0  0  0  0  0  0  0  0  0
    0.7500   -3.8971    0.0000 C   0  0  0  0  0  0  0  0  0  0  0  0
    1.5000   -2.5981    0.0000 C   0  0  0  0  0  0  0  0  0  0  0  0
    0.7500   -1.2990    0.0000 C   0  0  0  0  0  0  0  0  0  0  0  0
    1.5000    0.0000    0.0000 C   0  0  0  0  0  0  0  0  0  0  0  0
    0.7500    1.2990    0.0000 N   0  0  0  0  0  0  0  0  0  0  0  0
   -0.7500    1.2990    0.0000 C   0  0  0  0  0  0  0  0  0  0  0  0
   -1.5000    2.5981    0.0000 N   0  0  0  0  0  0  0  0  0  0  0  0
   -0.7500    3.8971    0.0000 C   0  0  0  0  0  0  0  0  0  0  0  0
    0.7500    3.8971    0.0000 C   0  0  0  0  0  0  0  0  0  0  0  0
    1.5000    5.1962    0.0000 C   0  0  0  0  0  0  0  0  0  0  0  0
    0.7500    6.4952    0.0000 C   0  0  0  0  0  0  0  0  0  0  0  0
    1.5000    7.7942    0.0000 N   0  0  0  0  0  0  0  0  0  0  0  0
    3.0000    7.7942    0.0000 C   0  0  0  0  0  0  0  0  0  0  0  0
    3.7500    9.0933    0.0000 C   0  0  0  0  0  0  0  0  0  0  0  0
    3.0000   10.3923    0.0000 O   0  0  0  0  0  0  0  0  0  0  0  0
    1.5000   10.3923    0.0000 C   0  0  0  0  0  0  0  0  0  0  0  0
    0.7500    9.0933    0.0000 C   0  0  0  0  0  0  0  0  0  0  0  0
   -0.7500    6.4952    0.0000 C   0  0  0  0  0  0  0  0  0  0  0  0
   -1.5000    5.1962    0.0000 C   0  0  0  0  0  0  0  0  0  0  0  0
   -1.5000    0.0000    0.0000 N   0  0  0  0  0  0  0  0  0  0  0  0
   -0.7500   -1.2990    0.0000 C   0  0  0  0  0  0  0  0  0  0  0  0
   -1.5000   -2.5981    0.0000 C   0  0  0  0  0  0  0  0  0  0  0  0
   -3.0000   -2.5981    0.0000 C   0  0  0  0  0  0  0  0  0  0  0  0
   -3.8817   -3.8116    0.0000 C   0  0  0  0  0  0  0  0  0  0  0  0
   -5.3083   -3.3481    0.0000 C   0  0  0  0  0  0  0  0  0  0  0  0
   -5.3083   -1.8481    0.0000 C   0  0  0  0  0  0  0  0  0  0  0  0
   -3.8817   -1.3846    0.0000 C   0  0  0  0  0  0  0  0  0  0  0  0
  1  2  1  0
  2  3  2  0
  3  4  1  0
  4  5  2  0
  5  6  1  0
  6  7  2  0
  7  8  1  0
  8  9  1  0
  9 10  1  0
 10 11  2  0
 11 12  1  0
 12 13  2  0
 13 14  1  0
 14 15  1  0
 15 16  1  0
 16 17  1  0
 17 18  1  0
 18 19  1  0
 13 20  1  0
 20 21  2  0
  8 22  2  0
 22 23  1  0
 23 24  2  0
 24 25  1  0
 25 26  1  0
 26 27  1  0
 27 28  1  0
 28 29  1  0
 24  2  1  0
 29 25  1  0
 23  5  1  0
 21 10  1  0
 19 14  1  0
M  END
>  <Compound_ID>  (284) 
CHEMBL180341

>  <Active>  (284) 
1

>  <Smiles>  (284) 
Oc1ccc2cnc(Nc3ccc(N4CCOCC4)cc3)nc2c1C1CCCC1

>  <canonical_smi>  (284) 
Oc1ccc2cnc(Nc3ccc(N4CCOCC4)cc3)nc2c1C1CCCC1

>  <Set>  (284) 
G2 active

>  <Set_type>  (284) 
Train

>  <MW>  (284) 
390.49

>  <HBD>  (284) 
2

>  <HBA>  (284) 
6

>  <NRB>  (284) 
4

>  <NR>  (284) 
5

>  <NAR>  (284) 
3

>  <PSA>  (284) 
70.51

>  <Standard Type>  (284) 
nan

>  <Standard Relation>  (284) 
nan

>  <Standard Units>  (284) 
nan

>  <Standard Value>  (284) 
nan

>  <Assay ChEMBL ID>  (284) 
nan

>  <Assay Description>  (284) 
nan

>  <BAO Label>  (284) 
nan

$$$$

     RDKit          2D

 34 39  0  0  0  0  0  0  0  0999 V2000
    3.7385    5.7246    0.0000 O   0  0  0  0  0  0  0  0  0  0  0  0
    4.0503    4.2574    0.0000 C   0  0  0  0  0  0  0  0  0  0  0  0
    5.4769    3.7939    0.0000 N   0  0  0  0  0  0  0  0  0  0  0  0
    6.5916    4.7976    0.0000 C   0  0  0  0  0  0  0  0  0  0  0  0
    6.4348    6.2893    0.0000 C   0  0  0  0  0  0  0  0  0  0  0  0
    7.8051    6.8994    0.0000 C   0  0  0  0  0  0  0  0  0  0  0  0
    8.1170    8.3667    0.0000 C   0  0  0  0  0  0  0  0  0  0  0  0
    9.5436    8.8302    0.0000 N   0  0  0  0  0  0  0  0  0  0  0  0
    9.8555   10.2974    0.0000 C   0  0  0  0  0  0  0  0  0  0  0  0
   11.2258   10.9075    0.0000 C   0  0  0  0  0  0  0  0  0  0  0  0
   11.0690   12.3993    0.0000 C   0  0  0  0  0  0  0  0  0  0  0  0
   12.0727   13.5140    0.0000 C   0  0  0  0  0  0  0  0  0  0  0  0
   11.6092   14.9406    0.0000 C   0  0  0  0  0  0  0  0  0  0  0  0
   10.1419   15.2525    0.0000 C   0  0  0  0  0  0  0  0  0  0  0  0
    9.6784   16.6791    0.0000 Cl  0  0  0  0  0  0  0  0  0  0  0  0
    9.1382   14.1378    0.0000 C   0  0  0  0  0  0  0  0  0  0  0  0
    9.6018   12.7112    0.0000 C   0  0  0  0  0  0  0  0  0  0  0  0
    8.8518   11.4121    0.0000 C   0  0  0  0  0  0  0  0  0  0  0  0
    8.8088    5.7847    0.0000 N   0  0  0  0  0  0  0  0  0  0  0  0
    8.0588    4.4857    0.0000 N   0  0  0  0  0  0  0  0  0  0  0  0
    2.9356    3.2537    0.0000 N   0  0  0  0  0  0  0  0  0  0  0  0
    1.5090    3.7172    0.0000 C   0  0  0  0  0  0  0  0  0  0  0  0
    1.1971    5.1844    0.0000 C   0  0  0  0  0  0  0  0  0  0  0  0
   -0.2294    5.6480    0.0000 C   0  0  0  0  0  0  0  0  0  0  0  0
   -1.3442    4.6443    0.0000 C   0  0  0  0  0  0  0  0  0  0  0  0
   -1.0323    3.1771    0.0000 C   0  0  0  0  0  0  0  0  0  0  0  0
    0.3943    2.7135    0.0000 C   0  0  0  0  0  0  0  0  0  0  0  0
    0.3943    1.2135    0.0000 C   0  0  0  0  0  0  0  0  0  0  0  0
    1.2760    0.0000    0.0000 C   0  0  0  0  0  0  0  0  0  0  0  0
    0.3943   -1.2135    0.0000 C   0  0  0  0  0  0  0  0  0  0  0  0
   -1.0323   -0.7500    0.0000 C   0  0  0  0  0  0  0  0  0  0  0  0
   -1.0323    0.7500    0.0000 N   0  0  0  0  0  0  0  0  0  0  0  0
   -1.9140    1.9635    0.0000 C   0  0  0  0  0  0  0  0  0  0  0  0
   -3.4140    1.9635    0.0000 O   0  0  0  0  0  0  0  0  0  0  0  0
  1  2  2  0
  2  3  1  0
  3  4  1  0
  4  5  2  0
  5  6  1  0
  6  7  1  0
  7  8  1  0
  9  8  1  6
  9 10  1  0
 10 11  1  0
 11 12  2  0
 12 13  1  0
 13 14  2  0
 14 15  1  0
 14 16  1  0
 16 17  2  0
 17 18  1  0
  6 19  2  0
 19 20  1  0
  2 21  1  0
 21 22  1  0
 22 23  2  0
 23 24  1  0
 24 25  2  0
 25 26  1  0
 26 27  2  0
 27 28  1  0
 28 29  1  1
 29 30  1  0
 30 31  1  0
 31 32  1  0
 32 33  1  0
 33 34  2  0
 20  4  1  0
 27 22  1  0
 32 28  1  0
 18  9  1  0
 33 26  1  0
 17 11  1  0
M  END
>  <Compound_ID>  (285) 
CHEMBL143748

>  <Active>  (285) 
1

>  <Smiles>  (285) 
O=C(Nc1cc(CN[C@H]2Cc3ccc(Cl)cc3C2)n[nH]1)Nc1cccc2c1[C@H]1CCCN1C2=O

>  <canonical_smi>  (285) 
O=C(Nc1cc(CN[C@H]2Cc3ccc(Cl)cc3C2)n[nH]1)Nc1cccc2c1[C@H]1CCCN1C2=O

>  <Set>  (285) 
G2 active

>  <Set_type>  (285) 
Train

>  <MW>  (285) 
476.97

>  <HBD>  (285) 
4

>  <HBA>  (285) 
4

>  <NRB>  (285) 
5

>  <NR>  (285) 
6

>  <NAR>  (285) 
3

>  <PSA>  (285) 
102.15

>  <Standard Type>  (285) 
nan

>  <Standard Relation>  (285) 
nan

>  <Standard Units>  (285) 
nan

>  <Standard Value>  (285) 
nan

>  <Assay ChEMBL ID>  (285) 
nan

>  <Assay Description>  (285) 
nan

>  <BAO Label>  (285) 
nan

$$$$

     RDKit          2D

 29 31  0  0  0  0  0  0  0  0999 V2000
    3.7500   -6.4952    0.0000 C   0  0  0  0  0  0  0  0  0  0  0  0
    3.0000   -5.1962    0.0000 N   0  0  0  0  0  0  0  0  0  0  0  0
    3.7500   -3.8971    0.0000 C   0  0  0  0  0  0  0  0  0  0  0  0
    3.0000   -2.5981    0.0000 C   0  0  0  0  0  0  0  0  0  0  0  0
    3.7500   -1.2990    0.0000 N   0  0  0  0  0  0  0  0  0  0  0  0
    5.2500   -1.2990    0.0000 C   0  0  0  0  0  0  0  0  0  0  0  0
    3.0000    0.0000    0.0000 C   0  0  0  0  0  0  0  0  0  0  0  0
    3.7500    1.2990    0.0000 O   0  0  0  0  0  0  0  0  0  0  0  0
    1.5000    0.0000    0.0000 C   0  0  0  0  0  0  0  0  0  0  0  0
    0.7500   -1.2990    0.0000 C   0  0  0  0  0  0  0  0  0  0  0  0
   -0.7500   -1.2990    0.0000 C   0  0  0  0  0  0  0  0  0  0  0  0
   -1.5000   -2.5981    0.0000 S   0  0  0  0  0  0  0  0  0  0  0  0
   -3.0000   -2.5981    0.0000 C   0  0  0  0  0  0  0  0  0  0  0  0
   -3.8817   -3.8116    0.0000 C   0  0  0  0  0  0  0  0  0  0  0  0
   -5.3083   -3.3481    0.0000 N   0  0  0  0  0  0  0  0  0  0  0  0
   -5.3083   -1.8481    0.0000 C   0  0  0  0  0  0  0  0  0  0  0  0
   -6.5218   -0.9664    0.0000 N   0  0  0  0  0  0  0  0  0  0  0  0
   -6.3650    0.5254    0.0000 C   0  0  0  0  0  0  0  0  0  0  0  0
   -4.9947    1.1355    0.0000 C   0  0  0  0  0  0  0  0  0  0  0  0
   -4.8379    2.6273    0.0000 C   0  0  0  0  0  0  0  0  0  0  0  0
   -6.0514    3.5090    0.0000 C   0  0  0  0  0  0  0  0  0  0  0  0
   -7.4217    2.8988    0.0000 C   0  0  0  0  0  0  0  0  0  0  0  0
   -8.6353    3.7805    0.0000 Br  0  0  0  0  0  0  0  0  0  0  0  0
   -7.5785    1.4071    0.0000 N   0  0  0  0  0  0  0  0  0  0  0  0
   -3.8817   -1.3846    0.0000 S   0  0  0  0  0  0  0  0  0  0  0  0
   -1.5000    0.0000    0.0000 C   0  0  0  0  0  0  0  0  0  0  0  0
   -0.7500    1.2990    0.0000 C   0  0  0  0  0  0  0  0  0  0  0  0
    0.7500    1.2990    0.0000 C   0  0  0  0  0  0  0  0  0  0  0  0
    1.5000    2.5981    0.0000 C   0  0  0  0  0  0  0  0  0  0  0  0
  1  2  1  0
  2  3  1  0
  3  4  1  0
  4  5  1  0
  5  6  1  0
  5  7  1  0
  7  8  2  0
  7  9  1  0
  9 10  2  0
 10 11  1  0
 11 12  1  0
 12 13  1  0
 13 14  2  0
 14 15  1  0
 15 16  2  0
 16 17  1  0
 17 18  1  0
 18 19  2  0
 19 20  1  0
 20 21  2  0
 21 22  1  0
 22 23  1  0
 22 24  2  0
 16 25  1  0
 11 26  2  0
 26 27  1  0
 27 28  2  0
 28 29  1  0
 28  9  1  0
 25 13  1  0
 24 18  1  0
M  END
>  <Compound_ID>  (286) 
CHEMBL254269

>  <Active>  (286) 
1

>  <Smiles>  (286) 
CNCCN(C)C(=O)c1cc(Sc2cnc(Nc3cccc(Br)n3)s2)ccc1C

>  <canonical_smi>  (286) 
CNCCN(C)C(=O)c1cc(Sc2cnc(Nc3cccc(Br)n3)s2)ccc1C

>  <Set>  (286) 
G2 active

>  <Set_type>  (286) 
Train

>  <MW>  (286) 
492.47

>  <HBD>  (286) 
2

>  <HBA>  (286) 
6

>  <NRB>  (286) 
8

>  <NR>  (286) 
3

>  <NAR>  (286) 
3

>  <PSA>  (286) 
70.15

>  <Standard Type>  (286) 
nan

>  <Standard Relation>  (286) 
nan

>  <Standard Units>  (286) 
nan

>  <Standard Value>  (286) 
nan

>  <Assay ChEMBL ID>  (286) 
nan

>  <Assay Description>  (286) 
nan

>  <BAO Label>  (286) 
nan

$$$$

     RDKit          2D

 25 28  0  0  0  0  0  0  0  0999 V2000
    6.1091    2.0882    0.0000 N   0  0  0  0  0  0  0  0  0  0  0  0
    4.7388    2.6983    0.0000 C   0  0  0  0  0  0  0  0  0  0  0  0
    4.4269    4.1655    0.0000 N   0  0  0  0  0  0  0  0  0  0  0  0
    2.9352    4.3223    0.0000 C   0  0  0  0  0  0  0  0  0  0  0  0
    2.1852    5.6213    0.0000 O   0  0  0  0  0  0  0  0  0  0  0  0
    2.3250    2.9520    0.0000 C   0  0  0  0  0  0  0  0  0  0  0  0
    0.8578    2.6401    0.0000 C   0  0  0  0  0  0  0  0  0  0  0  0
    0.3943    1.2135    0.0000 C   0  0  0  0  0  0  0  0  0  0  0  0
    1.2760    0.0000    0.0000 N   0  0  0  0  0  0  0  0  0  0  0  0
    0.3943   -1.2135    0.0000 N   0  0  0  0  0  0  0  0  0  0  0  0
    0.3943   -2.7135    0.0000 C   0  0  0  0  0  0  0  0  0  0  0  0
    1.6078   -3.5952    0.0000 C   0  0  0  0  0  0  0  0  0  0  0  0
    1.4510   -5.0870    0.0000 O   0  0  0  0  0  0  0  0  0  0  0  0
    2.6646   -5.9687    0.0000 C   0  0  0  0  0  0  0  0  0  0  0  0
    2.5078   -7.4604    0.0000 C   0  0  0  0  0  0  0  0  0  0  0  0
    3.7213   -8.3421    0.0000 C   0  0  0  0  0  0  0  0  0  0  0  0
    5.0916   -7.7320    0.0000 C   0  0  0  0  0  0  0  0  0  0  0  0
    6.3051   -8.6137    0.0000 Cl  0  0  0  0  0  0  0  0  0  0  0  0
    5.2484   -6.2402    0.0000 C   0  0  0  0  0  0  0  0  0  0  0  0
    4.0349   -5.3586    0.0000 C   0  0  0  0  0  0  0  0  0  0  0  0
   -1.0323   -3.1771    0.0000 N   0  0  0  0  0  0  0  0  0  0  0  0
   -1.9140   -1.9635    0.0000 N   0  0  0  0  0  0  0  0  0  0  0  0
   -1.0323   -0.7500    0.0000 C   0  0  0  0  0  0  0  0  0  0  0  0
   -1.0323    0.7500    0.0000 S   0  0  0  0  0  0  0  0  0  0  0  0
    3.4398    1.9483    0.0000 S   0  0  0  0  0  0  0  0  0  0  0  0
  1  2  1  0
  2  3  2  0
  3  4  1  0
  4  5  1  0
  4  6  2  0
  6  7  1  0
  7  8  1  0
  8  9  2  0
  9 10  1  0
 10 11  1  0
 11 12  1  0
 12 13  1  0
 13 14  1  0
 14 15  2  0
 15 16  1  0
 16 17  2  0
 17 18  1  0
 17 19  1  0
 19 20  2  0
 11 21  2  0
 21 22  1  0
 22 23  2  0
 23 24  1  0
  6 25  1  0
 25  2  1  0
 24  8  1  0
 23 10  1  0
 20 14  1  0
M  END
>  <Compound_ID>  (287) 
CHEMBL559301

>  <Active>  (287) 
1

>  <Smiles>  (287) 
Nc1nc(O)c(Cc2nn3c(COc4ccc(Cl)cc4)nnc3s2)s1

>  <canonical_smi>  (287) 
Nc1nc(O)c(Cc2nn3c(COc4ccc(Cl)cc4)nnc3s2)s1

>  <Set>  (287) 
G2 active

>  <Set_type>  (287) 
Train

>  <MW>  (287) 
394.87

>  <HBD>  (287) 
2

>  <HBA>  (287) 
7

>  <NRB>  (287) 
5

>  <NR>  (287) 
4

>  <NAR>  (287) 
4

>  <PSA>  (287) 
111.45

>  <Standard Type>  (287) 
nan

>  <Standard Relation>  (287) 
nan

>  <Standard Units>  (287) 
nan

>  <Standard Value>  (287) 
nan

>  <Assay ChEMBL ID>  (287) 
nan

>  <Assay Description>  (287) 
nan

>  <BAO Label>  (287) 
nan

$$$$

     RDKit          2D

 30 33  0  0  0  0  0  0  0  0999 V2000
    7.4146   -6.0524    0.0000 N   0  0  0  0  0  0  0  0  0  0  0  0
    6.2011   -6.9341    0.0000 C   0  0  0  0  0  0  0  0  0  0  0  0
    4.8308   -6.3240    0.0000 C   0  0  0  0  0  0  0  0  0  0  0  0
    4.6740   -4.8322    0.0000 N   0  0  0  0  0  0  0  0  0  0  0  0
    3.3037   -4.2221    0.0000 C   0  0  0  0  0  0  0  0  0  0  0  0
    2.0046   -4.9721    0.0000 N   0  0  0  0  0  0  0  0  0  0  0  0
    0.8899   -3.9684    0.0000 C   0  0  0  0  0  0  0  0  0  0  0  0
    1.5000   -2.5981    0.0000 C   0  0  0  0  0  0  0  0  0  0  0  0
    0.7500   -1.2990    0.0000 C   0  0  0  0  0  0  0  0  0  0  0  0
    1.5000    0.0000    0.0000 C   0  0  0  0  0  0  0  0  0  0  0  0
    0.7500    1.2990    0.0000 C   0  0  0  0  0  0  0  0  0  0  0  0
   -0.7500    1.2990    0.0000 C   0  0  0  0  0  0  0  0  0  0  0  0
   -1.5000    0.0000    0.0000 C   0  0  0  0  0  0  0  0  0  0  0  0
   -0.7500   -1.2990    0.0000 C   0  0  0  0  0  0  0  0  0  0  0  0
   -2.9672    0.3119    0.0000 C   0  0  0  0  0  0  0  0  0  0  0  0
   -3.1240    1.8037    0.0000 C   0  0  0  0  0  0  0  0  0  0  0  0
   -4.4231    2.5537    0.0000 O   0  0  0  0  0  0  0  0  0  0  0  0
   -1.7537    2.4138    0.0000 N   0  0  0  0  0  0  0  0  0  0  0  0
    2.9918   -2.7549    0.0000 S   0  0  0  0  0  0  0  0  0  0  0  0
    6.3579   -8.4259    0.0000 C   0  0  0  0  0  0  0  0  0  0  0  0
    7.7282   -9.0360    0.0000 C   0  0  0  0  0  0  0  0  0  0  0  0
    7.8850  -10.5278    0.0000 C   0  0  0  0  0  0  0  0  0  0  0  0
    9.2553  -11.1379    0.0000 C   0  0  0  0  0  0  0  0  0  0  0  0
   10.4688  -10.2562    0.0000 C   0  0  0  0  0  0  0  0  0  0  0  0
   11.8391  -10.8663    0.0000 C   0  0  0  0  0  0  0  0  0  0  0  0
   13.2095  -11.4764    0.0000 F   0  0  0  0  0  0  0  0  0  0  0  0
   11.2290  -12.2366    0.0000 F   0  0  0  0  0  0  0  0  0  0  0  0
   12.4492   -9.4960    0.0000 F   0  0  0  0  0  0  0  0  0  0  0  0
   10.3120   -8.7644    0.0000 C   0  0  0  0  0  0  0  0  0  0  0  0
    8.9417   -8.1543    0.0000 C   0  0  0  0  0  0  0  0  0  0  0  0
  2  1  1  1
  2  3  1  0
  3  4  1  0
  4  5  1  0
  5  6  2  0
  6  7  1  0
  7  8  2  0
  8  9  1  0
  9 10  2  0
 10 11  1  0
 11 12  2  0
 12 13  1  0
 13 14  2  0
 13 15  1  0
 15 16  1  0
 16 17  2  0
 16 18  1  0
  8 19  1  0
  2 20  1  0
 20 21  1  0
 21 22  2  0
 22 23  1  0
 23 24  2  0
 24 25  1  0
 25 26  1  0
 25 27  1  0
 25 28  1  0
 24 29  1  0
 29 30  2  0
 19  5  1  0
 30 21  1  0
 14  9  1  0
 18 12  1  0
M  END
>  <Compound_ID>  (288) 
CHEMBL1081831

>  <Active>  (288) 
1

>  <Smiles>  (288) 
N[C@H](CNc1ncc(-c2ccc3c(c2)CC(=O)N3)s1)Cc1ccc(C(F)(F)F)cc1

>  <canonical_smi>  (288) 
N[C@H](CNc1ncc(-c2ccc3c(c2)CC(=O)N3)s1)Cc1ccc(C(F)(F)F)cc1

>  <Set>  (288) 
G2 active

>  <Set_type>  (288) 
Train

>  <MW>  (288) 
432.47

>  <HBD>  (288) 
3

>  <HBA>  (288) 
4

>  <NRB>  (288) 
6

>  <NR>  (288) 
4

>  <NAR>  (288) 
3

>  <PSA>  (288) 
80.04

>  <Standard Type>  (288) 
nan

>  <Standard Relation>  (288) 
nan

>  <Standard Units>  (288) 
nan

>  <Standard Value>  (288) 
nan

>  <Assay ChEMBL ID>  (288) 
nan

>  <Assay Description>  (288) 
nan

>  <BAO Label>  (288) 
nan

$$$$

     RDKit          2D

 21 23  0  0  0  0  0  0  0  0999 V2000
   -8.6562    2.3705    0.0000 C   0  0  0  0  0  0  0  0  0  0  0  0
   -7.2296    2.8340    0.0000 C   0  0  0  0  0  0  0  0  0  0  0  0
   -6.1149    1.8303    0.0000 C   0  0  0  0  0  0  0  0  0  0  0  0
   -4.6883    2.2939    0.0000 C   0  0  0  0  0  0  0  0  0  0  0  0
   -3.5736    1.2902    0.0000 O   0  0  0  0  0  0  0  0  0  0  0  0
   -2.1470    1.7537    0.0000 C   0  0  0  0  0  0  0  0  0  0  0  0
   -1.8351    3.2209    0.0000 C   0  0  0  0  0  0  0  0  0  0  0  0
   -2.9499    4.2246    0.0000 C   0  0  0  0  0  0  0  0  0  0  0  0
   -4.3764    3.7611    0.0000 O   0  0  0  0  0  0  0  0  0  0  0  0
   -2.6380    5.6918    0.0000 C   0  0  0  0  0  0  0  0  0  0  0  0
   -3.6417    6.8066    0.0000 C   0  0  0  0  0  0  0  0  0  0  0  0
   -2.8917    8.1056    0.0000 C   0  0  0  0  0  0  0  0  0  0  0  0
   -1.4245    7.7937    0.0000 C   0  0  0  0  0  0  0  0  0  0  0  0
   -1.2677    6.3019    0.0000 S   0  0  0  0  0  0  0  0  0  0  0  0
   -0.4086    3.6844    0.0000 C   0  0  0  0  0  0  0  0  0  0  0  0
    0.7062    2.6807    0.0000 N   0  0  0  0  0  0  0  0  0  0  0  0
    0.3943    1.2135    0.0000 C   0  0  0  0  0  0  0  0  0  0  0  0
    1.2760    0.0000    0.0000 N   0  0  0  0  0  0  0  0  0  0  0  0
    0.3943   -1.2135    0.0000 N   0  0  0  0  0  0  0  0  0  0  0  0
   -1.0323   -0.7500    0.0000 C   0  0  0  0  0  0  0  0  0  0  0  0
   -1.0323    0.7500    0.0000 C   0  0  0  0  0  0  0  0  0  0  0  0
  1  2  1  0
  2  3  1  0
  3  4  1  0
  4  5  1  0
  5  6  1  0
  6  7  1  0
  7  8  1  0
  8  9  2  0
  8 10  1  0
 10 11  2  0
 11 12  1  0
 12 13  2  0
 13 14  1  0
  7 15  2  0
 15 16  1  0
 16 17  1  0
 17 18  2  0
 18 19  1  0
 19 20  2  0
 20 21  1  0
 21  6  2  0
 14 10  1  0
 21 17  1  0
M  END
>  <Compound_ID>  (289) 
CHEMBL82243

>  <Active>  (289) 
1

>  <Smiles>  (289) 
CCCCOc1c(C(=O)c2cccs2)c[nH]c2nncc1-2

>  <canonical_smi>  (289) 
CCCCOc1c(C(=O)c2cccs2)c[nH]c2nncc1-2

>  <Set>  (289) 
G2 active

>  <Set_type>  (289) 
Train

>  <MW>  (289) 
301.37

>  <HBD>  (289) 
1

>  <HBA>  (289) 
4

>  <NRB>  (289) 
6

>  <NR>  (289) 
3

>  <NAR>  (289) 
3

>  <PSA>  (289) 
67.87

>  <Standard Type>  (289) 
nan

>  <Standard Relation>  (289) 
nan

>  <Standard Units>  (289) 
nan

>  <Standard Value>  (289) 
nan

>  <Assay ChEMBL ID>  (289) 
nan

>  <Assay Description>  (289) 
nan

>  <BAO Label>  (289) 
nan

$$$$

     RDKit          2D

 18 19  0  0  0  0  0  0  0  0999 V2000
    4.8308   -8.9221    0.0000 C   0  0  0  0  0  0  0  0  0  0  0  0
    4.6740   -7.4303    0.0000 C   0  0  0  0  0  0  0  0  0  0  0  0
    5.8875   -6.5486    0.0000 C   0  0  0  0  0  0  0  0  0  0  0  0
    3.3037   -6.8202    0.0000 C   0  0  0  0  0  0  0  0  0  0  0  0
    2.9918   -5.3529    0.0000 C   0  0  0  0  0  0  0  0  0  0  0  0
    1.5000   -5.1962    0.0000 C   0  0  0  0  0  0  0  0  0  0  0  0
    0.7500   -3.8971    0.0000 N   0  0  0  0  0  0  0  0  0  0  0  0
    1.5000   -2.5981    0.0000 C   0  0  0  0  0  0  0  0  0  0  0  0
    3.0000   -2.5981    0.0000 O   0  0  0  0  0  0  0  0  0  0  0  0
    0.7500   -1.2990    0.0000 C   0  0  0  0  0  0  0  0  0  0  0  0
    1.5000    0.0000    0.0000 C   0  0  0  0  0  0  0  0  0  0  0  0
    0.7500    1.2990    0.0000 C   0  0  0  0  0  0  0  0  0  0  0  0
   -0.7500    1.2990    0.0000 C   0  0  0  0  0  0  0  0  0  0  0  0
   -1.5000    2.5981    0.0000 Br  0  0  0  0  0  0  0  0  0  0  0  0
   -1.5000    0.0000    0.0000 C   0  0  0  0  0  0  0  0  0  0  0  0
   -0.7500   -1.2990    0.0000 C   0  0  0  0  0  0  0  0  0  0  0  0
    0.8899   -6.5665    0.0000 N   0  0  0  0  0  0  0  0  0  0  0  0
    2.0046   -7.5702    0.0000 N   0  0  0  0  0  0  0  0  0  0  0  0
  1  2  1  0
  2  3  1  0
  2  4  1  0
  4  5  2  0
  5  6  1  0
  6  7  1  0
  7  8  1  0
  8  9  2  0
  8 10  1  0
 10 11  2  0
 11 12  1  0
 12 13  2  0
 13 14  1  0
 13 15  1  0
 15 16  2  0
  6 17  2  0
 17 18  1  0
 18  4  1  0
 16 10  1  0
M  END
>  <Compound_ID>  (290) 
CHEMBL430703

>  <Active>  (290) 
1

>  <Smiles>  (290) 
CC(C)c1cc(NC(=O)c2ccc(Br)cc2)n[nH]1

>  <canonical_smi>  (290) 
CC(C)c1cc(NC(=O)c2ccc(Br)cc2)n[nH]1

>  <Set>  (290) 
G2 active

>  <Set_type>  (290) 
Train

>  <MW>  (290) 
308.18

>  <HBD>  (290) 
2

>  <HBA>  (290) 
2

>  <NRB>  (290) 
3

>  <NR>  (290) 
2

>  <NAR>  (290) 
2

>  <PSA>  (290) 
57.78

>  <Standard Type>  (290) 
nan

>  <Standard Relation>  (290) 
nan

>  <Standard Units>  (290) 
nan

>  <Standard Value>  (290) 
nan

>  <Assay ChEMBL ID>  (290) 
nan

>  <Assay Description>  (290) 
nan

>  <BAO Label>  (290) 
nan

$$$$

     RDKit          2D

 31 37  0  0  0  0  0  0  0  0999 V2000
    4.2660   -1.2584    0.0000 O   0  0  0  0  0  0  0  0  0  0  0  0
    3.9542   -2.7256    0.0000 C   0  0  0  0  0  0  0  0  0  0  0  0
    4.9579   -3.8403    0.0000 N   0  0  0  0  0  0  0  0  0  0  0  0
    4.2079   -5.1394    0.0000 C   0  0  0  0  0  0  0  0  0  0  0  0
    4.8180   -6.5097    0.0000 O   0  0  0  0  0  0  0  0  0  0  0  0
    2.7406   -4.8275    0.0000 C   0  0  0  0  0  0  0  0  0  0  0  0
    2.5838   -3.3357    0.0000 C   0  0  0  0  0  0  0  0  0  0  0  0
    1.2135   -2.7256    0.0000 C   0  0  0  0  0  0  0  0  0  0  0  0
    0.7500   -1.2990    0.0000 C   0  0  0  0  0  0  0  0  0  0  0  0
    1.5000    0.0000    0.0000 C   0  0  0  0  0  0  0  0  0  0  0  0
    0.7500    1.2990    0.0000 C   0  0  0  0  0  0  0  0  0  0  0  0
   -0.7500    1.2990    0.0000 C   0  0  0  0  0  0  0  0  0  0  0  0
   -1.5000    0.0000    0.0000 C   0  0  0  0  0  0  0  0  0  0  0  0
   -0.7500   -1.2990    0.0000 C   0  0  0  0  0  0  0  0  0  0  0  0
   -1.2135   -2.7256    0.0000 N   0  0  0  0  0  0  0  0  0  0  0  0
    0.0000   -3.6073    0.0000 C   0  0  0  0  0  0  0  0  0  0  0  0
    0.1568   -5.0991    0.0000 C   0  0  0  0  0  0  0  0  0  0  0  0
    1.5271   -5.7092    0.0000 C   0  0  0  0  0  0  0  0  0  0  0  0
    1.3703   -7.2010    0.0000 C   0  0  0  0  0  0  0  0  0  0  0  0
    2.3740   -8.3157    0.0000 C   0  0  0  0  0  0  0  0  0  0  0  0
    1.9105   -9.7423    0.0000 C   0  0  0  0  0  0  0  0  0  0  0  0
    0.4433  -10.0541    0.0000 C   0  0  0  0  0  0  0  0  0  0  0  0
   -0.5604   -8.9394    0.0000 C   0  0  0  0  0  0  0  0  0  0  0  0
   -0.0969   -7.5128    0.0000 C   0  0  0  0  0  0  0  0  0  0  0  0
   -0.8469   -6.2138    0.0000 N   0  0  0  0  0  0  0  0  0  0  0  0
   -2.2172   -5.6037    0.0000 C   0  0  0  0  0  0  0  0  0  0  0  0
   -3.6591   -6.0172    0.0000 C   0  0  0  0  0  0  0  0  0  0  0  0
   -4.4979   -7.2607    0.0000 C   0  0  0  0  0  0  0  0  0  0  0  0
   -4.3411   -8.7525    0.0000 C   0  0  0  0  0  0  0  0  0  0  0  0
   -3.2621   -9.7945    0.0000 N   0  0  0  0  0  0  0  0  0  0  0  0
   -1.7658   -9.8991    0.0000 C   0  0  0  0  0  0  0  0  0  0  0  0
  1  2  2  0
  2  3  1  0
  3  4  1  0
  4  5  2  0
  4  6  1  0
  6  7  2  0
  7  8  1  0
  8  9  1  0
  9 10  2  0
 10 11  1  0
 11 12  2  0
 12 13  1  0
 13 14  2  0
 14 15  1  0
 15 16  1  0
 16 17  1  0
 17 18  2  0
 18 19  1  0
 19 20  2  0
 20 21  1  0
 21 22  2  0
 22 23  1  0
 23 24  2  0
 24 25  1  0
 25 26  1  0
 26 27  1  0
 27 28  1  0
 28 29  1  0
 29 30  1  0
 30 31  1  0
  7  2  1  0
 16  8  2  0
 25 17  1  0
 18  6  1  0
 24 19  1  0
 14  9  1  0
 31 23  1  0
M  END
>  <Compound_ID>  (291) 
CHEMBL557581

>  <Active>  (291) 
1

>  <Smiles>  (291) 
O=C1NC(=O)c2c1c1c3ccccc3[nH]c1c1c2c2cccc3c2n1CCCCNC3

>  <canonical_smi>  (291) 
O=C1NC(=O)c2c1c1c3ccccc3[nH]c1c1c2c2cccc3c2n1CCCCNC3

>  <Set>  (291) 
G2 active

>  <Set_type>  (291) 
Train

>  <MW>  (291) 
408.46

>  <HBD>  (291) 
3

>  <HBA>  (291) 
3

>  <NRB>  (291) 
0

>  <NR>  (291) 
7

>  <NAR>  (291) 
5

>  <PSA>  (291) 
78.92

>  <Standard Type>  (291) 
nan

>  <Standard Relation>  (291) 
nan

>  <Standard Units>  (291) 
nan

>  <Standard Value>  (291) 
nan

>  <Assay ChEMBL ID>  (291) 
nan

>  <Assay Description>  (291) 
nan

>  <BAO Label>  (291) 
nan

$$$$

     RDKit          2D

 31 35  0  0  0  0  0  0  0  0999 V2000
    0.7500   -3.8971    0.0000 C   0  0  0  0  0  0  0  0  0  0  0  0
    1.5000   -2.5981    0.0000 C   0  0  0  0  0  0  0  0  0  0  0  0
    3.0000   -2.5981    0.0000 C   0  0  0  0  0  0  0  0  0  0  0  0
    3.7500   -1.2990    0.0000 O   0  0  0  0  0  0  0  0  0  0  0  0
    3.7500   -3.8971    0.0000 N   0  0  0  0  0  0  0  0  0  0  0  0
    5.2500   -3.8971    0.0000 C   0  0  0  0  0  0  0  0  0  0  0  0
    6.1317   -2.6836    0.0000 C   0  0  0  0  0  0  0  0  0  0  0  0
    7.5583   -3.1471    0.0000 C   0  0  0  0  0  0  0  0  0  0  0  0
    8.7718   -2.2654    0.0000 C   0  0  0  0  0  0  0  0  0  0  0  0
    9.3819   -0.8951    0.0000 C   0  0  0  0  0  0  0  0  0  0  0  0
   10.2636   -2.1086    0.0000 C   0  0  0  0  0  0  0  0  0  0  0  0
    7.5583   -4.6471    0.0000 N   0  0  0  0  0  0  0  0  0  0  0  0
    6.1317   -5.1106    0.0000 N   0  0  0  0  0  0  0  0  0  0  0  0
    0.7500   -1.2990    0.0000 C   0  0  0  0  0  0  0  0  0  0  0  0
    1.5000    0.0000    0.0000 C   0  0  0  0  0  0  0  0  0  0  0  0
    0.7500    1.2990    0.0000 C   0  0  0  0  0  0  0  0  0  0  0  0
   -0.7500    1.2990    0.0000 C   0  0  0  0  0  0  0  0  0  0  0  0
   -1.5000    2.5981    0.0000 N   0  0  0  0  0  0  0  0  0  0  0  0
   -2.9918    2.7549    0.0000 C   0  0  0  0  0  0  0  0  0  0  0  0
   -3.9955    1.6402    0.0000 O   0  0  0  0  0  0  0  0  0  0  0  0
   -3.3037    4.2221    0.0000 C   0  0  0  0  0  0  0  0  0  0  0  0
   -2.0046    4.9721    0.0000 C   0  0  0  0  0  0  0  0  0  0  0  0
   -0.8899    3.9684    0.0000 C   0  0  0  0  0  0  0  0  0  0  0  0
    0.5773    4.2803    0.0000 C   0  0  0  0  0  0  0  0  0  0  0  0
    1.5810    3.1655    0.0000 C   0  0  0  0  0  0  0  0  0  0  0  0
    3.0482    3.4774    0.0000 C   0  0  0  0  0  0  0  0  0  0  0  0
    3.5118    4.9040    0.0000 C   0  0  0  0  0  0  0  0  0  0  0  0
    2.5081    6.0187    0.0000 C   0  0  0  0  0  0  0  0  0  0  0  0
    1.0409    5.7068    0.0000 C   0  0  0  0  0  0  0  0  0  0  0  0
   -1.5000    0.0000    0.0000 C   0  0  0  0  0  0  0  0  0  0  0  0
   -0.7500   -1.2990    0.0000 C   0  0  0  0  0  0  0  0  0  0  0  0
  1  2  1  0
  2  3  1  0
  3  4  2  0
  3  5  1  0
  5  6  1  0
  6  7  1  0
  7  8  2  0
  8  9  1  0
  9 10  1  0
 10 11  1  0
  8 12  1  0
 12 13  1  0
  2 14  1  0
 14 15  2  0
 15 16  1  0
 16 17  2  0
 17 18  1  0
 18 19  1  0
 19 20  2  0
 19 21  1  0
 21 22  1  0
 22 23  1  0
 23 24  1  0
 24 25  2  0
 25 26  1  0
 26 27  2  0
 27 28  1  0
 28 29  2  0
 17 30  1  0
 30 31  2  0
 13  6  2  0
 31 14  1  0
 11  9  1  0
 23 18  1  0
 29 24  1  0
M  END
>  <Compound_ID>  (292) 
CHEMBL192440

>  <Active>  (292) 
1

>  <Smiles>  (292) 
CC(C(=O)Nc1cc(C2CC2)[nH]n1)c1ccc(N2C(=O)CCC2c2ccccc2)cc1

>  <canonical_smi>  (292) 
CC(C(=O)Nc1cc(C2CC2)[nH]n1)c1ccc(N2C(=O)CCC2c2ccccc2)cc1

>  <Set>  (292) 
G2 active

>  <Set_type>  (292) 
Train

>  <MW>  (292) 
414.51

>  <HBD>  (292) 
2

>  <HBA>  (292) 
3

>  <NRB>  (292) 
6

>  <NR>  (292) 
5

>  <NAR>  (292) 
3

>  <PSA>  (292) 
78.09

>  <Standard Type>  (292) 
nan

>  <Standard Relation>  (292) 
nan

>  <Standard Units>  (292) 
nan

>  <Standard Value>  (292) 
nan

>  <Assay ChEMBL ID>  (292) 
nan

>  <Assay Description>  (292) 
nan

>  <BAO Label>  (292) 
nan

$$$$

     RDKit          2D

 24 26  0  0  0  0  0  0  0  0999 V2000
    5.2500   -1.2990    0.0000 C   0  0  0  0  0  0  0  0  0  0  0  0
    3.7500   -1.2990    0.0000 C   0  0  0  0  0  0  0  0  0  0  0  0
    3.0000    0.0000    0.0000 N   0  0  0  0  0  0  0  0  0  0  0  0
    3.7500    1.2990    0.0000 C   0  0  0  0  0  0  0  0  0  0  0  0
    5.2500    1.2990    0.0000 C   0  0  0  0  0  0  0  0  0  0  0  0
    1.5000    0.0000    0.0000 C   0  0  0  0  0  0  0  0  0  0  0  0
    0.7500   -1.2990    0.0000 C   0  0  0  0  0  0  0  0  0  0  0  0
   -0.7500   -1.2990    0.0000 C   0  0  0  0  0  0  0  0  0  0  0  0
   -1.5000    0.0000    0.0000 C   0  0  0  0  0  0  0  0  0  0  0  0
   -2.9672    0.3119    0.0000 N   0  0  0  0  0  0  0  0  0  0  0  0
   -3.1240    1.8037    0.0000 N   0  0  0  0  0  0  0  0  0  0  0  0
   -1.7537    2.4138    0.0000 C   0  0  0  0  0  0  0  0  0  0  0  0
   -1.4418    3.8810    0.0000 N   0  0  0  0  0  0  0  0  0  0  0  0
   -2.5565    4.8847    0.0000 C   0  0  0  0  0  0  0  0  0  0  0  0
   -3.9831    4.4211    0.0000 O   0  0  0  0  0  0  0  0  0  0  0  0
   -2.2447    6.3519    0.0000 C   0  0  0  0  0  0  0  0  0  0  0  0
   -3.3594    7.3556    0.0000 C   0  0  0  0  0  0  0  0  0  0  0  0
   -3.0475    8.8228    0.0000 C   0  0  0  0  0  0  0  0  0  0  0  0
   -4.1622    9.8265    0.0000 C   0  0  0  0  0  0  0  0  0  0  0  0
   -5.5888    9.3630    0.0000 C   0  0  0  0  0  0  0  0  0  0  0  0
   -5.9007    7.8958    0.0000 C   0  0  0  0  0  0  0  0  0  0  0  0
   -4.7860    6.8921    0.0000 C   0  0  0  0  0  0  0  0  0  0  0  0
   -0.7500    1.2990    0.0000 C   0  0  0  0  0  0  0  0  0  0  0  0
    0.7500    1.2990    0.0000 C   0  0  0  0  0  0  0  0  0  0  0  0
  1  2  1  0
  2  3  1  0
  3  4  1  0
  4  5  1  0
  3  6  1  0
  6  7  2  0
  7  8  1  0
  8  9  2  0
  9 10  1  0
 10 11  1  0
 11 12  2  0
 12 13  1  0
 13 14  1  0
 14 15  2  0
 14 16  1  0
 16 17  1  0
 17 18  2  0
 18 19  1  0
 19 20  2  0
 20 21  1  0
 21 22  2  0
 12 23  1  0
 23 24  2  0
 24  6  1  0
 23  9  1  0
 22 17  1  0
M  END
>  <Compound_ID>  (293) 
CHEMBL402910

>  <Active>  (293) 
1

>  <Smiles>  (293) 
CCN(CC)c1ccc2[nH]nc(NC(=O)Cc3ccccc3)c2c1

>  <canonical_smi>  (293) 
CCN(CC)c1ccc2[nH]nc(NC(=O)Cc3ccccc3)c2c1

>  <Set>  (293) 
G2 active

>  <Set_type>  (293) 
Train

>  <MW>  (293) 
322.41

>  <HBD>  (293) 
2

>  <HBA>  (293) 
3

>  <NRB>  (293) 
6

>  <NR>  (293) 
3

>  <NAR>  (293) 
3

>  <PSA>  (293) 
61.02

>  <Standard Type>  (293) 
nan

>  <Standard Relation>  (293) 
nan

>  <Standard Units>  (293) 
nan

>  <Standard Value>  (293) 
nan

>  <Assay ChEMBL ID>  (293) 
nan

>  <Assay Description>  (293) 
nan

>  <BAO Label>  (293) 
nan

$$$$

     RDKit          2D

 24 27  0  0  0  0  0  0  0  0999 V2000
   -0.7500   -6.4952    0.0000 C   0  0  0  0  0  0  0  0  0  0  0  0
   -1.5000   -5.1962    0.0000 O   0  0  0  0  0  0  0  0  0  0  0  0
   -0.7500   -3.8971    0.0000 C   0  0  0  0  0  0  0  0  0  0  0  0
    0.7500   -3.8971    0.0000 C   0  0  0  0  0  0  0  0  0  0  0  0
    1.5000   -2.5981    0.0000 C   0  0  0  0  0  0  0  0  0  0  0  0
    0.7500   -1.2990    0.0000 C   0  0  0  0  0  0  0  0  0  0  0  0
    1.5000    0.0000    0.0000 C   0  0  0  0  0  0  0  0  0  0  0  0
    0.7500    1.2990    0.0000 N   0  0  0  0  0  0  0  0  0  0  0  0
   -0.7500    1.2990    0.0000 C   0  0  0  0  0  0  0  0  0  0  0  0
   -1.5000    2.5981    0.0000 N   0  0  0  0  0  0  0  0  0  0  0  0
   -0.7500    3.8971    0.0000 C   0  0  0  0  0  0  0  0  0  0  0  0
    0.7500    3.8971    0.0000 C   0  0  0  0  0  0  0  0  0  0  0  0
    1.5000    5.1962    0.0000 C   0  0  0  0  0  0  0  0  0  0  0  0
    0.7500    6.4952    0.0000 C   0  0  0  0  0  0  0  0  0  0  0  0
   -0.7500    6.4952    0.0000 C   0  0  0  0  0  0  0  0  0  0  0  0
   -1.5000    5.1962    0.0000 C   0  0  0  0  0  0  0  0  0  0  0  0
   -1.5000    0.0000    0.0000 N   0  0  0  0  0  0  0  0  0  0  0  0
   -0.7500   -1.2990    0.0000 C   0  0  0  0  0  0  0  0  0  0  0  0
   -1.5000   -2.5981    0.0000 C   0  0  0  0  0  0  0  0  0  0  0  0
   -3.0000   -2.5981    0.0000 C   0  0  0  0  0  0  0  0  0  0  0  0
   -3.8817   -3.8116    0.0000 C   0  0  0  0  0  0  0  0  0  0  0  0
   -5.3083   -3.3481    0.0000 C   0  0  0  0  0  0  0  0  0  0  0  0
   -5.3083   -1.8481    0.0000 C   0  0  0  0  0  0  0  0  0  0  0  0
   -3.8817   -1.3846    0.0000 C   0  0  0  0  0  0  0  0  0  0  0  0
  1  2  1  0
  2  3  1  0
  3  4  2  0
  4  5  1  0
  5  6  2  0
  6  7  1  0
  7  8  2  0
  8  9  1  0
  9 10  1  0
 10 11  1  0
 11 12  2  0
 12 13  1  0
 13 14  2  0
 14 15  1  0
 15 16  2  0
  9 17  2  0
 17 18  1  0
 18 19  2  0
 19 20  1  0
 20 21  1  0
 21 22  1  0
 22 23  1  0
 23 24  1  0
 19  3  1  0
 24 20  1  0
 18  6  1  0
 16 11  1  0
M  END
>  <Compound_ID>  (294) 
CHEMBL183455

>  <Active>  (294) 
1

>  <Smiles>  (294) 
COc1ccc2cnc(Nc3ccccc3)nc2c1C1CCCC1

>  <canonical_smi>  (294) 
COc1ccc2cnc(Nc3ccccc3)nc2c1C1CCCC1

>  <Set>  (294) 
G2 active

>  <Set_type>  (294) 
Train

>  <MW>  (294) 
319.41

>  <HBD>  (294) 
1

>  <HBA>  (294) 
4

>  <NRB>  (294) 
4

>  <NR>  (294) 
4

>  <NAR>  (294) 
3

>  <PSA>  (294) 
47.04

>  <Standard Type>  (294) 
nan

>  <Standard Relation>  (294) 
nan

>  <Standard Units>  (294) 
nan

>  <Standard Value>  (294) 
nan

>  <Assay ChEMBL ID>  (294) 
nan

>  <Assay Description>  (294) 
nan

>  <BAO Label>  (294) 
nan

$$$$

     RDKit          2D

 21 23  0  0  0  0  0  0  0  0999 V2000
   -8.6562    2.3705    0.0000 C   0  0  0  0  0  0  0  0  0  0  0  0
   -7.2296    2.8340    0.0000 C   0  0  0  0  0  0  0  0  0  0  0  0
   -6.1149    1.8303    0.0000 C   0  0  0  0  0  0  0  0  0  0  0  0
   -4.6883    2.2939    0.0000 C   0  0  0  0  0  0  0  0  0  0  0  0
   -3.5736    1.2902    0.0000 O   0  0  0  0  0  0  0  0  0  0  0  0
   -2.1470    1.7537    0.0000 C   0  0  0  0  0  0  0  0  0  0  0  0
   -1.8351    3.2209    0.0000 C   0  0  0  0  0  0  0  0  0  0  0  0
   -2.9499    4.2246    0.0000 C   0  0  0  0  0  0  0  0  0  0  0  0
   -4.3764    3.7611    0.0000 O   0  0  0  0  0  0  0  0  0  0  0  0
   -2.6380    5.6918    0.0000 C   0  0  0  0  0  0  0  0  0  0  0  0
   -3.6417    6.8066    0.0000 N   0  0  0  0  0  0  0  0  0  0  0  0
   -2.8917    8.1056    0.0000 C   0  0  0  0  0  0  0  0  0  0  0  0
   -1.4245    7.7937    0.0000 C   0  0  0  0  0  0  0  0  0  0  0  0
   -1.2677    6.3019    0.0000 S   0  0  0  0  0  0  0  0  0  0  0  0
   -0.4086    3.6844    0.0000 C   0  0  0  0  0  0  0  0  0  0  0  0
    0.7062    2.6807    0.0000 N   0  0  0  0  0  0  0  0  0  0  0  0
    0.3943    1.2135    0.0000 C   0  0  0  0  0  0  0  0  0  0  0  0
    1.2760    0.0000    0.0000 N   0  0  0  0  0  0  0  0  0  0  0  0
    0.3943   -1.2135    0.0000 N   0  0  0  0  0  0  0  0  0  0  0  0
   -1.0323   -0.7500    0.0000 C   0  0  0  0  0  0  0  0  0  0  0  0
   -1.0323    0.7500    0.0000 C   0  0  0  0  0  0  0  0  0  0  0  0
  1  2  1  0
  2  3  1  0
  3  4  1  0
  4  5  1  0
  5  6  1  0
  6  7  1  0
  7  8  1  0
  8  9  2  0
  8 10  1  0
 10 11  2  0
 11 12  1  0
 12 13  2  0
 13 14  1  0
  7 15  2  0
 15 16  1  0
 16 17  1  0
 17 18  2  0
 18 19  1  0
 19 20  2  0
 20 21  1  0
 21  6  2  0
 14 10  1  0
 21 17  1  0
M  END
>  <Compound_ID>  (295) 
CHEMBL78959

>  <Active>  (295) 
1

>  <Smiles>  (295) 
CCCCOc1c(C(=O)c2nccs2)c[nH]c2nncc1-2

>  <canonical_smi>  (295) 
CCCCOc1c(C(=O)c2nccs2)c[nH]c2nncc1-2

>  <Set>  (295) 
G2 active

>  <Set_type>  (295) 
Train

>  <MW>  (295) 
302.36

>  <HBD>  (295) 
1

>  <HBA>  (295) 
5

>  <NRB>  (295) 
6

>  <NR>  (295) 
3

>  <NAR>  (295) 
3

>  <PSA>  (295) 
80.76

>  <Standard Type>  (295) 
nan

>  <Standard Relation>  (295) 
nan

>  <Standard Units>  (295) 
nan

>  <Standard Value>  (295) 
nan

>  <Assay ChEMBL ID>  (295) 
nan

>  <Assay Description>  (295) 
nan

>  <BAO Label>  (295) 
nan

$$$$

     RDKit          2D

 26 28  0  0  0  0  0  0  0  0999 V2000
   -3.4408    8.1628    0.0000 C   0  0  0  0  0  0  0  0  0  0  0  0
   -3.7527    6.6955    0.0000 C   0  0  0  0  0  0  0  0  0  0  0  0
   -2.6380    5.6918    0.0000 C   0  0  0  0  0  0  0  0  0  0  0  0
   -1.2114    6.1554    0.0000 C   0  0  0  0  0  0  0  0  0  0  0  0
   -0.8995    7.6226    0.0000 O   0  0  0  0  0  0  0  0  0  0  0  0
   -2.9499    4.2246    0.0000 N   0  0  0  0  0  0  0  0  0  0  0  0
   -1.8351    3.2209    0.0000 C   0  0  0  0  0  0  0  0  0  0  0  0
   -0.4086    3.6844    0.0000 N   0  0  0  0  0  0  0  0  0  0  0  0
    0.7062    2.6807    0.0000 C   0  0  0  0  0  0  0  0  0  0  0  0
    2.1328    3.1443    0.0000 N   0  0  0  0  0  0  0  0  0  0  0  0
    2.4446    4.6115    0.0000 C   0  0  0  0  0  0  0  0  0  0  0  0
    3.8712    5.0750    0.0000 C   0  0  0  0  0  0  0  0  0  0  0  0
    4.9859    4.0713    0.0000 C   0  0  0  0  0  0  0  0  0  0  0  0
    6.4125    4.5348    0.0000 C   0  0  0  0  0  0  0  0  0  0  0  0
    6.7244    6.0021    0.0000 C   0  0  0  0  0  0  0  0  0  0  0  0
    5.6097    7.0058    0.0000 C   0  0  0  0  0  0  0  0  0  0  0  0
    4.1831    6.5422    0.0000 C   0  0  0  0  0  0  0  0  0  0  0  0
    0.3943    1.2135    0.0000 C   0  0  0  0  0  0  0  0  0  0  0  0
    1.2760    0.0000    0.0000 N   0  0  0  0  0  0  0  0  0  0  0  0
    0.3943   -1.2135    0.0000 C   0  0  0  0  0  0  0  0  0  0  0  0
   -1.0323   -0.7500    0.0000 C   0  0  0  0  0  0  0  0  0  0  0  0
   -2.2458   -1.6317    0.0000 C   0  0  0  0  0  0  0  0  0  0  0  0
   -2.0890   -3.1235    0.0000 C   0  0  0  0  0  0  0  0  0  0  0  0
   -3.6161   -1.0216    0.0000 C   0  0  0  0  0  0  0  0  0  0  0  0
   -1.0323    0.7500    0.0000 N   0  0  0  0  0  0  0  0  0  0  0  0
   -2.1470    1.7537    0.0000 N   0  0  0  0  0  0  0  0  0  0  0  0
  1  2  1  0
  3  2  1  6
  3  4  1  0
  4  5  1  0
  3  6  1  0
  6  7  1  0
  7  8  1  0
  8  9  2  0
  9 10  1  0
 10 11  1  0
 11 12  1  0
 12 13  2  0
 13 14  1  0
 14 15  2  0
 15 16  1  0
 16 17  2  0
  9 18  1  0
 18 19  2  0
 19 20  1  0
 20 21  2  0
 21 22  1  0
 22 23  1  0
 22 24  1  0
 21 25  1  0
 25 26  1  0
 26  7  2  0
 17 12  1  0
 25 18  1  0
M  END
>  <Compound_ID>  (296) 
CHEMBL482211

>  <Active>  (296) 
1

>  <Smiles>  (296) 
CC[C@H](CO)Nc1nc(NCc2ccccc2)c2ncc(C(C)C)n2n1

>  <canonical_smi>  (296) 
CC[C@H](CO)Nc1nc(NCc2ccccc2)c2ncc(C(C)C)n2n1

>  <Set>  (296) 
G2 active

>  <Set_type>  (296) 
Train

>  <MW>  (296) 
354.46

>  <HBD>  (296) 
3

>  <HBA>  (296) 
6

>  <NRB>  (296) 
8

>  <NR>  (296) 
3

>  <NAR>  (296) 
3

>  <PSA>  (296) 
87.37

>  <Standard Type>  (296) 
nan

>  <Standard Relation>  (296) 
nan

>  <Standard Units>  (296) 
nan

>  <Standard Value>  (296) 
nan

>  <Assay ChEMBL ID>  (296) 
nan

>  <Assay Description>  (296) 
nan

>  <BAO Label>  (296) 
nan

$$$$

     RDKit          2D

 14 15  0  0  0  0  0  0  0  0999 V2000
    7.2760   -2.5981    0.0000 C   0  0  0  0  0  0  0  0  0  0  0  0
    5.7760   -2.5981    0.0000 C   0  0  0  0  0  0  0  0  0  0  0  0
    5.0260   -1.2990    0.0000 C   0  0  0  0  0  0  0  0  0  0  0  0
    3.5260   -1.2990    0.0000 C   0  0  0  0  0  0  0  0  0  0  0  0
    2.7760   -2.5981    0.0000 O   0  0  0  0  0  0  0  0  0  0  0  0
    2.7760    0.0000    0.0000 N   0  0  0  0  0  0  0  0  0  0  0  0
    1.2760    0.0000    0.0000 C   0  0  0  0  0  0  0  0  0  0  0  0
    0.3943    1.2135    0.0000 C   0  0  0  0  0  0  0  0  0  0  0  0
   -1.0323    0.7500    0.0000 C   0  0  0  0  0  0  0  0  0  0  0  0
   -2.2458    1.6317    0.0000 C   0  0  0  0  0  0  0  0  0  0  0  0
   -3.7376    1.7885    0.0000 C   0  0  0  0  0  0  0  0  0  0  0  0
   -2.8559    3.0020    0.0000 C   0  0  0  0  0  0  0  0  0  0  0  0
   -1.0323   -0.7500    0.0000 N   0  0  0  0  0  0  0  0  0  0  0  0
    0.3943   -1.2135    0.0000 N   0  0  0  0  0  0  0  0  0  0  0  0
  1  2  1  0
  2  3  1  0
  3  4  1  0
  4  5  2  0
  4  6  1  0
  6  7  1  0
  7  8  1  0
  8  9  2  0
  9 10  1  0
 10 11  1  0
 11 12  1  0
  9 13  1  0
 13 14  1  0
 14  7  2  0
 12 10  1  0
M  END
>  <Compound_ID>  (297) 
CHEMBL112442

>  <Active>  (297) 
1

>  <Smiles>  (297) 
CCCC(=O)Nc1cc(C2CC2)[nH]n1

>  <canonical_smi>  (297) 
CCCC(=O)Nc1cc(C2CC2)[nH]n1

>  <Set>  (297) 
G2 active

>  <Set_type>  (297) 
Train

>  <MW>  (297) 
193.25

>  <HBD>  (297) 
2

>  <HBA>  (297) 
2

>  <NRB>  (297) 
4

>  <NR>  (297) 
2

>  <NAR>  (297) 
1

>  <PSA>  (297) 
57.78

>  <Standard Type>  (297) 
nan

>  <Standard Relation>  (297) 
nan

>  <Standard Units>  (297) 
nan

>  <Standard Value>  (297) 
nan

>  <Assay ChEMBL ID>  (297) 
nan

>  <Assay Description>  (297) 
nan

>  <BAO Label>  (297) 
nan

$$$$

     RDKit          2D

 24 26  0  0  0  0  0  0  0  0999 V2000
    7.4557  -13.2052    0.0000 C   0  0  0  0  0  0  0  0  0  0  0  0
    8.7547  -12.4552    0.0000 C   0  0  0  0  0  0  0  0  0  0  0  0
   10.0538  -11.7052    0.0000 C   0  0  0  0  0  0  0  0  0  0  0  0
    9.5047  -13.7542    0.0000 C   0  0  0  0  0  0  0  0  0  0  0  0
    8.0047  -11.1562    0.0000 C   0  0  0  0  0  0  0  0  0  0  0  0
    8.6148   -9.7859    0.0000 C   0  0  0  0  0  0  0  0  0  0  0  0
    7.5001   -8.7822    0.0000 N   0  0  0  0  0  0  0  0  0  0  0  0
    6.2011   -9.5322    0.0000 C   0  0  0  0  0  0  0  0  0  0  0  0
    4.8308   -8.9221    0.0000 C   0  0  0  0  0  0  0  0  0  0  0  0
    4.6740   -7.4303    0.0000 S   0  0  0  0  0  0  0  0  0  0  0  0
    3.3037   -6.8202    0.0000 C   0  0  0  0  0  0  0  0  0  0  0  0
    2.0046   -7.5702    0.0000 C   0  0  0  0  0  0  0  0  0  0  0  0
    0.8899   -6.5665    0.0000 N   0  0  0  0  0  0  0  0  0  0  0  0
    1.5000   -5.1962    0.0000 C   0  0  0  0  0  0  0  0  0  0  0  0
    0.7500   -3.8971    0.0000 N   0  0  0  0  0  0  0  0  0  0  0  0
    1.5000   -2.5981    0.0000 C   0  0  0  0  0  0  0  0  0  0  0  0
    0.7500   -1.2990    0.0000 C   0  0  0  0  0  0  0  0  0  0  0  0
    1.5000    0.0000    0.0000 C   0  0  0  0  0  0  0  0  0  0  0  0
    0.7500    1.2990    0.0000 C   0  0  0  0  0  0  0  0  0  0  0  0
   -0.7500    1.2990    0.0000 N   0  0  0  0  0  0  0  0  0  0  0  0
   -1.5000    0.0000    0.0000 C   0  0  0  0  0  0  0  0  0  0  0  0
   -0.7500   -1.2990    0.0000 C   0  0  0  0  0  0  0  0  0  0  0  0
    2.9918   -5.3529    0.0000 S   0  0  0  0  0  0  0  0  0  0  0  0
    6.5129  -10.9994    0.0000 O   0  0  0  0  0  0  0  0  0  0  0  0
  1  2  1  0
  2  3  1  0
  2  4  1  0
  2  5  1  0
  5  6  2  0
  6  7  1  0
  7  8  2  0
  8  9  1  0
  9 10  1  0
 10 11  1  0
 11 12  2  0
 12 13  1  0
 13 14  2  0
 14 15  1  0
 15 16  1  0
 16 17  1  0
 17 18  1  0
 18 19  1  0
 19 20  1  0
 20 21  1  0
 21 22  1  0
 14 23  1  0
  8 24  1  0
 24  5  1  0
 23 11  1  0
 22 17  1  0
M  END
>  <Compound_ID>  (298) 
CHEMBL524629

>  <Active>  (298) 
1

>  <Smiles>  (298) 
CC(C)(C)c1cnc(CSc2cnc(NCC3CCNCC3)s2)o1

>  <canonical_smi>  (298) 
CC(C)(C)c1cnc(CSc2cnc(NCC3CCNCC3)s2)o1

>  <Set>  (298) 
G2 active

>  <Set_type>  (298) 
Train

>  <MW>  (298) 
366.56

>  <HBD>  (298) 
2

>  <HBA>  (298) 
6

>  <NRB>  (298) 
6

>  <NR>  (298) 
3

>  <NAR>  (298) 
2

>  <PSA>  (298) 
62.98

>  <Standard Type>  (298) 
nan

>  <Standard Relation>  (298) 
nan

>  <Standard Units>  (298) 
nan

>  <Standard Value>  (298) 
nan

>  <Assay ChEMBL ID>  (298) 
nan

>  <Assay Description>  (298) 
nan

>  <BAO Label>  (298) 
nan

$$$$

     RDKit          2D

 34 37  0  0  0  0  0  0  0  0999 V2000
    3.0000    0.0000    0.0000 C   0  0  0  0  0  0  0  0  0  0  0  0
    1.5000    0.0000    0.0000 C   0  0  0  0  0  0  0  0  0  0  0  0
    0.7500   -1.2990    0.0000 C   0  0  0  0  0  0  0  0  0  0  0  0
   -0.7500   -1.2990    0.0000 C   0  0  0  0  0  0  0  0  0  0  0  0
   -1.5000    0.0000    0.0000 C   0  0  0  0  0  0  0  0  0  0  0  0
   -3.0000    0.0000    0.0000 S   0  0  0  0  0  0  0  0  0  0  0  0
   -3.7500    1.2990    0.0000 C   0  0  0  0  0  0  0  0  0  0  0  0
   -5.2418    1.4558    0.0000 C   0  0  0  0  0  0  0  0  0  0  0  0
   -5.5537    2.9231    0.0000 N   0  0  0  0  0  0  0  0  0  0  0  0
   -4.2546    3.6731    0.0000 C   0  0  0  0  0  0  0  0  0  0  0  0
   -4.0978    5.1648    0.0000 N   0  0  0  0  0  0  0  0  0  0  0  0
   -5.3113    6.0465    0.0000 C   0  0  0  0  0  0  0  0  0  0  0  0
   -5.1546    7.5383    0.0000 C   0  0  0  0  0  0  0  0  0  0  0  0
   -6.3681    8.4200    0.0000 C   0  0  0  0  0  0  0  0  0  0  0  0
   -7.7384    7.8099    0.0000 C   0  0  0  0  0  0  0  0  0  0  0  0
   -7.8952    6.3181    0.0000 C   0  0  0  0  0  0  0  0  0  0  0  0
   -9.2655    5.7080    0.0000 Br  0  0  0  0  0  0  0  0  0  0  0  0
   -6.6817    5.4364    0.0000 N   0  0  0  0  0  0  0  0  0  0  0  0
   -3.1399    2.6694    0.0000 S   0  0  0  0  0  0  0  0  0  0  0  0
   -0.7500    1.2990    0.0000 C   0  0  0  0  0  0  0  0  0  0  0  0
    0.7500    1.2990    0.0000 C   0  0  0  0  0  0  0  0  0  0  0  0
    1.5000    2.5981    0.0000 C   0  0  0  0  0  0  0  0  0  0  0  0
    3.0000    2.5981    0.0000 O   0  0  0  0  0  0  0  0  0  0  0  0
    0.7500    3.8971    0.0000 N   0  0  0  0  0  0  0  0  0  0  0  0
    1.5000    5.1962    0.0000 C   0  0  0  0  0  0  0  0  0  0  0  0
    0.7500    6.4952    0.0000 C   0  0  0  0  0  0  0  0  0  0  0  0
   -0.7500    6.4952    0.0000 N   0  0  0  0  0  0  0  0  0  0  0  0
   -1.5000    7.7942    0.0000 C   0  0  0  0  0  0  0  0  0  0  0  0
   -3.0000    7.7942    0.0000 O   0  0  0  0  0  0  0  0  0  0  0  0
   -0.7500    9.0933    0.0000 C   0  0  0  0  0  0  0  0  0  0  0  0
   -1.5000   10.3923    0.0000 C   0  0  0  0  0  0  0  0  0  0  0  0
    0.7500    9.0933    0.0000 N   0  0  0  0  0  0  0  0  0  0  0  0
   -1.5000    5.1962    0.0000 C   0  0  0  0  0  0  0  0  0  0  0  0
   -0.7500    3.8971    0.0000 C   0  0  0  0  0  0  0  0  0  0  0  0
  1  2  1  0
  2  3  2  0
  3  4  1  0
  4  5  2  0
  5  6  1  0
  6  7  1  0
  7  8  2  0
  8  9  1  0
  9 10  2  0
 10 11  1  0
 11 12  1  0
 12 13  2  0
 13 14  1  0
 14 15  2  0
 15 16  1  0
 16 17  1  0
 16 18  2  0
 10 19  1  0
  5 20  1  0
 20 21  2  0
 21 22  1  0
 22 23  2  0
 22 24  1  0
 24 25  1  0
 25 26  1  0
 26 27  1  0
 27 28  1  0
 28 29  2  0
 28 30  1  0
 30 31  1  1
 30 32  1  0
 27 33  1  0
 33 34  1  0
 21  2  1  0
 34 24  1  0
 19  7  1  0
 18 12  1  0
M  END
>  <Compound_ID>  (299) 
CHEMBL251796

>  <Active>  (299) 
1

>  <Smiles>  (299) 
Cc1ccc(Sc2cnc(Nc3cccc(Br)n3)s2)cc1C(=O)N1CCN(C(=O)[C@@H](C)N)CC1

>  <canonical_smi>  (299) 
Cc1ccc(Sc2cnc(Nc3cccc(Br)n3)s2)cc1C(=O)N1CCN(C(=O)[C@@H](C)N)CC1

>  <Set>  (299) 
G2 active

>  <Set_type>  (299) 
Train

>  <MW>  (299) 
561.53

>  <HBD>  (299) 
2

>  <HBA>  (299) 
7

>  <NRB>  (299) 
6

>  <NR>  (299) 
4

>  <NAR>  (299) 
3

>  <PSA>  (299) 
104.45

>  <Standard Type>  (299) 
nan

>  <Standard Relation>  (299) 
nan

>  <Standard Units>  (299) 
nan

>  <Standard Value>  (299) 
nan

>  <Assay ChEMBL ID>  (299) 
nan

>  <Assay Description>  (299) 
nan

>  <BAO Label>  (299) 
nan

$$$$

     RDKit          2D

 26 29  0  0  0  0  0  0  0  0999 V2000
    0.7500   -3.8971    0.0000 C   0  0  0  0  0  0  0  0  0  0  0  0
    1.5000   -2.5981    0.0000 C   0  0  0  0  0  0  0  0  0  0  0  0
    3.0000   -2.5981    0.0000 C   0  0  0  0  0  0  0  0  0  0  0  0
    3.7500   -1.2990    0.0000 O   0  0  0  0  0  0  0  0  0  0  0  0
    3.7500   -3.8971    0.0000 N   0  0  0  0  0  0  0  0  0  0  0  0
    5.2500   -3.8971    0.0000 C   0  0  0  0  0  0  0  0  0  0  0  0
    6.1317   -2.6836    0.0000 C   0  0  0  0  0  0  0  0  0  0  0  0
    7.5583   -3.1471    0.0000 C   0  0  0  0  0  0  0  0  0  0  0  0
    8.7718   -2.2654    0.0000 C   0  0  0  0  0  0  0  0  0  0  0  0
    9.3819   -0.8951    0.0000 C   0  0  0  0  0  0  0  0  0  0  0  0
   10.2636   -2.1086    0.0000 C   0  0  0  0  0  0  0  0  0  0  0  0
    7.5583   -4.6471    0.0000 N   0  0  0  0  0  0  0  0  0  0  0  0
    6.1317   -5.1106    0.0000 N   0  0  0  0  0  0  0  0  0  0  0  0
    0.7500   -1.2990    0.0000 C   0  0  0  0  0  0  0  0  0  0  0  0
    1.5000    0.0000    0.0000 C   0  0  0  0  0  0  0  0  0  0  0  0
    0.7500    1.2990    0.0000 C   0  0  0  0  0  0  0  0  0  0  0  0
   -0.7500    1.2990    0.0000 C   0  0  0  0  0  0  0  0  0  0  0  0
   -1.5000    2.5981    0.0000 N   0  0  0  0  0  0  0  0  0  0  0  0
   -0.7500    3.8971    0.0000 C   0  0  0  0  0  0  0  0  0  0  0  0
   -1.5000    5.1962    0.0000 C   0  0  0  0  0  0  0  0  0  0  0  0
   -3.0000    5.1962    0.0000 C   0  0  0  0  0  0  0  0  0  0  0  0
   -3.7500    3.8971    0.0000 C   0  0  0  0  0  0  0  0  0  0  0  0
   -3.0000    2.5981    0.0000 C   0  0  0  0  0  0  0  0  0  0  0  0
   -3.7500    1.2990    0.0000 O   0  0  0  0  0  0  0  0  0  0  0  0
   -1.5000    0.0000    0.0000 C   0  0  0  0  0  0  0  0  0  0  0  0
   -0.7500   -1.2990    0.0000 C   0  0  0  0  0  0  0  0  0  0  0  0
  1  2  1  0
  2  3  1  0
  3  4  2  0
  3  5  1  0
  5  6  1  0
  6  7  1  0
  7  8  2  0
  8  9  1  0
  9 10  1  0
 10 11  1  0
  8 12  1  0
 12 13  1  0
  2 14  1  0
 14 15  2  0
 15 16  1  0
 16 17  2  0
 17 18  1  0
 18 19  1  0
 19 20  1  0
 20 21  1  0
 21 22  1  0
 22 23  1  0
 23 24  2  0
 17 25  1  0
 25 26  2  0
 13  6  2  0
 26 14  1  0
 11  9  1  0
 23 18  1  0
M  END
>  <Compound_ID>  (300) 
CHEMBL191865

>  <Active>  (300) 
1

>  <Smiles>  (300) 
CC(C(=O)Nc1cc(C2CC2)[nH]n1)c1ccc(N2CCCCC2=O)cc1

>  <canonical_smi>  (300) 
CC(C(=O)Nc1cc(C2CC2)[nH]n1)c1ccc(N2CCCCC2=O)cc1

>  <Set>  (300) 
G2 active

>  <Set_type>  (300) 
Train

>  <MW>  (300) 
352.44

>  <HBD>  (300) 
2

>  <HBA>  (300) 
3

>  <NRB>  (300) 
5

>  <NR>  (300) 
4

>  <NAR>  (300) 
2

>  <PSA>  (300) 
78.09

>  <Standard Type>  (300) 
nan

>  <Standard Relation>  (300) 
nan

>  <Standard Units>  (300) 
nan

>  <Standard Value>  (300) 
nan

>  <Assay ChEMBL ID>  (300) 
nan

>  <Assay Description>  (300) 
nan

>  <BAO Label>  (300) 
nan

$$$$

     RDKit          2D

 29 33  0  0  0  0  0  0  0  0999 V2000
   -1.5000   -5.1962    0.0000 O   0  0  0  0  0  0  0  0  0  0  0  0
   -0.7500   -3.8971    0.0000 C   0  0  0  0  0  0  0  0  0  0  0  0
    0.7500   -3.8971    0.0000 C   0  0  0  0  0  0  0  0  0  0  0  0
    1.5000   -2.5981    0.0000 C   0  0  0  0  0  0  0  0  0  0  0  0
    0.7500   -1.2990    0.0000 C   0  0  0  0  0  0  0  0  0  0  0  0
    1.5000    0.0000    0.0000 C   0  0  0  0  0  0  0  0  0  0  0  0
    0.7500    1.2990    0.0000 N   0  0  0  0  0  0  0  0  0  0  0  0
   -0.7500    1.2990    0.0000 C   0  0  0  0  0  0  0  0  0  0  0  0
   -1.5000    2.5981    0.0000 N   0  0  0  0  0  0  0  0  0  0  0  0
   -0.7500    3.8971    0.0000 C   0  0  0  0  0  0  0  0  0  0  0  0
    0.7500    3.8971    0.0000 C   0  0  0  0  0  0  0  0  0  0  0  0
    1.5000    5.1962    0.0000 C   0  0  0  0  0  0  0  0  0  0  0  0
    0.7500    6.4952    0.0000 C   0  0  0  0  0  0  0  0  0  0  0  0
    1.5000    7.7942    0.0000 N   0  0  0  0  0  0  0  0  0  0  0  0
    3.0000    7.7942    0.0000 C   0  0  0  0  0  0  0  0  0  0  0  0
    3.7500    9.0933    0.0000 C   0  0  0  0  0  0  0  0  0  0  0  0
    3.0000   10.3923    0.0000 C   0  0  0  0  0  0  0  0  0  0  0  0
    1.5000   10.3923    0.0000 C   0  0  0  0  0  0  0  0  0  0  0  0
    0.7500    9.0933    0.0000 C   0  0  0  0  0  0  0  0  0  0  0  0
   -0.7500    6.4952    0.0000 C   0  0  0  0  0  0  0  0  0  0  0  0
   -1.5000    5.1962    0.0000 C   0  0  0  0  0  0  0  0  0  0  0  0
   -1.5000    0.0000    0.0000 N   0  0  0  0  0  0  0  0  0  0  0  0
   -0.7500   -1.2990    0.0000 C   0  0  0  0  0  0  0  0  0  0  0  0
   -1.5000   -2.5981    0.0000 N   0  0  0  0  0  0  0  0  0  0  0  0
   -3.0000   -2.5981    0.0000 C   0  0  0  0  0  0  0  0  0  0  0  0
   -3.8817   -3.8116    0.0000 C   0  0  0  0  0  0  0  0  0  0  0  0
   -5.3083   -3.3481    0.0000 C   0  0  0  0  0  0  0  0  0  0  0  0
   -5.3083   -1.8481    0.0000 C   0  0  0  0  0  0  0  0  0  0  0  0
   -3.8817   -1.3846    0.0000 C   0  0  0  0  0  0  0  0  0  0  0  0
  1  2  2  0
  2  3  1  0
  3  4  2  0
  4  5  1  0
  5  6  2  0
  6  7  1  0
  7  8  2  0
  8  9  1  0
  9 10  1  0
 10 11  2  0
 11 12  1  0
 12 13  2  0
 13 14  1  0
 14 15  1  0
 15 16  1  0
 16 17  1  0
 17 18  1  0
 18 19  1  0
 13 20  1  0
 20 21  2  0
  8 22  1  0
 22 23  2  0
 23 24  1  0
 24 25  1  0
 25 26  1  0
 26 27  1  0
 27 28  1  0
 28 29  1  0
 24  2  1  0
 29 25  1  0
 23  5  1  0
 21 10  1  0
 19 14  1  0
M  END
>  <Compound_ID>  (301) 
CHEMBL372207

>  <Active>  (301) 
1

>  <Smiles>  (301) 
O=c1ccc2cnc(Nc3ccc(N4CCCCC4)cc3)nc2n1C1CCCC1

>  <canonical_smi>  (301) 
O=c1ccc2cnc(Nc3ccc(N4CCCCC4)cc3)nc2n1C1CCCC1

>  <Set>  (301) 
G2 active

>  <Set_type>  (301) 
Train

>  <MW>  (301) 
389.5

>  <HBD>  (301) 
1

>  <HBA>  (301) 
5

>  <NRB>  (301) 
4

>  <NR>  (301) 
5

>  <NAR>  (301) 
3

>  <PSA>  (301) 
63.05

>  <Standard Type>  (301) 
nan

>  <Standard Relation>  (301) 
nan

>  <Standard Units>  (301) 
nan

>  <Standard Value>  (301) 
nan

>  <Assay ChEMBL ID>  (301) 
nan

>  <Assay Description>  (301) 
nan

>  <BAO Label>  (301) 
nan

$$$$

     RDKit          2D

 24 25  0  0  0  0  0  0  0  0999 V2000
    5.7760   -2.5981    0.0000 C   0  0  0  0  0  0  0  0  0  0  0  0
    5.0260   -1.2990    0.0000 C   0  0  0  0  0  0  0  0  0  0  0  0
    5.7760    0.0000    0.0000 C   0  0  0  0  0  0  0  0  0  0  0  0
    3.5260   -1.2990    0.0000 C   0  0  0  0  0  0  0  0  0  0  0  0
    2.7760   -2.5981    0.0000 O   0  0  0  0  0  0  0  0  0  0  0  0
    2.7760    0.0000    0.0000 N   0  0  0  0  0  0  0  0  0  0  0  0
    1.2760    0.0000    0.0000 C   0  0  0  0  0  0  0  0  0  0  0  0
    0.3943    1.2135    0.0000 N   0  0  0  0  0  0  0  0  0  0  0  0
   -1.0323    0.7500    0.0000 C   0  0  0  0  0  0  0  0  0  0  0  0
   -1.0323   -0.7500    0.0000 C   0  0  0  0  0  0  0  0  0  0  0  0
   -2.2458   -1.6317    0.0000 S   0  0  0  0  0  0  0  0  0  0  0  0
   -1.3641   -2.8452    0.0000 O   0  0  0  0  0  0  0  0  0  0  0  0
   -3.1275   -0.4182    0.0000 O   0  0  0  0  0  0  0  0  0  0  0  0
   -3.4593   -2.5134    0.0000 C   0  0  0  0  0  0  0  0  0  0  0  0
   -3.3025   -4.0051    0.0000 C   0  0  0  0  0  0  0  0  0  0  0  0
   -2.0035   -4.7551    0.0000 N   0  0  0  0  0  0  0  0  0  0  0  0
   -2.3154   -6.2224    0.0000 C   0  0  0  0  0  0  0  0  0  0  0  0
   -3.8072   -6.3792    0.0000 C   0  0  0  0  0  0  0  0  0  0  0  0
   -4.5572   -7.6782    0.0000 C   0  0  0  0  0  0  0  0  0  0  0  0
   -5.8562   -6.9282    0.0000 C   0  0  0  0  0  0  0  0  0  0  0  0
   -3.2581   -8.4282    0.0000 C   0  0  0  0  0  0  0  0  0  0  0  0
   -5.3072   -8.9772    0.0000 C   0  0  0  0  0  0  0  0  0  0  0  0
   -4.4173   -5.0088    0.0000 O   0  0  0  0  0  0  0  0  0  0  0  0
    0.3943   -1.2135    0.0000 S   0  0  0  0  0  0  0  0  0  0  0  0
  1  2  1  0
  2  3  1  0
  2  4  1  0
  4  5  2  0
  4  6  1  0
  6  7  1  0
  7  8  2  0
  8  9  1  0
  9 10  2  0
 10 11  1  0
 11 12  2  0
 11 13  2  0
 11 14  1  0
 14 15  1  0
 15 16  2  0
 16 17  1  0
 17 18  2  0
 18 19  1  0
 19 20  1  0
 19 21  1  0
 19 22  1  0
 18 23  1  0
 10 24  1  0
 24  7  1  0
 23 15  1  0
M  END
>  <Compound_ID>  (302) 
CHEMBL435992

>  <Active>  (302) 
1

>  <Smiles>  (302) 
CC(C)C(=O)Nc1ncc(S(=O)(=O)Cc2ncc(C(C)(C)C)o2)s1

>  <canonical_smi>  (302) 
CC(C)C(=O)Nc1ncc(S(=O)(=O)Cc2ncc(C(C)(C)C)o2)s1

>  <Set>  (302) 
G2 active

>  <Set_type>  (302) 
Train

>  <MW>  (302) 
371.48

>  <HBD>  (302) 
1

>  <HBA>  (302) 
6

>  <NRB>  (302) 
5

>  <NR>  (302) 
2

>  <NAR>  (302) 
2

>  <PSA>  (302) 
102.16

>  <Standard Type>  (302) 
nan

>  <Standard Relation>  (302) 
nan

>  <Standard Units>  (302) 
nan

>  <Standard Value>  (302) 
nan

>  <Assay ChEMBL ID>  (302) 
nan

>  <Assay Description>  (302) 
nan

>  <BAO Label>  (302) 
nan

$$$$

     RDKit          2D

 21 23  0  0  0  0  0  0  0  0999 V2000
   -3.7500   -3.8971    0.0000 C   0  0  0  0  0  0  0  0  0  0  0  0
   -3.0000   -2.5981    0.0000 C   0  0  0  0  0  0  0  0  0  0  0  0
   -3.7500   -1.2990    0.0000 C   0  0  0  0  0  0  0  0  0  0  0  0
   -1.5000   -2.5981    0.0000 C   0  0  0  0  0  0  0  0  0  0  0  0
   -0.7500   -3.8971    0.0000 C   0  0  0  0  0  0  0  0  0  0  0  0
   -1.5000   -5.1962    0.0000 O   0  0  0  0  0  0  0  0  0  0  0  0
    0.7500   -3.8971    0.0000 C   0  0  0  0  0  0  0  0  0  0  0  0
    1.5000   -2.5981    0.0000 C   0  0  0  0  0  0  0  0  0  0  0  0
    0.7500   -1.2990    0.0000 C   0  0  0  0  0  0  0  0  0  0  0  0
    1.5000    0.0000    0.0000 C   0  0  0  0  0  0  0  0  0  0  0  0
    0.7500    1.2990    0.0000 N   0  0  0  0  0  0  0  0  0  0  0  0
   -0.7500    1.2990    0.0000 C   0  0  0  0  0  0  0  0  0  0  0  0
   -1.5000    2.5981    0.0000 N   0  0  0  0  0  0  0  0  0  0  0  0
   -0.7500    3.8971    0.0000 C   0  0  0  0  0  0  0  0  0  0  0  0
    0.7500    3.8971    0.0000 C   0  0  0  0  0  0  0  0  0  0  0  0
    1.5000    5.1962    0.0000 C   0  0  0  0  0  0  0  0  0  0  0  0
    0.7500    6.4952    0.0000 C   0  0  0  0  0  0  0  0  0  0  0  0
   -0.7500    6.4952    0.0000 C   0  0  0  0  0  0  0  0  0  0  0  0
   -1.5000    5.1962    0.0000 C   0  0  0  0  0  0  0  0  0  0  0  0
   -1.5000    0.0000    0.0000 N   0  0  0  0  0  0  0  0  0  0  0  0
   -0.7500   -1.2990    0.0000 C   0  0  0  0  0  0  0  0  0  0  0  0
  1  2  1  0
  2  3  1  0
  2  4  1  0
  4  5  2  0
  5  6  1  0
  5  7  1  0
  7  8  2  0
  8  9  1  0
  9 10  2  0
 10 11  1  0
 11 12  2  0
 12 13  1  0
 13 14  1  0
 14 15  2  0
 15 16  1  0
 16 17  2  0
 17 18  1  0
 18 19  2  0
 12 20  1  0
 20 21  2  0
 21  4  1  0
 21  9  1  0
 19 14  1  0
M  END
>  <Compound_ID>  (303) 
CHEMBL180993

>  <Active>  (303) 
1

>  <Smiles>  (303) 
CC(C)c1c(O)ccc2cnc(Nc3ccccc3)nc12

>  <canonical_smi>  (303) 
CC(C)c1c(O)ccc2cnc(Nc3ccccc3)nc12

>  <Set>  (303) 
G2 active

>  <Set_type>  (303) 
Train

>  <MW>  (303) 
279.34

>  <HBD>  (303) 
2

>  <HBA>  (303) 
4

>  <NRB>  (303) 
3

>  <NR>  (303) 
3

>  <NAR>  (303) 
3

>  <PSA>  (303) 
58.04

>  <Standard Type>  (303) 
nan

>  <Standard Relation>  (303) 
nan

>  <Standard Units>  (303) 
nan

>  <Standard Value>  (303) 
nan

>  <Assay ChEMBL ID>  (303) 
nan

>  <Assay Description>  (303) 
nan

>  <BAO Label>  (303) 
nan

$$$$

     RDKit          2D

 26 30  0  0  0  0  0  0  0  0999 V2000
   -4.6613    6.0728    0.0000 N   0  0  0  0  0  0  0  0  0  0  0  0
   -3.2910    5.4627    0.0000 C   0  0  0  0  0  0  0  0  0  0  0  0
   -2.0774    6.3444    0.0000 O   0  0  0  0  0  0  0  0  0  0  0  0
   -3.1342    3.9709    0.0000 C   0  0  0  0  0  0  0  0  0  0  0  0
   -4.2489    2.9672    0.0000 N   0  0  0  0  0  0  0  0  0  0  0  0
   -3.6388    1.5969    0.0000 N   0  0  0  0  0  0  0  0  0  0  0  0
   -4.3888    0.2979    0.0000 C   0  0  0  0  0  0  0  0  0  0  0  0
   -5.8888    0.2979    0.0000 C   0  0  0  0  0  0  0  0  0  0  0  0
   -6.6388   -1.0012    0.0000 C   0  0  0  0  0  0  0  0  0  0  0  0
   -5.8888   -2.3002    0.0000 C   0  0  0  0  0  0  0  0  0  0  0  0
   -6.6388   -3.5992    0.0000 C   0  0  0  0  0  0  0  0  0  0  0  0
   -6.0287   -4.9696    0.0000 N   0  0  0  0  0  0  0  0  0  0  0  0
   -7.1434   -5.9733    0.0000 C   0  0  0  0  0  0  0  0  0  0  0  0
   -8.4424   -5.2233    0.0000 C   0  0  0  0  0  0  0  0  0  0  0  0
   -8.1306   -3.7560    0.0000 N   0  0  0  0  0  0  0  0  0  0  0  0
   -4.3888   -2.3002    0.0000 C   0  0  0  0  0  0  0  0  0  0  0  0
   -3.6388   -1.0012    0.0000 C   0  0  0  0  0  0  0  0  0  0  0  0
   -2.1470    1.7537    0.0000 C   0  0  0  0  0  0  0  0  0  0  0  0
   -1.8351    3.2209    0.0000 C   0  0  0  0  0  0  0  0  0  0  0  0
   -0.4086    3.6844    0.0000 C   0  0  0  0  0  0  0  0  0  0  0  0
    0.7062    2.6807    0.0000 C   0  0  0  0  0  0  0  0  0  0  0  0
    0.3943    1.2135    0.0000 C   0  0  0  0  0  0  0  0  0  0  0  0
    1.2760    0.0000    0.0000 N   0  0  0  0  0  0  0  0  0  0  0  0
    0.3943   -1.2135    0.0000 N   0  0  0  0  0  0  0  0  0  0  0  0
   -1.0323   -0.7500    0.0000 C   0  0  0  0  0  0  0  0  0  0  0  0
   -1.0323    0.7500    0.0000 C   0  0  0  0  0  0  0  0  0  0  0  0
  1  2  1  0
  2  3  2  0
  2  4  1  0
  4  5  2  0
  5  6  1  0
  6  7  1  0
  7  8  2  0
  8  9  1  0
  9 10  2  0
 10 11  1  0
 11 12  2  0
 12 13  1  0
 13 14  1  0
 14 15  2  0
 10 16  1  0
 16 17  2  0
  6 18  1  0
 18 19  2  0
 19 20  1  0
 20 21  1  0
 21 22  1  0
 22 23  2  0
 23 24  1  0
 24 25  1  0
 25 26  2  0
 19  4  1  0
 26 22  1  0
 17  7  1  0
 26 18  1  0
 15 11  1  0
M  END
>  <Compound_ID>  (304) 
CHEMBL179511

>  <Active>  (304) 
1

>  <Smiles>  (304) 
NC(=O)c1nn(-c2ccc(C3=NCC=N3)cc2)c2c1CCc1n[nH]cc1-2

>  <canonical_smi>  (304) 
NC(=O)c1nn(-c2ccc(C3=NCC=N3)cc2)c2c1CCc1n[nH]cc1-2

>  <Set>  (304) 
G2 active

>  <Set_type>  (304) 
Train

>  <MW>  (304) 
345.37

>  <HBD>  (304) 
2

>  <HBA>  (304) 
3

>  <NRB>  (304) 
3

>  <NR>  (304) 
5

>  <NAR>  (304) 
3

>  <PSA>  (304) 
114.31

>  <Standard Type>  (304) 
nan

>  <Standard Relation>  (304) 
nan

>  <Standard Units>  (304) 
nan

>  <Standard Value>  (304) 
nan

>  <Assay ChEMBL ID>  (304) 
nan

>  <Assay Description>  (304) 
nan

>  <BAO Label>  (304) 
nan

$$$$

     RDKit          2D

 17 19  0  0  0  0  0  0  0  0999 V2000
    2.7760    0.0000    0.0000 C   0  0  0  0  0  0  0  0  0  0  0  0
    1.2760    0.0000    0.0000 C   0  0  0  0  0  0  0  0  0  0  0  0
    0.3943    1.2135    0.0000 N   0  0  0  0  0  0  0  0  0  0  0  0
   -1.0323    0.7500    0.0000 N   0  0  0  0  0  0  0  0  0  0  0  0
   -1.0323   -0.7500    0.0000 C   0  0  0  0  0  0  0  0  0  0  0  0
   -1.9140   -1.9635    0.0000 S   0  0  0  0  0  0  0  0  0  0  0  0
   -1.0323   -3.1771    0.0000 C   0  0  0  0  0  0  0  0  0  0  0  0
   -1.4958   -4.6036    0.0000 C   0  0  0  0  0  0  0  0  0  0  0  0
   -2.9630   -4.9155    0.0000 C   0  0  0  0  0  0  0  0  0  0  0  0
   -3.5731   -6.2858    0.0000 S   0  0  0  0  0  0  0  0  0  0  0  0
   -5.0649   -6.1290    0.0000 C   0  0  0  0  0  0  0  0  0  0  0  0
   -6.0686   -7.2437    0.0000 N   0  0  0  0  0  0  0  0  0  0  0  0
   -5.3768   -4.6618    0.0000 N   0  0  0  0  0  0  0  0  0  0  0  0
   -4.0778   -3.9118    0.0000 C   0  0  0  0  0  0  0  0  0  0  0  0
   -3.9210   -2.4200    0.0000 O   0  0  0  0  0  0  0  0  0  0  0  0
    0.3943   -2.7135    0.0000 N   0  0  0  0  0  0  0  0  0  0  0  0
    0.3943   -1.2135    0.0000 N   0  0  0  0  0  0  0  0  0  0  0  0
  1  2  1  0
  2  3  2  0
  3  4  1  0
  4  5  2  0
  5  6  1  0
  6  7  1  0
  7  8  1  0
  8  9  1  0
  9 10  1  0
 10 11  1  0
 11 12  1  0
 11 13  2  0
 13 14  1  0
 14 15  1  0
  7 16  2  0
 16 17  1  0
 17  2  1  0
 17  5  1  0
 14  9  2  0
M  END
>  <Compound_ID>  (305) 
CHEMBL556214

>  <Active>  (305) 
1

>  <Smiles>  (305) 
Cc1nnc2sc(Cc3sc(N)nc3O)nn12

>  <canonical_smi>  (305) 
Cc1nnc2sc(Cc3sc(N)nc3O)nn12

>  <Set>  (305) 
G2 active

>  <Set_type>  (305) 
Train

>  <MW>  (305) 
268.33

>  <HBD>  (305) 
2

>  <HBA>  (305) 
6

>  <NRB>  (305) 
2

>  <NR>  (305) 
3

>  <NAR>  (305) 
3

>  <PSA>  (305) 
102.22

>  <Standard Type>  (305) 
nan

>  <Standard Relation>  (305) 
nan

>  <Standard Units>  (305) 
nan

>  <Standard Value>  (305) 
nan

>  <Assay ChEMBL ID>  (305) 
nan

>  <Assay Description>  (305) 
nan

>  <BAO Label>  (305) 
nan

$$$$

     RDKit          2D

 35 42  0  0  0  0  0  0  0  0999 V2000
    7.9532   -3.2017    0.0000 C   0  0  0  0  0  0  0  0  0  0  0  0
    6.4699   -2.9781    0.0000 O   0  0  0  0  0  0  0  0  0  0  0  0
    5.5347   -4.1509    0.0000 C   0  0  0  0  0  0  0  0  0  0  0  0
    6.0827   -5.5472    0.0000 O   0  0  0  0  0  0  0  0  0  0  0  0
    4.0514   -3.9273    0.0000 C   0  0  0  0  0  0  0  0  0  0  0  0
    4.4288   -2.4756    0.0000 O   0  0  0  0  0  0  0  0  0  0  0  0
    3.9841   -5.4258    0.0000 C   0  0  0  0  0  0  0  0  0  0  0  0
    2.5382   -5.8249    0.0000 C   0  0  0  0  0  0  0  0  0  0  0  0
    3.2490   -4.5040    0.0000 O   0  0  0  0  0  0  0  0  0  0  0  0
    2.6595   -3.1247    0.0000 C   0  0  0  0  0  0  0  0  0  0  0  0
    3.6464   -1.9951    0.0000 C   0  0  0  0  0  0  0  0  0  0  0  0
    1.2135   -2.7256    0.0000 N   0  0  0  0  0  0  0  0  0  0  0  0
    0.7500   -1.2990    0.0000 C   0  0  0  0  0  0  0  0  0  0  0  0
    1.5000    0.0000    0.0000 C   0  0  0  0  0  0  0  0  0  0  0  0
    0.7500    1.2990    0.0000 C   0  0  0  0  0  0  0  0  0  0  0  0
   -0.7500    1.2990    0.0000 C   0  0  0  0  0  0  0  0  0  0  0  0
   -1.5000    0.0000    0.0000 C   0  0  0  0  0  0  0  0  0  0  0  0
   -0.7500   -1.2990    0.0000 C   0  0  0  0  0  0  0  0  0  0  0  0
   -1.2135   -2.7256    0.0000 C   0  0  0  0  0  0  0  0  0  0  0  0
   -2.5518   -3.5691    0.0000 C   0  0  0  0  0  0  0  0  0  0  0  0
   -2.6191   -5.0676    0.0000 C   0  0  0  0  0  0  0  0  0  0  0  0
   -1.3550   -5.8751    0.0000 C   0  0  0  0  0  0  0  0  0  0  0  0
   -1.0212   -7.3375    0.0000 C   0  0  0  0  0  0  0  0  0  0  0  0
   -1.8846   -8.5641    0.0000 C   0  0  0  0  0  0  0  0  0  0  0  0
   -1.2541   -9.9251    0.0000 C   0  0  0  0  0  0  0  0  0  0  0  0
    0.2399  -10.0596    0.0000 C   0  0  0  0  0  0  0  0  0  0  0  0
    1.1033   -8.8330    0.0000 C   0  0  0  0  0  0  0  0  0  0  0  0
    0.4728   -7.4720    0.0000 C   0  0  0  0  0  0  0  0  0  0  0  0
    1.0623   -6.0927    0.0000 N   0  0  0  0  0  0  0  0  0  0  0  0
   -0.0673   -5.1058    0.0000 C   0  0  0  0  0  0  0  0  0  0  0  0
   -0.0000   -3.6073    0.0000 C   0  0  0  0  0  0  0  0  0  0  0  0
   -4.0650   -5.4667    0.0000 C   0  0  0  0  0  0  0  0  0  0  0  0
   -4.5921   -6.8710    0.0000 O   0  0  0  0  0  0  0  0  0  0  0  0
   -4.8913   -4.2148    0.0000 N   0  0  0  0  0  0  0  0  0  0  0  0
   -3.9561   -3.0421    0.0000 C   0  0  0  0  0  0  0  0  0  0  0  0
  1  2  1  0
  2  3  1  0
  3  4  2  0
  3  5  1  0
  5  6  1  6
  5  7  1  0
  8  7  1  6
  8  9  1  0
  9 10  1  0
 10 11  1  1
 10 12  1  0
 12 13  1  0
 13 14  2  0
 14 15  1  0
 15 16  2  0
 16 17  1  0
 17 18  2  0
 18 19  1  0
 19 20  2  0
 20 21  1  0
 21 22  2  0
 22 23  1  0
 23 24  2  0
 24 25  1  0
 25 26  2  0
 26 27  1  0
 27 28  2  0
 28 29  1  0
 29 30  1  0
 30 31  2  0
 21 32  1  0
 32 33  2  0
 32 34  1  0
 34 35  1  0
 10  5  1  0
 31 12  1  0
 29  8  1  0
 18 13  1  0
 31 19  1  0
 35 20  1  0
 30 22  1  0
 28 23  1  0
M  END
>  <Compound_ID>  (306) 
CHEMBL281948

>  <Active>  (306) 
1

>  <Smiles>  (306) 
COC(=O)[C@@]1(O)C[C@H]2O[C@]1(C)n1c3ccccc3c3c4c(c5c6ccccc6n2c5c31)C(=O)NC4

>  <canonical_smi>  (306) 
COC(=O)[C@@]1(O)C[C@H]2O[C@]1(C)n1c3ccccc3c3c4c(c5c6ccccc6n2c5c31)C(=O)NC4

>  <Set>  (306) 
G2 active

>  <Set_type>  (306) 
Train

>  <MW>  (306) 
467.48

>  <HBD>  (306) 
2

>  <HBA>  (306) 
5

>  <NRB>  (306) 
1

>  <NR>  (306) 
8

>  <NAR>  (306) 
5

>  <PSA>  (306) 
94.72

>  <Standard Type>  (306) 
nan

>  <Standard Relation>  (306) 
nan

>  <Standard Units>  (306) 
nan

>  <Standard Value>  (306) 
nan

>  <Assay ChEMBL ID>  (306) 
nan

>  <Assay Description>  (306) 
nan

>  <BAO Label>  (306) 
nan

$$$$

     RDKit          2D

 21 24  0  0  0  0  0  0  0  0999 V2000
   -4.6613    6.0728    0.0000 N   0  0  0  0  0  0  0  0  0  0  0  0
   -3.2910    5.4627    0.0000 C   0  0  0  0  0  0  0  0  0  0  0  0
   -2.0774    6.3444    0.0000 O   0  0  0  0  0  0  0  0  0  0  0  0
   -3.1342    3.9709    0.0000 C   0  0  0  0  0  0  0  0  0  0  0  0
   -4.2489    2.9672    0.0000 N   0  0  0  0  0  0  0  0  0  0  0  0
   -3.6388    1.5969    0.0000 N   0  0  0  0  0  0  0  0  0  0  0  0
   -4.3888    0.2979    0.0000 C   0  0  0  0  0  0  0  0  0  0  0  0
   -5.8888    0.2979    0.0000 C   0  0  0  0  0  0  0  0  0  0  0  0
   -6.6388   -1.0012    0.0000 C   0  0  0  0  0  0  0  0  0  0  0  0
   -5.8888   -2.3002    0.0000 C   0  0  0  0  0  0  0  0  0  0  0  0
   -4.3888   -2.3002    0.0000 C   0  0  0  0  0  0  0  0  0  0  0  0
   -3.6388   -1.0012    0.0000 N   0  0  0  0  0  0  0  0  0  0  0  0
   -2.1470    1.7537    0.0000 C   0  0  0  0  0  0  0  0  0  0  0  0
   -1.8351    3.2209    0.0000 C   0  0  0  0  0  0  0  0  0  0  0  0
   -0.4086    3.6844    0.0000 C   0  0  0  0  0  0  0  0  0  0  0  0
    0.7062    2.6807    0.0000 C   0  0  0  0  0  0  0  0  0  0  0  0
    0.3943    1.2135    0.0000 C   0  0  0  0  0  0  0  0  0  0  0  0
    1.2760    0.0000    0.0000 N   0  0  0  0  0  0  0  0  0  0  0  0
    0.3943   -1.2135    0.0000 N   0  0  0  0  0  0  0  0  0  0  0  0
   -1.0323   -0.7500    0.0000 C   0  0  0  0  0  0  0  0  0  0  0  0
   -1.0323    0.7500    0.0000 C   0  0  0  0  0  0  0  0  0  0  0  0
  1  2  1  0
  2  3  2  0
  2  4  1  0
  4  5  2  0
  5  6  1  0
  6  7  1  0
  7  8  2  0
  8  9  1  0
  9 10  2  0
 10 11  1  0
 11 12  2  0
  6 13  1  0
 13 14  2  0
 14 15  1  0
 15 16  1  0
 16 17  1  0
 17 18  2  0
 18 19  1  0
 19 20  1  0
 20 21  2  0
 14  4  1  0
 21 17  1  0
 12  7  1  0
 21 13  1  0
M  END
>  <Compound_ID>  (307) 
CHEMBL440379

>  <Active>  (307) 
1

>  <Smiles>  (307) 
NC(=O)c1nn(-c2ccccn2)c2c1CCc1n[nH]cc1-2

>  <canonical_smi>  (307) 
NC(=O)c1nn(-c2ccccn2)c2c1CCc1n[nH]cc1-2

>  <Set>  (307) 
G2 active

>  <Set_type>  (307) 
Train

>  <MW>  (307) 
280.29

>  <HBD>  (307) 
2

>  <HBA>  (307) 
4

>  <NRB>  (307) 
2

>  <NR>  (307) 
4

>  <NAR>  (307) 
3

>  <PSA>  (307) 
102.48

>  <Standard Type>  (307) 
nan

>  <Standard Relation>  (307) 
nan

>  <Standard Units>  (307) 
nan

>  <Standard Value>  (307) 
nan

>  <Assay ChEMBL ID>  (307) 
nan

>  <Assay Description>  (307) 
nan

>  <BAO Label>  (307) 
nan

$$$$

     RDKit          2D

 33 37  0  0  0  0  0  0  0  0999 V2000
   -1.7024   10.0935    0.0000 N   0  0  0  0  0  0  0  0  0  0  0  0
   -2.0143    8.6263    0.0000 C   0  0  0  0  0  0  0  0  0  0  0  0
   -0.8995    7.6226    0.0000 C   0  0  0  0  0  0  0  0  0  0  0  0
   -1.2114    6.1554    0.0000 C   0  0  0  0  0  0  0  0  0  0  0  0
   -2.6380    5.6918    0.0000 C   0  0  0  0  0  0  0  0  0  0  0  0
   -2.9499    4.2246    0.0000 N   0  0  0  0  0  0  0  0  0  0  0  0
   -1.8351    3.2209    0.0000 C   0  0  0  0  0  0  0  0  0  0  0  0
   -0.4086    3.6844    0.0000 C   0  0  0  0  0  0  0  0  0  0  0  0
    0.7062    2.6807    0.0000 C   0  0  0  0  0  0  0  0  0  0  0  0
    2.1328    3.1443    0.0000 N   0  0  0  0  0  0  0  0  0  0  0  0
    2.4446    4.6115    0.0000 C   0  0  0  0  0  0  0  0  0  0  0  0
    3.8712    5.0750    0.0000 C   0  0  0  0  0  0  0  0  0  0  0  0
    4.1831    6.5422    0.0000 C   0  0  0  0  0  0  0  0  0  0  0  0
    3.0684    7.5459    0.0000 C   0  0  0  0  0  0  0  0  0  0  0  0
    3.3802    9.0132    0.0000 S   0  0  0  0  0  0  0  0  0  0  0  0
    1.9130    9.3250    0.0000 O   0  0  0  0  0  0  0  0  0  0  0  0
    4.8474    8.7013    0.0000 O   0  0  0  0  0  0  0  0  0  0  0  0
    3.6921   10.4804    0.0000 C   0  0  0  0  0  0  0  0  0  0  0  0
    5.1187   10.9439    0.0000 C   0  0  0  0  0  0  0  0  0  0  0  0
    5.4305   12.4111    0.0000 C   0  0  0  0  0  0  0  0  0  0  0  0
    4.3158   13.4148    0.0000 C   0  0  0  0  0  0  0  0  0  0  0  0
    2.8892   12.9513    0.0000 C   0  0  0  0  0  0  0  0  0  0  0  0
    2.5774   11.4841    0.0000 C   0  0  0  0  0  0  0  0  0  0  0  0
    1.6418    7.0824    0.0000 C   0  0  0  0  0  0  0  0  0  0  0  0
    1.3299    5.6152    0.0000 C   0  0  0  0  0  0  0  0  0  0  0  0
    0.3943    1.2135    0.0000 N   0  0  0  0  0  0  0  0  0  0  0  0
    1.2760    0.0000    0.0000 N   0  0  0  0  0  0  0  0  0  0  0  0
    0.3943   -1.2135    0.0000 C   0  0  0  0  0  0  0  0  0  0  0  0
   -1.0323   -0.7500    0.0000 N   0  0  0  0  0  0  0  0  0  0  0  0
   -1.0323    0.7500    0.0000 C   0  0  0  0  0  0  0  0  0  0  0  0
   -2.1470    1.7537    0.0000 N   0  0  0  0  0  0  0  0  0  0  0  0
   -3.7527    6.6955    0.0000 C   0  0  0  0  0  0  0  0  0  0  0  0
   -3.4408    8.1628    0.0000 C   0  0  0  0  0  0  0  0  0  0  0  0
  1  2  1  0
  2  3  1  0
  3  4  1  0
  4  5  1  0
  5  6  1  0
  6  7  1  0
  7  8  1  0
  8  9  2  0
  9 10  1  0
 10 11  1  0
 11 12  2  0
 12 13  1  0
 13 14  2  0
 14 15  1  0
 15 16  2  0
 15 17  2  0
 15 18  1  0
 18 19  2  0
 19 20  1  0
 20 21  2  0
 21 22  1  0
 22 23  2  0
 14 24  1  0
 24 25  2  0
  9 26  1  0
 26 27  1  0
 27 28  2  0
 28 29  1  0
 29 30  2  0
 30 31  1  0
  5 32  1  0
 32 33  1  0
 33  2  1  0
 31  7  2  0
 25 11  1  0
 30 26  1  0
 23 18  1  0
M  END
>  <Compound_ID>  (308) 
CHEMBL382607

>  <Active>  (308) 
1

>  <Smiles>  (308) 
NC1CCC(Nc2cc(Nc3ccc(S(=O)(=O)c4ccccc4)cc3)n3ncnc3n2)CC1

>  <canonical_smi>  (308) 
NC1CCC(Nc2cc(Nc3ccc(S(=O)(=O)c4ccccc4)cc3)n3ncnc3n2)CC1

>  <Set>  (308) 
G2 active

>  <Set_type>  (308) 
Train

>  <MW>  (308) 
463.57

>  <HBD>  (308) 
3

>  <HBA>  (308) 
8

>  <NRB>  (308) 
6

>  <NR>  (308) 
5

>  <NAR>  (308) 
4

>  <PSA>  (308) 
127.3

>  <Standard Type>  (308) 
nan

>  <Standard Relation>  (308) 
nan

>  <Standard Units>  (308) 
nan

>  <Standard Value>  (308) 
nan

>  <Assay ChEMBL ID>  (308) 
nan

>  <Assay Description>  (308) 
nan

>  <BAO Label>  (308) 
nan

$$$$

     RDKit          2D

 18 19  0  0  0  0  0  0  0  0999 V2000
   -3.6375   -7.8476    0.0000 C   0  0  0  0  0  0  0  0  0  0  0  0
   -2.4240   -8.7293    0.0000 C   0  0  0  0  0  0  0  0  0  0  0  0
   -2.5808  -10.2211    0.0000 C   0  0  0  0  0  0  0  0  0  0  0  0
   -1.0537   -8.1192    0.0000 C   0  0  0  0  0  0  0  0  0  0  0  0
    0.2454   -8.8692    0.0000 C   0  0  0  0  0  0  0  0  0  0  0  0
    1.3601   -7.8655    0.0000 N   0  0  0  0  0  0  0  0  0  0  0  0
    0.7500   -6.4952    0.0000 C   0  0  0  0  0  0  0  0  0  0  0  0
    1.5000   -5.1962    0.0000 N   0  0  0  0  0  0  0  0  0  0  0  0
    0.7500   -3.8971    0.0000 C   0  0  0  0  0  0  0  0  0  0  0  0
   -0.7500   -3.8971    0.0000 O   0  0  0  0  0  0  0  0  0  0  0  0
    1.5000   -2.5981    0.0000 N   0  0  0  0  0  0  0  0  0  0  0  0
    0.7500   -1.2990    0.0000 C   0  0  0  0  0  0  0  0  0  0  0  0
    1.5000    0.0000    0.0000 C   0  0  0  0  0  0  0  0  0  0  0  0
    0.7500    1.2990    0.0000 C   0  0  0  0  0  0  0  0  0  0  0  0
   -0.7500    1.2990    0.0000 C   0  0  0  0  0  0  0  0  0  0  0  0
   -1.5000    0.0000    0.0000 C   0  0  0  0  0  0  0  0  0  0  0  0
   -0.7500   -1.2990    0.0000 C   0  0  0  0  0  0  0  0  0  0  0  0
   -0.7418   -6.6520    0.0000 S   0  0  0  0  0  0  0  0  0  0  0  0
  1  2  1  0
  2  3  1  0
  2  4  1  0
  4  5  2  0
  5  6  1  0
  6  7  2  0
  7  8  1  0
  8  9  1  0
  9 10  2  0
  9 11  1  0
 11 12  1  0
 12 13  2  0
 13 14  1  0
 14 15  2  0
 15 16  1  0
 16 17  2  0
  7 18  1  0
 18  4  1  0
 17 12  1  0
M  END
>  <Compound_ID>  (309) 
CHEMBL186510

>  <Active>  (309) 
1

>  <Smiles>  (309) 
CC(C)c1cnc(NC(=O)Nc2ccccc2)s1

>  <canonical_smi>  (309) 
CC(C)c1cnc(NC(=O)Nc2ccccc2)s1

>  <Set>  (309) 
G2 active

>  <Set_type>  (309) 
Train

>  <MW>  (309) 
261.35

>  <HBD>  (309) 
2

>  <HBA>  (309) 
2

>  <NRB>  (309) 
3

>  <NR>  (309) 
2

>  <NAR>  (309) 
2

>  <PSA>  (309) 
54.02

>  <Standard Type>  (309) 
nan

>  <Standard Relation>  (309) 
nan

>  <Standard Units>  (309) 
nan

>  <Standard Value>  (309) 
nan

>  <Assay ChEMBL ID>  (309) 
nan

>  <Assay Description>  (309) 
nan

>  <BAO Label>  (309) 
nan

$$$$

     RDKit          2D

 38 41  0  0  0  0  0  0  0  0999 V2000
    3.0000    0.0000    0.0000 C   0  0  0  0  0  0  0  0  0  0  0  0
    1.5000    0.0000    0.0000 N   0  0  0  0  0  0  0  0  0  0  0  0
    0.7500   -1.2990    0.0000 C   0  0  0  0  0  0  0  0  0  0  0  0
   -0.7500   -1.2990    0.0000 C   0  0  0  0  0  0  0  0  0  0  0  0
   -1.5000    0.0000    0.0000 N   0  0  0  0  0  0  0  0  0  0  0  0
   -3.0000    0.0000    0.0000 C   0  0  0  0  0  0  0  0  0  0  0  0
   -3.7500    1.2990    0.0000 C   0  0  0  0  0  0  0  0  0  0  0  0
   -5.2500    1.2990    0.0000 C   0  0  0  0  0  0  0  0  0  0  0  0
   -6.0000    0.0000    0.0000 O   0  0  0  0  0  0  0  0  0  0  0  0
   -6.0000    2.5981    0.0000 N   0  0  0  0  0  0  0  0  0  0  0  0
   -7.5000    2.5981    0.0000 S   0  0  0  0  0  0  0  0  0  0  0  0
   -7.5000    1.0981    0.0000 O   0  0  0  0  0  0  0  0  0  0  0  0
   -7.5000    4.0981    0.0000 O   0  0  0  0  0  0  0  0  0  0  0  0
   -9.0000    2.5981    0.0000 C   0  0  0  0  0  0  0  0  0  0  0  0
   -9.7500    3.8971    0.0000 C   0  0  0  0  0  0  0  0  0  0  0  0
  -11.2500    3.8971    0.0000 C   0  0  0  0  0  0  0  0  0  0  0  0
  -12.0000    2.5981    0.0000 C   0  0  0  0  0  0  0  0  0  0  0  0
  -13.5000    2.5981    0.0000 N   0  0  0  0  0  0  0  0  0  0  0  0
  -14.2500    3.8971    0.0000 C   0  0  0  0  0  0  0  0  0  0  0  0
  -15.7418    4.0539    0.0000 N   0  0  0  0  0  0  0  0  0  0  0  0
  -16.0537    5.5211    0.0000 C   0  0  0  0  0  0  0  0  0  0  0  0
  -17.4240    6.1312    0.0000 N   0  0  0  0  0  0  0  0  0  0  0  0
  -14.7546    6.2711    0.0000 N   0  0  0  0  0  0  0  0  0  0  0  0
  -14.5978    7.7629    0.0000 C   0  0  0  0  0  0  0  0  0  0  0  0
  -15.8113    8.6446    0.0000 O   0  0  0  0  0  0  0  0  0  0  0  0
  -13.2275    8.3730    0.0000 C   0  0  0  0  0  0  0  0  0  0  0  0
  -12.0140    7.4913    0.0000 C   0  0  0  0  0  0  0  0  0  0  0  0
  -12.1708    5.9996    0.0000 F   0  0  0  0  0  0  0  0  0  0  0  0
  -10.6437    8.1014    0.0000 C   0  0  0  0  0  0  0  0  0  0  0  0
  -10.4869    9.5932    0.0000 C   0  0  0  0  0  0  0  0  0  0  0  0
  -11.7004   10.4749    0.0000 C   0  0  0  0  0  0  0  0  0  0  0  0
  -13.0707    9.8648    0.0000 C   0  0  0  0  0  0  0  0  0  0  0  0
  -14.2842   10.7465    0.0000 F   0  0  0  0  0  0  0  0  0  0  0  0
  -13.6399    5.2674    0.0000 N   0  0  0  0  0  0  0  0  0  0  0  0
  -11.2500    1.2990    0.0000 C   0  0  0  0  0  0  0  0  0  0  0  0
   -9.7500    1.2990    0.0000 C   0  0  0  0  0  0  0  0  0  0  0  0
   -0.7500    1.2990    0.0000 C   0  0  0  0  0  0  0  0  0  0  0  0
    0.7500    1.2990    0.0000 C   0  0  0  0  0  0  0  0  0  0  0  0
  1  2  1  0
  2  3  1  0
  3  4  1  0
  4  5  1  0
  5  6  1  0
  6  7  1  0
  7  8  1  0
  8  9  2  0
  8 10  1  0
 10 11  1  0
 11 12  2  0
 11 13  2  0
 11 14  1  0
 14 15  2  0
 15 16  1  0
 16 17  2  0
 17 18  1  0
 18 19  1  0
 19 20  1  0
 20 21  2  0
 21 22  1  0
 21 23  1  0
 23 24  1  0
 24 25  2  0
 24 26  1  0
 26 27  2  0
 27 28  1  0
 27 29  1  0
 29 30  2  0
 30 31  1  0
 31 32  2  0
 32 33  1  0
 23 34  1  0
 17 35  1  0
 35 36  2  0
  5 37  1  0
 37 38  1  0
 38  2  1  0
 36 14  1  0
 34 19  2  0
 32 26  1  0
M  END
>  <Compound_ID>  (310) 
CHEMBL210765

>  <Active>  (310) 
1

>  <Smiles>  (310) 
CN1CCN(CCC(=O)NS(=O)(=O)c2ccc(Nc3nc(N)n(C(=O)c4c(F)cccc4F)n3)cc2)CC1

>  <canonical_smi>  (310) 
CN1CCN(CCC(=O)NS(=O)(=O)c2ccc(Nc3nc(N)n(C(=O)c4c(F)cccc4F)n3)cc2)CC1

>  <Set>  (310) 
G2 active

>  <Set_type>  (310) 
Train

>  <MW>  (310) 
548.58

>  <HBD>  (310) 
3

>  <HBA>  (310) 
10

>  <NRB>  (310) 
8

>  <NR>  (310) 
4

>  <NAR>  (310) 
3

>  <PSA>  (310) 
155.55

>  <Standard Type>  (310) 
nan

>  <Standard Relation>  (310) 
nan

>  <Standard Units>  (310) 
nan

>  <Standard Value>  (310) 
nan

>  <Assay ChEMBL ID>  (310) 
nan

>  <Assay Description>  (310) 
nan

>  <BAO Label>  (310) 
nan

$$$$

     RDKit          2D

 26 31  0  0  0  0  0  0  0  0999 V2000
    3.6918   -0.0161    0.0000 O   0  0  0  0  0  0  0  0  0  0  0  0
    4.0037   -1.4834    0.0000 C   0  0  0  0  0  0  0  0  0  0  0  0
    5.3740   -2.0935    0.0000 N   0  0  0  0  0  0  0  0  0  0  0  0
    5.2172   -3.5852    0.0000 C   0  0  0  0  0  0  0  0  0  0  0  0
    6.3319   -4.5889    0.0000 O   0  0  0  0  0  0  0  0  0  0  0  0
    3.7500   -3.8971    0.0000 C   0  0  0  0  0  0  0  0  0  0  0  0
    3.0000   -2.5981    0.0000 C   0  0  0  0  0  0  0  0  0  0  0  0
    1.5000   -2.5981    0.0000 C   0  0  0  0  0  0  0  0  0  0  0  0
    0.7500   -1.2990    0.0000 C   0  0  0  0  0  0  0  0  0  0  0  0
    1.5000    0.0000    0.0000 C   0  0  0  0  0  0  0  0  0  0  0  0
    0.7500    1.2990    0.0000 C   0  0  0  0  0  0  0  0  0  0  0  0
   -0.7500    1.2990    0.0000 C   0  0  0  0  0  0  0  0  0  0  0  0
   -1.5000    0.0000    0.0000 C   0  0  0  0  0  0  0  0  0  0  0  0
   -0.7500   -1.2990    0.0000 C   0  0  0  0  0  0  0  0  0  0  0  0
   -1.5000   -2.5981    0.0000 C   0  0  0  0  0  0  0  0  0  0  0  0
   -0.7500   -3.8971    0.0000 C   0  0  0  0  0  0  0  0  0  0  0  0
    0.7500   -3.8971    0.0000 C   0  0  0  0  0  0  0  0  0  0  0  0
    1.5000   -5.1962    0.0000 C   0  0  0  0  0  0  0  0  0  0  0  0
    1.0365   -6.6227    0.0000 N   0  0  0  0  0  0  0  0  0  0  0  0
    2.2500   -7.5044    0.0000 C   0  0  0  0  0  0  0  0  0  0  0  0
    2.4068   -8.9962    0.0000 C   0  0  0  0  0  0  0  0  0  0  0  0
    3.7771   -9.6063    0.0000 C   0  0  0  0  0  0  0  0  0  0  0  0
    4.9906   -8.7246    0.0000 C   0  0  0  0  0  0  0  0  0  0  0  0
    4.8338   -7.2328    0.0000 C   0  0  0  0  0  0  0  0  0  0  0  0
    3.4635   -6.6227    0.0000 C   0  0  0  0  0  0  0  0  0  0  0  0
    3.0000   -5.1962    0.0000 C   0  0  0  0  0  0  0  0  0  0  0  0
  1  2  2  0
  2  3  1  0
  3  4  1  0
  4  5  2  0
  4  6  1  0
  6  7  2  0
  7  8  1  0
  8  9  2  0
  9 10  1  0
 10 11  2  0
 11 12  1  0
 12 13  2  0
 13 14  1  0
 14 15  2  0
 15 16  1  0
 16 17  2  0
 17 18  1  0
 18 19  1  0
 19 20  1  0
 20 21  2  0
 21 22  1  0
 22 23  2  0
 23 24  1  0
 24 25  2  0
 25 26  1  0
  7  2  1  0
 17  8  1  0
 26 18  2  0
 26  6  1  0
 14  9  1  0
 25 20  1  0
M  END
>  <Compound_ID>  (311) 
CHEMBL332575

>  <Active>  (311) 
1

>  <Smiles>  (311) 
O=C1NC(=O)c2c1c1c3ccccc3ccc1c1[nH]c3ccccc3c21

>  <canonical_smi>  (311) 
O=C1NC(=O)c2c1c1c3ccccc3ccc1c1[nH]c3ccccc3c21

>  <Set>  (311) 
G2 active

>  <Set_type>  (311) 
Train

>  <MW>  (311) 
336.35

>  <HBD>  (311) 
2

>  <HBA>  (311) 
2

>  <NRB>  (311) 
0

>  <NR>  (311) 
6

>  <NAR>  (311) 
5

>  <PSA>  (311) 
61.96

>  <Standard Type>  (311) 
nan

>  <Standard Relation>  (311) 
nan

>  <Standard Units>  (311) 
nan

>  <Standard Value>  (311) 
nan

>  <Assay ChEMBL ID>  (311) 
nan

>  <Assay Description>  (311) 
nan

>  <BAO Label>  (311) 
nan

$$$$

     RDKit          2D

 31 34  0  0  0  0  0  0  0  0999 V2000
   -2.6401   -3.1891    0.0000 C   0  0  0  0  0  0  0  0  0  0  0  0
   -1.2135   -2.7256    0.0000 N   0  0  0  0  0  0  0  0  0  0  0  0
   -0.0000   -3.6073    0.0000 C   0  0  0  0  0  0  0  0  0  0  0  0
   -0.0000   -5.1073    0.0000 O   0  0  0  0  0  0  0  0  0  0  0  0
    1.2135   -2.7256    0.0000 N   0  0  0  0  0  0  0  0  0  0  0  0
    0.7500   -1.2990    0.0000 C   0  0  0  0  0  0  0  0  0  0  0  0
    1.5000    0.0000    0.0000 C   0  0  0  0  0  0  0  0  0  0  0  0
    0.7500    1.2990    0.0000 C   0  0  0  0  0  0  0  0  0  0  0  0
   -0.7500    1.2990    0.0000 C   0  0  0  0  0  0  0  0  0  0  0  0
   -1.5000    2.5981    0.0000 C   0  0  0  0  0  0  0  0  0  0  0  0
   -2.9918    2.7549    0.0000 C   0  0  0  0  0  0  0  0  0  0  0  0
   -3.3037    4.2221    0.0000 N   0  0  0  0  0  0  0  0  0  0  0  0
   -2.0046    4.9721    0.0000 C   0  0  0  0  0  0  0  0  0  0  0  0
   -1.8478    6.4639    0.0000 N   0  0  0  0  0  0  0  0  0  0  0  0
   -0.4775    7.0740    0.0000 C   0  0  0  0  0  0  0  0  0  0  0  0
   -0.3207    8.5658    0.0000 C   0  0  0  0  0  0  0  0  0  0  0  0
   -1.5342    9.4474    0.0000 N   0  0  0  0  0  0  0  0  0  0  0  0
    1.0496    9.1759    0.0000 C   0  0  0  0  0  0  0  0  0  0  0  0
    1.2064   10.6676    0.0000 C   0  0  0  0  0  0  0  0  0  0  0  0
    2.5767   11.2778    0.0000 C   0  0  0  0  0  0  0  0  0  0  0  0
    2.7335   12.7695    0.0000 C   0  0  0  0  0  0  0  0  0  0  0  0
    1.5200   13.6512    0.0000 C   0  0  0  0  0  0  0  0  0  0  0  0
    1.6768   15.1430    0.0000 C   0  0  0  0  0  0  0  0  0  0  0  0
    1.8336   16.6348    0.0000 F   0  0  0  0  0  0  0  0  0  0  0  0
    3.1686   14.9862    0.0000 F   0  0  0  0  0  0  0  0  0  0  0  0
    0.1850   15.2998    0.0000 F   0  0  0  0  0  0  0  0  0  0  0  0
    0.1497   13.0411    0.0000 C   0  0  0  0  0  0  0  0  0  0  0  0
   -0.0071   11.5493    0.0000 C   0  0  0  0  0  0  0  0  0  0  0  0
   -0.8899    3.9684    0.0000 S   0  0  0  0  0  0  0  0  0  0  0  0
   -1.5000    0.0000    0.0000 C   0  0  0  0  0  0  0  0  0  0  0  0
   -0.7500   -1.2990    0.0000 C   0  0  0  0  0  0  0  0  0  0  0  0
  1  2  1  0
  2  3  1  0
  3  4  2  0
  3  5  1  0
  5  6  1  0
  6  7  2  0
  7  8  1  0
  8  9  2  0
  9 10  1  0
 10 11  2  0
 11 12  1  0
 12 13  2  0
 13 14  1  0
 14 15  1  0
 15 16  1  0
 16 17  1  1
 16 18  1  0
 18 19  1  0
 19 20  2  0
 20 21  1  0
 21 22  2  0
 22 23  1  0
 23 24  1  0
 23 25  1  0
 23 26  1  0
 22 27  1  0
 27 28  2  0
 13 29  1  0
  9 30  1  0
 30 31  2  0
 31  2  1  0
 31  6  1  0
 29 10  1  0
 28 19  1  0
M  END
>  <Compound_ID>  (312) 
CHEMBL1082016

>  <Active>  (312) 
1

>  <Smiles>  (312) 
Cn1c(=O)[nH]c2ccc(-c3cnc(NC[C@@H](N)Cc4ccc(C(F)(F)F)cc4)s3)cc21

>  <canonical_smi>  (312) 
Cn1c(=O)[nH]c2ccc(-c3cnc(NC[C@@H](N)Cc4ccc(C(F)(F)F)cc4)s3)cc21

>  <Set>  (312) 
G2 active

>  <Set_type>  (312) 
Train

>  <MW>  (312) 
447.49

>  <HBD>  (312) 
3

>  <HBA>  (312) 
4

>  <NRB>  (312) 
6

>  <NR>  (312) 
4

>  <NAR>  (312) 
4

>  <PSA>  (312) 
88.73

>  <Standard Type>  (312) 
nan

>  <Standard Relation>  (312) 
nan

>  <Standard Units>  (312) 
nan

>  <Standard Value>  (312) 
nan

>  <Assay ChEMBL ID>  (312) 
nan

>  <Assay Description>  (312) 
nan

>  <BAO Label>  (312) 
nan

$$$$

     RDKit          2D

 25 28  0  0  0  0  0  0  0  0999 V2000
   -4.3764    3.7611    0.0000 O   0  0  0  0  0  0  0  0  0  0  0  0
   -2.9499    4.2246    0.0000 C   0  0  0  0  0  0  0  0  0  0  0  0
   -2.6380    5.6918    0.0000 C   0  0  0  0  0  0  0  0  0  0  0  0
   -1.2114    6.1554    0.0000 C   0  0  0  0  0  0  0  0  0  0  0  0
   -0.8995    7.6226    0.0000 C   0  0  0  0  0  0  0  0  0  0  0  0
   -2.0143    8.6263    0.0000 C   0  0  0  0  0  0  0  0  0  0  0  0
   -3.4408    8.1628    0.0000 C   0  0  0  0  0  0  0  0  0  0  0  0
   -3.7527    6.6955    0.0000 C   0  0  0  0  0  0  0  0  0  0  0  0
   -1.8351    3.2209    0.0000 C   0  0  0  0  0  0  0  0  0  0  0  0
   -0.4086    3.6844    0.0000 C   0  0  0  0  0  0  0  0  0  0  0  0
    0.7062    2.6807    0.0000 N   0  0  0  0  0  0  0  0  0  0  0  0
    0.3943    1.2135    0.0000 C   0  0  0  0  0  0  0  0  0  0  0  0
    1.2760    0.0000    0.0000 N   0  0  0  0  0  0  0  0  0  0  0  0
    0.3943   -1.2135    0.0000 N   0  0  0  0  0  0  0  0  0  0  0  0
   -1.0323   -0.7500    0.0000 C   0  0  0  0  0  0  0  0  0  0  0  0
   -1.0323    0.7500    0.0000 C   0  0  0  0  0  0  0  0  0  0  0  0
   -2.1470    1.7537    0.0000 C   0  0  0  0  0  0  0  0  0  0  0  0
   -3.5736    1.2902    0.0000 O   0  0  0  0  0  0  0  0  0  0  0  0
   -4.6883    2.2939    0.0000 C   0  0  0  0  0  0  0  0  0  0  0  0
   -6.1149    1.8303    0.0000 C   0  0  0  0  0  0  0  0  0  0  0  0
   -7.2296    2.8340    0.0000 C   0  0  0  0  0  0  0  0  0  0  0  0
   -8.6562    2.3705    0.0000 C   0  0  0  0  0  0  0  0  0  0  0  0
   -8.9681    0.9033    0.0000 C   0  0  0  0  0  0  0  0  0  0  0  0
   -7.8533   -0.1004    0.0000 C   0  0  0  0  0  0  0  0  0  0  0  0
   -6.4268    0.3631    0.0000 C   0  0  0  0  0  0  0  0  0  0  0  0
  1  2  2  0
  2  3  1  0
  3  4  2  0
  4  5  1  0
  5  6  2  0
  6  7  1  0
  7  8  2  0
  2  9  1  0
  9 10  2  0
 10 11  1  0
 11 12  1  0
 12 13  2  0
 13 14  1  0
 14 15  2  0
 15 16  1  0
 16 17  2  0
 17 18  1  0
 18 19  1  0
 19 20  1  0
 20 21  2  0
 21 22  1  0
 22 23  2  0
 23 24  1  0
 24 25  2  0
  8  3  1  0
 17  9  1  0
 25 20  1  0
 16 12  1  0
M  END
>  <Compound_ID>  (313) 
CHEMBL14593

>  <Active>  (313) 
1

>  <Smiles>  (313) 
O=C(c1ccccc1)c1c[nH]c2nncc-2c1OCc1ccccc1

>  <canonical_smi>  (313) 
O=C(c1ccccc1)c1c[nH]c2nncc-2c1OCc1ccccc1

>  <Set>  (313) 
G2 active

>  <Set_type>  (313) 
Train

>  <MW>  (313) 
329.36

>  <HBD>  (313) 
1

>  <HBA>  (313) 
4

>  <NRB>  (313) 
5

>  <NR>  (313) 
4

>  <NAR>  (313) 
4

>  <PSA>  (313) 
67.87

>  <Standard Type>  (313) 
nan

>  <Standard Relation>  (313) 
nan

>  <Standard Units>  (313) 
nan

>  <Standard Value>  (313) 
nan

>  <Assay ChEMBL ID>  (313) 
nan

>  <Assay Description>  (313) 
nan

>  <BAO Label>  (313) 
nan

$$$$

     RDKit          2D

 30 33  0  0  0  0  0  0  0  0999 V2000
    7.4146   -6.0524    0.0000 N   0  0  0  0  0  0  0  0  0  0  0  0
    6.2011   -6.9341    0.0000 C   0  0  0  0  0  0  0  0  0  0  0  0
    4.8308   -6.3240    0.0000 C   0  0  0  0  0  0  0  0  0  0  0  0
    4.6740   -4.8322    0.0000 N   0  0  0  0  0  0  0  0  0  0  0  0
    3.3037   -4.2221    0.0000 C   0  0  0  0  0  0  0  0  0  0  0  0
    2.0046   -4.9721    0.0000 N   0  0  0  0  0  0  0  0  0  0  0  0
    0.8899   -3.9684    0.0000 C   0  0  0  0  0  0  0  0  0  0  0  0
    1.5000   -2.5981    0.0000 C   0  0  0  0  0  0  0  0  0  0  0  0
    0.7500   -1.2990    0.0000 C   0  0  0  0  0  0  0  0  0  0  0  0
    1.5000    0.0000    0.0000 C   0  0  0  0  0  0  0  0  0  0  0  0
    0.7500    1.2990    0.0000 C   0  0  0  0  0  0  0  0  0  0  0  0
   -0.7500    1.2990    0.0000 C   0  0  0  0  0  0  0  0  0  0  0  0
   -1.7537    2.4138    0.0000 N   0  0  0  0  0  0  0  0  0  0  0  0
   -3.1240    1.8037    0.0000 C   0  0  0  0  0  0  0  0  0  0  0  0
   -4.4231    2.5537    0.0000 O   0  0  0  0  0  0  0  0  0  0  0  0
   -2.9672    0.3119    0.0000 S   0  0  0  0  0  0  0  0  0  0  0  0
   -1.5000    0.0000    0.0000 C   0  0  0  0  0  0  0  0  0  0  0  0
   -0.7500   -1.2990    0.0000 C   0  0  0  0  0  0  0  0  0  0  0  0
    2.9918   -2.7549    0.0000 S   0  0  0  0  0  0  0  0  0  0  0  0
    6.3579   -8.4259    0.0000 C   0  0  0  0  0  0  0  0  0  0  0  0
    7.7282   -9.0360    0.0000 C   0  0  0  0  0  0  0  0  0  0  0  0
    7.8850  -10.5278    0.0000 C   0  0  0  0  0  0  0  0  0  0  0  0
    9.2553  -11.1379    0.0000 C   0  0  0  0  0  0  0  0  0  0  0  0
   10.4688  -10.2562    0.0000 C   0  0  0  0  0  0  0  0  0  0  0  0
   11.8391  -10.8663    0.0000 C   0  0  0  0  0  0  0  0  0  0  0  0
   13.2095  -11.4764    0.0000 F   0  0  0  0  0  0  0  0  0  0  0  0
   11.2290  -12.2366    0.0000 F   0  0  0  0  0  0  0  0  0  0  0  0
   12.4492   -9.4960    0.0000 F   0  0  0  0  0  0  0  0  0  0  0  0
   10.3120   -8.7644    0.0000 C   0  0  0  0  0  0  0  0  0  0  0  0
    8.9417   -8.1543    0.0000 C   0  0  0  0  0  0  0  0  0  0  0  0
  2  1  1  1
  2  3  1  0
  3  4  1  0
  4  5  1  0
  5  6  2  0
  6  7  1  0
  7  8  2  0
  8  9  1  0
  9 10  2  0
 10 11  1  0
 11 12  2  0
 12 13  1  0
 13 14  1  0
 14 15  2  0
 14 16  1  0
 16 17  1  0
 17 18  2  0
  8 19  1  0
  2 20  1  0
 20 21  1  0
 21 22  2  0
 22 23  1  0
 23 24  2  0
 24 25  1  0
 25 26  1  0
 25 27  1  0
 25 28  1  0
 24 29  1  0
 29 30  2  0
 19  5  1  0
 30 21  1  0
 18  9  1  0
 17 12  1  0
M  END
>  <Compound_ID>  (314) 
CHEMBL1081853

>  <Active>  (314) 
1

>  <Smiles>  (314) 
N[C@H](CNc1ncc(-c2ccc3[nH]c(=O)sc3c2)s1)Cc1ccc(C(F)(F)F)cc1

>  <canonical_smi>  (314) 
N[C@H](CNc1ncc(-c2ccc3[nH]c(=O)sc3c2)s1)Cc1ccc(C(F)(F)F)cc1

>  <Set>  (314) 
G2 active

>  <Set_type>  (314) 
Train

>  <MW>  (314) 
450.51

>  <HBD>  (314) 
3

>  <HBA>  (314) 
4

>  <NRB>  (314) 
6

>  <NR>  (314) 
4

>  <NAR>  (314) 
4

>  <PSA>  (314) 
83.8

>  <Standard Type>  (314) 
nan

>  <Standard Relation>  (314) 
nan

>  <Standard Units>  (314) 
nan

>  <Standard Value>  (314) 
nan

>  <Assay ChEMBL ID>  (314) 
nan

>  <Assay Description>  (314) 
nan

>  <BAO Label>  (314) 
nan

$$$$

     RDKit          2D

 19 21  0  0  0  0  0  0  0  0999 V2000
   -0.7500   -3.8971    0.0000 O   0  0  0  0  0  0  0  0  0  0  0  0
    0.7500   -3.8971    0.0000 C   0  0  0  0  0  0  0  0  0  0  0  0
    1.5000   -2.5981    0.0000 N   0  0  0  0  0  0  0  0  0  0  0  0
    0.7500   -1.2990    0.0000 C   0  0  0  0  0  0  0  0  0  0  0  0
    1.5000    0.0000    0.0000 C   0  0  0  0  0  0  0  0  0  0  0  0
    0.7500    1.2990    0.0000 C   0  0  0  0  0  0  0  0  0  0  0  0
   -0.7500    1.2990    0.0000 C   0  0  0  0  0  0  0  0  0  0  0  0
   -1.5000    0.0000    0.0000 C   0  0  0  0  0  0  0  0  0  0  0  0
   -0.7500   -1.2990    0.0000 C   0  0  0  0  0  0  0  0  0  0  0  0
    1.5000   -5.1962    0.0000 N   0  0  0  0  0  0  0  0  0  0  0  0
    0.7500   -6.4952    0.0000 C   0  0  0  0  0  0  0  0  0  0  0  0
    1.3601   -7.8655    0.0000 N   0  0  0  0  0  0  0  0  0  0  0  0
    0.2454   -8.8692    0.0000 C   0  0  0  0  0  0  0  0  0  0  0  0
   -1.0537   -8.1192    0.0000 C   0  0  0  0  0  0  0  0  0  0  0  0
   -2.4240   -8.7293    0.0000 C   0  0  0  0  0  0  0  0  0  0  0  0
   -3.8243   -8.1918    0.0000 C   0  0  0  0  0  0  0  0  0  0  0  0
   -4.3619   -9.5921    0.0000 C   0  0  0  0  0  0  0  0  0  0  0  0
   -2.9615  -10.1297    0.0000 C   0  0  0  0  0  0  0  0  0  0  0  0
   -0.7418   -6.6520    0.0000 S   0  0  0  0  0  0  0  0  0  0  0  0
  1  2  2  0
  2  3  1  0
  3  4  1  0
  4  5  2  0
  5  6  1  0
  6  7  2  0
  7  8  1  0
  8  9  2  0
  2 10  1  0
 10 11  1  0
 11 12  2  0
 12 13  1  0
 13 14  2  0
 14 15  1  0
 15 16  1  0
 16 17  1  0
 17 18  1  0
 14 19  1  0
  9  4  1  0
 19 11  1  0
 18 15  1  0
M  END
>  <Compound_ID>  (315) 
CHEMBL185470

>  <Active>  (315) 
1

>  <Smiles>  (315) 
O=C(Nc1ccccc1)Nc1ncc(C2CCC2)s1

>  <canonical_smi>  (315) 
O=C(Nc1ccccc1)Nc1ncc(C2CCC2)s1

>  <Set>  (315) 
G2 active

>  <Set_type>  (315) 
Train

>  <MW>  (315) 
273.36

>  <HBD>  (315) 
2

>  <HBA>  (315) 
2

>  <NRB>  (315) 
3

>  <NR>  (315) 
3

>  <NAR>  (315) 
2

>  <PSA>  (315) 
54.02

>  <Standard Type>  (315) 
nan

>  <Standard Relation>  (315) 
nan

>  <Standard Units>  (315) 
nan

>  <Standard Value>  (315) 
nan

>  <Assay ChEMBL ID>  (315) 
nan

>  <Assay Description>  (315) 
nan

>  <BAO Label>  (315) 
nan

$$$$

     RDKit          2D

 30 33  0  0  0  0  0  0  0  0999 V2000
    0.4775   -7.0740    0.0000 C   0  0  0  0  0  0  0  0  0  0  0  0
    1.8478   -6.4639    0.0000 N   0  0  0  0  0  0  0  0  0  0  0  0
    2.0046   -4.9721    0.0000 C   0  0  0  0  0  0  0  0  0  0  0  0
    3.3037   -4.2221    0.0000 N   0  0  0  0  0  0  0  0  0  0  0  0
    2.9918   -2.7549    0.0000 C   0  0  0  0  0  0  0  0  0  0  0  0
    3.9955   -1.6402    0.0000 C   0  0  0  0  0  0  0  0  0  0  0  0
    1.5000   -2.5981    0.0000 C   0  0  0  0  0  0  0  0  0  0  0  0
    0.7500   -1.2990    0.0000 C   0  0  0  0  0  0  0  0  0  0  0  0
    1.5000    0.0000    0.0000 C   0  0  0  0  0  0  0  0  0  0  0  0
    0.7500    1.2990    0.0000 C   0  0  0  0  0  0  0  0  0  0  0  0
   -0.7500    1.2990    0.0000 N   0  0  0  0  0  0  0  0  0  0  0  0
   -1.5000    0.0000    0.0000 C   0  0  0  0  0  0  0  0  0  0  0  0
   -3.0000    0.0000    0.0000 N   0  0  0  0  0  0  0  0  0  0  0  0
   -3.7500    1.2990    0.0000 C   0  0  0  0  0  0  0  0  0  0  0  0
   -3.0000    2.5981    0.0000 C   0  0  0  0  0  0  0  0  0  0  0  0
   -3.7500    3.8971    0.0000 C   0  0  0  0  0  0  0  0  0  0  0  0
   -5.2500    3.8971    0.0000 C   0  0  0  0  0  0  0  0  0  0  0  0
   -6.0000    5.1962    0.0000 N   0  0  0  0  0  0  0  0  0  0  0  0
   -5.2500    6.4952    0.0000 C   0  0  0  0  0  0  0  0  0  0  0  0
   -6.0000    7.7942    0.0000 C   0  0  0  0  0  0  0  0  0  0  0  0
   -7.5000    7.7942    0.0000 N   0  0  0  0  0  0  0  0  0  0  0  0
   -8.2500    9.0933    0.0000 C   0  0  0  0  0  0  0  0  0  0  0  0
   -7.5000   10.3923    0.0000 C   0  0  0  0  0  0  0  0  0  0  0  0
   -9.7500    9.0933    0.0000 O   0  0  0  0  0  0  0  0  0  0  0  0
   -8.2500    6.4952    0.0000 C   0  0  0  0  0  0  0  0  0  0  0  0
   -7.5000    5.1962    0.0000 C   0  0  0  0  0  0  0  0  0  0  0  0
   -6.0000    2.5981    0.0000 C   0  0  0  0  0  0  0  0  0  0  0  0
   -5.2500    1.2990    0.0000 C   0  0  0  0  0  0  0  0  0  0  0  0
   -0.7500   -1.2990    0.0000 N   0  0  0  0  0  0  0  0  0  0  0  0
    0.8899   -3.9684    0.0000 S   0  0  0  0  0  0  0  0  0  0  0  0
  1  2  1  0
  2  3  1  0
  3  4  2  0
  4  5  1  0
  5  6  1  0
  5  7  2  0
  7  8  1  0
  8  9  2  0
  9 10  1  0
 10 11  2  0
 11 12  1  0
 12 13  1  0
 13 14  1  0
 14 15  2  0
 15 16  1  0
 16 17  2  0
 17 18  1  0
 18 19  1  0
 19 20  1  0
 20 21  1  0
 21 22  1  0
 22 23  1  0
 22 24  2  0
 21 25  1  0
 25 26  1  0
 17 27  1  0
 27 28  2  0
 12 29  2  0
  7 30  1  0
 30  3  1  0
 29  8  1  0
 28 14  1  0
 26 18  1  0
M  END
>  <Compound_ID>  (316) 
CHEMBL1083785

>  <Active>  (316) 
1

>  <Smiles>  (316) 
CNc1nc(C)c(-c2ccnc(Nc3ccc(N4CCN(C(C)=O)CC4)cc3)n2)s1

>  <canonical_smi>  (316) 
CNc1nc(C)c(-c2ccnc(Nc3ccc(N4CCN(C(C)=O)CC4)cc3)n2)s1

>  <Set>  (316) 
G2 active

>  <Set_type>  (316) 
Train

>  <MW>  (316) 
423.55

>  <HBD>  (316) 
2

>  <HBA>  (316) 
7

>  <NRB>  (316) 
5

>  <NR>  (316) 
4

>  <NAR>  (316) 
3

>  <PSA>  (316) 
86.28

>  <Standard Type>  (316) 
nan

>  <Standard Relation>  (316) 
nan

>  <Standard Units>  (316) 
nan

>  <Standard Value>  (316) 
nan

>  <Assay ChEMBL ID>  (316) 
nan

>  <Assay Description>  (316) 
nan

>  <BAO Label>  (316) 
nan

$$$$

     RDKit          2D

 39 44  0  0  0  0  0  0  0  0999 V2000
   -7.3273  -10.0303    0.0000 C   0  0  0  0  0  0  0  0  0  0  0  0
   -5.9007  -10.4938    0.0000 C   0  0  0  0  0  0  0  0  0  0  0  0
   -4.7860   -9.4901    0.0000 C   0  0  0  0  0  0  0  0  0  0  0  0
   -3.3594   -9.9537    0.0000 C   0  0  0  0  0  0  0  0  0  0  0  0
   -2.2447   -8.9500    0.0000 C   0  0  0  0  0  0  0  0  0  0  0  0
   -2.5565   -7.4827    0.0000 N   0  0  0  0  0  0  0  0  0  0  0  0
   -1.4418   -6.4791    0.0000 C   0  0  0  0  0  0  0  0  0  0  0  0
   -0.0152   -6.9426    0.0000 O   0  0  0  0  0  0  0  0  0  0  0  0
   -1.7537   -5.0118    0.0000 C   0  0  0  0  0  0  0  0  0  0  0  0
   -3.1240   -4.4017    0.0000 N   0  0  0  0  0  0  0  0  0  0  0  0
   -2.9672   -2.9099    0.0000 N   0  0  0  0  0  0  0  0  0  0  0  0
   -4.0819   -1.9062    0.0000 C   0  0  0  0  0  0  0  0  0  0  0  0
   -1.5000   -2.5981    0.0000 C   0  0  0  0  0  0  0  0  0  0  0  0
   -0.7500   -3.8971    0.0000 C   0  0  0  0  0  0  0  0  0  0  0  0
    0.7500   -3.8971    0.0000 C   0  0  0  0  0  0  0  0  0  0  0  0
    1.5000   -2.5981    0.0000 C   0  0  0  0  0  0  0  0  0  0  0  0
    0.7500   -1.2990    0.0000 C   0  0  0  0  0  0  0  0  0  0  0  0
    1.5000    0.0000    0.0000 C   0  0  0  0  0  0  0  0  0  0  0  0
    0.7500    1.2990    0.0000 N   0  0  0  0  0  0  0  0  0  0  0  0
   -0.7500    1.2990    0.0000 C   0  0  0  0  0  0  0  0  0  0  0  0
   -1.5000    2.5981    0.0000 N   0  0  0  0  0  0  0  0  0  0  0  0
   -0.7500    3.8971    0.0000 C   0  0  0  0  0  0  0  0  0  0  0  0
    0.7500    3.8971    0.0000 C   0  0  0  0  0  0  0  0  0  0  0  0
    1.5000    5.1962    0.0000 C   0  0  0  0  0  0  0  0  0  0  0  0
    0.7500    6.4952    0.0000 C   0  0  0  0  0  0  0  0  0  0  0  0
    1.5000    7.7942    0.0000 N   0  0  0  0  0  0  0  0  0  0  0  0
    3.0000    7.7942    0.0000 C   0  0  0  0  0  0  0  0  0  0  0  0
    3.7500    9.0933    0.0000 C   0  0  0  0  0  0  0  0  0  0  0  0
    3.0000   10.3923    0.0000 N   0  0  0  0  0  0  0  0  0  0  0  0
    3.7500   11.6913    0.0000 C   0  0  0  0  0  0  0  0  0  0  0  0
    1.5000   10.3923    0.0000 C   0  0  0  0  0  0  0  0  0  0  0  0
    0.7500    9.0933    0.0000 C   0  0  0  0  0  0  0  0  0  0  0  0
   -0.7500    6.4952    0.0000 C   0  0  0  0  0  0  0  0  0  0  0  0
   -1.5000    5.1962    0.0000 C   0  0  0  0  0  0  0  0  0  0  0  0
   -1.5000    0.0000    0.0000 N   0  0  0  0  0  0  0  0  0  0  0  0
   -0.7500   -1.2990    0.0000 C   0  0  0  0  0  0  0  0  0  0  0  0
   -3.0475  -11.4209    0.0000 C   0  0  0  0  0  0  0  0  0  0  0  0
   -4.1622  -12.4246    0.0000 C   0  0  0  0  0  0  0  0  0  0  0  0
   -5.5888  -11.9611    0.0000 N   0  0  0  0  0  0  0  0  0  0  0  0
  1  2  1  0
  2  3  2  0
  3  4  1  0
  4  5  1  0
  5  6  1  0
  6  7  1  0
  7  8  2  0
  7  9  1  0
  9 10  2  0
 10 11  1  0
 11 12  1  0
 11 13  1  0
 13 14  2  0
 14 15  1  0
 15 16  1  0
 16 17  1  0
 17 18  2  0
 18 19  1  0
 19 20  2  0
 20 21  1  0
 21 22  1  0
 22 23  2  0
 23 24  1  0
 24 25  2  0
 25 26  1  0
 26 27  1  0
 27 28  1  0
 28 29  1  0
 29 30  1  0
 29 31  1  0
 31 32  1  0
 25 33  1  0
 33 34  2  0
 20 35  1  0
 35 36  2  0
  4 37  2  0
 37 38  1  0
 38 39  2  0
 39  2  1  0
 14  9  1  0
 36 17  1  0
 36 13  1  0
 34 22  1  0
 32 26  1  0
M  END
>  <Compound_ID>  (317) 
CHEMBL1169805

>  <Active>  (317) 
1

>  <Smiles>  (317) 
Cc1cc(CNC(=O)c2nn(C)c3c2CCc2cnc(Nc4ccc(N5CCN(C)CC5)cc4)nc2-3)ccn1

>  <canonical_smi>  (317) 
Cc1cc(CNC(=O)c2nn(C)c3c2CCc2cnc(Nc4ccc(N5CCN(C)CC5)cc4)nc2-3)ccn1

>  <Set>  (317) 
G2 active

>  <Set_type>  (317) 
Train

>  <MW>  (317) 
523.65

>  <HBD>  (317) 
2

>  <HBA>  (317) 
8

>  <NRB>  (317) 
6

>  <NR>  (317) 
6

>  <NAR>  (317) 
4

>  <PSA>  (317) 
104.1

>  <Standard Type>  (317) 
nan

>  <Standard Relation>  (317) 
nan

>  <Standard Units>  (317) 
nan

>  <Standard Value>  (317) 
nan

>  <Assay ChEMBL ID>  (317) 
nan

>  <Assay Description>  (317) 
nan

>  <BAO Label>  (317) 
nan

$$$$

     RDKit          2D

 34 40  0  0  0  0  0  0  0  0999 V2000
   -4.3240   -7.6191    0.0000 C   0  0  0  0  0  0  0  0  0  0  0  0
   -2.8974   -8.0826    0.0000 N   0  0  0  0  0  0  0  0  0  0  0  0
   -2.4339   -9.5092    0.0000 C   0  0  0  0  0  0  0  0  0  0  0  0
   -0.9339   -9.5092    0.0000 C   0  0  0  0  0  0  0  0  0  0  0  0
   -0.4704   -8.0826    0.0000 C   0  0  0  0  0  0  0  0  0  0  0  0
    0.8999   -7.4725    0.0000 C   0  0  0  0  0  0  0  0  0  0  0  0
    1.0567   -5.9808    0.0000 C   0  0  0  0  0  0  0  0  0  0  0  0
   -0.1568   -5.0991    0.0000 C   0  0  0  0  0  0  0  0  0  0  0  0
   -0.0000   -3.6073    0.0000 C   0  0  0  0  0  0  0  0  0  0  0  0
    1.2135   -2.7256    0.0000 N   0  0  0  0  0  0  0  0  0  0  0  0
    0.7500   -1.2990    0.0000 C   0  0  0  0  0  0  0  0  0  0  0  0
    1.5000    0.0000    0.0000 C   0  0  0  0  0  0  0  0  0  0  0  0
    0.7500    1.2990    0.0000 C   0  0  0  0  0  0  0  0  0  0  0  0
    1.5000    2.5981    0.0000 O   0  0  0  0  0  0  0  0  0  0  0  0
    3.0000    2.5981    0.0000 C   0  0  0  0  0  0  0  0  0  0  0  0
    3.7500    3.8971    0.0000 C   0  0  0  0  0  0  0  0  0  0  0  0
    5.2500    3.8971    0.0000 C   0  0  0  0  0  0  0  0  0  0  0  0
    6.0000    5.1962    0.0000 C   0  0  0  0  0  0  0  0  0  0  0  0
    5.2500    6.4952    0.0000 C   0  0  0  0  0  0  0  0  0  0  0  0
    3.7500    6.4952    0.0000 C   0  0  0  0  0  0  0  0  0  0  0  0
    3.0000    5.1962    0.0000 C   0  0  0  0  0  0  0  0  0  0  0  0
   -0.7500    1.2990    0.0000 C   0  0  0  0  0  0  0  0  0  0  0  0
   -1.5000    0.0000    0.0000 C   0  0  0  0  0  0  0  0  0  0  0  0
   -0.7500   -1.2990    0.0000 C   0  0  0  0  0  0  0  0  0  0  0  0
   -1.2135   -2.7256    0.0000 C   0  0  0  0  0  0  0  0  0  0  0  0
   -2.5838   -3.3357    0.0000 C   0  0  0  0  0  0  0  0  0  0  0  0
   -2.7406   -4.8275    0.0000 C   0  0  0  0  0  0  0  0  0  0  0  0
   -1.5271   -5.7092    0.0000 C   0  0  0  0  0  0  0  0  0  0  0  0
   -1.6839   -7.2010    0.0000 C   0  0  0  0  0  0  0  0  0  0  0  0
   -4.2079   -5.1394    0.0000 C   0  0  0  0  0  0  0  0  0  0  0  0
   -4.8180   -6.5097    0.0000 O   0  0  0  0  0  0  0  0  0  0  0  0
   -4.9579   -3.8403    0.0000 N   0  0  0  0  0  0  0  0  0  0  0  0
   -3.9542   -2.7256    0.0000 C   0  0  0  0  0  0  0  0  0  0  0  0
   -4.2660   -1.2584    0.0000 O   0  0  0  0  0  0  0  0  0  0  0  0
  1  2  1  0
  2  3  1  0
  3  4  2  0
  4  5  1  0
  5  6  2  0
  6  7  1  0
  7  8  2  0
  8  9  1  0
  9 10  1  0
 10 11  1  0
 11 12  2  0
 12 13  1  0
 13 14  1  0
 14 15  1  0
 15 16  1  0
 16 17  2  0
 17 18  1  0
 18 19  2  0
 19 20  1  0
 20 21  2  0
 13 22  2  0
 22 23  1  0
 23 24  2  0
 24 25  1  0
 25 26  1  0
 26 27  2  0
 27 28  1  0
 28 29  2  0
 27 30  1  0
 30 31  2  0
 30 32  1  0
 32 33  1  0
 33 34  2  0
 29  2  1  0
 29  5  1  0
 28  8  1  0
 25  9  2  0
 33 26  1  0
 24 11  1  0
 21 16  1  0
M  END
>  <Compound_ID>  (318) 
CHEMBL75953

>  <Active>  (318) 
1

>  <Smiles>  (318) 
Cn1ccc2ccc3c4[nH]c5cc(OCc6ccccc6)ccc5c4c4c(c3c21)C(=O)NC4=O

>  <canonical_smi>  (318) 
Cn1ccc2ccc3c4[nH]c5cc(OCc6ccccc6)ccc5c4c4c(c3c21)C(=O)NC4=O

>  <Set>  (318) 
G2 active

>  <Set_type>  (318) 
Train

>  <MW>  (318) 
445.48

>  <HBD>  (318) 
2

>  <HBA>  (318) 
3

>  <NRB>  (318) 
3

>  <NR>  (318) 
7

>  <NAR>  (318) 
6

>  <PSA>  (318) 
76.12

>  <Standard Type>  (318) 
nan

>  <Standard Relation>  (318) 
nan

>  <Standard Units>  (318) 
nan

>  <Standard Value>  (318) 
nan

>  <Assay ChEMBL ID>  (318) 
nan

>  <Assay Description>  (318) 
nan

>  <BAO Label>  (318) 
nan

$$$$

     RDKit          2D

 24 27  0  0  0  0  0  0  0  0999 V2000
    2.2484    6.9199    0.0000 N   0  0  0  0  0  0  0  0  0  0  0  0
    1.7849    5.4933    0.0000 C   0  0  0  0  0  0  0  0  0  0  0  0
    2.7886    4.3786    0.0000 C   0  0  0  0  0  0  0  0  0  0  0  0
    2.3250    2.9520    0.0000 C   0  0  0  0  0  0  0  0  0  0  0  0
    0.8578    2.6401    0.0000 C   0  0  0  0  0  0  0  0  0  0  0  0
    0.3943    1.2135    0.0000 C   0  0  0  0  0  0  0  0  0  0  0  0
    1.2760    0.0000    0.0000 N   0  0  0  0  0  0  0  0  0  0  0  0
    0.3943   -1.2135    0.0000 N   0  0  0  0  0  0  0  0  0  0  0  0
    0.3943   -2.7135    0.0000 C   0  0  0  0  0  0  0  0  0  0  0  0
    1.6078   -3.5952    0.0000 C   0  0  0  0  0  0  0  0  0  0  0  0
    1.4510   -5.0870    0.0000 O   0  0  0  0  0  0  0  0  0  0  0  0
    2.6646   -5.9687    0.0000 C   0  0  0  0  0  0  0  0  0  0  0  0
    2.5078   -7.4604    0.0000 C   0  0  0  0  0  0  0  0  0  0  0  0
    3.7213   -8.3421    0.0000 C   0  0  0  0  0  0  0  0  0  0  0  0
    5.0916   -7.7320    0.0000 C   0  0  0  0  0  0  0  0  0  0  0  0
    6.3051   -8.6137    0.0000 Cl  0  0  0  0  0  0  0  0  0  0  0  0
    5.2484   -6.2402    0.0000 C   0  0  0  0  0  0  0  0  0  0  0  0
    4.0349   -5.3586    0.0000 C   0  0  0  0  0  0  0  0  0  0  0  0
   -1.0323   -3.1771    0.0000 N   0  0  0  0  0  0  0  0  0  0  0  0
   -1.9140   -1.9635    0.0000 N   0  0  0  0  0  0  0  0  0  0  0  0
   -1.0323   -0.7500    0.0000 C   0  0  0  0  0  0  0  0  0  0  0  0
   -1.0323    0.7500    0.0000 S   0  0  0  0  0  0  0  0  0  0  0  0
   -0.1459    3.7548    0.0000 C   0  0  0  0  0  0  0  0  0  0  0  0
    0.3177    5.1814    0.0000 C   0  0  0  0  0  0  0  0  0  0  0  0
  1  2  1  0
  2  3  2  0
  3  4  1  0
  4  5  2  0
  5  6  1  0
  6  7  2  0
  7  8  1  0
  8  9  1  0
  9 10  1  0
 10 11  1  0
 11 12  1  0
 12 13  2  0
 13 14  1  0
 14 15  2  0
 15 16  1  0
 15 17  1  0
 17 18  2  0
  9 19  2  0
 19 20  1  0
 20 21  2  0
 21 22  1  0
  5 23  1  0
 23 24  2  0
 24  2  1  0
 22  6  1  0
 21  8  1  0
 18 12  1  0
M  END
>  <Compound_ID>  (319) 
CHEMBL561179

>  <Active>  (319) 
1

>  <Smiles>  (319) 
Nc1ccc(-c2nn3c(COc4ccc(Cl)cc4)nnc3s2)cc1

>  <canonical_smi>  (319) 
Nc1ccc(-c2nn3c(COc4ccc(Cl)cc4)nnc3s2)cc1

>  <Set>  (319) 
G2 active

>  <Set_type>  (319) 
Train

>  <MW>  (319) 
357.83

>  <HBD>  (319) 
1

>  <HBA>  (319) 
5

>  <NRB>  (319) 
4

>  <NR>  (319) 
4

>  <NAR>  (319) 
4

>  <PSA>  (319) 
78.33

>  <Standard Type>  (319) 
nan

>  <Standard Relation>  (319) 
nan

>  <Standard Units>  (319) 
nan

>  <Standard Value>  (319) 
nan

>  <Assay ChEMBL ID>  (319) 
nan

>  <Assay Description>  (319) 
nan

>  <BAO Label>  (319) 
nan

$$$$

     RDKit          2D

 22 24  0  0  0  0  0  0  0  0999 V2000
    5.6097    7.0058    0.0000 C   0  0  0  0  0  0  0  0  0  0  0  0
    4.1831    6.5422    0.0000 C   0  0  0  0  0  0  0  0  0  0  0  0
    3.8712    5.0750    0.0000 C   0  0  0  0  0  0  0  0  0  0  0  0
    2.4446    4.6115    0.0000 C   0  0  0  0  0  0  0  0  0  0  0  0
    2.1328    3.1443    0.0000 O   0  0  0  0  0  0  0  0  0  0  0  0
    0.7062    2.6807    0.0000 C   0  0  0  0  0  0  0  0  0  0  0  0
    0.3943    1.2135    0.0000 C   0  0  0  0  0  0  0  0  0  0  0  0
    1.2760    0.0000    0.0000 C   0  0  0  0  0  0  0  0  0  0  0  0
    0.3943   -1.2135    0.0000 N   0  0  0  0  0  0  0  0  0  0  0  0
   -1.0323   -0.7500    0.0000 N   0  0  0  0  0  0  0  0  0  0  0  0
   -1.0323    0.7500    0.0000 C   0  0  0  0  0  0  0  0  0  0  0  0
   -2.1470    1.7537    0.0000 N   0  0  0  0  0  0  0  0  0  0  0  0
   -1.8351    3.2209    0.0000 C   0  0  0  0  0  0  0  0  0  0  0  0
   -0.4086    3.6844    0.0000 C   0  0  0  0  0  0  0  0  0  0  0  0
   -0.0967    5.1517    0.0000 S   0  0  0  0  0  0  0  0  0  0  0  0
    1.3299    5.6152    0.0000 O   0  0  0  0  0  0  0  0  0  0  0  0
   -1.2114    6.1554    0.0000 C   0  0  0  0  0  0  0  0  0  0  0  0
   -0.8995    7.6226    0.0000 C   0  0  0  0  0  0  0  0  0  0  0  0
   -2.0143    8.6263    0.0000 C   0  0  0  0  0  0  0  0  0  0  0  0
   -3.4408    8.1628    0.0000 C   0  0  0  0  0  0  0  0  0  0  0  0
   -3.7527    6.6955    0.0000 C   0  0  0  0  0  0  0  0  0  0  0  0
   -2.6380    5.6918    0.0000 C   0  0  0  0  0  0  0  0  0  0  0  0
  1  2  1  0
  2  3  1  0
  3  4  1  0
  4  5  1  0
  5  6  1  0
  6  7  2  0
  7  8  1  0
  8  9  2  0
  9 10  1  0
 10 11  2  0
 11 12  1  0
 12 13  1  0
 13 14  2  0
 14 15  1  0
 15 16  2  0
 15 17  1  0
 17 18  2  0
 18 19  1  0
 19 20  2  0
 20 21  1  0
 21 22  2  0
 14  6  1  0
 22 17  1  0
 11  7  1  0
M  END
>  <Compound_ID>  (320) 
CHEMBL76925

>  <Active>  (320) 
1

>  <Smiles>  (320) 
CCCCOc1c2cnnc-2[nH]cc1S(=O)c1ccccc1

>  <canonical_smi>  (320) 
CCCCOc1c2cnnc-2[nH]cc1S(=O)c1ccccc1

>  <Set>  (320) 
G2 active

>  <Set_type>  (320) 
Train

>  <MW>  (320) 
315.4

>  <HBD>  (320) 
1

>  <HBA>  (320) 
4

>  <NRB>  (320) 
6

>  <NR>  (320) 
3

>  <NAR>  (320) 
3

>  <PSA>  (320) 
67.87

>  <Standard Type>  (320) 
nan

>  <Standard Relation>  (320) 
nan

>  <Standard Units>  (320) 
nan

>  <Standard Value>  (320) 
nan

>  <Assay ChEMBL ID>  (320) 
nan

>  <Assay Description>  (320) 
nan

>  <BAO Label>  (320) 
nan

$$$$

     RDKit          2D

 21 22  0  0  0  0  0  0  0  0999 V2000
   -5.0078  -11.0558    0.0000 C   0  0  0  0  0  0  0  0  0  0  0  0
   -3.6375  -10.4457    0.0000 C   0  0  0  0  0  0  0  0  0  0  0  0
   -3.4807   -8.9539    0.0000 O   0  0  0  0  0  0  0  0  0  0  0  0
   -2.4240  -11.3274    0.0000 N   0  0  0  0  0  0  0  0  0  0  0  0
   -1.0537  -10.7173    0.0000 C   0  0  0  0  0  0  0  0  0  0  0  0
    0.2454  -11.4673    0.0000 N   0  0  0  0  0  0  0  0  0  0  0  0
    1.3601  -10.4636    0.0000 C   0  0  0  0  0  0  0  0  0  0  0  0
    0.7500   -9.0933    0.0000 C   0  0  0  0  0  0  0  0  0  0  0  0
    1.5000   -7.7942    0.0000 S   0  0  0  0  0  0  0  0  0  0  0  0
    0.7500   -6.4952    0.0000 C   0  0  0  0  0  0  0  0  0  0  0  0
    1.5000   -5.1962    0.0000 C   0  0  0  0  0  0  0  0  0  0  0  0
    3.0000   -5.1962    0.0000 O   0  0  0  0  0  0  0  0  0  0  0  0
    0.7500   -3.8971    0.0000 O   0  0  0  0  0  0  0  0  0  0  0  0
    1.5000   -2.5981    0.0000 C   0  0  0  0  0  0  0  0  0  0  0  0
    0.7500   -1.2990    0.0000 C   0  0  0  0  0  0  0  0  0  0  0  0
    1.5000    0.0000    0.0000 C   0  0  0  0  0  0  0  0  0  0  0  0
    0.7500    1.2990    0.0000 C   0  0  0  0  0  0  0  0  0  0  0  0
   -0.7500    1.2990    0.0000 C   0  0  0  0  0  0  0  0  0  0  0  0
   -1.5000    0.0000    0.0000 C   0  0  0  0  0  0  0  0  0  0  0  0
   -0.7500   -1.2990    0.0000 C   0  0  0  0  0  0  0  0  0  0  0  0
   -0.7418   -9.2501    0.0000 S   0  0  0  0  0  0  0  0  0  0  0  0
  1  2  1  0
  2  3  2  0
  2  4  1  0
  4  5  1  0
  5  6  2  0
  6  7  1  0
  7  8  2  0
  8  9  1  0
  9 10  1  0
 10 11  1  0
 11 12  2  0
 11 13  1  0
 13 14  1  0
 14 15  1  0
 15 16  2  0
 16 17  1  0
 17 18  2  0
 18 19  1  0
 19 20  2  0
  8 21  1  0
 21  5  1  0
 20 15  1  0
M  END
>  <Compound_ID>  (321) 
CHEMBL339246

>  <Active>  (321) 
1

>  <Smiles>  (321) 
CC(=O)Nc1ncc(SCC(=O)OCc2ccccc2)s1

>  <canonical_smi>  (321) 
CC(=O)Nc1ncc(SCC(=O)OCc2ccccc2)s1

>  <Set>  (321) 
G2 active

>  <Set_type>  (321) 
Train

>  <MW>  (321) 
322.41

>  <HBD>  (321) 
1

>  <HBA>  (321) 
5

>  <NRB>  (321) 
6

>  <NR>  (321) 
2

>  <NAR>  (321) 
2

>  <PSA>  (321) 
68.29

>  <Standard Type>  (321) 
nan

>  <Standard Relation>  (321) 
nan

>  <Standard Units>  (321) 
nan

>  <Standard Value>  (321) 
nan

>  <Assay ChEMBL ID>  (321) 
nan

>  <Assay Description>  (321) 
nan

>  <BAO Label>  (321) 
nan

$$$$

     RDKit          2D

 20 23  0  0  0  0  0  0  0  0999 V2000
   -1.8373   -5.6601    0.0000 O   0  0  0  0  0  0  0  0  0  0  0  0
   -2.9520   -4.6564    0.0000 C   0  0  0  0  0  0  0  0  0  0  0  0
   -2.6401   -3.1891    0.0000 N   0  0  0  0  0  0  0  0  0  0  0  0
   -1.2135   -2.7256    0.0000 C   0  0  0  0  0  0  0  0  0  0  0  0
   -0.0000   -3.6073    0.0000 N   0  0  0  0  0  0  0  0  0  0  0  0
    1.2135   -2.7256    0.0000 N   0  0  0  0  0  0  0  0  0  0  0  0
    0.7500   -1.2990    0.0000 C   0  0  0  0  0  0  0  0  0  0  0  0
    1.5000    0.0000    0.0000 C   0  0  0  0  0  0  0  0  0  0  0  0
    0.7500    1.2990    0.0000 C   0  0  0  0  0  0  0  0  0  0  0  0
    1.5000    2.5981    0.0000 C   0  0  0  0  0  0  0  0  0  0  0  0
    0.8899    3.9684    0.0000 C   0  0  0  0  0  0  0  0  0  0  0  0
    2.0046    4.9721    0.0000 C   0  0  0  0  0  0  0  0  0  0  0  0
    3.3037    4.2221    0.0000 C   0  0  0  0  0  0  0  0  0  0  0  0
    2.9918    2.7549    0.0000 S   0  0  0  0  0  0  0  0  0  0  0  0
   -0.7500    1.2990    0.0000 C   0  0  0  0  0  0  0  0  0  0  0  0
   -1.5000    0.0000    0.0000 C   0  0  0  0  0  0  0  0  0  0  0  0
   -0.7500   -1.2990    0.0000 C   0  0  0  0  0  0  0  0  0  0  0  0
   -4.3786   -5.1199    0.0000 C   0  0  0  0  0  0  0  0  0  0  0  0
   -5.3823   -6.2346    0.0000 C   0  0  0  0  0  0  0  0  0  0  0  0
   -5.8458   -4.8080    0.0000 C   0  0  0  0  0  0  0  0  0  0  0  0
  1  2  2  0
  2  3  1  0
  3  4  1  0
  4  5  2  0
  5  6  1  0
  6  7  1  0
  7  8  2  0
  8  9  1  0
  9 10  1  0
 10 11  2  0
 11 12  1  0
 12 13  2  0
 13 14  1  0
  9 15  2  0
 15 16  1  0
 16 17  2  0
  2 18  1  0
 18 19  1  0
 19 20  1  0
 17  4  1  0
 20 18  1  0
 17  7  1  0
 14 10  1  0
M  END
>  <Compound_ID>  (322) 
CHEMBL318522

>  <Active>  (322) 
1

>  <Smiles>  (322) 
O=C(Nc1n[nH]c2cc(-c3cccs3)ccc12)C1CC1

>  <canonical_smi>  (322) 
O=C(Nc1n[nH]c2cc(-c3cccs3)ccc12)C1CC1

>  <Set>  (322) 
G2 active

>  <Set_type>  (322) 
Train

>  <MW>  (322) 
283.36

>  <HBD>  (322) 
2

>  <HBA>  (322) 
2

>  <NRB>  (322) 
3

>  <NR>  (322) 
4

>  <NAR>  (322) 
3

>  <PSA>  (322) 
57.78

>  <Standard Type>  (322) 
nan

>  <Standard Relation>  (322) 
nan

>  <Standard Units>  (322) 
nan

>  <Standard Value>  (322) 
nan

>  <Assay ChEMBL ID>  (322) 
nan

>  <Assay Description>  (322) 
nan

>  <BAO Label>  (322) 
nan

$$$$

     RDKit          2D

 30 33  0  0  0  0  0  0  0  0999 V2000
   -1.5342  -12.0455    0.0000 N   0  0  0  0  0  0  0  0  0  0  0  0
   -2.9046  -11.4354    0.0000 C   0  0  0  0  0  0  0  0  0  0  0  0
   -3.0613   -9.9436    0.0000 C   0  0  0  0  0  0  0  0  0  0  0  0
   -1.8478   -9.0619    0.0000 N   0  0  0  0  0  0  0  0  0  0  0  0
   -2.0046   -7.5702    0.0000 C   0  0  0  0  0  0  0  0  0  0  0  0
   -3.3037   -6.8202    0.0000 N   0  0  0  0  0  0  0  0  0  0  0  0
   -2.9918   -5.3529    0.0000 N   0  0  0  0  0  0  0  0  0  0  0  0
   -1.5000   -5.1962    0.0000 C   0  0  0  0  0  0  0  0  0  0  0  0
   -0.7500   -3.8971    0.0000 C   0  0  0  0  0  0  0  0  0  0  0  0
    0.7500   -3.8971    0.0000 C   0  0  0  0  0  0  0  0  0  0  0  0
    1.5000   -2.5981    0.0000 C   0  0  0  0  0  0  0  0  0  0  0  0
    0.7500   -1.2990    0.0000 C   0  0  0  0  0  0  0  0  0  0  0  0
    1.5000    0.0000    0.0000 C   0  0  0  0  0  0  0  0  0  0  0  0
    0.7500    1.2990    0.0000 N   0  0  0  0  0  0  0  0  0  0  0  0
   -0.7500    1.2990    0.0000 C   0  0  0  0  0  0  0  0  0  0  0  0
   -1.5000    0.0000    0.0000 C   0  0  0  0  0  0  0  0  0  0  0  0
   -0.7500   -1.2990    0.0000 C   0  0  0  0  0  0  0  0  0  0  0  0
   -1.5000   -2.5981    0.0000 C   0  0  0  0  0  0  0  0  0  0  0  0
   -0.8899   -6.5665    0.0000 O   0  0  0  0  0  0  0  0  0  0  0  0
   -4.1181  -12.3171    0.0000 C   0  0  0  0  0  0  0  0  0  0  0  0
   -3.9613  -13.8089    0.0000 C   0  0  0  0  0  0  0  0  0  0  0  0
   -5.1748  -14.6905    0.0000 C   0  0  0  0  0  0  0  0  0  0  0  0
   -5.0180  -16.1823    0.0000 C   0  0  0  0  0  0  0  0  0  0  0  0
   -3.6477  -16.7924    0.0000 C   0  0  0  0  0  0  0  0  0  0  0  0
   -3.4909  -18.2842    0.0000 C   0  0  0  0  0  0  0  0  0  0  0  0
   -3.3341  -19.7760    0.0000 F   0  0  0  0  0  0  0  0  0  0  0  0
   -4.9827  -18.4410    0.0000 F   0  0  0  0  0  0  0  0  0  0  0  0
   -1.9991  -18.1274    0.0000 F   0  0  0  0  0  0  0  0  0  0  0  0
   -2.4342  -15.9108    0.0000 C   0  0  0  0  0  0  0  0  0  0  0  0
   -2.5910  -14.4190    0.0000 C   0  0  0  0  0  0  0  0  0  0  0  0
  2  1  1  1
  2  3  1  0
  3  4  1  0
  4  5  1  0
  5  6  2  0
  6  7  1  0
  7  8  2  0
  8  9  1  0
  9 10  2  0
 10 11  1  0
 11 12  2  0
 12 13  1  0
 13 14  2  0
 14 15  1  0
 15 16  2  0
 16 17  1  0
 17 18  2  0
  8 19  1  0
  2 20  1  0
 20 21  1  0
 21 22  2  0
 22 23  1  0
 23 24  2  0
 24 25  1  0
 25 26  1  0
 25 27  1  0
 25 28  1  0
 24 29  1  0
 29 30  2  0
 19  5  1  0
 30 21  1  0
 18  9  1  0
 17 12  1  0
M  END
>  <Compound_ID>  (323) 
CHEMBL1081119

>  <Active>  (323) 
1

>  <Smiles>  (323) 
N[C@H](CNc1nnc(-c2ccc3cnccc3c2)o1)Cc1ccc(C(F)(F)F)cc1

>  <canonical_smi>  (323) 
N[C@H](CNc1nnc(-c2ccc3cnccc3c2)o1)Cc1ccc(C(F)(F)F)cc1

>  <Set>  (323) 
G2 active

>  <Set_type>  (323) 
Train

>  <MW>  (323) 
413.4

>  <HBD>  (323) 
2

>  <HBA>  (323) 
6

>  <NRB>  (323) 
6

>  <NR>  (323) 
4

>  <NAR>  (323) 
4

>  <PSA>  (323) 
89.86

>  <Standard Type>  (323) 
nan

>  <Standard Relation>  (323) 
nan

>  <Standard Units>  (323) 
nan

>  <Standard Value>  (323) 
nan

>  <Assay ChEMBL ID>  (323) 
nan

>  <Assay Description>  (323) 
nan

>  <BAO Label>  (323) 
nan

$$$$

     RDKit          2D

 22 24  0  0  0  0  0  0  0  0999 V2000
    8.7547  -12.4552    0.0000 C   0  0  0  0  0  0  0  0  0  0  0  0
    8.0047  -11.1562    0.0000 C   0  0  0  0  0  0  0  0  0  0  0  0
    6.5047  -11.1562    0.0000 O   0  0  0  0  0  0  0  0  0  0  0  0
    8.7547   -9.8571    0.0000 N   0  0  0  0  0  0  0  0  0  0  0  0
    8.0047   -8.5581    0.0000 C   0  0  0  0  0  0  0  0  0  0  0  0
    8.6148   -7.1878    0.0000 N   0  0  0  0  0  0  0  0  0  0  0  0
    7.5001   -6.1841    0.0000 C   0  0  0  0  0  0  0  0  0  0  0  0
    6.2011   -6.9341    0.0000 C   0  0  0  0  0  0  0  0  0  0  0  0
    4.8308   -6.3240    0.0000 S   0  0  0  0  0  0  0  0  0  0  0  0
    4.6740   -4.8322    0.0000 C   0  0  0  0  0  0  0  0  0  0  0  0
    3.3037   -4.2221    0.0000 C   0  0  0  0  0  0  0  0  0  0  0  0
    2.0046   -4.9721    0.0000 N   0  0  0  0  0  0  0  0  0  0  0  0
    0.8899   -3.9684    0.0000 C   0  0  0  0  0  0  0  0  0  0  0  0
    1.5000   -2.5981    0.0000 C   0  0  0  0  0  0  0  0  0  0  0  0
    0.7500   -1.2990    0.0000 C   0  0  0  0  0  0  0  0  0  0  0  0
    1.5000    0.0000    0.0000 C   0  0  0  0  0  0  0  0  0  0  0  0
    0.7500    1.2990    0.0000 C   0  0  0  0  0  0  0  0  0  0  0  0
   -0.7500    1.2990    0.0000 C   0  0  0  0  0  0  0  0  0  0  0  0
   -1.5000    0.0000    0.0000 C   0  0  0  0  0  0  0  0  0  0  0  0
   -0.7500   -1.2990    0.0000 C   0  0  0  0  0  0  0  0  0  0  0  0
    2.9918   -2.7549    0.0000 O   0  0  0  0  0  0  0  0  0  0  0  0
    6.5129   -8.4013    0.0000 S   0  0  0  0  0  0  0  0  0  0  0  0
  1  2  1  0
  2  3  2  0
  2  4  1  0
  4  5  1  0
  5  6  2  0
  6  7  1  0
  7  8  2  0
  8  9  1  0
  9 10  1  0
 10 11  1  0
 11 12  2  0
 12 13  1  0
 13 14  2  0
 14 15  1  0
 15 16  2  0
 16 17  1  0
 17 18  2  0
 18 19  1  0
 19 20  2  0
 14 21  1  0
  8 22  1  0
 22  5  1  0
 21 11  1  0
 20 15  1  0
M  END
>  <Compound_ID>  (324) 
CHEMBL125731

>  <Active>  (324) 
1

>  <Smiles>  (324) 
CC(=O)Nc1ncc(SCc2ncc(-c3ccccc3)o2)s1

>  <canonical_smi>  (324) 
CC(=O)Nc1ncc(SCc2ncc(-c3ccccc3)o2)s1

>  <Set>  (324) 
G2 active

>  <Set_type>  (324) 
Train

>  <MW>  (324) 
331.42

>  <HBD>  (324) 
1

>  <HBA>  (324) 
5

>  <NRB>  (324) 
5

>  <NR>  (324) 
3

>  <NAR>  (324) 
3

>  <PSA>  (324) 
68.02

>  <Standard Type>  (324) 
nan

>  <Standard Relation>  (324) 
nan

>  <Standard Units>  (324) 
nan

>  <Standard Value>  (324) 
nan

>  <Assay ChEMBL ID>  (324) 
nan

>  <Assay Description>  (324) 
nan

>  <BAO Label>  (324) 
nan

$$$$

     RDKit          2D

 27 30  0  0  0  0  0  0  0  0999 V2000
   -9.1472    6.3086    0.0000 N   0  0  0  0  0  0  0  0  0  0  0  0
   -8.0325    5.3050    0.0000 S   0  0  0  0  0  0  0  0  0  0  0  0
   -7.0288    6.4197    0.0000 O   0  0  0  0  0  0  0  0  0  0  0  0
   -9.0362    4.1902    0.0000 O   0  0  0  0  0  0  0  0  0  0  0  0
   -6.9177    4.3013    0.0000 C   0  0  0  0  0  0  0  0  0  0  0  0
   -5.4912    4.7648    0.0000 C   0  0  0  0  0  0  0  0  0  0  0  0
   -4.3764    3.7611    0.0000 C   0  0  0  0  0  0  0  0  0  0  0  0
   -4.6883    2.2939    0.0000 C   0  0  0  0  0  0  0  0  0  0  0  0
   -3.5736    1.2902    0.0000 N   0  0  0  0  0  0  0  0  0  0  0  0
   -2.1470    1.7537    0.0000 C   0  0  0  0  0  0  0  0  0  0  0  0
   -1.8351    3.2209    0.0000 C   0  0  0  0  0  0  0  0  0  0  0  0
   -0.4086    3.6844    0.0000 C   0  0  0  0  0  0  0  0  0  0  0  0
   -0.0967    5.1517    0.0000 O   0  0  0  0  0  0  0  0  0  0  0  0
    1.3299    5.6152    0.0000 C   0  0  0  0  0  0  0  0  0  0  0  0
    2.4446    4.6115    0.0000 C   0  0  0  0  0  0  0  0  0  0  0  0
    3.8712    5.0750    0.0000 C   0  0  0  0  0  0  0  0  0  0  0  0
    4.1831    6.5422    0.0000 C   0  0  0  0  0  0  0  0  0  0  0  0
    3.0684    7.5459    0.0000 C   0  0  0  0  0  0  0  0  0  0  0  0
    1.6418    7.0824    0.0000 C   0  0  0  0  0  0  0  0  0  0  0  0
    0.7062    2.6807    0.0000 N   0  0  0  0  0  0  0  0  0  0  0  0
    0.3943    1.2135    0.0000 C   0  0  0  0  0  0  0  0  0  0  0  0
    1.2760    0.0000    0.0000 N   0  0  0  0  0  0  0  0  0  0  0  0
    0.3943   -1.2135    0.0000 C   0  0  0  0  0  0  0  0  0  0  0  0
   -1.0323   -0.7500    0.0000 N   0  0  0  0  0  0  0  0  0  0  0  0
   -1.0323    0.7500    0.0000 N   0  0  0  0  0  0  0  0  0  0  0  0
   -6.1149    1.8303    0.0000 C   0  0  0  0  0  0  0  0  0  0  0  0
   -7.2296    2.8340    0.0000 C   0  0  0  0  0  0  0  0  0  0  0  0
  1  2  1  0
  2  3  2  0
  2  4  2  0
  2  5  1  0
  5  6  2  0
  6  7  1  0
  7  8  2  0
  8  9  1  0
  9 10  1  0
 10 11  2  0
 11 12  1  0
 12 13  1  0
 13 14  1  0
 14 15  1  0
 15 16  1  0
 16 17  1  0
 17 18  1  0
 18 19  1  0
 12 20  2  0
 20 21  1  0
 21 22  2  0
 22 23  1  0
 23 24  2  0
 24 25  1  0
  8 26  1  0
 26 27  2  0
 27  5  1  0
 25 10  1  0
 19 14  1  0
 25 21  1  0
M  END
>  <Compound_ID>  (325) 
CHEMBL203407

>  <Active>  (325) 
1

>  <Smiles>  (325) 
NS(=O)(=O)c1ccc(Nc2cc(OC3CCCCC3)nc3ncnn23)cc1

>  <canonical_smi>  (325) 
NS(=O)(=O)c1ccc(Nc2cc(OC3CCCCC3)nc3ncnn23)cc1

>  <Set>  (325) 
G2 active

>  <Set_type>  (325) 
Train

>  <MW>  (325) 
388.45

>  <HBD>  (325) 
2

>  <HBA>  (325) 
7

>  <NRB>  (325) 
5

>  <NR>  (325) 
4

>  <NAR>  (325) 
3

>  <PSA>  (325) 
124.5

>  <Standard Type>  (325) 
nan

>  <Standard Relation>  (325) 
nan

>  <Standard Units>  (325) 
nan

>  <Standard Value>  (325) 
nan

>  <Assay ChEMBL ID>  (325) 
nan

>  <Assay Description>  (325) 
nan

>  <BAO Label>  (325) 
nan

$$$$

     RDKit          2D

 29 33  0  0  0  0  0  0  0  0999 V2000
    5.2500   -1.2990    0.0000 C   0  0  0  0  0  0  0  0  0  0  0  0
    3.7500   -1.2990    0.0000 C   0  0  0  0  0  0  0  0  0  0  0  0
    3.0000   -2.5981    0.0000 O   0  0  0  0  0  0  0  0  0  0  0  0
    3.0000    0.0000    0.0000 N   0  0  0  0  0  0  0  0  0  0  0  0
    1.5000    0.0000    0.0000 C   0  0  0  0  0  0  0  0  0  0  0  0
    0.7500   -1.2990    0.0000 C   0  0  0  0  0  0  0  0  0  0  0  0
   -0.7500   -1.2990    0.0000 C   0  0  0  0  0  0  0  0  0  0  0  0
   -1.5000    0.0000    0.0000 C   0  0  0  0  0  0  0  0  0  0  0  0
   -0.7500    1.2990    0.0000 C   0  0  0  0  0  0  0  0  0  0  0  0
    0.7500    1.2990    0.0000 C   0  0  0  0  0  0  0  0  0  0  0  0
    1.2135    2.7256    0.0000 C   0  0  0  0  0  0  0  0  0  0  0  0
    2.6401    3.1891    0.0000 O   0  0  0  0  0  0  0  0  0  0  0  0
    0.0000    3.6073    0.0000 C   0  0  0  0  0  0  0  0  0  0  0  0
   -0.4635    5.0339    0.0000 C   0  0  0  0  0  0  0  0  0  0  0  0
    0.4182    6.2474    0.0000 C   0  0  0  0  0  0  0  0  0  0  0  0
    1.9099    6.0906    0.0000 C   0  0  0  0  0  0  0  0  0  0  0  0
    2.7916    7.3041    0.0000 C   0  0  0  0  0  0  0  0  0  0  0  0
    2.1815    8.6745    0.0000 C   0  0  0  0  0  0  0  0  0  0  0  0
    3.0632    9.8880    0.0000 N   0  0  0  0  0  0  0  0  0  0  0  0
    4.5550    9.7312    0.0000 C   0  0  0  0  0  0  0  0  0  0  0  0
    5.4366   10.9447    0.0000 C   0  0  0  0  0  0  0  0  0  0  0  0
    4.8265   12.3150    0.0000 O   0  0  0  0  0  0  0  0  0  0  0  0
    3.3348   12.4718    0.0000 C   0  0  0  0  0  0  0  0  0  0  0  0
    2.4531   11.2583    0.0000 C   0  0  0  0  0  0  0  0  0  0  0  0
    0.6897    8.8313    0.0000 C   0  0  0  0  0  0  0  0  0  0  0  0
   -0.1920    7.6177    0.0000 C   0  0  0  0  0  0  0  0  0  0  0  0
   -1.9635    5.0339    0.0000 N   0  0  0  0  0  0  0  0  0  0  0  0
   -2.4271    3.6073    0.0000 N   0  0  0  0  0  0  0  0  0  0  0  0
   -1.2135    2.7256    0.0000 C   0  0  0  0  0  0  0  0  0  0  0  0
  1  2  1  0
  2  3  2  0
  2  4  1  0
  4  5  1  0
  5  6  2  0
  6  7  1  0
  7  8  2  0
  8  9  1  0
  9 10  2  0
 10 11  1  0
 11 12  2  0
 11 13  1  0
 13 14  1  0
 14 15  1  0
 15 16  2  0
 16 17  1  0
 17 18  2  0
 18 19  1  0
 19 20  1  0
 20 21  1  0
 21 22  1  0
 22 23  1  0
 23 24  1  0
 18 25  1  0
 25 26  2  0
 14 27  2  0
 27 28  1  0
 28 29  1  0
 10  5  1  0
 29 13  2  0
 29  9  1  0
 26 15  1  0
 24 19  1  0
M  END
>  <Compound_ID>  (326) 
CHEMBL147122

>  <Active>  (326) 
1

>  <Smiles>  (326) 
CC(=O)Nc1cccc2c1C(=O)c1c(-c3ccc(N4CCOCC4)cc3)n[nH]c1-2

>  <canonical_smi>  (326) 
CC(=O)Nc1cccc2c1C(=O)c1c(-c3ccc(N4CCOCC4)cc3)n[nH]c1-2

>  <Set>  (326) 
G2 active

>  <Set_type>  (326) 
Train

>  <MW>  (326) 
388.43

>  <HBD>  (326) 
2

>  <HBA>  (326) 
5

>  <NRB>  (326) 
3

>  <NR>  (326) 
5

>  <NAR>  (326) 
4

>  <PSA>  (326) 
87.32

>  <Standard Type>  (326) 
nan

>  <Standard Relation>  (326) 
nan

>  <Standard Units>  (326) 
nan

>  <Standard Value>  (326) 
nan

>  <Assay ChEMBL ID>  (326) 
nan

>  <Assay Description>  (326) 
nan

>  <BAO Label>  (326) 
nan

$$$$

     RDKit          2D

 30 34  0  0  0  0  0  0  0  0999 V2000
   -0.7500   -6.4952    0.0000 C   0  0  0  0  0  0  0  0  0  0  0  0
   -1.5000   -5.1962    0.0000 O   0  0  0  0  0  0  0  0  0  0  0  0
   -0.7500   -3.8971    0.0000 C   0  0  0  0  0  0  0  0  0  0  0  0
    0.7500   -3.8971    0.0000 C   0  0  0  0  0  0  0  0  0  0  0  0
    1.5000   -2.5981    0.0000 C   0  0  0  0  0  0  0  0  0  0  0  0
    0.7500   -1.2990    0.0000 C   0  0  0  0  0  0  0  0  0  0  0  0
    1.5000    0.0000    0.0000 C   0  0  0  0  0  0  0  0  0  0  0  0
    0.7500    1.2990    0.0000 N   0  0  0  0  0  0  0  0  0  0  0  0
   -0.7500    1.2990    0.0000 C   0  0  0  0  0  0  0  0  0  0  0  0
   -1.5000    2.5981    0.0000 N   0  0  0  0  0  0  0  0  0  0  0  0
   -0.7500    3.8971    0.0000 C   0  0  0  0  0  0  0  0  0  0  0  0
    0.7500    3.8971    0.0000 C   0  0  0  0  0  0  0  0  0  0  0  0
    1.5000    5.1962    0.0000 C   0  0  0  0  0  0  0  0  0  0  0  0
    0.7500    6.4952    0.0000 C   0  0  0  0  0  0  0  0  0  0  0  0
    1.5000    7.7942    0.0000 N   0  0  0  0  0  0  0  0  0  0  0  0
    3.0000    7.7942    0.0000 C   0  0  0  0  0  0  0  0  0  0  0  0
    3.7500    9.0933    0.0000 C   0  0  0  0  0  0  0  0  0  0  0  0
    3.0000   10.3923    0.0000 C   0  0  0  0  0  0  0  0  0  0  0  0
    1.5000   10.3923    0.0000 C   0  0  0  0  0  0  0  0  0  0  0  0
    0.7500    9.0933    0.0000 C   0  0  0  0  0  0  0  0  0  0  0  0
   -0.7500    6.4952    0.0000 C   0  0  0  0  0  0  0  0  0  0  0  0
   -1.5000    5.1962    0.0000 C   0  0  0  0  0  0  0  0  0  0  0  0
   -1.5000    0.0000    0.0000 N   0  0  0  0  0  0  0  0  0  0  0  0
   -0.7500   -1.2990    0.0000 C   0  0  0  0  0  0  0  0  0  0  0  0
   -1.5000   -2.5981    0.0000 C   0  0  0  0  0  0  0  0  0  0  0  0
   -3.0000   -2.5981    0.0000 C   0  0  0  0  0  0  0  0  0  0  0  0
   -3.8817   -3.8116    0.0000 C   0  0  0  0  0  0  0  0  0  0  0  0
   -5.3083   -3.3481    0.0000 C   0  0  0  0  0  0  0  0  0  0  0  0
   -5.3083   -1.8481    0.0000 C   0  0  0  0  0  0  0  0  0  0  0  0
   -3.8817   -1.3846    0.0000 C   0  0  0  0  0  0  0  0  0  0  0  0
  1  2  1  0
  2  3  1  0
  3  4  2  0
  4  5  1  0
  5  6  2  0
  6  7  1  0
  7  8  2  0
  8  9  1  0
  9 10  1  0
 10 11  1  0
 11 12  2  0
 12 13  1  0
 13 14  2  0
 14 15  1  0
 15 16  1  0
 16 17  1  0
 17 18  1  0
 18 19  1  0
 19 20  1  0
 14 21  1  0
 21 22  2  0
  9 23  2  0
 23 24  1  0
 24 25  2  0
 25 26  1  0
 26 27  1  0
 27 28  1  0
 28 29  1  0
 29 30  1  0
 25  3  1  0
 30 26  1  0
 24  6  1  0
 22 11  1  0
 20 15  1  0
M  END
>  <Compound_ID>  (327) 
CHEMBL183269

>  <Active>  (327) 
1

>  <Smiles>  (327) 
COc1ccc2cnc(Nc3ccc(N4CCCCC4)cc3)nc2c1C1CCCC1

>  <canonical_smi>  (327) 
COc1ccc2cnc(Nc3ccc(N4CCCCC4)cc3)nc2c1C1CCCC1

>  <Set>  (327) 
G2 active

>  <Set_type>  (327) 
Train

>  <MW>  (327) 
402.54

>  <HBD>  (327) 
1

>  <HBA>  (327) 
5

>  <NRB>  (327) 
5

>  <NR>  (327) 
5

>  <NAR>  (327) 
3

>  <PSA>  (327) 
50.28

>  <Standard Type>  (327) 
nan

>  <Standard Relation>  (327) 
nan

>  <Standard Units>  (327) 
nan

>  <Standard Value>  (327) 
nan

>  <Assay ChEMBL ID>  (327) 
nan

>  <Assay Description>  (327) 
nan

>  <BAO Label>  (327) 
nan

$$$$

     RDKit          2D

 24 27  0  0  0  0  0  0  0  0999 V2000
   -2.9520   -4.6564    0.0000 C   0  0  0  0  0  0  0  0  0  0  0  0
   -2.6401   -3.1891    0.0000 S   0  0  0  0  0  0  0  0  0  0  0  0
   -1.2135   -2.7256    0.0000 C   0  0  0  0  0  0  0  0  0  0  0  0
   -0.0000   -3.6073    0.0000 N   0  0  0  0  0  0  0  0  0  0  0  0
    1.2135   -2.7256    0.0000 N   0  0  0  0  0  0  0  0  0  0  0  0
    2.6401   -3.1891    0.0000 C   0  0  0  0  0  0  0  0  0  0  0  0
    2.9520   -4.6564    0.0000 C   0  0  0  0  0  0  0  0  0  0  0  0
    1.8373   -5.6601    0.0000 Cl  0  0  0  0  0  0  0  0  0  0  0  0
    4.3786   -5.1199    0.0000 C   0  0  0  0  0  0  0  0  0  0  0  0
    5.4933   -4.1162    0.0000 C   0  0  0  0  0  0  0  0  0  0  0  0
    6.9199   -4.5797    0.0000 Cl  0  0  0  0  0  0  0  0  0  0  0  0
    5.1814   -2.6490    0.0000 C   0  0  0  0  0  0  0  0  0  0  0  0
    3.7548   -2.1855    0.0000 C   0  0  0  0  0  0  0  0  0  0  0  0
    3.4430   -0.7182    0.0000 Cl  0  0  0  0  0  0  0  0  0  0  0  0
    0.7500   -1.2990    0.0000 C   0  0  0  0  0  0  0  0  0  0  0  0
    1.5000    0.0000    0.0000 N   0  0  0  0  0  0  0  0  0  0  0  0
    0.7500    1.2990    0.0000 C   0  0  0  0  0  0  0  0  0  0  0  0
    1.5000    2.5981    0.0000 C   0  0  0  0  0  0  0  0  0  0  0  0
    1.5000    4.0981    0.0000 C   0  0  0  0  0  0  0  0  0  0  0  0
    2.7990    3.3481    0.0000 C   0  0  0  0  0  0  0  0  0  0  0  0
   -0.7500    1.2990    0.0000 N   0  0  0  0  0  0  0  0  0  0  0  0
   -1.5000    0.0000    0.0000 C   0  0  0  0  0  0  0  0  0  0  0  0
   -3.0000    0.0000    0.0000 O   0  0  0  0  0  0  0  0  0  0  0  0
   -0.7500   -1.2990    0.0000 C   0  0  0  0  0  0  0  0  0  0  0  0
  1  2  1  0
  2  3  1  0
  3  4  2  0
  4  5  1  0
  5  6  1  0
  6  7  2  0
  7  8  1  0
  7  9  1  0
  9 10  2  0
 10 11  1  0
 10 12  1  0
 12 13  2  0
 13 14  1  0
  5 15  1  0
 15 16  2  0
 16 17  1  0
 17 18  1  0
 18 19  1  0
 19 20  1  0
 17 21  2  0
 21 22  1  0
 22 23  1  0
 22 24  2  0
 24  3  1  0
 13  6  1  0
 24 15  1  0
 20 18  1  0
M  END
>  <Compound_ID>  (328) 
CHEMBL187353

>  <Active>  (328) 
1

>  <Smiles>  (328) 
CSc1nn(-c2c(Cl)cc(Cl)cc2Cl)c2nc(C3CC3)nc(O)c12

>  <canonical_smi>  (328) 
CSc1nn(-c2c(Cl)cc(Cl)cc2Cl)c2nc(C3CC3)nc(O)c12

>  <Set>  (328) 
G2 active

>  <Set_type>  (328) 
Train

>  <MW>  (328) 
401.71

>  <HBD>  (328) 
1

>  <HBA>  (328) 
5

>  <NRB>  (328) 
3

>  <NR>  (328) 
4

>  <NAR>  (328) 
3

>  <PSA>  (328) 
63.83

>  <Standard Type>  (328) 
nan

>  <Standard Relation>  (328) 
nan

>  <Standard Units>  (328) 
nan

>  <Standard Value>  (328) 
nan

>  <Assay ChEMBL ID>  (328) 
nan

>  <Assay Description>  (328) 
nan

>  <BAO Label>  (328) 
nan

$$$$

     RDKit          2D

 25 27  0  0  0  0  0  0  0  0999 V2000
   -3.7527    6.6955    0.0000 C   0  0  0  0  0  0  0  0  0  0  0  0
   -2.6380    5.6918    0.0000 C   0  0  0  0  0  0  0  0  0  0  0  0
   -2.9499    4.2246    0.0000 N   0  0  0  0  0  0  0  0  0  0  0  0
   -4.3764    3.7611    0.0000 C   0  0  0  0  0  0  0  0  0  0  0  0
   -5.4912    4.7648    0.0000 C   0  0  0  0  0  0  0  0  0  0  0  0
   -1.8351    3.2209    0.0000 C   0  0  0  0  0  0  0  0  0  0  0  0
   -0.4086    3.6844    0.0000 C   0  0  0  0  0  0  0  0  0  0  0  0
    0.7062    2.6807    0.0000 C   0  0  0  0  0  0  0  0  0  0  0  0
    2.1328    3.1443    0.0000 N   0  0  0  0  0  0  0  0  0  0  0  0
    2.4446    4.6115    0.0000 C   0  0  0  0  0  0  0  0  0  0  0  0
    3.8712    5.0750    0.0000 C   0  0  0  0  0  0  0  0  0  0  0  0
    4.1831    6.5422    0.0000 C   0  0  0  0  0  0  0  0  0  0  0  0
    3.0684    7.5459    0.0000 C   0  0  0  0  0  0  0  0  0  0  0  0
    3.3802    9.0132    0.0000 S   0  0  0  0  0  0  0  0  0  0  0  0
    3.6921   10.4804    0.0000 N   0  0  0  0  0  0  0  0  0  0  0  0
    4.8474    8.7013    0.0000 O   0  0  0  0  0  0  0  0  0  0  0  0
    1.9130    9.3250    0.0000 O   0  0  0  0  0  0  0  0  0  0  0  0
    1.6418    7.0824    0.0000 C   0  0  0  0  0  0  0  0  0  0  0  0
    1.3299    5.6152    0.0000 C   0  0  0  0  0  0  0  0  0  0  0  0
    0.3943    1.2135    0.0000 N   0  0  0  0  0  0  0  0  0  0  0  0
    1.2760    0.0000    0.0000 N   0  0  0  0  0  0  0  0  0  0  0  0
    0.3943   -1.2135    0.0000 C   0  0  0  0  0  0  0  0  0  0  0  0
   -1.0323   -0.7500    0.0000 N   0  0  0  0  0  0  0  0  0  0  0  0
   -1.0323    0.7500    0.0000 C   0  0  0  0  0  0  0  0  0  0  0  0
   -2.1470    1.7537    0.0000 N   0  0  0  0  0  0  0  0  0  0  0  0
  1  2  1  0
  2  3  1  0
  3  4  1  0
  4  5  1  0
  3  6  1  0
  6  7  1  0
  7  8  2  0
  8  9  1  0
  9 10  1  0
 10 11  2  0
 11 12  1  0
 12 13  2  0
 13 14  1  0
 14 15  1  0
 14 16  2  0
 14 17  2  0
 13 18  1  0
 18 19  2  0
  8 20  1  0
 20 21  1  0
 21 22  2  0
 22 23  1  0
 23 24  2  0
 24 25  1  0
 25  6  2  0
 19 10  1  0
 24 20  1  0
M  END
>  <Compound_ID>  (329) 
CHEMBL203571

>  <Active>  (329) 
1

>  <Smiles>  (329) 
CCN(CC)c1cc(Nc2ccc(S(N)(=O)=O)cc2)n2ncnc2n1

>  <canonical_smi>  (329) 
CCN(CC)c1cc(Nc2ccc(S(N)(=O)=O)cc2)n2ncnc2n1

>  <Set>  (329) 
G2 active

>  <Set_type>  (329) 
Train

>  <MW>  (329) 
361.43

>  <HBD>  (329) 
2

>  <HBA>  (329) 
7

>  <NRB>  (329) 
6

>  <NR>  (329) 
3

>  <NAR>  (329) 
3

>  <PSA>  (329) 
118.51

>  <Standard Type>  (329) 
nan

>  <Standard Relation>  (329) 
nan

>  <Standard Units>  (329) 
nan

>  <Standard Value>  (329) 
nan

>  <Assay ChEMBL ID>  (329) 
nan

>  <Assay Description>  (329) 
nan

>  <BAO Label>  (329) 
nan

$$$$

     RDKit          2D

 41 45  0  0  0  0  0  0  0  0999 V2000
    3.0000    0.0000    0.0000 C   0  0  0  0  0  0  0  0  0  0  0  0
    1.5000    0.0000    0.0000 C   0  0  0  0  0  0  0  0  0  0  0  0
    0.7500   -1.2990    0.0000 C   0  0  0  0  0  0  0  0  0  0  0  0
    1.5000   -2.5981    0.0000 C   0  0  0  0  0  0  0  0  0  0  0  0
    3.0000   -2.5981    0.0000 O   0  0  0  0  0  0  0  0  0  0  0  0
    0.7500   -3.8971    0.0000 N   0  0  0  0  0  0  0  0  0  0  0  0
    1.5000   -5.1962    0.0000 C   0  0  0  0  0  0  0  0  0  0  0  0
    0.7500   -6.4952    0.0000 C   0  0  0  0  0  0  0  0  0  0  0  0
    1.5000   -7.7942    0.0000 C   0  0  0  0  0  0  0  0  0  0  0  0
    3.0000   -7.7942    0.0000 C   0  0  0  0  0  0  0  0  0  0  0  0
    3.7500   -6.4952    0.0000 C   0  0  0  0  0  0  0  0  0  0  0  0
    5.2500   -6.4952    0.0000 N   0  0  0  0  0  4  0  0  0  0  0  0
    6.0000   -5.1962    0.0000 O   0  0  0  0  0  0  0  0  0  0  0  0
    6.0000   -7.7942    0.0000 O   0  0  0  0  0  1  0  0  0  0  0  0
    3.0000   -5.1962    0.0000 C   0  0  0  0  0  0  0  0  0  0  0  0
   -0.7500   -1.2990    0.0000 C   0  0  0  0  0  0  0  0  0  0  0  0
   -1.5000   -2.5981    0.0000 C   0  0  0  0  0  0  0  0  0  0  0  0
   -0.7500   -3.8971    0.0000 C   0  0  0  0  0  0  0  0  0  0  0  0
   -1.5000   -5.1962    0.0000 C   0  0  0  0  0  0  0  0  0  0  0  0
   -3.0000   -5.1962    0.0000 C   0  0  0  0  0  0  0  0  0  0  0  0
   -3.7500   -6.4952    0.0000 O   0  0  0  0  0  0  0  0  0  0  0  0
   -3.7500   -3.8971    0.0000 C   0  0  0  0  0  0  0  0  0  0  0  0
   -3.0000   -2.5981    0.0000 C   0  0  0  0  0  0  0  0  0  0  0  0
   -3.7500   -1.2990    0.0000 O   0  0  0  0  0  0  0  0  0  0  0  0
   -1.5000    0.0000    0.0000 N   0  0  0  0  0  0  0  0  0  0  0  0
   -0.7500    1.2990    0.0000 C   0  0  0  0  0  0  0  0  0  0  0  0
   -1.5000    2.5981    0.0000 N   0  0  0  0  0  0  0  0  0  0  0  0
   -0.7500    3.8971    0.0000 N   0  0  0  0  0  0  0  0  0  0  0  0
   -1.3601    5.2674    0.0000 C   0  0  0  0  0  0  0  0  0  0  0  0
   -2.8273    5.5793    0.0000 O   0  0  0  0  0  0  0  0  0  0  0  0
   -0.2454    6.2711    0.0000 C   0  0  0  0  0  0  0  0  0  0  0  0
   -0.4022    7.7629    0.0000 C   0  0  0  0  0  0  0  0  0  0  0  0
   -1.7725    8.3730    0.0000 C   0  0  0  0  0  0  0  0  0  0  0  0
   -3.0715    7.6230    0.0000 C   0  0  0  0  0  0  0  0  0  0  0  0
   -4.1863    8.6267    0.0000 C   0  0  0  0  0  0  0  0  0  0  0  0
   -3.5761    9.9970    0.0000 C   0  0  0  0  0  0  0  0  0  0  0  0
   -2.0844    9.8402    0.0000 O   0  0  0  0  0  0  0  0  0  0  0  0
    1.0537    5.5211    0.0000 S   0  0  0  0  0  0  0  0  0  0  0  0
    0.7418    4.0539    0.0000 C   0  0  0  0  0  0  0  0  0  0  0  0
    1.7455    2.9392    0.0000 S   0  0  0  0  0  0  0  0  0  0  0  0
    0.7500    1.2990    0.0000 N   0  0  0  0  0  0  0  0  0  0  0  0
  1  2  1  0
  2  3  2  0
  3  4  1  0
  4  5  2  0
  4  6  1  0
  6  7  1  0
  7  8  2  0
  8  9  1  0
  9 10  2  0
 10 11  1  0
 11 12  1  0
 12 13  2  0
 12 14  1  0
 11 15  2  0
  3 16  1  0
 16 17  1  0
 17 18  2  0
 18 19  1  0
 19 20  2  0
 20 21  1  0
 20 22  1  0
 22 23  2  0
 23 24  1  0
 16 25  1  0
 25 26  1  0
 26 27  1  0
 27 28  1  0
 28 29  1  0
 29 30  2  0
 29 31  1  0
 31 32  2  0
 32 33  1  0
 33 34  2  0
 34 35  1  0
 35 36  2  0
 36 37  1  0
 31 38  1  0
 38 39  1  0
 39 40  2  0
 26 41  2  0
 41  2  1  0
 15  7  1  0
 23 17  1  0
 39 28  1  0
 37 33  1  0
M  CHG  2  12   1  14  -1
M  END
>  <Compound_ID>  (330) 
CHEMBL1077107

>  <Active>  (330) 
1

>  <Smiles>  (330) 
CC1=C(C(=O)Nc2cccc([N+](=O)[O-])c2)C(c2ccc(O)cc2O)NC(NN2C(=O)/C(=C\c3ccco3)SC2=S)=N1

>  <canonical_smi>  (330) 
CC1=C(C(=O)Nc2cccc([N+](=O)[O-])c2)C(c2ccc(O)cc2O)NC(NN2C(=O)/C(=C\c3ccco3)SC2=S)=N1

>  <Set>  (330) 
G2 active

>  <Set_type>  (330) 
Train

>  <MW>  (330) 
592.62

>  <HBD>  (330) 
5

>  <HBA>  (330) 
11

>  <NRB>  (330) 
6

>  <NR>  (330) 
5

>  <NAR>  (330) 
3

>  <PSA>  (330) 
182.57

>  <Standard Type>  (330) 
nan

>  <Standard Relation>  (330) 
nan

>  <Standard Units>  (330) 
nan

>  <Standard Value>  (330) 
nan

>  <Assay ChEMBL ID>  (330) 
nan

>  <Assay Description>  (330) 
nan

>  <BAO Label>  (330) 
nan

$$$$

     RDKit          2D

 18 20  0  0  0  0  0  0  0  0999 V2000
    2.7760    0.0000    0.0000 S   0  0  0  0  0  0  0  0  0  0  0  0
    1.2760    0.0000    0.0000 C   0  0  0  0  0  0  0  0  0  0  0  0
    0.3943    1.2135    0.0000 N   0  0  0  0  0  0  0  0  0  0  0  0
   -1.0323    0.7500    0.0000 N   0  0  0  0  0  0  0  0  0  0  0  0
   -2.4589    1.2135    0.0000 C   0  0  0  0  0  0  0  0  0  0  0  0
   -2.9224    2.6401    0.0000 C   0  0  0  0  0  0  0  0  0  0  0  0
   -1.9187    3.7548    0.0000 O   0  0  0  0  0  0  0  0  0  0  0  0
   -2.3822    5.1814    0.0000 C   0  0  0  0  0  0  0  0  0  0  0  0
   -1.3785    6.2961    0.0000 C   0  0  0  0  0  0  0  0  0  0  0  0
   -1.8421    7.7227    0.0000 C   0  0  0  0  0  0  0  0  0  0  0  0
   -3.3093    8.0346    0.0000 C   0  0  0  0  0  0  0  0  0  0  0  0
   -3.7728    9.4612    0.0000 Cl  0  0  0  0  0  0  0  0  0  0  0  0
   -4.3130    6.9199    0.0000 C   0  0  0  0  0  0  0  0  0  0  0  0
   -3.8494    5.4933    0.0000 C   0  0  0  0  0  0  0  0  0  0  0  0
   -3.3405    0.0000    0.0000 N   0  0  0  0  0  0  0  0  0  0  0  0
   -2.4589   -1.2135    0.0000 N   0  0  0  0  0  0  0  0  0  0  0  0
   -1.0323   -0.7500    0.0000 C   0  0  0  0  0  0  0  0  0  0  0  0
    0.3943   -1.2135    0.0000 S   0  0  0  0  0  0  0  0  0  0  0  0
  1  2  1  0
  2  3  2  0
  3  4  1  0
  4  5  1  0
  5  6  1  0
  6  7  1  0
  7  8  1  0
  8  9  2  0
  9 10  1  0
 10 11  2  0
 11 12  1  0
 11 13  1  0
 13 14  2  0
  5 15  2  0
 15 16  1  0
 16 17  2  0
 17 18  1  0
 18  2  1  0
 17  4  1  0
 14  8  1  0
M  END
>  <Compound_ID>  (331) 
CHEMBL555229

>  <Active>  (331) 
1

>  <Smiles>  (331) 
Sc1nn2c(COc3ccc(Cl)cc3)nnc2s1

>  <canonical_smi>  (331) 
Sc1nn2c(COc3ccc(Cl)cc3)nnc2s1

>  <Set>  (331) 
G2 active

>  <Set_type>  (331) 
Train

>  <MW>  (331) 
298.78

>  <HBD>  (331) 
1

>  <HBA>  (331) 
4

>  <NRB>  (331) 
3

>  <NR>  (331) 
3

>  <NAR>  (331) 
3

>  <PSA>  (331) 
52.31

>  <Standard Type>  (331) 
nan

>  <Standard Relation>  (331) 
nan

>  <Standard Units>  (331) 
nan

>  <Standard Value>  (331) 
nan

>  <Assay ChEMBL ID>  (331) 
nan

>  <Assay Description>  (331) 
nan

>  <BAO Label>  (331) 
nan

$$$$

     RDKit          2D

 31 35  0  0  0  0  0  0  0  0999 V2000
    4.0819   -1.9062    0.0000 C   0  0  0  0  0  0  0  0  0  0  0  0
    2.9672   -2.9099    0.0000 N   0  0  0  0  0  0  0  0  0  0  0  0
    3.1240   -4.4017    0.0000 N   0  0  0  0  0  0  0  0  0  0  0  0
    1.7537   -5.0118    0.0000 C   0  0  0  0  0  0  0  0  0  0  0  0
    1.4418   -6.4791    0.0000 C   0  0  0  0  0  0  0  0  0  0  0  0
    2.5565   -7.4827    0.0000 N   0  0  0  0  0  0  0  0  0  0  0  0
    0.0152   -6.9426    0.0000 O   0  0  0  0  0  0  0  0  0  0  0  0
    0.7500   -3.8971    0.0000 C   0  0  0  0  0  0  0  0  0  0  0  0
    1.5000   -2.5981    0.0000 C   0  0  0  0  0  0  0  0  0  0  0  0
    0.7500   -1.2990    0.0000 C   0  0  0  0  0  0  0  0  0  0  0  0
    1.5000    0.0000    0.0000 N   0  0  0  0  0  0  0  0  0  0  0  0
    0.7500    1.2990    0.0000 C   0  0  0  0  0  0  0  0  0  0  0  0
    1.5000    2.5981    0.0000 N   0  0  0  0  0  0  0  0  0  0  0  0
    3.0000    2.5981    0.0000 C   0  0  0  0  0  0  0  0  0  0  0  0
    3.7500    1.2990    0.0000 C   0  0  0  0  0  0  0  0  0  0  0  0
    5.2500    1.2990    0.0000 C   0  0  0  0  0  0  0  0  0  0  0  0
    6.0000    2.5981    0.0000 C   0  0  0  0  0  0  0  0  0  0  0  0
    5.2500    3.8971    0.0000 C   0  0  0  0  0  0  0  0  0  0  0  0
    3.7500    3.8971    0.0000 C   0  0  0  0  0  0  0  0  0  0  0  0
    3.0000    5.1962    0.0000 N   0  0  0  0  0  0  0  0  0  0  0  0
    3.7500    6.4952    0.0000 C   0  0  0  0  0  0  0  0  0  0  0  0
    5.2500    6.4952    0.0000 C   0  0  0  0  0  0  0  0  0  0  0  0
    6.0000    7.7942    0.0000 C   0  0  0  0  0  0  0  0  0  0  0  0
    5.2500    9.0933    0.0000 C   0  0  0  0  0  0  0  0  0  0  0  0
    3.7500    9.0933    0.0000 C   0  0  0  0  0  0  0  0  0  0  0  0
    3.0000    7.7942    0.0000 C   0  0  0  0  0  0  0  0  0  0  0  0
   -0.7500    1.2990    0.0000 N   0  0  0  0  0  0  0  0  0  0  0  0
   -1.5000    0.0000    0.0000 C   0  0  0  0  0  0  0  0  0  0  0  0
   -0.7500   -1.2990    0.0000 C   0  0  0  0  0  0  0  0  0  0  0  0
   -1.5000   -2.5981    0.0000 C   0  0  0  0  0  0  0  0  0  0  0  0
   -0.7500   -3.8971    0.0000 C   0  0  0  0  0  0  0  0  0  0  0  0
  1  2  1  0
  2  3  1  0
  3  4  2  0
  4  5  1  0
  5  6  1  0
  5  7  2  0
  4  8  1  0
  8  9  2  0
  9 10  1  0
 10 11  2  0
 11 12  1  0
 12 13  1  0
 13 14  1  0
 14 15  2  0
 15 16  1  0
 16 17  2  0
 17 18  1  0
 18 19  2  0
 19 20  1  0
 20 21  1  0
 21 22  2  0
 22 23  1  0
 23 24  2  0
 24 25  1  0
 25 26  2  0
 12 27  2  0
 27 28  1  0
 28 29  2  0
 29 30  1  0
 30 31  1  0
  9  2  1  0
 29 10  1  0
 31  8  1  0
 19 14  1  0
 26 21  1  0
M  END
>  <Compound_ID>  (332) 
CHEMBL1094820

>  <Active>  (332) 
1

>  <Smiles>  (332) 
Cn1nc(C(N)=O)c2c1-c1nc(Nc3ccccc3Nc3ccccc3)ncc1CC2

>  <canonical_smi>  (332) 
Cn1nc(C(N)=O)c2c1-c1nc(Nc3ccccc3Nc3ccccc3)ncc1CC2

>  <Set>  (332) 
G2 active

>  <Set_type>  (332) 
Train

>  <MW>  (332) 
411.47

>  <HBD>  (332) 
3

>  <HBA>  (332) 
6

>  <NRB>  (332) 
5

>  <NR>  (332) 
5

>  <NAR>  (332) 
4

>  <PSA>  (332) 
110.75

>  <Standard Type>  (332) 
nan

>  <Standard Relation>  (332) 
nan

>  <Standard Units>  (332) 
nan

>  <Standard Value>  (332) 
nan

>  <Assay ChEMBL ID>  (332) 
nan

>  <Assay Description>  (332) 
nan

>  <BAO Label>  (332) 
nan

$$$$

     RDKit          2D

 36 42  0  0  0  0  0  0  0  0999 V2000
   -8.7604   -0.0649    0.0000 C   0  0  0  0  0  0  0  0  0  0  0  0
   -8.4485   -1.5321    0.0000 N   0  0  0  0  0  0  0  0  0  0  0  0
   -9.4522   -2.6468    0.0000 C   0  0  0  0  0  0  0  0  0  0  0  0
   -8.7022   -3.9458    0.0000 C   0  0  0  0  0  0  0  0  0  0  0  0
   -7.2350   -3.6340    0.0000 C   0  0  0  0  0  0  0  0  0  0  0  0
   -6.0214   -4.5156    0.0000 C   0  0  0  0  0  0  0  0  0  0  0  0
   -4.6511   -3.9055    0.0000 C   0  0  0  0  0  0  0  0  0  0  0  0
   -4.4943   -2.4138    0.0000 C   0  0  0  0  0  0  0  0  0  0  0  0
   -3.1240   -1.8037    0.0000 C   0  0  0  0  0  0  0  0  0  0  0  0
   -1.7537   -2.4138    0.0000 N   0  0  0  0  0  0  0  0  0  0  0  0
   -0.7500   -1.2990    0.0000 C   0  0  0  0  0  0  0  0  0  0  0  0
    0.7500   -1.2990    0.0000 C   0  0  0  0  0  0  0  0  0  0  0  0
    1.5000   -2.5981    0.0000 C   0  0  0  0  0  0  0  0  0  0  0  0
    3.0000   -2.5981    0.0000 C   0  0  0  0  0  0  0  0  0  0  0  0
    3.7500   -3.8971    0.0000 N   0  0  0  0  0  0  0  0  0  0  0  0
    5.2500   -3.8971    0.0000 C   0  0  0  0  0  0  0  0  0  0  0  0
    6.0000   -5.1962    0.0000 C   0  0  0  0  0  0  0  0  0  0  0  0
    7.5000   -5.1962    0.0000 C   0  0  0  0  0  0  0  0  0  0  0  0
    8.2500   -3.8971    0.0000 C   0  0  0  0  0  0  0  0  0  0  0  0
    9.7500   -3.8971    0.0000 O   0  0  0  0  0  0  0  0  0  0  0  0
    7.5000   -2.5981    0.0000 C   0  0  0  0  0  0  0  0  0  0  0  0
    6.0000   -2.5981    0.0000 C   0  0  0  0  0  0  0  0  0  0  0  0
    1.5000    0.0000    0.0000 C   0  0  0  0  0  0  0  0  0  0  0  0
    0.7500    1.2990    0.0000 C   0  0  0  0  0  0  0  0  0  0  0  0
   -0.7500    1.2990    0.0000 C   0  0  0  0  0  0  0  0  0  0  0  0
   -1.5000    0.0000    0.0000 C   0  0  0  0  0  0  0  0  0  0  0  0
   -2.9672   -0.3119    0.0000 C   0  0  0  0  0  0  0  0  0  0  0  0
   -4.1807    0.5698    0.0000 C   0  0  0  0  0  0  0  0  0  0  0  0
   -5.5511   -0.0403    0.0000 C   0  0  0  0  0  0  0  0  0  0  0  0
   -5.7079   -1.5321    0.0000 C   0  0  0  0  0  0  0  0  0  0  0  0
   -7.0782   -2.1422    0.0000 C   0  0  0  0  0  0  0  0  0  0  0  0
   -6.5548    1.0744    0.0000 C   0  0  0  0  0  0  0  0  0  0  0  0
   -8.0465    0.9176    0.0000 O   0  0  0  0  0  0  0  0  0  0  0  0
   -5.8048    2.3735    0.0000 N   0  0  0  0  0  0  0  0  0  0  0  0
   -4.3375    2.0616    0.0000 C   0  0  0  0  0  0  0  0  0  0  0  0
   -3.2228    3.0653    0.0000 O   0  0  0  0  0  0  0  0  0  0  0  0
  1  2  1  0
  2  3  1  0
  3  4  2  0
  4  5  1  0
  5  6  2  0
  6  7  1  0
  7  8  2  0
  8  9  1  0
  9 10  1  0
 10 11  1  0
 11 12  2  0
 12 13  1  0
 13 14  1  0
 14 15  1  0
 15 16  1  0
 16 17  1  0
 17 18  1  0
 18 19  1  0
 19 20  1  0
 19 21  1  0
 21 22  1  0
 12 23  1  0
 23 24  2  0
 24 25  1  0
 25 26  2  0
 26 27  1  0
 27 28  1  0
 28 29  2  0
 29 30  1  0
 30 31  2  0
 29 32  1  0
 32 33  2  0
 32 34  1  0
 34 35  1  0
 35 36  2  0
 31  2  1  0
 31  5  1  0
 30  8  1  0
 27  9  2  0
 35 28  1  0
 26 11  1  0
 22 16  1  0
M  END
>  <Compound_ID>  (333) 
CHEMBL73764

>  <Active>  (333) 
1

>  <Smiles>  (333) 
Cn1ccc2ccc3c4[nH]c5c(CCNC6CCC(O)CC6)cccc5c4c4c(c3c21)C(=O)NC4=O

>  <canonical_smi>  (333) 
Cn1ccc2ccc3c4[nH]c5c(CCNC6CCC(O)CC6)cccc5c4c4c(c3c21)C(=O)NC4=O

>  <Set>  (333) 
G2 active

>  <Set_type>  (333) 
Train

>  <MW>  (333) 
480.57

>  <HBD>  (333) 
4

>  <HBA>  (333) 
4

>  <NRB>  (333) 
4

>  <NR>  (333) 
7

>  <NAR>  (333) 
5

>  <PSA>  (333) 
99.15

>  <Standard Type>  (333) 
nan

>  <Standard Relation>  (333) 
nan

>  <Standard Units>  (333) 
nan

>  <Standard Value>  (333) 
nan

>  <Assay ChEMBL ID>  (333) 
nan

>  <Assay Description>  (333) 
nan

>  <BAO Label>  (333) 
nan

$$$$

     RDKit          2D

 23 26  0  0  0  0  0  0  0  0999 V2000
    3.7500   -1.2990    0.0000 O   0  0  0  0  0  0  0  0  0  0  0  0
    3.0000   -2.5981    0.0000 C   0  0  0  0  0  0  0  0  0  0  0  0
    1.5000   -2.5981    0.0000 N   0  0  0  0  0  0  0  0  0  0  0  0
    0.7500   -1.2990    0.0000 C   0  0  0  0  0  0  0  0  0  0  0  0
    1.5000    0.0000    0.0000 N   0  0  0  0  0  0  0  0  0  0  0  0
    0.7500    1.2990    0.0000 C   0  0  0  0  0  0  0  0  0  0  0  0
   -0.7500    1.2990    0.0000 N   0  0  0  0  0  0  0  0  0  0  0  0
   -1.5000    0.0000    0.0000 C   0  0  0  0  0  0  0  0  0  0  0  0
   -2.9672   -0.3119    0.0000 O   0  0  0  0  0  0  0  0  0  0  0  0
   -3.1240   -1.8037    0.0000 C   0  0  0  0  0  0  0  0  0  0  0  0
   -4.4231   -2.5537    0.0000 C   0  0  0  0  0  0  0  0  0  0  0  0
   -5.7221   -1.8037    0.0000 C   0  0  0  0  0  0  0  0  0  0  0  0
   -7.0211   -2.5537    0.0000 C   0  0  0  0  0  0  0  0  0  0  0  0
   -7.0211   -4.0537    0.0000 C   0  0  0  0  0  0  0  0  0  0  0  0
   -5.7221   -4.8037    0.0000 N   0  0  0  0  0  0  0  0  0  0  0  0
   -4.4231   -4.0537    0.0000 C   0  0  0  0  0  0  0  0  0  0  0  0
   -1.7537   -2.4138    0.0000 C   0  0  0  0  0  0  0  0  0  0  0  0
   -0.7500   -1.2990    0.0000 C   0  0  0  0  0  0  0  0  0  0  0  0
    3.7500   -3.8971    0.0000 C   0  0  0  0  0  0  0  0  0  0  0  0
    5.2418   -4.0539    0.0000 C   0  0  0  0  0  0  0  0  0  0  0  0
    5.5537   -5.5211    0.0000 C   0  0  0  0  0  0  0  0  0  0  0  0
    4.2546   -6.2711    0.0000 C   0  0  0  0  0  0  0  0  0  0  0  0
    3.1399   -5.2674    0.0000 C   0  0  0  0  0  0  0  0  0  0  0  0
  1  2  2  0
  2  3  1  0
  3  4  1  0
  4  5  2  0
  5  6  1  0
  6  7  2  0
  7  8  1  0
  8  9  1  0
  9 10  1  0
 10 11  1  0
 11 12  2  0
 12 13  1  0
 13 14  2  0
 14 15  1  0
 15 16  2  0
 10 17  2  0
 17 18  1  0
  2 19  1  0
 19 20  1  0
 20 21  1  0
 21 22  1  0
 22 23  1  0
 18  4  1  0
 23 19  1  0
 18  8  2  0
 16 11  1  0
M  END
>  <Compound_ID>  (334) 
CHEMBL182419

>  <Active>  (334) 
1

>  <Smiles>  (334) 
O=C(Nc1ncnc2oc(-c3cccnc3)cc12)C1CCCC1

>  <canonical_smi>  (334) 
O=C(Nc1ncnc2oc(-c3cccnc3)cc12)C1CCCC1

>  <Set>  (334) 
G2 active

>  <Set_type>  (334) 
Train

>  <MW>  (334) 
308.34

>  <HBD>  (334) 
1

>  <HBA>  (334) 
5

>  <NRB>  (334) 
3

>  <NR>  (334) 
4

>  <NAR>  (334) 
3

>  <PSA>  (334) 
80.91

>  <Standard Type>  (334) 
nan

>  <Standard Relation>  (334) 
nan

>  <Standard Units>  (334) 
nan

>  <Standard Value>  (334) 
nan

>  <Assay ChEMBL ID>  (334) 
nan

>  <Assay Description>  (334) 
nan

>  <BAO Label>  (334) 
nan

$$$$

     RDKit          2D

 36 40  0  0  0  0  0  0  0  0999 V2000
   -0.1452    8.5486    0.0000 C   0  0  0  0  0  0  0  0  0  0  0  0
   -1.5718    8.0851    0.0000 N   0  0  0  0  0  0  0  0  0  0  0  0
   -2.6865    9.0888    0.0000 C   0  0  0  0  0  0  0  0  0  0  0  0
   -1.8836    6.6179    0.0000 C   0  0  0  0  0  0  0  0  0  0  0  0
   -3.3102    6.1544    0.0000 C   0  0  0  0  0  0  0  0  0  0  0  0
   -4.4249    7.1580    0.0000 O   0  0  0  0  0  0  0  0  0  0  0  0
   -3.6221    4.6871    0.0000 C   0  0  0  0  0  0  0  0  0  0  0  0
   -5.0487    4.2236    0.0000 O   0  0  0  0  0  0  0  0  0  0  0  0
   -5.3605    2.7564    0.0000 C   0  0  0  0  0  0  0  0  0  0  0  0
   -4.2458    1.7527    0.0000 C   0  0  0  0  0  0  0  0  0  0  0  0
   -4.5577    0.2855    0.0000 C   0  0  0  0  0  0  0  0  0  0  0  0
   -5.9843   -0.1781    0.0000 C   0  0  0  0  0  0  0  0  0  0  0  0
   -6.2961   -1.6453    0.0000 N   0  0  0  0  0  0  0  0  0  0  0  0
   -5.1814   -2.6490    0.0000 C   0  0  0  0  0  0  0  0  0  0  0  0
   -5.4933   -4.1162    0.0000 N   0  0  0  0  0  0  0  0  0  0  0  0
   -4.3786   -5.1199    0.0000 C   0  0  0  0  0  0  0  0  0  0  0  0
   -2.9520   -4.6564    0.0000 C   0  0  0  0  0  0  0  0  0  0  0  0
   -2.6401   -3.1891    0.0000 C   0  0  0  0  0  0  0  0  0  0  0  0
   -1.2135   -2.7256    0.0000 C   0  0  0  0  0  0  0  0  0  0  0  0
   -0.0000   -3.6073    0.0000 C   0  0  0  0  0  0  0  0  0  0  0  0
    1.2135   -2.7256    0.0000 N   0  0  0  0  0  0  0  0  0  0  0  0
    0.7500   -1.2990    0.0000 N   0  0  0  0  0  0  0  0  0  0  0  0
    1.5000    0.0000    0.0000 N   0  0  0  0  0  0  0  0  0  0  0  0
    0.7500    1.2990    0.0000 C   0  0  0  0  0  0  0  0  0  0  0  0
    1.5000    2.5981    0.0000 N   0  0  0  0  0  0  0  0  0  0  0  0
    3.0000    2.5981    0.0000 C   0  0  0  0  0  0  0  0  0  0  0  0
    3.7500    3.8971    0.0000 C   0  0  0  0  0  0  0  0  0  0  0  0
    3.0000    5.1962    0.0000 O   0  0  0  0  0  0  0  0  0  0  0  0
    1.5000    5.1962    0.0000 C   0  0  0  0  0  0  0  0  0  0  0  0
    0.7500    3.8971    0.0000 C   0  0  0  0  0  0  0  0  0  0  0  0
   -0.7500    1.2990    0.0000 C   0  0  0  0  0  0  0  0  0  0  0  0
   -1.5000    0.0000    0.0000 C   0  0  0  0  0  0  0  0  0  0  0  0
   -0.7500   -1.2990    0.0000 C   0  0  0  0  0  0  0  0  0  0  0  0
   -3.7548   -2.1855    0.0000 N   0  0  0  0  0  0  0  0  0  0  0  0
   -7.0990    0.8256    0.0000 C   0  0  0  0  0  0  0  0  0  0  0  0
   -6.7871    2.2929    0.0000 C   0  0  0  0  0  0  0  0  0  0  0  0
  1  2  1  0
  2  3  1  0
  2  4  1  0
  4  5  1  0
  5  6  1  0
  5  7  1  0
  7  8  1  0
  8  9  1  0
  9 10  2  0
 10 11  1  0
 11 12  2  0
 12 13  1  0
 13 14  1  0
 14 15  2  0
 15 16  1  0
 16 17  2  0
 17 18  1  0
 18 19  1  0
 19 20  1  0
 20 21  2  0
 21 22  1  0
 22 23  1  0
 23 24  2  0
 24 25  1  0
 25 26  1  0
 26 27  1  0
 27 28  1  0
 28 29  1  0
 29 30  1  0
 24 31  1  0
 31 32  2  0
 32 33  1  0
 18 34  2  0
 12 35  1  0
 35 36  2  0
 36  9  1  0
 34 14  1  0
 33 19  2  0
 33 22  1  0
 30 25  1  0
M  END
>  <Compound_ID>  (335) 
CHEMBL521871

>  <Active>  (335) 
1

>  <Smiles>  (335) 
CN(C)CC(O)COc1ccc(Nc2nccc(-c3cnn4nc(N5CCOCC5)ccc34)n2)cc1

>  <canonical_smi>  (335) 
CN(C)CC(O)COc1ccc(Nc2nccc(-c3cnn4nc(N5CCOCC5)ccc34)n2)cc1

>  <Set>  (335) 
G2 active

>  <Set_type>  (335) 
Train

>  <MW>  (335) 
490.57

>  <HBD>  (335) 
2

>  <HBA>  (335) 
10

>  <NRB>  (335) 
9

>  <NR>  (335) 
5

>  <NAR>  (335) 
4

>  <PSA>  (335) 
113.17

>  <Standard Type>  (335) 
nan

>  <Standard Relation>  (335) 
nan

>  <Standard Units>  (335) 
nan

>  <Standard Value>  (335) 
nan

>  <Assay ChEMBL ID>  (335) 
nan

>  <Assay Description>  (335) 
nan

>  <BAO Label>  (335) 
nan

$$$$

     RDKit          2D

 35 39  0  0  0  0  0  0  0  0999 V2000
    4.7960    2.1491    0.0000 C   0  0  0  0  0  0  0  0  0  0  0  0
    3.3287    1.8373    0.0000 O   0  0  0  0  0  0  0  0  0  0  0  0
    2.3250    2.9520    0.0000 C   0  0  0  0  0  0  0  0  0  0  0  0
    0.8578    2.6401    0.0000 C   0  0  0  0  0  0  0  0  0  0  0  0
   -0.1459    3.7548    0.0000 O   0  0  0  0  0  0  0  0  0  0  0  0
    0.3943    1.2135    0.0000 N   0  0  0  0  0  0  0  0  0  0  0  0
    1.2760    0.0000    0.0000 C   0  0  0  0  0  0  0  0  0  0  0  0
    0.3943   -1.2135    0.0000 C   0  0  0  0  0  0  0  0  0  0  0  0
    0.3943   -2.7135    0.0000 N   0  0  0  0  0  0  0  0  0  0  0  0
   -1.0323   -3.1771    0.0000 N   0  0  0  0  0  0  0  0  0  0  0  0
   -1.9140   -1.9635    0.0000 C   0  0  0  0  0  0  0  0  0  0  0  0
   -3.4140   -1.9635    0.0000 N   0  0  0  0  0  0  0  0  0  0  0  0
   -4.1640   -0.6645    0.0000 C   0  0  0  0  0  0  0  0  0  0  0  0
   -3.4140    0.6346    0.0000 O   0  0  0  0  0  0  0  0  0  0  0  0
   -5.6640   -0.6645    0.0000 C   0  0  0  0  0  0  0  0  0  0  0  0
   -6.4140    0.6346    0.0000 C   0  0  0  0  0  0  0  0  0  0  0  0
   -7.9140    0.6346    0.0000 C   0  0  0  0  0  0  0  0  0  0  0  0
   -8.6640   -0.6645    0.0000 C   0  0  0  0  0  0  0  0  0  0  0  0
  -10.1640   -0.6645    0.0000 N   0  0  0  0  0  0  0  0  0  0  0  0
  -10.9140    0.6346    0.0000 C   0  0  0  0  0  0  0  0  0  0  0  0
  -12.4140    0.6346    0.0000 C   0  0  0  0  0  0  0  0  0  0  0  0
  -13.1640   -0.6645    0.0000 N   0  0  0  0  0  0  0  0  0  0  0  0
  -14.6640   -0.6645    0.0000 C   0  0  0  0  0  0  0  0  0  0  0  0
  -12.4140   -1.9635    0.0000 C   0  0  0  0  0  0  0  0  0  0  0  0
  -10.9140   -1.9635    0.0000 C   0  0  0  0  0  0  0  0  0  0  0  0
   -7.9140   -1.9635    0.0000 C   0  0  0  0  0  0  0  0  0  0  0  0
   -6.4140   -1.9635    0.0000 C   0  0  0  0  0  0  0  0  0  0  0  0
   -1.0323   -0.7500    0.0000 C   0  0  0  0  0  0  0  0  0  0  0  0
   -1.0323    0.7500    0.0000 C   0  0  0  0  0  0  0  0  0  0  0  0
    2.7886    4.3786    0.0000 C   0  0  0  0  0  0  0  0  0  0  0  0
    4.2558    4.6904    0.0000 C   0  0  0  0  0  0  0  0  0  0  0  0
    4.7193    6.1170    0.0000 C   0  0  0  0  0  0  0  0  0  0  0  0
    3.7156    7.2317    0.0000 C   0  0  0  0  0  0  0  0  0  0  0  0
    2.2484    6.9199    0.0000 C   0  0  0  0  0  0  0  0  0  0  0  0
    1.7849    5.4933    0.0000 C   0  0  0  0  0  0  0  0  0  0  0  0
  1  2  1  0
  3  2  1  1
  3  4  1  0
  4  5  2  0
  4  6  1  0
  6  7  1  0
  7  8  1  0
  8  9  1  0
  9 10  1  0
 10 11  2  0
 11 12  1  0
 12 13  1  0
 13 14  2  0
 13 15  1  0
 15 16  2  0
 16 17  1  0
 17 18  2  0
 18 19  1  0
 19 20  1  0
 20 21  1  0
 21 22  1  0
 22 23  1  0
 22 24  1  0
 24 25  1  0
 18 26  1  0
 26 27  2  0
 11 28  1  0
 28 29  1  0
  3 30  1  0
 30 31  2  0
 31 32  1  0
 32 33  2  0
 33 34  1  0
 34 35  2  0
 29  6  1  0
 35 30  1  0
 28  8  2  0
 27 15  1  0
 25 19  1  0
M  END
>  <Compound_ID>  (336) 
CHEMBL402548

>  <Active>  (336) 
1

>  <Smiles>  (336) 
CO[C@@H](C(=O)N1Cc2[nH]nc(NC(=O)c3ccc(N4CCN(C)CC4)cc3)c2C1)c1ccccc1

>  <canonical_smi>  (336) 
CO[C@@H](C(=O)N1Cc2[nH]nc(NC(=O)c3ccc(N4CCN(C)CC4)cc3)c2C1)c1ccccc1

>  <Set>  (336) 
G2 active

>  <Set_type>  (336) 
Train

>  <MW>  (336) 
474.57

>  <HBD>  (336) 
2

>  <HBA>  (336) 
6

>  <NRB>  (336) 
6

>  <NR>  (336) 
5

>  <NAR>  (336) 
3

>  <PSA>  (336) 
93.8

>  <Standard Type>  (336) 
nan

>  <Standard Relation>  (336) 
nan

>  <Standard Units>  (336) 
nan

>  <Standard Value>  (336) 
nan

>  <Assay ChEMBL ID>  (336) 
nan

>  <Assay Description>  (336) 
nan

>  <BAO Label>  (336) 
nan

$$$$

     RDKit          2D

 20 23  0  0  0  0  0  0  0  0999 V2000
   -1.8373   -5.6601    0.0000 O   0  0  0  0  0  0  0  0  0  0  0  0
   -2.9520   -4.6564    0.0000 C   0  0  0  0  0  0  0  0  0  0  0  0
   -2.6401   -3.1891    0.0000 N   0  0  0  0  0  0  0  0  0  0  0  0
   -1.2135   -2.7256    0.0000 C   0  0  0  0  0  0  0  0  0  0  0  0
   -0.0000   -3.6073    0.0000 N   0  0  0  0  0  0  0  0  0  0  0  0
    1.2135   -2.7256    0.0000 N   0  0  0  0  0  0  0  0  0  0  0  0
    0.7500   -1.2990    0.0000 C   0  0  0  0  0  0  0  0  0  0  0  0
    1.5000    0.0000    0.0000 C   0  0  0  0  0  0  0  0  0  0  0  0
    0.7500    1.2990    0.0000 C   0  0  0  0  0  0  0  0  0  0  0  0
    1.5000    2.5981    0.0000 C   0  0  0  0  0  0  0  0  0  0  0  0
    0.8899    3.9684    0.0000 C   0  0  0  0  0  0  0  0  0  0  0  0
    2.0046    4.9721    0.0000 C   0  0  0  0  0  0  0  0  0  0  0  0
    3.3037    4.2221    0.0000 S   0  0  0  0  0  0  0  0  0  0  0  0
    2.9918    2.7549    0.0000 C   0  0  0  0  0  0  0  0  0  0  0  0
   -0.7500    1.2990    0.0000 C   0  0  0  0  0  0  0  0  0  0  0  0
   -1.5000    0.0000    0.0000 C   0  0  0  0  0  0  0  0  0  0  0  0
   -0.7500   -1.2990    0.0000 C   0  0  0  0  0  0  0  0  0  0  0  0
   -4.3786   -5.1199    0.0000 C   0  0  0  0  0  0  0  0  0  0  0  0
   -5.3823   -6.2346    0.0000 C   0  0  0  0  0  0  0  0  0  0  0  0
   -5.8458   -4.8080    0.0000 C   0  0  0  0  0  0  0  0  0  0  0  0
  1  2  2  0
  2  3  1  0
  3  4  1  0
  4  5  2  0
  5  6  1  0
  6  7  1  0
  7  8  2  0
  8  9  1  0
  9 10  1  0
 10 11  1  0
 11 12  2  0
 12 13  1  0
 13 14  1  0
  9 15  2  0
 15 16  1  0
 16 17  2  0
  2 18  1  0
 18 19  1  0
 19 20  1  0
 17  4  1  0
 20 18  1  0
 17  7  1  0
 14 10  2  0
M  END
>  <Compound_ID>  (337) 
CHEMBL260928

>  <Active>  (337) 
1

>  <Smiles>  (337) 
O=C(Nc1n[nH]c2cc(-c3ccsc3)ccc12)C1CC1

>  <canonical_smi>  (337) 
O=C(Nc1n[nH]c2cc(-c3ccsc3)ccc12)C1CC1

>  <Set>  (337) 
G2 active

>  <Set_type>  (337) 
Train

>  <MW>  (337) 
283.36

>  <HBD>  (337) 
2

>  <HBA>  (337) 
2

>  <NRB>  (337) 
3

>  <NR>  (337) 
4

>  <NAR>  (337) 
3

>  <PSA>  (337) 
57.78

>  <Standard Type>  (337) 
nan

>  <Standard Relation>  (337) 
nan

>  <Standard Units>  (337) 
nan

>  <Standard Value>  (337) 
nan

>  <Assay ChEMBL ID>  (337) 
nan

>  <Assay Description>  (337) 
nan

>  <BAO Label>  (337) 
nan

$$$$

     RDKit          2D

 28 31  0  0  0  0  0  0  0  0999 V2000
    4.5000    0.0000    0.0000 N   0  0  0  0  0  0  0  0  0  0  0  0
    3.0000    0.0000    0.0000 S   0  0  0  0  0  0  0  0  0  0  0  0
    3.0000   -1.5000    0.0000 O   0  0  0  0  0  0  0  0  0  0  0  0
    3.0000    1.5000    0.0000 O   0  0  0  0  0  0  0  0  0  0  0  0
    1.5000    0.0000    0.0000 C   0  0  0  0  0  0  0  0  0  0  0  0
    0.7500   -1.2990    0.0000 C   0  0  0  0  0  0  0  0  0  0  0  0
   -0.7500   -1.2990    0.0000 C   0  0  0  0  0  0  0  0  0  0  0  0
   -1.5000    0.0000    0.0000 C   0  0  0  0  0  0  0  0  0  0  0  0
   -3.0000    0.0000    0.0000 N   0  0  0  0  0  0  0  0  0  0  0  0
   -3.7500    1.2990    0.0000 C   0  0  0  0  0  0  0  0  0  0  0  0
   -5.2418    1.4558    0.0000 C   0  0  0  0  0  0  0  0  0  0  0  0
   -5.5537    2.9231    0.0000 C   0  0  0  0  0  0  0  0  0  0  0  0
   -6.9240    3.5332    0.0000 C   0  0  0  0  0  0  0  0  0  0  0  0
   -7.0808    5.0249    0.0000 C   0  0  0  0  0  0  0  0  0  0  0  0
   -8.4511    5.6350    0.0000 C   0  0  0  0  0  0  0  0  0  0  0  0
   -9.6646    4.7534    0.0000 C   0  0  0  0  0  0  0  0  0  0  0  0
   -9.5078    3.2616    0.0000 C   0  0  0  0  0  0  0  0  0  0  0  0
  -10.7213    2.3799    0.0000 N   0  0  0  0  0  0  0  0  0  0  0  0
  -12.0917    2.9900    0.0000 C   0  0  0  0  0  0  0  0  0  0  0  0
  -13.3052    2.1083    0.0000 C   0  0  0  0  0  0  0  0  0  0  0  0
  -13.1484    0.6166    0.0000 O   0  0  0  0  0  0  0  0  0  0  0  0
  -11.7781    0.0064    0.0000 C   0  0  0  0  0  0  0  0  0  0  0  0
  -10.5645    0.8881    0.0000 C   0  0  0  0  0  0  0  0  0  0  0  0
   -8.1375    2.6515    0.0000 C   0  0  0  0  0  0  0  0  0  0  0  0
   -4.2546    3.6731    0.0000 N   0  0  0  0  0  0  0  0  0  0  0  0
   -3.1399    2.6694    0.0000 N   0  0  0  0  0  0  0  0  0  0  0  0
   -0.7500    1.2990    0.0000 C   0  0  0  0  0  0  0  0  0  0  0  0
    0.7500    1.2990    0.0000 C   0  0  0  0  0  0  0  0  0  0  0  0
  1  2  1  0
  2  3  2  0
  2  4  2  0
  2  5  1  0
  5  6  2  0
  6  7  1  0
  7  8  2  0
  8  9  1  0
  9 10  1  0
 10 11  1  0
 11 12  2  0
 12 13  1  0
 13 14  2  0
 14 15  1  0
 15 16  2  0
 16 17  1  0
 17 18  1  0
 18 19  1  0
 19 20  1  0
 20 21  1  0
 21 22  1  0
 22 23  1  0
 17 24  2  0
 12 25  1  0
 25 26  1  0
  8 27  1  0
 27 28  2  0
 28  5  1  0
 26 10  2  0
 24 13  1  0
 23 18  1  0
M  END
>  <Compound_ID>  (338) 
CHEMBL103039

>  <Active>  (338) 
1

>  <Smiles>  (338) 
NS(=O)(=O)c1ccc(Nc2cc(-c3cccc(N4CCOCC4)c3)[nH]n2)cc1

>  <canonical_smi>  (338) 
NS(=O)(=O)c1ccc(Nc2cc(-c3cccc(N4CCOCC4)c3)[nH]n2)cc1

>  <Set>  (338) 
G2 active

>  <Set_type>  (338) 
Train

>  <MW>  (338) 
399.48

>  <HBD>  (338) 
3

>  <HBA>  (338) 
6

>  <NRB>  (338) 
5

>  <NR>  (338) 
4

>  <NAR>  (338) 
3

>  <PSA>  (338) 
113.34

>  <Standard Type>  (338) 
nan

>  <Standard Relation>  (338) 
nan

>  <Standard Units>  (338) 
nan

>  <Standard Value>  (338) 
nan

>  <Assay ChEMBL ID>  (338) 
nan

>  <Assay Description>  (338) 
nan

>  <BAO Label>  (338) 
nan

$$$$

     RDKit          2D

 20 23  0  0  0  0  0  0  0  0999 V2000
   -1.8373   -5.6601    0.0000 O   0  0  0  0  0  0  0  0  0  0  0  0
   -2.9520   -4.6564    0.0000 C   0  0  0  0  0  0  0  0  0  0  0  0
   -2.6401   -3.1891    0.0000 N   0  0  0  0  0  0  0  0  0  0  0  0
   -1.2135   -2.7256    0.0000 C   0  0  0  0  0  0  0  0  0  0  0  0
   -0.0000   -3.6073    0.0000 N   0  0  0  0  0  0  0  0  0  0  0  0
    1.2135   -2.7256    0.0000 N   0  0  0  0  0  0  0  0  0  0  0  0
    0.7500   -1.2990    0.0000 C   0  0  0  0  0  0  0  0  0  0  0  0
    1.5000    0.0000    0.0000 C   0  0  0  0  0  0  0  0  0  0  0  0
    0.7500    1.2990    0.0000 C   0  0  0  0  0  0  0  0  0  0  0  0
    1.5000    2.5981    0.0000 C   0  0  0  0  0  0  0  0  0  0  0  0
    0.8899    3.9684    0.0000 C   0  0  0  0  0  0  0  0  0  0  0  0
    2.0046    4.9721    0.0000 C   0  0  0  0  0  0  0  0  0  0  0  0
    3.3037    4.2221    0.0000 C   0  0  0  0  0  0  0  0  0  0  0  0
    2.9918    2.7549    0.0000 N   0  0  0  0  0  0  0  0  0  0  0  0
   -0.7500    1.2990    0.0000 C   0  0  0  0  0  0  0  0  0  0  0  0
   -1.5000    0.0000    0.0000 C   0  0  0  0  0  0  0  0  0  0  0  0
   -0.7500   -1.2990    0.0000 C   0  0  0  0  0  0  0  0  0  0  0  0
   -4.3786   -5.1199    0.0000 C   0  0  0  0  0  0  0  0  0  0  0  0
   -5.3823   -6.2346    0.0000 C   0  0  0  0  0  0  0  0  0  0  0  0
   -5.8458   -4.8080    0.0000 C   0  0  0  0  0  0  0  0  0  0  0  0
  1  2  2  0
  2  3  1  0
  3  4  1  0
  4  5  2  0
  5  6  1  0
  6  7  1  0
  7  8  2  0
  8  9  1  0
  9 10  1  0
 10 11  2  0
 11 12  1  0
 12 13  2  0
 13 14  1  0
  9 15  2  0
 15 16  1  0
 16 17  2  0
  2 18  1  0
 18 19  1  0
 19 20  1  0
 17  4  1  0
 20 18  1  0
 17  7  1  0
 14 10  1  0
M  END
>  <Compound_ID>  (339) 
CHEMBL260929

>  <Active>  (339) 
1

>  <Smiles>  (339) 
O=C(Nc1n[nH]c2cc(-c3ccc[nH]3)ccc12)C1CC1

>  <canonical_smi>  (339) 
O=C(Nc1n[nH]c2cc(-c3ccc[nH]3)ccc12)C1CC1

>  <Set>  (339) 
G2 active

>  <Set_type>  (339) 
Train

>  <MW>  (339) 
266.3

>  <HBD>  (339) 
3

>  <HBA>  (339) 
2

>  <NRB>  (339) 
3

>  <NR>  (339) 
4

>  <NAR>  (339) 
3

>  <PSA>  (339) 
73.57

>  <Standard Type>  (339) 
nan

>  <Standard Relation>  (339) 
nan

>  <Standard Units>  (339) 
nan

>  <Standard Value>  (339) 
nan

>  <Assay ChEMBL ID>  (339) 
nan

>  <Assay Description>  (339) 
nan

>  <BAO Label>  (339) 
nan

$$$$

     RDKit          2D

 25 27  0  0  0  0  0  0  0  0999 V2000
   -9.7500   -9.0933    0.0000 C   0  0  0  0  0  0  0  0  0  0  0  0
   -8.2500   -9.0933    0.0000 O   0  0  0  0  0  0  0  0  0  0  0  0
   -7.5000   -7.7942    0.0000 C   0  0  0  0  0  0  0  0  0  0  0  0
   -8.2500   -6.4952    0.0000 C   0  0  0  0  0  0  0  0  0  0  0  0
   -7.5000   -5.1962    0.0000 N   0  0  0  0  0  0  0  0  0  0  0  0
   -6.0000   -5.1962    0.0000 C   0  0  0  0  0  0  0  0  0  0  0  0
   -5.2500   -3.8971    0.0000 C   0  0  0  0  0  0  0  0  0  0  0  0
   -3.7500   -3.8971    0.0000 N   0  0  0  0  0  0  0  0  0  0  0  0
   -3.0000   -2.5981    0.0000 C   0  0  0  0  0  0  0  0  0  0  0  0
   -1.5000   -2.5981    0.0000 C   0  0  0  0  0  0  0  0  0  0  0  0
   -0.7500   -3.8971    0.0000 C   0  0  0  0  0  0  0  0  0  0  0  0
   -1.5000   -5.1962    0.0000 O   0  0  0  0  0  0  0  0  0  0  0  0
    0.7500   -3.8971    0.0000 N   0  0  0  0  0  0  0  0  0  0  0  0
    1.5000   -2.5981    0.0000 C   0  0  0  0  0  0  0  0  0  0  0  0
    3.0000   -2.5981    0.0000 O   0  0  0  0  0  0  0  0  0  0  0  0
    0.7500   -1.2990    0.0000 C   0  0  0  0  0  0  0  0  0  0  0  0
    1.5000    0.0000    0.0000 C   0  0  0  0  0  0  0  0  0  0  0  0
    0.7500    1.2990    0.0000 C   0  0  0  0  0  0  0  0  0  0  0  0
   -0.7500    1.2990    0.0000 C   0  0  0  0  0  0  0  0  0  0  0  0
   -1.5000    2.5981    0.0000 I   0  0  0  0  0  0  0  0  0  0  0  0
   -1.5000    0.0000    0.0000 C   0  0  0  0  0  0  0  0  0  0  0  0
   -0.7500   -1.2990    0.0000 C   0  0  0  0  0  0  0  0  0  0  0  0
   -5.2500   -6.4952    0.0000 C   0  0  0  0  0  0  0  0  0  0  0  0
   -6.0000   -7.7942    0.0000 C   0  0  0  0  0  0  0  0  0  0  0  0
   -5.2500   -9.0933    0.0000 O   0  0  0  0  0  0  0  0  0  0  0  0
  1  2  1  0
  2  3  1  0
  3  4  2  0
  4  5  1  0
  5  6  2  0
  6  7  1  0
  7  8  1  0
  8  9  1  0
  9 10  2  0
 10 11  1  0
 11 12  2  0
 11 13  1  0
 13 14  1  0
 14 15  2  0
 14 16  1  0
 16 17  2  0
 17 18  1  0
 18 19  2  0
 19 20  1  0
 19 21  1  0
 21 22  2  0
  6 23  1  0
 23 24  2  0
 24 25  1  0
 24  3  1  0
 22 10  1  0
 22 16  1  0
M  END
>  <Compound_ID>  (340) 
CHEMBL477063

>  <Active>  (340) 
1

>  <Smiles>  (340) 
COc1cnc(CN/C=C2\C(=O)NC(=O)c3ccc(I)cc32)cc1O

>  <canonical_smi>  (340) 
COc1cnc(CN/C=C2\C(=O)NC(=O)c3ccc(I)cc32)cc1O

>  <Set>  (340) 
G2 active

>  <Set_type>  (340) 
Train

>  <MW>  (340) 
451.22

>  <HBD>  (340) 
3

>  <HBA>  (340) 
6

>  <NRB>  (340) 
4

>  <NR>  (340) 
3

>  <NAR>  (340) 
2

>  <PSA>  (340) 
100.55

>  <Standard Type>  (340) 
nan

>  <Standard Relation>  (340) 
nan

>  <Standard Units>  (340) 
nan

>  <Standard Value>  (340) 
nan

>  <Assay ChEMBL ID>  (340) 
nan

>  <Assay Description>  (340) 
nan

>  <BAO Label>  (340) 
nan

$$$$

     RDKit          2D

 26 28  0  0  0  0  0  0  0  0999 V2000
    3.0684    7.5459    0.0000 C   0  0  0  0  0  0  0  0  0  0  0  0
    1.6418    7.0824    0.0000 C   0  0  0  0  0  0  0  0  0  0  0  0
    1.3299    5.6152    0.0000 C   0  0  0  0  0  0  0  0  0  0  0  0
    2.4446    4.6115    0.0000 C   0  0  0  0  0  0  0  0  0  0  0  0
    3.8712    5.0750    0.0000 O   0  0  0  0  0  0  0  0  0  0  0  0
   -0.0967    5.1517    0.0000 N   0  0  0  0  0  0  0  0  0  0  0  0
   -0.4086    3.6844    0.0000 C   0  0  0  0  0  0  0  0  0  0  0  0
   -1.8351    3.2209    0.0000 N   0  0  0  0  0  0  0  0  0  0  0  0
   -2.1470    1.7537    0.0000 C   0  0  0  0  0  0  0  0  0  0  0  0
   -3.5736    1.2902    0.0000 N   0  0  0  0  0  0  0  0  0  0  0  0
   -4.6883    2.2939    0.0000 C   0  0  0  0  0  0  0  0  0  0  0  0
   -6.1149    1.8303    0.0000 C   0  0  0  0  0  0  0  0  0  0  0  0
   -7.2296    2.8340    0.0000 C   0  0  0  0  0  0  0  0  0  0  0  0
   -8.6562    2.3705    0.0000 C   0  0  0  0  0  0  0  0  0  0  0  0
   -8.9681    0.9033    0.0000 C   0  0  0  0  0  0  0  0  0  0  0  0
   -7.8533   -0.1004    0.0000 C   0  0  0  0  0  0  0  0  0  0  0  0
   -6.4268    0.3631    0.0000 C   0  0  0  0  0  0  0  0  0  0  0  0
   -1.0323    0.7500    0.0000 C   0  0  0  0  0  0  0  0  0  0  0  0
    0.3943    1.2135    0.0000 C   0  0  0  0  0  0  0  0  0  0  0  0
    0.7062    2.6807    0.0000 N   0  0  0  0  0  0  0  0  0  0  0  0
    1.2760    0.0000    0.0000 N   0  0  0  0  0  0  0  0  0  0  0  0
    2.7760    0.0000    0.0000 C   0  0  0  0  0  0  0  0  0  0  0  0
    3.5260   -1.2990    0.0000 C   0  0  0  0  0  0  0  0  0  0  0  0
    3.5260    1.2990    0.0000 C   0  0  0  0  0  0  0  0  0  0  0  0
    0.3943   -1.2135    0.0000 C   0  0  0  0  0  0  0  0  0  0  0  0
   -1.0323   -0.7500    0.0000 N   0  0  0  0  0  0  0  0  0  0  0  0
  1  2  1  0
  3  2  1  6
  3  4  1  0
  4  5  1  0
  3  6  1  0
  6  7  1  0
  7  8  2  0
  8  9  1  0
  9 10  1  0
 10 11  1  0
 11 12  1  0
 12 13  2  0
 13 14  1  0
 14 15  2  0
 15 16  1  0
 16 17  2  0
  9 18  2  0
 18 19  1  0
 19 20  2  0
 19 21  1  0
 21 22  1  0
 22 23  1  0
 22 24  1  0
 21 25  1  0
 25 26  1  0
 20  7  1  0
 17 12  1  0
 26 18  1  0
M  END
>  <Compound_ID>  (341) 
CHEMBL1087791

>  <Active>  (341) 
1

>  <Smiles>  (341) 
CC[C@H](CO)Nc1nc(NCc2ccccc2)c2c(n1)N(C(C)C)CN2

>  <canonical_smi>  (341) 
CC[C@H](CO)Nc1nc(NCc2ccccc2)c2c(n1)N(C(C)C)CN2

>  <Set>  (341) 
G2 active

>  <Set_type>  (341) 
Train

>  <MW>  (341) 
356.47

>  <HBD>  (341) 
4

>  <HBA>  (341) 
7

>  <NRB>  (341) 
8

>  <NR>  (341) 
3

>  <NAR>  (341) 
2

>  <PSA>  (341) 
85.34

>  <Standard Type>  (341) 
nan

>  <Standard Relation>  (341) 
nan

>  <Standard Units>  (341) 
nan

>  <Standard Value>  (341) 
nan

>  <Assay ChEMBL ID>  (341) 
nan

>  <Assay Description>  (341) 
nan

>  <BAO Label>  (341) 
nan

$$$$

     RDKit          2D

 41 45  0  0  0  0  0  0  0  0999 V2000
   -7.3273  -10.0303    0.0000 C   0  0  0  0  0  0  0  0  0  0  0  0
   -5.9007  -10.4938    0.0000 C   0  0  0  0  0  0  0  0  0  0  0  0
   -4.7860   -9.4901    0.0000 C   0  0  0  0  0  0  0  0  0  0  0  0
   -3.3594   -9.9537    0.0000 C   0  0  0  0  0  0  0  0  0  0  0  0
   -2.2447   -8.9500    0.0000 C   0  0  0  0  0  0  0  0  0  0  0  0
   -2.5565   -7.4827    0.0000 N   0  0  0  0  0  0  0  0  0  0  0  0
   -1.4418   -6.4791    0.0000 C   0  0  0  0  0  0  0  0  0  0  0  0
   -0.0152   -6.9426    0.0000 O   0  0  0  0  0  0  0  0  0  0  0  0
   -1.7537   -5.0118    0.0000 C   0  0  0  0  0  0  0  0  0  0  0  0
   -3.1240   -4.4017    0.0000 N   0  0  0  0  0  0  0  0  0  0  0  0
   -2.9672   -2.9099    0.0000 N   0  0  0  0  0  0  0  0  0  0  0  0
   -4.0819   -1.9062    0.0000 C   0  0  0  0  0  0  0  0  0  0  0  0
   -5.5085   -2.3698    0.0000 C   0  0  0  0  0  0  0  0  0  0  0  0
   -6.6232   -1.3661    0.0000 C   0  0  0  0  0  0  0  0  0  0  0  0
   -8.0498   -1.8296    0.0000 N   0  0  0  0  0  0  0  0  0  0  0  0
   -1.5000   -2.5981    0.0000 C   0  0  0  0  0  0  0  0  0  0  0  0
   -0.7500   -3.8971    0.0000 C   0  0  0  0  0  0  0  0  0  0  0  0
    0.7500   -3.8971    0.0000 C   0  0  0  0  0  0  0  0  0  0  0  0
    1.5000   -2.5981    0.0000 C   0  0  0  0  0  0  0  0  0  0  0  0
    0.7500   -1.2990    0.0000 C   0  0  0  0  0  0  0  0  0  0  0  0
    1.5000    0.0000    0.0000 C   0  0  0  0  0  0  0  0  0  0  0  0
    0.7500    1.2990    0.0000 N   0  0  0  0  0  0  0  0  0  0  0  0
   -0.7500    1.2990    0.0000 C   0  0  0  0  0  0  0  0  0  0  0  0
   -1.5000    2.5981    0.0000 N   0  0  0  0  0  0  0  0  0  0  0  0
   -0.7500    3.8971    0.0000 C   0  0  0  0  0  0  0  0  0  0  0  0
    0.7500    3.8971    0.0000 C   0  0  0  0  0  0  0  0  0  0  0  0
    1.5000    5.1962    0.0000 C   0  0  0  0  0  0  0  0  0  0  0  0
    0.7500    6.4952    0.0000 C   0  0  0  0  0  0  0  0  0  0  0  0
   -0.7500    6.4952    0.0000 C   0  0  0  0  0  0  0  0  0  0  0  0
   -1.5000    7.7942    0.0000 C   0  0  0  0  0  0  0  0  0  0  0  0
   -0.7500    9.0933    0.0000 C   0  0  0  0  0  0  0  0  0  0  0  0
    0.7500    9.0933    0.0000 O   0  0  0  0  0  0  0  0  0  0  0  0
   -1.5000   10.3923    0.0000 N   0  0  0  0  0  0  0  0  0  0  0  0
   -0.7500   11.6913    0.0000 C   0  0  0  0  0  0  0  0  0  0  0  0
   -3.0000   10.3923    0.0000 C   0  0  0  0  0  0  0  0  0  0  0  0
   -1.5000    5.1962    0.0000 C   0  0  0  0  0  0  0  0  0  0  0  0
   -1.5000    0.0000    0.0000 N   0  0  0  0  0  0  0  0  0  0  0  0
   -0.7500   -1.2990    0.0000 C   0  0  0  0  0  0  0  0  0  0  0  0
   -3.0475  -11.4209    0.0000 C   0  0  0  0  0  0  0  0  0  0  0  0
   -4.1622  -12.4246    0.0000 C   0  0  0  0  0  0  0  0  0  0  0  0
   -5.5888  -11.9611    0.0000 N   0  0  0  0  0  0  0  0  0  0  0  0
  1  2  1  0
  2  3  2  0
  3  4  1  0
  4  5  1  0
  5  6  1  0
  6  7  1  0
  7  8  2  0
  7  9  1  0
  9 10  2  0
 10 11  1  0
 11 12  1  0
 12 13  1  0
 13 14  1  0
 14 15  1  0
 11 16  1  0
 16 17  2  0
 17 18  1  0
 18 19  1  0
 19 20  1  0
 20 21  2  0
 21 22  1  0
 22 23  2  0
 23 24  1  0
 24 25  1  0
 25 26  2  0
 26 27  1  0
 27 28  2  0
 28 29  1  0
 29 30  1  0
 30 31  1  0
 31 32  2  0
 31 33  1  0
 33 34  1  0
 33 35  1  0
 29 36  2  0
 23 37  1  0
 37 38  2  0
  4 39  2  0
 39 40  1  0
 40 41  2  0
 41  2  1  0
 17  9  1  0
 38 20  1  0
 38 16  1  0
 36 25  1  0
M  END
>  <Compound_ID>  (342) 
CHEMBL1172241

>  <Active>  (342) 
1

>  <Smiles>  (342) 
Cc1cc(CNC(=O)c2nn(CCCN)c3c2CCc2cnc(Nc4cccc(CC(=O)N(C)C)c4)nc2-3)ccn1

>  <canonical_smi>  (342) 
Cc1cc(CNC(=O)c2nn(CCCN)c3c2CCc2cnc(Nc4cccc(CC(=O)N(C)C)c4)nc2-3)ccn1

>  <Set>  (342) 
G2 active

>  <Set_type>  (342) 
Train

>  <MW>  (342) 
553.67

>  <HBD>  (342) 
3

>  <HBA>  (342) 
8

>  <NRB>  (342) 
10

>  <NR>  (342) 
5

>  <NAR>  (342) 
4

>  <PSA>  (342) 
143.95

>  <Standard Type>  (342) 
nan

>  <Standard Relation>  (342) 
nan

>  <Standard Units>  (342) 
nan

>  <Standard Value>  (342) 
nan

>  <Assay ChEMBL ID>  (342) 
nan

>  <Assay Description>  (342) 
nan

>  <BAO Label>  (342) 
nan

$$$$

     RDKit          2D

 23 25  0  0  0  0  0  0  0  0999 V2000
    5.6097    7.0058    0.0000 C   0  0  0  0  0  0  0  0  0  0  0  0
    4.1831    6.5422    0.0000 C   0  0  0  0  0  0  0  0  0  0  0  0
    3.8712    5.0750    0.0000 C   0  0  0  0  0  0  0  0  0  0  0  0
    2.4446    4.6115    0.0000 C   0  0  0  0  0  0  0  0  0  0  0  0
    2.1328    3.1443    0.0000 O   0  0  0  0  0  0  0  0  0  0  0  0
    0.7062    2.6807    0.0000 C   0  0  0  0  0  0  0  0  0  0  0  0
    0.3943    1.2135    0.0000 C   0  0  0  0  0  0  0  0  0  0  0  0
    1.2760    0.0000    0.0000 C   0  0  0  0  0  0  0  0  0  0  0  0
    0.3943   -1.2135    0.0000 N   0  0  0  0  0  0  0  0  0  0  0  0
   -1.0323   -0.7500    0.0000 N   0  0  0  0  0  0  0  0  0  0  0  0
   -1.0323    0.7500    0.0000 C   0  0  0  0  0  0  0  0  0  0  0  0
   -2.1470    1.7537    0.0000 N   0  0  0  0  0  0  0  0  0  0  0  0
   -1.8351    3.2209    0.0000 C   0  0  0  0  0  0  0  0  0  0  0  0
   -0.4086    3.6844    0.0000 C   0  0  0  0  0  0  0  0  0  0  0  0
   -0.0967    5.1517    0.0000 S   0  0  0  0  0  0  0  0  0  0  0  0
    1.3705    4.8398    0.0000 O   0  0  0  0  0  0  0  0  0  0  0  0
   -1.5639    5.4635    0.0000 O   0  0  0  0  0  0  0  0  0  0  0  0
    0.2152    6.6189    0.0000 C   0  0  0  0  0  0  0  0  0  0  0  0
    1.6418    7.0824    0.0000 C   0  0  0  0  0  0  0  0  0  0  0  0
    1.9536    8.5496    0.0000 C   0  0  0  0  0  0  0  0  0  0  0  0
    0.8389    9.5533    0.0000 C   0  0  0  0  0  0  0  0  0  0  0  0
   -0.5877    9.0898    0.0000 C   0  0  0  0  0  0  0  0  0  0  0  0
   -0.8995    7.6226    0.0000 C   0  0  0  0  0  0  0  0  0  0  0  0
  1  2  1  0
  2  3  1  0
  3  4  1  0
  4  5  1  0
  5  6  1  0
  6  7  2  0
  7  8  1  0
  8  9  2  0
  9 10  1  0
 10 11  2  0
 11 12  1  0
 12 13  1  0
 13 14  2  0
 14 15  1  0
 15 16  2  0
 15 17  2  0
 15 18  1  0
 18 19  2  0
 19 20  1  0
 20 21  2  0
 21 22  1  0
 22 23  2  0
 14  6  1  0
 23 18  1  0
 11  7  1  0
M  END
>  <Compound_ID>  (343) 
CHEMBL76872

>  <Active>  (343) 
1

>  <Smiles>  (343) 
CCCCOc1c2cnnc-2[nH]cc1S(=O)(=O)c1ccccc1

>  <canonical_smi>  (343) 
CCCCOc1c2cnnc-2[nH]cc1S(=O)(=O)c1ccccc1

>  <Set>  (343) 
G2 active

>  <Set_type>  (343) 
Train

>  <MW>  (343) 
331.4

>  <HBD>  (343) 
1

>  <HBA>  (343) 
5

>  <NRB>  (343) 
6

>  <NR>  (343) 
3

>  <NAR>  (343) 
3

>  <PSA>  (343) 
84.94

>  <Standard Type>  (343) 
nan

>  <Standard Relation>  (343) 
nan

>  <Standard Units>  (343) 
nan

>  <Standard Value>  (343) 
nan

>  <Assay ChEMBL ID>  (343) 
nan

>  <Assay Description>  (343) 
nan

>  <BAO Label>  (343) 
nan

$$$$

     RDKit          2D

 23 25  0  0  0  0  0  0  0  0999 V2000
   -3.2082  -13.0594    0.0000 C   0  0  0  0  0  0  0  0  0  0  0  0
   -1.9092  -13.8094    0.0000 C   0  0  0  0  0  0  0  0  0  0  0  0
   -0.6101  -14.5594    0.0000 C   0  0  0  0  0  0  0  0  0  0  0  0
   -2.6592  -15.1085    0.0000 C   0  0  0  0  0  0  0  0  0  0  0  0
   -1.1592  -12.5104    0.0000 C   0  0  0  0  0  0  0  0  0  0  0  0
    0.3326  -12.3536    0.0000 C   0  0  0  0  0  0  0  0  0  0  0  0
    0.6445  -10.8864    0.0000 N   0  0  0  0  0  0  0  0  0  0  0  0
   -0.6546  -10.1364    0.0000 C   0  0  0  0  0  0  0  0  0  0  0  0
   -0.8113   -8.6446    0.0000 C   0  0  0  0  0  0  0  0  0  0  0  0
    0.4022   -7.7629    0.0000 S   0  0  0  0  0  0  0  0  0  0  0  0
    0.2454   -6.2711    0.0000 C   0  0  0  0  0  0  0  0  0  0  0  0
   -1.0537   -5.5211    0.0000 C   0  0  0  0  0  0  0  0  0  0  0  0
   -0.7418   -4.0539    0.0000 N   0  0  0  0  0  0  0  0  0  0  0  0
    0.7500   -3.8971    0.0000 C   0  0  0  0  0  0  0  0  0  0  0  0
    1.5000   -2.5981    0.0000 N   0  0  0  0  0  0  0  0  0  0  0  0
    0.7500   -1.2990    0.0000 C   0  0  0  0  0  0  0  0  0  0  0  0
    1.5000    0.0000    0.0000 C   0  0  0  0  0  0  0  0  0  0  0  0
    0.7500    1.2990    0.0000 C   0  0  0  0  0  0  0  0  0  0  0  0
   -0.7500    1.2990    0.0000 N   0  0  0  0  0  0  0  0  0  0  0  0
   -1.5000    0.0000    0.0000 C   0  0  0  0  0  0  0  0  0  0  0  0
   -0.7500   -1.2990    0.0000 C   0  0  0  0  0  0  0  0  0  0  0  0
    1.3601   -5.2674    0.0000 S   0  0  0  0  0  0  0  0  0  0  0  0
   -1.7693  -11.1401    0.0000 O   0  0  0  0  0  0  0  0  0  0  0  0
  1  2  1  0
  2  3  1  0
  2  4  1  0
  2  5  1  0
  5  6  2  0
  6  7  1  0
  7  8  2  0
  8  9  1  0
  9 10  1  0
 10 11  1  0
 11 12  2  0
 12 13  1  0
 13 14  2  0
 14 15  1  0
 15 16  1  0
 16 17  1  0
 17 18  1  0
 18 19  1  0
 19 20  1  0
 20 21  1  0
 14 22  1  0
  8 23  1  0
 23  5  1  0
 22 11  1  0
 21 16  1  0
M  END
>  <Compound_ID>  (344) 
CHEMBL509772

>  <Active>  (344) 
1

>  <Smiles>  (344) 
CC(C)(C)c1cnc(CSc2cnc(NC3CCNCC3)s2)o1

>  <canonical_smi>  (344) 
CC(C)(C)c1cnc(CSc2cnc(NC3CCNCC3)s2)o1

>  <Set>  (344) 
G2 active

>  <Set_type>  (344) 
Train

>  <MW>  (344) 
352.53

>  <HBD>  (344) 
2

>  <HBA>  (344) 
6

>  <NRB>  (344) 
5

>  <NR>  (344) 
3

>  <NAR>  (344) 
2

>  <PSA>  (344) 
62.98

>  <Standard Type>  (344) 
nan

>  <Standard Relation>  (344) 
nan

>  <Standard Units>  (344) 
nan

>  <Standard Value>  (344) 
nan

>  <Assay ChEMBL ID>  (344) 
nan

>  <Assay Description>  (344) 
nan

>  <BAO Label>  (344) 
nan

$$$$

     RDKit          2D

 27 30  0  0  0  0  0  0  0  0999 V2000
   -0.0000   -5.1073    0.0000 N   0  0  0  0  0  0  0  0  0  0  0  0
   -0.0000   -3.6073    0.0000 C   0  0  0  0  0  0  0  0  0  0  0  0
    1.2135   -2.7256    0.0000 N   0  0  0  0  0  0  0  0  0  0  0  0
    0.7500   -1.2990    0.0000 C   0  0  0  0  0  0  0  0  0  0  0  0
    1.5000    0.0000    0.0000 C   0  0  0  0  0  0  0  0  0  0  0  0
    0.7500    1.2990    0.0000 C   0  0  0  0  0  0  0  0  0  0  0  0
   -0.7500    1.2990    0.0000 C   0  0  0  0  0  0  0  0  0  0  0  0
   -1.5000    2.5981    0.0000 C   0  0  0  0  0  0  0  0  0  0  0  0
   -3.0000    2.5981    0.0000 O   0  0  0  0  0  0  0  0  0  0  0  0
   -0.7500    3.8971    0.0000 C   0  0  0  0  0  0  0  0  0  0  0  0
    0.7500    3.8971    0.0000 C   0  0  0  0  0  0  0  0  0  0  0  0
    1.5000    2.5981    0.0000 F   0  0  0  0  0  0  0  0  0  0  0  0
    1.5000    5.1962    0.0000 C   0  0  0  0  0  0  0  0  0  0  0  0
    0.7500    6.4952    0.0000 C   0  0  0  0  0  0  0  0  0  0  0  0
   -0.7500    6.4952    0.0000 C   0  0  0  0  0  0  0  0  0  0  0  0
   -1.5000    5.1962    0.0000 C   0  0  0  0  0  0  0  0  0  0  0  0
   -3.0000    5.1962    0.0000 F   0  0  0  0  0  0  0  0  0  0  0  0
   -1.5000    0.0000    0.0000 C   0  0  0  0  0  0  0  0  0  0  0  0
   -0.7500   -1.2990    0.0000 N   0  0  0  0  0  0  0  0  0  0  0  0
   -1.2135   -2.7256    0.0000 C   0  0  0  0  0  0  0  0  0  0  0  0
   -2.6401   -3.1891    0.0000 C   0  0  0  0  0  0  0  0  0  0  0  0
   -3.7548   -2.1855    0.0000 O   0  0  0  0  0  0  0  0  0  0  0  0
   -2.9520   -4.6564    0.0000 C   0  0  0  0  0  0  0  0  0  0  0  0
   -1.9483   -5.7711    0.0000 C   0  0  0  0  0  0  0  0  0  0  0  0
   -2.6983   -7.0701    0.0000 C   0  0  0  0  0  0  0  0  0  0  0  0
   -4.1655   -6.7583    0.0000 C   0  0  0  0  0  0  0  0  0  0  0  0
   -4.3223   -5.2665    0.0000 S   0  0  0  0  0  0  0  0  0  0  0  0
  1  2  1  0
  2  3  1  0
  3  4  2  0
  4  5  1  0
  5  6  2  0
  6  7  1  0
  7  8  1  0
  8  9  2  0
  8 10  1  0
 10 11  2  0
 11 12  1  0
 11 13  1  0
 13 14  2  0
 14 15  1  0
 15 16  2  0
 16 17  1  0
  7 18  2  0
 18 19  1  0
 19 20  1  0
 20 21  1  0
 21 22  2  0
 21 23  1  0
 23 24  2  0
 24 25  1  0
 25 26  2  0
 26 27  1  0
 20  2  2  0
 27 23  1  0
 19  4  1  0
 16 10  1  0
M  END
>  <Compound_ID>  (345) 
CHEMBL186952

>  <Active>  (345) 
1

>  <Smiles>  (345) 
Nc1nc2ccc(C(=O)c3c(F)cccc3F)cn2c1C(=O)c1cccs1

>  <canonical_smi>  (345) 
Nc1nc2ccc(C(=O)c3c(F)cccc3F)cn2c1C(=O)c1cccs1

>  <Set>  (345) 
G2 active

>  <Set_type>  (345) 
Train

>  <MW>  (345) 
383.38

>  <HBD>  (345) 
1

>  <HBA>  (345) 
4

>  <NRB>  (345) 
4

>  <NR>  (345) 
4

>  <NAR>  (345) 
4

>  <PSA>  (345) 
77.46

>  <Standard Type>  (345) 
nan

>  <Standard Relation>  (345) 
nan

>  <Standard Units>  (345) 
nan

>  <Standard Value>  (345) 
nan

>  <Assay ChEMBL ID>  (345) 
nan

>  <Assay Description>  (345) 
nan

>  <BAO Label>  (345) 
nan

$$$$

     RDKit          2D

 28 31  0  0  0  0  0  0  0  0999 V2000
   -8.3928    7.2347    0.0000 C   0  0  0  0  0  0  0  0  0  0  0  0
   -8.7047    5.7675    0.0000 C   0  0  0  0  0  0  0  0  0  0  0  0
   -7.5900    4.7638    0.0000 N   0  0  0  0  0  0  0  0  0  0  0  0
   -7.9018    3.2966    0.0000 C   0  0  0  0  0  0  0  0  0  0  0  0
   -9.3284    2.8330    0.0000 O   0  0  0  0  0  0  0  0  0  0  0  0
   -6.7871    2.2929    0.0000 N   0  0  0  0  0  0  0  0  0  0  0  0
   -5.3605    2.7564    0.0000 C   0  0  0  0  0  0  0  0  0  0  0  0
   -4.2458    1.7527    0.0000 C   0  0  0  0  0  0  0  0  0  0  0  0
   -4.5577    0.2855    0.0000 C   0  0  0  0  0  0  0  0  0  0  0  0
   -5.9843   -0.1781    0.0000 C   0  0  0  0  0  0  0  0  0  0  0  0
   -6.2961   -1.6453    0.0000 N   0  0  0  0  0  0  0  0  0  0  0  0
   -5.1814   -2.6490    0.0000 C   0  0  0  0  0  0  0  0  0  0  0  0
   -5.4933   -4.1162    0.0000 N   0  0  0  0  0  0  0  0  0  0  0  0
   -4.3786   -5.1199    0.0000 C   0  0  0  0  0  0  0  0  0  0  0  0
   -2.9520   -4.6564    0.0000 C   0  0  0  0  0  0  0  0  0  0  0  0
   -1.8373   -5.6601    0.0000 Cl  0  0  0  0  0  0  0  0  0  0  0  0
   -2.6401   -3.1891    0.0000 C   0  0  0  0  0  0  0  0  0  0  0  0
   -1.2135   -2.7256    0.0000 C   0  0  0  0  0  0  0  0  0  0  0  0
   -0.0000   -3.6073    0.0000 C   0  0  0  0  0  0  0  0  0  0  0  0
    1.2135   -2.7256    0.0000 N   0  0  0  0  0  0  0  0  0  0  0  0
    0.7500   -1.2990    0.0000 C   0  0  0  0  0  0  0  0  0  0  0  0
    1.5000    0.0000    0.0000 C   0  0  0  0  0  0  0  0  0  0  0  0
    0.7500    1.2990    0.0000 C   0  0  0  0  0  0  0  0  0  0  0  0
   -0.7500    1.2990    0.0000 C   0  0  0  0  0  0  0  0  0  0  0  0
   -1.5000    0.0000    0.0000 C   0  0  0  0  0  0  0  0  0  0  0  0
   -0.7500   -1.2990    0.0000 C   0  0  0  0  0  0  0  0  0  0  0  0
   -3.7548   -2.1855    0.0000 N   0  0  0  0  0  0  0  0  0  0  0  0
   -7.0990    0.8256    0.0000 C   0  0  0  0  0  0  0  0  0  0  0  0
  1  2  1  0
  2  3  1  0
  3  4  1  0
  4  5  2  0
  4  6  1  0
  6  7  1  0
  7  8  1  0
  8  9  1  0
  9 10  1  0
 10 11  1  6
 11 12  1  0
 12 13  2  0
 13 14  1  0
 14 15  2  0
 15 16  1  0
 15 17  1  0
 17 18  1  0
 18 19  2  0
 19 20  1  0
 20 21  1  0
 21 22  2  0
 22 23  1  0
 23 24  2  0
 24 25  1  0
 25 26  2  0
 17 27  2  0
 10 28  1  0
 28  6  1  0
 27 12  1  0
 26 18  1  0
 26 21  1  0
M  END
>  <Compound_ID>  (346) 
CHEMBL392614

>  <Active>  (346) 
1

>  <Smiles>  (346) 
CCNC(=O)N1CCC[C@H](Nc2ncc(Cl)c(-c3c[nH]c4ccccc34)n2)C1

>  <canonical_smi>  (346) 
CCNC(=O)N1CCC[C@H](Nc2ncc(Cl)c(-c3c[nH]c4ccccc34)n2)C1

>  <Set>  (346) 
G2 active

>  <Set_type>  (346) 
Train

>  <MW>  (346) 
398.9

>  <HBD>  (346) 
3

>  <HBA>  (346) 
4

>  <NRB>  (346) 
4

>  <NR>  (346) 
4

>  <NAR>  (346) 
3

>  <PSA>  (346) 
85.94

>  <Standard Type>  (346) 
nan

>  <Standard Relation>  (346) 
nan

>  <Standard Units>  (346) 
nan

>  <Standard Value>  (346) 
nan

>  <Assay ChEMBL ID>  (346) 
nan

>  <Assay Description>  (346) 
nan

>  <BAO Label>  (346) 
nan

$$$$

     RDKit          2D

 27 31  0  0  0  0  0  0  0  0999 V2000
   -4.6613    6.0728    0.0000 N   0  0  0  0  0  0  0  0  0  0  0  0
   -3.2910    5.4627    0.0000 C   0  0  0  0  0  0  0  0  0  0  0  0
   -2.0774    6.3444    0.0000 O   0  0  0  0  0  0  0  0  0  0  0  0
   -3.1342    3.9709    0.0000 C   0  0  0  0  0  0  0  0  0  0  0  0
   -4.2489    2.9672    0.0000 N   0  0  0  0  0  0  0  0  0  0  0  0
   -3.6388    1.5969    0.0000 N   0  0  0  0  0  0  0  0  0  0  0  0
   -4.3888    0.2979    0.0000 C   0  0  0  0  0  0  0  0  0  0  0  0
   -5.8888    0.2979    0.0000 C   0  0  0  0  0  0  0  0  0  0  0  0
   -6.6388   -1.0012    0.0000 C   0  0  0  0  0  0  0  0  0  0  0  0
   -5.8888   -2.3002    0.0000 C   0  0  0  0  0  0  0  0  0  0  0  0
   -6.6388   -3.5992    0.0000 N   0  0  0  0  0  0  0  0  0  0  0  0
   -8.1388   -3.5992    0.0000 C   0  0  0  0  0  0  0  0  0  0  0  0
   -8.8888   -4.8983    0.0000 C   0  0  0  0  0  0  0  0  0  0  0  0
   -8.1388   -6.1973    0.0000 O   0  0  0  0  0  0  0  0  0  0  0  0
   -6.6388   -6.1973    0.0000 C   0  0  0  0  0  0  0  0  0  0  0  0
   -5.8888   -4.8983    0.0000 C   0  0  0  0  0  0  0  0  0  0  0  0
   -4.3888   -2.3002    0.0000 C   0  0  0  0  0  0  0  0  0  0  0  0
   -3.6388   -1.0012    0.0000 C   0  0  0  0  0  0  0  0  0  0  0  0
   -2.1470    1.7537    0.0000 C   0  0  0  0  0  0  0  0  0  0  0  0
   -1.8351    3.2209    0.0000 C   0  0  0  0  0  0  0  0  0  0  0  0
   -0.4086    3.6844    0.0000 C   0  0  0  0  0  0  0  0  0  0  0  0
    0.7062    2.6807    0.0000 C   0  0  0  0  0  0  0  0  0  0  0  0
    0.3943    1.2135    0.0000 C   0  0  0  0  0  0  0  0  0  0  0  0
    1.2760    0.0000    0.0000 N   0  0  0  0  0  0  0  0  0  0  0  0
    0.3943   -1.2135    0.0000 N   0  0  0  0  0  0  0  0  0  0  0  0
   -1.0323   -0.7500    0.0000 C   0  0  0  0  0  0  0  0  0  0  0  0
   -1.0323    0.7500    0.0000 C   0  0  0  0  0  0  0  0  0  0  0  0
  1  2  1  0
  2  3  2  0
  2  4  1  0
  4  5  2  0
  5  6  1  0
  6  7  1  0
  7  8  2  0
  8  9  1  0
  9 10  2  0
 10 11  1  0
 11 12  1  0
 12 13  1  0
 13 14  1  0
 14 15  1  0
 15 16  1  0
 10 17  1  0
 17 18  2  0
  6 19  1  0
 19 20  2  0
 20 21  1  0
 21 22  1  0
 22 23  1  0
 23 24  2  0
 24 25  1  0
 25 26  1  0
 26 27  2  0
 20  4  1  0
 27 23  1  0
 18  7  1  0
 27 19  1  0
 16 11  1  0
M  END
>  <Compound_ID>  (347) 
CHEMBL359738

>  <Active>  (347) 
1

>  <Smiles>  (347) 
NC(=O)c1nn(-c2ccc(N3CCOCC3)cc2)c2c1CCc1n[nH]cc1-2

>  <canonical_smi>  (347) 
NC(=O)c1nn(-c2ccc(N3CCOCC3)cc2)c2c1CCc1n[nH]cc1-2

>  <Set>  (347) 
G2 active

>  <Set_type>  (347) 
Train

>  <MW>  (347) 
364.41

>  <HBD>  (347) 
2

>  <HBA>  (347) 
5

>  <NRB>  (347) 
3

>  <NR>  (347) 
5

>  <NAR>  (347) 
3

>  <PSA>  (347) 
102.06

>  <Standard Type>  (347) 
nan

>  <Standard Relation>  (347) 
nan

>  <Standard Units>  (347) 
nan

>  <Standard Value>  (347) 
nan

>  <Assay ChEMBL ID>  (347) 
nan

>  <Assay Description>  (347) 
nan

>  <BAO Label>  (347) 
nan

$$$$

     RDKit          2D

 31 35  0  0  0  0  0  0  0  0999 V2000
    4.0819   -1.9062    0.0000 C   0  0  0  0  0  0  0  0  0  0  0  0
    2.9672   -2.9099    0.0000 N   0  0  0  0  0  0  0  0  0  0  0  0
    3.1240   -4.4017    0.0000 N   0  0  0  0  0  0  0  0  0  0  0  0
    1.7537   -5.0118    0.0000 C   0  0  0  0  0  0  0  0  0  0  0  0
    1.4418   -6.4791    0.0000 C   0  0  0  0  0  0  0  0  0  0  0  0
    2.5565   -7.4827    0.0000 N   0  0  0  0  0  0  0  0  0  0  0  0
    0.0152   -6.9426    0.0000 O   0  0  0  0  0  0  0  0  0  0  0  0
    0.7500   -3.8971    0.0000 C   0  0  0  0  0  0  0  0  0  0  0  0
    1.5000   -2.5981    0.0000 C   0  0  0  0  0  0  0  0  0  0  0  0
    0.7500   -1.2990    0.0000 C   0  0  0  0  0  0  0  0  0  0  0  0
    1.5000    0.0000    0.0000 N   0  0  0  0  0  0  0  0  0  0  0  0
    0.7500    1.2990    0.0000 C   0  0  0  0  0  0  0  0  0  0  0  0
    1.5000    2.5981    0.0000 N   0  0  0  0  0  0  0  0  0  0  0  0
    3.0000    2.5981    0.0000 C   0  0  0  0  0  0  0  0  0  0  0  0
    3.7500    1.2990    0.0000 C   0  0  0  0  0  0  0  0  0  0  0  0
    5.2500    1.2990    0.0000 C   0  0  0  0  0  0  0  0  0  0  0  0
    6.0000    2.5981    0.0000 C   0  0  0  0  0  0  0  0  0  0  0  0
    5.2500    3.8971    0.0000 C   0  0  0  0  0  0  0  0  0  0  0  0
    3.7500    3.8971    0.0000 C   0  0  0  0  0  0  0  0  0  0  0  0
    3.0000    5.1962    0.0000 C   0  0  0  0  0  0  0  0  0  0  0  0
    3.7500    6.4952    0.0000 C   0  0  0  0  0  0  0  0  0  0  0  0
    5.2500    6.4952    0.0000 C   0  0  0  0  0  0  0  0  0  0  0  0
    6.0000    7.7942    0.0000 C   0  0  0  0  0  0  0  0  0  0  0  0
    5.2500    9.0933    0.0000 C   0  0  0  0  0  0  0  0  0  0  0  0
    3.7500    9.0933    0.0000 C   0  0  0  0  0  0  0  0  0  0  0  0
    3.0000    7.7942    0.0000 C   0  0  0  0  0  0  0  0  0  0  0  0
   -0.7500    1.2990    0.0000 N   0  0  0  0  0  0  0  0  0  0  0  0
   -1.5000    0.0000    0.0000 C   0  0  0  0  0  0  0  0  0  0  0  0
   -0.7500   -1.2990    0.0000 C   0  0  0  0  0  0  0  0  0  0  0  0
   -1.5000   -2.5981    0.0000 C   0  0  0  0  0  0  0  0  0  0  0  0
   -0.7500   -3.8971    0.0000 C   0  0  0  0  0  0  0  0  0  0  0  0
  1  2  1  0
  2  3  1  0
  3  4  2  0
  4  5  1  0
  5  6  1  0
  5  7  2  0
  4  8  1  0
  8  9  2  0
  9 10  1  0
 10 11  2  0
 11 12  1  0
 12 13  1  0
 13 14  1  0
 14 15  2  0
 15 16  1  0
 16 17  2  0
 17 18  1  0
 18 19  2  0
 19 20  1  0
 20 21  1  0
 21 22  2  0
 22 23  1  0
 23 24  2  0
 24 25  1  0
 25 26  2  0
 12 27  2  0
 27 28  1  0
 28 29  2  0
 29 30  1  0
 30 31  1  0
  9  2  1  0
 29 10  1  0
 31  8  1  0
 19 14  1  0
 26 21  1  0
M  END
>  <Compound_ID>  (348) 
CHEMBL1094488

>  <Active>  (348) 
1

>  <Smiles>  (348) 
Cn1nc(C(N)=O)c2c1-c1nc(Nc3ccccc3Cc3ccccc3)ncc1CC2

>  <canonical_smi>  (348) 
Cn1nc(C(N)=O)c2c1-c1nc(Nc3ccccc3Cc3ccccc3)ncc1CC2

>  <Set>  (348) 
G2 active

>  <Set_type>  (348) 
Train

>  <MW>  (348) 
410.48

>  <HBD>  (348) 
2

>  <HBA>  (348) 
5

>  <NRB>  (348) 
5

>  <NR>  (348) 
5

>  <NAR>  (348) 
4

>  <PSA>  (348) 
98.72

>  <Standard Type>  (348) 
nan

>  <Standard Relation>  (348) 
nan

>  <Standard Units>  (348) 
nan

>  <Standard Value>  (348) 
nan

>  <Assay ChEMBL ID>  (348) 
nan

>  <Assay Description>  (348) 
nan

>  <BAO Label>  (348) 
nan

$$$$

     RDKit          2D

 30 34  0  0  0  0  0  0  0  0999 V2000
    4.0819   -1.9062    0.0000 C   0  0  0  0  0  0  0  0  0  0  0  0
    2.9672   -2.9099    0.0000 N   0  0  0  0  0  0  0  0  0  0  0  0
    3.1240   -4.4017    0.0000 N   0  0  0  0  0  0  0  0  0  0  0  0
    1.7537   -5.0118    0.0000 C   0  0  0  0  0  0  0  0  0  0  0  0
    1.4418   -6.4791    0.0000 C   0  0  0  0  0  0  0  0  0  0  0  0
    0.0152   -6.9426    0.0000 O   0  0  0  0  0  0  0  0  0  0  0  0
    2.5565   -7.4827    0.0000 N   0  0  0  0  0  0  0  0  0  0  0  0
    2.2447   -8.9500    0.0000 C   0  0  0  0  0  0  0  0  0  0  0  0
    0.8181   -9.4135    0.0000 C   0  0  0  0  0  0  0  0  0  0  0  0
    0.5062  -10.8807    0.0000 C   0  0  0  0  0  0  0  0  0  0  0  0
    1.6209  -11.8844    0.0000 C   0  0  0  0  0  0  0  0  0  0  0  0
    3.0475  -11.4209    0.0000 C   0  0  0  0  0  0  0  0  0  0  0  0
    3.3594   -9.9537    0.0000 C   0  0  0  0  0  0  0  0  0  0  0  0
    0.7500   -3.8971    0.0000 C   0  0  0  0  0  0  0  0  0  0  0  0
    1.5000   -2.5981    0.0000 C   0  0  0  0  0  0  0  0  0  0  0  0
    0.7500   -1.2990    0.0000 C   0  0  0  0  0  0  0  0  0  0  0  0
    1.5000    0.0000    0.0000 N   0  0  0  0  0  0  0  0  0  0  0  0
    0.7500    1.2990    0.0000 C   0  0  0  0  0  0  0  0  0  0  0  0
    1.5000    2.5981    0.0000 N   0  0  0  0  0  0  0  0  0  0  0  0
    3.0000    2.5981    0.0000 C   0  0  0  0  0  0  0  0  0  0  0  0
    3.7500    1.2990    0.0000 C   0  0  0  0  0  0  0  0  0  0  0  0
    5.2500    1.2990    0.0000 C   0  0  0  0  0  0  0  0  0  0  0  0
    6.0000    2.5981    0.0000 C   0  0  0  0  0  0  0  0  0  0  0  0
    5.2500    3.8971    0.0000 C   0  0  0  0  0  0  0  0  0  0  0  0
    3.7500    3.8971    0.0000 C   0  0  0  0  0  0  0  0  0  0  0  0
   -0.7500    1.2990    0.0000 N   0  0  0  0  0  0  0  0  0  0  0  0
   -1.5000    0.0000    0.0000 C   0  0  0  0  0  0  0  0  0  0  0  0
   -0.7500   -1.2990    0.0000 C   0  0  0  0  0  0  0  0  0  0  0  0
   -1.5000   -2.5981    0.0000 C   0  0  0  0  0  0  0  0  0  0  0  0
   -0.7500   -3.8971    0.0000 C   0  0  0  0  0  0  0  0  0  0  0  0
  1  2  1  0
  2  3  1  0
  3  4  2  0
  4  5  1  0
  5  6  2  0
  5  7  1  0
  7  8  1  0
  8  9  2  0
  9 10  1  0
 10 11  2  0
 11 12  1  0
 12 13  2  0
  4 14  1  0
 14 15  2  0
 15 16  1  0
 16 17  2  0
 17 18  1  0
 18 19  1  0
 19 20  1  0
 20 21  2  0
 21 22  1  0
 22 23  2  0
 23 24  1  0
 24 25  2  0
 18 26  2  0
 26 27  1  0
 27 28  2  0
 28 29  1  0
 29 30  1  0
 15  2  1  0
 28 16  1  0
 13  8  1  0
 30 14  1  0
 25 20  1  0
M  END
>  <Compound_ID>  (349) 
CHEMBL563150

>  <Active>  (349) 
1

>  <Smiles>  (349) 
Cn1nc(C(=O)Nc2ccccc2)c2c1-c1nc(Nc3ccccc3)ncc1CC2

>  <canonical_smi>  (349) 
Cn1nc(C(=O)Nc2ccccc2)c2c1-c1nc(Nc3ccccc3)ncc1CC2

>  <Set>  (349) 
G2 active

>  <Set_type>  (349) 
Train

>  <MW>  (349) 
396.45

>  <HBD>  (349) 
2

>  <HBA>  (349) 
5

>  <NRB>  (349) 
4

>  <NR>  (349) 
5

>  <NAR>  (349) 
4

>  <PSA>  (349) 
84.73

>  <Standard Type>  (349) 
nan

>  <Standard Relation>  (349) 
nan

>  <Standard Units>  (349) 
nan

>  <Standard Value>  (349) 
nan

>  <Assay ChEMBL ID>  (349) 
nan

>  <Assay Description>  (349) 
nan

>  <BAO Label>  (349) 
nan

$$$$

     RDKit          2D

 27 31  0  0  0  0  0  0  0  0999 V2000
   -2.6401   -3.1891    0.0000 C   0  0  0  0  0  0  0  0  0  0  0  0
   -1.2135   -2.7256    0.0000 N   0  0  0  0  0  0  0  0  0  0  0  0
   -0.0000   -3.6073    0.0000 C   0  0  0  0  0  0  0  0  0  0  0  0
    1.2135   -2.7256    0.0000 C   0  0  0  0  0  0  0  0  0  0  0  0
    2.6401   -3.1891    0.0000 C   0  0  0  0  0  0  0  0  0  0  0  0
    3.8536   -2.3075    0.0000 C   0  0  0  0  0  0  0  0  0  0  0  0
    3.8536   -0.8075    0.0000 C   0  0  0  0  0  0  0  0  0  0  0  0
    2.6401    0.0742    0.0000 C   0  0  0  0  0  0  0  0  0  0  0  0
    3.1036    1.5008    0.0000 N   0  0  0  0  0  0  0  0  0  0  0  0
    2.2220    2.7143    0.0000 C   0  0  0  0  0  0  0  0  0  0  0  0
    4.6036    1.5008    0.0000 C   0  0  0  0  0  0  0  0  0  0  0  0
    5.6073    2.6155    0.0000 C   0  0  0  0  0  0  0  0  0  0  0  0
    7.0746    2.3036    0.0000 C   0  0  0  0  0  0  0  0  0  0  0  0
    7.5381    0.8771    0.0000 C   0  0  0  0  0  0  0  0  0  0  0  0
    6.5344   -0.2377    0.0000 C   0  0  0  0  0  0  0  0  0  0  0  0
    5.0672    0.0742    0.0000 C   0  0  0  0  0  0  0  0  0  0  0  0
    5.0672   -3.1891    0.0000 C   0  0  0  0  0  0  0  0  0  0  0  0
    6.4937   -2.7256    0.0000 O   0  0  0  0  0  0  0  0  0  0  0  0
    4.6036   -4.6157    0.0000 N   0  0  0  0  0  0  0  0  0  0  0  0
    3.1036   -4.6157    0.0000 C   0  0  0  0  0  0  0  0  0  0  0  0
    2.2220   -5.8293    0.0000 O   0  0  0  0  0  0  0  0  0  0  0  0
    0.7500   -1.2990    0.0000 C   0  0  0  0  0  0  0  0  0  0  0  0
    1.5000    0.0000    0.0000 C   0  0  0  0  0  0  0  0  0  0  0  0
    0.7500    1.2990    0.0000 C   0  0  0  0  0  0  0  0  0  0  0  0
   -0.7500    1.2990    0.0000 C   0  0  0  0  0  0  0  0  0  0  0  0
   -1.5000    0.0000    0.0000 C   0  0  0  0  0  0  0  0  0  0  0  0
   -0.7500   -1.2990    0.0000 C   0  0  0  0  0  0  0  0  0  0  0  0
  1  2  1  0
  2  3  1  0
  3  4  2  0
  4  5  1  0
  5  6  2  0
  6  7  1  0
  7  8  2  0
  8  9  1  0
  9 10  1  0
  9 11  1  0
 11 12  2  0
 12 13  1  0
 13 14  2  0
 14 15  1  0
 15 16  2  0
  6 17  1  0
 17 18  2  0
 17 19  1  0
 19 20  1  0
 20 21  2  0
  4 22  1  0
 22 23  2  0
 23 24  1  0
 24 25  2  0
 25 26  1  0
 26 27  2  0
 27  2  1  0
 20  5  1  0
 27 22  1  0
 16  7  1  0
 16 11  1  0
M  END
>  <Compound_ID>  (350) 
CHEMBL301515

>  <Active>  (350) 
1

>  <Smiles>  (350) 
Cn1cc(C2=C(c3cn(C)c4ccccc34)C(=O)NC2=O)c2ccccc21

>  <canonical_smi>  (350) 
Cn1cc(C2=C(c3cn(C)c4ccccc34)C(=O)NC2=O)c2ccccc21

>  <Set>  (350) 
G2 active

>  <Set_type>  (350) 
Train

>  <MW>  (350) 
355.4

>  <HBD>  (350) 
1

>  <HBA>  (350) 
2

>  <NRB>  (350) 
2

>  <NR>  (350) 
5

>  <NAR>  (350) 
4

>  <PSA>  (350) 
56.03

>  <Standard Type>  (350) 
nan

>  <Standard Relation>  (350) 
nan

>  <Standard Units>  (350) 
nan

>  <Standard Value>  (350) 
nan

>  <Assay ChEMBL ID>  (350) 
nan

>  <Assay Description>  (350) 
nan

>  <BAO Label>  (350) 
nan

$$$$

     RDKit          2D

 31 34  0  0  0  0  0  0  0  0999 V2000
   -2.9520   -4.6564    0.0000 C   0  0  0  0  0  0  0  0  0  0  0  0
   -2.6401   -3.1891    0.0000 C   0  0  0  0  0  0  0  0  0  0  0  0
   -1.2135   -2.7256    0.0000 C   0  0  0  0  0  0  0  0  0  0  0  0
   -0.0000   -3.6073    0.0000 N   0  0  0  0  0  0  0  0  0  0  0  0
    1.2135   -2.7256    0.0000 N   0  0  0  0  0  0  0  0  0  0  0  0
    2.6401   -3.1891    0.0000 C   0  0  0  0  0  0  0  0  0  0  0  0
    2.9520   -4.6564    0.0000 C   0  0  0  0  0  0  0  0  0  0  0  0
    1.8373   -5.6601    0.0000 Cl  0  0  0  0  0  0  0  0  0  0  0  0
    4.3786   -5.1199    0.0000 C   0  0  0  0  0  0  0  0  0  0  0  0
    5.4933   -4.1162    0.0000 C   0  0  0  0  0  0  0  0  0  0  0  0
    6.9199   -4.5797    0.0000 Cl  0  0  0  0  0  0  0  0  0  0  0  0
    5.1814   -2.6490    0.0000 C   0  0  0  0  0  0  0  0  0  0  0  0
    3.7548   -2.1855    0.0000 C   0  0  0  0  0  0  0  0  0  0  0  0
    3.4430   -0.7182    0.0000 Cl  0  0  0  0  0  0  0  0  0  0  0  0
    0.7500   -1.2990    0.0000 C   0  0  0  0  0  0  0  0  0  0  0  0
    1.5000    0.0000    0.0000 N   0  0  0  0  0  0  0  0  0  0  0  0
    0.7500    1.2990    0.0000 C   0  0  0  0  0  0  0  0  0  0  0  0
    1.5000    2.5981    0.0000 C   0  0  0  0  0  0  0  0  0  0  0  0
    3.0000    2.5981    0.0000 C   0  0  0  0  0  0  0  0  0  0  0  0
    3.7500    3.8971    0.0000 C   0  0  0  0  0  0  0  0  0  0  0  0
    3.0000    5.1962    0.0000 C   0  0  0  0  0  0  0  0  0  0  0  0
    3.7500    6.4952    0.0000 O   0  0  0  0  0  0  0  0  0  0  0  0
    5.2500    6.4952    0.0000 C   0  0  0  0  0  0  0  0  0  0  0  0
    1.5000    5.1962    0.0000 C   0  0  0  0  0  0  0  0  0  0  0  0
    0.7500    6.4952    0.0000 O   0  0  0  0  0  0  0  0  0  0  0  0
   -0.7500    6.4952    0.0000 C   0  0  0  0  0  0  0  0  0  0  0  0
    0.7500    3.8971    0.0000 C   0  0  0  0  0  0  0  0  0  0  0  0
   -0.7500    1.2990    0.0000 N   0  0  0  0  0  0  0  0  0  0  0  0
   -1.5000    0.0000    0.0000 C   0  0  0  0  0  0  0  0  0  0  0  0
   -3.0000    0.0000    0.0000 O   0  0  0  0  0  0  0  0  0  0  0  0
   -0.7500   -1.2990    0.0000 C   0  0  0  0  0  0  0  0  0  0  0  0
  1  2  1  0
  2  3  1  0
  3  4  2  0
  4  5  1  0
  5  6  1  0
  6  7  2  0
  7  8  1  0
  7  9  1  0
  9 10  2  0
 10 11  1  0
 10 12  1  0
 12 13  2  0
 13 14  1  0
  5 15  1  0
 15 16  2  0
 16 17  1  0
 17 18  1  0
 18 19  2  0
 19 20  1  0
 20 21  2  0
 21 22  1  0
 22 23  1  0
 21 24  1  0
 24 25  1  0
 25 26  1  0
 24 27  2  0
 17 28  2  0
 28 29  1  0
 29 30  1  0
 29 31  2  0
 31  3  1  0
 13  6  1  0
 31 15  1  0
 27 18  1  0
M  END
>  <Compound_ID>  (351) 
CHEMBL191519

>  <Active>  (351) 
1

>  <Smiles>  (351) 
CCc1nn(-c2c(Cl)cc(Cl)cc2Cl)c2nc(-c3ccc(OC)c(OC)c3)nc(O)c12

>  <canonical_smi>  (351) 
CCc1nn(-c2c(Cl)cc(Cl)cc2Cl)c2nc(-c3ccc(OC)c(OC)c3)nc(O)c12

>  <Set>  (351) 
G2 active

>  <Set_type>  (351) 
Train

>  <MW>  (351) 
479.75

>  <HBD>  (351) 
1

>  <HBA>  (351) 
6

>  <NRB>  (351) 
5

>  <NR>  (351) 
4

>  <NAR>  (351) 
4

>  <PSA>  (351) 
82.29

>  <Standard Type>  (351) 
nan

>  <Standard Relation>  (351) 
nan

>  <Standard Units>  (351) 
nan

>  <Standard Value>  (351) 
nan

>  <Assay ChEMBL ID>  (351) 
nan

>  <Assay Description>  (351) 
nan

>  <BAO Label>  (351) 
nan

$$$$

     RDKit          2D

 24 27  0  0  0  0  0  0  0  0999 V2000
    3.0000    0.0000    0.0000 O   0  0  0  0  0  0  0  0  0  0  0  0
    1.5000    0.0000    0.0000 C   0  0  0  0  0  0  0  0  0  0  0  0
    0.7500   -1.2990    0.0000 C   0  0  0  0  0  0  0  0  0  0  0  0
   -0.7500   -1.2990    0.0000 C   0  0  0  0  0  0  0  0  0  0  0  0
   -1.5000    0.0000    0.0000 C   0  0  0  0  0  0  0  0  0  0  0  0
   -3.0000    0.0000    0.0000 C   0  0  0  0  0  0  0  0  0  0  0  0
   -3.8817   -1.2135    0.0000 N   0  0  0  0  0  0  0  0  0  0  0  0
   -5.3083   -0.7500    0.0000 N   0  0  0  0  0  0  0  0  0  0  0  0
   -5.3083    0.7500    0.0000 C   0  0  0  0  0  0  0  0  0  0  0  0
   -3.8817    1.2135    0.0000 C   0  0  0  0  0  0  0  0  0  0  0  0
   -3.4182    2.6401    0.0000 C   0  0  0  0  0  0  0  0  0  0  0  0
   -1.9509    2.9520    0.0000 C   0  0  0  0  0  0  0  0  0  0  0  0
   -1.4874    4.3786    0.0000 C   0  0  0  0  0  0  0  0  0  0  0  0
   -2.4911    5.4933    0.0000 N   0  0  0  0  0  0  0  0  0  0  0  0
   -3.9583    5.1814    0.0000 C   0  0  0  0  0  0  0  0  0  0  0  0
   -4.9620    6.2961    0.0000 N   0  0  0  0  0  0  0  0  0  0  0  0
   -4.4985    7.7227    0.0000 C   0  0  0  0  0  0  0  0  0  0  0  0
   -5.3802    8.9362    0.0000 C   0  0  0  0  0  0  0  0  0  0  0  0
   -4.4985   10.1498    0.0000 C   0  0  0  0  0  0  0  0  0  0  0  0
   -3.0719    9.6862    0.0000 C   0  0  0  0  0  0  0  0  0  0  0  0
   -3.0719    8.1862    0.0000 C   0  0  0  0  0  0  0  0  0  0  0  0
   -4.4218    3.7548    0.0000 N   0  0  0  0  0  0  0  0  0  0  0  0
   -0.7500    1.2990    0.0000 C   0  0  0  0  0  0  0  0  0  0  0  0
    0.7500    1.2990    0.0000 C   0  0  0  0  0  0  0  0  0  0  0  0
  1  2  1  0
  2  3  1  0
  3  4  1  0
  4  5  1  0
  5  6  1  0
  6  7  2  0
  7  8  1  0
  8  9  1  0
  9 10  2  0
 10 11  1  0
 11 12  2  0
 12 13  1  0
 13 14  2  0
 14 15  1  0
 15 16  1  0
 16 17  1  0
 17 18  1  0
 18 19  1  0
 19 20  1  0
 20 21  1  0
 15 22  2  0
  5 23  1  0
 23 24  1  0
 24  2  1  0
 10  6  1  0
 22 11  1  0
 21 17  1  0
M  END
>  <Compound_ID>  (352) 
CHEMBL507249

>  <Active>  (352) 
1

>  <Smiles>  (352) 
OC1CCC(c2n[nH]cc2-c2ccnc(NC3CCCC3)n2)CC1

>  <canonical_smi>  (352) 
OC1CCC(c2n[nH]cc2-c2ccnc(NC3CCCC3)n2)CC1

>  <Set>  (352) 
G2 active

>  <Set_type>  (352) 
Train

>  <MW>  (352) 
327.43

>  <HBD>  (352) 
3

>  <HBA>  (352) 
5

>  <NRB>  (352) 
4

>  <NR>  (352) 
4

>  <NAR>  (352) 
2

>  <PSA>  (352) 
86.72

>  <Standard Type>  (352) 
nan

>  <Standard Relation>  (352) 
nan

>  <Standard Units>  (352) 
nan

>  <Standard Value>  (352) 
nan

>  <Assay ChEMBL ID>  (352) 
nan

>  <Assay Description>  (352) 
nan

>  <BAO Label>  (352) 
nan

$$$$

     RDKit          2D

 32 35  0  0  0  0  0  0  0  0999 V2000
    3.5260    1.2990    0.0000 C   0  0  0  0  0  0  0  0  0  0  0  0
    2.7760    0.0000    0.0000 C   0  0  0  0  0  0  0  0  0  0  0  0
    3.5260   -1.2990    0.0000 C   0  0  0  0  0  0  0  0  0  0  0  0
    1.2760    0.0000    0.0000 N   0  0  0  0  0  0  0  0  0  0  0  0
    0.3943    1.2135    0.0000 C   0  0  0  0  0  0  0  0  0  0  0  0
   -1.0323    0.7500    0.0000 N   0  0  0  0  0  0  0  0  0  0  0  0
   -1.0323   -0.7500    0.0000 C   0  0  0  0  0  0  0  0  0  0  0  0
   -2.1470   -1.7537    0.0000 C   0  0  0  0  0  0  0  0  0  0  0  0
   -3.5736   -1.2902    0.0000 N   0  0  0  0  0  0  0  0  0  0  0  0
   -4.6883   -2.2939    0.0000 C   0  0  0  0  0  0  0  0  0  0  0  0
   -6.1149   -1.8303    0.0000 C   0  0  0  0  0  0  0  0  0  0  0  0
   -7.2296   -2.8340    0.0000 C   0  0  0  0  0  0  0  0  0  0  0  0
   -6.9177   -4.3013    0.0000 C   0  0  0  0  0  0  0  0  0  0  0  0
   -8.0325   -5.3050    0.0000 C   0  0  0  0  0  0  0  0  0  0  0  0
   -9.4590   -4.8414    0.0000 C   0  0  0  0  0  0  0  0  0  0  0  0
  -10.5738   -5.8451    0.0000 C   0  0  0  0  0  0  0  0  0  0  0  0
  -10.2619   -7.3123    0.0000 C   0  0  0  0  0  0  0  0  0  0  0  0
   -8.8353   -7.7759    0.0000 C   0  0  0  0  0  0  0  0  0  0  0  0
   -7.7206   -6.7722    0.0000 C   0  0  0  0  0  0  0  0  0  0  0  0
   -5.4912   -4.7648    0.0000 C   0  0  0  0  0  0  0  0  0  0  0  0
   -4.3764   -3.7611    0.0000 C   0  0  0  0  0  0  0  0  0  0  0  0
   -1.8351   -3.2209    0.0000 N   0  0  0  0  0  0  0  0  0  0  0  0
   -0.4086   -3.6844    0.0000 C   0  0  0  0  0  0  0  0  0  0  0  0
   -0.0967   -5.1517    0.0000 N   0  0  0  0  0  0  0  0  0  0  0  0
   -1.2114   -6.1554    0.0000 C   0  0  0  0  0  0  0  0  0  0  0  0
   -0.8995   -7.6226    0.0000 C   0  0  0  0  0  0  0  0  0  0  0  0
   -2.0143   -8.6263    0.0000 O   0  0  0  0  0  0  0  0  0  0  0  0
    1.3299   -5.6152    0.0000 C   0  0  0  0  0  0  0  0  0  0  0  0
    1.6418   -7.0824    0.0000 C   0  0  0  0  0  0  0  0  0  0  0  0
    3.0684   -7.5459    0.0000 O   0  0  0  0  0  0  0  0  0  0  0  0
    0.7062   -2.6807    0.0000 N   0  0  0  0  0  0  0  0  0  0  0  0
    0.3943   -1.2135    0.0000 C   0  0  0  0  0  0  0  0  0  0  0  0
  1  2  1  0
  2  3  1  0
  2  4  1  0
  4  5  1  0
  5  6  2  0
  6  7  1  0
  7  8  2  0
  8  9  1  0
  9 10  1  0
 10 11  2  0
 11 12  1  0
 12 13  2  0
 13 14  1  0
 14 15  2  0
 15 16  1  0
 16 17  2  0
 17 18  1  0
 18 19  2  0
 13 20  1  0
 20 21  2  0
  8 22  1  0
 22 23  2  0
 23 24  1  0
 24 25  1  0
 25 26  1  0
 26 27  1  0
 24 28  1  0
 28 29  1  0
 29 30  1  0
 23 31  1  0
 31 32  2  0
 32  4  1  0
 32  7  1  0
 21 10  1  0
 19 14  1  0
M  END
>  <Compound_ID>  (353) 
CHEMBL93892

>  <Active>  (353) 
1

>  <Smiles>  (353) 
CC(C)n1cnc2c(Nc3ccc(-c4ccccc4)cc3)nc(N(CCO)CCO)nc21

>  <canonical_smi>  (353) 
CC(C)n1cnc2c(Nc3ccc(-c4ccccc4)cc3)nc(N(CCO)CCO)nc21

>  <Set>  (353) 
G2 active

>  <Set_type>  (353) 
Train

>  <MW>  (353) 
432.53

>  <HBD>  (353) 
3

>  <HBA>  (353) 
7

>  <NRB>  (353) 
9

>  <NR>  (353) 
4

>  <NAR>  (353) 
4

>  <PSA>  (353) 
99.33

>  <Standard Type>  (353) 
nan

>  <Standard Relation>  (353) 
nan

>  <Standard Units>  (353) 
nan

>  <Standard Value>  (353) 
nan

>  <Assay ChEMBL ID>  (353) 
nan

>  <Assay Description>  (353) 
nan

>  <BAO Label>  (353) 
nan

$$$$

     RDKit          2D

 32 35  0  0  0  0  0  0  0  0999 V2000
    3.5260    1.2990    0.0000 C   0  0  0  0  0  0  0  0  0  0  0  0
    2.7760    0.0000    0.0000 C   0  0  0  0  0  0  0  0  0  0  0  0
    3.5260   -1.2990    0.0000 C   0  0  0  0  0  0  0  0  0  0  0  0
    1.2760    0.0000    0.0000 N   0  0  0  0  0  0  0  0  0  0  0  0
    0.3943    1.2135    0.0000 C   0  0  0  0  0  0  0  0  0  0  0  0
   -1.0323    0.7500    0.0000 N   0  0  0  0  0  0  0  0  0  0  0  0
   -1.0323   -0.7500    0.0000 C   0  0  0  0  0  0  0  0  0  0  0  0
   -2.1470   -1.7537    0.0000 C   0  0  0  0  0  0  0  0  0  0  0  0
   -3.5736   -1.2902    0.0000 N   0  0  0  0  0  0  0  0  0  0  0  0
   -4.6883   -2.2939    0.0000 C   0  0  0  0  0  0  0  0  0  0  0  0
   -6.1149   -1.8303    0.0000 C   0  0  0  0  0  0  0  0  0  0  0  0
   -6.4268   -0.3631    0.0000 C   0  0  0  0  0  0  0  0  0  0  0  0
   -7.8533    0.1004    0.0000 C   0  0  0  0  0  0  0  0  0  0  0  0
   -8.9681   -0.9033    0.0000 C   0  0  0  0  0  0  0  0  0  0  0  0
  -10.3946   -0.4398    0.0000 C   0  0  0  0  0  0  0  0  0  0  0  0
  -11.6082   -1.3214    0.0000 C   0  0  0  0  0  0  0  0  0  0  0  0
  -12.8217   -0.4398    0.0000 C   0  0  0  0  0  0  0  0  0  0  0  0
  -12.3582    0.9868    0.0000 C   0  0  0  0  0  0  0  0  0  0  0  0
  -10.8582    0.9868    0.0000 S   0  0  0  0  0  0  0  0  0  0  0  0
   -8.6562   -2.3705    0.0000 C   0  0  0  0  0  0  0  0  0  0  0  0
   -7.2296   -2.8340    0.0000 C   0  0  0  0  0  0  0  0  0  0  0  0
   -1.8351   -3.2209    0.0000 N   0  0  0  0  0  0  0  0  0  0  0  0
   -0.4086   -3.6844    0.0000 C   0  0  0  0  0  0  0  0  0  0  0  0
   -0.0967   -5.1517    0.0000 N   0  0  0  0  0  0  0  0  0  0  0  0
   -1.2114   -6.1554    0.0000 C   0  0  0  0  0  0  0  0  0  0  0  0
   -0.8995   -7.6226    0.0000 C   0  0  0  0  0  0  0  0  0  0  0  0
   -2.0143   -8.6263    0.0000 O   0  0  0  0  0  0  0  0  0  0  0  0
    1.3299   -5.6152    0.0000 C   0  0  0  0  0  0  0  0  0  0  0  0
    1.6418   -7.0824    0.0000 C   0  0  0  0  0  0  0  0  0  0  0  0
    3.0684   -7.5459    0.0000 O   0  0  0  0  0  0  0  0  0  0  0  0
    0.7062   -2.6807    0.0000 N   0  0  0  0  0  0  0  0  0  0  0  0
    0.3943   -1.2135    0.0000 C   0  0  0  0  0  0  0  0  0  0  0  0
  1  2  1  0
  2  3  1  0
  2  4  1  0
  4  5  1  0
  5  6  2  0
  6  7  1  0
  7  8  2  0
  8  9  1  0
  9 10  1  0
 10 11  1  0
 11 12  2  0
 12 13  1  0
 13 14  2  0
 14 15  1  0
 15 16  2  0
 16 17  1  0
 17 18  2  0
 18 19  1  0
 14 20  1  0
 20 21  2  0
  8 22  1  0
 22 23  2  0
 23 24  1  0
 24 25  1  0
 25 26  1  0
 26 27  1  0
 24 28  1  0
 28 29  1  0
 29 30  1  0
 23 31  1  0
 31 32  2  0
 32  4  1  0
 32  7  1  0
 21 11  1  0
 19 15  1  0
M  END
>  <Compound_ID>  (354) 
CHEMBL90941

>  <Active>  (354) 
1

>  <Smiles>  (354) 
CC(C)n1cnc2c(NCc3ccc(-c4cccs4)cc3)nc(N(CCO)CCO)nc21

>  <canonical_smi>  (354) 
CC(C)n1cnc2c(NCc3ccc(-c4cccs4)cc3)nc(N(CCO)CCO)nc21

>  <Set>  (354) 
G2 active

>  <Set_type>  (354) 
Train

>  <MW>  (354) 
452.58

>  <HBD>  (354) 
3

>  <HBA>  (354) 
7

>  <NRB>  (354) 
10

>  <NR>  (354) 
4

>  <NAR>  (354) 
4

>  <PSA>  (354) 
99.33

>  <Standard Type>  (354) 
nan

>  <Standard Relation>  (354) 
nan

>  <Standard Units>  (354) 
nan

>  <Standard Value>  (354) 
nan

>  <Assay ChEMBL ID>  (354) 
nan

>  <Assay Description>  (354) 
nan

>  <BAO Label>  (354) 
nan

$$$$

     RDKit          2D

 32 35  0  0  0  0  0  0  0  0999 V2000
    3.5260    1.2990    0.0000 C   0  0  0  0  0  0  0  0  0  0  0  0
    2.7760    0.0000    0.0000 C   0  0  0  0  0  0  0  0  0  0  0  0
    3.5260   -1.2990    0.0000 C   0  0  0  0  0  0  0  0  0  0  0  0
    1.2760    0.0000    0.0000 N   0  0  0  0  0  0  0  0  0  0  0  0
    0.3943    1.2135    0.0000 C   0  0  0  0  0  0  0  0  0  0  0  0
   -1.0323    0.7500    0.0000 N   0  0  0  0  0  0  0  0  0  0  0  0
   -1.0323   -0.7500    0.0000 C   0  0  0  0  0  0  0  0  0  0  0  0
   -2.1470   -1.7537    0.0000 C   0  0  0  0  0  0  0  0  0  0  0  0
   -3.5736   -1.2902    0.0000 N   0  0  0  0  0  0  0  0  0  0  0  0
   -4.6883   -2.2939    0.0000 C   0  0  0  0  0  0  0  0  0  0  0  0
   -6.1149   -1.8303    0.0000 C   0  0  0  0  0  0  0  0  0  0  0  0
   -6.4268   -0.3631    0.0000 C   0  0  0  0  0  0  0  0  0  0  0  0
   -7.8533    0.1004    0.0000 C   0  0  0  0  0  0  0  0  0  0  0  0
   -8.9681   -0.9033    0.0000 C   0  0  0  0  0  0  0  0  0  0  0  0
  -10.3946   -0.4398    0.0000 C   0  0  0  0  0  0  0  0  0  0  0  0
  -10.7065    1.0275    0.0000 C   0  0  0  0  0  0  0  0  0  0  0  0
  -12.1331    1.4910    0.0000 C   0  0  0  0  0  0  0  0  0  0  0  0
  -13.2478    0.4873    0.0000 C   0  0  0  0  0  0  0  0  0  0  0  0
  -12.9359   -0.9799    0.0000 C   0  0  0  0  0  0  0  0  0  0  0  0
  -11.5094   -1.4435    0.0000 C   0  0  0  0  0  0  0  0  0  0  0  0
   -8.6562   -2.3705    0.0000 C   0  0  0  0  0  0  0  0  0  0  0  0
   -7.2296   -2.8340    0.0000 C   0  0  0  0  0  0  0  0  0  0  0  0
   -1.8351   -3.2209    0.0000 N   0  0  0  0  0  0  0  0  0  0  0  0
   -0.4086   -3.6844    0.0000 C   0  0  0  0  0  0  0  0  0  0  0  0
   -0.0967   -5.1517    0.0000 N   0  0  0  0  0  0  0  0  0  0  0  0
   -1.2114   -6.1554    0.0000 C   0  0  0  0  0  0  0  0  0  0  0  0
   -0.8995   -7.6226    0.0000 C   0  0  0  0  0  0  0  0  0  0  0  0
    0.5271   -8.0861    0.0000 O   0  0  0  0  0  0  0  0  0  0  0  0
   -2.0143   -8.6263    0.0000 C   0  0  0  0  0  0  0  0  0  0  0  0
   -1.7024  -10.0935    0.0000 O   0  0  0  0  0  0  0  0  0  0  0  0
    0.7062   -2.6807    0.0000 N   0  0  0  0  0  0  0  0  0  0  0  0
    0.3943   -1.2135    0.0000 C   0  0  0  0  0  0  0  0  0  0  0  0
  1  2  1  0
  2  3  1  0
  2  4  1  0
  4  5  1  0
  5  6  2  0
  6  7  1  0
  7  8  2  0
  8  9  1  0
  9 10  1  0
 10 11  1  0
 11 12  2  0
 12 13  1  0
 13 14  2  0
 14 15  1  0
 15 16  2  0
 16 17  1  0
 17 18  2  0
 18 19  1  0
 19 20  2  0
 14 21  1  0
 21 22  2  0
  8 23  1  0
 23 24  2  0
 24 25  1  0
 25 26  1  0
 26 27  1  0
 27 28  1  0
 27 29  1  0
 29 30  1  0
 24 31  1  0
 31 32  2  0
 32  4  1  0
 32  7  1  0
 22 11  1  0
 20 15  1  0
M  END
>  <Compound_ID>  (355) 
CHEMBL92288

>  <Active>  (355) 
1

>  <Smiles>  (355) 
CC(C)n1cnc2c(NCc3ccc(-c4ccccc4)cc3)nc(NCC(O)CO)nc21

>  <canonical_smi>  (355) 
CC(C)n1cnc2c(NCc3ccc(-c4ccccc4)cc3)nc(NCC(O)CO)nc21

>  <Set>  (355) 
G2 active

>  <Set_type>  (355) 
Train

>  <MW>  (355) 
432.53

>  <HBD>  (355) 
4

>  <HBA>  (355) 
7

>  <NRB>  (355) 
9

>  <NR>  (355) 
4

>  <NAR>  (355) 
4

>  <PSA>  (355) 
108.12

>  <Standard Type>  (355) 
nan

>  <Standard Relation>  (355) 
nan

>  <Standard Units>  (355) 
nan

>  <Standard Value>  (355) 
nan

>  <Assay ChEMBL ID>  (355) 
nan

>  <Assay Description>  (355) 
nan

>  <BAO Label>  (355) 
nan

$$$$

     RDKit          2D

 26 28  0  0  0  0  0  0  0  0999 V2000
   -5.0490   -3.1471    0.0000 C   0  0  0  0  0  0  0  0  0  0  0  0
   -3.7500   -3.8971    0.0000 C   0  0  0  0  0  0  0  0  0  0  0  0
   -2.4510   -4.6471    0.0000 C   0  0  0  0  0  0  0  0  0  0  0  0
   -4.5000   -5.1962    0.0000 C   0  0  0  0  0  0  0  0  0  0  0  0
   -3.0000   -2.5981    0.0000 N   0  0  0  0  0  0  0  0  0  0  0  0
   -1.5000   -2.5981    0.0000 C   0  0  0  0  0  0  0  0  0  0  0  0
   -0.7500   -3.8971    0.0000 N   0  0  0  0  0  0  0  0  0  0  0  0
    0.7500   -3.8971    0.0000 C   0  0  0  0  0  0  0  0  0  0  0  0
    1.5000   -5.1962    0.0000 C   0  0  0  0  0  0  0  0  0  0  0  0
    2.2500   -6.4952    0.0000 F   0  0  0  0  0  0  0  0  0  0  0  0
    0.2010   -5.9462    0.0000 F   0  0  0  0  0  0  0  0  0  0  0  0
    2.7990   -4.4462    0.0000 F   0  0  0  0  0  0  0  0  0  0  0  0
    1.5000   -2.5981    0.0000 N   0  0  0  0  0  0  0  0  0  0  0  0
    0.7500   -1.2990    0.0000 C   0  0  0  0  0  0  0  0  0  0  0  0
    1.5000    0.0000    0.0000 C   0  0  0  0  0  0  0  0  0  0  0  0
    0.7500    1.2990    0.0000 C   0  0  0  0  0  0  0  0  0  0  0  0
   -0.7500    1.2990    0.0000 C   0  0  0  0  0  0  0  0  0  0  0  0
   -1.5000    2.5981    0.0000 C   0  0  0  0  0  0  0  0  0  0  0  0
   -0.7500    3.8971    0.0000 C   0  0  0  0  0  0  0  0  0  0  0  0
   -1.5000    5.1962    0.0000 C   0  0  0  0  0  0  0  0  0  0  0  0
   -3.0000    5.1962    0.0000 C   0  0  0  0  0  0  0  0  0  0  0  0
   -3.7500    3.8971    0.0000 C   0  0  0  0  0  0  0  0  0  0  0  0
   -5.2500    3.8971    0.0000 N   0  0  0  0  0  0  0  0  0  0  0  0
   -3.0000    2.5981    0.0000 C   0  0  0  0  0  0  0  0  0  0  0  0
   -1.5000    0.0000    0.0000 C   0  0  0  0  0  0  0  0  0  0  0  0
   -0.7500   -1.2990    0.0000 C   0  0  0  0  0  0  0  0  0  0  0  0
  1  2  1  0
  2  3  1  0
  2  4  1  0
  2  5  1  0
  5  6  1  0
  6  7  2  0
  7  8  1  0
  8  9  1  0
  9 10  1  0
  9 11  1  0
  9 12  1  0
  8 13  2  0
 13 14  1  0
 14 15  2  0
 15 16  1  0
 16 17  2  0
 17 18  1  0
 18 19  2  0
 19 20  1  0
 20 21  2  0
 21 22  1  0
 22 23  1  0
 22 24  2  0
 17 25  1  0
 25 26  2  0
 26  6  1  0
 26 14  1  0
 24 18  1  0
M  END
>  <Compound_ID>  (356) 
CHEMBL278894

>  <Active>  (356) 
1

>  <Smiles>  (356) 
CC(C)(C)Nc1nc(C(F)(F)F)nc2ccc(-c3cccc(N)c3)cc12

>  <canonical_smi>  (356) 
CC(C)(C)Nc1nc(C(F)(F)F)nc2ccc(-c3cccc(N)c3)cc12

>  <Set>  (356) 
G2 active

>  <Set_type>  (356) 
Train

>  <MW>  (356) 
360.38

>  <HBD>  (356) 
2

>  <HBA>  (356) 
4

>  <NRB>  (356) 
2

>  <NR>  (356) 
3

>  <NAR>  (356) 
3

>  <PSA>  (356) 
63.83

>  <Standard Type>  (356) 
nan

>  <Standard Relation>  (356) 
nan

>  <Standard Units>  (356) 
nan

>  <Standard Value>  (356) 
nan

>  <Assay ChEMBL ID>  (356) 
nan

>  <Assay Description>  (356) 
nan

>  <BAO Label>  (356) 
nan

$$$$

     RDKit          2D

 28 31  0  0  0  0  0  0  0  0999 V2000
   -1.8836    6.6179    0.0000 C   0  0  0  0  0  0  0  0  0  0  0  0
   -3.3102    6.1544    0.0000 C   0  0  0  0  0  0  0  0  0  0  0  0
   -3.6221    4.6871    0.0000 N   0  0  0  0  0  0  0  0  0  0  0  0
   -5.0487    4.2236    0.0000 C   0  0  0  0  0  0  0  0  0  0  0  0
   -6.1634    5.2273    0.0000 O   0  0  0  0  0  0  0  0  0  0  0  0
   -5.3605    2.7564    0.0000 N   0  0  0  0  0  0  0  0  0  0  0  0
   -4.2458    1.7527    0.0000 C   0  0  0  0  0  0  0  0  0  0  0  0
   -4.5577    0.2855    0.0000 C   0  0  0  0  0  0  0  0  0  0  0  0
   -5.9843   -0.1781    0.0000 C   0  0  0  0  0  0  0  0  0  0  0  0
   -6.2961   -1.6453    0.0000 N   0  0  0  0  0  0  0  0  0  0  0  0
   -5.1814   -2.6490    0.0000 C   0  0  0  0  0  0  0  0  0  0  0  0
   -5.4933   -4.1162    0.0000 N   0  0  0  0  0  0  0  0  0  0  0  0
   -4.3786   -5.1199    0.0000 C   0  0  0  0  0  0  0  0  0  0  0  0
   -2.9520   -4.6564    0.0000 C   0  0  0  0  0  0  0  0  0  0  0  0
   -1.8373   -5.6601    0.0000 Cl  0  0  0  0  0  0  0  0  0  0  0  0
   -2.6401   -3.1891    0.0000 C   0  0  0  0  0  0  0  0  0  0  0  0
   -1.2135   -2.7256    0.0000 C   0  0  0  0  0  0  0  0  0  0  0  0
   -0.0000   -3.6073    0.0000 C   0  0  0  0  0  0  0  0  0  0  0  0
    1.2135   -2.7256    0.0000 N   0  0  0  0  0  0  0  0  0  0  0  0
    0.7500   -1.2990    0.0000 C   0  0  0  0  0  0  0  0  0  0  0  0
    1.5000    0.0000    0.0000 C   0  0  0  0  0  0  0  0  0  0  0  0
    0.7500    1.2990    0.0000 C   0  0  0  0  0  0  0  0  0  0  0  0
   -0.7500    1.2990    0.0000 C   0  0  0  0  0  0  0  0  0  0  0  0
   -1.5000    0.0000    0.0000 C   0  0  0  0  0  0  0  0  0  0  0  0
   -0.7500   -1.2990    0.0000 N   0  0  0  0  0  0  0  0  0  0  0  0
   -3.7548   -2.1855    0.0000 N   0  0  0  0  0  0  0  0  0  0  0  0
   -7.0990    0.8256    0.0000 C   0  0  0  0  0  0  0  0  0  0  0  0
   -6.7871    2.2929    0.0000 C   0  0  0  0  0  0  0  0  0  0  0  0
  1  2  1  0
  2  3  1  0
  3  4  1  0
  4  5  2  0
  4  6  1  0
  6  7  1  0
  7  8  1  0
  8  9  1  0
  9 10  1  0
 10 11  1  0
 11 12  2  0
 12 13  1  0
 13 14  2  0
 14 15  1  0
 14 16  1  0
 16 17  1  0
 17 18  2  0
 18 19  1  0
 19 20  2  0
 20 21  1  0
 21 22  2  0
 22 23  1  0
 23 24  2  0
 24 25  1  0
 16 26  2  0
  9 27  1  0
 27 28  1  0
 28  6  1  0
 26 11  1  0
 25 17  1  0
 25 20  1  0
M  END
>  <Compound_ID>  (357) 
CHEMBL397531

>  <Active>  (357) 
1

>  <Smiles>  (357) 
CCNC(=O)N1CCC(Nc2ncc(Cl)c(-c3cnc4ccccn34)n2)CC1

>  <canonical_smi>  (357) 
CCNC(=O)N1CCC(Nc2ncc(Cl)c(-c3cnc4ccccn34)n2)CC1

>  <Set>  (357) 
G2 active

>  <Set_type>  (357) 
Train

>  <MW>  (357) 
399.89

>  <HBD>  (357) 
2

>  <HBA>  (357) 
5

>  <NRB>  (357) 
4

>  <NR>  (357) 
4

>  <NAR>  (357) 
3

>  <PSA>  (357) 
87.45

>  <Standard Type>  (357) 
nan

>  <Standard Relation>  (357) 
nan

>  <Standard Units>  (357) 
nan

>  <Standard Value>  (357) 
nan

>  <Assay ChEMBL ID>  (357) 
nan

>  <Assay Description>  (357) 
nan

>  <BAO Label>  (357) 
nan

$$$$

     RDKit          2D

 31 33  0  0  0  0  0  0  0  0999 V2000
   11.8306   -3.9579    0.0000 C   0  0  0  0  0  0  0  0  0  0  0  0
   10.4603   -4.5680    0.0000 C   0  0  0  0  0  0  0  0  0  0  0  0
   10.3035   -6.0598    0.0000 O   0  0  0  0  0  0  0  0  0  0  0  0
    9.2468   -3.6863    0.0000 N   0  0  0  0  0  0  0  0  0  0  0  0
    7.8765   -4.2964    0.0000 C   0  0  0  0  0  0  0  0  0  0  0  0
    6.5774   -3.5464    0.0000 N   0  0  0  0  0  0  0  0  0  0  0  0
    5.4627   -4.5501    0.0000 C   0  0  0  0  0  0  0  0  0  0  0  0
    3.9955   -4.2382    0.0000 C   0  0  0  0  0  0  0  0  0  0  0  0
    2.9918   -5.3529    0.0000 C   0  0  0  0  0  0  0  0  0  0  0  0
    3.3037   -6.8202    0.0000 N   0  0  0  0  0  0  0  0  0  0  0  0
    2.0046   -7.5702    0.0000 N   0  0  0  0  0  0  0  0  0  0  0  0
    0.8899   -6.5665    0.0000 C   0  0  0  0  0  0  0  0  0  0  0  0
   -0.5773   -6.8783    0.0000 S   0  0  0  0  0  0  0  0  0  0  0  0
   -1.0409   -8.3049    0.0000 C   0  0  0  0  0  0  0  0  0  0  0  0
   -2.5081   -8.6168    0.0000 C   0  0  0  0  0  0  0  0  0  0  0  0
   -3.5118   -7.5021    0.0000 O   0  0  0  0  0  0  0  0  0  0  0  0
   -2.9716  -10.0434    0.0000 N   0  0  0  0  0  0  0  0  0  0  0  0
   -4.4388  -10.3552    0.0000 N   0  0  0  0  0  0  0  0  0  0  0  0
    1.5000   -5.1962    0.0000 N   0  0  0  0  0  0  0  0  0  0  0  0
    0.7500   -3.8971    0.0000 N   0  0  0  0  0  0  0  0  0  0  0  0
    1.5000   -2.5981    0.0000 C   0  0  0  0  0  0  0  0  0  0  0  0
    3.0000   -2.5981    0.0000 O   0  0  0  0  0  0  0  0  0  0  0  0
    0.7500   -1.2990    0.0000 C   0  0  0  0  0  0  0  0  0  0  0  0
    1.5000    0.0000    0.0000 C   0  0  0  0  0  0  0  0  0  0  0  0
    0.7500    1.2990    0.0000 C   0  0  0  0  0  0  0  0  0  0  0  0
   -0.7500    1.2990    0.0000 C   0  0  0  0  0  0  0  0  0  0  0  0
   -1.5000    2.5981    0.0000 Cl  0  0  0  0  0  0  0  0  0  0  0  0
   -1.5000    0.0000    0.0000 C   0  0  0  0  0  0  0  0  0  0  0  0
   -0.7500   -1.2990    0.0000 C   0  0  0  0  0  0  0  0  0  0  0  0
    6.0728   -5.9204    0.0000 C   0  0  0  0  0  0  0  0  0  0  0  0
    7.5646   -5.7636    0.0000 S   0  0  0  0  0  0  0  0  0  0  0  0
  1  2  1  0
  2  3  2  0
  2  4  1  0
  4  5  1  0
  5  6  2  0
  6  7  1  0
  7  8  1  0
  8  9  1  0
  9 10  2  0
 10 11  1  0
 11 12  2  0
 12 13  1  0
 13 14  1  0
 14 15  1  0
 15 16  2  0
 15 17  1  0
 17 18  1  0
 12 19  1  0
 19 20  1  0
 20 21  1  0
 21 22  2  0
 21 23  1  0
 23 24  2  0
 24 25  1  0
 25 26  2  0
 26 27  1  0
 26 28  1  0
 28 29  2  0
  7 30  2  0
 30 31  1  0
 31  5  1  0
 19  9  1  0
 29 23  1  0
M  END
>  <Compound_ID>  (358) 
CHEMBL233491

>  <Active>  (358) 
1

>  <Smiles>  (358) 
CC(=O)Nc1nc(Cc2nnc(SCC(=O)NN)n2NC(=O)c2ccc(Cl)cc2)cs1

>  <canonical_smi>  (358) 
CC(=O)Nc1nc(Cc2nnc(SCC(=O)NN)n2NC(=O)c2ccc(Cl)cc2)cs1

>  <Set>  (358) 
G2 active

>  <Set_type>  (358) 
Train

>  <MW>  (358) 
480.96

>  <HBD>  (358) 
4

>  <HBA>  (358) 
8

>  <NRB>  (358) 
8

>  <NR>  (358) 
3

>  <NAR>  (358) 
3

>  <PSA>  (358) 
156.92

>  <Standard Type>  (358) 
nan

>  <Standard Relation>  (358) 
nan

>  <Standard Units>  (358) 
nan

>  <Standard Value>  (358) 
nan

>  <Assay ChEMBL ID>  (358) 
nan

>  <Assay Description>  (358) 
nan

>  <BAO Label>  (358) 
nan

$$$$

     RDKit          2D

 22 24  0  0  0  0  0  0  0  0999 V2000
    3.0000    0.0000    0.0000 C   0  0  0  0  0  0  0  0  0  0  0  0
    1.5000    0.0000    0.0000 C   0  0  0  0  0  0  0  0  0  0  0  0
    0.7500   -1.2990    0.0000 C   0  0  0  0  0  0  0  0  0  0  0  0
   -0.7500   -1.2990    0.0000 C   0  0  0  0  0  0  0  0  0  0  0  0
   -1.5000   -2.5981    0.0000 N   0  0  0  0  0  0  0  0  0  0  0  0
   -1.5000    0.0000    0.0000 C   0  0  0  0  0  0  0  0  0  0  0  0
   -3.0000    0.0000    0.0000 O   0  0  0  0  0  0  0  0  0  0  0  0
   -3.7500    1.2990    0.0000 C   0  0  0  0  0  0  0  0  0  0  0  0
   -5.2500    1.2990    0.0000 C   0  0  0  0  0  0  0  0  0  0  0  0
   -6.0000    2.5981    0.0000 C   0  0  0  0  0  0  0  0  0  0  0  0
   -7.5000    2.5981    0.0000 C   0  0  0  0  0  0  0  0  0  0  0  0
   -8.2500    1.2990    0.0000 C   0  0  0  0  0  0  0  0  0  0  0  0
   -9.7500    1.2990    0.0000 O   0  0  0  0  0  0  0  0  0  0  0  0
   -7.5000    0.0000    0.0000 C   0  0  0  0  0  0  0  0  0  0  0  0
   -8.2500   -1.2990    0.0000 O   0  0  0  0  0  0  0  0  0  0  0  0
   -6.0000    0.0000    0.0000 C   0  0  0  0  0  0  0  0  0  0  0  0
   -3.0000    2.5981    0.0000 C   0  0  0  0  0  0  0  0  0  0  0  0
   -3.7500    3.8971    0.0000 O   0  0  0  0  0  0  0  0  0  0  0  0
   -1.5000    2.5981    0.0000 C   0  0  0  0  0  0  0  0  0  0  0  0
   -0.7500    3.8971    0.0000 O   0  0  0  0  0  0  0  0  0  0  0  0
   -0.7500    1.2990    0.0000 C   0  0  0  0  0  0  0  0  0  0  0  0
    0.7500    1.2990    0.0000 C   0  0  0  0  0  0  0  0  0  0  0  0
  1  2  1  0
  2  3  2  0
  3  4  1  0
  4  5  1  0
  4  6  2  0
  6  7  1  0
  7  8  1  0
  8  9  1  0
  9 10  2  0
 10 11  1  0
 11 12  2  0
 12 13  1  0
 12 14  1  0
 14 15  1  0
 14 16  2  0
  8 17  2  0
 17 18  1  0
 17 19  1  0
 19 20  2  0
 19 21  1  0
 21 22  2  0
 22  2  1  0
 21  6  1  0
 16  9  1  0
M  END
>  <Compound_ID>  (359) 
CHEMBL232123

>  <Active>  (359) 
1

>  <Smiles>  (359) 
Cc1cc(N)c2oc(-c3ccc(O)c(O)c3)c(O)c(=O)c2c1

>  <canonical_smi>  (359) 
Cc1cc(N)c2oc(-c3ccc(O)c(O)c3)c(O)c(=O)c2c1

>  <Set>  (359) 
G2 active

>  <Set_type>  (359) 
Train

>  <MW>  (359) 
299.28

>  <HBD>  (359) 
4

>  <HBA>  (359) 
6

>  <NRB>  (359) 
1

>  <NR>  (359) 
3

>  <NAR>  (359) 
3

>  <PSA>  (359) 
116.92

>  <Standard Type>  (359) 
nan

>  <Standard Relation>  (359) 
nan

>  <Standard Units>  (359) 
nan

>  <Standard Value>  (359) 
nan

>  <Assay ChEMBL ID>  (359) 
nan

>  <Assay Description>  (359) 
nan

>  <BAO Label>  (359) 
nan

$$$$

     RDKit          2D

 20 23  0  0  0  0  0  0  0  0999 V2000
   -1.8373   -5.6601    0.0000 O   0  0  0  0  0  0  0  0  0  0  0  0
   -2.9520   -4.6564    0.0000 C   0  0  0  0  0  0  0  0  0  0  0  0
   -2.6401   -3.1891    0.0000 N   0  0  0  0  0  0  0  0  0  0  0  0
   -1.2135   -2.7256    0.0000 C   0  0  0  0  0  0  0  0  0  0  0  0
   -0.0000   -3.6073    0.0000 N   0  0  0  0  0  0  0  0  0  0  0  0
    1.2135   -2.7256    0.0000 N   0  0  0  0  0  0  0  0  0  0  0  0
    0.7500   -1.2990    0.0000 C   0  0  0  0  0  0  0  0  0  0  0  0
    1.5000    0.0000    0.0000 C   0  0  0  0  0  0  0  0  0  0  0  0
    0.7500    1.2990    0.0000 C   0  0  0  0  0  0  0  0  0  0  0  0
    1.5000    2.5981    0.0000 C   0  0  0  0  0  0  0  0  0  0  0  0
    0.8899    3.9684    0.0000 C   0  0  0  0  0  0  0  0  0  0  0  0
    2.0046    4.9721    0.0000 C   0  0  0  0  0  0  0  0  0  0  0  0
    3.3037    4.2221    0.0000 C   0  0  0  0  0  0  0  0  0  0  0  0
    2.9918    2.7549    0.0000 O   0  0  0  0  0  0  0  0  0  0  0  0
   -0.7500    1.2990    0.0000 C   0  0  0  0  0  0  0  0  0  0  0  0
   -1.5000    0.0000    0.0000 C   0  0  0  0  0  0  0  0  0  0  0  0
   -0.7500   -1.2990    0.0000 C   0  0  0  0  0  0  0  0  0  0  0  0
   -4.3786   -5.1199    0.0000 C   0  0  0  0  0  0  0  0  0  0  0  0
   -5.3823   -6.2346    0.0000 C   0  0  0  0  0  0  0  0  0  0  0  0
   -5.8458   -4.8080    0.0000 C   0  0  0  0  0  0  0  0  0  0  0  0
  1  2  2  0
  2  3  1  0
  3  4  1  0
  4  5  2  0
  5  6  1  0
  6  7  1  0
  7  8  2  0
  8  9  1  0
  9 10  1  0
 10 11  2  0
 11 12  1  0
 12 13  2  0
 13 14  1  0
  9 15  2  0
 15 16  1  0
 16 17  2  0
  2 18  1  0
 18 19  1  0
 19 20  1  0
 17  4  1  0
 20 18  1  0
 17  7  1  0
 14 10  1  0
M  END
>  <Compound_ID>  (360) 
CHEMBL421207

>  <Active>  (360) 
1

>  <Smiles>  (360) 
O=C(Nc1n[nH]c2cc(-c3ccco3)ccc12)C1CC1

>  <canonical_smi>  (360) 
O=C(Nc1n[nH]c2cc(-c3ccco3)ccc12)C1CC1

>  <Set>  (360) 
G2 active

>  <Set_type>  (360) 
Train

>  <MW>  (360) 
267.29

>  <HBD>  (360) 
2

>  <HBA>  (360) 
3

>  <NRB>  (360) 
3

>  <NR>  (360) 
4

>  <NAR>  (360) 
3

>  <PSA>  (360) 
70.92

>  <Standard Type>  (360) 
nan

>  <Standard Relation>  (360) 
nan

>  <Standard Units>  (360) 
nan

>  <Standard Value>  (360) 
nan

>  <Assay ChEMBL ID>  (360) 
nan

>  <Assay Description>  (360) 
nan

>  <BAO Label>  (360) 
nan

$$$$

     RDKit          2D

 21 24  0  0  0  0  0  0  0  0999 V2000
    3.3287    1.8373    0.0000 O   0  0  0  0  0  0  0  0  0  0  0  0
    2.3250    2.9520    0.0000 C   0  0  0  0  0  0  0  0  0  0  0  0
    0.8578    2.6401    0.0000 N   0  0  0  0  0  0  0  0  0  0  0  0
    0.3943    1.2135    0.0000 C   0  0  0  0  0  0  0  0  0  0  0  0
    1.2760    0.0000    0.0000 N   0  0  0  0  0  0  0  0  0  0  0  0
    0.3943   -1.2135    0.0000 N   0  0  0  0  0  0  0  0  0  0  0  0
   -1.0323   -0.7500    0.0000 C   0  0  0  0  0  0  0  0  0  0  0  0
   -2.3313   -1.5000    0.0000 N   0  0  0  0  0  0  0  0  0  0  0  0
   -3.6304   -0.7500    0.0000 C   0  0  0  0  0  0  0  0  0  0  0  0
   -4.9294   -1.5000    0.0000 C   0  0  0  0  0  0  0  0  0  0  0  0
   -5.0862   -2.9918    0.0000 C   0  0  0  0  0  0  0  0  0  0  0  0
   -6.5534   -3.3037    0.0000 C   0  0  0  0  0  0  0  0  0  0  0  0
   -7.3034   -2.0046    0.0000 C   0  0  0  0  0  0  0  0  0  0  0  0
   -6.2997   -0.8899    0.0000 S   0  0  0  0  0  0  0  0  0  0  0  0
   -3.6304    0.7500    0.0000 C   0  0  0  0  0  0  0  0  0  0  0  0
   -4.9294    1.5000    0.0000 Br  0  0  0  0  0  0  0  0  0  0  0  0
   -2.3313    1.5000    0.0000 C   0  0  0  0  0  0  0  0  0  0  0  0
   -1.0323    0.7500    0.0000 C   0  0  0  0  0  0  0  0  0  0  0  0
    2.7886    4.3786    0.0000 C   0  0  0  0  0  0  0  0  0  0  0  0
    2.4767    5.8458    0.0000 C   0  0  0  0  0  0  0  0  0  0  0  0
    3.9033    5.3823    0.0000 C   0  0  0  0  0  0  0  0  0  0  0  0
  1  2  2  0
  2  3  1  0
  3  4  1  0
  4  5  2  0
  5  6  1  0
  6  7  1  0
  7  8  2  0
  8  9  1  0
  9 10  1  0
 10 11  2  0
 11 12  1  0
 12 13  2  0
 13 14  1  0
  9 15  2  0
 15 16  1  0
 15 17  1  0
 17 18  2  0
  2 19  1  0
 19 20  1  0
 20 21  1  0
 18  4  1  0
 21 19  1  0
 18  7  1  0
 14 10  1  0
M  END
>  <Compound_ID>  (361) 
CHEMBL260231

>  <Active>  (361) 
1

>  <Smiles>  (361) 
O=C(Nc1n[nH]c2nc(-c3cccs3)c(Br)cc12)C1CC1

>  <canonical_smi>  (361) 
O=C(Nc1n[nH]c2nc(-c3cccs3)c(Br)cc12)C1CC1

>  <Set>  (361) 
G2 active

>  <Set_type>  (361) 
Train

>  <MW>  (361) 
363.24

>  <HBD>  (361) 
2

>  <HBA>  (361) 
3

>  <NRB>  (361) 
3

>  <NR>  (361) 
4

>  <NAR>  (361) 
3

>  <PSA>  (361) 
70.67

>  <Standard Type>  (361) 
nan

>  <Standard Relation>  (361) 
nan

>  <Standard Units>  (361) 
nan

>  <Standard Value>  (361) 
nan

>  <Assay ChEMBL ID>  (361) 
nan

>  <Assay Description>  (361) 
nan

>  <BAO Label>  (361) 
nan

$$$$

     RDKit          2D

 28 31  0  0  0  0  0  0  0  0999 V2000
    3.0000    0.0000    0.0000 C   0  0  0  0  0  0  0  0  0  0  0  0
    1.5000    0.0000    0.0000 C   0  0  0  0  0  0  0  0  0  0  0  0
    0.7500   -1.2990    0.0000 C   0  0  0  0  0  0  0  0  0  0  0  0
   -0.7500   -1.2990    0.0000 C   0  0  0  0  0  0  0  0  0  0  0  0
   -1.5000   -2.5981    0.0000 N   0  0  0  0  0  0  0  0  0  0  0  0
   -3.0000   -2.5981    0.0000 C   0  0  0  0  0  0  0  0  0  0  0  0
   -3.7500   -3.8971    0.0000 C   0  0  0  0  0  0  0  0  0  0  0  0
   -3.0000   -5.1962    0.0000 N   0  0  0  0  0  0  0  0  0  0  0  0
   -3.7500   -6.4952    0.0000 C   0  0  0  0  0  0  0  0  0  0  0  0
   -1.5000   -5.1962    0.0000 C   0  0  0  0  0  0  0  0  0  0  0  0
   -0.7500   -3.8971    0.0000 C   0  0  0  0  0  0  0  0  0  0  0  0
   -1.5000    0.0000    0.0000 C   0  0  0  0  0  0  0  0  0  0  0  0
   -3.0000    0.0000    0.0000 O   0  0  0  0  0  0  0  0  0  0  0  0
   -3.7500    1.2990    0.0000 C   0  0  0  0  0  0  0  0  0  0  0  0
   -5.2500    1.2990    0.0000 C   0  0  0  0  0  0  0  0  0  0  0  0
   -6.0000    2.5981    0.0000 C   0  0  0  0  0  0  0  0  0  0  0  0
   -7.5000    2.5981    0.0000 C   0  0  0  0  0  0  0  0  0  0  0  0
   -8.2500    1.2990    0.0000 C   0  0  0  0  0  0  0  0  0  0  0  0
   -9.7500    1.2990    0.0000 O   0  0  0  0  0  0  0  0  0  0  0  0
   -7.5000    0.0000    0.0000 C   0  0  0  0  0  0  0  0  0  0  0  0
   -8.2500   -1.2990    0.0000 O   0  0  0  0  0  0  0  0  0  0  0  0
   -6.0000    0.0000    0.0000 C   0  0  0  0  0  0  0  0  0  0  0  0
   -3.0000    2.5981    0.0000 C   0  0  0  0  0  0  0  0  0  0  0  0
   -3.7500    3.8971    0.0000 O   0  0  0  0  0  0  0  0  0  0  0  0
   -1.5000    2.5981    0.0000 C   0  0  0  0  0  0  0  0  0  0  0  0
   -0.7500    3.8971    0.0000 O   0  0  0  0  0  0  0  0  0  0  0  0
   -0.7500    1.2990    0.0000 C   0  0  0  0  0  0  0  0  0  0  0  0
    0.7500    1.2990    0.0000 C   0  0  0  0  0  0  0  0  0  0  0  0
  1  2  1  0
  2  3  2  0
  3  4  1  0
  4  5  1  0
  5  6  1  0
  6  7  1  0
  7  8  1  0
  8  9  1  0
  8 10  1  0
 10 11  1  0
  4 12  2  0
 12 13  1  0
 13 14  1  0
 14 15  1  0
 15 16  2  0
 16 17  1  0
 17 18  2  0
 18 19  1  0
 18 20  1  0
 20 21  1  0
 20 22  2  0
 14 23  2  0
 23 24  1  0
 23 25  1  0
 25 26  2  0
 25 27  1  0
 27 28  2  0
 28  2  1  0
 11  5  1  0
 27 12  1  0
 22 15  1  0
M  END
>  <Compound_ID>  (362) 
CHEMBL232737

>  <Active>  (362) 
1

>  <Smiles>  (362) 
Cc1cc(N2CCN(C)CC2)c2oc(-c3ccc(O)c(O)c3)c(O)c(=O)c2c1

>  <canonical_smi>  (362) 
Cc1cc(N2CCN(C)CC2)c2oc(-c3ccc(O)c(O)c3)c(O)c(=O)c2c1

>  <Set>  (362) 
G2 active

>  <Set_type>  (362) 
Train

>  <MW>  (362) 
382.42

>  <HBD>  (362) 
3

>  <HBA>  (362) 
7

>  <NRB>  (362) 
2

>  <NR>  (362) 
4

>  <NAR>  (362) 
3

>  <PSA>  (362) 
97.38

>  <Standard Type>  (362) 
nan

>  <Standard Relation>  (362) 
nan

>  <Standard Units>  (362) 
nan

>  <Standard Value>  (362) 
nan

>  <Assay ChEMBL ID>  (362) 
nan

>  <Assay Description>  (362) 
nan

>  <BAO Label>  (362) 
nan

$$$$

     RDKit          2D

 35 39  0  0  0  0  0  0  0  0999 V2000
    3.3802    9.0132    0.0000 C   0  0  0  0  0  0  0  0  0  0  0  0
    3.0684    7.5459    0.0000 C   0  0  0  0  0  0  0  0  0  0  0  0
    4.1831    6.5422    0.0000 C   0  0  0  0  0  0  0  0  0  0  0  0
    3.8712    5.0750    0.0000 N   0  0  0  0  0  0  0  0  0  0  0  0
    2.4446    4.6115    0.0000 C   0  0  0  0  0  0  0  0  0  0  0  0
    2.1328    3.1443    0.0000 N   0  0  0  0  0  0  0  0  0  0  0  0
    0.7062    2.6807    0.0000 C   0  0  0  0  0  0  0  0  0  0  0  0
   -0.4086    3.6844    0.0000 C   0  0  0  0  0  0  0  0  0  0  0  0
   -1.8351    3.2209    0.0000 C   0  0  0  0  0  0  0  0  0  0  0  0
   -2.1470    1.7537    0.0000 C   0  0  0  0  0  0  0  0  0  0  0  0
   -1.0323    0.7500    0.0000 C   0  0  0  0  0  0  0  0  0  0  0  0
    0.3943    1.2135    0.0000 C   0  0  0  0  0  0  0  0  0  0  0  0
    1.2760    0.0000    0.0000 C   0  0  0  0  0  0  0  0  0  0  0  0
    0.3943   -1.2135    0.0000 C   0  0  0  0  0  0  0  0  0  0  0  0
   -1.0323   -0.7500    0.0000 C   0  0  0  0  0  0  0  0  0  0  0  0
    1.3299    5.6152    0.0000 N   0  0  0  0  0  0  0  0  0  0  0  0
    1.6418    7.0824    0.0000 C   0  0  0  0  0  0  0  0  0  0  0  0
    0.5271    8.0861    0.0000 C   0  0  0  0  0  0  0  0  0  0  0  0
   -0.9402    7.7742    0.0000 C   0  0  0  0  0  0  0  0  0  0  0  0
   -1.6902    9.0733    0.0000 N   0  0  0  0  0  0  0  0  0  0  0  0
   -0.6865   10.1880    0.0000 C   0  0  0  0  0  0  0  0  0  0  0  0
   -0.9983   11.6552    0.0000 C   0  0  0  0  0  0  0  0  0  0  0  0
   -2.4249   12.1187    0.0000 O   0  0  0  0  0  0  0  0  0  0  0  0
    0.1164   12.6589    0.0000 N   0  0  0  0  0  0  0  0  0  0  0  0
   -0.1955   14.1261    0.0000 C   0  0  0  0  0  0  0  0  0  0  0  0
   -1.6221   14.5897    0.0000 C   0  0  0  0  0  0  0  0  0  0  0  0
   -1.9339   16.0569    0.0000 O   0  0  0  0  0  0  0  0  0  0  0  0
    0.9192   15.1298    0.0000 C   0  0  0  0  0  0  0  0  0  0  0  0
    2.3458   14.6663    0.0000 C   0  0  0  0  0  0  0  0  0  0  0  0
    3.4605   15.6700    0.0000 C   0  0  0  0  0  0  0  0  0  0  0  0
    3.1487   17.1372    0.0000 C   0  0  0  0  0  0  0  0  0  0  0  0
    1.7221   17.6007    0.0000 C   0  0  0  0  0  0  0  0  0  0  0  0
    1.4102   19.0680    0.0000 Cl  0  0  0  0  0  0  0  0  0  0  0  0
    0.6074   16.5971    0.0000 C   0  0  0  0  0  0  0  0  0  0  0  0
    0.6838    9.5779    0.0000 C   0  0  0  0  0  0  0  0  0  0  0  0
  1  2  1  0
  2  3  2  0
  3  4  1  0
  4  5  2  0
  5  6  1  0
  6  7  1  0
  7  8  2  0
  8  9  1  0
  9 10  2  0
 10 11  1  0
 11 12  2  0
 12 13  1  0
 13 14  1  0
 14 15  1  0
  5 16  1  0
 16 17  2  0
 17 18  1  0
 18 19  2  0
 19 20  1  0
 20 21  1  0
 21 22  1  0
 22 23  2  0
 22 24  1  0
 24 25  1  0
 25 26  1  6
 26 27  1  0
 25 28  1  0
 28 29  2  0
 29 30  1  0
 30 31  2  0
 31 32  1  0
 32 33  1  0
 32 34  2  0
 21 35  2  0
 17  2  1  0
 35 18  1  0
 12  7  1  0
 34 28  1  0
 15 11  1  0
M  END
>  <Compound_ID>  (363) 
CHEMBL568937

>  <Active>  (363) 
1

>  <Smiles>  (363) 
Cc1cnc(Nc2cccc3c2CCC3)nc1-c1c[nH]c(C(=O)N[C@H](CO)c2cccc(Cl)c2)c1

>  <canonical_smi>  (363) 
Cc1cnc(Nc2cccc3c2CCC3)nc1-c1c[nH]c(C(=O)N[C@H](CO)c2cccc(Cl)c2)c1

>  <Set>  (363) 
G2 active

>  <Set_type>  (363) 
Train

>  <MW>  (363) 
487.99

>  <HBD>  (363) 
4

>  <HBA>  (363) 
5

>  <NRB>  (363) 
7

>  <NR>  (363) 
5

>  <NAR>  (363) 
4

>  <PSA>  (363) 
102.93

>  <Standard Type>  (363) 
nan

>  <Standard Relation>  (363) 
nan

>  <Standard Units>  (363) 
nan

>  <Standard Value>  (363) 
nan

>  <Assay ChEMBL ID>  (363) 
nan

>  <Assay Description>  (363) 
nan

>  <BAO Label>  (363) 
nan

$$$$

     RDKit          2D

 22 25  0  0  0  0  0  0  0  0999 V2000
   -4.3764    3.7611    0.0000 O   0  0  0  0  0  0  0  0  0  0  0  0
   -4.6883    2.2939    0.0000 C   0  0  0  0  0  0  0  0  0  0  0  0
   -6.1149    1.8303    0.0000 N   0  0  0  0  0  0  0  0  0  0  0  0
   -7.2296    2.8340    0.0000 C   0  0  0  0  0  0  0  0  0  0  0  0
   -8.6968    2.5222    0.0000 N   0  0  0  0  0  0  0  0  0  0  0  0
   -9.4468    3.8212    0.0000 C   0  0  0  0  0  0  0  0  0  0  0  0
   -8.4431    4.9359    0.0000 C   0  0  0  0  0  0  0  0  0  0  0  0
   -8.7550    6.4031    0.0000 C   0  0  0  0  0  0  0  0  0  0  0  0
   -7.9380    7.6612    0.0000 C   0  0  0  0  0  0  0  0  0  0  0  0
   -9.1960    8.4781    0.0000 C   0  0  0  0  0  0  0  0  0  0  0  0
  -10.0130    7.2201    0.0000 C   0  0  0  0  0  0  0  0  0  0  0  0
   -7.0728    4.3258    0.0000 S   0  0  0  0  0  0  0  0  0  0  0  0
   -3.5736    1.2902    0.0000 N   0  0  0  0  0  0  0  0  0  0  0  0
   -2.1470    1.7537    0.0000 C   0  0  0  0  0  0  0  0  0  0  0  0
   -1.8351    3.2209    0.0000 C   0  0  0  0  0  0  0  0  0  0  0  0
   -0.4086    3.6844    0.0000 C   0  0  0  0  0  0  0  0  0  0  0  0
    0.7062    2.6807    0.0000 C   0  0  0  0  0  0  0  0  0  0  0  0
    0.3943    1.2135    0.0000 C   0  0  0  0  0  0  0  0  0  0  0  0
    1.2760    0.0000    0.0000 C   0  0  0  0  0  0  0  0  0  0  0  0
    0.3943   -1.2135    0.0000 N   0  0  0  0  0  0  0  0  0  0  0  0
   -1.0323   -0.7500    0.0000 N   0  0  0  0  0  0  0  0  0  0  0  0
   -1.0323    0.7500    0.0000 C   0  0  0  0  0  0  0  0  0  0  0  0
  1  2  2  0
  2  3  1  0
  3  4  1  0
  4  5  2  0
  5  6  1  0
  6  7  2  0
  7  8  1  0
  8  9  1  0
  9 10  1  0
 10 11  1  0
  7 12  1  0
  2 13  1  0
 13 14  1  0
 14 15  2  0
 15 16  1  0
 16 17  2  0
 17 18  1  0
 18 19  2  0
 19 20  1  0
 20 21  1  0
 21 22  2  0
 12  4  1  0
 22 14  1  0
 11  8  1  0
 22 18  1  0
M  END
>  <Compound_ID>  (364) 
CHEMBL363283

>  <Active>  (364) 
1

>  <Smiles>  (364) 
O=C(Nc1ncc(C2CCC2)s1)Nc1cccc2c[nH]nc12

>  <canonical_smi>  (364) 
O=C(Nc1ncc(C2CCC2)s1)Nc1cccc2c[nH]nc12

>  <Set>  (364) 
G2 active

>  <Set_type>  (364) 
Train

>  <MW>  (364) 
313.39

>  <HBD>  (364) 
3

>  <HBA>  (364) 
3

>  <NRB>  (364) 
3

>  <NR>  (364) 
4

>  <NAR>  (364) 
3

>  <PSA>  (364) 
82.7

>  <Standard Type>  (364) 
nan

>  <Standard Relation>  (364) 
nan

>  <Standard Units>  (364) 
nan

>  <Standard Value>  (364) 
nan

>  <Assay ChEMBL ID>  (364) 
nan

>  <Assay Description>  (364) 
nan

>  <BAO Label>  (364) 
nan

$$$$

     RDKit          2D

 31 37  0  0  0  0  0  0  0  0999 V2000
    4.3240   -7.6191    0.0000 C   0  0  0  0  0  0  0  0  0  0  0  0
    2.8974   -8.0826    0.0000 N   0  0  0  0  0  0  0  0  0  0  0  0
    2.4339   -9.5092    0.0000 C   0  0  0  0  0  0  0  0  0  0  0  0
    0.9339   -9.5092    0.0000 C   0  0  0  0  0  0  0  0  0  0  0  0
    0.4704   -8.0826    0.0000 C   0  0  0  0  0  0  0  0  0  0  0  0
   -0.8999   -7.4725    0.0000 C   0  0  0  0  0  0  0  0  0  0  0  0
   -1.0567   -5.9808    0.0000 C   0  0  0  0  0  0  0  0  0  0  0  0
    0.1568   -5.0991    0.0000 C   0  0  0  0  0  0  0  0  0  0  0  0
    1.5271   -5.7092    0.0000 C   0  0  0  0  0  0  0  0  0  0  0  0
    2.7406   -4.8275    0.0000 C   0  0  0  0  0  0  0  0  0  0  0  0
    2.5838   -3.3357    0.0000 C   0  0  0  0  0  0  0  0  0  0  0  0
    1.2135   -2.7256    0.0000 C   0  0  0  0  0  0  0  0  0  0  0  0
    0.7500   -1.2990    0.0000 C   0  0  0  0  0  0  0  0  0  0  0  0
    1.5000    0.0000    0.0000 C   0  0  0  0  0  0  0  0  0  0  0  0
    0.7500    1.2990    0.0000 C   0  0  0  0  0  0  0  0  0  0  0  0
   -0.7500    1.2990    0.0000 C   0  0  0  0  0  0  0  0  0  0  0  0
   -1.5000    0.0000    0.0000 C   0  0  0  0  0  0  0  0  0  0  0  0
   -0.7500   -1.2990    0.0000 C   0  0  0  0  0  0  0  0  0  0  0  0
   -1.2135   -2.7256    0.0000 N   0  0  0  0  0  0  0  0  0  0  0  0
    0.0000   -3.6073    0.0000 C   0  0  0  0  0  0  0  0  0  0  0  0
   -2.7202   -2.7406    0.0000 C   0  0  0  0  0  0  0  0  0  0  0  0
   -3.6019   -1.5271    0.0000 C   0  0  0  0  0  0  0  0  0  0  0  0
   -5.0937   -1.6839    0.0000 C   0  0  0  0  0  0  0  0  0  0  0  0
   -5.9753   -0.4704    0.0000 O   0  0  0  0  0  0  0  0  0  0  0  0
   -2.9918   -0.1568    0.0000 C   0  0  0  0  0  0  0  0  0  0  0  0
    3.9542   -2.7256    0.0000 C   0  0  0  0  0  0  0  0  0  0  0  0
    4.2660   -1.2584    0.0000 O   0  0  0  0  0  0  0  0  0  0  0  0
    4.9579   -3.8403    0.0000 N   0  0  0  0  0  0  0  0  0  0  0  0
    4.2079   -5.1394    0.0000 C   0  0  0  0  0  0  0  0  0  0  0  0
    4.8180   -6.5097    0.0000 O   0  0  0  0  0  0  0  0  0  0  0  0
    1.6839   -7.2010    0.0000 C   0  0  0  0  0  0  0  0  0  0  0  0
  1  2  1  0
  2  3  1  0
  3  4  2  0
  4  5  1  0
  5  6  2  0
  6  7  1  0
  7  8  2  0
  8  9  1  0
  9 10  1  0
 10 11  2  0
 11 12  1  0
 12 13  1  0
 13 14  2  0
 14 15  1  0
 15 16  2  0
 16 17  1  0
 17 18  2  0
 18 19  1  0
 19 20  1  0
 19 21  1  0
 21 22  1  0
 22 23  1  0
 23 24  1  0
 22 25  1  0
 11 26  1  0
 26 27  2  0
 26 28  1  0
 28 29  1  0
 29 30  2  0
  9 31  2  0
 31  2  1  0
 31  5  1  0
 20  8  1  0
 29 10  1  0
 20 12  2  0
 18 13  1  0
 25 17  1  0
M  END
>  <Compound_ID>  (365) 
CHEMBL104526

>  <Active>  (365) 
1

>  <Smiles>  (365) 
Cn1ccc2ccc3c(c4c(c5c6cccc7c6n(c35)CC(CO)C7)C(=O)NC4=O)c21

>  <canonical_smi>  (365) 
Cn1ccc2ccc3c(c4c(c5c6cccc7c6n(c35)CC(CO)C7)C(=O)NC4=O)c21

>  <Set>  (365) 
G2 active

>  <Set_type>  (365) 
Train

>  <MW>  (365) 
409.45

>  <HBD>  (365) 
2

>  <HBA>  (365) 
3

>  <NRB>  (365) 
1

>  <NR>  (365) 
7

>  <NAR>  (365) 
5

>  <PSA>  (365) 
76.26

>  <Standard Type>  (365) 
nan

>  <Standard Relation>  (365) 
nan

>  <Standard Units>  (365) 
nan

>  <Standard Value>  (365) 
nan

>  <Assay ChEMBL ID>  (365) 
nan

>  <Assay Description>  (365) 
nan

>  <BAO Label>  (365) 
nan

$$$$

     RDKit          2D

 24 27  0  0  0  0  0  0  0  0999 V2000
   -4.3764    3.7611    0.0000 O   0  0  0  0  0  0  0  0  0  0  0  0
   -2.9499    4.2246    0.0000 C   0  0  0  0  0  0  0  0  0  0  0  0
   -2.6380    5.6918    0.0000 C   0  0  0  0  0  0  0  0  0  0  0  0
   -1.2114    6.1554    0.0000 C   0  0  0  0  0  0  0  0  0  0  0  0
   -0.8995    7.6226    0.0000 C   0  0  0  0  0  0  0  0  0  0  0  0
   -2.0143    8.6263    0.0000 C   0  0  0  0  0  0  0  0  0  0  0  0
   -3.4408    8.1628    0.0000 C   0  0  0  0  0  0  0  0  0  0  0  0
   -3.7527    6.6955    0.0000 C   0  0  0  0  0  0  0  0  0  0  0  0
   -1.8351    3.2209    0.0000 C   0  0  0  0  0  0  0  0  0  0  0  0
   -0.4086    3.6844    0.0000 C   0  0  0  0  0  0  0  0  0  0  0  0
    0.7062    2.6807    0.0000 N   0  0  0  0  0  0  0  0  0  0  0  0
    0.3943    1.2135    0.0000 C   0  0  0  0  0  0  0  0  0  0  0  0
    1.2760    0.0000    0.0000 N   0  0  0  0  0  0  0  0  0  0  0  0
    0.3943   -1.2135    0.0000 N   0  0  0  0  0  0  0  0  0  0  0  0
   -1.0323   -0.7500    0.0000 C   0  0  0  0  0  0  0  0  0  0  0  0
   -1.0323    0.7500    0.0000 C   0  0  0  0  0  0  0  0  0  0  0  0
   -2.1470    1.7537    0.0000 C   0  0  0  0  0  0  0  0  0  0  0  0
   -3.5736    1.2902    0.0000 O   0  0  0  0  0  0  0  0  0  0  0  0
   -3.8855   -0.1771    0.0000 C   0  0  0  0  0  0  0  0  0  0  0  0
   -2.7707   -1.1807    0.0000 C   0  0  0  0  0  0  0  0  0  0  0  0
   -3.0826   -2.6480    0.0000 C   0  0  0  0  0  0  0  0  0  0  0  0
   -4.5092   -3.1115    0.0000 C   0  0  0  0  0  0  0  0  0  0  0  0
   -5.6239   -2.1078    0.0000 C   0  0  0  0  0  0  0  0  0  0  0  0
   -5.3120   -0.6406    0.0000 C   0  0  0  0  0  0  0  0  0  0  0  0
  1  2  2  0
  2  3  1  0
  3  4  2  0
  4  5  1  0
  5  6  2  0
  6  7  1  0
  7  8  2  0
  2  9  1  0
  9 10  2  0
 10 11  1  0
 11 12  1  0
 12 13  2  0
 13 14  1  0
 14 15  2  0
 15 16  1  0
 16 17  2  0
 17 18  1  0
 18 19  1  0
 19 20  1  0
 20 21  1  0
 21 22  1  0
 22 23  1  0
 23 24  1  0
  8  3  1  0
 17  9  1  0
 24 19  1  0
 16 12  1  0
M  END
>  <Compound_ID>  (366) 
CHEMBL279590

>  <Active>  (366) 
1

>  <Smiles>  (366) 
O=C(c1ccccc1)c1c[nH]c2nncc-2c1OC1CCCCC1

>  <canonical_smi>  (366) 
O=C(c1ccccc1)c1c[nH]c2nncc-2c1OC1CCCCC1

>  <Set>  (366) 
G2 active

>  <Set_type>  (366) 
Train

>  <MW>  (366) 
321.38

>  <HBD>  (366) 
1

>  <HBA>  (366) 
4

>  <NRB>  (366) 
4

>  <NR>  (366) 
4

>  <NAR>  (366) 
3

>  <PSA>  (366) 
67.87

>  <Standard Type>  (366) 
nan

>  <Standard Relation>  (366) 
nan

>  <Standard Units>  (366) 
nan

>  <Standard Value>  (366) 
nan

>  <Assay ChEMBL ID>  (366) 
nan

>  <Assay Description>  (366) 
nan

>  <BAO Label>  (366) 
nan

$$$$

     RDKit          2D

 22 24  0  0  0  0  0  0  0  0999 V2000
  -10.0849   -6.9740    0.0000 N   0  0  0  0  0  0  0  0  0  0  0  0
   -8.6583   -6.5105    0.0000 S   0  0  0  0  0  0  0  0  0  0  0  0
   -9.1218   -5.0839    0.0000 O   0  0  0  0  0  0  0  0  0  0  0  0
   -8.1948   -7.9371    0.0000 O   0  0  0  0  0  0  0  0  0  0  0  0
   -7.2317   -6.0469    0.0000 C   0  0  0  0  0  0  0  0  0  0  0  0
   -6.9199   -4.5797    0.0000 C   0  0  0  0  0  0  0  0  0  0  0  0
   -5.4933   -4.1162    0.0000 C   0  0  0  0  0  0  0  0  0  0  0  0
   -4.3786   -5.1199    0.0000 C   0  0  0  0  0  0  0  0  0  0  0  0
   -2.9520   -4.6564    0.0000 N   0  0  0  0  0  0  0  0  0  0  0  0
   -2.6401   -3.1891    0.0000 C   0  0  0  0  0  0  0  0  0  0  0  0
   -3.7548   -2.1855    0.0000 O   0  0  0  0  0  0  0  0  0  0  0  0
   -1.2135   -2.7256    0.0000 C   0  0  0  0  0  0  0  0  0  0  0  0
   -0.0000   -3.6073    0.0000 N   0  0  0  0  0  0  0  0  0  0  0  0
    1.2135   -2.7256    0.0000 N   0  0  0  0  0  0  0  0  0  0  0  0
    0.7500   -1.2990    0.0000 C   0  0  0  0  0  0  0  0  0  0  0  0
    1.5000    0.0000    0.0000 C   0  0  0  0  0  0  0  0  0  0  0  0
    0.7500    1.2990    0.0000 C   0  0  0  0  0  0  0  0  0  0  0  0
   -0.7500    1.2990    0.0000 C   0  0  0  0  0  0  0  0  0  0  0  0
   -1.5000    0.0000    0.0000 C   0  0  0  0  0  0  0  0  0  0  0  0
   -0.7500   -1.2990    0.0000 C   0  0  0  0  0  0  0  0  0  0  0  0
   -4.6904   -6.5871    0.0000 C   0  0  0  0  0  0  0  0  0  0  0  0
   -6.1170   -7.0506    0.0000 C   0  0  0  0  0  0  0  0  0  0  0  0
  1  2  1  0
  2  3  2  0
  2  4  2  0
  2  5  1  0
  5  6  2  0
  6  7  1  0
  7  8  2  0
  8  9  1  0
  9 10  1  0
 10 11  2  0
 10 12  1  0
 12 13  2  0
 13 14  1  0
 14 15  1  0
 15 16  2  0
 16 17  1  0
 17 18  2  0
 18 19  1  0
 19 20  2  0
  8 21  1  0
 21 22  2  0
 22  5  1  0
 20 12  1  0
 20 15  1  0
M  END
>  <Compound_ID>  (367) 
CHEMBL455946

>  <Active>  (367) 
1

>  <Smiles>  (367) 
NS(=O)(=O)c1ccc(NC(=O)c2n[nH]c3ccccc23)cc1

>  <canonical_smi>  (367) 
NS(=O)(=O)c1ccc(NC(=O)c2n[nH]c3ccccc23)cc1

>  <Set>  (367) 
G2 active

>  <Set_type>  (367) 
Train

>  <MW>  (367) 
316.34

>  <HBD>  (367) 
3

>  <HBA>  (367) 
4

>  <NRB>  (367) 
3

>  <NR>  (367) 
3

>  <NAR>  (367) 
3

>  <PSA>  (367) 
117.94

>  <Standard Type>  (367) 
nan

>  <Standard Relation>  (367) 
nan

>  <Standard Units>  (367) 
nan

>  <Standard Value>  (367) 
nan

>  <Assay ChEMBL ID>  (367) 
nan

>  <Assay Description>  (367) 
nan

>  <BAO Label>  (367) 
nan

$$$$

     RDKit          2D

 28 31  0  0  0  0  0  0  0  0999 V2000
   -0.7500   -6.4952    0.0000 C   0  0  0  0  0  0  0  0  0  0  0  0
   -1.5000   -5.1962    0.0000 O   0  0  0  0  0  0  0  0  0  0  0  0
   -0.7500   -3.8971    0.0000 C   0  0  0  0  0  0  0  0  0  0  0  0
    0.7500   -3.8971    0.0000 C   0  0  0  0  0  0  0  0  0  0  0  0
    1.5000   -2.5981    0.0000 C   0  0  0  0  0  0  0  0  0  0  0  0
    0.7500   -1.2990    0.0000 C   0  0  0  0  0  0  0  0  0  0  0  0
    1.5000    0.0000    0.0000 C   0  0  0  0  0  0  0  0  0  0  0  0
    0.7500    1.2990    0.0000 N   0  0  0  0  0  0  0  0  0  0  0  0
   -0.7500    1.2990    0.0000 C   0  0  0  0  0  0  0  0  0  0  0  0
   -1.5000    2.5981    0.0000 N   0  0  0  0  0  0  0  0  0  0  0  0
   -0.7500    3.8971    0.0000 C   0  0  0  0  0  0  0  0  0  0  0  0
    0.7500    3.8971    0.0000 C   0  0  0  0  0  0  0  0  0  0  0  0
    1.5000    5.1962    0.0000 C   0  0  0  0  0  0  0  0  0  0  0  0
    0.7500    6.4952    0.0000 C   0  0  0  0  0  0  0  0  0  0  0  0
    1.5000    7.7942    0.0000 N   0  0  0  0  0  0  0  0  0  0  0  0
    3.0000    7.7942    0.0000 C   0  0  0  0  0  0  0  0  0  0  0  0
    3.7500    9.0933    0.0000 C   0  0  0  0  0  0  0  0  0  0  0  0
    3.0000   10.3923    0.0000 O   0  0  0  0  0  0  0  0  0  0  0  0
    1.5000   10.3923    0.0000 C   0  0  0  0  0  0  0  0  0  0  0  0
    0.7500    9.0933    0.0000 C   0  0  0  0  0  0  0  0  0  0  0  0
   -0.7500    6.4952    0.0000 C   0  0  0  0  0  0  0  0  0  0  0  0
   -1.5000    5.1962    0.0000 C   0  0  0  0  0  0  0  0  0  0  0  0
   -1.5000    0.0000    0.0000 N   0  0  0  0  0  0  0  0  0  0  0  0
   -0.7500   -1.2990    0.0000 C   0  0  0  0  0  0  0  0  0  0  0  0
   -1.5000   -2.5981    0.0000 C   0  0  0  0  0  0  0  0  0  0  0  0
   -3.0000   -2.5981    0.0000 C   0  0  0  0  0  0  0  0  0  0  0  0
   -3.7500   -3.8971    0.0000 C   0  0  0  0  0  0  0  0  0  0  0  0
   -3.7500   -1.2990    0.0000 C   0  0  0  0  0  0  0  0  0  0  0  0
  1  2  1  0
  2  3  1  0
  3  4  2  0
  4  5  1  0
  5  6  2  0
  6  7  1  0
  7  8  2  0
  8  9  1  0
  9 10  1  0
 10 11  1  0
 11 12  2  0
 12 13  1  0
 13 14  2  0
 14 15  1  0
 15 16  1  0
 16 17  1  0
 17 18  1  0
 18 19  1  0
 19 20  1  0
 14 21  1  0
 21 22  2  0
  9 23  2  0
 23 24  1  0
 24 25  2  0
 25 26  1  0
 26 27  1  0
 26 28  1  0
 25  3  1  0
 24  6  1  0
 22 11  1  0
 20 15  1  0
M  END
>  <Compound_ID>  (368) 
CHEMBL182011

>  <Active>  (368) 
1

>  <Smiles>  (368) 
COc1ccc2cnc(Nc3ccc(N4CCOCC4)cc3)nc2c1C(C)C

>  <canonical_smi>  (368) 
COc1ccc2cnc(Nc3ccc(N4CCOCC4)cc3)nc2c1C(C)C

>  <Set>  (368) 
G2 active

>  <Set_type>  (368) 
Train

>  <MW>  (368) 
378.48

>  <HBD>  (368) 
1

>  <HBA>  (368) 
6

>  <NRB>  (368) 
5

>  <NR>  (368) 
4

>  <NAR>  (368) 
3

>  <PSA>  (368) 
59.51

>  <Standard Type>  (368) 
nan

>  <Standard Relation>  (368) 
nan

>  <Standard Units>  (368) 
nan

>  <Standard Value>  (368) 
nan

>  <Assay ChEMBL ID>  (368) 
nan

>  <Assay Description>  (368) 
nan

>  <BAO Label>  (368) 
nan

$$$$

     RDKit          2D

 38 42  0  0  0  0  0  0  0  0999 V2000
   -5.1962  -11.1073    0.0000 O   0  0  0  0  0  0  0  0  0  0  0  0
   -6.4952  -10.3573    0.0000 C   0  0  0  0  0  0  0  0  0  0  0  0
   -6.4952   -8.8573    0.0000 N   0  0  0  0  0  0  0  0  0  0  0  0
   -5.1962   -8.1073    0.0000 S   0  0  0  0  0  0  0  0  0  0  0  0
   -5.9462   -6.8083    0.0000 O   0  0  0  0  0  0  0  0  0  0  0  0
   -4.4462   -9.4063    0.0000 O   0  0  0  0  0  0  0  0  0  0  0  0
   -3.8971   -7.3573    0.0000 C   0  0  0  0  0  0  0  0  0  0  0  0
   -2.5981   -8.1073    0.0000 C   0  0  0  0  0  0  0  0  0  0  0  0
   -1.2990   -7.3573    0.0000 C   0  0  0  0  0  0  0  0  0  0  0  0
   -1.2990   -5.8573    0.0000 C   0  0  0  0  0  0  0  0  0  0  0  0
   -0.0000   -5.1073    0.0000 N   0  0  0  0  0  0  0  0  0  0  0  0
   -0.0000   -3.6073    0.0000 C   0  0  0  0  0  0  0  0  0  0  0  0
    1.2135   -2.7256    0.0000 C   0  0  0  0  0  0  0  0  0  0  0  0
    0.7500   -1.2990    0.0000 N   0  0  0  0  0  0  0  0  0  0  0  0
    1.5000    0.0000    0.0000 C   0  0  0  0  0  0  0  0  0  0  0  0
    0.7500    1.2990    0.0000 C   0  0  0  0  0  0  0  0  0  0  0  0
    1.5000    2.5981    0.0000 C   0  0  0  0  0  0  0  0  0  0  0  0
    0.7500    3.8971    0.0000 O   0  0  0  0  0  0  0  0  0  0  0  0
    3.0000    2.5981    0.0000 C   0  0  0  0  0  0  0  0  0  0  0  0
    3.7500    1.2990    0.0000 C   0  0  0  0  0  0  0  0  0  0  0  0
    3.0000   -0.0000    0.0000 Cl  0  0  0  0  0  0  0  0  0  0  0  0
    5.2500    1.2990    0.0000 C   0  0  0  0  0  0  0  0  0  0  0  0
    6.0000    2.5981    0.0000 C   0  0  0  0  0  0  0  0  0  0  0  0
    5.2500    3.8971    0.0000 C   0  0  0  0  0  0  0  0  0  0  0  0
    3.7500    3.8971    0.0000 C   0  0  0  0  0  0  0  0  0  0  0  0
    3.0000    5.1962    0.0000 Cl  0  0  0  0  0  0  0  0  0  0  0  0
   -0.7500    1.2990    0.0000 C   0  0  0  0  0  0  0  0  0  0  0  0
   -1.5000    0.0000    0.0000 C   0  0  0  0  0  0  0  0  0  0  0  0
   -0.7500   -1.2990    0.0000 C   0  0  0  0  0  0  0  0  0  0  0  0
   -1.2135   -2.7256    0.0000 N   0  0  0  0  0  0  0  0  0  0  0  0
   -2.5981   -5.1073    0.0000 C   0  0  0  0  0  0  0  0  0  0  0  0
   -3.8971   -5.8573    0.0000 C   0  0  0  0  0  0  0  0  0  0  0  0
   -7.7942  -11.1073    0.0000 C   0  0  0  0  0  0  0  0  0  0  0  0
   -9.0933  -10.3573    0.0000 C   0  0  0  0  0  0  0  0  0  0  0  0
  -10.3923  -11.1073    0.0000 C   0  0  0  0  0  0  0  0  0  0  0  0
  -10.3923  -12.6073    0.0000 C   0  0  0  0  0  0  0  0  0  0  0  0
   -9.0933  -13.3573    0.0000 C   0  0  0  0  0  0  0  0  0  0  0  0
   -7.7942  -12.6073    0.0000 C   0  0  0  0  0  0  0  0  0  0  0  0
  1  2  2  0
  2  3  1  0
  3  4  1  0
  4  5  2  0
  4  6  2  0
  4  7  1  0
  7  8  2  0
  8  9  1  0
  9 10  2  0
 10 11  1  0
 11 12  1  0
 12 13  2  0
 13 14  1  0
 14 15  1  0
 15 16  2  0
 16 17  1  0
 17 18  2  0
 17 19  1  0
 19 20  2  0
 20 21  1  0
 20 22  1  0
 22 23  2  0
 23 24  1  0
 24 25  2  0
 25 26  1  0
 16 27  1  0
 27 28  2  0
 28 29  1  0
 29 30  2  0
 10 31  1  0
 31 32  2  0
  2 33  1  0
 33 34  2  0
 34 35  1  0
 35 36  2  0
 36 37  1  0
 37 38  2  0
 32  7  1  0
 38 33  1  0
 30 12  1  0
 29 14  1  0
 25 19  1  0
M  END
>  <Compound_ID>  (369) 
CHEMBL180903

>  <Active>  (369) 
1

>  <Smiles>  (369) 
O=C(NS(=O)(=O)c1ccc(Nc2cn3cc(C(=O)c4c(Cl)cccc4Cl)ccc3n2)cc1)c1ccccc1

>  <canonical_smi>  (369) 
O=C(NS(=O)(=O)c1ccc(Nc2cn3cc(C(=O)c4c(Cl)cccc4Cl)ccc3n2)cc1)c1ccccc1

>  <Set>  (369) 
G2 active

>  <Set_type>  (369) 
Train

>  <MW>  (369) 
565.44

>  <HBD>  (369) 
2

>  <HBA>  (369) 
6

>  <NRB>  (369) 
7

>  <NR>  (369) 
5

>  <NAR>  (369) 
5

>  <PSA>  (369) 
109.64

>  <Standard Type>  (369) 
nan

>  <Standard Relation>  (369) 
nan

>  <Standard Units>  (369) 
nan

>  <Standard Value>  (369) 
nan

>  <Assay ChEMBL ID>  (369) 
nan

>  <Assay Description>  (369) 
nan

>  <BAO Label>  (369) 
nan

$$$$

     RDKit          2D

 23 26  0  0  0  0  0  0  0  0999 V2000
   -7.9018    3.2966    0.0000 Cl  0  0  0  0  0  0  0  0  0  0  0  0
   -6.7871    2.2929    0.0000 C   0  0  0  0  0  0  0  0  0  0  0  0
   -5.3605    2.7564    0.0000 C   0  0  0  0  0  0  0  0  0  0  0  0
   -4.2458    1.7527    0.0000 C   0  0  0  0  0  0  0  0  0  0  0  0
   -4.5577    0.2855    0.0000 C   0  0  0  0  0  0  0  0  0  0  0  0
   -5.9843   -0.1781    0.0000 C   0  0  0  0  0  0  0  0  0  0  0  0
   -6.2961   -1.6453    0.0000 N   0  0  0  0  0  0  0  0  0  0  0  0
   -5.1814   -2.6490    0.0000 C   0  0  0  0  0  0  0  0  0  0  0  0
   -5.4933   -4.1162    0.0000 N   0  0  0  0  0  0  0  0  0  0  0  0
   -4.3786   -5.1199    0.0000 C   0  0  0  0  0  0  0  0  0  0  0  0
   -2.9520   -4.6564    0.0000 C   0  0  0  0  0  0  0  0  0  0  0  0
   -2.6401   -3.1891    0.0000 C   0  0  0  0  0  0  0  0  0  0  0  0
   -1.2135   -2.7256    0.0000 N   0  0  0  0  0  0  0  0  0  0  0  0
   -0.0000   -3.6073    0.0000 C   0  0  0  0  0  0  0  0  0  0  0  0
    1.2135   -2.7256    0.0000 N   0  0  0  0  0  0  0  0  0  0  0  0
    0.7500   -1.2990    0.0000 C   0  0  0  0  0  0  0  0  0  0  0  0
    1.5000    0.0000    0.0000 C   0  0  0  0  0  0  0  0  0  0  0  0
    0.7500    1.2990    0.0000 C   0  0  0  0  0  0  0  0  0  0  0  0
   -0.7500    1.2990    0.0000 C   0  0  0  0  0  0  0  0  0  0  0  0
   -1.5000    0.0000    0.0000 C   0  0  0  0  0  0  0  0  0  0  0  0
   -0.7500   -1.2990    0.0000 C   0  0  0  0  0  0  0  0  0  0  0  0
   -3.7548   -2.1855    0.0000 N   0  0  0  0  0  0  0  0  0  0  0  0
   -7.0990    0.8256    0.0000 C   0  0  0  0  0  0  0  0  0  0  0  0
  1  2  1  0
  2  3  2  0
  3  4  1  0
  4  5  2  0
  5  6  1  0
  6  7  1  0
  7  8  1  0
  8  9  2  0
  9 10  1  0
 10 11  2  0
 11 12  1  0
 12 13  1  0
 13 14  1  0
 14 15  2  0
 15 16  1  0
 16 17  2  0
 17 18  1  0
 18 19  2  0
 19 20  1  0
 20 21  2  0
 12 22  2  0
  6 23  2  0
 23  2  1  0
 22  8  1  0
 21 13  1  0
 21 16  1  0
M  END
>  <Compound_ID>  (370) 
CHEMBL74680

>  <Active>  (370) 
1

>  <Smiles>  (370) 
Clc1cccc(Nc2nccc(-n3cnc4ccccc43)n2)c1

>  <canonical_smi>  (370) 
Clc1cccc(Nc2nccc(-n3cnc4ccccc43)n2)c1

>  <Set>  (370) 
G2 active

>  <Set_type>  (370) 
Train

>  <MW>  (370) 
321.77

>  <HBD>  (370) 
1

>  <HBA>  (370) 
4

>  <NRB>  (370) 
3

>  <NR>  (370) 
4

>  <NAR>  (370) 
4

>  <PSA>  (370) 
55.63

>  <Standard Type>  (370) 
nan

>  <Standard Relation>  (370) 
nan

>  <Standard Units>  (370) 
nan

>  <Standard Value>  (370) 
nan

>  <Assay ChEMBL ID>  (370) 
nan

>  <Assay Description>  (370) 
nan

>  <BAO Label>  (370) 
nan

$$$$

     RDKit          2D

 35 41  0  0  0  0  0  0  0  0999 V2000
   -8.7604   -0.0649    0.0000 C   0  0  0  0  0  0  0  0  0  0  0  0
   -8.4485   -1.5321    0.0000 N   0  0  0  0  0  0  0  0  0  0  0  0
   -9.4522   -2.6468    0.0000 C   0  0  0  0  0  0  0  0  0  0  0  0
   -8.7022   -3.9458    0.0000 C   0  0  0  0  0  0  0  0  0  0  0  0
   -7.2350   -3.6340    0.0000 C   0  0  0  0  0  0  0  0  0  0  0  0
   -6.0214   -4.5156    0.0000 C   0  0  0  0  0  0  0  0  0  0  0  0
   -4.6511   -3.9055    0.0000 C   0  0  0  0  0  0  0  0  0  0  0  0
   -4.4943   -2.4138    0.0000 C   0  0  0  0  0  0  0  0  0  0  0  0
   -3.1240   -1.8037    0.0000 C   0  0  0  0  0  0  0  0  0  0  0  0
   -1.7537   -2.4138    0.0000 N   0  0  0  0  0  0  0  0  0  0  0  0
   -0.7500   -1.2990    0.0000 C   0  0  0  0  0  0  0  0  0  0  0  0
    0.7500   -1.2990    0.0000 C   0  0  0  0  0  0  0  0  0  0  0  0
    1.5000   -2.5981    0.0000 C   0  0  0  0  0  0  0  0  0  0  0  0
    3.0000   -2.5981    0.0000 C   0  0  0  0  0  0  0  0  0  0  0  0
    3.7500   -3.8971    0.0000 N   0  0  0  0  0  0  0  0  0  0  0  0
    5.2418   -4.0539    0.0000 C   0  0  0  0  0  0  0  0  0  0  0  0
    5.5537   -5.5211    0.0000 C   0  0  0  0  0  0  0  0  0  0  0  0
    4.2546   -6.2711    0.0000 C   0  0  0  0  0  0  0  0  0  0  0  0
    3.1399   -5.2674    0.0000 C   0  0  0  0  0  0  0  0  0  0  0  0
    1.6727   -5.5793    0.0000 C   0  0  0  0  0  0  0  0  0  0  0  0
    1.2091   -7.0059    0.0000 O   0  0  0  0  0  0  0  0  0  0  0  0
    1.5000    0.0000    0.0000 C   0  0  0  0  0  0  0  0  0  0  0  0
    0.7500    1.2990    0.0000 C   0  0  0  0  0  0  0  0  0  0  0  0
   -0.7500    1.2990    0.0000 C   0  0  0  0  0  0  0  0  0  0  0  0
   -1.5000    0.0000    0.0000 C   0  0  0  0  0  0  0  0  0  0  0  0
   -2.9672   -0.3119    0.0000 C   0  0  0  0  0  0  0  0  0  0  0  0
   -4.1807    0.5698    0.0000 C   0  0  0  0  0  0  0  0  0  0  0  0
   -5.5511   -0.0403    0.0000 C   0  0  0  0  0  0  0  0  0  0  0  0
   -5.7079   -1.5321    0.0000 C   0  0  0  0  0  0  0  0  0  0  0  0
   -7.0782   -2.1422    0.0000 C   0  0  0  0  0  0  0  0  0  0  0  0
   -6.5548    1.0744    0.0000 C   0  0  0  0  0  0  0  0  0  0  0  0
   -8.0465    0.9176    0.0000 O   0  0  0  0  0  0  0  0  0  0  0  0
   -5.8048    2.3735    0.0000 N   0  0  0  0  0  0  0  0  0  0  0  0
   -4.3375    2.0616    0.0000 C   0  0  0  0  0  0  0  0  0  0  0  0
   -3.2228    3.0653    0.0000 O   0  0  0  0  0  0  0  0  0  0  0  0
  1  2  1  0
  2  3  1  0
  3  4  2  0
  4  5  1  0
  5  6  2  0
  6  7  1  0
  7  8  2  0
  8  9  1  0
  9 10  1  0
 10 11  1  0
 11 12  2  0
 12 13  1  0
 13 14  1  0
 14 15  1  0
 15 16  1  0
 16 17  1  0
 17 18  1  0
 18 19  1  0
 19 20  1  1
 20 21  1  0
 12 22  1  0
 22 23  2  0
 23 24  1  0
 24 25  2  0
 25 26  1  0
 26 27  1  0
 27 28  2  0
 28 29  1  0
 29 30  2  0
 28 31  1  0
 31 32  2  0
 31 33  1  0
 33 34  1  0
 34 35  2  0
 30  2  1  0
 30  5  1  0
 29  8  1  0
 26  9  2  0
 34 27  1  0
 25 11  1  0
 19 15  1  0
M  END
>  <Compound_ID>  (371) 
CHEMBL308979

>  <Active>  (371) 
1

>  <Smiles>  (371) 
Cn1ccc2ccc3c4[nH]c5c(CCN6CCC[C@H]6CO)cccc5c4c4c(c3c21)C(=O)NC4=O

>  <canonical_smi>  (371) 
Cn1ccc2ccc3c4[nH]c5c(CCN6CCC[C@H]6CO)cccc5c4c4c(c3c21)C(=O)NC4=O

>  <Set>  (371) 
G2 active

>  <Set_type>  (371) 
Train

>  <MW>  (371) 
466.54

>  <HBD>  (371) 
3

>  <HBA>  (371) 
4

>  <NRB>  (371) 
4

>  <NR>  (371) 
7

>  <NAR>  (371) 
5

>  <PSA>  (371) 
90.36

>  <Standard Type>  (371) 
nan

>  <Standard Relation>  (371) 
nan

>  <Standard Units>  (371) 
nan

>  <Standard Value>  (371) 
nan

>  <Assay ChEMBL ID>  (371) 
nan

>  <Assay Description>  (371) 
nan

>  <BAO Label>  (371) 
nan

$$$$

     RDKit          2D

 31 34  0  0  0  0  0  0  0  0999 V2000
   -6.4952   -5.8573    0.0000 O   0  0  0  0  0  0  0  0  0  0  0  0
   -6.4952   -7.3573    0.0000 C   0  0  0  0  0  0  0  0  0  0  0  0
   -5.1962   -8.1073    0.0000 N   0  0  0  0  0  0  0  0  0  0  0  0
   -3.8971   -7.3573    0.0000 C   0  0  0  0  0  0  0  0  0  0  0  0
   -3.8971   -5.8573    0.0000 S   0  0  0  0  0  0  0  0  0  0  0  0
   -2.5981   -8.1073    0.0000 N   0  0  0  0  0  0  0  0  0  0  0  0
   -1.2990   -7.3573    0.0000 C   0  0  0  0  0  0  0  0  0  0  0  0
    0.0000   -8.1073    0.0000 C   0  0  0  0  0  0  0  0  0  0  0  0
    1.2990   -7.3573    0.0000 C   0  0  0  0  0  0  0  0  0  0  0  0
    1.2990   -5.8573    0.0000 C   0  0  0  0  0  0  0  0  0  0  0  0
    2.5981   -5.1073    0.0000 O   0  0  0  0  0  0  0  0  0  0  0  0
   -0.0000   -5.1073    0.0000 C   0  0  0  0  0  0  0  0  0  0  0  0
   -0.0000   -3.6073    0.0000 C   0  0  0  0  0  0  0  0  0  0  0  0
    1.2135   -2.7256    0.0000 N   0  0  0  0  0  0  0  0  0  0  0  0
    0.7500   -1.2990    0.0000 C   0  0  0  0  0  0  0  0  0  0  0  0
    1.5000    0.0000    0.0000 C   0  0  0  0  0  0  0  0  0  0  0  0
    0.7500    1.2990    0.0000 C   0  0  0  0  0  0  0  0  0  0  0  0
   -0.7500    1.2990    0.0000 C   0  0  0  0  0  0  0  0  0  0  0  0
   -1.5000    0.0000    0.0000 C   0  0  0  0  0  0  0  0  0  0  0  0
   -0.7500   -1.2990    0.0000 C   0  0  0  0  0  0  0  0  0  0  0  0
   -1.2135   -2.7256    0.0000 S   0  0  0  0  0  0  0  0  0  0  0  0
   -1.2990   -5.8573    0.0000 C   0  0  0  0  0  0  0  0  0  0  0  0
   -7.7942   -8.1073    0.0000 C   0  0  0  0  0  0  0  0  0  0  0  0
   -9.0933   -7.3573    0.0000 C   0  0  0  0  0  0  0  0  0  0  0  0
  -10.3923   -8.1073    0.0000 C   0  0  0  0  0  0  0  0  0  0  0  0
  -10.3923   -9.6073    0.0000 C   0  0  0  0  0  0  0  0  0  0  0  0
  -11.6913  -10.3573    0.0000 N   0  0  0  0  0  4  0  0  0  0  0  0
  -11.6913  -11.8573    0.0000 O   0  0  0  0  0  0  0  0  0  0  0  0
  -12.9904   -9.6073    0.0000 O   0  0  0  0  0  1  0  0  0  0  0  0
   -9.0933  -10.3573    0.0000 C   0  0  0  0  0  0  0  0  0  0  0  0
   -7.7942   -9.6073    0.0000 C   0  0  0  0  0  0  0  0  0  0  0  0
  1  2  2  0
  2  3  1  0
  3  4  1  0
  4  5  2  0
  4  6  1  0
  6  7  1  0
  7  8  2  0
  8  9  1  0
  9 10  2  0
 10 11  1  0
 10 12  1  0
 12 13  1  0
 13 14  2  0
 14 15  1  0
 15 16  2  0
 16 17  1  0
 17 18  2  0
 18 19  1  0
 19 20  2  0
 20 21  1  0
 12 22  2  0
  2 23  1  0
 23 24  2  0
 24 25  1  0
 25 26  2  0
 26 27  1  0
 27 28  2  0
 27 29  1  0
 26 30  1  0
 30 31  2  0
 22  7  1  0
 31 23  1  0
 21 13  1  0
 20 15  1  0
M  CHG  2  27   1  29  -1
M  END
>  <Compound_ID>  (372) 
CHEMBL460746

>  <Active>  (372) 
1

>  <Smiles>  (372) 
O=C(NC(=S)Nc1ccc(O)c(-c2nc3ccccc3s2)c1)c1ccc([N+](=O)[O-])cc1

>  <canonical_smi>  (372) 
O=C(NC(=S)Nc1ccc(O)c(-c2nc3ccccc3s2)c1)c1ccc([N+](=O)[O-])cc1

>  <Set>  (372) 
G2 active

>  <Set_type>  (372) 
Train

>  <MW>  (372) 
450.5

>  <HBD>  (372) 
3

>  <HBA>  (372) 
7

>  <NRB>  (372) 
4

>  <NR>  (372) 
4

>  <NAR>  (372) 
4

>  <PSA>  (372) 
117.39

>  <Standard Type>  (372) 
nan

>  <Standard Relation>  (372) 
nan

>  <Standard Units>  (372) 
nan

>  <Standard Value>  (372) 
nan

>  <Assay ChEMBL ID>  (372) 
nan

>  <Assay Description>  (372) 
nan

>  <BAO Label>  (372) 
nan

$$$$

     RDKit          2D

 20 21  0  0  0  0  0  0  0  0999 V2000
   -0.0372   -9.4196    0.0000 O   0  0  0  0  0  0  0  0  0  0  0  0
   -1.0409   -8.3049    0.0000 C   0  0  0  0  0  0  0  0  0  0  0  0
   -2.5081   -8.6168    0.0000 C   0  0  0  0  0  0  0  0  0  0  0  0
   -2.9716  -10.0434    0.0000 O   0  0  0  0  0  0  0  0  0  0  0  0
   -0.5773   -6.8783    0.0000 N   0  0  0  0  0  0  0  0  0  0  0  0
    0.8899   -6.5665    0.0000 C   0  0  0  0  0  0  0  0  0  0  0  0
    2.0046   -7.5702    0.0000 C   0  0  0  0  0  0  0  0  0  0  0  0
    3.3037   -6.8202    0.0000 N   0  0  0  0  0  0  0  0  0  0  0  0
    2.9918   -5.3529    0.0000 N   0  0  0  0  0  0  0  0  0  0  0  0
    1.5000   -5.1962    0.0000 C   0  0  0  0  0  0  0  0  0  0  0  0
    0.7500   -3.8971    0.0000 C   0  0  0  0  0  0  0  0  0  0  0  0
   -0.7500   -3.8971    0.0000 O   0  0  0  0  0  0  0  0  0  0  0  0
    1.5000   -2.5981    0.0000 N   0  0  0  0  0  0  0  0  0  0  0  0
    0.7500   -1.2990    0.0000 C   0  0  0  0  0  0  0  0  0  0  0  0
    1.5000    0.0000    0.0000 C   0  0  0  0  0  0  0  0  0  0  0  0
    0.7500    1.2990    0.0000 C   0  0  0  0  0  0  0  0  0  0  0  0
   -0.7500    1.2990    0.0000 C   0  0  0  0  0  0  0  0  0  0  0  0
   -1.5000    2.5981    0.0000 F   0  0  0  0  0  0  0  0  0  0  0  0
   -1.5000    0.0000    0.0000 C   0  0  0  0  0  0  0  0  0  0  0  0
   -0.7500   -1.2990    0.0000 C   0  0  0  0  0  0  0  0  0  0  0  0
  1  2  2  0
  2  3  1  0
  3  4  1  0
  2  5  1  0
  5  6  1  0
  6  7  2  0
  7  8  1  0
  8  9  1  0
  9 10  2  0
 10 11  1  0
 11 12  2  0
 11 13  1  0
 13 14  1  0
 14 15  2  0
 15 16  1  0
 16 17  2  0
 17 18  1  0
 17 19  1  0
 19 20  2  0
 10  6  1  0
 20 14  1  0
M  END
>  <Compound_ID>  (373) 
CHEMBL443198

>  <Active>  (373) 
1

>  <Smiles>  (373) 
O=C(CO)Nc1c[nH]nc1C(=O)Nc1ccc(F)cc1

>  <canonical_smi>  (373) 
O=C(CO)Nc1c[nH]nc1C(=O)Nc1ccc(F)cc1

>  <Set>  (373) 
G2 active

>  <Set_type>  (373) 
Train

>  <MW>  (373) 
278.24

>  <HBD>  (373) 
4

>  <HBA>  (373) 
4

>  <NRB>  (373) 
4

>  <NR>  (373) 
2

>  <NAR>  (373) 
2

>  <PSA>  (373) 
107.11

>  <Standard Type>  (373) 
nan

>  <Standard Relation>  (373) 
nan

>  <Standard Units>  (373) 
nan

>  <Standard Value>  (373) 
nan

>  <Assay ChEMBL ID>  (373) 
nan

>  <Assay Description>  (373) 
nan

>  <BAO Label>  (373) 
nan

$$$$

     RDKit          2D

 27 30  0  0  0  0  0  0  0  0999 V2000
    3.3287    1.8373    0.0000 O   0  0  0  0  0  0  0  0  0  0  0  0
    2.3250    2.9520    0.0000 C   0  0  0  0  0  0  0  0  0  0  0  0
    2.7886    4.3786    0.0000 C   0  0  0  0  0  0  0  0  0  0  0  0
    4.2558    4.6904    0.0000 C   0  0  0  0  0  0  0  0  0  0  0  0
    5.2595    3.5757    0.0000 C   0  0  0  0  0  0  0  0  0  0  0  0
    6.7267    3.8876    0.0000 C   0  0  0  0  0  0  0  0  0  0  0  0
    7.1902    5.3142    0.0000 C   0  0  0  0  0  0  0  0  0  0  0  0
    6.1865    6.4289    0.0000 C   0  0  0  0  0  0  0  0  0  0  0  0
    4.7193    6.1170    0.0000 C   0  0  0  0  0  0  0  0  0  0  0  0
    0.8578    2.6401    0.0000 N   0  0  0  0  0  0  0  0  0  0  0  0
    0.3943    1.2135    0.0000 C   0  0  0  0  0  0  0  0  0  0  0  0
    1.2760    0.0000    0.0000 N   0  0  0  0  0  0  0  0  0  0  0  0
    0.3943   -1.2135    0.0000 N   0  0  0  0  0  0  0  0  0  0  0  0
   -1.0323   -0.7500    0.0000 C   0  0  0  0  0  0  0  0  0  0  0  0
   -1.0323    0.7500    0.0000 C   0  0  0  0  0  0  0  0  0  0  0  0
   -2.4589    1.2135    0.0000 C   0  0  0  0  0  0  0  0  0  0  0  0
   -3.3405    0.0000    0.0000 N   0  0  0  0  0  0  0  0  0  0  0  0
   -4.8405    0.0000    0.0000 C   0  0  0  0  0  0  0  0  0  0  0  0
   -5.5905   -1.2990    0.0000 O   0  0  0  0  0  0  0  0  0  0  0  0
   -5.5905    1.2990    0.0000 N   0  0  0  0  0  0  0  0  0  0  0  0
   -7.0905    1.2990    0.0000 C   0  0  0  0  0  0  0  0  0  0  0  0
   -7.8405    2.5981    0.0000 C   0  0  0  0  0  0  0  0  0  0  0  0
   -9.3405    2.5981    0.0000 C   0  0  0  0  0  0  0  0  0  0  0  0
  -10.0905    1.2990    0.0000 C   0  0  0  0  0  0  0  0  0  0  0  0
   -9.3405    0.0000    0.0000 C   0  0  0  0  0  0  0  0  0  0  0  0
   -7.8405    0.0000    0.0000 C   0  0  0  0  0  0  0  0  0  0  0  0
   -2.4589   -1.2135    0.0000 C   0  0  0  0  0  0  0  0  0  0  0  0
  1  2  2  0
  2  3  1  0
  3  4  1  0
  4  5  2  0
  5  6  1  0
  6  7  2  0
  7  8  1  0
  8  9  2  0
  2 10  1  0
 10 11  1  0
 11 12  1  0
 12 13  1  0
 13 14  2  0
 14 15  1  0
 15 16  1  0
 16 17  1  0
 17 18  1  0
 18 19  2  0
 18 20  1  0
 20 21  1  0
 21 22  2  0
 22 23  1  0
 23 24  2  0
 24 25  1  0
 25 26  2  0
 17 27  1  0
  9  4  1  0
 15 11  2  0
 26 21  1  0
 27 14  1  0
M  END
>  <Compound_ID>  (374) 
CHEMBL203707

>  <Active>  (374) 
1

>  <Smiles>  (374) 
O=C(Cc1ccccc1)Nc1[nH]nc2c1CN(C(=O)Nc1ccccc1)C2

>  <canonical_smi>  (374) 
O=C(Cc1ccccc1)Nc1[nH]nc2c1CN(C(=O)Nc1ccccc1)C2

>  <Set>  (374) 
G2 active

>  <Set_type>  (374) 
Train

>  <MW>  (374) 
361.41

>  <HBD>  (374) 
3

>  <HBA>  (374) 
3

>  <NRB>  (374) 
4

>  <NR>  (374) 
4

>  <NAR>  (374) 
3

>  <PSA>  (374) 
90.12

>  <Standard Type>  (374) 
nan

>  <Standard Relation>  (374) 
nan

>  <Standard Units>  (374) 
nan

>  <Standard Value>  (374) 
nan

>  <Assay ChEMBL ID>  (374) 
nan

>  <Assay Description>  (374) 
nan

>  <BAO Label>  (374) 
nan

$$$$

     RDKit          2D

 23 26  0  0  0  0  0  0  0  0999 V2000
    5.2500   -1.2990    0.0000 C   0  0  0  0  0  0  0  0  0  0  0  0
    3.7500   -1.2990    0.0000 C   0  0  0  0  0  0  0  0  0  0  0  0
    3.0000   -2.5981    0.0000 O   0  0  0  0  0  0  0  0  0  0  0  0
    3.0000    0.0000    0.0000 N   0  0  0  0  0  0  0  0  0  0  0  0
    1.5000    0.0000    0.0000 C   0  0  0  0  0  0  0  0  0  0  0  0
    0.7500   -1.2990    0.0000 C   0  0  0  0  0  0  0  0  0  0  0  0
   -0.7500   -1.2990    0.0000 C   0  0  0  0  0  0  0  0  0  0  0  0
   -1.5000    0.0000    0.0000 C   0  0  0  0  0  0  0  0  0  0  0  0
   -0.7500    1.2990    0.0000 C   0  0  0  0  0  0  0  0  0  0  0  0
    0.7500    1.2990    0.0000 C   0  0  0  0  0  0  0  0  0  0  0  0
    1.2135    2.7256    0.0000 C   0  0  0  0  0  0  0  0  0  0  0  0
    2.6401    3.1891    0.0000 O   0  0  0  0  0  0  0  0  0  0  0  0
    0.0000    3.6073    0.0000 C   0  0  0  0  0  0  0  0  0  0  0  0
   -0.4635    5.0339    0.0000 C   0  0  0  0  0  0  0  0  0  0  0  0
    0.4182    6.2474    0.0000 C   0  0  0  0  0  0  0  0  0  0  0  0
    1.9099    6.0906    0.0000 C   0  0  0  0  0  0  0  0  0  0  0  0
    2.7916    7.3041    0.0000 C   0  0  0  0  0  0  0  0  0  0  0  0
    2.1815    8.6745    0.0000 C   0  0  0  0  0  0  0  0  0  0  0  0
    0.6897    8.8313    0.0000 N   0  0  0  0  0  0  0  0  0  0  0  0
   -0.1920    7.6177    0.0000 C   0  0  0  0  0  0  0  0  0  0  0  0
   -1.9635    5.0339    0.0000 N   0  0  0  0  0  0  0  0  0  0  0  0
   -2.4271    3.6073    0.0000 N   0  0  0  0  0  0  0  0  0  0  0  0
   -1.2135    2.7256    0.0000 C   0  0  0  0  0  0  0  0  0  0  0  0
  1  2  1  0
  2  3  2  0
  2  4  1  0
  4  5  1  0
  5  6  2  0
  6  7  1  0
  7  8  2  0
  8  9  1  0
  9 10  2  0
 10 11  1  0
 11 12  2  0
 11 13  1  0
 13 14  1  0
 14 15  1  0
 15 16  2  0
 16 17  1  0
 17 18  2  0
 18 19  1  0
 19 20  2  0
 14 21  2  0
 21 22  1  0
 22 23  1  0
 10  5  1  0
 23 13  2  0
 23  9  1  0
 20 15  1  0
M  END
>  <Compound_ID>  (375) 
CHEMBL436466

>  <Active>  (375) 
1

>  <Smiles>  (375) 
CC(=O)Nc1cccc2c1C(=O)c1c(-c3cccnc3)n[nH]c1-2

>  <canonical_smi>  (375) 
CC(=O)Nc1cccc2c1C(=O)c1c(-c3cccnc3)n[nH]c1-2

>  <Set>  (375) 
G2 active

>  <Set_type>  (375) 
Train

>  <MW>  (375) 
304.31

>  <HBD>  (375) 
2

>  <HBA>  (375) 
4

>  <NRB>  (375) 
2

>  <NR>  (375) 
4

>  <NAR>  (375) 
4

>  <PSA>  (375) 
87.74

>  <Standard Type>  (375) 
nan

>  <Standard Relation>  (375) 
nan

>  <Standard Units>  (375) 
nan

>  <Standard Value>  (375) 
nan

>  <Assay ChEMBL ID>  (375) 
nan

>  <Assay Description>  (375) 
nan

>  <BAO Label>  (375) 
nan

$$$$

     RDKit          2D

 23 24  0  0  0  0  0  0  0  0999 V2000
   -5.0490   -3.1471    0.0000 C   0  0  0  0  0  0  0  0  0  0  0  0
   -3.7500   -3.8971    0.0000 C   0  0  0  0  0  0  0  0  0  0  0  0
   -2.4510   -4.6471    0.0000 C   0  0  0  0  0  0  0  0  0  0  0  0
   -4.5000   -5.1962    0.0000 C   0  0  0  0  0  0  0  0  0  0  0  0
   -3.0000   -2.5981    0.0000 N   0  0  0  0  0  0  0  0  0  0  0  0
   -1.5000   -2.5981    0.0000 C   0  0  0  0  0  0  0  0  0  0  0  0
   -0.7500   -3.8971    0.0000 N   0  0  0  0  0  0  0  0  0  0  0  0
    0.7500   -3.8971    0.0000 C   0  0  0  0  0  0  0  0  0  0  0  0
    1.5000   -5.1962    0.0000 C   0  0  0  0  0  0  0  0  0  0  0  0
    2.2500   -6.4952    0.0000 F   0  0  0  0  0  0  0  0  0  0  0  0
    0.2010   -5.9462    0.0000 F   0  0  0  0  0  0  0  0  0  0  0  0
    2.7990   -4.4462    0.0000 F   0  0  0  0  0  0  0  0  0  0  0  0
    1.5000   -2.5981    0.0000 N   0  0  0  0  0  0  0  0  0  0  0  0
    0.7500   -1.2990    0.0000 C   0  0  0  0  0  0  0  0  0  0  0  0
    1.5000    0.0000    0.0000 C   0  0  0  0  0  0  0  0  0  0  0  0
    0.7500    1.2990    0.0000 C   0  0  0  0  0  0  0  0  0  0  0  0
   -0.7500    1.2990    0.0000 C   0  0  0  0  0  0  0  0  0  0  0  0
   -1.5000    2.5981    0.0000 C   0  0  0  0  0  0  0  0  0  0  0  0
   -2.2500    3.8971    0.0000 F   0  0  0  0  0  0  0  0  0  0  0  0
   -0.2010    3.3481    0.0000 F   0  0  0  0  0  0  0  0  0  0  0  0
   -2.7990    1.8481    0.0000 F   0  0  0  0  0  0  0  0  0  0  0  0
   -1.5000    0.0000    0.0000 C   0  0  0  0  0  0  0  0  0  0  0  0
   -0.7500   -1.2990    0.0000 C   0  0  0  0  0  0  0  0  0  0  0  0
  1  2  1  0
  2  3  1  0
  2  4  1  0
  2  5  1  0
  5  6  1  0
  6  7  2  0
  7  8  1  0
  8  9  1  0
  9 10  1  0
  9 11  1  0
  9 12  1  0
  8 13  2  0
 13 14  1  0
 14 15  2  0
 15 16  1  0
 16 17  2  0
 17 18  1  0
 18 19  1  0
 18 20  1  0
 18 21  1  0
 17 22  1  0
 22 23  2  0
 23  6  1  0
 23 14  1  0
M  END
>  <Compound_ID>  (376) 
CHEMBL16364

>  <Active>  (376) 
1

>  <Smiles>  (376) 
CC(C)(C)Nc1nc(C(F)(F)F)nc2ccc(C(F)(F)F)cc12

>  <canonical_smi>  (376) 
CC(C)(C)Nc1nc(C(F)(F)F)nc2ccc(C(F)(F)F)cc12

>  <Set>  (376) 
G2 active

>  <Set_type>  (376) 
Train

>  <MW>  (376) 
337.27

>  <HBD>  (376) 
1

>  <HBA>  (376) 
3

>  <NRB>  (376) 
1

>  <NR>  (376) 
2

>  <NAR>  (376) 
2

>  <PSA>  (376) 
37.81

>  <Standard Type>  (376) 
nan

>  <Standard Relation>  (376) 
nan

>  <Standard Units>  (376) 
nan

>  <Standard Value>  (376) 
nan

>  <Assay ChEMBL ID>  (376) 
nan

>  <Assay Description>  (376) 
nan

>  <BAO Label>  (376) 
nan

$$$$

     RDKit          2D

 37 43  0  0  0  0  0  0  0  0999 V2000
   -8.7604   -0.0649    0.0000 C   0  0  0  0  0  0  0  0  0  0  0  0
   -8.4485   -1.5321    0.0000 N   0  0  0  0  0  0  0  0  0  0  0  0
   -9.4522   -2.6468    0.0000 C   0  0  0  0  0  0  0  0  0  0  0  0
   -8.7022   -3.9458    0.0000 C   0  0  0  0  0  0  0  0  0  0  0  0
   -7.2350   -3.6340    0.0000 C   0  0  0  0  0  0  0  0  0  0  0  0
   -6.0214   -4.5156    0.0000 C   0  0  0  0  0  0  0  0  0  0  0  0
   -4.6511   -3.9055    0.0000 C   0  0  0  0  0  0  0  0  0  0  0  0
   -4.4943   -2.4138    0.0000 C   0  0  0  0  0  0  0  0  0  0  0  0
   -3.1240   -1.8037    0.0000 C   0  0  0  0  0  0  0  0  0  0  0  0
   -1.7537   -2.4138    0.0000 N   0  0  0  0  0  0  0  0  0  0  0  0
   -0.7500   -1.2990    0.0000 C   0  0  0  0  0  0  0  0  0  0  0  0
    0.7500   -1.2990    0.0000 C   0  0  0  0  0  0  0  0  0  0  0  0
    1.5000   -2.5981    0.0000 C   0  0  0  0  0  0  0  0  0  0  0  0
    3.0000   -2.5981    0.0000 C   0  0  0  0  0  0  0  0  0  0  0  0
    3.7500   -3.8971    0.0000 N   0  0  0  0  0  0  0  0  0  0  0  0
    3.0000   -5.1962    0.0000 C   0  0  0  0  0  0  0  0  0  0  0  0
    3.7500   -6.4952    0.0000 C   0  0  0  0  0  0  0  0  0  0  0  0
    5.2500   -6.4952    0.0000 C   0  0  0  0  0  0  0  0  0  0  0  0
    6.0000   -7.7942    0.0000 C   0  0  0  0  0  0  0  0  0  0  0  0
    5.2500   -9.0933    0.0000 N   0  0  0  0  0  0  0  0  0  0  0  0
    7.5000   -7.7942    0.0000 O   0  0  0  0  0  0  0  0  0  0  0  0
    6.0000   -5.1962    0.0000 C   0  0  0  0  0  0  0  0  0  0  0  0
    5.2500   -3.8971    0.0000 C   0  0  0  0  0  0  0  0  0  0  0  0
    1.5000    0.0000    0.0000 C   0  0  0  0  0  0  0  0  0  0  0  0
    0.7500    1.2990    0.0000 C   0  0  0  0  0  0  0  0  0  0  0  0
   -0.7500    1.2990    0.0000 C   0  0  0  0  0  0  0  0  0  0  0  0
   -1.5000    0.0000    0.0000 C   0  0  0  0  0  0  0  0  0  0  0  0
   -2.9672   -0.3119    0.0000 C   0  0  0  0  0  0  0  0  0  0  0  0
   -4.1807    0.5698    0.0000 C   0  0  0  0  0  0  0  0  0  0  0  0
   -5.5511   -0.0403    0.0000 C   0  0  0  0  0  0  0  0  0  0  0  0
   -5.7079   -1.5321    0.0000 C   0  0  0  0  0  0  0  0  0  0  0  0
   -7.0782   -2.1422    0.0000 C   0  0  0  0  0  0  0  0  0  0  0  0
   -6.5548    1.0744    0.0000 C   0  0  0  0  0  0  0  0  0  0  0  0
   -8.0465    0.9176    0.0000 O   0  0  0  0  0  0  0  0  0  0  0  0
   -5.8048    2.3735    0.0000 N   0  0  0  0  0  0  0  0  0  0  0  0
   -4.3375    2.0616    0.0000 C   0  0  0  0  0  0  0  0  0  0  0  0
   -3.2228    3.0653    0.0000 O   0  0  0  0  0  0  0  0  0  0  0  0
  1  2  1  0
  2  3  1  0
  3  4  2  0
  4  5  1  0
  5  6  2  0
  6  7  1  0
  7  8  2  0
  8  9  1  0
  9 10  1  0
 10 11  1  0
 11 12  2  0
 12 13  1  0
 13 14  1  0
 14 15  1  0
 15 16  1  0
 16 17  1  0
 17 18  1  0
 18 19  1  0
 19 20  1  0
 19 21  2  0
 18 22  1  0
 22 23  1  0
 12 24  1  0
 24 25  2  0
 25 26  1  0
 26 27  2  0
 27 28  1  0
 28 29  1  0
 29 30  2  0
 30 31  1  0
 31 32  2  0
 30 33  1  0
 33 34  2  0
 33 35  1  0
 35 36  1  0
 36 37  2  0
 32  2  1  0
 32  5  1  0
 31  8  1  0
 28  9  2  0
 36 29  1  0
 27 11  1  0
 23 15  1  0
M  END
>  <Compound_ID>  (377) 
CHEMBL312292

>  <Active>  (377) 
1

>  <Smiles>  (377) 
Cn1ccc2ccc3c4[nH]c5c(CCN6CCC(C(N)=O)CC6)cccc5c4c4c(c3c21)C(=O)NC4=O

>  <canonical_smi>  (377) 
Cn1ccc2ccc3c4[nH]c5c(CCN6CCC(C(N)=O)CC6)cccc5c4c4c(c3c21)C(=O)NC4=O

>  <Set>  (377) 
G2 active

>  <Set_type>  (377) 
Train

>  <MW>  (377) 
493.57

>  <HBD>  (377) 
3

>  <HBA>  (377) 
4

>  <NRB>  (377) 
4

>  <NR>  (377) 
7

>  <NAR>  (377) 
5

>  <PSA>  (377) 
113.22

>  <Standard Type>  (377) 
nan

>  <Standard Relation>  (377) 
nan

>  <Standard Units>  (377) 
nan

>  <Standard Value>  (377) 
nan

>  <Assay ChEMBL ID>  (377) 
nan

>  <Assay Description>  (377) 
nan

>  <BAO Label>  (377) 
nan

$$$$

     RDKit          2D

 30 33  0  0  0  0  0  0  0  0999 V2000
    3.5260    1.2990    0.0000 C   0  0  0  0  0  0  0  0  0  0  0  0
    2.7760    0.0000    0.0000 C   0  0  0  0  0  0  0  0  0  0  0  0
    3.5260   -1.2990    0.0000 C   0  0  0  0  0  0  0  0  0  0  0  0
    1.2760    0.0000    0.0000 N   0  0  0  0  0  0  0  0  0  0  0  0
    0.3943    1.2135    0.0000 C   0  0  0  0  0  0  0  0  0  0  0  0
   -1.0323    0.7500    0.0000 N   0  0  0  0  0  0  0  0  0  0  0  0
   -1.0323   -0.7500    0.0000 C   0  0  0  0  0  0  0  0  0  0  0  0
   -2.1470   -1.7537    0.0000 C   0  0  0  0  0  0  0  0  0  0  0  0
   -3.5736   -1.2902    0.0000 N   0  0  0  0  0  0  0  0  0  0  0  0
   -4.6883   -2.2939    0.0000 C   0  0  0  0  0  0  0  0  0  0  0  0
   -6.1149   -1.8303    0.0000 C   0  0  0  0  0  0  0  0  0  0  0  0
   -6.4268   -0.3631    0.0000 C   0  0  0  0  0  0  0  0  0  0  0  0
   -7.8533    0.1004    0.0000 C   0  0  0  0  0  0  0  0  0  0  0  0
   -8.9681   -0.9033    0.0000 C   0  0  0  0  0  0  0  0  0  0  0  0
   -8.6562   -2.3705    0.0000 C   0  0  0  0  0  0  0  0  0  0  0  0
   -7.2296   -2.8340    0.0000 C   0  0  0  0  0  0  0  0  0  0  0  0
   -9.9552   -3.1205    0.0000 O   0  0  0  0  0  0  0  0  0  0  0  0
  -11.0699   -2.1168    0.0000 C   0  0  0  0  0  0  0  0  0  0  0  0
  -10.4598   -0.7465    0.0000 O   0  0  0  0  0  0  0  0  0  0  0  0
   -1.8351   -3.2209    0.0000 N   0  0  0  0  0  0  0  0  0  0  0  0
   -0.4086   -3.6844    0.0000 C   0  0  0  0  0  0  0  0  0  0  0  0
   -0.0967   -5.1517    0.0000 N   0  0  0  0  0  0  0  0  0  0  0  0
   -1.2114   -6.1554    0.0000 C   0  0  0  0  0  0  0  0  0  0  0  0
   -0.8995   -7.6226    0.0000 C   0  0  0  0  0  0  0  0  0  0  0  0
   -2.0143   -8.6263    0.0000 O   0  0  0  0  0  0  0  0  0  0  0  0
    1.3299   -5.6152    0.0000 C   0  0  0  0  0  0  0  0  0  0  0  0
    1.6418   -7.0824    0.0000 C   0  0  0  0  0  0  0  0  0  0  0  0
    3.0684   -7.5459    0.0000 O   0  0  0  0  0  0  0  0  0  0  0  0
    0.7062   -2.6807    0.0000 N   0  0  0  0  0  0  0  0  0  0  0  0
    0.3943   -1.2135    0.0000 C   0  0  0  0  0  0  0  0  0  0  0  0
  1  2  1  0
  2  3  1  0
  2  4  1  0
  4  5  1  0
  5  6  2  0
  6  7  1  0
  7  8  2  0
  8  9  1  0
  9 10  1  0
 10 11  1  0
 11 12  2  0
 12 13  1  0
 13 14  2  0
 14 15  1  0
 15 16  2  0
 15 17  1  0
 17 18  1  0
 18 19  1  0
  8 20  1  0
 20 21  2  0
 21 22  1  0
 22 23  1  0
 23 24  1  0
 24 25  1  0
 22 26  1  0
 26 27  1  0
 27 28  1  0
 21 29  1  0
 29 30  2  0
 30  4  1  0
 30  7  1  0
 16 11  1  0
 19 14  1  0
M  END
>  <Compound_ID>  (378) 
CHEMBL327629

>  <Active>  (378) 
1

>  <Smiles>  (378) 
CC(C)n1cnc2c(NCc3ccc4c(c3)OCO4)nc(N(CCO)CCO)nc21

>  <canonical_smi>  (378) 
CC(C)n1cnc2c(NCc3ccc4c(c3)OCO4)nc(N(CCO)CCO)nc21

>  <Set>  (378) 
G2 active

>  <Set_type>  (378) 
Train

>  <MW>  (378) 
414.47

>  <HBD>  (378) 
3

>  <HBA>  (378) 
9

>  <NRB>  (378) 
9

>  <NR>  (378) 
4

>  <NAR>  (378) 
3

>  <PSA>  (378) 
117.79

>  <Standard Type>  (378) 
nan

>  <Standard Relation>  (378) 
nan

>  <Standard Units>  (378) 
nan

>  <Standard Value>  (378) 
nan

>  <Assay ChEMBL ID>  (378) 
nan

>  <Assay Description>  (378) 
nan

>  <BAO Label>  (378) 
nan

$$$$

     RDKit          2D

 40 44  0  0  0  0  0  0  0  0999 V2000
  -11.3324  -12.8429    0.0000 C   0  0  0  0  0  0  0  0  0  0  0  0
   -9.9058  -12.3794    0.0000 N   0  0  0  0  0  0  0  0  0  0  0  0
   -9.5939  -10.9121    0.0000 C   0  0  0  0  0  0  0  0  0  0  0  0
   -8.1673  -10.4486    0.0000 C   0  0  0  0  0  0  0  0  0  0  0  0
   -7.0526  -11.4523    0.0000 N   0  0  0  0  0  0  0  0  0  0  0  0
   -5.6260  -10.9888    0.0000 C   0  0  0  0  0  0  0  0  0  0  0  0
   -5.3142   -9.5216    0.0000 C   0  0  0  0  0  0  0  0  0  0  0  0
   -3.8876   -9.0580    0.0000 O   0  0  0  0  0  0  0  0  0  0  0  0
   -3.5757   -7.5908    0.0000 C   0  0  0  0  0  0  0  0  0  0  0  0
   -2.1491   -7.1273    0.0000 C   0  0  0  0  0  0  0  0  0  0  0  0
   -1.8373   -5.6601    0.0000 C   0  0  0  0  0  0  0  0  0  0  0  0
   -0.4905   -5.5660    0.0000 F   0  0  0  0  0  0  0  0  0  0  0  0
   -2.9520   -4.6564    0.0000 C   0  0  0  0  0  0  0  0  0  0  0  0
   -2.6401   -3.1891    0.0000 C   0  0  0  0  0  0  0  0  0  0  0  0
   -3.7548   -2.1855    0.0000 O   0  0  0  0  0  0  0  0  0  0  0  0
   -1.2135   -2.7256    0.0000 C   0  0  0  0  0  0  0  0  0  0  0  0
   -0.7500   -1.2990    0.0000 C   0  0  0  0  0  0  0  0  0  0  0  0
   -1.6317   -0.0855    0.0000 N   0  0  0  0  0  0  0  0  0  0  0  0
    0.7500   -1.2990    0.0000 N   0  0  0  0  0  0  0  0  0  0  0  0
    1.2135   -2.7256    0.0000 C   0  0  0  0  0  0  0  0  0  0  0  0
    2.5838   -3.3357    0.0000 C   0  0  0  0  0  0  0  0  0  0  0  0
    2.7406   -4.8275    0.0000 C   0  0  0  0  0  0  0  0  0  0  0  0
    1.5271   -5.7092    0.0000 C   0  0  0  0  0  0  0  0  0  0  0  0
    1.6839   -7.2010    0.0000 C   0  0  0  0  0  0  0  0  0  0  0  0
    0.4704   -8.0826    0.0000 O   0  0  0  0  0  0  0  0  0  0  0  0
    3.0542   -7.8111    0.0000 C   0  0  0  0  0  0  0  0  0  0  0  0
    4.2677   -6.9294    0.0000 C   0  0  0  0  0  0  0  0  0  0  0  0
    4.1110   -5.4376    0.0000 Cl  0  0  0  0  0  0  0  0  0  0  0  0
    5.6381   -7.5395    0.0000 C   0  0  0  0  0  0  0  0  0  0  0  0
    5.7949   -9.0313    0.0000 C   0  0  0  0  0  0  0  0  0  0  0  0
    4.5813   -9.9130    0.0000 C   0  0  0  0  0  0  0  0  0  0  0  0
    3.2110   -9.3029    0.0000 C   0  0  0  0  0  0  0  0  0  0  0  0
    1.9975  -10.1845    0.0000 Cl  0  0  0  0  0  0  0  0  0  0  0  0
    0.1568   -5.0991    0.0000 C   0  0  0  0  0  0  0  0  0  0  0  0
    0.0000   -3.6073    0.0000 N   0  0  0  0  0  0  0  0  0  0  0  0
   -4.3786   -5.1199    0.0000 C   0  0  0  0  0  0  0  0  0  0  0  0
   -5.4933   -4.1162    0.0000 F   0  0  0  0  0  0  0  0  0  0  0  0
   -4.6904   -6.5871    0.0000 C   0  0  0  0  0  0  0  0  0  0  0  0
   -7.3645  -12.9195    0.0000 C   0  0  0  0  0  0  0  0  0  0  0  0
   -8.7911  -13.3831    0.0000 C   0  0  0  0  0  0  0  0  0  0  0  0
  1  2  1  0
  2  3  1  0
  3  4  1  0
  4  5  1  0
  5  6  1  0
  6  7  1  0
  7  8  1  0
  8  9  1  0
  9 10  2  0
 10 11  1  0
 11 12  1  0
 11 13  2  0
 13 14  1  0
 14 15  2  0
 14 16  1  0
 16 17  2  0
 17 18  1  0
 17 19  1  0
 19 20  2  0
 20 21  1  0
 21 22  2  0
 22 23  1  0
 23 24  1  0
 24 25  2  0
 24 26  1  0
 26 27  2  0
 27 28  1  0
 27 29  1  0
 29 30  2  0
 30 31  1  0
 31 32  2  0
 32 33  1  0
 23 34  2  0
 34 35  1  0
 13 36  1  0
 36 37  1  0
 36 38  2  0
  5 39  1  0
 39 40  1  0
 40  2  1  0
 38  9  1  0
 35 16  1  0
 35 20  1  0
 32 26  1  0
M  END
>  <Compound_ID>  (379) 
CHEMBL186396

>  <Active>  (379) 
1

>  <Smiles>  (379) 
CN1CCN(CCOc2cc(F)c(C(=O)c3c(N)nc4ccc(C(=O)c5c(Cl)cccc5Cl)cn34)c(F)c2)CC1

>  <canonical_smi>  (379) 
CN1CCN(CCOc2cc(F)c(C(=O)c3c(N)nc4ccc(C(=O)c5c(Cl)cccc5Cl)cn34)c(F)c2)CC1

>  <Set>  (379) 
G2 active

>  <Set_type>  (379) 
Train

>  <MW>  (379) 
588.44

>  <HBD>  (379) 
1

>  <HBA>  (379) 
7

>  <NRB>  (379) 
8

>  <NR>  (379) 
5

>  <NAR>  (379) 
4

>  <PSA>  (379) 
93.17

>  <Standard Type>  (379) 
nan

>  <Standard Relation>  (379) 
nan

>  <Standard Units>  (379) 
nan

>  <Standard Value>  (379) 
nan

>  <Assay ChEMBL ID>  (379) 
nan

>  <Assay Description>  (379) 
nan

>  <BAO Label>  (379) 
nan

$$$$

     RDKit          2D

 26 27  0  0  0  0  0  0  0  0999 V2000
    5.2500   -1.2990    0.0000 C   0  0  0  0  0  0  0  0  0  0  0  0
    3.7500   -1.2990    0.0000 C   0  0  0  0  0  0  0  0  0  0  0  0
    3.0000    0.0000    0.0000 O   0  0  0  0  0  0  0  0  0  0  0  0
    1.5000    0.0000    0.0000 C   0  0  0  0  0  0  0  0  0  0  0  0
    0.7500   -1.2990    0.0000 N   0  0  0  0  0  0  0  0  0  0  0  0
   -0.7500   -1.2990    0.0000 C   0  0  0  0  0  0  0  0  0  0  0  0
   -1.5000   -2.5981    0.0000 N   0  0  0  0  0  0  0  0  0  0  0  0
   -3.0000   -2.5981    0.0000 C   0  0  0  0  0  0  0  0  0  0  0  0
   -3.7500   -1.2990    0.0000 O   0  0  0  0  0  0  0  0  0  0  0  0
   -3.7500   -3.8971    0.0000 C   0  0  0  0  0  0  0  0  0  0  0  0
   -5.2500   -3.8971    0.0000 C   0  0  0  0  0  0  0  0  0  0  0  0
   -6.0000   -2.5981    0.0000 C   0  0  0  0  0  0  0  0  0  0  0  0
   -7.5000   -2.5981    0.0000 C   0  0  0  0  0  0  0  0  0  0  0  0
   -8.2500   -1.2990    0.0000 O   0  0  0  0  0  0  0  0  0  0  0  0
   -7.5000    0.0000    0.0000 C   0  0  0  0  0  0  0  0  0  0  0  0
   -8.2500   -3.8971    0.0000 C   0  0  0  0  0  0  0  0  0  0  0  0
   -7.5000   -5.1962    0.0000 C   0  0  0  0  0  0  0  0  0  0  0  0
   -6.0000   -5.1962    0.0000 C   0  0  0  0  0  0  0  0  0  0  0  0
   -5.2500   -6.4952    0.0000 O   0  0  0  0  0  0  0  0  0  0  0  0
   -6.0000   -7.7942    0.0000 C   0  0  0  0  0  0  0  0  0  0  0  0
   -1.5000    0.0000    0.0000 C   0  0  0  0  0  0  0  0  0  0  0  0
   -0.7500    1.2990    0.0000 C   0  0  0  0  0  0  0  0  0  0  0  0
   -1.5000    2.5981    0.0000 N   0  0  0  0  0  0  0  0  0  0  0  0
    0.7500    1.2990    0.0000 C   0  0  0  0  0  0  0  0  0  0  0  0
    1.5000    2.5981    0.0000 C   0  0  0  0  0  0  0  0  0  0  0  0
    2.2500    3.8971    0.0000 N   0  0  0  0  0  0  0  0  0  0  0  0
  1  2  1  0
  2  3  1  0
  3  4  1  0
  4  5  2  0
  5  6  1  0
  6  7  1  0
  7  8  1  0
  8  9  2  0
  8 10  1  0
 10 11  1  0
 11 12  2  0
 12 13  1  0
 13 14  1  0
 14 15  1  0
 13 16  2  0
 16 17  1  0
 17 18  2  0
 18 19  1  0
 19 20  1  0
  6 21  2  0
 21 22  1  0
 22 23  1  0
 22 24  2  0
 24 25  1  0
 25 26  3  0
 24  4  1  0
 18 11  1  0
M  END
>  <Compound_ID>  (380) 
CHEMBL210618

>  <Active>  (380) 
1

>  <Smiles>  (380) 
CCOc1nc(NC(=O)Cc2cc(OC)ccc2OC)cc(N)c1C#N

>  <canonical_smi>  (380) 
CCOc1nc(NC(=O)Cc2cc(OC)ccc2OC)cc(N)c1C#N

>  <Set>  (380) 
G2 active

>  <Set_type>  (380) 
Train

>  <MW>  (380) 
356.38

>  <HBD>  (380) 
2

>  <HBA>  (380) 
7

>  <NRB>  (380) 
7

>  <NR>  (380) 
2

>  <NAR>  (380) 
2

>  <PSA>  (380) 
119.49

>  <Standard Type>  (380) 
nan

>  <Standard Relation>  (380) 
nan

>  <Standard Units>  (380) 
nan

>  <Standard Value>  (380) 
nan

>  <Assay ChEMBL ID>  (380) 
nan

>  <Assay Description>  (380) 
nan

>  <BAO Label>  (380) 
nan

$$$$

     RDKit          2D

 36 41  0  0  0  0  0  0  0  0999 V2000
    4.1791    8.6583    0.0000 Cl  0  0  0  0  0  0  0  0  0  0  0  0
    3.7156    7.2317    0.0000 C   0  0  0  0  0  0  0  0  0  0  0  0
    4.7193    6.1170    0.0000 C   0  0  0  0  0  0  0  0  0  0  0  0
    4.2558    4.6904    0.0000 C   0  0  0  0  0  0  0  0  0  0  0  0
    2.7886    4.3786    0.0000 C   0  0  0  0  0  0  0  0  0  0  0  0
    2.3250    2.9520    0.0000 O   0  0  0  0  0  0  0  0  0  0  0  0
    0.8578    2.6401    0.0000 C   0  0  0  0  0  0  0  0  0  0  0  0
    0.3943    1.2135    0.0000 C   0  0  0  0  0  0  0  0  0  0  0  0
    1.2760    0.0000    0.0000 N   0  0  0  0  0  0  0  0  0  0  0  0
    0.3943   -1.2135    0.0000 N   0  0  0  0  0  0  0  0  0  0  0  0
   -1.0323   -0.7500    0.0000 C   0  0  0  0  0  0  0  0  0  0  0  0
   -2.4589   -1.2135    0.0000 S   0  0  0  0  0  0  0  0  0  0  0  0
   -3.3405    0.0000    0.0000 C   0  0  0  0  0  0  0  0  0  0  0  0
   -4.8405    0.0000    0.0000 S   0  0  0  0  0  0  0  0  0  0  0  0
   -5.5905    1.2990    0.0000 S   0  0  0  0  0  0  0  0  0  0  0  0
   -7.0905    1.2990    0.0000 C   0  0  0  0  0  0  0  0  0  0  0  0
   -7.9722    0.0855    0.0000 N   0  0  0  0  0  0  0  0  0  0  0  0
   -9.3988    0.5490    0.0000 N   0  0  0  0  0  0  0  0  0  0  0  0
  -10.8254    0.0855    0.0000 C   0  0  0  0  0  0  0  0  0  0  0  0
  -11.2889   -1.3411    0.0000 C   0  0  0  0  0  0  0  0  0  0  0  0
  -12.7561   -1.6529    0.0000 O   0  0  0  0  0  0  0  0  0  0  0  0
  -13.2197   -3.0795    0.0000 C   0  0  0  0  0  0  0  0  0  0  0  0
  -14.6869   -3.3914    0.0000 C   0  0  0  0  0  0  0  0  0  0  0  0
  -15.1504   -4.8180    0.0000 C   0  0  0  0  0  0  0  0  0  0  0  0
  -14.1467   -5.9327    0.0000 C   0  0  0  0  0  0  0  0  0  0  0  0
  -14.6102   -7.3593    0.0000 Cl  0  0  0  0  0  0  0  0  0  0  0  0
  -12.6795   -5.6208    0.0000 C   0  0  0  0  0  0  0  0  0  0  0  0
  -12.2160   -4.1942    0.0000 C   0  0  0  0  0  0  0  0  0  0  0  0
  -11.7071    1.2990    0.0000 N   0  0  0  0  0  0  0  0  0  0  0  0
  -10.8254    2.5126    0.0000 N   0  0  0  0  0  0  0  0  0  0  0  0
   -9.3988    2.0490    0.0000 C   0  0  0  0  0  0  0  0  0  0  0  0
   -7.9722    2.5126    0.0000 S   0  0  0  0  0  0  0  0  0  0  0  0
   -2.4589    1.2135    0.0000 N   0  0  0  0  0  0  0  0  0  0  0  0
   -1.0323    0.7500    0.0000 N   0  0  0  0  0  0  0  0  0  0  0  0
    1.7849    5.4933    0.0000 C   0  0  0  0  0  0  0  0  0  0  0  0
    2.2484    6.9199    0.0000 C   0  0  0  0  0  0  0  0  0  0  0  0
  1  2  1  0
  2  3  2  0
  3  4  1  0
  4  5  2  0
  5  6  1  0
  6  7  1  0
  7  8  1  0
  8  9  2  0
  9 10  1  0
 10 11  2  0
 11 12  1  0
 12 13  1  0
 13 14  1  0
 14 15  1  0
 15 16  1  0
 16 17  2  0
 17 18  1  0
 18 19  1  0
 19 20  1  0
 20 21  1  0
 21 22  1  0
 22 23  2  0
 23 24  1  0
 24 25  2  0
 25 26  1  0
 25 27  1  0
 27 28  2  0
 19 29  2  0
 29 30  1  0
 30 31  2  0
 31 32  1  0
 13 33  2  0
 33 34  1  0
  5 35  1  0
 35 36  2  0
 36  2  1  0
 34  8  1  0
 34 11  1  0
 32 16  1  0
 31 18  1  0
 28 22  1  0
M  END
>  <Compound_ID>  (381) 
CHEMBL551258

>  <Active>  (381) 
1

>  <Smiles>  (381) 
Clc1ccc(OCc2nnc3sc(SSc4nn5c(COc6ccc(Cl)cc6)nnc5s4)nn23)cc1

>  <canonical_smi>  (381) 
Clc1ccc(OCc2nnc3sc(SSc4nn5c(COc6ccc(Cl)cc6)nnc5s4)nn23)cc1

>  <Set>  (381) 
G2 active

>  <Set_type>  (381) 
Train

>  <MW>  (381) 
595.54

>  <HBD>  (381) 
0

>  <HBA>  (381) 
10

>  <NRB>  (381) 
9

>  <NR>  (381) 
6

>  <NAR>  (381) 
6

>  <PSA>  (381) 
104.62

>  <Standard Type>  (381) 
nan

>  <Standard Relation>  (381) 
nan

>  <Standard Units>  (381) 
nan

>  <Standard Value>  (381) 
nan

>  <Assay ChEMBL ID>  (381) 
nan

>  <Assay Description>  (381) 
nan

>  <BAO Label>  (381) 
nan

$$$$

     RDKit          2D

 30 34  0  0  0  0  0  0  0  0999 V2000
   -1.5000   -5.1962    0.0000 O   0  0  0  0  0  0  0  0  0  0  0  0
   -0.7500   -3.8971    0.0000 C   0  0  0  0  0  0  0  0  0  0  0  0
    0.7500   -3.8971    0.0000 C   0  0  0  0  0  0  0  0  0  0  0  0
    1.5000   -2.5981    0.0000 C   0  0  0  0  0  0  0  0  0  0  0  0
    0.7500   -1.2990    0.0000 C   0  0  0  0  0  0  0  0  0  0  0  0
    1.5000    0.0000    0.0000 C   0  0  0  0  0  0  0  0  0  0  0  0
    0.7500    1.2990    0.0000 N   0  0  0  0  0  0  0  0  0  0  0  0
   -0.7500    1.2990    0.0000 C   0  0  0  0  0  0  0  0  0  0  0  0
   -1.5000    2.5981    0.0000 N   0  0  0  0  0  0  0  0  0  0  0  0
   -0.7500    3.8971    0.0000 C   0  0  0  0  0  0  0  0  0  0  0  0
    0.7500    3.8971    0.0000 C   0  0  0  0  0  0  0  0  0  0  0  0
    1.5000    5.1962    0.0000 C   0  0  0  0  0  0  0  0  0  0  0  0
    0.7500    6.4952    0.0000 C   0  0  0  0  0  0  0  0  0  0  0  0
    1.5000    7.7942    0.0000 N   0  0  0  0  0  0  0  0  0  0  0  0
    3.0000    7.7942    0.0000 C   0  0  0  0  0  0  0  0  0  0  0  0
    3.7500    9.0933    0.0000 C   0  0  0  0  0  0  0  0  0  0  0  0
    3.0000   10.3923    0.0000 N   0  0  0  0  0  0  0  0  0  0  0  0
    1.5000   10.3923    0.0000 C   0  0  0  0  0  0  0  0  0  0  0  0
    0.7500    9.0933    0.0000 C   0  0  0  0  0  0  0  0  0  0  0  0
   -0.7500    6.4952    0.0000 C   0  0  0  0  0  0  0  0  0  0  0  0
   -1.5000    5.1962    0.0000 N   0  0  0  0  0  0  0  0  0  0  0  0
   -1.5000    0.0000    0.0000 N   0  0  0  0  0  0  0  0  0  0  0  0
   -0.7500   -1.2990    0.0000 C   0  0  0  0  0  0  0  0  0  0  0  0
   -1.5000   -2.5981    0.0000 N   0  0  0  0  0  0  0  0  0  0  0  0
   -3.0000   -2.5981    0.0000 C   0  0  0  0  0  0  0  0  0  0  0  0
   -3.7500   -1.2990    0.0000 C   0  0  0  0  0  0  0  0  0  0  0  0
   -5.2500   -1.2990    0.0000 C   0  0  0  0  0  0  0  0  0  0  0  0
   -6.0000   -2.5981    0.0000 C   0  0  0  0  0  0  0  0  0  0  0  0
   -5.2500   -3.8971    0.0000 C   0  0  0  0  0  0  0  0  0  0  0  0
   -3.7500   -3.8971    0.0000 C   0  0  0  0  0  0  0  0  0  0  0  0
  1  2  2  0
  2  3  1  0
  3  4  2  0
  4  5  1  0
  5  6  2  0
  6  7  1  0
  7  8  2  0
  8  9  1  0
  9 10  1  0
 10 11  2  0
 11 12  1  0
 12 13  2  0
 13 14  1  0
 14 15  1  0
 15 16  1  0
 16 17  1  0
 17 18  1  0
 18 19  1  0
 13 20  1  0
 20 21  2  0
  8 22  1  0
 22 23  2  0
 23 24  1  0
 24 25  1  0
 25 26  1  0
 26 27  1  0
 27 28  1  0
 28 29  1  0
 29 30  1  0
 24  2  1  0
 30 25  1  0
 23  5  1  0
 21 10  1  0
 19 14  1  0
M  END
>  <Compound_ID>  (382) 
CHEMBL373300

>  <Active>  (382) 
1

>  <Smiles>  (382) 
O=c1ccc2cnc(Nc3ccc(N4CCNCC4)cn3)nc2n1C1CCCCC1

>  <canonical_smi>  (382) 
O=c1ccc2cnc(Nc3ccc(N4CCNCC4)cn3)nc2n1C1CCCCC1

>  <Set>  (382) 
G2 active

>  <Set_type>  (382) 
Train

>  <MW>  (382) 
405.51

>  <HBD>  (382) 
2

>  <HBA>  (382) 
7

>  <NRB>  (382) 
4

>  <NR>  (382) 
5

>  <NAR>  (382) 
3

>  <PSA>  (382) 
87.97

>  <Standard Type>  (382) 
nan

>  <Standard Relation>  (382) 
nan

>  <Standard Units>  (382) 
nan

>  <Standard Value>  (382) 
nan

>  <Assay ChEMBL ID>  (382) 
nan

>  <Assay Description>  (382) 
nan

>  <BAO Label>  (382) 
nan

$$$$

     RDKit          2D

 25 27  0  0  0  0  0  0  0  0999 V2000
   -9.7500   -9.0933    0.0000 C   0  0  0  0  0  0  0  0  0  0  0  0
   -8.2500   -9.0933    0.0000 O   0  0  0  0  0  0  0  0  0  0  0  0
   -7.5000   -7.7942    0.0000 C   0  0  0  0  0  0  0  0  0  0  0  0
   -8.2500   -6.4952    0.0000 C   0  0  0  0  0  0  0  0  0  0  0  0
   -7.5000   -5.1962    0.0000 C   0  0  0  0  0  0  0  0  0  0  0  0
   -6.0000   -5.1962    0.0000 C   0  0  0  0  0  0  0  0  0  0  0  0
   -5.2500   -3.8971    0.0000 C   0  0  0  0  0  0  0  0  0  0  0  0
   -3.7500   -3.8971    0.0000 N   0  0  0  0  0  0  0  0  0  0  0  0
   -3.0000   -2.5981    0.0000 C   0  0  0  0  0  0  0  0  0  0  0  0
   -1.5000   -2.5981    0.0000 C   0  0  0  0  0  0  0  0  0  0  0  0
   -0.7500   -3.8971    0.0000 C   0  0  0  0  0  0  0  0  0  0  0  0
   -1.5000   -5.1962    0.0000 O   0  0  0  0  0  0  0  0  0  0  0  0
    0.7500   -3.8971    0.0000 N   0  0  0  0  0  0  0  0  0  0  0  0
    1.5000   -2.5981    0.0000 C   0  0  0  0  0  0  0  0  0  0  0  0
    3.0000   -2.5981    0.0000 O   0  0  0  0  0  0  0  0  0  0  0  0
    0.7500   -1.2990    0.0000 C   0  0  0  0  0  0  0  0  0  0  0  0
    1.5000    0.0000    0.0000 C   0  0  0  0  0  0  0  0  0  0  0  0
    0.7500    1.2990    0.0000 C   0  0  0  0  0  0  0  0  0  0  0  0
   -0.7500    1.2990    0.0000 C   0  0  0  0  0  0  0  0  0  0  0  0
   -1.5000    2.5981    0.0000 I   0  0  0  0  0  0  0  0  0  0  0  0
   -1.5000    0.0000    0.0000 C   0  0  0  0  0  0  0  0  0  0  0  0
   -0.7500   -1.2990    0.0000 C   0  0  0  0  0  0  0  0  0  0  0  0
   -5.2500   -6.4952    0.0000 C   0  0  0  0  0  0  0  0  0  0  0  0
   -6.0000   -7.7942    0.0000 C   0  0  0  0  0  0  0  0  0  0  0  0
   -5.2500   -9.0933    0.0000 O   0  0  0  0  0  0  0  0  0  0  0  0
  1  2  1  0
  2  3  1  0
  3  4  2  0
  4  5  1  0
  5  6  2  0
  6  7  1  0
  7  8  1  0
  8  9  1  0
  9 10  2  0
 10 11  1  0
 11 12  2  0
 11 13  1  0
 13 14  1  0
 14 15  2  0
 14 16  1  0
 16 17  2  0
 17 18  1  0
 18 19  2  0
 19 20  1  0
 19 21  1  0
 21 22  2  0
  6 23  1  0
 23 24  2  0
 24 25  1  0
 24  3  1  0
 22 10  1  0
 22 16  1  0
M  END
>  <Compound_ID>  (383) 
CHEMBL489245

>  <Active>  (383) 
1

>  <Smiles>  (383) 
COc1ccc(CN/C=C2\C(=O)NC(=O)c3ccc(I)cc32)cc1O

>  <canonical_smi>  (383) 
COc1ccc(CN/C=C2\C(=O)NC(=O)c3ccc(I)cc32)cc1O

>  <Set>  (383) 
G2 active

>  <Set_type>  (383) 
Train

>  <MW>  (383) 
450.23

>  <HBD>  (383) 
3

>  <HBA>  (383) 
5

>  <NRB>  (383) 
4

>  <NR>  (383) 
3

>  <NAR>  (383) 
2

>  <PSA>  (383) 
87.66

>  <Standard Type>  (383) 
nan

>  <Standard Relation>  (383) 
nan

>  <Standard Units>  (383) 
nan

>  <Standard Value>  (383) 
nan

>  <Assay ChEMBL ID>  (383) 
nan

>  <Assay Description>  (383) 
nan

>  <BAO Label>  (383) 
nan

$$$$

     RDKit          2D

 23 25  0  0  0  0  0  0  0  0999 V2000
    3.5260    1.2990    0.0000 C   0  0  0  0  0  0  0  0  0  0  0  0
    2.7760    0.0000    0.0000 C   0  0  0  0  0  0  0  0  0  0  0  0
    3.5260   -1.2990    0.0000 C   0  0  0  0  0  0  0  0  0  0  0  0
    1.2760    0.0000    0.0000 N   0  0  0  0  0  0  0  0  0  0  0  0
    0.3943    1.2135    0.0000 C   0  0  0  0  0  0  0  0  0  0  0  0
   -1.0323    0.7500    0.0000 N   0  0  0  0  0  0  0  0  0  0  0  0
   -1.0323   -0.7500    0.0000 C   0  0  0  0  0  0  0  0  0  0  0  0
   -2.1470   -1.7537    0.0000 C   0  0  0  0  0  0  0  0  0  0  0  0
   -3.5736   -1.2902    0.0000 N   0  0  0  0  0  0  0  0  0  0  0  0
   -4.6883   -2.2939    0.0000 C   0  0  0  0  0  0  0  0  0  0  0  0
   -4.5315   -3.7856    0.0000 C   0  0  0  0  0  0  0  0  0  0  0  0
   -5.9018   -4.3958    0.0000 C   0  0  0  0  0  0  0  0  0  0  0  0
   -6.9055   -3.2810    0.0000 C   0  0  0  0  0  0  0  0  0  0  0  0
   -6.1555   -1.9820    0.0000 C   0  0  0  0  0  0  0  0  0  0  0  0
   -1.8351   -3.2209    0.0000 N   0  0  0  0  0  0  0  0  0  0  0  0
   -0.4086   -3.6844    0.0000 C   0  0  0  0  0  0  0  0  0  0  0  0
   -0.0967   -5.1517    0.0000 N   0  0  0  0  0  0  0  0  0  0  0  0
   -1.2114   -6.1554    0.0000 C   0  0  0  0  0  0  0  0  0  0  0  0
   -0.8995   -7.6226    0.0000 C   0  0  0  0  0  0  0  0  0  0  0  0
   -2.0143   -8.6263    0.0000 C   0  0  0  0  0  0  0  0  0  0  0  0
   -1.7024  -10.0935    0.0000 O   0  0  0  0  0  0  0  0  0  0  0  0
    0.7062   -2.6807    0.0000 N   0  0  0  0  0  0  0  0  0  0  0  0
    0.3943   -1.2135    0.0000 C   0  0  0  0  0  0  0  0  0  0  0  0
  1  2  1  0
  2  3  1  0
  2  4  1  0
  4  5  1  0
  5  6  2  0
  6  7  1  0
  7  8  2  0
  8  9  1  0
  9 10  1  0
 10 11  1  0
 11 12  1  0
 12 13  1  0
 13 14  1  0
  8 15  1  0
 15 16  2  0
 16 17  1  0
 17 18  1  0
 18 19  1  0
 19 20  1  0
 20 21  1  0
 16 22  1  0
 22 23  2  0
 23  4  1  0
 23  7  1  0
 14 10  1  0
M  END
>  <Compound_ID>  (384) 
CHEMBL315837

>  <Active>  (384) 
1

>  <Smiles>  (384) 
CC(C)n1cnc2c(NC3CCCC3)nc(NCCCO)nc21

>  <canonical_smi>  (384) 
CC(C)n1cnc2c(NC3CCCC3)nc(NCCCO)nc21

>  <Set>  (384) 
G2 active

>  <Set_type>  (384) 
Train

>  <MW>  (384) 
318.43

>  <HBD>  (384) 
3

>  <HBA>  (384) 
6

>  <NRB>  (384) 
7

>  <NR>  (384) 
3

>  <NAR>  (384) 
2

>  <PSA>  (384) 
87.89

>  <Standard Type>  (384) 
nan

>  <Standard Relation>  (384) 
nan

>  <Standard Units>  (384) 
nan

>  <Standard Value>  (384) 
nan

>  <Assay ChEMBL ID>  (384) 
nan

>  <Assay Description>  (384) 
nan

>  <BAO Label>  (384) 
nan

$$$$

     RDKit          2D

 38 44  0  0  0  0  0  0  0  0999 V2000
    3.7500   -1.2990    0.0000 C   0  0  0  0  0  0  0  0  0  0  0  0
    3.0000    0.0000    0.0000 O   0  0  0  0  0  0  0  0  0  0  0  0
    1.5000    0.0000    0.0000 C   0  0  0  0  0  0  0  0  0  0  0  0
    0.7500   -1.2990    0.0000 C   0  0  0  0  0  0  0  0  0  0  0  0
   -0.7500   -1.2990    0.0000 C   0  0  0  0  0  0  0  0  0  0  0  0
   -1.5000    0.0000    0.0000 C   0  0  0  0  0  0  0  0  0  0  0  0
   -2.9672    0.3119    0.0000 C   0  0  0  0  0  0  0  0  0  0  0  0
   -4.1807   -0.5698    0.0000 C   0  0  0  0  0  0  0  0  0  0  0  0
   -5.5511    0.0403    0.0000 C   0  0  0  0  0  0  0  0  0  0  0  0
   -5.7079    1.5321    0.0000 C   0  0  0  0  0  0  0  0  0  0  0  0
   -4.4943    2.4138    0.0000 C   0  0  0  0  0  0  0  0  0  0  0  0
   -4.6511    3.9055    0.0000 C   0  0  0  0  0  0  0  0  0  0  0  0
   -6.0214    4.5156    0.0000 C   0  0  0  0  0  0  0  0  0  0  0  0
   -7.2350    3.6340    0.0000 C   0  0  0  0  0  0  0  0  0  0  0  0
   -8.7022    3.9458    0.0000 C   0  0  0  0  0  0  0  0  0  0  0  0
   -9.4522    2.6468    0.0000 C   0  0  0  0  0  0  0  0  0  0  0  0
   -8.4485    1.5321    0.0000 N   0  0  0  0  0  0  0  0  0  0  0  0
   -8.7604    0.0649    0.0000 C   0  0  0  0  0  0  0  0  0  0  0  0
   -7.0782    2.1422    0.0000 C   0  0  0  0  0  0  0  0  0  0  0  0
   -3.1240    1.8037    0.0000 C   0  0  0  0  0  0  0  0  0  0  0  0
   -1.7537    2.4138    0.0000 N   0  0  0  0  0  0  0  0  0  0  0  0
   -1.4418    3.8810    0.0000 C   0  0  0  0  0  0  0  0  0  0  0  0
   -0.0152    4.3445    0.0000 C   0  0  0  0  0  0  0  0  0  0  0  0
    0.2966    5.8117    0.0000 N   0  0  0  0  0  0  0  0  0  0  0  0
    1.7232    6.2752    0.0000 C   0  0  0  0  0  0  0  0  0  0  0  0
    2.8379    5.2716    0.0000 C   0  0  0  0  0  0  0  0  0  0  0  0
    4.2645    5.7351    0.0000 C   0  0  0  0  0  0  0  0  0  0  0  0
    4.5764    7.2023    0.0000 C   0  0  0  0  0  0  0  0  0  0  0  0
    6.0030    7.6658    0.0000 O   0  0  0  0  0  0  0  0  0  0  0  0
    3.4617    8.2060    0.0000 C   0  0  0  0  0  0  0  0  0  0  0  0
    2.0351    7.7425    0.0000 C   0  0  0  0  0  0  0  0  0  0  0  0
   -0.7500    1.2990    0.0000 C   0  0  0  0  0  0  0  0  0  0  0  0
    0.7500    1.2990    0.0000 C   0  0  0  0  0  0  0  0  0  0  0  0
   -6.5548   -1.0744    0.0000 C   0  0  0  0  0  0  0  0  0  0  0  0
   -8.0465   -0.9176    0.0000 O   0  0  0  0  0  0  0  0  0  0  0  0
   -5.8048   -2.3735    0.0000 N   0  0  0  0  0  0  0  0  0  0  0  0
   -4.3375   -2.0616    0.0000 C   0  0  0  0  0  0  0  0  0  0  0  0
   -3.2228   -3.0653    0.0000 O   0  0  0  0  0  0  0  0  0  0  0  0
  1  2  1  0
  2  3  1  0
  3  4  2  0
  4  5  1  0
  5  6  2  0
  6  7  1  0
  7  8  2  0
  8  9  1  0
  9 10  2  0
 10 11  1  0
 11 12  1  0
 12 13  2  0
 13 14  1  0
 14 15  1  0
 15 16  2  0
 16 17  1  0
 17 18  1  0
 17 19  1  0
 11 20  2  0
 20 21  1  0
 21 22  1  0
 22 23  1  0
 23 24  1  0
 24 25  1  0
 25 26  1  0
 26 27  1  0
 27 28  1  0
 28 29  1  0
 28 30  1  0
 30 31  1  0
 21 32  1  0
 32 33  2  0
  9 34  1  0
 34 35  2  0
 34 36  1  0
 36 37  1  0
 37 38  2  0
 33  3  1  0
 32  6  1  0
 20  7  1  0
 31 25  1  0
 37  8  1  0
 19 10  1  0
 19 14  2  0
M  END
>  <Compound_ID>  (385) 
CHEMBL311851

>  <Active>  (385) 
1

>  <Smiles>  (385) 
COc1ccc2c3c4c(c5c(ccc6ccn(C)c65)c3n(CCNC3CCC(O)CC3)c2c1)C(=O)NC4=O

>  <canonical_smi>  (385) 
COc1ccc2c3c4c(c5c(ccc6ccn(C)c65)c3n(CCNC3CCC(O)CC3)c2c1)C(=O)NC4=O

>  <Set>  (385) 
G2 active

>  <Set_type>  (385) 
Train

>  <MW>  (385) 
510.59

>  <HBD>  (385) 
3

>  <HBA>  (385) 
5

>  <NRB>  (385) 
5

>  <NR>  (385) 
7

>  <NAR>  (385) 
5

>  <PSA>  (385) 
97.52

>  <Standard Type>  (385) 
nan

>  <Standard Relation>  (385) 
nan

>  <Standard Units>  (385) 
nan

>  <Standard Value>  (385) 
nan

>  <Assay ChEMBL ID>  (385) 
nan

>  <Assay Description>  (385) 
nan

>  <BAO Label>  (385) 
nan

$$$$

     RDKit          2D

 36 42  0  0  0  0  0  0  0  0999 V2000
    3.7500   -1.2990    0.0000 C   0  0  0  0  0  0  0  0  0  0  0  0
    3.0000    0.0000    0.0000 O   0  0  0  0  0  0  0  0  0  0  0  0
    1.5000    0.0000    0.0000 C   0  0  0  0  0  0  0  0  0  0  0  0
    0.7500   -1.2990    0.0000 C   0  0  0  0  0  0  0  0  0  0  0  0
   -0.7500   -1.2990    0.0000 C   0  0  0  0  0  0  0  0  0  0  0  0
   -1.5000    0.0000    0.0000 C   0  0  0  0  0  0  0  0  0  0  0  0
   -2.9672    0.3119    0.0000 C   0  0  0  0  0  0  0  0  0  0  0  0
   -4.1807   -0.5698    0.0000 C   0  0  0  0  0  0  0  0  0  0  0  0
   -5.5511    0.0403    0.0000 C   0  0  0  0  0  0  0  0  0  0  0  0
   -5.7079    1.5321    0.0000 C   0  0  0  0  0  0  0  0  0  0  0  0
   -4.4943    2.4138    0.0000 C   0  0  0  0  0  0  0  0  0  0  0  0
   -4.6511    3.9055    0.0000 C   0  0  0  0  0  0  0  0  0  0  0  0
   -6.0214    4.5156    0.0000 C   0  0  0  0  0  0  0  0  0  0  0  0
   -7.2350    3.6340    0.0000 C   0  0  0  0  0  0  0  0  0  0  0  0
   -8.7022    3.9458    0.0000 C   0  0  0  0  0  0  0  0  0  0  0  0
   -9.4522    2.6468    0.0000 C   0  0  0  0  0  0  0  0  0  0  0  0
   -8.4485    1.5321    0.0000 N   0  0  0  0  0  0  0  0  0  0  0  0
   -8.7604    0.0649    0.0000 C   0  0  0  0  0  0  0  0  0  0  0  0
   -7.0782    2.1422    0.0000 C   0  0  0  0  0  0  0  0  0  0  0  0
   -3.1240    1.8037    0.0000 C   0  0  0  0  0  0  0  0  0  0  0  0
   -1.7537    2.4138    0.0000 N   0  0  0  0  0  0  0  0  0  0  0  0
   -1.4418    3.8810    0.0000 C   0  0  0  0  0  0  0  0  0  0  0  0
   -0.0152    4.3445    0.0000 C   0  0  0  0  0  0  0  0  0  0  0  0
    0.2966    5.8117    0.0000 N   0  0  0  0  0  0  0  0  0  0  0  0
    1.7232    6.2752    0.0000 C   0  0  0  0  0  0  0  0  0  0  0  0
    2.0351    7.7425    0.0000 C   0  0  0  0  0  0  0  0  0  0  0  0
    0.9204    8.7462    0.0000 C   0  0  0  0  0  0  0  0  0  0  0  0
   -0.5062    8.2826    0.0000 C   0  0  0  0  0  0  0  0  0  0  0  0
   -0.8181    6.8154    0.0000 C   0  0  0  0  0  0  0  0  0  0  0  0
   -0.7500    1.2990    0.0000 C   0  0  0  0  0  0  0  0  0  0  0  0
    0.7500    1.2990    0.0000 C   0  0  0  0  0  0  0  0  0  0  0  0
   -6.5548   -1.0744    0.0000 C   0  0  0  0  0  0  0  0  0  0  0  0
   -8.0465   -0.9176    0.0000 O   0  0  0  0  0  0  0  0  0  0  0  0
   -5.8048   -2.3735    0.0000 N   0  0  0  0  0  0  0  0  0  0  0  0
   -4.3375   -2.0616    0.0000 C   0  0  0  0  0  0  0  0  0  0  0  0
   -3.2228   -3.0653    0.0000 O   0  0  0  0  0  0  0  0  0  0  0  0
  1  2  1  0
  2  3  1  0
  3  4  2  0
  4  5  1  0
  5  6  2  0
  6  7  1  0
  7  8  2  0
  8  9  1  0
  9 10  2  0
 10 11  1  0
 11 12  1  0
 12 13  2  0
 13 14  1  0
 14 15  1  0
 15 16  2  0
 16 17  1  0
 17 18  1  0
 17 19  1  0
 11 20  2  0
 20 21  1  0
 21 22  1  0
 22 23  1  0
 23 24  1  0
 24 25  1  0
 25 26  1  0
 26 27  1  0
 27 28  1  0
 28 29  1  0
 21 30  1  0
 30 31  2  0
  9 32  1  0
 32 33  2  0
 32 34  1  0
 34 35  1  0
 35 36  2  0
 31  3  1  0
 30  6  1  0
 20  7  1  0
 29 24  1  0
 35  8  1  0
 19 10  1  0
 19 14  2  0
M  END
>  <Compound_ID>  (386) 
CHEMBL75610

>  <Active>  (386) 
1

>  <Smiles>  (386) 
COc1ccc2c3c4c(c5c(ccc6ccn(C)c65)c3n(CCN3CCCCC3)c2c1)C(=O)NC4=O

>  <canonical_smi>  (386) 
COc1ccc2c3c4c(c5c(ccc6ccn(C)c65)c3n(CCN3CCCCC3)c2c1)C(=O)NC4=O

>  <Set>  (386) 
G2 active

>  <Set_type>  (386) 
Train

>  <MW>  (386) 
480.57

>  <HBD>  (386) 
1

>  <HBA>  (386) 
4

>  <NRB>  (386) 
4

>  <NR>  (386) 
7

>  <NAR>  (386) 
5

>  <PSA>  (386) 
68.5

>  <Standard Type>  (386) 
nan

>  <Standard Relation>  (386) 
nan

>  <Standard Units>  (386) 
nan

>  <Standard Value>  (386) 
nan

>  <Assay ChEMBL ID>  (386) 
nan

>  <Assay Description>  (386) 
nan

>  <BAO Label>  (386) 
nan

$$$$

     RDKit          2D

 18 19  0  0  0  0  0  0  0  0999 V2000
   -3.6375   -7.8476    0.0000 C   0  0  0  0  0  0  0  0  0  0  0  0
   -2.4240   -8.7293    0.0000 C   0  0  0  0  0  0  0  0  0  0  0  0
   -2.5808  -10.2211    0.0000 C   0  0  0  0  0  0  0  0  0  0  0  0
   -1.0537   -8.1192    0.0000 C   0  0  0  0  0  0  0  0  0  0  0  0
    0.2454   -8.8692    0.0000 C   0  0  0  0  0  0  0  0  0  0  0  0
    1.3601   -7.8655    0.0000 N   0  0  0  0  0  0  0  0  0  0  0  0
    0.7500   -6.4952    0.0000 C   0  0  0  0  0  0  0  0  0  0  0  0
    1.5000   -5.1962    0.0000 N   0  0  0  0  0  0  0  0  0  0  0  0
    0.7500   -3.8971    0.0000 C   0  0  0  0  0  0  0  0  0  0  0  0
   -0.7500   -3.8971    0.0000 O   0  0  0  0  0  0  0  0  0  0  0  0
    1.5000   -2.5981    0.0000 O   0  0  0  0  0  0  0  0  0  0  0  0
    0.7500   -1.2990    0.0000 C   0  0  0  0  0  0  0  0  0  0  0  0
    1.5000    0.0000    0.0000 C   0  0  0  0  0  0  0  0  0  0  0  0
    0.7500    1.2990    0.0000 C   0  0  0  0  0  0  0  0  0  0  0  0
   -0.7500    1.2990    0.0000 C   0  0  0  0  0  0  0  0  0  0  0  0
   -1.5000    0.0000    0.0000 C   0  0  0  0  0  0  0  0  0  0  0  0
   -0.7500   -1.2990    0.0000 C   0  0  0  0  0  0  0  0  0  0  0  0
   -0.7418   -6.6520    0.0000 S   0  0  0  0  0  0  0  0  0  0  0  0
  1  2  1  0
  2  3  1  0
  2  4  1  0
  4  5  2  0
  5  6  1  0
  6  7  2  0
  7  8  1  0
  8  9  1  0
  9 10  2  0
  9 11  1  0
 11 12  1  0
 12 13  2  0
 13 14  1  0
 14 15  2  0
 15 16  1  0
 16 17  2  0
  7 18  1  0
 18  4  1  0
 17 12  1  0
M  END
>  <Compound_ID>  (387) 
CHEMBL186120

>  <Active>  (387) 
1

>  <Smiles>  (387) 
CC(C)c1cnc(NC(=O)Oc2ccccc2)s1

>  <canonical_smi>  (387) 
CC(C)c1cnc(NC(=O)Oc2ccccc2)s1

>  <Set>  (387) 
G2 active

>  <Set_type>  (387) 
Train

>  <MW>  (387) 
262.33

>  <HBD>  (387) 
1

>  <HBA>  (387) 
3

>  <NRB>  (387) 
3

>  <NR>  (387) 
2

>  <NAR>  (387) 
2

>  <PSA>  (387) 
51.22

>  <Standard Type>  (387) 
nan

>  <Standard Relation>  (387) 
nan

>  <Standard Units>  (387) 
nan

>  <Standard Value>  (387) 
nan

>  <Assay ChEMBL ID>  (387) 
nan

>  <Assay Description>  (387) 
nan

>  <BAO Label>  (387) 
nan

$$$$

     RDKit          2D

 36 41  0  0  0  0  0  0  0  0999 V2000
   -3.1752   -0.7688    0.0000 O   0  0  0  0  0  0  0  0  0  0  0  0
   -3.8004   -2.1323    0.0000 C   0  0  0  0  0  0  0  0  0  0  0  0
   -5.2710   -2.4280    0.0000 N   0  0  0  0  0  0  0  0  0  0  0  0
   -5.4442   -3.9180    0.0000 C   0  0  0  0  0  0  0  0  0  0  0  0
   -6.7514   -4.6536    0.0000 O   0  0  0  0  0  0  0  0  0  0  0  0
   -4.0807   -4.5431    0.0000 C   0  0  0  0  0  0  0  0  0  0  0  0
   -3.0648   -3.4395    0.0000 C   0  0  0  0  0  0  0  0  0  0  0  0
   -1.2135   -2.7256    0.0000 C   0  0  0  0  0  0  0  0  0  0  0  0
   -0.0000   -3.6073    0.0000 C   0  0  0  0  0  0  0  0  0  0  0  0
    1.2135   -2.7256    0.0000 N   0  0  0  0  0  0  0  0  0  0  0  0
    0.7500   -1.2990    0.0000 C   0  0  0  0  0  0  0  0  0  0  0  0
    1.5000    0.0000    0.0000 C   0  0  0  0  0  0  0  0  0  0  0  0
    0.7500    1.2990    0.0000 C   0  0  0  0  0  0  0  0  0  0  0  0
   -0.7500    1.2990    0.0000 C   0  0  0  0  0  0  0  0  0  0  0  0
   -1.5000    0.0000    0.0000 C   0  0  0  0  0  0  0  0  0  0  0  0
   -0.7500   -1.2990    0.0000 C   0  0  0  0  0  0  0  0  0  0  0  0
    2.5327   -3.4395    0.0000 C   0  0  0  0  0  0  0  0  0  0  0  0
    3.5487   -4.5431    0.0000 C   0  0  0  0  0  0  0  0  0  0  0  0
    4.1512   -5.9168    0.0000 O   0  0  0  0  0  0  0  0  0  0  0  0
    4.2751   -7.4117    0.0000 C   0  0  0  0  0  0  0  0  0  0  0  0
    3.9068   -8.8658    0.0000 C   0  0  0  0  0  0  0  0  0  0  0  0
    3.0864  -10.1215    0.0000 O   0  0  0  0  0  0  0  0  0  0  0  0
    1.9027  -11.0428    0.0000 C   0  0  0  0  0  0  0  0  0  0  0  0
    0.4840  -11.5299    0.0000 C   0  0  0  0  0  0  0  0  0  0  0  0
   -1.0160  -11.5299    0.0000 O   0  0  0  0  0  0  0  0  0  0  0  0
   -2.4347  -11.0428    0.0000 C   0  0  0  0  0  0  0  0  0  0  0  0
   -3.6185  -10.1215    0.0000 C   0  0  0  0  0  0  0  0  0  0  0  0
   -4.4389   -8.8658    0.0000 N   0  0  0  0  0  0  0  0  0  0  0  0
   -4.8071   -7.4117    0.0000 C   0  0  0  0  0  0  0  0  0  0  0  0
   -4.6832   -5.9168    0.0000 C   0  0  0  0  0  0  0  0  0  0  0  0
   -6.0667   -6.4965    0.0000 C   0  0  0  0  0  0  0  0  0  0  0  0
   -7.4232   -5.8564    0.0000 C   0  0  0  0  0  0  0  0  0  0  0  0
   -8.6559   -6.7111    0.0000 C   0  0  0  0  0  0  0  0  0  0  0  0
   -8.5320   -8.2060    0.0000 C   0  0  0  0  0  0  0  0  0  0  0  0
   -7.1755   -8.8461    0.0000 C   0  0  0  0  0  0  0  0  0  0  0  0
   -5.9428   -7.9914    0.0000 C   0  0  0  0  0  0  0  0  0  0  0  0
  1  2  2  0
  2  3  1  0
  3  4  1  0
  4  5  2  0
  4  6  1  0
  6  7  2  0
  7  8  1  0
  8  9  2  0
  9 10  1  0
 10 11  1  0
 11 12  2  0
 12 13  1  0
 13 14  2  0
 14 15  1  0
 15 16  2  0
 10 17  1  0
 17 18  1  0
 18 19  1  0
 19 20  1  0
 20 21  1  0
 21 22  1  0
 22 23  1  0
 23 24  1  0
 24 25  1  0
 25 26  1  0
 26 27  1  0
 27 28  1  0
 28 29  1  0
 29 30  2  0
 30 31  1  0
 31 32  2  0
 32 33  1  0
 33 34  2  0
 34 35  1  0
 35 36  2  0
  7  2  1  0
 16  8  1  0
 36 28  1  0
 30  6  1  0
 36 31  1  0
 16 11  1  0
M  END
>  <Compound_ID>  (388) 
CHEMBL340259

>  <Active>  (388) 
1

>  <Smiles>  (388) 
O=C1NC(=O)C2=C1c1cn(c3ccccc13)CCOCCOCCOCCn1cc2c2ccccc21

>  <canonical_smi>  (388) 
O=C1NC(=O)C2=C1c1cn(c3ccccc13)CCOCCOCCOCCn1cc2c2ccccc21

>  <Set>  (388) 
G2 active

>  <Set_type>  (388) 
Train

>  <MW>  (388) 
485.54

>  <HBD>  (388) 
1

>  <HBA>  (388) 
5

>  <NRB>  (388) 
0

>  <NR>  (388) 
6

>  <NAR>  (388) 
4

>  <PSA>  (388) 
83.72

>  <Standard Type>  (388) 
nan

>  <Standard Relation>  (388) 
nan

>  <Standard Units>  (388) 
nan

>  <Standard Value>  (388) 
nan

>  <Assay ChEMBL ID>  (388) 
nan

>  <Assay Description>  (388) 
nan

>  <BAO Label>  (388) 
nan

$$$$

     RDKit          2D

 21 23  0  0  0  0  0  0  0  0999 V2000
   -0.7500   -3.8971    0.0000 O   0  0  0  0  0  0  0  0  0  0  0  0
    0.7500   -3.8971    0.0000 C   0  0  0  0  0  0  0  0  0  0  0  0
    1.5000   -2.5981    0.0000 C   0  0  0  0  0  0  0  0  0  0  0  0
    0.7500   -1.2990    0.0000 C   0  0  0  0  0  0  0  0  0  0  0  0
    1.5000    0.0000    0.0000 C   0  0  0  0  0  0  0  0  0  0  0  0
    0.7500    1.2990    0.0000 C   0  0  0  0  0  0  0  0  0  0  0  0
   -0.7500    1.2990    0.0000 C   0  0  0  0  0  0  0  0  0  0  0  0
   -1.5000    0.0000    0.0000 C   0  0  0  0  0  0  0  0  0  0  0  0
   -0.7500   -1.2990    0.0000 C   0  0  0  0  0  0  0  0  0  0  0  0
    1.5000   -5.1962    0.0000 N   0  0  0  0  0  0  0  0  0  0  0  0
    0.7500   -6.4952    0.0000 C   0  0  0  0  0  0  0  0  0  0  0  0
    1.3601   -7.8655    0.0000 N   0  0  0  0  0  0  0  0  0  0  0  0
    0.2454   -8.8692    0.0000 C   0  0  0  0  0  0  0  0  0  0  0  0
   -1.0537   -8.1192    0.0000 C   0  0  0  0  0  0  0  0  0  0  0  0
   -2.4240   -8.7293    0.0000 C   0  0  0  0  0  0  0  0  0  0  0  0
   -3.6375   -7.8476    0.0000 C   0  0  0  0  0  0  0  0  0  0  0  0
   -5.0078   -8.4577    0.0000 C   0  0  0  0  0  0  0  0  0  0  0  0
   -5.1646   -9.9495    0.0000 C   0  0  0  0  0  0  0  0  0  0  0  0
   -3.9511  -10.8312    0.0000 C   0  0  0  0  0  0  0  0  0  0  0  0
   -2.5808  -10.2211    0.0000 C   0  0  0  0  0  0  0  0  0  0  0  0
   -0.7418   -6.6520    0.0000 S   0  0  0  0  0  0  0  0  0  0  0  0
  1  2  2  0
  2  3  1  0
  3  4  1  0
  4  5  2  0
  5  6  1  0
  6  7  2  0
  7  8  1  0
  8  9  2  0
  2 10  1  0
 10 11  1  0
 11 12  2  0
 12 13  1  0
 13 14  2  0
 14 15  1  0
 15 16  1  0
 16 17  1  0
 17 18  1  0
 18 19  1  0
 19 20  1  0
 14 21  1  0
  9  4  1  0
 21 11  1  0
 20 15  1  0
M  END
>  <Compound_ID>  (389) 
CHEMBL186846

>  <Active>  (389) 
1

>  <Smiles>  (389) 
O=C(Cc1ccccc1)Nc1ncc(C2CCCCC2)s1

>  <canonical_smi>  (389) 
O=C(Cc1ccccc1)Nc1ncc(C2CCCCC2)s1

>  <Set>  (389) 
G2 active

>  <Set_type>  (389) 
Train

>  <MW>  (389) 
300.43

>  <HBD>  (389) 
1

>  <HBA>  (389) 
2

>  <NRB>  (389) 
4

>  <NR>  (389) 
3

>  <NAR>  (389) 
2

>  <PSA>  (389) 
41.99

>  <Standard Type>  (389) 
nan

>  <Standard Relation>  (389) 
nan

>  <Standard Units>  (389) 
nan

>  <Standard Value>  (389) 
nan

>  <Assay ChEMBL ID>  (389) 
nan

>  <Assay Description>  (389) 
nan

>  <BAO Label>  (389) 
nan

$$$$

     RDKit          2D

 25 28  0  0  0  0  0  0  0  0999 V2000
   -4.6613    6.0728    0.0000 N   0  0  0  0  0  0  0  0  0  0  0  0
   -3.2910    5.4627    0.0000 C   0  0  0  0  0  0  0  0  0  0  0  0
   -2.0774    6.3444    0.0000 O   0  0  0  0  0  0  0  0  0  0  0  0
   -3.1342    3.9709    0.0000 C   0  0  0  0  0  0  0  0  0  0  0  0
   -4.2489    2.9672    0.0000 N   0  0  0  0  0  0  0  0  0  0  0  0
   -3.6388    1.5969    0.0000 N   0  0  0  0  0  0  0  0  0  0  0  0
   -4.3888    0.2979    0.0000 C   0  0  0  0  0  0  0  0  0  0  0  0
   -5.8888    0.2979    0.0000 C   0  0  0  0  0  0  0  0  0  0  0  0
   -6.6388   -1.0012    0.0000 C   0  0  0  0  0  0  0  0  0  0  0  0
   -5.8888   -2.3002    0.0000 C   0  0  0  0  0  0  0  0  0  0  0  0
   -6.6388   -3.5992    0.0000 S   0  0  0  0  0  0  0  0  0  0  0  0
   -7.3888   -4.8983    0.0000 N   0  0  0  0  0  0  0  0  0  0  0  0
   -7.9378   -2.8492    0.0000 O   0  0  0  0  0  0  0  0  0  0  0  0
   -5.3397   -4.3492    0.0000 O   0  0  0  0  0  0  0  0  0  0  0  0
   -4.3888   -2.3002    0.0000 C   0  0  0  0  0  0  0  0  0  0  0  0
   -3.6388   -1.0012    0.0000 C   0  0  0  0  0  0  0  0  0  0  0  0
   -2.1470    1.7537    0.0000 C   0  0  0  0  0  0  0  0  0  0  0  0
   -1.8351    3.2209    0.0000 C   0  0  0  0  0  0  0  0  0  0  0  0
   -0.4086    3.6844    0.0000 C   0  0  0  0  0  0  0  0  0  0  0  0
    0.7062    2.6807    0.0000 C   0  0  0  0  0  0  0  0  0  0  0  0
    0.3943    1.2135    0.0000 C   0  0  0  0  0  0  0  0  0  0  0  0
    1.2760    0.0000    0.0000 N   0  0  0  0  0  0  0  0  0  0  0  0
    0.3943   -1.2135    0.0000 N   0  0  0  0  0  0  0  0  0  0  0  0
   -1.0323   -0.7500    0.0000 C   0  0  0  0  0  0  0  0  0  0  0  0
   -1.0323    0.7500    0.0000 C   0  0  0  0  0  0  0  0  0  0  0  0
  1  2  1  0
  2  3  2  0
  2  4  1  0
  4  5  2  0
  5  6  1  0
  6  7  1  0
  7  8  2  0
  8  9  1  0
  9 10  2  0
 10 11  1  0
 11 12  1  0
 11 13  2  0
 11 14  2  0
 10 15  1  0
 15 16  2  0
  6 17  1  0
 17 18  2  0
 18 19  1  0
 19 20  2  0
 20 21  1  0
 21 22  1  0
 22 23  1  0
 23 24  2  0
 24 25  1  0
 18  4  1  0
 25 21  2  0
 16  7  1  0
 25 17  1  0
M  END
>  <Compound_ID>  (390) 
CHEMBL360520

>  <Active>  (390) 
1

>  <Smiles>  (390) 
NC(=O)c1nn(-c2ccc(S(N)(=O)=O)cc2)c2c1ccc1[nH]ncc12

>  <canonical_smi>  (390) 
NC(=O)c1nn(-c2ccc(S(N)(=O)=O)cc2)c2c1ccc1[nH]ncc12

>  <Set>  (390) 
G2 active

>  <Set_type>  (390) 
Test

>  <MW>  (390) 
356.37

>  <HBD>  (390) 
3

>  <HBA>  (390) 
5

>  <NRB>  (390) 
3

>  <NR>  (390) 
4

>  <NAR>  (390) 
4

>  <PSA>  (390) 
149.75

>  <Standard Type>  (390) 
nan

>  <Standard Relation>  (390) 
nan

>  <Standard Units>  (390) 
nan

>  <Standard Value>  (390) 
nan

>  <Assay ChEMBL ID>  (390) 
nan

>  <Assay Description>  (390) 
nan

>  <BAO Label>  (390) 
nan

$$$$

     RDKit          2D

 31 34  0  0  0  0  0  0  0  0999 V2000
  -10.1878   -4.1483    0.0000 O   0  0  0  0  0  0  0  0  0  0  0  0
   -8.8888   -4.8983    0.0000 S   0  0  0  0  0  0  0  0  0  0  0  0
   -7.5897   -5.6483    0.0000 O   0  0  0  0  0  0  0  0  0  0  0  0
   -9.6388   -6.1973    0.0000 N   0  0  0  0  0  0  0  0  0  0  0  0
   -8.8888   -7.4964    0.0000 C   0  0  0  0  0  0  0  0  0  0  0  0
   -9.6388   -8.7954    0.0000 C   0  0  0  0  0  0  0  0  0  0  0  0
   -8.8888  -10.0944    0.0000 O   0  0  0  0  0  0  0  0  0  0  0  0
   -9.6388  -11.3935    0.0000 C   0  0  0  0  0  0  0  0  0  0  0  0
   -8.8888  -12.6925    0.0000 C   0  0  0  0  0  0  0  0  0  0  0  0
   -9.6388  -13.9916    0.0000 O   0  0  0  0  0  0  0  0  0  0  0  0
   -8.1388   -3.5992    0.0000 C   0  0  0  0  0  0  0  0  0  0  0  0
   -8.8888   -2.3002    0.0000 C   0  0  0  0  0  0  0  0  0  0  0  0
   -8.1388   -1.0012    0.0000 C   0  0  0  0  0  0  0  0  0  0  0  0
   -6.6388   -1.0012    0.0000 C   0  0  0  0  0  0  0  0  0  0  0  0
   -5.8888    0.2979    0.0000 N   0  0  0  0  0  0  0  0  0  0  0  0
   -4.3888    0.2979    0.0000 C   0  0  0  0  0  0  0  0  0  0  0  0
   -3.6388    1.5969    0.0000 C   0  0  0  0  0  0  0  0  0  0  0  0
   -4.2489    2.9672    0.0000 C   0  0  0  0  0  0  0  0  0  0  0  0
   -5.7161    3.2791    0.0000 O   0  0  0  0  0  0  0  0  0  0  0  0
   -3.1342    3.9709    0.0000 N   0  0  0  0  0  0  0  0  0  0  0  0
   -1.8351    3.2209    0.0000 C   0  0  0  0  0  0  0  0  0  0  0  0
   -0.4086    3.6844    0.0000 C   0  0  0  0  0  0  0  0  0  0  0  0
    0.7062    2.6807    0.0000 C   0  0  0  0  0  0  0  0  0  0  0  0
    0.3943    1.2135    0.0000 C   0  0  0  0  0  0  0  0  0  0  0  0
    1.2760    0.0000    0.0000 N   0  0  0  0  0  0  0  0  0  0  0  0
    0.3943   -1.2135    0.0000 C   0  0  0  0  0  0  0  0  0  0  0  0
   -1.0323   -0.7500    0.0000 S   0  0  0  0  0  0  0  0  0  0  0  0
   -1.0323    0.7500    0.0000 C   0  0  0  0  0  0  0  0  0  0  0  0
   -2.1470    1.7537    0.0000 C   0  0  0  0  0  0  0  0  0  0  0  0
   -5.8888   -2.3002    0.0000 C   0  0  0  0  0  0  0  0  0  0  0  0
   -6.6388   -3.5992    0.0000 C   0  0  0  0  0  0  0  0  0  0  0  0
  1  2  2  0
  2  3  2  0
  2  4  1  0
  4  5  1  0
  5  6  1  0
  6  7  1  0
  7  8  1  0
  8  9  1  0
  9 10  1  0
  2 11  1  0
 11 12  2  0
 12 13  1  0
 13 14  2  0
 14 15  1  0
 15 16  2  0
 16 17  1  0
 17 18  2  0
 18 19  1  0
 18 20  1  0
 20 21  1  0
 21 22  2  0
 22 23  1  0
 23 24  2  0
 24 25  1  0
 25 26  2  0
 26 27  1  0
 27 28  1  0
 28 29  2  0
 14 30  1  0
 30 31  2  0
 31 11  1  0
 29 17  1  0
 29 21  1  0
 28 24  1  0
M  END
>  <Compound_ID>  (391) 
CHEMBL343996

>  <Active>  (391) 
1

>  <Smiles>  (391) 
O=S(=O)(NCCOCCO)c1ccc(/N=C/c2c(O)[nH]c3ccc4ncsc4c23)cc1

>  <canonical_smi>  (391) 
O=S(=O)(NCCOCCO)c1ccc(/N=C/c2c(O)[nH]c3ccc4ncsc4c23)cc1

>  <Set>  (391) 
G2 active

>  <Set_type>  (391) 
Test

>  <MW>  (391) 
460.54

>  <HBD>  (391) 
4

>  <HBA>  (391) 
6

>  <NRB>  (391) 
9

>  <NR>  (391) 
4

>  <NAR>  (391) 
4

>  <PSA>  (391) 
136.9

>  <Standard Type>  (391) 
nan

>  <Standard Relation>  (391) 
nan

>  <Standard Units>  (391) 
nan

>  <Standard Value>  (391) 
nan

>  <Assay ChEMBL ID>  (391) 
nan

>  <Assay Description>  (391) 
nan

>  <BAO Label>  (391) 
nan

$$$$

     RDKit          2D

 23 25  0  0  0  0  0  0  0  0999 V2000
   -3.2082  -13.0594    0.0000 C   0  0  0  0  0  0  0  0  0  0  0  0
   -1.9092  -13.8094    0.0000 C   0  0  0  0  0  0  0  0  0  0  0  0
   -0.6101  -14.5594    0.0000 C   0  0  0  0  0  0  0  0  0  0  0  0
   -2.6592  -15.1085    0.0000 C   0  0  0  0  0  0  0  0  0  0  0  0
   -1.1592  -12.5104    0.0000 C   0  0  0  0  0  0  0  0  0  0  0  0
    0.3326  -12.3536    0.0000 C   0  0  0  0  0  0  0  0  0  0  0  0
    0.6445  -10.8864    0.0000 N   0  0  0  0  0  0  0  0  0  0  0  0
   -0.6546  -10.1364    0.0000 C   0  0  0  0  0  0  0  0  0  0  0  0
   -0.8113   -8.6446    0.0000 C   0  0  0  0  0  0  0  0  0  0  0  0
    0.4022   -7.7629    0.0000 S   0  0  0  0  0  0  0  0  0  0  0  0
    0.2454   -6.2711    0.0000 C   0  0  0  0  0  0  0  0  0  0  0  0
   -1.0537   -5.5211    0.0000 C   0  0  0  0  0  0  0  0  0  0  0  0
   -0.7418   -4.0539    0.0000 N   0  0  0  0  0  0  0  0  0  0  0  0
    0.7500   -3.8971    0.0000 C   0  0  0  0  0  0  0  0  0  0  0  0
    1.5000   -2.5981    0.0000 N   0  0  0  0  0  0  0  0  0  0  0  0
    0.7500   -1.2990    0.0000 C   0  0  0  0  0  0  0  0  0  0  0  0
    1.5000    0.0000    0.0000 C   0  0  0  0  0  0  0  0  0  0  0  0
    0.7500    1.2990    0.0000 C   0  0  0  0  0  0  0  0  0  0  0  0
   -0.7500    1.2990    0.0000 N   0  0  0  0  0  0  0  0  0  0  0  0
   -1.5000    0.0000    0.0000 C   0  0  0  0  0  0  0  0  0  0  0  0
   -0.7500   -1.2990    0.0000 C   0  0  0  0  0  0  0  0  0  0  0  0
    1.3601   -5.2674    0.0000 S   0  0  0  0  0  0  0  0  0  0  0  0
   -1.7693  -11.1401    0.0000 O   0  0  0  0  0  0  0  0  0  0  0  0
  1  2  1  0
  2  3  1  0
  2  4  1  0
  2  5  1  0
  5  6  2  0
  6  7  1  0
  7  8  2  0
  8  9  1  0
  9 10  1  0
 10 11  1  0
 11 12  2  0
 12 13  1  0
 13 14  2  0
 14 15  1  0
 15 16  1  0
 16 17  2  0
 17 18  1  0
 18 19  2  0
 19 20  1  0
 20 21  2  0
 14 22  1  0
  8 23  1  0
 23  5  1  0
 22 11  1  0
 21 16  1  0
M  END
>  <Compound_ID>  (392) 
CHEMBL328406

>  <Active>  (392) 
1

>  <Smiles>  (392) 
CC(C)(C)c1cnc(CSc2cnc(Nc3ccncc3)s2)o1

>  <canonical_smi>  (392) 
CC(C)(C)c1cnc(CSc2cnc(Nc3ccncc3)s2)o1

>  <Set>  (392) 
G2 active

>  <Set_type>  (392) 
Test

>  <MW>  (392) 
346.48

>  <HBD>  (392) 
1

>  <HBA>  (392) 
6

>  <NRB>  (392) 
5

>  <NR>  (392) 
3

>  <NAR>  (392) 
3

>  <PSA>  (392) 
63.84

>  <Standard Type>  (392) 
nan

>  <Standard Relation>  (392) 
nan

>  <Standard Units>  (392) 
nan

>  <Standard Value>  (392) 
nan

>  <Assay ChEMBL ID>  (392) 
nan

>  <Assay Description>  (392) 
nan

>  <BAO Label>  (392) 
nan

$$$$

     RDKit          2D

 31 35  0  0  0  0  0  0  0  0999 V2000
   -7.5000   -5.1962    0.0000 C   0  0  0  0  0  0  0  0  0  0  0  0
   -6.0000   -5.1962    0.0000 N   0  0  0  0  0  0  0  0  0  0  0  0
   -5.2500   -3.8971    0.0000 C   0  0  0  0  0  0  0  0  0  0  0  0
   -3.7500   -3.8971    0.0000 C   0  0  0  0  0  0  0  0  0  0  0  0
   -3.0000   -5.1962    0.0000 N   0  0  0  0  0  0  0  0  0  0  0  0
   -1.5000   -5.1962    0.0000 C   0  0  0  0  0  0  0  0  0  0  0  0
   -0.7500   -6.4952    0.0000 C   0  0  0  0  0  0  0  0  0  0  0  0
    0.7500   -6.4952    0.0000 C   0  0  0  0  0  0  0  0  0  0  0  0
    1.5000   -5.1962    0.0000 C   0  0  0  0  0  0  0  0  0  0  0  0
    0.7500   -3.8971    0.0000 C   0  0  0  0  0  0  0  0  0  0  0  0
    1.5000   -2.5981    0.0000 N   0  0  0  0  0  0  0  0  0  0  0  0
    0.7500   -1.2990    0.0000 C   0  0  0  0  0  0  0  0  0  0  0  0
    1.5000    0.0000    0.0000 N   0  0  0  0  0  0  0  0  0  0  0  0
    0.7500    1.2990    0.0000 C   0  0  0  0  0  0  0  0  0  0  0  0
   -0.7500    1.2990    0.0000 C   0  0  0  0  0  0  0  0  0  0  0  0
   -1.5000    0.0000    0.0000 C   0  0  0  0  0  0  0  0  0  0  0  0
   -0.7500   -1.2990    0.0000 N   0  0  0  0  0  0  0  0  0  0  0  0
   -3.0000    0.0000    0.0000 C   0  0  0  0  0  0  0  0  0  0  0  0
   -3.7500    1.2990    0.0000 C   0  0  0  0  0  0  0  0  0  0  0  0
   -5.2172    0.9872    0.0000 C   0  0  0  0  0  0  0  0  0  0  0  0
   -6.3319    1.9909    0.0000 C   0  0  0  0  0  0  0  0  0  0  0  0
   -7.7585    1.5273    0.0000 N   0  0  0  0  0  0  0  0  0  0  0  0
   -6.0201    3.4581    0.0000 O   0  0  0  0  0  0  0  0  0  0  0  0
   -5.3740   -0.5046    0.0000 N   0  0  0  0  0  0  0  0  0  0  0  0
   -4.0037   -1.1147    0.0000 N   0  0  0  0  0  0  0  0  0  0  0  0
   -3.6918   -2.5819    0.0000 C   0  0  0  0  0  0  0  0  0  0  0  0
   -3.0000    2.5981    0.0000 C   0  0  0  0  0  0  0  0  0  0  0  0
   -1.5000    2.5981    0.0000 C   0  0  0  0  0  0  0  0  0  0  0  0
   -0.7500   -3.8971    0.0000 C   0  0  0  0  0  0  0  0  0  0  0  0
   -3.7500   -6.4952    0.0000 C   0  0  0  0  0  0  0  0  0  0  0  0
   -5.2500   -6.4952    0.0000 C   0  0  0  0  0  0  0  0  0  0  0  0
  1  2  1  0
  2  3  1  0
  3  4  1  0
  4  5  1  0
  5  6  1  0
  6  7  2  0
  7  8  1  0
  8  9  2  0
  9 10  1  0
 10 11  1  0
 11 12  1  0
 12 13  2  0
 13 14  1  0
 14 15  2  0
 15 16  1  0
 16 17  2  0
 16 18  1  0
 18 19  2  0
 19 20  1  0
 20 21  1  0
 21 22  1  0
 21 23  2  0
 20 24  2  0
 24 25  1  0
 25 26  1  0
 19 27  1  0
 27 28  1  0
 10 29  2  0
  5 30  1  0
 30 31  1  0
 31  2  1  0
 29  6  1  0
 17 12  1  0
 25 18  1  0
 28 15  1  0
M  END
>  <Compound_ID>  (393) 
CHEMBL559513

>  <Active>  (393) 
1

>  <Smiles>  (393) 
CN1CCN(c2cccc(Nc3ncc4c(n3)-c3c(c(C(N)=O)nn3C)CC4)c2)CC1

>  <canonical_smi>  (393) 
CN1CCN(c2cccc(Nc3ncc4c(n3)-c3c(c(C(N)=O)nn3C)CC4)c2)CC1

>  <Set>  (393) 
G2 active

>  <Set_type>  (393) 
Test

>  <MW>  (393) 
418.51

>  <HBD>  (393) 
2

>  <HBA>  (393) 
7

>  <NRB>  (393) 
4

>  <NR>  (393) 
5

>  <NAR>  (393) 
3

>  <PSA>  (393) 
105.2

>  <Standard Type>  (393) 
nan

>  <Standard Relation>  (393) 
nan

>  <Standard Units>  (393) 
nan

>  <Standard Value>  (393) 
nan

>  <Assay ChEMBL ID>  (393) 
nan

>  <Assay Description>  (393) 
nan

>  <BAO Label>  (393) 
nan

$$$$

     RDKit          2D

 27 30  0  0  0  0  0  0  0  0999 V2000
    8.0498   -1.8296    0.0000 N   0  0  0  0  0  0  0  0  0  0  0  0
    6.6232   -1.3661    0.0000 C   0  0  0  0  0  0  0  0  0  0  0  0
    5.5085   -2.3698    0.0000 C   0  0  0  0  0  0  0  0  0  0  0  0
    4.0819   -1.9062    0.0000 C   0  0  0  0  0  0  0  0  0  0  0  0
    2.9672   -2.9099    0.0000 N   0  0  0  0  0  0  0  0  0  0  0  0
    3.1240   -4.4017    0.0000 N   0  0  0  0  0  0  0  0  0  0  0  0
    1.7537   -5.0118    0.0000 C   0  0  0  0  0  0  0  0  0  0  0  0
    1.4418   -6.4791    0.0000 C   0  0  0  0  0  0  0  0  0  0  0  0
    2.5565   -7.4827    0.0000 N   0  0  0  0  0  0  0  0  0  0  0  0
    0.0152   -6.9426    0.0000 O   0  0  0  0  0  0  0  0  0  0  0  0
    0.7500   -3.8971    0.0000 C   0  0  0  0  0  0  0  0  0  0  0  0
    1.5000   -2.5981    0.0000 C   0  0  0  0  0  0  0  0  0  0  0  0
    0.7500   -1.2990    0.0000 C   0  0  0  0  0  0  0  0  0  0  0  0
    1.5000    0.0000    0.0000 N   0  0  0  0  0  0  0  0  0  0  0  0
    0.7500    1.2990    0.0000 C   0  0  0  0  0  0  0  0  0  0  0  0
    1.5000    2.5981    0.0000 N   0  0  0  0  0  0  0  0  0  0  0  0
    3.0000    2.5981    0.0000 C   0  0  0  0  0  0  0  0  0  0  0  0
    3.7500    1.2990    0.0000 C   0  0  0  0  0  0  0  0  0  0  0  0
    5.2500    1.2990    0.0000 C   0  0  0  0  0  0  0  0  0  0  0  0
    6.0000    2.5981    0.0000 C   0  0  0  0  0  0  0  0  0  0  0  0
    5.2500    3.8971    0.0000 C   0  0  0  0  0  0  0  0  0  0  0  0
    3.7500    3.8971    0.0000 C   0  0  0  0  0  0  0  0  0  0  0  0
   -0.7500    1.2990    0.0000 N   0  0  0  0  0  0  0  0  0  0  0  0
   -1.5000    0.0000    0.0000 C   0  0  0  0  0  0  0  0  0  0  0  0
   -0.7500   -1.2990    0.0000 C   0  0  0  0  0  0  0  0  0  0  0  0
   -1.5000   -2.5981    0.0000 C   0  0  0  0  0  0  0  0  0  0  0  0
   -0.7500   -3.8971    0.0000 C   0  0  0  0  0  0  0  0  0  0  0  0
  1  2  1  0
  2  3  1  0
  3  4  1  0
  4  5  1  0
  5  6  1  0
  6  7  2  0
  7  8  1  0
  8  9  1  0
  8 10  2  0
  7 11  1  0
 11 12  2  0
 12 13  1  0
 13 14  2  0
 14 15  1  0
 15 16  1  0
 16 17  1  0
 17 18  2  0
 18 19  1  0
 19 20  2  0
 20 21  1  0
 21 22  2  0
 15 23  2  0
 23 24  1  0
 24 25  2  0
 25 26  1  0
 26 27  1  0
 12  5  1  0
 25 13  1  0
 27 11  1  0
 22 17  1  0
M  END
>  <Compound_ID>  (394) 
CHEMBL1171950

>  <Active>  (394) 
1

>  <Smiles>  (394) 
NCCCn1nc(C(N)=O)c2c1-c1nc(Nc3ccccc3)ncc1CC2

>  <canonical_smi>  (394) 
NCCCn1nc(C(N)=O)c2c1-c1nc(Nc3ccccc3)ncc1CC2

>  <Set>  (394) 
G2 active

>  <Set_type>  (394) 
Test

>  <MW>  (394) 
363.43

>  <HBD>  (394) 
3

>  <HBA>  (394) 
6

>  <NRB>  (394) 
6

>  <NR>  (394) 
4

>  <NAR>  (394) 
3

>  <PSA>  (394) 
124.74

>  <Standard Type>  (394) 
nan

>  <Standard Relation>  (394) 
nan

>  <Standard Units>  (394) 
nan

>  <Standard Value>  (394) 
nan

>  <Assay ChEMBL ID>  (394) 
nan

>  <Assay Description>  (394) 
nan

>  <BAO Label>  (394) 
nan

$$$$

     RDKit          2D

 32 35  0  0  0  0  0  0  0  0999 V2000
  -10.0849   -6.9740    0.0000 N   0  0  0  0  0  0  0  0  0  0  0  0
   -8.6583   -6.5105    0.0000 S   0  0  0  0  0  0  0  0  0  0  0  0
   -9.1218   -5.0839    0.0000 O   0  0  0  0  0  0  0  0  0  0  0  0
   -8.1948   -7.9371    0.0000 O   0  0  0  0  0  0  0  0  0  0  0  0
   -7.2317   -6.0469    0.0000 C   0  0  0  0  0  0  0  0  0  0  0  0
   -6.9199   -4.5797    0.0000 C   0  0  0  0  0  0  0  0  0  0  0  0
   -5.4933   -4.1162    0.0000 C   0  0  0  0  0  0  0  0  0  0  0  0
   -4.3786   -5.1199    0.0000 C   0  0  0  0  0  0  0  0  0  0  0  0
   -2.9520   -4.6564    0.0000 N   0  0  0  0  0  0  0  0  0  0  0  0
   -2.6401   -3.1891    0.0000 N   0  0  0  0  0  0  0  0  0  0  0  0
   -1.2135   -2.7256    0.0000 C   0  0  0  0  0  0  0  0  0  0  0  0
   -0.0000   -3.6073    0.0000 C   0  0  0  0  0  0  0  0  0  0  0  0
    0.0000   -5.1073    0.0000 O   0  0  0  0  0  0  0  0  0  0  0  0
    1.2135   -2.7256    0.0000 N   0  0  0  0  0  0  0  0  0  0  0  0
    0.7500   -1.2990    0.0000 C   0  0  0  0  0  0  0  0  0  0  0  0
    1.5000    0.0000    0.0000 C   0  0  0  0  0  0  0  0  0  0  0  0
    0.7500    1.2990    0.0000 C   0  0  0  0  0  0  0  0  0  0  0  0
   -0.7500    1.2990    0.0000 C   0  0  0  0  0  0  0  0  0  0  0  0
   -1.5000    2.5981    0.0000 C   0  0  0  0  0  0  0  0  0  0  0  0
   -3.0000    2.5981    0.0000 O   0  0  0  0  0  0  0  0  0  0  0  0
   -0.7500    3.8971    0.0000 N   0  0  0  0  0  0  0  0  0  0  0  0
   -1.5000    5.1962    0.0000 C   0  0  0  0  0  0  0  0  0  0  0  0
   -0.7500    6.4952    0.0000 C   0  0  0  0  0  0  0  0  0  0  0  0
    0.7500    6.4952    0.0000 C   0  0  0  0  0  0  0  0  0  0  0  0
    1.5000    7.7942    0.0000 C   0  0  0  0  0  0  0  0  0  0  0  0
    0.7500    9.0933    0.0000 C   0  0  0  0  0  0  0  0  0  0  0  0
   -0.7500    9.0933    0.0000 N   0  0  0  0  0  0  0  0  0  0  0  0
   -1.5000    7.7942    0.0000 C   0  0  0  0  0  0  0  0  0  0  0  0
   -1.5000    0.0000    0.0000 C   0  0  0  0  0  0  0  0  0  0  0  0
   -0.7500   -1.2990    0.0000 C   0  0  0  0  0  0  0  0  0  0  0  0
   -4.6904   -6.5871    0.0000 C   0  0  0  0  0  0  0  0  0  0  0  0
   -6.1170   -7.0506    0.0000 C   0  0  0  0  0  0  0  0  0  0  0  0
  1  2  1  0
  2  3  2  0
  2  4  2  0
  2  5  1  0
  5  6  2  0
  6  7  1  0
  7  8  2  0
  8  9  1  0
  9 10  2  3
 10 11  1  0
 11 12  2  0
 12 13  1  0
 12 14  1  0
 14 15  1  0
 15 16  2  0
 16 17  1  0
 17 18  2  0
 18 19  1  0
 19 20  2  0
 19 21  1  0
 21 22  1  0
 22 23  1  0
 23 24  2  0
 24 25  1  0
 25 26  2  0
 26 27  1  0
 27 28  2  0
 18 29  1  0
 29 30  2  0
  8 31  1  0
 31 32  2  0
 32  5  1  0
 30 11  1  0
 30 15  1  0
 28 23  1  0
M  END
>  <Compound_ID>  (395) 
CHEMBL430434

>  <Active>  (395) 
1

>  <Smiles>  (395) 
NS(=O)(=O)c1ccc(N=Nc2c(O)[nH]c3ccc(C(=O)NCc4cccnc4)cc23)cc1

>  <canonical_smi>  (395) 
NS(=O)(=O)c1ccc(N=Nc2c(O)[nH]c3ccc(C(=O)NCc4cccnc4)cc23)cc1

>  <Set>  (395) 
G2 active

>  <Set_type>  (395) 
Test

>  <MW>  (395) 
450.48

>  <HBD>  (395) 
4

>  <HBA>  (395) 
5

>  <NRB>  (395) 
6

>  <NR>  (395) 
4

>  <NAR>  (395) 
4

>  <PSA>  (395) 
162.89

>  <Standard Type>  (395) 
nan

>  <Standard Relation>  (395) 
nan

>  <Standard Units>  (395) 
nan

>  <Standard Value>  (395) 
nan

>  <Assay ChEMBL ID>  (395) 
nan

>  <Assay Description>  (395) 
nan

>  <BAO Label>  (395) 
nan

$$$$

     RDKit          2D

 32 35  0  0  0  0  0  0  0  0999 V2000
  -10.0849   -6.9740    0.0000 N   0  0  0  0  0  0  0  0  0  0  0  0
   -8.6583   -6.5105    0.0000 S   0  0  0  0  0  0  0  0  0  0  0  0
   -9.1218   -5.0839    0.0000 O   0  0  0  0  0  0  0  0  0  0  0  0
   -8.1948   -7.9371    0.0000 O   0  0  0  0  0  0  0  0  0  0  0  0
   -7.2317   -6.0469    0.0000 C   0  0  0  0  0  0  0  0  0  0  0  0
   -6.9199   -4.5797    0.0000 C   0  0  0  0  0  0  0  0  0  0  0  0
   -5.4933   -4.1162    0.0000 C   0  0  0  0  0  0  0  0  0  0  0  0
   -4.3786   -5.1199    0.0000 C   0  0  0  0  0  0  0  0  0  0  0  0
   -2.9520   -4.6564    0.0000 N   0  0  0  0  0  0  0  0  0  0  0  0
   -2.6401   -3.1891    0.0000 N   0  0  0  0  0  0  0  0  0  0  0  0
   -1.2135   -2.7256    0.0000 C   0  0  0  0  0  0  0  0  0  0  0  0
   -0.0000   -3.6073    0.0000 C   0  0  0  0  0  0  0  0  0  0  0  0
    0.0000   -5.1073    0.0000 O   0  0  0  0  0  0  0  0  0  0  0  0
    1.2135   -2.7256    0.0000 N   0  0  0  0  0  0  0  0  0  0  0  0
    0.7500   -1.2990    0.0000 C   0  0  0  0  0  0  0  0  0  0  0  0
    1.5000    0.0000    0.0000 C   0  0  0  0  0  0  0  0  0  0  0  0
    0.7500    1.2990    0.0000 C   0  0  0  0  0  0  0  0  0  0  0  0
   -0.7500    1.2990    0.0000 C   0  0  0  0  0  0  0  0  0  0  0  0
   -1.5000    2.5981    0.0000 C   0  0  0  0  0  0  0  0  0  0  0  0
   -3.0000    2.5981    0.0000 O   0  0  0  0  0  0  0  0  0  0  0  0
   -0.7500    3.8971    0.0000 N   0  0  0  0  0  0  0  0  0  0  0  0
   -1.5000    5.1962    0.0000 C   0  0  0  0  0  0  0  0  0  0  0  0
   -0.7500    6.4952    0.0000 C   0  0  0  0  0  0  0  0  0  0  0  0
    0.7500    6.4952    0.0000 C   0  0  0  0  0  0  0  0  0  0  0  0
    1.5000    7.7942    0.0000 C   0  0  0  0  0  0  0  0  0  0  0  0
    0.7500    9.0933    0.0000 C   0  0  0  0  0  0  0  0  0  0  0  0
   -0.7500    9.0933    0.0000 N   0  0  0  0  0  0  0  0  0  0  0  0
   -1.5000    7.7942    0.0000 C   0  0  0  0  0  0  0  0  0  0  0  0
   -1.5000    0.0000    0.0000 C   0  0  0  0  0  0  0  0  0  0  0  0
   -0.7500   -1.2990    0.0000 C   0  0  0  0  0  0  0  0  0  0  0  0
   -4.6904   -6.5871    0.0000 C   0  0  0  0  0  0  0  0  0  0  0  0
   -6.1170   -7.0506    0.0000 C   0  0  0  0  0  0  0  0  0  0  0  0
  1  2  1  0
  2  3  2  0
  2  4  2  0
  2  5  1  0
  5  6  2  0
  6  7  1  0
  7  8  2  0
  8  9  1  0
  9 10  1  0
 10 11  2  0
 11 12  1  0
 12 13  2  0
 12 14  1  0
 14 15  1  0
 15 16  2  0
 16 17  1  0
 17 18  2  0
 18 19  1  0
 19 20  2  0
 19 21  1  0
 21 22  1  0
 22 23  1  0
 23 24  2  0
 24 25  1  0
 25 26  2  0
 26 27  1  0
 27 28  2  0
 18 29  1  0
 29 30  2  0
  8 31  1  0
 31 32  2  0
 32  5  1  0
 30 11  1  0
 30 15  1  0
 28 23  1  0
M  END
>  <Compound_ID>  (396) 
CHEMBL271953

>  <Active>  (396) 
1

>  <Smiles>  (396) 
NS(=O)(=O)c1ccc(N/N=C2\C(=O)Nc3ccc(C(=O)NCc4cccnc4)cc32)cc1

>  <canonical_smi>  (396) 
NS(=O)(=O)c1ccc(N/N=C2\C(=O)Nc3ccc(C(=O)NCc4cccnc4)cc32)cc1

>  <Set>  (396) 
G2 active

>  <Set_type>  (396) 
Test

>  <MW>  (396) 
450.48

>  <HBD>  (396) 
4

>  <HBA>  (396) 
6

>  <NRB>  (396) 
6

>  <NR>  (396) 
4

>  <NAR>  (396) 
3

>  <PSA>  (396) 
155.64

>  <Standard Type>  (396) 
nan

>  <Standard Relation>  (396) 
nan

>  <Standard Units>  (396) 
nan

>  <Standard Value>  (396) 
nan

>  <Assay ChEMBL ID>  (396) 
nan

>  <Assay Description>  (396) 
nan

>  <BAO Label>  (396) 
nan

$$$$

     RDKit          2D

 28 31  0  0  0  0  0  0  0  0999 V2000
   -6.9204   -5.2665    0.0000 C   0  0  0  0  0  0  0  0  0  0  0  0
   -5.6213   -4.5165    0.0000 O   0  0  0  0  0  0  0  0  0  0  0  0
   -4.3223   -5.2665    0.0000 C   0  0  0  0  0  0  0  0  0  0  0  0
   -4.1655   -6.7583    0.0000 C   0  0  0  0  0  0  0  0  0  0  0  0
   -2.6983   -7.0701    0.0000 C   0  0  0  0  0  0  0  0  0  0  0  0
   -1.9483   -5.7711    0.0000 N   0  0  0  0  0  0  0  0  0  0  0  0
   -2.9520   -4.6564    0.0000 C   0  0  0  0  0  0  0  0  0  0  0  0
   -2.6401   -3.1891    0.0000 C   0  0  0  0  0  0  0  0  0  0  0  0
   -1.2135   -2.7256    0.0000 C   0  0  0  0  0  0  0  0  0  0  0  0
   -0.0000   -3.6073    0.0000 C   0  0  0  0  0  0  0  0  0  0  0  0
    0.0000   -5.1073    0.0000 O   0  0  0  0  0  0  0  0  0  0  0  0
    1.2135   -2.7256    0.0000 N   0  0  0  0  0  0  0  0  0  0  0  0
    0.7500   -1.2990    0.0000 C   0  0  0  0  0  0  0  0  0  0  0  0
    1.5000    0.0000    0.0000 C   0  0  0  0  0  0  0  0  0  0  0  0
    0.7500    1.2990    0.0000 C   0  0  0  0  0  0  0  0  0  0  0  0
   -0.7500    1.2990    0.0000 C   0  0  0  0  0  0  0  0  0  0  0  0
   -1.5000    2.5981    0.0000 F   0  0  0  0  0  0  0  0  0  0  0  0
   -1.5000    0.0000    0.0000 C   0  0  0  0  0  0  0  0  0  0  0  0
   -3.0000    0.0000    0.0000 C   0  0  0  0  0  0  0  0  0  0  0  0
   -4.5000    0.0000    0.0000 C   0  0  0  0  0  0  0  0  0  0  0  0
   -6.0000    0.0000    0.0000 C   0  0  0  0  0  0  0  0  0  0  0  0
   -5.7395   -1.4772    0.0000 O   0  0  0  0  0  0  0  0  0  0  0  0
   -5.7395    1.4772    0.0000 C   0  0  0  0  0  0  0  0  0  0  0  0
   -6.8886    2.4414    0.0000 C   0  0  0  0  0  0  0  0  0  0  0  0
   -8.2981    1.9284    0.0000 O   0  0  0  0  0  0  0  0  0  0  0  0
   -8.5586    0.4512    0.0000 C   0  0  0  0  0  0  0  0  0  0  0  0
   -7.4095   -0.5130    0.0000 C   0  0  0  0  0  0  0  0  0  0  0  0
   -0.7500   -1.2990    0.0000 C   0  0  0  0  0  0  0  0  0  0  0  0
  1  2  1  0
  2  3  1  0
  3  4  1  0
  4  5  2  0
  5  6  1  0
  6  7  1  0
  7  8  1  0
  8  9  2  0
  9 10  1  0
 10 11  2  0
 10 12  1  0
 12 13  1  0
 13 14  2  0
 14 15  1  0
 15 16  2  0
 16 17  1  0
 16 18  1  0
 18 19  1  0
 19 20  3  0
 20 21  1  0
 21 22  1  0
 21 23  1  0
 23 24  1  0
 24 25  1  0
 25 26  1  0
 26 27  1  0
 18 28  2  0
  7  3  2  0
 28  9  1  0
 28 13  1  0
 27 21  1  0
M  END
>  <Compound_ID>  (397) 
CHEMBL412267

>  <Active>  (397) 
1

>  <Smiles>  (397) 
COc1cc[nH]c1/C=C1\C(=O)Nc2ccc(F)c(C#CC3(O)CCOCC3)c21

>  <canonical_smi>  (397) 
COc1cc[nH]c1/C=C1\C(=O)Nc2ccc(F)c(C#CC3(O)CCOCC3)c21

>  <Set>  (397) 
G2 active

>  <Set_type>  (397) 
Test

>  <MW>  (397) 
382.39

>  <HBD>  (397) 
3

>  <HBA>  (397) 
4

>  <NRB>  (397) 
2

>  <NR>  (397) 
4

>  <NAR>  (397) 
2

>  <PSA>  (397) 
83.58

>  <Standard Type>  (397) 
nan

>  <Standard Relation>  (397) 
nan

>  <Standard Units>  (397) 
nan

>  <Standard Value>  (397) 
nan

>  <Assay ChEMBL ID>  (397) 
nan

>  <Assay Description>  (397) 
nan

>  <BAO Label>  (397) 
nan

$$$$

     RDKit          2D

 38 44  0  0  0  0  0  0  0  0999 V2000
    3.7500   -1.2990    0.0000 C   0  0  0  0  0  0  0  0  0  0  0  0
    3.0000    0.0000    0.0000 O   0  0  0  0  0  0  0  0  0  0  0  0
    1.5000    0.0000    0.0000 C   0  0  0  0  0  0  0  0  0  0  0  0
    0.7500   -1.2990    0.0000 C   0  0  0  0  0  0  0  0  0  0  0  0
   -0.7500   -1.2990    0.0000 C   0  0  0  0  0  0  0  0  0  0  0  0
   -1.5000    0.0000    0.0000 C   0  0  0  0  0  0  0  0  0  0  0  0
   -2.9672    0.3119    0.0000 C   0  0  0  0  0  0  0  0  0  0  0  0
   -4.1807   -0.5698    0.0000 C   0  0  0  0  0  0  0  0  0  0  0  0
   -5.5511    0.0403    0.0000 C   0  0  0  0  0  0  0  0  0  0  0  0
   -5.7079    1.5321    0.0000 C   0  0  0  0  0  0  0  0  0  0  0  0
   -4.4943    2.4138    0.0000 C   0  0  0  0  0  0  0  0  0  0  0  0
   -4.6511    3.9055    0.0000 C   0  0  0  0  0  0  0  0  0  0  0  0
   -6.0214    4.5156    0.0000 C   0  0  0  0  0  0  0  0  0  0  0  0
   -7.2350    3.6340    0.0000 C   0  0  0  0  0  0  0  0  0  0  0  0
   -8.7022    3.9458    0.0000 C   0  0  0  0  0  0  0  0  0  0  0  0
   -9.4522    2.6468    0.0000 C   0  0  0  0  0  0  0  0  0  0  0  0
   -8.4485    1.5321    0.0000 N   0  0  0  0  0  0  0  0  0  0  0  0
   -8.7604    0.0649    0.0000 C   0  0  0  0  0  0  0  0  0  0  0  0
   -7.0782    2.1422    0.0000 C   0  0  0  0  0  0  0  0  0  0  0  0
   -3.1240    1.8037    0.0000 C   0  0  0  0  0  0  0  0  0  0  0  0
   -1.7537    2.4138    0.0000 N   0  0  0  0  0  0  0  0  0  0  0  0
   -1.4418    3.8810    0.0000 C   0  0  0  0  0  0  0  0  0  0  0  0
   -0.0152    4.3445    0.0000 C   0  0  0  0  0  0  0  0  0  0  0  0
    0.2966    5.8117    0.0000 C   0  0  0  0  0  0  0  0  0  0  0  0
    1.7232    6.2752    0.0000 N   0  0  0  0  0  0  0  0  0  0  0  0
    2.8379    5.2716    0.0000 C   0  0  0  0  0  0  0  0  0  0  0  0
    4.2645    5.7351    0.0000 C   0  0  0  0  0  0  0  0  0  0  0  0
    4.5764    7.2023    0.0000 C   0  0  0  0  0  0  0  0  0  0  0  0
    6.0030    7.6658    0.0000 O   0  0  0  0  0  0  0  0  0  0  0  0
    3.4617    8.2060    0.0000 C   0  0  0  0  0  0  0  0  0  0  0  0
    2.0351    7.7425    0.0000 C   0  0  0  0  0  0  0  0  0  0  0  0
   -0.7500    1.2990    0.0000 C   0  0  0  0  0  0  0  0  0  0  0  0
    0.7500    1.2990    0.0000 C   0  0  0  0  0  0  0  0  0  0  0  0
   -6.5548   -1.0744    0.0000 C   0  0  0  0  0  0  0  0  0  0  0  0
   -8.0465   -0.9176    0.0000 O   0  0  0  0  0  0  0  0  0  0  0  0
   -5.8048   -2.3735    0.0000 N   0  0  0  0  0  0  0  0  0  0  0  0
   -4.3375   -2.0616    0.0000 C   0  0  0  0  0  0  0  0  0  0  0  0
   -3.2228   -3.0653    0.0000 O   0  0  0  0  0  0  0  0  0  0  0  0
  1  2  1  0
  2  3  1  0
  3  4  2  0
  4  5  1  0
  5  6  2  0
  6  7  1  0
  7  8  2  0
  8  9  1  0
  9 10  2  0
 10 11  1  0
 11 12  1  0
 12 13  2  0
 13 14  1  0
 14 15  1  0
 15 16  2  0
 16 17  1  0
 17 18  1  0
 17 19  1  0
 11 20  2  0
 20 21  1  0
 21 22  1  0
 22 23  1  0
 23 24  1  0
 24 25  1  0
 25 26  1  0
 26 27  1  0
 27 28  1  0
 28 29  1  0
 28 30  1  0
 30 31  1  0
 21 32  1  0
 32 33  2  0
  9 34  1  0
 34 35  2  0
 34 36  1  0
 36 37  1  0
 37 38  2  0
 33  3  1  0
 32  6  1  0
 20  7  1  0
 31 25  1  0
 37  8  1  0
 19 10  1  0
 19 14  2  0
M  END
>  <Compound_ID>  (398) 
CHEMBL306856

>  <Active>  (398) 
1

>  <Smiles>  (398) 
COc1ccc2c3c4c(c5c(ccc6ccn(C)c65)c3n(CCCN3CCC(O)CC3)c2c1)C(=O)NC4=O

>  <canonical_smi>  (398) 
COc1ccc2c3c4c(c5c(ccc6ccn(C)c65)c3n(CCCN3CCC(O)CC3)c2c1)C(=O)NC4=O

>  <Set>  (398) 
G2 active

>  <Set_type>  (398) 
Test

>  <MW>  (398) 
510.59

>  <HBD>  (398) 
2

>  <HBA>  (398) 
5

>  <NRB>  (398) 
5

>  <NR>  (398) 
7

>  <NAR>  (398) 
5

>  <PSA>  (398) 
88.73

>  <Standard Type>  (398) 
nan

>  <Standard Relation>  (398) 
nan

>  <Standard Units>  (398) 
nan

>  <Standard Value>  (398) 
nan

>  <Assay ChEMBL ID>  (398) 
nan

>  <Assay Description>  (398) 
nan

>  <BAO Label>  (398) 
nan

$$$$

     RDKit          2D

 26 29  0  0  0  0  0  0  0  0999 V2000
    5.2500    1.2990    0.0000 C   0  0  0  0  0  0  0  0  0  0  0  0
    4.5000    0.0000    0.0000 N   0  0  0  0  0  0  0  0  0  0  0  0
    3.0000    0.0000    0.0000 S   0  0  0  0  0  0  0  0  0  0  0  0
    3.0000   -1.5000    0.0000 O   0  0  0  0  0  0  0  0  0  0  0  0
    3.0000    1.5000    0.0000 O   0  0  0  0  0  0  0  0  0  0  0  0
    1.5000    0.0000    0.0000 C   0  0  0  0  0  0  0  0  0  0  0  0
    0.7500   -1.2990    0.0000 C   0  0  0  0  0  0  0  0  0  0  0  0
   -0.7500   -1.2990    0.0000 C   0  0  0  0  0  0  0  0  0  0  0  0
   -1.5000    0.0000    0.0000 C   0  0  0  0  0  0  0  0  0  0  0  0
   -0.7500    1.2990    0.0000 C   0  0  0  0  0  0  0  0  0  0  0  0
    0.7500    1.2990    0.0000 C   0  0  0  0  0  0  0  0  0  0  0  0
   -1.7537    2.4138    0.0000 C   0  0  0  0  0  0  0  0  0  0  0  0
   -1.4418    3.8810    0.0000 C   0  0  0  0  0  0  0  0  0  0  0  0
   -2.5565    4.8847    0.0000 C   0  0  0  0  0  0  0  0  0  0  0  0
   -4.0238    4.5728    0.0000 N   0  0  0  0  0  0  0  0  0  0  0  0
   -4.7738    5.8718    0.0000 C   0  0  0  0  0  0  0  0  0  0  0  0
   -3.7701    6.9866    0.0000 C   0  0  0  0  0  0  0  0  0  0  0  0
   -2.3998    6.3765    0.0000 C   0  0  0  0  0  0  0  0  0  0  0  0
   -1.1862    7.2581    0.0000 C   0  0  0  0  0  0  0  0  0  0  0  0
   -1.3430    8.7499    0.0000 C   0  0  0  0  0  0  0  0  0  0  0  0
   -2.7133    9.3600    0.0000 O   0  0  0  0  0  0  0  0  0  0  0  0
   -3.9269    8.4783    0.0000 C   0  0  0  0  0  0  0  0  0  0  0  0
   -5.2972    9.0884    0.0000 O   0  0  0  0  0  0  0  0  0  0  0  0
   -3.1240    1.8037    0.0000 C   0  0  0  0  0  0  0  0  0  0  0  0
   -4.4231    2.5537    0.0000 O   0  0  0  0  0  0  0  0  0  0  0  0
   -2.9672    0.3119    0.0000 N   0  0  0  0  0  0  0  0  0  0  0  0
  1  2  1  0
  2  3  1  0
  3  4  2  0
  3  5  2  0
  3  6  1  0
  6  7  2  0
  7  8  1  0
  8  9  2  0
  9 10  1  0
 10 11  2  0
 10 12  1  0
 12 13  2  0
 13 14  1  0
 14 15  1  0
 15 16  1  0
 16 17  2  0
 17 18  1  0
 18 19  1  0
 19 20  1  0
 20 21  1  0
 21 22  1  0
 22 23  2  0
 12 24  1  0
 24 25  2  0
 24 26  1  0
 11  6  1  0
 18 14  2  0
 26  9  1  0
 22 17  1  0
M  END
>  <Compound_ID>  (399) 
CHEMBL60541

>  <Active>  (399) 
1

>  <Smiles>  (399) 
CNS(=O)(=O)c1ccc2c(c1)/C(=C/c1[nH]cc3c1CCOC3=O)C(=O)N2

>  <canonical_smi>  (399) 
CNS(=O)(=O)c1ccc2c(c1)/C(=C/c1[nH]cc3c1CCOC3=O)C(=O)N2

>  <Set>  (399) 
G2 active

>  <Set_type>  (399) 
Test

>  <MW>  (399) 
373.39

>  <HBD>  (399) 
3

>  <HBA>  (399) 
5

>  <NRB>  (399) 
3

>  <NR>  (399) 
4

>  <NAR>  (399) 
2

>  <PSA>  (399) 
117.36

>  <Standard Type>  (399) 
nan

>  <Standard Relation>  (399) 
nan

>  <Standard Units>  (399) 
nan

>  <Standard Value>  (399) 
nan

>  <Assay ChEMBL ID>  (399) 
nan

>  <Assay Description>  (399) 
nan

>  <BAO Label>  (399) 
nan

$$$$

     RDKit          2D

 31 35  0  0  0  0  0  0  0  0999 V2000
  -10.1878   -4.1483    0.0000 O   0  0  0  0  0  0  0  0  0  0  0  0
   -8.8888   -4.8983    0.0000 S   0  0  0  0  0  0  0  0  0  0  0  0
   -7.5897   -5.6483    0.0000 O   0  0  0  0  0  0  0  0  0  0  0  0
   -9.6388   -6.1973    0.0000 N   0  0  0  0  0  0  0  0  0  0  0  0
   -8.8888   -7.4964    0.0000 C   0  0  0  0  0  0  0  0  0  0  0  0
   -9.6388   -8.7954    0.0000 C   0  0  0  0  0  0  0  0  0  0  0  0
   -8.8888  -10.0944    0.0000 C   0  0  0  0  0  0  0  0  0  0  0  0
   -7.3888  -10.0944    0.0000 C   0  0  0  0  0  0  0  0  0  0  0  0
   -6.6388   -8.7954    0.0000 C   0  0  0  0  0  0  0  0  0  0  0  0
   -7.3888   -7.4964    0.0000 C   0  0  0  0  0  0  0  0  0  0  0  0
   -8.1388   -3.5992    0.0000 C   0  0  0  0  0  0  0  0  0  0  0  0
   -6.6388   -3.5992    0.0000 C   0  0  0  0  0  0  0  0  0  0  0  0
   -5.8888   -2.3002    0.0000 C   0  0  0  0  0  0  0  0  0  0  0  0
   -6.6388   -1.0012    0.0000 C   0  0  0  0  0  0  0  0  0  0  0  0
   -5.8888    0.2979    0.0000 N   0  0  0  0  0  0  0  0  0  0  0  0
   -4.3888    0.2979    0.0000 C   0  0  0  0  0  0  0  0  0  0  0  0
   -3.6388    1.5969    0.0000 C   0  0  0  0  0  0  0  0  0  0  0  0
   -4.2489    2.9672    0.0000 C   0  0  0  0  0  0  0  0  0  0  0  0
   -5.7161    3.2791    0.0000 O   0  0  0  0  0  0  0  0  0  0  0  0
   -3.1342    3.9709    0.0000 N   0  0  0  0  0  0  0  0  0  0  0  0
   -1.8351    3.2209    0.0000 C   0  0  0  0  0  0  0  0  0  0  0  0
   -0.4086    3.6844    0.0000 C   0  0  0  0  0  0  0  0  0  0  0  0
    0.7062    2.6807    0.0000 C   0  0  0  0  0  0  0  0  0  0  0  0
    0.3943    1.2135    0.0000 C   0  0  0  0  0  0  0  0  0  0  0  0
    1.2760    0.0000    0.0000 N   0  0  0  0  0  0  0  0  0  0  0  0
    0.3943   -1.2135    0.0000 C   0  0  0  0  0  0  0  0  0  0  0  0
   -1.0323   -0.7500    0.0000 S   0  0  0  0  0  0  0  0  0  0  0  0
   -1.0323    0.7500    0.0000 C   0  0  0  0  0  0  0  0  0  0  0  0
   -2.1470    1.7537    0.0000 C   0  0  0  0  0  0  0  0  0  0  0  0
   -8.1388   -1.0012    0.0000 C   0  0  0  0  0  0  0  0  0  0  0  0
   -8.8888   -2.3002    0.0000 C   0  0  0  0  0  0  0  0  0  0  0  0
  1  2  2  0
  2  3  2  0
  2  4  1  0
  4  5  1  0
  5  6  2  0
  6  7  1  0
  7  8  2  0
  8  9  1  0
  9 10  2  0
  2 11  1  0
 11 12  2  0
 12 13  1  0
 13 14  2  0
 14 15  1  0
 15 16  2  0
 16 17  1  0
 17 18  2  0
 18 19  1  0
 18 20  1  0
 20 21  1  0
 21 22  2  0
 22 23  1  0
 23 24  2  0
 24 25  1  0
 25 26  2  0
 26 27  1  0
 27 28  1  0
 28 29  2  0
 14 30  1  0
 30 31  2  0
 10  5  1  0
 31 11  1  0
 29 17  1  0
 29 21  1  0
 28 24  1  0
M  END
>  <Compound_ID>  (400) 
CHEMBL85667

>  <Active>  (400) 
1

>  <Smiles>  (400) 
O=S(=O)(Nc1ccccc1)c1ccc(/N=C/c2c(O)[nH]c3ccc4ncsc4c23)cc1

>  <canonical_smi>  (400) 
O=S(=O)(Nc1ccccc1)c1ccc(/N=C/c2c(O)[nH]c3ccc4ncsc4c23)cc1

>  <Set>  (400) 
G2 active

>  <Set_type>  (400) 
Test

>  <MW>  (400) 
448.53

>  <HBD>  (400) 
3

>  <HBA>  (400) 
4

>  <NRB>  (400) 
5

>  <NR>  (400) 
5

>  <NAR>  (400) 
5

>  <PSA>  (400) 
107.44

>  <Standard Type>  (400) 
nan

>  <Standard Relation>  (400) 
nan

>  <Standard Units>  (400) 
nan

>  <Standard Value>  (400) 
nan

>  <Assay ChEMBL ID>  (400) 
nan

>  <Assay Description>  (400) 
nan

>  <BAO Label>  (400) 
nan

$$$$

     RDKit          2D

 20 21  0  0  0  0  0  0  0  0999 V2000
    5.0260   -1.2990    0.0000 C   0  0  0  0  0  0  0  0  0  0  0  0
    3.5260   -1.2990    0.0000 C   0  0  0  0  0  0  0  0  0  0  0  0
    2.7760   -2.5981    0.0000 O   0  0  0  0  0  0  0  0  0  0  0  0
    2.7760    0.0000    0.0000 N   0  0  0  0  0  0  0  0  0  0  0  0
    1.2760    0.0000    0.0000 C   0  0  0  0  0  0  0  0  0  0  0  0
    0.3943    1.2135    0.0000 N   0  0  0  0  0  0  0  0  0  0  0  0
   -1.0323    0.7500    0.0000 C   0  0  0  0  0  0  0  0  0  0  0  0
   -1.0323   -0.7500    0.0000 C   0  0  0  0  0  0  0  0  0  0  0  0
   -2.2458   -1.6317    0.0000 S   0  0  0  0  0  0  0  0  0  0  0  0
   -3.6161   -1.0216    0.0000 C   0  0  0  0  0  0  0  0  0  0  0  0
   -4.8297   -1.9033    0.0000 C   0  0  0  0  0  0  0  0  0  0  0  0
   -4.8297   -3.4033    0.0000 N   0  0  0  0  0  0  0  0  0  0  0  0
   -6.2562   -3.8668    0.0000 C   0  0  0  0  0  0  0  0  0  0  0  0
   -7.1379   -2.6533    0.0000 C   0  0  0  0  0  0  0  0  0  0  0  0
   -8.6379   -2.6533    0.0000 C   0  0  0  0  0  0  0  0  0  0  0  0
   -8.6379   -1.1533    0.0000 C   0  0  0  0  0  0  0  0  0  0  0  0
   -8.6379   -4.1533    0.0000 C   0  0  0  0  0  0  0  0  0  0  0  0
  -10.1379   -2.6533    0.0000 C   0  0  0  0  0  0  0  0  0  0  0  0
   -6.2562   -1.4397    0.0000 O   0  0  0  0  0  0  0  0  0  0  0  0
    0.3943   -1.2135    0.0000 S   0  0  0  0  0  0  0  0  0  0  0  0
  1  2  1  0
  2  3  2  0
  2  4  1  0
  4  5  1  0
  5  6  2  0
  6  7  1  0
  7  8  2  0
  8  9  1  0
  9 10  1  0
 10 11  1  0
 11 12  2  0
 12 13  1  0
 13 14  2  0
 14 15  1  0
 15 16  1  0
 15 17  1  0
 15 18  1  0
 14 19  1  0
  8 20  1  0
 20  5  1  0
 19 11  1  0
M  END
>  <Compound_ID>  (401) 
CHEMBL295136

>  <Active>  (401) 
1

>  <Smiles>  (401) 
CC(=O)Nc1ncc(SCc2ncc(C(C)(C)C)o2)s1

>  <canonical_smi>  (401) 
CC(=O)Nc1ncc(SCc2ncc(C(C)(C)C)o2)s1

>  <Set>  (401) 
G2 active

>  <Set_type>  (401) 
Test

>  <MW>  (401) 
311.43

>  <HBD>  (401) 
1

>  <HBA>  (401) 
5

>  <NRB>  (401) 
4

>  <NR>  (401) 
2

>  <NAR>  (401) 
2

>  <PSA>  (401) 
68.02

>  <Standard Type>  (401) 
nan

>  <Standard Relation>  (401) 
nan

>  <Standard Units>  (401) 
nan

>  <Standard Value>  (401) 
nan

>  <Assay ChEMBL ID>  (401) 
nan

>  <Assay Description>  (401) 
nan

>  <BAO Label>  (401) 
nan

$$$$

     RDKit          2D

 28 31  0  0  0  0  0  0  0  0999 V2000
    2.4531  -11.2583    0.0000 C   0  0  0  0  0  0  0  0  0  0  0  0
    3.0632   -9.8880    0.0000 O   0  0  0  0  0  0  0  0  0  0  0  0
    2.1815   -8.6745    0.0000 C   0  0  0  0  0  0  0  0  0  0  0  0
    0.6897   -8.8313    0.0000 C   0  0  0  0  0  0  0  0  0  0  0  0
   -0.1920   -7.6177    0.0000 C   0  0  0  0  0  0  0  0  0  0  0  0
    0.4182   -6.2474    0.0000 C   0  0  0  0  0  0  0  0  0  0  0  0
   -0.4635   -5.0339    0.0000 C   0  0  0  0  0  0  0  0  0  0  0  0
   -1.9635   -5.0339    0.0000 N   0  0  0  0  0  0  0  0  0  0  0  0
   -2.4271   -3.6073    0.0000 N   0  0  0  0  0  0  0  0  0  0  0  0
   -1.2135   -2.7256    0.0000 C   0  0  0  0  0  0  0  0  0  0  0  0
   -0.0000   -3.6073    0.0000 C   0  0  0  0  0  0  0  0  0  0  0  0
    1.2135   -2.7256    0.0000 C   0  0  0  0  0  0  0  0  0  0  0  0
    2.6401   -3.1891    0.0000 O   0  0  0  0  0  0  0  0  0  0  0  0
    0.7500   -1.2990    0.0000 C   0  0  0  0  0  0  0  0  0  0  0  0
    1.5000    0.0000    0.0000 C   0  0  0  0  0  0  0  0  0  0  0  0
    3.0000    0.0000    0.0000 N   0  0  0  0  0  0  0  0  0  0  0  0
    3.7500    1.2990    0.0000 C   0  0  0  0  0  0  0  0  0  0  0  0
    3.0000    2.5981    0.0000 O   0  0  0  0  0  0  0  0  0  0  0  0
    5.2500    1.2990    0.0000 N   0  0  0  0  0  0  0  0  0  0  0  0
    6.0000    2.5981    0.0000 N   0  0  0  0  0  0  0  0  0  0  0  0
    7.5000    2.5981    0.0000 C   0  0  0  0  0  0  0  0  0  0  0  0
    5.2500    3.8971    0.0000 C   0  0  0  0  0  0  0  0  0  0  0  0
    0.7500    1.2990    0.0000 C   0  0  0  0  0  0  0  0  0  0  0  0
   -0.7500    1.2990    0.0000 C   0  0  0  0  0  0  0  0  0  0  0  0
   -1.5000    0.0000    0.0000 C   0  0  0  0  0  0  0  0  0  0  0  0
   -0.7500   -1.2990    0.0000 C   0  0  0  0  0  0  0  0  0  0  0  0
    1.9099   -6.0906    0.0000 C   0  0  0  0  0  0  0  0  0  0  0  0
    2.7916   -7.3041    0.0000 C   0  0  0  0  0  0  0  0  0  0  0  0
  1  2  1  0
  2  3  1  0
  3  4  2  0
  4  5  1  0
  5  6  2  0
  6  7  1  0
  7  8  1  0
  8  9  1  0
  9 10  2  0
 10 11  1  0
 11 12  1  0
 12 13  2  0
 12 14  1  0
 14 15  2  0
 15 16  1  0
 16 17  1  0
 17 18  2  0
 17 19  1  0
 19 20  1  0
 20 21  1  0
 20 22  1  0
 15 23  1  0
 23 24  2  0
 24 25  1  0
 25 26  2  0
  6 27  1  0
 27 28  2  0
 28  3  1  0
 11  7  2  0
 26 14  1  0
 26 10  1  0
M  END
>  <Compound_ID>  (402) 
CHEMBL358102

>  <Active>  (402) 
1

>  <Smiles>  (402) 
COc1ccc(-c2[nH]nc3c2C(=O)c2c(NC(=O)NN(C)C)cccc2-3)cc1

>  <canonical_smi>  (402) 
COc1ccc(-c2[nH]nc3c2C(=O)c2c(NC(=O)NN(C)C)cccc2-3)cc1

>  <Set>  (402) 
G2 active

>  <Set_type>  (402) 
Test

>  <MW>  (402) 
377.4

>  <HBD>  (402) 
3

>  <HBA>  (402) 
5

>  <NRB>  (402) 
4

>  <NR>  (402) 
4

>  <NAR>  (402) 
4

>  <PSA>  (402) 
99.35

>  <Standard Type>  (402) 
nan

>  <Standard Relation>  (402) 
nan

>  <Standard Units>  (402) 
nan

>  <Standard Value>  (402) 
nan

>  <Assay ChEMBL ID>  (402) 
nan

>  <Assay Description>  (402) 
nan

>  <BAO Label>  (402) 
nan

$$$$

     RDKit          2D

 26 30  0  0  0  0  0  0  0  0999 V2000
   -4.6845  -11.4787    0.0000 C   0  0  0  0  0  0  0  0  0  0  0  0
   -6.1111  -11.0151    0.0000 C   0  0  0  0  0  0  0  0  0  0  0  0
   -6.4230   -9.5479    0.0000 N   0  0  0  0  0  0  0  0  0  0  0  0
   -5.3083   -8.5442    0.0000 N   0  0  0  0  0  0  0  0  0  0  0  0
   -5.3083   -7.0442    0.0000 N   0  0  0  0  0  0  0  0  0  0  0  0
   -3.8817   -6.5807    0.0000 C   0  0  0  0  0  0  0  0  0  0  0  0
   -3.0000   -7.7942    0.0000 C   0  0  0  0  0  0  0  0  0  0  0  0
   -1.5000   -7.7942    0.0000 C   0  0  0  0  0  0  0  0  0  0  0  0
   -0.7500   -9.0933    0.0000 C   0  0  0  0  0  0  0  0  0  0  0  0
    0.7500   -9.0933    0.0000 C   0  0  0  0  0  0  0  0  0  0  0  0
    1.5000   -7.7942    0.0000 N   0  0  0  0  0  0  0  0  0  0  0  0
    0.7500   -6.4952    0.0000 C   0  0  0  0  0  0  0  0  0  0  0  0
    1.5000   -5.1962    0.0000 N   0  0  0  0  0  0  0  0  0  0  0  0
    0.7500   -3.8971    0.0000 C   0  0  0  0  0  0  0  0  0  0  0  0
   -0.7500   -3.8971    0.0000 C   0  0  0  0  0  0  0  0  0  0  0  0
   -1.5000   -2.5981    0.0000 C   0  0  0  0  0  0  0  0  0  0  0  0
   -0.7500   -1.2990    0.0000 C   0  0  0  0  0  0  0  0  0  0  0  0
    0.7500   -1.2990    0.0000 C   0  0  0  0  0  0  0  0  0  0  0  0
    1.5000   -2.5981    0.0000 C   0  0  0  0  0  0  0  0  0  0  0  0
    1.5000    0.0000    0.0000 O   0  0  0  0  0  0  0  0  0  0  0  0
    0.7500    1.2990    0.0000 C   0  0  0  0  0  0  0  0  0  0  0  0
   -0.7500    1.2990    0.0000 C   0  0  0  0  0  0  0  0  0  0  0  0
   -1.5000    0.0000    0.0000 O   0  0  0  0  0  0  0  0  0  0  0  0
   -0.7500   -6.4952    0.0000 N   0  0  0  0  0  0  0  0  0  0  0  0
   -3.8817   -9.0078    0.0000 C   0  0  0  0  0  0  0  0  0  0  0  0
   -3.5698  -10.4750    0.0000 C   0  0  0  0  0  0  0  0  0  0  0  0
  1  2  1  0
  2  3  2  0
  3  4  1  0
  4  5  1  0
  5  6  2  0
  6  7  1  0
  7  8  1  0
  8  9  2  0
  9 10  1  0
 10 11  2  0
 11 12  1  0
 12 13  1  0
 13 14  1  0
 14 15  2  0
 15 16  1  0
 16 17  2  0
 17 18  1  0
 18 19  2  0
 18 20  1  0
 20 21  1  0
 21 22  1  0
 22 23  1  0
 12 24  2  0
  7 25  2  0
 25 26  1  0
 26  1  2  0
 25  4  1  0
 24  8  1  0
 19 14  1  0
 23 17  1  0
M  END
>  <Compound_ID>  (403) 
CHEMBL361894

>  <Active>  (403) 
1

>  <Smiles>  (403) 
c1cnn2ncc(-c3ccnc(Nc4ccc5c(c4)OCCO5)n3)c2c1

>  <canonical_smi>  (403) 
c1cnn2ncc(-c3ccnc(Nc4ccc5c(c4)OCCO5)n3)c2c1

>  <Set>  (403) 
G2 active

>  <Set_type>  (403) 
Test

>  <MW>  (403) 
346.35

>  <HBD>  (403) 
1

>  <HBA>  (403) 
7

>  <NRB>  (403) 
3

>  <NR>  (403) 
5

>  <NAR>  (403) 
4

>  <PSA>  (403) 
86.46

>  <Standard Type>  (403) 
nan

>  <Standard Relation>  (403) 
nan

>  <Standard Units>  (403) 
nan

>  <Standard Value>  (403) 
nan

>  <Assay ChEMBL ID>  (403) 
nan

>  <Assay Description>  (403) 
nan

>  <BAO Label>  (403) 
nan

$$$$

     RDKit          2D

 27 31  0  0  0  0  0  0  0  0999 V2000
   10.5025    0.9260    0.0000 C   0  0  0  0  0  0  0  0  0  0  0  0
   10.4800   -0.5738    0.0000 C   0  0  0  0  0  0  0  0  0  0  0  0
    9.1699   -1.3043    0.0000 N   0  0  0  0  0  0  0  0  0  0  0  0
    7.8822   -0.5350    0.0000 N   0  0  0  0  0  0  0  0  0  0  0  0
    6.4489   -0.9771    0.0000 N   0  0  0  0  0  0  0  0  0  0  0  0
    5.5854    0.2495    0.0000 C   0  0  0  0  0  0  0  0  0  0  0  0
    6.4852    1.4497    0.0000 C   0  0  0  0  0  0  0  0  0  0  0  0
    6.0430    2.8830    0.0000 C   0  0  0  0  0  0  0  0  0  0  0  0
    7.0633    3.9826    0.0000 C   0  0  0  0  0  0  0  0  0  0  0  0
    6.6212    5.4160    0.0000 C   0  0  0  0  0  0  0  0  0  0  0  0
    5.1588    5.7498    0.0000 N   0  0  0  0  0  0  0  0  0  0  0  0
    4.1385    4.6502    0.0000 C   0  0  0  0  0  0  0  0  0  0  0  0
    2.6761    4.9840    0.0000 N   0  0  0  0  0  0  0  0  0  0  0  0
    1.6559    3.8844    0.0000 C   0  0  0  0  0  0  0  0  0  0  0  0
    0.1935    4.2182    0.0000 C   0  0  0  0  0  0  0  0  0  0  0  0
   -0.8268    3.1186    0.0000 C   0  0  0  0  0  0  0  0  0  0  0  0
   -0.3846    1.6852    0.0000 C   0  0  0  0  0  0  0  0  0  0  0  0
    1.0777    1.3515    0.0000 C   0  0  0  0  0  0  0  0  0  0  0  0
    2.0980    2.4510    0.0000 C   0  0  0  0  0  0  0  0  0  0  0  0
    1.7286    0.0000    0.0000 O   0  0  0  0  0  0  0  0  0  0  0  0
    1.0777   -1.3515    0.0000 C   0  0  0  0  0  0  0  0  0  0  0  0
   -0.3846   -1.6852    0.0000 C   0  0  0  0  0  0  0  0  0  0  0  0
   -1.5574   -0.7500    0.0000 C   0  0  0  0  0  0  0  0  0  0  0  0
   -1.5574    0.7500    0.0000 O   0  0  0  0  0  0  0  0  0  0  0  0
    4.5807    3.2168    0.0000 N   0  0  0  0  0  0  0  0  0  0  0  0
    7.9047    0.9649    0.0000 C   0  0  0  0  0  0  0  0  0  0  0  0
    9.2148    1.6954    0.0000 C   0  0  0  0  0  0  0  0  0  0  0  0
  1  2  1  0
  2  3  2  0
  3  4  1  0
  4  5  1  0
  5  6  2  0
  6  7  1  0
  7  8  1  0
  8  9  2  0
  9 10  1  0
 10 11  2  0
 11 12  1  0
 12 13  1  0
 13 14  1  0
 14 15  2  0
 15 16  1  0
 16 17  2  0
 17 18  1  0
 18 19  2  0
 18 20  1  0
 20 21  1  0
 21 22  1  0
 22 23  1  0
 23 24  1  0
 12 25  2  0
  7 26  2  0
 26 27  1  0
 27  1  2  0
 26  4  1  0
 25  8  1  0
 19 14  1  0
 24 17  1  0
M  END
>  <Compound_ID>  (404) 
CHEMBL186708

>  <Active>  (404) 
1

>  <Smiles>  (404) 
c1cnn2ncc(-c3ccnc(Nc4ccc5c(c4)OCCCO5)n3)c2c1

>  <canonical_smi>  (404) 
c1cnn2ncc(-c3ccnc(Nc4ccc5c(c4)OCCCO5)n3)c2c1

>  <Set>  (404) 
G2 active

>  <Set_type>  (404) 
Test

>  <MW>  (404) 
360.38

>  <HBD>  (404) 
1

>  <HBA>  (404) 
7

>  <NRB>  (404) 
3

>  <NR>  (404) 
5

>  <NAR>  (404) 
4

>  <PSA>  (404) 
86.46

>  <Standard Type>  (404) 
nan

>  <Standard Relation>  (404) 
nan

>  <Standard Units>  (404) 
nan

>  <Standard Value>  (404) 
nan

>  <Assay ChEMBL ID>  (404) 
nan

>  <Assay Description>  (404) 
nan

>  <BAO Label>  (404) 
nan

$$$$

     RDKit          2D

 34 38  0  0  0  0  0  0  0  0999 V2000
   -8.5234   -7.7536    0.0000 C   0  0  0  0  0  0  0  0  0  0  0  0
   -7.0317   -7.5968    0.0000 O   0  0  0  0  0  0  0  0  0  0  0  0
   -6.4216   -6.2265    0.0000 C   0  0  0  0  0  0  0  0  0  0  0  0
   -7.3032   -5.0129    0.0000 C   0  0  0  0  0  0  0  0  0  0  0  0
   -6.6931   -3.6426    0.0000 C   0  0  0  0  0  0  0  0  0  0  0  0
   -5.2013   -3.4858    0.0000 C   0  0  0  0  0  0  0  0  0  0  0  0
   -4.5912   -2.1155    0.0000 C   0  0  0  0  0  0  0  0  0  0  0  0
   -5.3412   -0.8165    0.0000 N   0  0  0  0  0  0  0  0  0  0  0  0
   -4.3375    0.2982    0.0000 N   0  0  0  0  0  0  0  0  0  0  0  0
   -2.9672   -0.3119    0.0000 C   0  0  0  0  0  0  0  0  0  0  0  0
   -3.1240   -1.8037    0.0000 C   0  0  0  0  0  0  0  0  0  0  0  0
   -1.7537   -2.4138    0.0000 C   0  0  0  0  0  0  0  0  0  0  0  0
   -1.4418   -3.8810    0.0000 O   0  0  0  0  0  0  0  0  0  0  0  0
   -0.7500   -1.2990    0.0000 C   0  0  0  0  0  0  0  0  0  0  0  0
    0.7500   -1.2990    0.0000 C   0  0  0  0  0  0  0  0  0  0  0  0
    1.5000   -2.5981    0.0000 N   0  0  0  0  0  0  0  0  0  0  0  0
    3.0000   -2.5981    0.0000 C   0  0  0  0  0  0  0  0  0  0  0  0
    3.7500   -1.2990    0.0000 O   0  0  0  0  0  0  0  0  0  0  0  0
    3.7500   -3.8971    0.0000 C   0  0  0  0  0  0  0  0  0  0  0  0
    5.2500   -3.8971    0.0000 N   0  0  0  0  0  0  0  0  0  0  0  0
    6.0000   -5.1962    0.0000 C   0  0  0  0  0  0  0  0  0  0  0  0
    7.5000   -5.1962    0.0000 C   0  0  0  0  0  0  0  0  0  0  0  0
    8.2500   -3.8971    0.0000 N   0  0  0  0  0  0  0  0  0  0  0  0
    9.7500   -3.8971    0.0000 C   0  0  0  0  0  0  0  0  0  0  0  0
   10.5000   -2.5981    0.0000 N   0  0  0  0  0  0  0  0  0  0  0  0
   10.5000   -5.1962    0.0000 N   0  0  0  0  0  0  0  0  0  0  0  0
    7.5000   -2.5981    0.0000 C   0  0  0  0  0  0  0  0  0  0  0  0
    6.0000   -2.5981    0.0000 C   0  0  0  0  0  0  0  0  0  0  0  0
    1.5000    0.0000    0.0000 C   0  0  0  0  0  0  0  0  0  0  0  0
    0.7500    1.2990    0.0000 C   0  0  0  0  0  0  0  0  0  0  0  0
   -0.7500    1.2990    0.0000 C   0  0  0  0  0  0  0  0  0  0  0  0
   -1.5000    0.0000    0.0000 C   0  0  0  0  0  0  0  0  0  0  0  0
   -4.3197   -4.6994    0.0000 C   0  0  0  0  0  0  0  0  0  0  0  0
   -4.9298   -6.0697    0.0000 C   0  0  0  0  0  0  0  0  0  0  0  0
  1  2  1  0
  2  3  1  0
  3  4  2  0
  4  5  1  0
  5  6  2  0
  6  7  1  0
  7  8  1  0
  8  9  1  0
  9 10  2  0
 10 11  1  0
 11 12  1  0
 12 13  2  0
 12 14  1  0
 14 15  2  0
 15 16  1  0
 16 17  1  0
 17 18  2  0
 17 19  1  0
 19 20  1  0
 20 21  1  0
 21 22  1  0
 22 23  1  0
 23 24  1  0
 24 25  2  0
 24 26  1  0
 23 27  1  0
 27 28  1  0
 15 29  1  0
 29 30  2  0
 30 31  1  0
 31 32  2  0
  6 33  1  0
 33 34  2  0
 34  3  1  0
 11  7  2  0
 32 14  1  0
 32 10  1  0
 28 20  1  0
M  END
>  <Compound_ID>  (405) 
CHEMBL148580

>  <Active>  (405) 
1

>  <Smiles>  (405) 
COc1ccc(-c2[nH]nc3c2C(=O)c2c(NC(=O)CN4CCN(C(=N)N)CC4)cccc2-3)cc1

>  <canonical_smi>  (405) 
COc1ccc(-c2[nH]nc3c2C(=O)c2c(NC(=O)CN4CCN(C(=N)N)CC4)cccc2-3)cc1

>  <Set>  (405) 
G2 active

>  <Set_type>  (405) 
Test

>  <MW>  (405) 
459.51

>  <HBD>  (405) 
4

>  <HBA>  (405) 
7

>  <NRB>  (405) 
5

>  <NR>  (405) 
5

>  <NAR>  (405) 
4

>  <PSA>  (405) 
140.43

>  <Standard Type>  (405) 
nan

>  <Standard Relation>  (405) 
nan

>  <Standard Units>  (405) 
nan

>  <Standard Value>  (405) 
nan

>  <Assay ChEMBL ID>  (405) 
nan

>  <Assay Description>  (405) 
nan

>  <BAO Label>  (405) 
nan

$$$$

     RDKit          2D

 24 26  0  0  0  0  0  0  0  0999 V2000
   -3.2082  -13.0594    0.0000 C   0  0  0  0  0  0  0  0  0  0  0  0
   -1.9092  -13.8094    0.0000 C   0  0  0  0  0  0  0  0  0  0  0  0
   -0.6101  -14.5594    0.0000 C   0  0  0  0  0  0  0  0  0  0  0  0
   -2.6592  -15.1085    0.0000 C   0  0  0  0  0  0  0  0  0  0  0  0
   -1.1592  -12.5104    0.0000 C   0  0  0  0  0  0  0  0  0  0  0  0
    0.3326  -12.3536    0.0000 C   0  0  0  0  0  0  0  0  0  0  0  0
    0.6445  -10.8864    0.0000 N   0  0  0  0  0  0  0  0  0  0  0  0
   -0.6546  -10.1364    0.0000 C   0  0  0  0  0  0  0  0  0  0  0  0
   -0.8113   -8.6446    0.0000 C   0  0  0  0  0  0  0  0  0  0  0  0
    0.4022   -7.7629    0.0000 S   0  0  0  0  0  0  0  0  0  0  0  0
    0.2454   -6.2711    0.0000 C   0  0  0  0  0  0  0  0  0  0  0  0
   -1.0537   -5.5211    0.0000 C   0  0  0  0  0  0  0  0  0  0  0  0
   -0.7418   -4.0539    0.0000 N   0  0  0  0  0  0  0  0  0  0  0  0
    0.7500   -3.8971    0.0000 C   0  0  0  0  0  0  0  0  0  0  0  0
    1.5000   -2.5981    0.0000 N   0  0  0  0  0  0  0  0  0  0  0  0
    0.7500   -1.2990    0.0000 C   0  0  0  0  0  0  0  0  0  0  0  0
    1.5000    0.0000    0.0000 C   0  0  0  0  0  0  0  0  0  0  0  0
    0.7500    1.2990    0.0000 C   0  0  0  0  0  0  0  0  0  0  0  0
   -0.7500    1.2990    0.0000 C   0  0  0  0  0  0  0  0  0  0  0  0
   -1.5000    2.5981    0.0000 O   0  0  0  0  0  0  0  0  0  0  0  0
   -1.5000    0.0000    0.0000 C   0  0  0  0  0  0  0  0  0  0  0  0
   -0.7500   -1.2990    0.0000 C   0  0  0  0  0  0  0  0  0  0  0  0
    1.3601   -5.2674    0.0000 S   0  0  0  0  0  0  0  0  0  0  0  0
   -1.7693  -11.1401    0.0000 O   0  0  0  0  0  0  0  0  0  0  0  0
  1  2  1  0
  2  3  1  0
  2  4  1  0
  2  5  1  0
  5  6  2  0
  6  7  1  0
  7  8  2  0
  8  9  1  0
  9 10  1  0
 10 11  1  0
 11 12  2  0
 12 13  1  0
 13 14  2  0
 14 15  1  0
 15 16  1  0
 16 17  1  0
 17 18  1  0
 18 19  1  0
 19 20  1  0
 19 21  1  0
 21 22  1  0
 14 23  1  0
  8 24  1  0
 24  5  1  0
 23 11  1  0
 22 16  1  0
M  END
>  <Compound_ID>  (406) 
CHEMBL495557

>  <Active>  (406) 
1

>  <Smiles>  (406) 
CC(C)(C)c1cnc(CSc2cnc(NC3CCC(O)CC3)s2)o1

>  <canonical_smi>  (406) 
CC(C)(C)c1cnc(CSc2cnc(NC3CCC(O)CC3)s2)o1

>  <Set>  (406) 
G2 active

>  <Set_type>  (406) 
Test

>  <MW>  (406) 
367.54

>  <HBD>  (406) 
2

>  <HBA>  (406) 
6

>  <NRB>  (406) 
5

>  <NR>  (406) 
3

>  <NAR>  (406) 
2

>  <PSA>  (406) 
71.18

>  <Standard Type>  (406) 
nan

>  <Standard Relation>  (406) 
nan

>  <Standard Units>  (406) 
nan

>  <Standard Value>  (406) 
nan

>  <Assay ChEMBL ID>  (406) 
nan

>  <Assay Description>  (406) 
nan

>  <BAO Label>  (406) 
nan

$$$$

     RDKit          2D

 29 33  0  0  0  0  0  0  0  0999 V2000
   -2.5565   -7.4827    0.0000 N   0  0  0  0  0  0  0  0  0  0  0  0
   -1.4418   -6.4791    0.0000 C   0  0  0  0  0  0  0  0  0  0  0  0
   -0.0152   -6.9426    0.0000 O   0  0  0  0  0  0  0  0  0  0  0  0
   -1.7537   -5.0118    0.0000 C   0  0  0  0  0  0  0  0  0  0  0  0
   -3.1240   -4.4017    0.0000 N   0  0  0  0  0  0  0  0  0  0  0  0
   -2.9672   -2.9099    0.0000 N   0  0  0  0  0  0  0  0  0  0  0  0
   -4.0819   -1.9062    0.0000 C   0  0  0  0  0  0  0  0  0  0  0  0
   -3.7701   -0.4390    0.0000 C   0  0  0  0  0  0  0  0  0  0  0  0
   -4.8848    0.5647    0.0000 C   0  0  0  0  0  0  0  0  0  0  0  0
   -6.3114    0.1011    0.0000 C   0  0  0  0  0  0  0  0  0  0  0  0
   -6.6232   -1.3661    0.0000 C   0  0  0  0  0  0  0  0  0  0  0  0
   -5.5085   -2.3698    0.0000 C   0  0  0  0  0  0  0  0  0  0  0  0
   -1.5000   -2.5981    0.0000 C   0  0  0  0  0  0  0  0  0  0  0  0
   -0.7500   -3.8971    0.0000 C   0  0  0  0  0  0  0  0  0  0  0  0
    0.7500   -3.8971    0.0000 C   0  0  0  0  0  0  0  0  0  0  0  0
    1.5000   -2.5981    0.0000 C   0  0  0  0  0  0  0  0  0  0  0  0
    0.7500   -1.2990    0.0000 C   0  0  0  0  0  0  0  0  0  0  0  0
    1.5000    0.0000    0.0000 C   0  0  0  0  0  0  0  0  0  0  0  0
    0.7500    1.2990    0.0000 N   0  0  0  0  0  0  0  0  0  0  0  0
   -0.7500    1.2990    0.0000 C   0  0  0  0  0  0  0  0  0  0  0  0
   -1.5000    2.5981    0.0000 N   0  0  0  0  0  0  0  0  0  0  0  0
   -0.7500    3.8971    0.0000 C   0  0  0  0  0  0  0  0  0  0  0  0
    0.7500    3.8971    0.0000 C   0  0  0  0  0  0  0  0  0  0  0  0
    1.5000    5.1962    0.0000 C   0  0  0  0  0  0  0  0  0  0  0  0
    0.7500    6.4952    0.0000 C   0  0  0  0  0  0  0  0  0  0  0  0
   -0.7500    6.4952    0.0000 C   0  0  0  0  0  0  0  0  0  0  0  0
   -1.5000    5.1962    0.0000 C   0  0  0  0  0  0  0  0  0  0  0  0
   -1.5000    0.0000    0.0000 N   0  0  0  0  0  0  0  0  0  0  0  0
   -0.7500   -1.2990    0.0000 C   0  0  0  0  0  0  0  0  0  0  0  0
  1  2  1  0
  2  3  2  0
  2  4  1  0
  4  5  2  0
  5  6  1  0
  6  7  1  0
  7  8  1  0
  8  9  1  0
  9 10  1  0
 10 11  1  0
 11 12  1  0
  6 13  1  0
 13 14  2  0
 14 15  1  0
 15 16  1  0
 16 17  1  0
 17 18  2  0
 18 19  1  0
 19 20  2  0
 20 21  1  0
 21 22  1  0
 22 23  2  0
 23 24  1  0
 24 25  2  0
 25 26  1  0
 26 27  2  0
 20 28  1  0
 28 29  2  0
 14  4  1  0
 29 17  1  0
 12  7  1  0
 29 13  1  0
 27 22  1  0
M  END
>  <Compound_ID>  (407) 
CHEMBL1094402

>  <Active>  (407) 
1

>  <Smiles>  (407) 
NC(=O)c1nn(C2CCCCC2)c2c1CCc1cnc(Nc3ccccc3)nc1-2

>  <canonical_smi>  (407) 
NC(=O)c1nn(C2CCCCC2)c2c1CCc1cnc(Nc3ccccc3)nc1-2

>  <Set>  (407) 
G2 active

>  <Set_type>  (407) 
Test

>  <MW>  (407) 
388.48

>  <HBD>  (407) 
2

>  <HBA>  (407) 
5

>  <NRB>  (407) 
4

>  <NR>  (407) 
5

>  <NAR>  (407) 
3

>  <PSA>  (407) 
98.72

>  <Standard Type>  (407) 
nan

>  <Standard Relation>  (407) 
nan

>  <Standard Units>  (407) 
nan

>  <Standard Value>  (407) 
nan

>  <Assay ChEMBL ID>  (407) 
nan

>  <Assay Description>  (407) 
nan

>  <BAO Label>  (407) 
nan

$$$$

     RDKit          2D

 27 30  0  0  0  0  0  0  0  0999 V2000
   -5.6260  -10.9888    0.0000 C   0  0  0  0  0  0  0  0  0  0  0  0
   -5.3142   -9.5216    0.0000 C   0  0  0  0  0  0  0  0  0  0  0  0
   -6.4289   -8.5179    0.0000 C   0  0  0  0  0  0  0  0  0  0  0  0
   -6.1170   -7.0506    0.0000 C   0  0  0  0  0  0  0  0  0  0  0  0
   -4.6904   -6.5871    0.0000 C   0  0  0  0  0  0  0  0  0  0  0  0
   -4.3786   -5.1199    0.0000 C   0  0  0  0  0  0  0  0  0  0  0  0
   -2.9520   -4.6564    0.0000 C   0  0  0  0  0  0  0  0  0  0  0  0
   -1.8373   -5.6601    0.0000 O   0  0  0  0  0  0  0  0  0  0  0  0
   -2.6401   -3.1891    0.0000 N   0  0  0  0  0  0  0  0  0  0  0  0
   -1.2135   -2.7256    0.0000 C   0  0  0  0  0  0  0  0  0  0  0  0
   -0.0000   -3.6073    0.0000 N   0  0  0  0  0  0  0  0  0  0  0  0
    1.2135   -2.7256    0.0000 N   0  0  0  0  0  0  0  0  0  0  0  0
    0.7500   -1.2990    0.0000 C   0  0  0  0  0  0  0  0  0  0  0  0
    1.5000    0.0000    0.0000 C   0  0  0  0  0  0  0  0  0  0  0  0
    0.7500    1.2990    0.0000 C   0  0  0  0  0  0  0  0  0  0  0  0
   -0.7500    1.2990    0.0000 C   0  0  0  0  0  0  0  0  0  0  0  0
   -1.5000    2.5981    0.0000 N   0  0  0  0  0  0  0  0  0  0  0  0
   -2.9918    2.7549    0.0000 C   0  0  0  0  0  0  0  0  0  0  0  0
   -3.3037    4.2221    0.0000 C   0  0  0  0  0  0  0  0  0  0  0  0
   -2.0046    4.9721    0.0000 C   0  0  0  0  0  0  0  0  0  0  0  0
   -0.8899    3.9684    0.0000 S   0  0  0  0  0  0  0  0  0  0  0  0
   -0.0082    5.1819    0.0000 O   0  0  0  0  0  0  0  0  0  0  0  0
    0.4091    3.2184    0.0000 O   0  0  0  0  0  0  0  0  0  0  0  0
   -1.5000    0.0000    0.0000 C   0  0  0  0  0  0  0  0  0  0  0  0
   -0.7500   -1.2990    0.0000 C   0  0  0  0  0  0  0  0  0  0  0  0
   -3.5757   -7.5908    0.0000 C   0  0  0  0  0  0  0  0  0  0  0  0
   -3.8876   -9.0580    0.0000 C   0  0  0  0  0  0  0  0  0  0  0  0
  1  2  1  0
  2  3  2  0
  3  4  1  0
  4  5  2  0
  5  6  1  0
  6  7  1  0
  7  8  2  0
  7  9  1  0
  9 10  1  0
 10 11  2  0
 11 12  1  0
 12 13  1  0
 13 14  2  0
 14 15  1  0
 15 16  2  0
 16 17  1  0
 17 18  1  0
 18 19  1  0
 19 20  1  0
 20 21  1  0
 21 22  2  0
 21 23  2  0
 16 24  1  0
 24 25  2  0
  5 26  1  0
 26 27  2  0
 27  2  1  0
 25 10  1  0
 25 13  1  0
 21 17  1  0
M  END
>  <Compound_ID>  (408) 
CHEMBL256558

>  <Active>  (408) 
1

>  <Smiles>  (408) 
Cc1ccc(CC(=O)Nc2n[nH]c3ccc(N4CCCS4(=O)=O)cc23)cc1

>  <canonical_smi>  (408) 
Cc1ccc(CC(=O)Nc2n[nH]c3ccc(N4CCCS4(=O)=O)cc23)cc1

>  <Set>  (408) 
G2 active

>  <Set_type>  (408) 
Test

>  <MW>  (408) 
384.46

>  <HBD>  (408) 
2

>  <HBA>  (408) 
4

>  <NRB>  (408) 
4

>  <NR>  (408) 
4

>  <NAR>  (408) 
3

>  <PSA>  (408) 
95.16

>  <Standard Type>  (408) 
nan

>  <Standard Relation>  (408) 
nan

>  <Standard Units>  (408) 
nan

>  <Standard Value>  (408) 
nan

>  <Assay ChEMBL ID>  (408) 
nan

>  <Assay Description>  (408) 
nan

>  <BAO Label>  (408) 
nan

$$$$

     RDKit          2D

 34 38  0  0  0  0  0  0  0  0999 V2000
   -8.5234   -7.7536    0.0000 C   0  0  0  0  0  0  0  0  0  0  0  0
   -7.0317   -7.5968    0.0000 O   0  0  0  0  0  0  0  0  0  0  0  0
   -6.4216   -6.2265    0.0000 C   0  0  0  0  0  0  0  0  0  0  0  0
   -7.3032   -5.0129    0.0000 C   0  0  0  0  0  0  0  0  0  0  0  0
   -6.6931   -3.6426    0.0000 C   0  0  0  0  0  0  0  0  0  0  0  0
   -5.2013   -3.4858    0.0000 C   0  0  0  0  0  0  0  0  0  0  0  0
   -4.5912   -2.1155    0.0000 C   0  0  0  0  0  0  0  0  0  0  0  0
   -5.3412   -0.8165    0.0000 N   0  0  0  0  0  0  0  0  0  0  0  0
   -4.3375    0.2982    0.0000 N   0  0  0  0  0  0  0  0  0  0  0  0
   -2.9672   -0.3119    0.0000 C   0  0  0  0  0  0  0  0  0  0  0  0
   -3.1240   -1.8037    0.0000 C   0  0  0  0  0  0  0  0  0  0  0  0
   -1.7537   -2.4138    0.0000 C   0  0  0  0  0  0  0  0  0  0  0  0
   -1.4418   -3.8810    0.0000 O   0  0  0  0  0  0  0  0  0  0  0  0
   -0.7500   -1.2990    0.0000 C   0  0  0  0  0  0  0  0  0  0  0  0
    0.7500   -1.2990    0.0000 C   0  0  0  0  0  0  0  0  0  0  0  0
    1.5000   -2.5981    0.0000 N   0  0  0  0  0  0  0  0  0  0  0  0
    3.0000   -2.5981    0.0000 C   0  0  0  0  0  0  0  0  0  0  0  0
    3.7500   -1.2990    0.0000 O   0  0  0  0  0  0  0  0  0  0  0  0
    3.7500   -3.8971    0.0000 C   0  0  0  0  0  0  0  0  0  0  0  0
    5.2500   -3.8971    0.0000 N   0  0  0  0  0  0  0  0  0  0  0  0
    6.0000   -5.1962    0.0000 C   0  0  0  0  0  0  0  0  0  0  0  0
    7.5000   -5.1962    0.0000 C   0  0  0  0  0  0  0  0  0  0  0  0
    8.2500   -3.8971    0.0000 C   0  0  0  0  0  0  0  0  0  0  0  0
    9.7500   -3.8971    0.0000 C   0  0  0  0  0  0  0  0  0  0  0  0
   10.5000   -5.1962    0.0000 N   0  0  0  0  0  0  0  0  0  0  0  0
   10.5000   -2.5981    0.0000 O   0  0  0  0  0  0  0  0  0  0  0  0
    7.5000   -2.5981    0.0000 C   0  0  0  0  0  0  0  0  0  0  0  0
    6.0000   -2.5981    0.0000 C   0  0  0  0  0  0  0  0  0  0  0  0
    1.5000    0.0000    0.0000 C   0  0  0  0  0  0  0  0  0  0  0  0
    0.7500    1.2990    0.0000 C   0  0  0  0  0  0  0  0  0  0  0  0
   -0.7500    1.2990    0.0000 C   0  0  0  0  0  0  0  0  0  0  0  0
   -1.5000    0.0000    0.0000 C   0  0  0  0  0  0  0  0  0  0  0  0
   -4.3197   -4.6994    0.0000 C   0  0  0  0  0  0  0  0  0  0  0  0
   -4.9298   -6.0697    0.0000 C   0  0  0  0  0  0  0  0  0  0  0  0
  1  2  1  0
  2  3  1  0
  3  4  2  0
  4  5  1  0
  5  6  2  0
  6  7  1  0
  7  8  1  0
  8  9  1  0
  9 10  2  0
 10 11  1  0
 11 12  1  0
 12 13  2  0
 12 14  1  0
 14 15  2  0
 15 16  1  0
 16 17  1  0
 17 18  2  0
 17 19  1  0
 19 20  1  0
 20 21  1  0
 21 22  1  0
 22 23  1  0
 23 24  1  0
 24 25  1  0
 24 26  2  0
 23 27  1  0
 27 28  1  0
 15 29  1  0
 29 30  2  0
 30 31  1  0
 31 32  2  0
  6 33  1  0
 33 34  2  0
 34  3  1  0
 11  7  2  0
 32 14  1  0
 32 10  1  0
 28 20  1  0
M  END
>  <Compound_ID>  (409) 
CHEMBL346184

>  <Active>  (409) 
1

>  <Smiles>  (409) 
COc1ccc(-c2[nH]nc3c2C(=O)c2c(NC(=O)CN4CCC(C(N)=O)CC4)cccc2-3)cc1

>  <canonical_smi>  (409) 
COc1ccc(-c2[nH]nc3c2C(=O)c2c(NC(=O)CN4CCC(C(N)=O)CC4)cccc2-3)cc1

>  <Set>  (409) 
G2 active

>  <Set_type>  (409) 
Test

>  <MW>  (409) 
459.51

>  <HBD>  (409) 
3

>  <HBA>  (409) 
6

>  <NRB>  (409) 
6

>  <NR>  (409) 
5

>  <NAR>  (409) 
4

>  <PSA>  (409) 
130.41

>  <Standard Type>  (409) 
nan

>  <Standard Relation>  (409) 
nan

>  <Standard Units>  (409) 
nan

>  <Standard Value>  (409) 
nan

>  <Assay ChEMBL ID>  (409) 
nan

>  <Assay Description>  (409) 
nan

>  <BAO Label>  (409) 
nan

$$$$

     RDKit          2D

 35 39  0  0  0  0  0  0  0  0999 V2000
   -8.5234   -7.7536    0.0000 C   0  0  0  0  0  0  0  0  0  0  0  0
   -7.0317   -7.5968    0.0000 O   0  0  0  0  0  0  0  0  0  0  0  0
   -6.4216   -6.2265    0.0000 C   0  0  0  0  0  0  0  0  0  0  0  0
   -7.3032   -5.0129    0.0000 C   0  0  0  0  0  0  0  0  0  0  0  0
   -6.6931   -3.6426    0.0000 C   0  0  0  0  0  0  0  0  0  0  0  0
   -5.2013   -3.4858    0.0000 C   0  0  0  0  0  0  0  0  0  0  0  0
   -4.5912   -2.1155    0.0000 C   0  0  0  0  0  0  0  0  0  0  0  0
   -5.3412   -0.8165    0.0000 N   0  0  0  0  0  0  0  0  0  0  0  0
   -4.3375    0.2982    0.0000 N   0  0  0  0  0  0  0  0  0  0  0  0
   -2.9672   -0.3119    0.0000 C   0  0  0  0  0  0  0  0  0  0  0  0
   -3.1240   -1.8037    0.0000 C   0  0  0  0  0  0  0  0  0  0  0  0
   -1.7537   -2.4138    0.0000 C   0  0  0  0  0  0  0  0  0  0  0  0
   -1.4418   -3.8810    0.0000 O   0  0  0  0  0  0  0  0  0  0  0  0
   -0.7500   -1.2990    0.0000 C   0  0  0  0  0  0  0  0  0  0  0  0
    0.7500   -1.2990    0.0000 C   0  0  0  0  0  0  0  0  0  0  0  0
    1.5000   -2.5981    0.0000 N   0  0  0  0  0  0  0  0  0  0  0  0
    3.0000   -2.5981    0.0000 C   0  0  0  0  0  0  0  0  0  0  0  0
    3.7500   -1.2990    0.0000 O   0  0  0  0  0  0  0  0  0  0  0  0
    3.7500   -3.8971    0.0000 N   0  0  0  0  0  0  0  0  0  0  0  0
    5.2500   -3.8971    0.0000 N   0  0  0  0  0  0  0  0  0  0  0  0
    6.0000   -5.1962    0.0000 C   0  0  0  0  0  0  0  0  0  0  0  0
    5.2500   -6.4952    0.0000 O   0  0  0  0  0  0  0  0  0  0  0  0
    7.5000   -5.1962    0.0000 C   0  0  0  0  0  0  0  0  0  0  0  0
    8.2500   -6.4952    0.0000 C   0  0  0  0  0  0  0  0  0  0  0  0
    9.7500   -6.4952    0.0000 C   0  0  0  0  0  0  0  0  0  0  0  0
   10.5000   -5.1962    0.0000 C   0  0  0  0  0  0  0  0  0  0  0  0
    9.7500   -3.8971    0.0000 C   0  0  0  0  0  0  0  0  0  0  0  0
    8.2500   -3.8971    0.0000 C   0  0  0  0  0  0  0  0  0  0  0  0
    7.5000   -2.5981    0.0000 O   0  0  0  0  0  0  0  0  0  0  0  0
    1.5000    0.0000    0.0000 C   0  0  0  0  0  0  0  0  0  0  0  0
    0.7500    1.2990    0.0000 C   0  0  0  0  0  0  0  0  0  0  0  0
   -0.7500    1.2990    0.0000 C   0  0  0  0  0  0  0  0  0  0  0  0
   -1.5000    0.0000    0.0000 C   0  0  0  0  0  0  0  0  0  0  0  0
   -4.3197   -4.6994    0.0000 C   0  0  0  0  0  0  0  0  0  0  0  0
   -4.9298   -6.0697    0.0000 C   0  0  0  0  0  0  0  0  0  0  0  0
  1  2  1  0
  2  3  1  0
  3  4  2  0
  4  5  1  0
  5  6  2  0
  6  7  1  0
  7  8  1  0
  8  9  1  0
  9 10  2  0
 10 11  1  0
 11 12  1  0
 12 13  2  0
 12 14  1  0
 14 15  2  0
 15 16  1  0
 16 17  1  0
 17 18  2  0
 17 19  1  0
 19 20  1  0
 20 21  1  0
 21 22  2  0
 21 23  1  0
 23 24  2  0
 24 25  1  0
 25 26  2  0
 26 27  1  0
 27 28  2  0
 28 29  1  0
 15 30  1  0
 30 31  2  0
 31 32  1  0
 32 33  2  0
  6 34  1  0
 34 35  2  0
 35  3  1  0
 11  7  2  0
 33 14  1  0
 33 10  1  0
 28 23  1  0
M  END
>  <Compound_ID>  (410) 
CHEMBL185255

>  <Active>  (410) 
1

>  <Smiles>  (410) 
COc1ccc(-c2[nH]nc3c2C(=O)c2c(NC(=O)NNC(=O)c4ccccc4O)cccc2-3)cc1

>  <canonical_smi>  (410) 
COc1ccc(-c2[nH]nc3c2C(=O)c2c(NC(=O)NNC(=O)c4ccccc4O)cccc2-3)cc1

>  <Set>  (410) 
G2 active

>  <Set_type>  (410) 
Test

>  <MW>  (410) 
469.46

>  <HBD>  (410) 
5

>  <HBA>  (410) 
6

>  <NRB>  (410) 
4

>  <NR>  (410) 
5

>  <NAR>  (410) 
5

>  <PSA>  (410) 
145.44

>  <Standard Type>  (410) 
nan

>  <Standard Relation>  (410) 
nan

>  <Standard Units>  (410) 
nan

>  <Standard Value>  (410) 
nan

>  <Assay ChEMBL ID>  (410) 
nan

>  <Assay Description>  (410) 
nan

>  <BAO Label>  (410) 
nan

$$$$

     RDKit          2D

 32 35  0  0  0  0  0  0  0  0999 V2000
   -2.9520   -4.6564    0.0000 C   0  0  0  0  0  0  0  0  0  0  0  0
   -2.6401   -3.1891    0.0000 C   0  0  0  0  0  0  0  0  0  0  0  0
   -1.2135   -2.7256    0.0000 C   0  0  0  0  0  0  0  0  0  0  0  0
   -0.0000   -3.6073    0.0000 N   0  0  0  0  0  0  0  0  0  0  0  0
    1.2135   -2.7256    0.0000 N   0  0  0  0  0  0  0  0  0  0  0  0
    2.6401   -3.1891    0.0000 C   0  0  0  0  0  0  0  0  0  0  0  0
    2.9520   -4.6564    0.0000 C   0  0  0  0  0  0  0  0  0  0  0  0
    1.8373   -5.6601    0.0000 Cl  0  0  0  0  0  0  0  0  0  0  0  0
    4.3786   -5.1199    0.0000 C   0  0  0  0  0  0  0  0  0  0  0  0
    5.4933   -4.1162    0.0000 C   0  0  0  0  0  0  0  0  0  0  0  0
    6.9199   -4.5797    0.0000 Cl  0  0  0  0  0  0  0  0  0  0  0  0
    5.1814   -2.6490    0.0000 C   0  0  0  0  0  0  0  0  0  0  0  0
    3.7548   -2.1855    0.0000 C   0  0  0  0  0  0  0  0  0  0  0  0
    3.4430   -0.7182    0.0000 Cl  0  0  0  0  0  0  0  0  0  0  0  0
    0.7500   -1.2990    0.0000 C   0  0  0  0  0  0  0  0  0  0  0  0
    1.5000    0.0000    0.0000 N   0  0  0  0  0  0  0  0  0  0  0  0
    0.7500    1.2990    0.0000 C   0  0  0  0  0  0  0  0  0  0  0  0
    1.5000    2.5981    0.0000 C   0  0  0  0  0  0  0  0  0  0  0  0
    3.0000    2.5981    0.0000 C   0  0  0  0  0  0  0  0  0  0  0  0
    3.7500    1.2990    0.0000 C   0  0  0  0  0  0  0  0  0  0  0  0
    5.2500    1.2990    0.0000 C   0  0  0  0  0  0  0  0  0  0  0  0
    6.0000    2.5981    0.0000 C   0  0  0  0  0  0  0  0  0  0  0  0
    7.5000    2.5981    0.0000 N   0  0  0  0  0  0  0  0  0  0  0  0
    8.2500    1.2990    0.0000 C   0  0  0  0  0  0  0  0  0  0  0  0
    9.7500    1.2990    0.0000 C   0  0  0  0  0  0  0  0  0  0  0  0
    7.5000   -0.0000    0.0000 O   0  0  0  0  0  0  0  0  0  0  0  0
    5.2500    3.8971    0.0000 C   0  0  0  0  0  0  0  0  0  0  0  0
    3.7500    3.8971    0.0000 C   0  0  0  0  0  0  0  0  0  0  0  0
   -0.7500    1.2990    0.0000 N   0  0  0  0  0  0  0  0  0  0  0  0
   -1.5000    0.0000    0.0000 C   0  0  0  0  0  0  0  0  0  0  0  0
   -3.0000    0.0000    0.0000 O   0  0  0  0  0  0  0  0  0  0  0  0
   -0.7500   -1.2990    0.0000 C   0  0  0  0  0  0  0  0  0  0  0  0
  1  2  1  0
  2  3  1  0
  3  4  2  0
  4  5  1  0
  5  6  1  0
  6  7  2  0
  7  8  1  0
  7  9  1  0
  9 10  2  0
 10 11  1  0
 10 12  1  0
 12 13  2  0
 13 14  1  0
  5 15  1  0
 15 16  2  0
 16 17  1  0
 17 18  1  0
 18 19  1  0
 19 20  2  0
 20 21  1  0
 21 22  2  0
 22 23  1  0
 23 24  1  0
 24 25  1  0
 24 26  2  0
 22 27  1  0
 27 28  2  0
 17 29  2  0
 29 30  1  0
 30 31  1  0
 30 32  2  0
 32  3  1  0
 13  6  1  0
 32 15  1  0
 28 19  1  0
M  END
>  <Compound_ID>  (411) 
CHEMBL188587

>  <Active>  (411) 
1

>  <Smiles>  (411) 
CCc1nn(-c2c(Cl)cc(Cl)cc2Cl)c2nc(Cc3ccc(NC(C)=O)cc3)nc(O)c12

>  <canonical_smi>  (411) 
CCc1nn(-c2c(Cl)cc(Cl)cc2Cl)c2nc(Cc3ccc(NC(C)=O)cc3)nc(O)c12

>  <Set>  (411) 
G2 active

>  <Set_type>  (411) 
Test

>  <MW>  (411) 
490.78

>  <HBD>  (411) 
2

>  <HBA>  (411) 
5

>  <NRB>  (411) 
5

>  <NR>  (411) 
4

>  <NAR>  (411) 
4

>  <PSA>  (411) 
92.93

>  <Standard Type>  (411) 
nan

>  <Standard Relation>  (411) 
nan

>  <Standard Units>  (411) 
nan

>  <Standard Value>  (411) 
nan

>  <Assay ChEMBL ID>  (411) 
nan

>  <Assay Description>  (411) 
nan

>  <BAO Label>  (411) 
nan

$$$$

     RDKit          2D

 27 31  0  0  0  0  0  0  0  0999 V2000
   -0.0000   -5.1073    0.0000 O   0  0  0  0  0  0  0  0  0  0  0  0
   -0.0000   -3.6073    0.0000 C   0  0  0  0  0  0  0  0  0  0  0  0
    1.2135   -2.7256    0.0000 N   0  0  0  0  0  0  0  0  0  0  0  0
    0.7500   -1.2990    0.0000 C   0  0  0  0  0  0  0  0  0  0  0  0
    1.5000    0.0000    0.0000 C   0  0  0  0  0  0  0  0  0  0  0  0
    0.7500    1.2990    0.0000 C   0  0  0  0  0  0  0  0  0  0  0  0
   -0.7500    1.2990    0.0000 C   0  0  0  0  0  0  0  0  0  0  0  0
   -1.5000    0.0000    0.0000 C   0  0  0  0  0  0  0  0  0  0  0  0
   -3.0000    0.0000    0.0000 C   0  0  0  0  0  0  0  0  0  0  0  0
   -3.7500    1.2990    0.0000 C   0  0  0  0  0  0  0  0  0  0  0  0
   -5.2500    1.2990    0.0000 C   0  0  0  0  0  0  0  0  0  0  0  0
   -6.0000    0.0000    0.0000 N   0  0  0  0  0  0  0  0  0  0  0  0
   -5.2500   -1.2990    0.0000 C   0  0  0  0  0  0  0  0  0  0  0  0
   -3.7500   -1.2990    0.0000 C   0  0  0  0  0  0  0  0  0  0  0  0
   -0.7500   -1.2990    0.0000 C   0  0  0  0  0  0  0  0  0  0  0  0
   -1.2135   -2.7256    0.0000 C   0  0  0  0  0  0  0  0  0  0  0  0
   -2.6401   -3.1891    0.0000 C   0  0  0  0  0  0  0  0  0  0  0  0
   -2.9520   -4.6564    0.0000 C   0  0  0  0  0  0  0  0  0  0  0  0
   -1.9483   -5.7711    0.0000 N   0  0  0  0  0  0  0  0  0  0  0  0
   -2.6983   -7.0701    0.0000 C   0  0  0  0  0  0  0  0  0  0  0  0
   -4.1655   -6.7583    0.0000 C   0  0  0  0  0  0  0  0  0  0  0  0
   -4.3223   -5.2665    0.0000 C   0  0  0  0  0  0  0  0  0  0  0  0
   -5.6926   -4.6564    0.0000 C   0  0  0  0  0  0  0  0  0  0  0  0
   -6.9061   -5.5380    0.0000 C   0  0  0  0  0  0  0  0  0  0  0  0
   -6.7493   -7.0298    0.0000 O   0  0  0  0  0  0  0  0  0  0  0  0
   -5.3790   -7.6399    0.0000 C   0  0  0  0  0  0  0  0  0  0  0  0
   -5.2222   -9.1317    0.0000 O   0  0  0  0  0  0  0  0  0  0  0  0
  1  2  2  0
  2  3  1  0
  3  4  1  0
  4  5  2  0
  5  6  1  0
  6  7  2  0
  7  8  1  0
  8  9  1  0
  9 10  1  0
 10 11  1  0
 11 12  1  0
 12 13  1  0
 13 14  1  0
  8 15  2  0
 15 16  1  0
 16 17  2  0
 17 18  1  0
 18 19  1  0
 19 20  1  0
 20 21  2  0
 21 22  1  0
 22 23  1  0
 23 24  1  0
 24 25  1  0
 25 26  1  0
 26 27  2  0
 16  2  1  0
 22 18  2  0
 15  4  1  0
 26 21  1  0
 14  9  1  0
M  END
>  <Compound_ID>  (412) 
CHEMBL58224

>  <Active>  (412) 
1

>  <Smiles>  (412) 
O=C1Nc2cccc(C3CCNCC3)c2/C1=C/c1[nH]cc2c1CCOC2=O

>  <canonical_smi>  (412) 
O=C1Nc2cccc(C3CCNCC3)c2/C1=C/c1[nH]cc2c1CCOC2=O

>  <Set>  (412) 
G2 active

>  <Set_type>  (412) 
Test

>  <MW>  (412) 
363.42

>  <HBD>  (412) 
3

>  <HBA>  (412) 
4

>  <NRB>  (412) 
2

>  <NR>  (412) 
5

>  <NAR>  (412) 
2

>  <PSA>  (412) 
83.22

>  <Standard Type>  (412) 
nan

>  <Standard Relation>  (412) 
nan

>  <Standard Units>  (412) 
nan

>  <Standard Value>  (412) 
nan

>  <Assay ChEMBL ID>  (412) 
nan

>  <Assay Description>  (412) 
nan

>  <BAO Label>  (412) 
nan

$$$$

     RDKit          2D

 30 34  0  0  0  0  0  0  0  0999 V2000
   -3.7500   -3.8971    0.0000 O   0  0  0  0  0  0  0  0  0  0  0  0
   -3.0000   -5.1962    0.0000 C   0  0  0  0  0  0  0  0  0  0  0  0
   -1.5000   -5.1962    0.0000 C   0  0  0  0  0  0  0  0  0  0  0  0
   -0.7500   -3.8971    0.0000 C   0  0  0  0  0  0  0  0  0  0  0  0
    0.7500   -3.8971    0.0000 C   0  0  0  0  0  0  0  0  0  0  0  0
    1.5000   -2.5981    0.0000 C   0  0  0  0  0  0  0  0  0  0  0  0
    0.7500   -1.2990    0.0000 C   0  0  0  0  0  0  0  0  0  0  0  0
    1.5000    0.0000    0.0000 C   0  0  0  0  0  0  0  0  0  0  0  0
    0.7500    1.2990    0.0000 C   0  0  0  0  0  0  0  0  0  0  0  0
   -0.7500    1.2990    0.0000 C   0  0  0  0  0  0  0  0  0  0  0  0
   -1.5000    0.0000    0.0000 C   0  0  0  0  0  0  0  0  0  0  0  0
   -0.7500   -1.2990    0.0000 C   0  0  0  0  0  0  0  0  0  0  0  0
   -1.5000   -2.5981    0.0000 C   0  0  0  0  0  0  0  0  0  0  0  0
   -3.7500   -6.4952    0.0000 N   0  0  0  0  0  0  0  0  0  0  0  0
   -5.2500   -6.4952    0.0000 C   0  0  0  0  0  0  0  0  0  0  0  0
   -6.1317   -5.2817    0.0000 N   0  0  0  0  0  0  0  0  0  0  0  0
   -7.5583   -5.7452    0.0000 N   0  0  0  0  0  0  0  0  0  0  0  0
   -7.5583   -7.2452    0.0000 C   0  0  0  0  0  0  0  0  0  0  0  0
   -8.6730   -8.2489    0.0000 C   0  0  0  0  0  0  0  0  0  0  0  0
   -8.3611   -9.7161    0.0000 C   0  0  0  0  0  0  0  0  0  0  0  0
   -6.9345  -10.1796    0.0000 C   0  0  0  0  0  0  0  0  0  0  0  0
   -6.6227  -11.6469    0.0000 N   0  0  0  0  0  0  0  0  0  0  0  0
   -5.2523  -12.2570    0.0000 C   0  0  0  0  0  0  0  0  0  0  0  0
   -5.4091  -13.7487    0.0000 C   0  0  0  0  0  0  0  0  0  0  0  0
   -6.8764  -14.0606    0.0000 C   0  0  0  0  0  0  0  0  0  0  0  0
   -7.6264  -12.7616    0.0000 S   0  0  0  0  0  0  0  0  0  0  0  0
   -8.8399  -13.6432    0.0000 O   0  0  0  0  0  0  0  0  0  0  0  0
   -8.6301  -11.6469    0.0000 O   0  0  0  0  0  0  0  0  0  0  0  0
   -5.8198   -9.1759    0.0000 C   0  0  0  0  0  0  0  0  0  0  0  0
   -6.1317   -7.7087    0.0000 C   0  0  0  0  0  0  0  0  0  0  0  0
  1  2  2  0
  2  3  1  0
  3  4  1  0
  4  5  2  0
  5  6  1  0
  6  7  2  0
  7  8  1  0
  8  9  2  0
  9 10  1  0
 10 11  2  0
 11 12  1  0
 12 13  2  0
  2 14  1  0
 14 15  1  0
 15 16  2  0
 16 17  1  0
 17 18  1  0
 18 19  2  0
 19 20  1  0
 20 21  2  0
 21 22  1  0
 22 23  1  0
 23 24  1  0
 24 25  1  0
 25 26  1  0
 26 27  2  0
 26 28  2  0
 21 29  1  0
 29 30  2  0
 13  4  1  0
 30 15  1  0
 12  7  1  0
 30 18  1  0
 26 22  1  0
M  END
>  <Compound_ID>  (413) 
CHEMBL254979

>  <Active>  (413) 
1

>  <Smiles>  (413) 
O=C(Cc1ccc2ccccc2c1)Nc1n[nH]c2ccc(N3CCCS3(=O)=O)cc12

>  <canonical_smi>  (413) 
O=C(Cc1ccc2ccccc2c1)Nc1n[nH]c2ccc(N3CCCS3(=O)=O)cc12

>  <Set>  (413) 
G2 active

>  <Set_type>  (413) 
Test

>  <MW>  (413) 
420.49

>  <HBD>  (413) 
2

>  <HBA>  (413) 
4

>  <NRB>  (413) 
4

>  <NR>  (413) 
5

>  <NAR>  (413) 
4

>  <PSA>  (413) 
95.16

>  <Standard Type>  (413) 
nan

>  <Standard Relation>  (413) 
nan

>  <Standard Units>  (413) 
nan

>  <Standard Value>  (413) 
nan

>  <Assay ChEMBL ID>  (413) 
nan

>  <Assay Description>  (413) 
nan

>  <BAO Label>  (413) 
nan

$$$$

     RDKit          2D

 36 40  0  0  0  0  0  0  0  0999 V2000
   12.7500   -6.4952    0.0000 C   0  0  0  0  0  0  0  0  0  0  0  0
   12.0000   -5.1962    0.0000 O   0  0  0  0  0  0  0  0  0  0  0  0
   10.5000   -5.1962    0.0000 C   0  0  0  0  0  0  0  0  0  0  0  0
    9.7500   -6.4952    0.0000 C   0  0  0  0  0  0  0  0  0  0  0  0
    8.2500   -6.4952    0.0000 C   0  0  0  0  0  0  0  0  0  0  0  0
    7.5000   -5.1962    0.0000 C   0  0  0  0  0  0  0  0  0  0  0  0
    6.0000   -5.1962    0.0000 C   0  0  0  0  0  0  0  0  0  0  0  0
    5.2500   -6.4952    0.0000 O   0  0  0  0  0  0  0  0  0  0  0  0
    5.2500   -3.8971    0.0000 N   0  0  0  0  0  0  0  0  0  0  0  0
    3.7500   -3.8971    0.0000 N   0  0  0  0  0  0  0  0  0  0  0  0
    3.0000   -2.5981    0.0000 C   0  0  0  0  0  0  0  0  0  0  0  0
    3.7500   -1.2990    0.0000 O   0  0  0  0  0  0  0  0  0  0  0  0
    1.5000   -2.5981    0.0000 N   0  0  0  0  0  0  0  0  0  0  0  0
    0.7500   -1.2990    0.0000 C   0  0  0  0  0  0  0  0  0  0  0  0
    1.5000    0.0000    0.0000 C   0  0  0  0  0  0  0  0  0  0  0  0
    0.7500    1.2990    0.0000 C   0  0  0  0  0  0  0  0  0  0  0  0
   -0.7500    1.2990    0.0000 C   0  0  0  0  0  0  0  0  0  0  0  0
   -1.5000    0.0000    0.0000 C   0  0  0  0  0  0  0  0  0  0  0  0
   -0.7500   -1.2990    0.0000 C   0  0  0  0  0  0  0  0  0  0  0  0
   -1.7537   -2.4138    0.0000 C   0  0  0  0  0  0  0  0  0  0  0  0
   -1.4418   -3.8810    0.0000 O   0  0  0  0  0  0  0  0  0  0  0  0
   -3.1240   -1.8037    0.0000 C   0  0  0  0  0  0  0  0  0  0  0  0
   -4.5912   -2.1155    0.0000 C   0  0  0  0  0  0  0  0  0  0  0  0
   -5.2013   -3.4858    0.0000 C   0  0  0  0  0  0  0  0  0  0  0  0
   -6.6931   -3.6426    0.0000 C   0  0  0  0  0  0  0  0  0  0  0  0
   -7.3032   -5.0129    0.0000 C   0  0  0  0  0  0  0  0  0  0  0  0
   -6.4216   -6.2265    0.0000 C   0  0  0  0  0  0  0  0  0  0  0  0
   -7.0317   -7.5968    0.0000 O   0  0  0  0  0  0  0  0  0  0  0  0
   -8.5234   -7.7536    0.0000 C   0  0  0  0  0  0  0  0  0  0  0  0
   -4.9298   -6.0697    0.0000 C   0  0  0  0  0  0  0  0  0  0  0  0
   -4.3197   -4.6994    0.0000 C   0  0  0  0  0  0  0  0  0  0  0  0
   -5.3412   -0.8165    0.0000 N   0  0  0  0  0  0  0  0  0  0  0  0
   -4.3375    0.2982    0.0000 N   0  0  0  0  0  0  0  0  0  0  0  0
   -2.9672   -0.3119    0.0000 C   0  0  0  0  0  0  0  0  0  0  0  0
    8.2500   -3.8971    0.0000 C   0  0  0  0  0  0  0  0  0  0  0  0
    9.7500   -3.8971    0.0000 C   0  0  0  0  0  0  0  0  0  0  0  0
  1  2  1  0
  2  3  1  0
  3  4  2  0
  4  5  1  0
  5  6  2  0
  6  7  1  0
  7  8  2  0
  7  9  1  0
  9 10  1  0
 10 11  1  0
 11 12  2  0
 11 13  1  0
 13 14  1  0
 14 15  2  0
 15 16  1  0
 16 17  2  0
 17 18  1  0
 18 19  2  0
 19 20  1  0
 20 21  2  0
 20 22  1  0
 22 23  1  0
 23 24  1  0
 24 25  2  0
 25 26  1  0
 26 27  2  0
 27 28  1  0
 28 29  1  0
 27 30  1  0
 30 31  2  0
 23 32  2  0
 32 33  1  0
 33 34  1  0
  6 35  1  0
 35 36  2  0
 36  3  1  0
 19 14  1  0
 34 22  2  0
 34 18  1  0
 31 24  1  0
M  END
>  <Compound_ID>  (414) 
CHEMBL186661

>  <Active>  (414) 
1

>  <Smiles>  (414) 
COc1ccc(C(=O)NNC(=O)Nc2cccc3c2C(=O)c2c(-c4ccc(OC)cc4)n[nH]c2-3)cc1

>  <canonical_smi>  (414) 
COc1ccc(C(=O)NNC(=O)Nc2cccc3c2C(=O)c2c(-c4ccc(OC)cc4)n[nH]c2-3)cc1

>  <Set>  (414) 
G2 active

>  <Set_type>  (414) 
Test

>  <MW>  (414) 
483.48

>  <HBD>  (414) 
4

>  <HBA>  (414) 
6

>  <NRB>  (414) 
5

>  <NR>  (414) 
5

>  <NAR>  (414) 
5

>  <PSA>  (414) 
134.44

>  <Standard Type>  (414) 
nan

>  <Standard Relation>  (414) 
nan

>  <Standard Units>  (414) 
nan

>  <Standard Value>  (414) 
nan

>  <Assay ChEMBL ID>  (414) 
nan

>  <Assay Description>  (414) 
nan

>  <BAO Label>  (414) 
nan

$$$$

     RDKit          2D

 34 38  0  0  0  0  0  0  0  0999 V2000
   -8.5234   -7.7536    0.0000 C   0  0  0  0  0  0  0  0  0  0  0  0
   -7.0317   -7.5968    0.0000 O   0  0  0  0  0  0  0  0  0  0  0  0
   -6.4216   -6.2265    0.0000 C   0  0  0  0  0  0  0  0  0  0  0  0
   -7.3032   -5.0129    0.0000 C   0  0  0  0  0  0  0  0  0  0  0  0
   -6.6931   -3.6426    0.0000 C   0  0  0  0  0  0  0  0  0  0  0  0
   -5.2013   -3.4858    0.0000 C   0  0  0  0  0  0  0  0  0  0  0  0
   -4.5912   -2.1155    0.0000 C   0  0  0  0  0  0  0  0  0  0  0  0
   -5.3412   -0.8165    0.0000 N   0  0  0  0  0  0  0  0  0  0  0  0
   -4.3375    0.2982    0.0000 N   0  0  0  0  0  0  0  0  0  0  0  0
   -2.9672   -0.3119    0.0000 C   0  0  0  0  0  0  0  0  0  0  0  0
   -3.1240   -1.8037    0.0000 C   0  0  0  0  0  0  0  0  0  0  0  0
   -1.7537   -2.4138    0.0000 C   0  0  0  0  0  0  0  0  0  0  0  0
   -1.4418   -3.8810    0.0000 O   0  0  0  0  0  0  0  0  0  0  0  0
   -0.7500   -1.2990    0.0000 C   0  0  0  0  0  0  0  0  0  0  0  0
    0.7500   -1.2990    0.0000 C   0  0  0  0  0  0  0  0  0  0  0  0
    1.5000   -2.5981    0.0000 N   0  0  0  0  0  0  0  0  0  0  0  0
    3.0000   -2.5981    0.0000 C   0  0  0  0  0  0  0  0  0  0  0  0
    3.7500   -1.2990    0.0000 O   0  0  0  0  0  0  0  0  0  0  0  0
    3.7500   -3.8971    0.0000 N   0  0  0  0  0  0  0  0  0  0  0  0
    5.2500   -3.8971    0.0000 N   0  0  0  0  0  0  0  0  0  0  0  0
    6.0000   -5.1962    0.0000 C   0  0  0  0  0  0  0  0  0  0  0  0
    5.2500   -6.4952    0.0000 O   0  0  0  0  0  0  0  0  0  0  0  0
    7.5000   -5.1962    0.0000 C   0  0  0  0  0  0  0  0  0  0  0  0
    8.2500   -6.4952    0.0000 C   0  0  0  0  0  0  0  0  0  0  0  0
    9.7500   -6.4952    0.0000 C   0  0  0  0  0  0  0  0  0  0  0  0
   10.5000   -5.1962    0.0000 N   0  0  0  0  0  0  0  0  0  0  0  0
    9.7500   -3.8971    0.0000 C   0  0  0  0  0  0  0  0  0  0  0  0
    8.2500   -3.8971    0.0000 C   0  0  0  0  0  0  0  0  0  0  0  0
    1.5000    0.0000    0.0000 C   0  0  0  0  0  0  0  0  0  0  0  0
    0.7500    1.2990    0.0000 C   0  0  0  0  0  0  0  0  0  0  0  0
   -0.7500    1.2990    0.0000 C   0  0  0  0  0  0  0  0  0  0  0  0
   -1.5000    0.0000    0.0000 C   0  0  0  0  0  0  0  0  0  0  0  0
   -4.3197   -4.6994    0.0000 C   0  0  0  0  0  0  0  0  0  0  0  0
   -4.9298   -6.0697    0.0000 C   0  0  0  0  0  0  0  0  0  0  0  0
  1  2  1  0
  2  3  1  0
  3  4  2  0
  4  5  1  0
  5  6  2  0
  6  7  1  0
  7  8  1  0
  8  9  1  0
  9 10  2  0
 10 11  1  0
 11 12  1  0
 12 13  2  0
 12 14  1  0
 14 15  2  0
 15 16  1  0
 16 17  1  0
 17 18  2  0
 17 19  1  0
 19 20  1  0
 20 21  1  0
 21 22  2  0
 21 23  1  0
 23 24  2  0
 24 25  1  0
 25 26  2  0
 26 27  1  0
 27 28  2  0
 15 29  1  0
 29 30  2  0
 30 31  1  0
 31 32  2  0
  6 33  1  0
 33 34  2  0
 34  3  1  0
 11  7  2  0
 32 14  1  0
 32 10  1  0
 28 23  1  0
M  END
>  <Compound_ID>  (415) 
CHEMBL188010

>  <Active>  (415) 
1

>  <Smiles>  (415) 
COc1ccc(-c2[nH]nc3c2C(=O)c2c(NC(=O)NNC(=O)c4ccncc4)cccc2-3)cc1

>  <canonical_smi>  (415) 
COc1ccc(-c2[nH]nc3c2C(=O)c2c(NC(=O)NNC(=O)c4ccncc4)cccc2-3)cc1

>  <Set>  (415) 
G2 active

>  <Set_type>  (415) 
Test

>  <MW>  (415) 
454.45

>  <HBD>  (415) 
4

>  <HBA>  (415) 
6

>  <NRB>  (415) 
4

>  <NR>  (415) 
5

>  <NAR>  (415) 
5

>  <PSA>  (415) 
138.1

>  <Standard Type>  (415) 
nan

>  <Standard Relation>  (415) 
nan

>  <Standard Units>  (415) 
nan

>  <Standard Value>  (415) 
nan

>  <Assay ChEMBL ID>  (415) 
nan

>  <Assay Description>  (415) 
nan

>  <BAO Label>  (415) 
nan

$$$$

     RDKit          2D

 28 31  0  0  0  0  0  0  0  0999 V2000
   -2.9520   -4.6564    0.0000 C   0  0  0  0  0  0  0  0  0  0  0  0
   -2.6401   -3.1891    0.0000 C   0  0  0  0  0  0  0  0  0  0  0  0
   -1.2135   -2.7256    0.0000 C   0  0  0  0  0  0  0  0  0  0  0  0
   -0.0000   -3.6073    0.0000 N   0  0  0  0  0  0  0  0  0  0  0  0
    1.2135   -2.7256    0.0000 N   0  0  0  0  0  0  0  0  0  0  0  0
    2.6401   -3.1891    0.0000 C   0  0  0  0  0  0  0  0  0  0  0  0
    2.9520   -4.6564    0.0000 C   0  0  0  0  0  0  0  0  0  0  0  0
    1.8373   -5.6601    0.0000 Cl  0  0  0  0  0  0  0  0  0  0  0  0
    4.3786   -5.1199    0.0000 C   0  0  0  0  0  0  0  0  0  0  0  0
    5.4933   -4.1162    0.0000 C   0  0  0  0  0  0  0  0  0  0  0  0
    6.9199   -4.5797    0.0000 Cl  0  0  0  0  0  0  0  0  0  0  0  0
    5.1814   -2.6490    0.0000 C   0  0  0  0  0  0  0  0  0  0  0  0
    3.7548   -2.1855    0.0000 C   0  0  0  0  0  0  0  0  0  0  0  0
    3.4430   -0.7182    0.0000 Cl  0  0  0  0  0  0  0  0  0  0  0  0
    0.7500   -1.2990    0.0000 C   0  0  0  0  0  0  0  0  0  0  0  0
    1.5000    0.0000    0.0000 N   0  0  0  0  0  0  0  0  0  0  0  0
    0.7500    1.2990    0.0000 C   0  0  0  0  0  0  0  0  0  0  0  0
    1.5000    2.5981    0.0000 C   0  0  0  0  0  0  0  0  0  0  0  0
    3.0000    2.5981    0.0000 C   0  0  0  0  0  0  0  0  0  0  0  0
    3.7500    1.2990    0.0000 C   0  0  0  0  0  0  0  0  0  0  0  0
    5.2500    1.2990    0.0000 C   0  0  0  0  0  0  0  0  0  0  0  0
    6.0000    2.5981    0.0000 C   0  0  0  0  0  0  0  0  0  0  0  0
    5.2500    3.8971    0.0000 N   0  0  0  0  0  0  0  0  0  0  0  0
    3.7500    3.8971    0.0000 C   0  0  0  0  0  0  0  0  0  0  0  0
   -0.7500    1.2990    0.0000 N   0  0  0  0  0  0  0  0  0  0  0  0
   -1.5000    0.0000    0.0000 C   0  0  0  0  0  0  0  0  0  0  0  0
   -3.0000    0.0000    0.0000 O   0  0  0  0  0  0  0  0  0  0  0  0
   -0.7500   -1.2990    0.0000 C   0  0  0  0  0  0  0  0  0  0  0  0
  1  2  1  0
  2  3  1  0
  3  4  2  0
  4  5  1  0
  5  6  1  0
  6  7  2  0
  7  8  1  0
  7  9  1  0
  9 10  2  0
 10 11  1  0
 10 12  1  0
 12 13  2  0
 13 14  1  0
  5 15  1  0
 15 16  2  0
 16 17  1  0
 17 18  1  0
 18 19  1  0
 19 20  2  0
 20 21  1  0
 21 22  2  0
 22 23  1  0
 23 24  2  0
 17 25  2  0
 25 26  1  0
 26 27  1  0
 26 28  2  0
 28  3  1  0
 13  6  1  0
 28 15  1  0
 24 19  1  0
M  END
>  <Compound_ID>  (416) 
CHEMBL365713

>  <Active>  (416) 
1

>  <Smiles>  (416) 
CCc1nn(-c2c(Cl)cc(Cl)cc2Cl)c2nc(Cc3cccnc3)nc(O)c12

>  <canonical_smi>  (416) 
CCc1nn(-c2c(Cl)cc(Cl)cc2Cl)c2nc(Cc3cccnc3)nc(O)c12

>  <Set>  (416) 
G2 active

>  <Set_type>  (416) 
Test

>  <MW>  (416) 
434.71

>  <HBD>  (416) 
1

>  <HBA>  (416) 
5

>  <NRB>  (416) 
4

>  <NR>  (416) 
4

>  <NAR>  (416) 
4

>  <PSA>  (416) 
76.72

>  <Standard Type>  (416) 
nan

>  <Standard Relation>  (416) 
nan

>  <Standard Units>  (416) 
nan

>  <Standard Value>  (416) 
nan

>  <Assay ChEMBL ID>  (416) 
nan

>  <Assay Description>  (416) 
nan

>  <BAO Label>  (416) 
nan

$$$$

     RDKit          2D

 25 28  0  0  0  0  0  0  0  0999 V2000
    0.7500   -3.8971    0.0000 C   0  0  0  0  0  0  0  0  0  0  0  0
    1.5000   -2.5981    0.0000 C   0  0  0  0  0  0  0  0  0  0  0  0
    3.0000   -2.5981    0.0000 C   0  0  0  0  0  0  0  0  0  0  0  0
    3.7500   -1.2990    0.0000 O   0  0  0  0  0  0  0  0  0  0  0  0
    3.7500   -3.8971    0.0000 N   0  0  0  0  0  0  0  0  0  0  0  0
    5.2500   -3.8971    0.0000 C   0  0  0  0  0  0  0  0  0  0  0  0
    6.1317   -2.6836    0.0000 C   0  0  0  0  0  0  0  0  0  0  0  0
    7.5583   -3.1471    0.0000 C   0  0  0  0  0  0  0  0  0  0  0  0
    8.7718   -2.2654    0.0000 C   0  0  0  0  0  0  0  0  0  0  0  0
    9.3819   -0.8951    0.0000 C   0  0  0  0  0  0  0  0  0  0  0  0
   10.2636   -2.1086    0.0000 C   0  0  0  0  0  0  0  0  0  0  0  0
    7.5583   -4.6471    0.0000 N   0  0  0  0  0  0  0  0  0  0  0  0
    6.1317   -5.1106    0.0000 N   0  0  0  0  0  0  0  0  0  0  0  0
    0.7500   -1.2990    0.0000 C   0  0  0  0  0  0  0  0  0  0  0  0
    1.5000    0.0000    0.0000 C   0  0  0  0  0  0  0  0  0  0  0  0
    0.7500    1.2990    0.0000 C   0  0  0  0  0  0  0  0  0  0  0  0
   -0.7500    1.2990    0.0000 C   0  0  0  0  0  0  0  0  0  0  0  0
   -1.5000    2.5981    0.0000 N   0  0  0  0  0  0  0  0  0  0  0  0
   -2.9918    2.7549    0.0000 C   0  0  0  0  0  0  0  0  0  0  0  0
   -3.3037    4.2221    0.0000 C   0  0  0  0  0  0  0  0  0  0  0  0
   -2.0046    4.9721    0.0000 N   0  0  0  0  0  0  0  0  0  0  0  0
   -0.8899    3.9684    0.0000 C   0  0  0  0  0  0  0  0  0  0  0  0
    0.5773    4.2803    0.0000 O   0  0  0  0  0  0  0  0  0  0  0  0
   -1.5000    0.0000    0.0000 C   0  0  0  0  0  0  0  0  0  0  0  0
   -0.7500   -1.2990    0.0000 C   0  0  0  0  0  0  0  0  0  0  0  0
  1  2  1  0
  2  3  1  0
  3  4  2  0
  3  5  1  0
  5  6  1  0
  6  7  1  0
  7  8  2  0
  8  9  1  0
  9 10  1  0
 10 11  1  0
  8 12  1  0
 12 13  1  0
  2 14  1  0
 14 15  2  0
 15 16  1  0
 16 17  2  0
 17 18  1  0
 18 19  1  0
 19 20  2  0
 20 21  1  0
 21 22  2  0
 22 23  1  0
 17 24  1  0
 24 25  2  0
 13  6  2  0
 25 14  1  0
 11  9  1  0
 22 18  1  0
M  END
>  <Compound_ID>  (417) 
CHEMBL193210

>  <Active>  (417) 
1

>  <Smiles>  (417) 
CC(C(=O)Nc1cc(C2CC2)[nH]n1)c1ccc(-n2ccnc2O)cc1

>  <canonical_smi>  (417) 
CC(C(=O)Nc1cc(C2CC2)[nH]n1)c1ccc(-n2ccnc2O)cc1

>  <Set>  (417) 
G2 active

>  <Set_type>  (417) 
Test

>  <MW>  (417) 
337.38

>  <HBD>  (417) 
3

>  <HBA>  (417) 
4

>  <NRB>  (417) 
5

>  <NR>  (417) 
4

>  <NAR>  (417) 
3

>  <PSA>  (417) 
95.83

>  <Standard Type>  (417) 
nan

>  <Standard Relation>  (417) 
nan

>  <Standard Units>  (417) 
nan

>  <Standard Value>  (417) 
nan

>  <Assay ChEMBL ID>  (417) 
nan

>  <Assay Description>  (417) 
nan

>  <BAO Label>  (417) 
nan

$$$$

     RDKit          2D

 32 36  0  0  0  0  0  0  0  0999 V2000
   -8.5234   -7.7536    0.0000 C   0  0  0  0  0  0  0  0  0  0  0  0
   -7.0317   -7.5968    0.0000 O   0  0  0  0  0  0  0  0  0  0  0  0
   -6.4216   -6.2265    0.0000 C   0  0  0  0  0  0  0  0  0  0  0  0
   -7.3032   -5.0129    0.0000 C   0  0  0  0  0  0  0  0  0  0  0  0
   -6.6931   -3.6426    0.0000 C   0  0  0  0  0  0  0  0  0  0  0  0
   -5.2013   -3.4858    0.0000 C   0  0  0  0  0  0  0  0  0  0  0  0
   -4.5912   -2.1155    0.0000 C   0  0  0  0  0  0  0  0  0  0  0  0
   -5.3412   -0.8165    0.0000 N   0  0  0  0  0  0  0  0  0  0  0  0
   -4.3375    0.2982    0.0000 N   0  0  0  0  0  0  0  0  0  0  0  0
   -2.9672   -0.3119    0.0000 C   0  0  0  0  0  0  0  0  0  0  0  0
   -3.1240   -1.8037    0.0000 C   0  0  0  0  0  0  0  0  0  0  0  0
   -1.7537   -2.4138    0.0000 C   0  0  0  0  0  0  0  0  0  0  0  0
   -1.4418   -3.8810    0.0000 O   0  0  0  0  0  0  0  0  0  0  0  0
   -0.7500   -1.2990    0.0000 C   0  0  0  0  0  0  0  0  0  0  0  0
    0.7500   -1.2990    0.0000 C   0  0  0  0  0  0  0  0  0  0  0  0
    1.5000   -2.5981    0.0000 N   0  0  0  0  0  0  0  0  0  0  0  0
    3.0000   -2.5981    0.0000 C   0  0  0  0  0  0  0  0  0  0  0  0
    3.7500   -1.2990    0.0000 O   0  0  0  0  0  0  0  0  0  0  0  0
    3.7500   -3.8971    0.0000 N   0  0  0  0  0  0  0  0  0  0  0  0
    5.2500   -3.8971    0.0000 N   0  0  0  0  0  0  0  0  0  0  0  0
    6.0000   -5.1962    0.0000 C   0  0  0  0  0  0  0  0  0  0  0  0
    7.5000   -5.1962    0.0000 C   0  0  0  0  0  0  0  0  0  0  0  0
    8.2500   -3.8971    0.0000 N   0  0  0  0  0  0  0  0  0  0  0  0
    9.7500   -3.8971    0.0000 C   0  0  0  0  0  0  0  0  0  0  0  0
    7.5000   -2.5981    0.0000 C   0  0  0  0  0  0  0  0  0  0  0  0
    6.0000   -2.5981    0.0000 C   0  0  0  0  0  0  0  0  0  0  0  0
    1.5000    0.0000    0.0000 C   0  0  0  0  0  0  0  0  0  0  0  0
    0.7500    1.2990    0.0000 C   0  0  0  0  0  0  0  0  0  0  0  0
   -0.7500    1.2990    0.0000 C   0  0  0  0  0  0  0  0  0  0  0  0
   -1.5000    0.0000    0.0000 C   0  0  0  0  0  0  0  0  0  0  0  0
   -4.3197   -4.6994    0.0000 C   0  0  0  0  0  0  0  0  0  0  0  0
   -4.9298   -6.0697    0.0000 C   0  0  0  0  0  0  0  0  0  0  0  0
  1  2  1  0
  2  3  1  0
  3  4  2  0
  4  5  1  0
  5  6  2  0
  6  7  1  0
  7  8  1  0
  8  9  1  0
  9 10  2  0
 10 11  1  0
 11 12  1  0
 12 13  2  0
 12 14  1  0
 14 15  2  0
 15 16  1  0
 16 17  1  0
 17 18  2  0
 17 19  1  0
 19 20  1  0
 20 21  1  0
 21 22  1  0
 22 23  1  0
 23 24  1  0
 23 25  1  0
 25 26  1  0
 15 27  1  0
 27 28  2  0
 28 29  1  0
 29 30  2  0
  6 31  1  0
 31 32  2  0
 32  3  1  0
 11  7  2  0
 30 14  1  0
 30 10  1  0
 26 20  1  0
M  END
>  <Compound_ID>  (418) 
CHEMBL345525

>  <Active>  (418) 
1

>  <Smiles>  (418) 
COc1ccc(-c2[nH]nc3c2C(=O)c2c(NC(=O)NN4CCN(C)CC4)cccc2-3)cc1

>  <canonical_smi>  (418) 
COc1ccc(-c2[nH]nc3c2C(=O)c2c(NC(=O)NN4CCN(C)CC4)cccc2-3)cc1

>  <Set>  (418) 
G2 active

>  <Set_type>  (418) 
Test

>  <MW>  (418) 
432.48

>  <HBD>  (418) 
3

>  <HBA>  (418) 
6

>  <NRB>  (418) 
4

>  <NR>  (418) 
5

>  <NAR>  (418) 
4

>  <PSA>  (418) 
102.59

>  <Standard Type>  (418) 
nan

>  <Standard Relation>  (418) 
nan

>  <Standard Units>  (418) 
nan

>  <Standard Value>  (418) 
nan

>  <Assay ChEMBL ID>  (418) 
nan

>  <Assay Description>  (418) 
nan

>  <BAO Label>  (418) 
nan

$$$$

     RDKit          2D

 31 34  0  0  0  0  0  0  0  0999 V2000
  -10.0849   -6.9740    0.0000 N   0  0  0  0  0  0  0  0  0  0  0  0
   -8.6583   -6.5105    0.0000 S   0  0  0  0  0  0  0  0  0  0  0  0
   -9.1218   -5.0839    0.0000 O   0  0  0  0  0  0  0  0  0  0  0  0
   -8.1948   -7.9371    0.0000 O   0  0  0  0  0  0  0  0  0  0  0  0
   -7.2317   -6.0469    0.0000 C   0  0  0  0  0  0  0  0  0  0  0  0
   -6.9199   -4.5797    0.0000 C   0  0  0  0  0  0  0  0  0  0  0  0
   -5.4933   -4.1162    0.0000 C   0  0  0  0  0  0  0  0  0  0  0  0
   -4.3786   -5.1199    0.0000 C   0  0  0  0  0  0  0  0  0  0  0  0
   -2.9520   -4.6564    0.0000 N   0  0  0  0  0  0  0  0  0  0  0  0
   -2.6401   -3.1891    0.0000 N   0  0  0  0  0  0  0  0  0  0  0  0
   -1.2135   -2.7256    0.0000 C   0  0  0  0  0  0  0  0  0  0  0  0
   -0.0000   -3.6073    0.0000 C   0  0  0  0  0  0  0  0  0  0  0  0
    0.0000   -5.1073    0.0000 O   0  0  0  0  0  0  0  0  0  0  0  0
    1.2135   -2.7256    0.0000 N   0  0  0  0  0  0  0  0  0  0  0  0
    0.7500   -1.2990    0.0000 C   0  0  0  0  0  0  0  0  0  0  0  0
    1.5000    0.0000    0.0000 C   0  0  0  0  0  0  0  0  0  0  0  0
    0.7500    1.2990    0.0000 C   0  0  0  0  0  0  0  0  0  0  0  0
   -0.7500    1.2990    0.0000 C   0  0  0  0  0  0  0  0  0  0  0  0
   -1.5000    0.0000    0.0000 C   0  0  0  0  0  0  0  0  0  0  0  0
   -3.0000    0.0000    0.0000 C   0  0  0  0  0  0  0  0  0  0  0  0
   -3.7500    1.2990    0.0000 C   0  0  0  0  0  0  0  0  0  0  0  0
   -5.2500    1.2990    0.0000 C   0  0  0  0  0  0  0  0  0  0  0  0
   -6.0000    2.5981    0.0000 C   0  0  0  0  0  0  0  0  0  0  0  0
   -7.5000    2.5981    0.0000 C   0  0  0  0  0  0  0  0  0  0  0  0
   -8.2500    1.2990    0.0000 C   0  0  0  0  0  0  0  0  0  0  0  0
   -9.7500    1.2990    0.0000 O   0  0  0  0  0  0  0  0  0  0  0  0
   -7.5000    0.0000    0.0000 C   0  0  0  0  0  0  0  0  0  0  0  0
   -6.0000    0.0000    0.0000 C   0  0  0  0  0  0  0  0  0  0  0  0
   -0.7500   -1.2990    0.0000 C   0  0  0  0  0  0  0  0  0  0  0  0
   -4.6904   -6.5871    0.0000 C   0  0  0  0  0  0  0  0  0  0  0  0
   -6.1170   -7.0506    0.0000 C   0  0  0  0  0  0  0  0  0  0  0  0
  1  2  1  0
  2  3  2  0
  2  4  2  0
  2  5  1  0
  5  6  2  0
  6  7  1  0
  7  8  2  0
  8  9  1  0
  9 10  2  3
 10 11  1  0
 11 12  2  0
 12 13  1  0
 12 14  1  0
 14 15  1  0
 15 16  2  0
 16 17  1  0
 17 18  2  0
 18 19  1  0
 19 20  1  0
 20 21  1  0
 21 22  1  0
 22 23  2  0
 23 24  1  0
 24 25  2  0
 25 26  1  0
 25 27  1  0
 27 28  2  0
 19 29  2  0
  8 30  1  0
 30 31  2  0
 31  5  1  0
 29 11  1  0
 29 15  1  0
 28 22  1  0
M  END
>  <Compound_ID>  (419) 
CHEMBL313682

>  <Active>  (419) 
1

>  <Smiles>  (419) 
NS(=O)(=O)c1ccc(N=Nc2c(O)[nH]c3cccc(CCc4ccc(O)cc4)c23)cc1

>  <canonical_smi>  (419) 
NS(=O)(=O)c1ccc(N=Nc2c(O)[nH]c3cccc(CCc4ccc(O)cc4)c23)cc1

>  <Set>  (419) 
G2 active

>  <Set_type>  (419) 
Test

>  <MW>  (419) 
436.49

>  <HBD>  (419) 
4

>  <HBA>  (419) 
4

>  <NRB>  (419) 
6

>  <NR>  (419) 
4

>  <NAR>  (419) 
4

>  <PSA>  (419) 
141.13

>  <Standard Type>  (419) 
nan

>  <Standard Relation>  (419) 
nan

>  <Standard Units>  (419) 
nan

>  <Standard Value>  (419) 
nan

>  <Assay ChEMBL ID>  (419) 
nan

>  <Assay Description>  (419) 
nan

>  <BAO Label>  (419) 
nan

$$$$

     RDKit          2D

 30 34  0  0  0  0  0  0  0  0999 V2000
   -3.7500  -11.6913    0.0000 C   0  0  0  0  0  0  0  0  0  0  0  0
   -3.0000  -10.3923    0.0000 N   0  0  0  0  0  0  0  0  0  0  0  0
   -3.7500   -9.0933    0.0000 C   0  0  0  0  0  0  0  0  0  0  0  0
   -3.0000   -7.7942    0.0000 C   0  0  0  0  0  0  0  0  0  0  0  0
   -1.5000   -7.7942    0.0000 N   0  0  0  0  0  0  0  0  0  0  0  0
   -0.7500   -6.4952    0.0000 C   0  0  0  0  0  0  0  0  0  0  0  0
    0.7500   -6.4952    0.0000 C   0  0  0  0  0  0  0  0  0  0  0  0
    1.5000   -5.1962    0.0000 C   0  0  0  0  0  0  0  0  0  0  0  0
    0.7500   -3.8971    0.0000 C   0  0  0  0  0  0  0  0  0  0  0  0
    1.5000   -2.5981    0.0000 N   0  0  0  0  0  0  0  0  0  0  0  0
    0.7500   -1.2990    0.0000 C   0  0  0  0  0  0  0  0  0  0  0  0
    1.5000    0.0000    0.0000 N   0  0  0  0  0  0  0  0  0  0  0  0
    0.7500    1.2990    0.0000 C   0  0  0  0  0  0  0  0  0  0  0  0
   -0.7500    1.2990    0.0000 C   0  0  0  0  0  0  0  0  0  0  0  0
   -1.5000    2.5981    0.0000 C   0  0  0  0  0  0  0  0  0  0  0  0
   -3.0000    2.5981    0.0000 C   0  0  0  0  0  0  0  0  0  0  0  0
   -3.7500    1.2990    0.0000 C   0  0  0  0  0  0  0  0  0  0  0  0
   -5.2500    1.2990    0.0000 O   0  0  0  0  0  0  0  0  0  0  0  0
   -3.0000    0.0000    0.0000 N   0  0  0  0  0  0  0  0  0  0  0  0
   -3.7500   -1.2990    0.0000 C   0  0  0  0  0  0  0  0  0  0  0  0
   -3.1399   -2.6694    0.0000 C   0  0  0  0  0  0  0  0  0  0  0  0
   -4.2546   -3.6731    0.0000 C   0  0  0  0  0  0  0  0  0  0  0  0
   -5.5537   -2.9231    0.0000 C   0  0  0  0  0  0  0  0  0  0  0  0
   -5.2418   -1.4558    0.0000 C   0  0  0  0  0  0  0  0  0  0  0  0
   -1.5000    0.0000    0.0000 C   0  0  0  0  0  0  0  0  0  0  0  0
   -0.7500   -1.2990    0.0000 N   0  0  0  0  0  0  0  0  0  0  0  0
   -0.7500   -3.8971    0.0000 C   0  0  0  0  0  0  0  0  0  0  0  0
   -1.5000   -5.1962    0.0000 C   0  0  0  0  0  0  0  0  0  0  0  0
   -0.7500   -9.0933    0.0000 C   0  0  0  0  0  0  0  0  0  0  0  0
   -1.5000  -10.3923    0.0000 C   0  0  0  0  0  0  0  0  0  0  0  0
  1  2  1  0
  2  3  1  0
  3  4  1  0
  4  5  1  0
  5  6  1  0
  6  7  2  0
  7  8  1  0
  8  9  2  0
  9 10  1  0
 10 11  1  0
 11 12  2  0
 12 13  1  0
 13 14  2  0
 14 15  1  0
 15 16  2  0
 16 17  1  0
 17 18  2  0
 17 19  1  0
 19 20  1  0
 20 21  1  0
 21 22  1  0
 22 23  1  0
 23 24  1  0
 19 25  1  0
 25 26  2  0
  9 27  1  0
 27 28  2  0
  5 29  1  0
 29 30  1  0
 30  2  1  0
 28  6  1  0
 26 11  1  0
 25 14  1  0
 24 20  1  0
M  END
>  <Compound_ID>  (420) 
CHEMBL358057

>  <Active>  (420) 
1

>  <Smiles>  (420) 
CN1CCN(c2ccc(Nc3ncc4ccc(=O)n(C5CCCC5)c4n3)cc2)CC1

>  <canonical_smi>  (420) 
CN1CCN(c2ccc(Nc3ncc4ccc(=O)n(C5CCCC5)c4n3)cc2)CC1

>  <Set>  (420) 
G2 active

>  <Set_type>  (420) 
Test

>  <MW>  (420) 
404.52

>  <HBD>  (420) 
1

>  <HBA>  (420) 
6

>  <NRB>  (420) 
4

>  <NR>  (420) 
5

>  <NAR>  (420) 
3

>  <PSA>  (420) 
66.29

>  <Standard Type>  (420) 
nan

>  <Standard Relation>  (420) 
nan

>  <Standard Units>  (420) 
nan

>  <Standard Value>  (420) 
nan

>  <Assay ChEMBL ID>  (420) 
nan

>  <Assay Description>  (420) 
nan

>  <BAO Label>  (420) 
nan

$$$$

     RDKit          2D

 30 34  0  0  0  0  0  0  0  0999 V2000
    4.0819   -1.9062    0.0000 C   0  0  0  0  0  0  0  0  0  0  0  0
    2.9672   -2.9099    0.0000 N   0  0  0  0  0  0  0  0  0  0  0  0
    3.1240   -4.4017    0.0000 N   0  0  0  0  0  0  0  0  0  0  0  0
    1.7537   -5.0118    0.0000 C   0  0  0  0  0  0  0  0  0  0  0  0
    1.4418   -6.4791    0.0000 C   0  0  0  0  0  0  0  0  0  0  0  0
    2.5565   -7.4827    0.0000 N   0  0  0  0  0  0  0  0  0  0  0  0
    0.0152   -6.9426    0.0000 O   0  0  0  0  0  0  0  0  0  0  0  0
    0.7500   -3.8971    0.0000 C   0  0  0  0  0  0  0  0  0  0  0  0
    1.5000   -2.5981    0.0000 C   0  0  0  0  0  0  0  0  0  0  0  0
    0.7500   -1.2990    0.0000 C   0  0  0  0  0  0  0  0  0  0  0  0
    1.5000    0.0000    0.0000 N   0  0  0  0  0  0  0  0  0  0  0  0
    0.7500    1.2990    0.0000 C   0  0  0  0  0  0  0  0  0  0  0  0
    1.5000    2.5981    0.0000 N   0  0  0  0  0  0  0  0  0  0  0  0
    3.0000    2.5981    0.0000 C   0  0  0  0  0  0  0  0  0  0  0  0
    3.7500    1.2990    0.0000 C   0  0  0  0  0  0  0  0  0  0  0  0
    5.2500    1.2990    0.0000 C   0  0  0  0  0  0  0  0  0  0  0  0
    6.0000    2.5981    0.0000 C   0  0  0  0  0  0  0  0  0  0  0  0
    7.5000    2.5981    0.0000 N   0  0  0  0  0  0  0  0  0  0  0  0
    8.2500    1.2990    0.0000 C   0  0  0  0  0  0  0  0  0  0  0  0
    9.7500    1.2990    0.0000 C   0  0  0  0  0  0  0  0  0  0  0  0
   10.5000    2.5981    0.0000 O   0  0  0  0  0  0  0  0  0  0  0  0
    9.7500    3.8971    0.0000 C   0  0  0  0  0  0  0  0  0  0  0  0
    8.2500    3.8971    0.0000 C   0  0  0  0  0  0  0  0  0  0  0  0
    5.2500    3.8971    0.0000 C   0  0  0  0  0  0  0  0  0  0  0  0
    3.7500    3.8971    0.0000 C   0  0  0  0  0  0  0  0  0  0  0  0
   -0.7500    1.2990    0.0000 N   0  0  0  0  0  0  0  0  0  0  0  0
   -1.5000    0.0000    0.0000 C   0  0  0  0  0  0  0  0  0  0  0  0
   -0.7500   -1.2990    0.0000 C   0  0  0  0  0  0  0  0  0  0  0  0
   -1.5000   -2.5981    0.0000 C   0  0  0  0  0  0  0  0  0  0  0  0
   -0.7500   -3.8971    0.0000 C   0  0  0  0  0  0  0  0  0  0  0  0
  1  2  1  0
  2  3  1  0
  3  4  2  0
  4  5  1  0
  5  6  1  0
  5  7  2  0
  4  8  1  0
  8  9  2  0
  9 10  1  0
 10 11  2  0
 11 12  1  0
 12 13  1  0
 13 14  1  0
 14 15  2  0
 15 16  1  0
 16 17  2  0
 17 18  1  0
 18 19  1  0
 19 20  1  0
 20 21  1  0
 21 22  1  0
 22 23  1  0
 17 24  1  0
 24 25  2  0
 12 26  2  0
 26 27  1  0
 27 28  2  0
 28 29  1  0
 29 30  1  0
  9  2  1  0
 28 10  1  0
 30  8  1  0
 25 14  1  0
 23 18  1  0
M  END
>  <Compound_ID>  (421) 
CHEMBL556881

>  <Active>  (421) 
1

>  <Smiles>  (421) 
Cn1nc(C(N)=O)c2c1-c1nc(Nc3ccc(N4CCOCC4)cc3)ncc1CC2

>  <canonical_smi>  (421) 
Cn1nc(C(N)=O)c2c1-c1nc(Nc3ccc(N4CCOCC4)cc3)ncc1CC2

>  <Set>  (421) 
G2 active

>  <Set_type>  (421) 
Test

>  <MW>  (421) 
405.46

>  <HBD>  (421) 
2

>  <HBA>  (421) 
7

>  <NRB>  (421) 
4

>  <NR>  (421) 
5

>  <NAR>  (421) 
3

>  <PSA>  (421) 
111.19

>  <Standard Type>  (421) 
nan

>  <Standard Relation>  (421) 
nan

>  <Standard Units>  (421) 
nan

>  <Standard Value>  (421) 
nan

>  <Assay ChEMBL ID>  (421) 
nan

>  <Assay Description>  (421) 
nan

>  <BAO Label>  (421) 
nan

$$$$

     RDKit          2D

 30 34  0  0  0  0  0  0  0  0999 V2000
   -8.5234   -7.7536    0.0000 C   0  0  0  0  0  0  0  0  0  0  0  0
   -7.0317   -7.5968    0.0000 O   0  0  0  0  0  0  0  0  0  0  0  0
   -6.4216   -6.2265    0.0000 C   0  0  0  0  0  0  0  0  0  0  0  0
   -7.3032   -5.0129    0.0000 C   0  0  0  0  0  0  0  0  0  0  0  0
   -6.6931   -3.6426    0.0000 C   0  0  0  0  0  0  0  0  0  0  0  0
   -5.2013   -3.4858    0.0000 C   0  0  0  0  0  0  0  0  0  0  0  0
   -4.5912   -2.1155    0.0000 C   0  0  0  0  0  0  0  0  0  0  0  0
   -5.3412   -0.8165    0.0000 N   0  0  0  0  0  0  0  0  0  0  0  0
   -4.3375    0.2982    0.0000 N   0  0  0  0  0  0  0  0  0  0  0  0
   -2.9672   -0.3119    0.0000 C   0  0  0  0  0  0  0  0  0  0  0  0
   -3.1240   -1.8037    0.0000 C   0  0  0  0  0  0  0  0  0  0  0  0
   -1.7537   -2.4138    0.0000 C   0  0  0  0  0  0  0  0  0  0  0  0
   -1.4418   -3.8810    0.0000 O   0  0  0  0  0  0  0  0  0  0  0  0
   -0.7500   -1.2990    0.0000 C   0  0  0  0  0  0  0  0  0  0  0  0
    0.7500   -1.2990    0.0000 C   0  0  0  0  0  0  0  0  0  0  0  0
    1.5000   -2.5981    0.0000 N   0  0  0  0  0  0  0  0  0  0  0  0
    3.0000   -2.5981    0.0000 C   0  0  0  0  0  0  0  0  0  0  0  0
    3.7500   -1.2990    0.0000 O   0  0  0  0  0  0  0  0  0  0  0  0
    3.7500   -3.8971    0.0000 N   0  0  0  0  0  0  0  0  0  0  0  0
    5.2500   -3.8971    0.0000 N   0  0  0  0  0  0  0  0  0  0  0  0
    6.1317   -2.6836    0.0000 C   0  0  0  0  0  0  0  0  0  0  0  0
    7.5583   -3.1471    0.0000 C   0  0  0  0  0  0  0  0  0  0  0  0
    7.5583   -4.6471    0.0000 C   0  0  0  0  0  0  0  0  0  0  0  0
    6.1317   -5.1106    0.0000 C   0  0  0  0  0  0  0  0  0  0  0  0
    1.5000    0.0000    0.0000 C   0  0  0  0  0  0  0  0  0  0  0  0
    0.7500    1.2990    0.0000 C   0  0  0  0  0  0  0  0  0  0  0  0
   -0.7500    1.2990    0.0000 C   0  0  0  0  0  0  0  0  0  0  0  0
   -1.5000    0.0000    0.0000 C   0  0  0  0  0  0  0  0  0  0  0  0
   -4.3197   -4.6994    0.0000 C   0  0  0  0  0  0  0  0  0  0  0  0
   -4.9298   -6.0697    0.0000 C   0  0  0  0  0  0  0  0  0  0  0  0
  1  2  1  0
  2  3  1  0
  3  4  2  0
  4  5  1  0
  5  6  2  0
  6  7  1  0
  7  8  1  0
  8  9  1  0
  9 10  2  0
 10 11  1  0
 11 12  1  0
 12 13  2  0
 12 14  1  0
 14 15  2  0
 15 16  1  0
 16 17  1  0
 17 18  2  0
 17 19  1  0
 19 20  1  0
 20 21  1  0
 21 22  1  0
 22 23  1  0
 23 24  1  0
 15 25  1  0
 25 26  2  0
 26 27  1  0
 27 28  2  0
  6 29  1  0
 29 30  2  0
 30  3  1  0
 11  7  2  0
 28 14  1  0
 28 10  1  0
 24 20  1  0
M  END
>  <Compound_ID>  (422) 
CHEMBL147012

>  <Active>  (422) 
1

>  <Smiles>  (422) 
COc1ccc(-c2[nH]nc3c2C(=O)c2c(NC(=O)NN4CCCC4)cccc2-3)cc1

>  <canonical_smi>  (422) 
COc1ccc(-c2[nH]nc3c2C(=O)c2c(NC(=O)NN4CCCC4)cccc2-3)cc1

>  <Set>  (422) 
G2 active

>  <Set_type>  (422) 
Test

>  <MW>  (422) 
403.44

>  <HBD>  (422) 
3

>  <HBA>  (422) 
5

>  <NRB>  (422) 
4

>  <NR>  (422) 
5

>  <NAR>  (422) 
4

>  <PSA>  (422) 
99.35

>  <Standard Type>  (422) 
nan

>  <Standard Relation>  (422) 
nan

>  <Standard Units>  (422) 
nan

>  <Standard Value>  (422) 
nan

>  <Assay ChEMBL ID>  (422) 
nan

>  <Assay Description>  (422) 
nan

>  <BAO Label>  (422) 
nan

$$$$

     RDKit          2D

 31 35  0  0  0  0  0  0  0  0999 V2000
   -3.7500  -11.6913    0.0000 C   0  0  0  0  0  0  0  0  0  0  0  0
   -3.0000  -10.3923    0.0000 N   0  0  0  0  0  0  0  0  0  0  0  0
   -3.7500   -9.0933    0.0000 C   0  0  0  0  0  0  0  0  0  0  0  0
   -3.0000   -7.7942    0.0000 C   0  0  0  0  0  0  0  0  0  0  0  0
   -1.5000   -7.7942    0.0000 N   0  0  0  0  0  0  0  0  0  0  0  0
   -0.7500   -6.4952    0.0000 C   0  0  0  0  0  0  0  0  0  0  0  0
    0.7500   -6.4952    0.0000 C   0  0  0  0  0  0  0  0  0  0  0  0
    1.5000   -5.1962    0.0000 C   0  0  0  0  0  0  0  0  0  0  0  0
    0.7500   -3.8971    0.0000 C   0  0  0  0  0  0  0  0  0  0  0  0
    1.5000   -2.5981    0.0000 N   0  0  0  0  0  0  0  0  0  0  0  0
    0.7500   -1.2990    0.0000 C   0  0  0  0  0  0  0  0  0  0  0  0
    1.5000    0.0000    0.0000 N   0  0  0  0  0  0  0  0  0  0  0  0
    0.7500    1.2990    0.0000 C   0  0  0  0  0  0  0  0  0  0  0  0
   -0.7500    1.2990    0.0000 C   0  0  0  0  0  0  0  0  0  0  0  0
   -1.5000    2.5981    0.0000 C   0  0  0  0  0  0  0  0  0  0  0  0
   -3.0000    2.5981    0.0000 C   0  0  0  0  0  0  0  0  0  0  0  0
   -3.7500    1.2990    0.0000 C   0  0  0  0  0  0  0  0  0  0  0  0
   -5.2500    1.2990    0.0000 O   0  0  0  0  0  0  0  0  0  0  0  0
   -3.0000    0.0000    0.0000 N   0  0  0  0  0  0  0  0  0  0  0  0
   -3.7500   -1.2990    0.0000 C   0  0  0  0  0  0  0  0  0  0  0  0
   -5.2500   -1.2990    0.0000 C   0  0  0  0  0  0  0  0  0  0  0  0
   -6.0000   -2.5981    0.0000 C   0  0  0  0  0  0  0  0  0  0  0  0
   -5.2500   -3.8971    0.0000 C   0  0  0  0  0  0  0  0  0  0  0  0
   -3.7500   -3.8971    0.0000 C   0  0  0  0  0  0  0  0  0  0  0  0
   -3.0000   -2.5981    0.0000 C   0  0  0  0  0  0  0  0  0  0  0  0
   -1.5000    0.0000    0.0000 C   0  0  0  0  0  0  0  0  0  0  0  0
   -0.7500   -1.2990    0.0000 N   0  0  0  0  0  0  0  0  0  0  0  0
   -0.7500   -3.8971    0.0000 C   0  0  0  0  0  0  0  0  0  0  0  0
   -1.5000   -5.1962    0.0000 C   0  0  0  0  0  0  0  0  0  0  0  0
   -0.7500   -9.0933    0.0000 C   0  0  0  0  0  0  0  0  0  0  0  0
   -1.5000  -10.3923    0.0000 C   0  0  0  0  0  0  0  0  0  0  0  0
  1  2  1  0
  2  3  1  0
  3  4  1  0
  4  5  1  0
  5  6  1  0
  6  7  2  0
  7  8  1  0
  8  9  2  0
  9 10  1  0
 10 11  1  0
 11 12  2  0
 12 13  1  0
 13 14  2  0
 14 15  1  0
 15 16  2  0
 16 17  1  0
 17 18  2  0
 17 19  1  0
 19 20  1  0
 20 21  1  0
 21 22  1  0
 22 23  1  0
 23 24  1  0
 24 25  1  0
 19 26  1  0
 26 27  2  0
  9 28  1  0
 28 29  2  0
  5 30  1  0
 30 31  1  0
 31  2  1  0
 29  6  1  0
 27 11  1  0
 26 14  1  0
 25 20  1  0
M  END
>  <Compound_ID>  (423) 
CHEMBL140808

>  <Active>  (423) 
1

>  <Smiles>  (423) 
CN1CCN(c2ccc(Nc3ncc4ccc(=O)n(C5CCCCC5)c4n3)cc2)CC1

>  <canonical_smi>  (423) 
CN1CCN(c2ccc(Nc3ncc4ccc(=O)n(C5CCCCC5)c4n3)cc2)CC1

>  <Set>  (423) 
G2 active

>  <Set_type>  (423) 
Test

>  <MW>  (423) 
418.55

>  <HBD>  (423) 
1

>  <HBA>  (423) 
6

>  <NRB>  (423) 
4

>  <NR>  (423) 
5

>  <NAR>  (423) 
3

>  <PSA>  (423) 
66.29

>  <Standard Type>  (423) 
nan

>  <Standard Relation>  (423) 
nan

>  <Standard Units>  (423) 
nan

>  <Standard Value>  (423) 
nan

>  <Assay ChEMBL ID>  (423) 
nan

>  <Assay Description>  (423) 
nan

>  <BAO Label>  (423) 
nan

$$$$

     RDKit          2D

 26 29  0  0  0  0  0  0  0  0999 V2000
    0.7500   -3.8971    0.0000 C   0  0  0  0  0  0  0  0  0  0  0  0
    1.5000   -2.5981    0.0000 C   0  0  0  0  0  0  0  0  0  0  0  0
    3.0000   -2.5981    0.0000 C   0  0  0  0  0  0  0  0  0  0  0  0
    3.7500   -1.2990    0.0000 O   0  0  0  0  0  0  0  0  0  0  0  0
    3.7500   -3.8971    0.0000 N   0  0  0  0  0  0  0  0  0  0  0  0
    5.2500   -3.8971    0.0000 C   0  0  0  0  0  0  0  0  0  0  0  0
    6.1317   -2.6836    0.0000 C   0  0  0  0  0  0  0  0  0  0  0  0
    7.5583   -3.1471    0.0000 C   0  0  0  0  0  0  0  0  0  0  0  0
    8.7718   -2.2654    0.0000 C   0  0  0  0  0  0  0  0  0  0  0  0
    9.3819   -0.8951    0.0000 C   0  0  0  0  0  0  0  0  0  0  0  0
   10.2636   -2.1086    0.0000 C   0  0  0  0  0  0  0  0  0  0  0  0
    7.5583   -4.6471    0.0000 N   0  0  0  0  0  0  0  0  0  0  0  0
    6.1317   -5.1106    0.0000 N   0  0  0  0  0  0  0  0  0  0  0  0
    0.7500   -1.2990    0.0000 C   0  0  0  0  0  0  0  0  0  0  0  0
    1.5000    0.0000    0.0000 C   0  0  0  0  0  0  0  0  0  0  0  0
    0.7500    1.2990    0.0000 C   0  0  0  0  0  0  0  0  0  0  0  0
   -0.7500    1.2990    0.0000 C   0  0  0  0  0  0  0  0  0  0  0  0
   -1.5000    2.5981    0.0000 N   0  0  0  0  0  0  0  0  0  0  0  0
   -2.9918    2.7549    0.0000 C   0  0  0  0  0  0  0  0  0  0  0  0
   -3.3037    4.2221    0.0000 C   0  0  0  0  0  0  0  0  0  0  0  0
   -4.6740    4.8322    0.0000 O   0  0  0  0  0  0  0  0  0  0  0  0
   -2.0046    4.9721    0.0000 N   0  0  0  0  0  0  0  0  0  0  0  0
   -0.8899    3.9684    0.0000 C   0  0  0  0  0  0  0  0  0  0  0  0
    0.5773    4.2803    0.0000 O   0  0  0  0  0  0  0  0  0  0  0  0
   -1.5000    0.0000    0.0000 C   0  0  0  0  0  0  0  0  0  0  0  0
   -0.7500   -1.2990    0.0000 C   0  0  0  0  0  0  0  0  0  0  0  0
  1  2  1  0
  2  3  1  0
  3  4  2  0
  3  5  1  0
  5  6  1  0
  6  7  1  0
  7  8  2  0
  8  9  1  0
  9 10  1  0
 10 11  1  0
  8 12  1  0
 12 13  1  0
  2 14  1  0
 14 15  2  0
 15 16  1  0
 16 17  2  0
 17 18  1  0
 18 19  1  0
 19 20  1  0
 20 21  2  0
 20 22  1  0
 22 23  1  0
 23 24  2  0
 17 25  1  0
 25 26  2  0
 13  6  2  0
 26 14  1  0
 11  9  1  0
 23 18  1  0
M  END
>  <Compound_ID>  (424) 
CHEMBL193288

>  <Active>  (424) 
1

>  <Smiles>  (424) 
CC(C(=O)Nc1cc(C2CC2)[nH]n1)c1ccc(N2CC(=O)NC2=O)cc1

>  <canonical_smi>  (424) 
CC(C(=O)Nc1cc(C2CC2)[nH]n1)c1ccc(N2CC(=O)NC2=O)cc1

>  <Set>  (424) 
G2 active

>  <Set_type>  (424) 
Test

>  <MW>  (424) 
353.38

>  <HBD>  (424) 
3

>  <HBA>  (424) 
4

>  <NRB>  (424) 
5

>  <NR>  (424) 
4

>  <NAR>  (424) 
2

>  <PSA>  (424) 
107.19

>  <Standard Type>  (424) 
nan

>  <Standard Relation>  (424) 
nan

>  <Standard Units>  (424) 
nan

>  <Standard Value>  (424) 
nan

>  <Assay ChEMBL ID>  (424) 
nan

>  <Assay Description>  (424) 
nan

>  <BAO Label>  (424) 
nan

$$$$

     RDKit          2D

 31 35  0  0  0  0  0  0  0  0999 V2000
   -8.5234   -7.7536    0.0000 C   0  0  0  0  0  0  0  0  0  0  0  0
   -7.0317   -7.5968    0.0000 O   0  0  0  0  0  0  0  0  0  0  0  0
   -6.4216   -6.2265    0.0000 C   0  0  0  0  0  0  0  0  0  0  0  0
   -7.3032   -5.0129    0.0000 C   0  0  0  0  0  0  0  0  0  0  0  0
   -6.6931   -3.6426    0.0000 C   0  0  0  0  0  0  0  0  0  0  0  0
   -5.2013   -3.4858    0.0000 C   0  0  0  0  0  0  0  0  0  0  0  0
   -4.5912   -2.1155    0.0000 C   0  0  0  0  0  0  0  0  0  0  0  0
   -5.3412   -0.8165    0.0000 N   0  0  0  0  0  0  0  0  0  0  0  0
   -4.3375    0.2982    0.0000 N   0  0  0  0  0  0  0  0  0  0  0  0
   -2.9672   -0.3119    0.0000 C   0  0  0  0  0  0  0  0  0  0  0  0
   -3.1240   -1.8037    0.0000 C   0  0  0  0  0  0  0  0  0  0  0  0
   -1.7537   -2.4138    0.0000 C   0  0  0  0  0  0  0  0  0  0  0  0
   -1.4418   -3.8810    0.0000 O   0  0  0  0  0  0  0  0  0  0  0  0
   -0.7500   -1.2990    0.0000 C   0  0  0  0  0  0  0  0  0  0  0  0
    0.7500   -1.2990    0.0000 C   0  0  0  0  0  0  0  0  0  0  0  0
    1.5000   -2.5981    0.0000 N   0  0  0  0  0  0  0  0  0  0  0  0
    3.0000   -2.5981    0.0000 C   0  0  0  0  0  0  0  0  0  0  0  0
    3.7500   -1.2990    0.0000 O   0  0  0  0  0  0  0  0  0  0  0  0
    3.7500   -3.8971    0.0000 N   0  0  0  0  0  0  0  0  0  0  0  0
    5.2500   -3.8971    0.0000 N   0  0  0  0  0  0  0  0  0  0  0  0
    6.0000   -5.1962    0.0000 C   0  0  0  0  0  0  0  0  0  0  0  0
    7.5000   -5.1962    0.0000 C   0  0  0  0  0  0  0  0  0  0  0  0
    8.2500   -3.8971    0.0000 O   0  0  0  0  0  0  0  0  0  0  0  0
    7.5000   -2.5981    0.0000 C   0  0  0  0  0  0  0  0  0  0  0  0
    6.0000   -2.5981    0.0000 C   0  0  0  0  0  0  0  0  0  0  0  0
    1.5000    0.0000    0.0000 C   0  0  0  0  0  0  0  0  0  0  0  0
    0.7500    1.2990    0.0000 C   0  0  0  0  0  0  0  0  0  0  0  0
   -0.7500    1.2990    0.0000 C   0  0  0  0  0  0  0  0  0  0  0  0
   -1.5000    0.0000    0.0000 C   0  0  0  0  0  0  0  0  0  0  0  0
   -4.3197   -4.6994    0.0000 C   0  0  0  0  0  0  0  0  0  0  0  0
   -4.9298   -6.0697    0.0000 C   0  0  0  0  0  0  0  0  0  0  0  0
  1  2  1  0
  2  3  1  0
  3  4  2  0
  4  5  1  0
  5  6  2  0
  6  7  1  0
  7  8  1  0
  8  9  1  0
  9 10  2  0
 10 11  1  0
 11 12  1  0
 12 13  2  0
 12 14  1  0
 14 15  2  0
 15 16  1  0
 16 17  1  0
 17 18  2  0
 17 19  1  0
 19 20  1  0
 20 21  1  0
 21 22  1  0
 22 23  1  0
 23 24  1  0
 24 25  1  0
 15 26  1  0
 26 27  2  0
 27 28  1  0
 28 29  2  0
  6 30  1  0
 30 31  2  0
 31  3  1  0
 11  7  2  0
 29 14  1  0
 29 10  1  0
 25 20  1  0
M  END
>  <Compound_ID>  (425) 
CHEMBL357770

>  <Active>  (425) 
1

>  <Smiles>  (425) 
COc1ccc(-c2[nH]nc3c2C(=O)c2c(NC(=O)NN4CCOCC4)cccc2-3)cc1

>  <canonical_smi>  (425) 
COc1ccc(-c2[nH]nc3c2C(=O)c2c(NC(=O)NN4CCOCC4)cccc2-3)cc1

>  <Set>  (425) 
G2 active

>  <Set_type>  (425) 
Test

>  <MW>  (425) 
419.44

>  <HBD>  (425) 
3

>  <HBA>  (425) 
6

>  <NRB>  (425) 
4

>  <NR>  (425) 
5

>  <NAR>  (425) 
4

>  <PSA>  (425) 
108.58

>  <Standard Type>  (425) 
nan

>  <Standard Relation>  (425) 
nan

>  <Standard Units>  (425) 
nan

>  <Standard Value>  (425) 
nan

>  <Assay ChEMBL ID>  (425) 
nan

>  <Assay Description>  (425) 
nan

>  <BAO Label>  (425) 
nan

$$$$

     RDKit          2D

 29 32  0  0  0  0  0  0  0  0999 V2000
   -6.6931   -3.6426    0.0000 C   0  0  0  0  0  0  0  0  0  0  0  0
   -5.2013   -3.4858    0.0000 C   0  0  0  0  0  0  0  0  0  0  0  0
   -4.3197   -4.6994    0.0000 C   0  0  0  0  0  0  0  0  0  0  0  0
   -4.5912   -2.1155    0.0000 C   0  0  0  0  0  0  0  0  0  0  0  0
   -5.3412   -0.8165    0.0000 N   0  0  0  0  0  0  0  0  0  0  0  0
   -4.3375    0.2982    0.0000 N   0  0  0  0  0  0  0  0  0  0  0  0
   -2.9672   -0.3119    0.0000 C   0  0  0  0  0  0  0  0  0  0  0  0
   -3.1240   -1.8037    0.0000 C   0  0  0  0  0  0  0  0  0  0  0  0
   -1.7537   -2.4138    0.0000 C   0  0  0  0  0  0  0  0  0  0  0  0
   -1.4418   -3.8810    0.0000 O   0  0  0  0  0  0  0  0  0  0  0  0
   -0.7500   -1.2990    0.0000 C   0  0  0  0  0  0  0  0  0  0  0  0
    0.7500   -1.2990    0.0000 C   0  0  0  0  0  0  0  0  0  0  0  0
    1.5000   -2.5981    0.0000 N   0  0  0  0  0  0  0  0  0  0  0  0
    3.0000   -2.5981    0.0000 C   0  0  0  0  0  0  0  0  0  0  0  0
    3.7500   -1.2990    0.0000 O   0  0  0  0  0  0  0  0  0  0  0  0
    3.7500   -3.8971    0.0000 C   0  0  0  0  0  0  0  0  0  0  0  0
    5.2500   -3.8971    0.0000 N   0  0  0  0  0  0  0  0  0  0  0  0
    6.0000   -5.1962    0.0000 C   0  0  0  0  0  0  0  0  0  0  0  0
    7.5000   -5.1962    0.0000 C   0  0  0  0  0  0  0  0  0  0  0  0
    8.2500   -3.8971    0.0000 C   0  0  0  0  0  0  0  0  0  0  0  0
    9.7500   -3.8971    0.0000 C   0  0  0  0  0  0  0  0  0  0  0  0
   10.5000   -5.1962    0.0000 N   0  0  0  0  0  0  0  0  0  0  0  0
   10.5000   -2.5981    0.0000 O   0  0  0  0  0  0  0  0  0  0  0  0
    7.5000   -2.5981    0.0000 C   0  0  0  0  0  0  0  0  0  0  0  0
    6.0000   -2.5981    0.0000 C   0  0  0  0  0  0  0  0  0  0  0  0
    1.5000    0.0000    0.0000 C   0  0  0  0  0  0  0  0  0  0  0  0
    0.7500    1.2990    0.0000 C   0  0  0  0  0  0  0  0  0  0  0  0
   -0.7500    1.2990    0.0000 C   0  0  0  0  0  0  0  0  0  0  0  0
   -1.5000    0.0000    0.0000 C   0  0  0  0  0  0  0  0  0  0  0  0
  1  2  1  0
  2  3  1  0
  2  4  1  0
  4  5  2  0
  5  6  1  0
  6  7  1  0
  7  8  2  0
  8  9  1  0
  9 10  2  0
  9 11  1  0
 11 12  2  0
 12 13  1  0
 13 14  1  0
 14 15  2  0
 14 16  1  0
 16 17  1  0
 17 18  1  0
 18 19  1  0
 19 20  1  0
 20 21  1  0
 21 22  1  0
 21 23  2  0
 20 24  1  0
 24 25  1  0
 12 26  1  0
 26 27  2  0
 27 28  1  0
 28 29  2  0
  8  4  1  0
 29 11  1  0
 29  7  1  0
 25 17  1  0
M  END
>  <Compound_ID>  (426) 
CHEMBL359200

>  <Active>  (426) 
1

>  <Smiles>  (426) 
CC(C)c1n[nH]c2c1C(=O)c1c(NC(=O)CN3CCC(C(N)=O)CC3)cccc1-2

>  <canonical_smi>  (426) 
CC(C)c1n[nH]c2c1C(=O)c1c(NC(=O)CN3CCC(C(N)=O)CC3)cccc1-2

>  <Set>  (426) 
G2 active

>  <Set_type>  (426) 
Test

>  <MW>  (426) 
395.46

>  <HBD>  (426) 
3

>  <HBA>  (426) 
5

>  <NRB>  (426) 
5

>  <NR>  (426) 
4

>  <NAR>  (426) 
3

>  <PSA>  (426) 
121.18

>  <Standard Type>  (426) 
nan

>  <Standard Relation>  (426) 
nan

>  <Standard Units>  (426) 
nan

>  <Standard Value>  (426) 
nan

>  <Assay ChEMBL ID>  (426) 
nan

>  <Assay Description>  (426) 
nan

>  <BAO Label>  (426) 
nan

$$$$

     RDKit          2D

 27 31  0  0  0  0  0  0  0  0999 V2000
   -1.7024   10.0935    0.0000 N   0  0  0  0  0  0  0  0  0  0  0  0
   -2.0143    8.6263    0.0000 C   0  0  0  0  0  0  0  0  0  0  0  0
   -0.8995    7.6226    0.0000 C   0  0  0  0  0  0  0  0  0  0  0  0
   -1.2114    6.1554    0.0000 C   0  0  0  0  0  0  0  0  0  0  0  0
   -2.6380    5.6918    0.0000 C   0  0  0  0  0  0  0  0  0  0  0  0
   -2.9499    4.2246    0.0000 N   0  0  0  0  0  0  0  0  0  0  0  0
   -1.8351    3.2209    0.0000 C   0  0  0  0  0  0  0  0  0  0  0  0
   -0.4086    3.6844    0.0000 N   0  0  0  0  0  0  0  0  0  0  0  0
    0.7062    2.6807    0.0000 C   0  0  0  0  0  0  0  0  0  0  0  0
    2.1328    3.1443    0.0000 N   0  0  0  0  0  0  0  0  0  0  0  0
    2.4446    4.6115    0.0000 C   0  0  0  0  0  0  0  0  0  0  0  0
    3.8712    5.0750    0.0000 C   0  0  0  0  0  0  0  0  0  0  0  0
    4.8749    6.1897    0.0000 C   0  0  0  0  0  0  0  0  0  0  0  0
    5.3384    4.7632    0.0000 C   0  0  0  0  0  0  0  0  0  0  0  0
    0.3943    1.2135    0.0000 C   0  0  0  0  0  0  0  0  0  0  0  0
    1.2760    0.0000    0.0000 N   0  0  0  0  0  0  0  0  0  0  0  0
    0.3943   -1.2135    0.0000 C   0  0  0  0  0  0  0  0  0  0  0  0
   -1.0323   -0.7500    0.0000 N   0  0  0  0  0  0  0  0  0  0  0  0
   -2.2458   -1.6317    0.0000 C   0  0  0  0  0  0  0  0  0  0  0  0
   -2.2458   -3.1317    0.0000 C   0  0  0  0  0  0  0  0  0  0  0  0
   -3.6724   -3.5952    0.0000 C   0  0  0  0  0  0  0  0  0  0  0  0
   -4.5541   -2.3817    0.0000 C   0  0  0  0  0  0  0  0  0  0  0  0
   -3.6724   -1.1682    0.0000 C   0  0  0  0  0  0  0  0  0  0  0  0
   -1.0323    0.7500    0.0000 C   0  0  0  0  0  0  0  0  0  0  0  0
   -2.1470    1.7537    0.0000 N   0  0  0  0  0  0  0  0  0  0  0  0
   -3.7527    6.6955    0.0000 C   0  0  0  0  0  0  0  0  0  0  0  0
   -3.4408    8.1628    0.0000 C   0  0  0  0  0  0  0  0  0  0  0  0
  1  2  1  0
  2  3  1  0
  3  4  1  0
  4  5  1  0
  5  6  1  0
  6  7  1  0
  7  8  2  0
  8  9  1  0
  9 10  1  0
 10 11  1  0
 11 12  1  0
 12 13  1  0
 13 14  1  0
  9 15  2  0
 15 16  1  0
 16 17  2  0
 17 18  1  0
 18 19  1  0
 19 20  1  0
 20 21  1  0
 21 22  1  0
 22 23  1  0
 18 24  1  0
 24 25  2  0
  5 26  1  0
 26 27  1  0
 27  2  1  0
 25  7  1  0
 14 12  1  0
 24 15  1  0
 23 19  1  0
M  END
>  <Compound_ID>  (427) 
CHEMBL356034

>  <Active>  (427) 
1

>  <Smiles>  (427) 
NC1CCC(Nc2nc(NCC3CC3)c3ncn(C4CCCC4)c3n2)CC1

>  <canonical_smi>  (427) 
NC1CCC(Nc2nc(NCC3CC3)c3ncn(C4CCCC4)c3n2)CC1

>  <Set>  (427) 
G2 active

>  <Set_type>  (427) 
Test

>  <MW>  (427) 
369.52

>  <HBD>  (427) 
3

>  <HBA>  (427) 
6

>  <NRB>  (427) 
6

>  <NR>  (427) 
5

>  <NAR>  (427) 
2

>  <PSA>  (427) 
93.68

>  <Standard Type>  (427) 
nan

>  <Standard Relation>  (427) 
nan

>  <Standard Units>  (427) 
nan

>  <Standard Value>  (427) 
nan

>  <Assay ChEMBL ID>  (427) 
nan

>  <Assay Description>  (427) 
nan

>  <BAO Label>  (427) 
nan

$$$$

     RDKit          2D

 30 34  0  0  0  0  0  0  0  0999 V2000
   -0.7500   -6.4952    0.0000 C   0  0  0  0  0  0  0  0  0  0  0  0
   -1.5000   -5.1962    0.0000 O   0  0  0  0  0  0  0  0  0  0  0  0
   -0.7500   -3.8971    0.0000 C   0  0  0  0  0  0  0  0  0  0  0  0
    0.7500   -3.8971    0.0000 C   0  0  0  0  0  0  0  0  0  0  0  0
    1.5000   -2.5981    0.0000 C   0  0  0  0  0  0  0  0  0  0  0  0
    0.7500   -1.2990    0.0000 C   0  0  0  0  0  0  0  0  0  0  0  0
    1.5000    0.0000    0.0000 C   0  0  0  0  0  0  0  0  0  0  0  0
    0.7500    1.2990    0.0000 N   0  0  0  0  0  0  0  0  0  0  0  0
   -0.7500    1.2990    0.0000 C   0  0  0  0  0  0  0  0  0  0  0  0
   -1.5000    2.5981    0.0000 N   0  0  0  0  0  0  0  0  0  0  0  0
   -0.7500    3.8971    0.0000 C   0  0  0  0  0  0  0  0  0  0  0  0
    0.7500    3.8971    0.0000 C   0  0  0  0  0  0  0  0  0  0  0  0
    1.5000    5.1962    0.0000 C   0  0  0  0  0  0  0  0  0  0  0  0
    0.7500    6.4952    0.0000 C   0  0  0  0  0  0  0  0  0  0  0  0
    1.5000    7.7942    0.0000 N   0  0  0  0  0  0  0  0  0  0  0  0
    3.0000    7.7942    0.0000 C   0  0  0  0  0  0  0  0  0  0  0  0
    3.7500    9.0933    0.0000 C   0  0  0  0  0  0  0  0  0  0  0  0
    3.0000   10.3923    0.0000 N   0  0  0  0  0  0  0  0  0  0  0  0
    1.5000   10.3923    0.0000 C   0  0  0  0  0  0  0  0  0  0  0  0
    0.7500    9.0933    0.0000 C   0  0  0  0  0  0  0  0  0  0  0  0
   -0.7500    6.4952    0.0000 C   0  0  0  0  0  0  0  0  0  0  0  0
   -1.5000    5.1962    0.0000 C   0  0  0  0  0  0  0  0  0  0  0  0
   -1.5000    0.0000    0.0000 N   0  0  0  0  0  0  0  0  0  0  0  0
   -0.7500   -1.2990    0.0000 C   0  0  0  0  0  0  0  0  0  0  0  0
   -1.5000   -2.5981    0.0000 C   0  0  0  0  0  0  0  0  0  0  0  0
   -3.0000   -2.5981    0.0000 C   0  0  0  0  0  0  0  0  0  0  0  0
   -3.8817   -3.8116    0.0000 C   0  0  0  0  0  0  0  0  0  0  0  0
   -5.3083   -3.3481    0.0000 C   0  0  0  0  0  0  0  0  0  0  0  0
   -5.3083   -1.8481    0.0000 C   0  0  0  0  0  0  0  0  0  0  0  0
   -3.8817   -1.3846    0.0000 C   0  0  0  0  0  0  0  0  0  0  0  0
  1  2  1  0
  2  3  1  0
  3  4  2  0
  4  5  1  0
  5  6  2  0
  6  7  1  0
  7  8  2  0
  8  9  1  0
  9 10  1  0
 10 11  1  0
 11 12  2  0
 12 13  1  0
 13 14  2  0
 14 15  1  0
 15 16  1  0
 16 17  1  0
 17 18  1  0
 18 19  1  0
 19 20  1  0
 14 21  1  0
 21 22  2  0
  9 23  2  0
 23 24  1  0
 24 25  2  0
 25 26  1  0
 26 27  1  0
 27 28  1  0
 28 29  1  0
 29 30  1  0
 25  3  1  0
 30 26  1  0
 24  6  1  0
 22 11  1  0
 20 15  1  0
M  END
>  <Compound_ID>  (428) 
CHEMBL180431

>  <Active>  (428) 
1

>  <Smiles>  (428) 
COc1ccc2cnc(Nc3ccc(N4CCNCC4)cc3)nc2c1C1CCCC1

>  <canonical_smi>  (428) 
COc1ccc2cnc(Nc3ccc(N4CCNCC4)cc3)nc2c1C1CCCC1

>  <Set>  (428) 
G2 active

>  <Set_type>  (428) 
Test

>  <MW>  (428) 
403.53

>  <HBD>  (428) 
2

>  <HBA>  (428) 
6

>  <NRB>  (428) 
5

>  <NR>  (428) 
5

>  <NAR>  (428) 
3

>  <PSA>  (428) 
62.31

>  <Standard Type>  (428) 
nan

>  <Standard Relation>  (428) 
nan

>  <Standard Units>  (428) 
nan

>  <Standard Value>  (428) 
nan

>  <Assay ChEMBL ID>  (428) 
nan

>  <Assay Description>  (428) 
nan

>  <BAO Label>  (428) 
nan

$$$$

     RDKit          2D

 29 33  0  0  0  0  0  0  0  0999 V2000
   -1.5000   -5.1962    0.0000 O   0  0  0  0  0  0  0  0  0  0  0  0
   -0.7500   -3.8971    0.0000 C   0  0  0  0  0  0  0  0  0  0  0  0
    0.7500   -3.8971    0.0000 C   0  0  0  0  0  0  0  0  0  0  0  0
    1.5000   -2.5981    0.0000 C   0  0  0  0  0  0  0  0  0  0  0  0
    0.7500   -1.2990    0.0000 C   0  0  0  0  0  0  0  0  0  0  0  0
    1.5000    0.0000    0.0000 C   0  0  0  0  0  0  0  0  0  0  0  0
    0.7500    1.2990    0.0000 N   0  0  0  0  0  0  0  0  0  0  0  0
   -0.7500    1.2990    0.0000 C   0  0  0  0  0  0  0  0  0  0  0  0
   -1.5000    2.5981    0.0000 N   0  0  0  0  0  0  0  0  0  0  0  0
   -0.7500    3.8971    0.0000 C   0  0  0  0  0  0  0  0  0  0  0  0
    0.7500    3.8971    0.0000 C   0  0  0  0  0  0  0  0  0  0  0  0
    1.5000    5.1962    0.0000 C   0  0  0  0  0  0  0  0  0  0  0  0
    0.7500    6.4952    0.0000 C   0  0  0  0  0  0  0  0  0  0  0  0
    1.5000    7.7942    0.0000 N   0  0  0  0  0  0  0  0  0  0  0  0
    3.0000    7.7942    0.0000 C   0  0  0  0  0  0  0  0  0  0  0  0
    3.7500    9.0933    0.0000 C   0  0  0  0  0  0  0  0  0  0  0  0
    3.0000   10.3923    0.0000 O   0  0  0  0  0  0  0  0  0  0  0  0
    1.5000   10.3923    0.0000 C   0  0  0  0  0  0  0  0  0  0  0  0
    0.7500    9.0933    0.0000 C   0  0  0  0  0  0  0  0  0  0  0  0
   -0.7500    6.4952    0.0000 C   0  0  0  0  0  0  0  0  0  0  0  0
   -1.5000    5.1962    0.0000 C   0  0  0  0  0  0  0  0  0  0  0  0
   -1.5000    0.0000    0.0000 N   0  0  0  0  0  0  0  0  0  0  0  0
   -0.7500   -1.2990    0.0000 C   0  0  0  0  0  0  0  0  0  0  0  0
   -1.5000   -2.5981    0.0000 N   0  0  0  0  0  0  0  0  0  0  0  0
   -3.0000   -2.5981    0.0000 C   0  0  0  0  0  0  0  0  0  0  0  0
   -3.8817   -3.8116    0.0000 C   0  0  0  0  0  0  0  0  0  0  0  0
   -5.3083   -3.3481    0.0000 C   0  0  0  0  0  0  0  0  0  0  0  0
   -5.3083   -1.8481    0.0000 C   0  0  0  0  0  0  0  0  0  0  0  0
   -3.8817   -1.3846    0.0000 C   0  0  0  0  0  0  0  0  0  0  0  0
  1  2  2  0
  2  3  1  0
  3  4  2  0
  4  5  1  0
  5  6  2  0
  6  7  1  0
  7  8  2  0
  8  9  1  0
  9 10  1  0
 10 11  2  0
 11 12  1  0
 12 13  2  0
 13 14  1  0
 14 15  1  0
 15 16  1  0
 16 17  1  0
 17 18  1  0
 18 19  1  0
 13 20  1  0
 20 21  2  0
  8 22  1  0
 22 23  2  0
 23 24  1  0
 24 25  1  0
 25 26  1  0
 26 27  1  0
 27 28  1  0
 28 29  1  0
 24  2  1  0
 29 25  1  0
 23  5  1  0
 21 10  1  0
 19 14  1  0
M  END
>  <Compound_ID>  (429) 
CHEMBL191046

>  <Active>  (429) 
1

>  <Smiles>  (429) 
O=c1ccc2cnc(Nc3ccc(N4CCOCC4)cc3)nc2n1C1CCCC1

>  <canonical_smi>  (429) 
O=c1ccc2cnc(Nc3ccc(N4CCOCC4)cc3)nc2n1C1CCCC1

>  <Set>  (429) 
G2 active

>  <Set_type>  (429) 
Test

>  <MW>  (429) 
391.48

>  <HBD>  (429) 
1

>  <HBA>  (429) 
6

>  <NRB>  (429) 
4

>  <NR>  (429) 
5

>  <NAR>  (429) 
3

>  <PSA>  (429) 
72.28

>  <Standard Type>  (429) 
nan

>  <Standard Relation>  (429) 
nan

>  <Standard Units>  (429) 
nan

>  <Standard Value>  (429) 
nan

>  <Assay ChEMBL ID>  (429) 
nan

>  <Assay Description>  (429) 
nan

>  <BAO Label>  (429) 
nan

$$$$

     RDKit          2D

 32 36  0  0  0  0  0  0  0  0999 V2000
   -8.5234   -7.7536    0.0000 C   0  0  0  0  0  0  0  0  0  0  0  0
   -7.0317   -7.5968    0.0000 O   0  0  0  0  0  0  0  0  0  0  0  0
   -6.4216   -6.2265    0.0000 C   0  0  0  0  0  0  0  0  0  0  0  0
   -7.3032   -5.0129    0.0000 C   0  0  0  0  0  0  0  0  0  0  0  0
   -6.6931   -3.6426    0.0000 C   0  0  0  0  0  0  0  0  0  0  0  0
   -5.2013   -3.4858    0.0000 C   0  0  0  0  0  0  0  0  0  0  0  0
   -4.5912   -2.1155    0.0000 C   0  0  0  0  0  0  0  0  0  0  0  0
   -5.3412   -0.8165    0.0000 N   0  0  0  0  0  0  0  0  0  0  0  0
   -4.3375    0.2982    0.0000 N   0  0  0  0  0  0  0  0  0  0  0  0
   -2.9672   -0.3119    0.0000 C   0  0  0  0  0  0  0  0  0  0  0  0
   -3.1240   -1.8037    0.0000 C   0  0  0  0  0  0  0  0  0  0  0  0
   -1.7537   -2.4138    0.0000 C   0  0  0  0  0  0  0  0  0  0  0  0
   -1.4418   -3.8810    0.0000 O   0  0  0  0  0  0  0  0  0  0  0  0
   -0.7500   -1.2990    0.0000 C   0  0  0  0  0  0  0  0  0  0  0  0
    0.7500   -1.2990    0.0000 C   0  0  0  0  0  0  0  0  0  0  0  0
    1.5000   -2.5981    0.0000 N   0  0  0  0  0  0  0  0  0  0  0  0
    3.0000   -2.5981    0.0000 C   0  0  0  0  0  0  0  0  0  0  0  0
    3.7500   -1.2990    0.0000 O   0  0  0  0  0  0  0  0  0  0  0  0
    3.7500   -3.8971    0.0000 N   0  0  0  0  0  0  0  0  0  0  0  0
    5.2500   -3.8971    0.0000 C   0  0  0  0  0  0  0  0  0  0  0  0
    6.0000   -5.1962    0.0000 C   0  0  0  0  0  0  0  0  0  0  0  0
    5.2500   -6.4952    0.0000 C   0  0  0  0  0  0  0  0  0  0  0  0
    6.0000   -7.7942    0.0000 C   0  0  0  0  0  0  0  0  0  0  0  0
    7.5000   -7.7942    0.0000 N   0  0  0  0  0  0  0  0  0  0  0  0
    8.2500   -6.4952    0.0000 C   0  0  0  0  0  0  0  0  0  0  0  0
    7.5000   -5.1962    0.0000 C   0  0  0  0  0  0  0  0  0  0  0  0
    1.5000    0.0000    0.0000 C   0  0  0  0  0  0  0  0  0  0  0  0
    0.7500    1.2990    0.0000 C   0  0  0  0  0  0  0  0  0  0  0  0
   -0.7500    1.2990    0.0000 C   0  0  0  0  0  0  0  0  0  0  0  0
   -1.5000    0.0000    0.0000 C   0  0  0  0  0  0  0  0  0  0  0  0
   -4.3197   -4.6994    0.0000 C   0  0  0  0  0  0  0  0  0  0  0  0
   -4.9298   -6.0697    0.0000 C   0  0  0  0  0  0  0  0  0  0  0  0
  1  2  1  0
  2  3  1  0
  3  4  2  0
  4  5  1  0
  5  6  2  0
  6  7  1  0
  7  8  1  0
  8  9  1  0
  9 10  2  0
 10 11  1  0
 11 12  1  0
 12 13  2  0
 12 14  1  0
 14 15  2  0
 15 16  1  0
 16 17  1  0
 17 18  2  0
 17 19  1  0
 19 20  1  0
 20 21  1  0
 21 22  2  0
 22 23  1  0
 23 24  2  0
 24 25  1  0
 25 26  2  0
 15 27  1  0
 27 28  2  0
 28 29  1  0
 29 30  2  0
  6 31  1  0
 31 32  2  0
 32  3  1  0
 11  7  2  0
 30 14  1  0
 30 10  1  0
 26 21  1  0
M  END
>  <Compound_ID>  (430) 
CHEMBL147290

>  <Active>  (430) 
1

>  <Smiles>  (430) 
COc1ccc(-c2[nH]nc3c2C(=O)c2c(NC(=O)NCc4ccncc4)cccc2-3)cc1

>  <canonical_smi>  (430) 
COc1ccc(-c2[nH]nc3c2C(=O)c2c(NC(=O)NCc4ccncc4)cccc2-3)cc1

>  <Set>  (430) 
G2 active

>  <Set_type>  (430) 
Test

>  <MW>  (430) 
425.45

>  <HBD>  (430) 
3

>  <HBA>  (430) 
5

>  <NRB>  (430) 
5

>  <NR>  (430) 
5

>  <NAR>  (430) 
5

>  <PSA>  (430) 
109.0

>  <Standard Type>  (430) 
nan

>  <Standard Relation>  (430) 
nan

>  <Standard Units>  (430) 
nan

>  <Standard Value>  (430) 
nan

>  <Assay ChEMBL ID>  (430) 
nan

>  <Assay Description>  (430) 
nan

>  <BAO Label>  (430) 
nan

$$$$

     RDKit          2D

 35 39  0  0  0  0  0  0  0  0999 V2000
   -2.2447   -8.9500    0.0000 C   0  0  0  0  0  0  0  0  0  0  0  0
   -2.5565   -7.4827    0.0000 N   0  0  0  0  0  0  0  0  0  0  0  0
   -1.4418   -6.4791    0.0000 C   0  0  0  0  0  0  0  0  0  0  0  0
   -0.0152   -6.9426    0.0000 O   0  0  0  0  0  0  0  0  0  0  0  0
   -1.7537   -5.0118    0.0000 C   0  0  0  0  0  0  0  0  0  0  0  0
   -3.1240   -4.4017    0.0000 N   0  0  0  0  0  0  0  0  0  0  0  0
   -2.9672   -2.9099    0.0000 N   0  0  0  0  0  0  0  0  0  0  0  0
   -4.0819   -1.9062    0.0000 C   0  0  0  0  0  0  0  0  0  0  0  0
   -1.5000   -2.5981    0.0000 C   0  0  0  0  0  0  0  0  0  0  0  0
   -0.7500   -3.8971    0.0000 C   0  0  0  0  0  0  0  0  0  0  0  0
    0.7500   -3.8971    0.0000 C   0  0  0  0  0  0  0  0  0  0  0  0
    2.1595   -4.4101    0.0000 C   0  0  0  0  0  0  0  0  0  0  0  0
    0.4895   -5.3743    0.0000 C   0  0  0  0  0  0  0  0  0  0  0  0
    1.5000   -2.5981    0.0000 C   0  0  0  0  0  0  0  0  0  0  0  0
    0.7500   -1.2990    0.0000 C   0  0  0  0  0  0  0  0  0  0  0  0
    1.5000    0.0000    0.0000 C   0  0  0  0  0  0  0  0  0  0  0  0
    0.7500    1.2990    0.0000 N   0  0  0  0  0  0  0  0  0  0  0  0
   -0.7500    1.2990    0.0000 C   0  0  0  0  0  0  0  0  0  0  0  0
   -1.5000    2.5981    0.0000 N   0  0  0  0  0  0  0  0  0  0  0  0
   -0.7500    3.8971    0.0000 C   0  0  0  0  0  0  0  0  0  0  0  0
    0.7500    3.8971    0.0000 C   0  0  0  0  0  0  0  0  0  0  0  0
    1.5000    5.1962    0.0000 C   0  0  0  0  0  0  0  0  0  0  0  0
    0.7500    6.4952    0.0000 C   0  0  0  0  0  0  0  0  0  0  0  0
    1.5000    7.7942    0.0000 O   0  0  0  0  0  0  0  0  0  0  0  0
    3.0000    7.7942    0.0000 C   0  0  0  0  0  0  0  0  0  0  0  0
    3.7500    6.4952    0.0000 C   0  0  0  0  0  0  0  0  0  0  0  0
    5.2500    6.4952    0.0000 C   0  0  0  0  0  0  0  0  0  0  0  0
    6.0000    7.7942    0.0000 N   0  0  0  0  0  0  0  0  0  0  0  0
    7.5000    7.7942    0.0000 C   0  0  0  0  0  0  0  0  0  0  0  0
    5.2500    9.0933    0.0000 C   0  0  0  0  0  0  0  0  0  0  0  0
    3.7500    9.0933    0.0000 C   0  0  0  0  0  0  0  0  0  0  0  0
   -0.7500    6.4952    0.0000 C   0  0  0  0  0  0  0  0  0  0  0  0
   -1.5000    5.1962    0.0000 C   0  0  0  0  0  0  0  0  0  0  0  0
   -1.5000    0.0000    0.0000 N   0  0  0  0  0  0  0  0  0  0  0  0
   -0.7500   -1.2990    0.0000 C   0  0  0  0  0  0  0  0  0  0  0  0
  1  2  1  0
  2  3  1  0
  3  4  2  0
  3  5  1  0
  5  6  2  0
  6  7  1  0
  7  8  1  0
  7  9  1  0
  9 10  2  0
 10 11  1  0
 11 12  1  0
 11 13  1  0
 11 14  1  0
 14 15  1  0
 15 16  2  0
 16 17  1  0
 17 18  2  0
 18 19  1  0
 19 20  1  0
 20 21  2  0
 21 22  1  0
 22 23  2  0
 23 24  1  0
 24 25  1  0
 25 26  1  0
 26 27  1  0
 27 28  1  0
 28 29  1  0
 28 30  1  0
 30 31  1  0
 23 32  1  0
 32 33  2  0
 18 34  1  0
 34 35  2  0
 10  5  1  0
 35 15  1  0
 35  9  1  0
 33 20  1  0
 31 25  1  0
M  END
>  <Compound_ID>  (431) 
CHEMBL565137

>  <Active>  (431) 
1

>  <Smiles>  (431) 
CNC(=O)c1nn(C)c2c1C(C)(C)Cc1cnc(Nc3ccc(OC4CCN(C)CC4)cc3)nc1-2

>  <canonical_smi>  (431) 
CNC(=O)c1nn(C)c2c1C(C)(C)Cc1cnc(Nc3ccc(OC4CCN(C)CC4)cc3)nc1-2

>  <Set>  (431) 
G2 active

>  <Set_type>  (431) 
Test

>  <MW>  (431) 
475.6

>  <HBD>  (431) 
2

>  <HBA>  (431) 
7

>  <NRB>  (431) 
5

>  <NR>  (431) 
5

>  <NAR>  (431) 
3

>  <PSA>  (431) 
97.2

>  <Standard Type>  (431) 
nan

>  <Standard Relation>  (431) 
nan

>  <Standard Units>  (431) 
nan

>  <Standard Value>  (431) 
nan

>  <Assay ChEMBL ID>  (431) 
nan

>  <Assay Description>  (431) 
nan

>  <BAO Label>  (431) 
nan

$$$$

     RDKit          2D

 38 43  0  0  0  0  0  0  0  0999 V2000
   -8.5234   -7.7536    0.0000 C   0  0  0  0  0  0  0  0  0  0  0  0
   -7.0317   -7.5968    0.0000 O   0  0  0  0  0  0  0  0  0  0  0  0
   -6.4216   -6.2265    0.0000 C   0  0  0  0  0  0  0  0  0  0  0  0
   -7.3032   -5.0129    0.0000 C   0  0  0  0  0  0  0  0  0  0  0  0
   -6.6931   -3.6426    0.0000 C   0  0  0  0  0  0  0  0  0  0  0  0
   -5.2013   -3.4858    0.0000 C   0  0  0  0  0  0  0  0  0  0  0  0
   -4.5912   -2.1155    0.0000 C   0  0  0  0  0  0  0  0  0  0  0  0
   -5.3412   -0.8165    0.0000 N   0  0  0  0  0  0  0  0  0  0  0  0
   -4.3375    0.2982    0.0000 N   0  0  0  0  0  0  0  0  0  0  0  0
   -2.9672   -0.3119    0.0000 C   0  0  0  0  0  0  0  0  0  0  0  0
   -3.1240   -1.8037    0.0000 C   0  0  0  0  0  0  0  0  0  0  0  0
   -1.7537   -2.4138    0.0000 C   0  0  0  0  0  0  0  0  0  0  0  0
   -1.4418   -3.8810    0.0000 O   0  0  0  0  0  0  0  0  0  0  0  0
   -0.7500   -1.2990    0.0000 C   0  0  0  0  0  0  0  0  0  0  0  0
    0.7500   -1.2990    0.0000 C   0  0  0  0  0  0  0  0  0  0  0  0
    1.5000   -2.5981    0.0000 N   0  0  0  0  0  0  0  0  0  0  0  0
    3.0000   -2.5981    0.0000 C   0  0  0  0  0  0  0  0  0  0  0  0
    3.7500   -1.2990    0.0000 O   0  0  0  0  0  0  0  0  0  0  0  0
    3.7500   -3.8971    0.0000 N   0  0  0  0  0  0  0  0  0  0  0  0
    5.2500   -3.8971    0.0000 N   0  0  0  0  0  0  0  0  0  0  0  0
    6.0000   -5.1962    0.0000 C   0  0  0  0  0  0  0  0  0  0  0  0
    5.2500   -6.4952    0.0000 O   0  0  0  0  0  0  0  0  0  0  0  0
    7.5000   -5.1962    0.0000 C   0  0  0  0  0  0  0  0  0  0  0  0
    8.2500   -3.8971    0.0000 C   0  0  0  0  0  0  0  0  0  0  0  0
    9.7500   -3.8971    0.0000 C   0  0  0  0  0  0  0  0  0  0  0  0
   10.5000   -5.1962    0.0000 C   0  0  0  0  0  0  0  0  0  0  0  0
   12.0000   -5.1962    0.0000 C   0  0  0  0  0  0  0  0  0  0  0  0
   12.7500   -6.4952    0.0000 C   0  0  0  0  0  0  0  0  0  0  0  0
   12.0000   -7.7942    0.0000 C   0  0  0  0  0  0  0  0  0  0  0  0
   10.5000   -7.7942    0.0000 C   0  0  0  0  0  0  0  0  0  0  0  0
    9.7500   -6.4952    0.0000 C   0  0  0  0  0  0  0  0  0  0  0  0
    8.2500   -6.4952    0.0000 C   0  0  0  0  0  0  0  0  0  0  0  0
    1.5000    0.0000    0.0000 C   0  0  0  0  0  0  0  0  0  0  0  0
    0.7500    1.2990    0.0000 C   0  0  0  0  0  0  0  0  0  0  0  0
   -0.7500    1.2990    0.0000 C   0  0  0  0  0  0  0  0  0  0  0  0
   -1.5000    0.0000    0.0000 C   0  0  0  0  0  0  0  0  0  0  0  0
   -4.3197   -4.6994    0.0000 C   0  0  0  0  0  0  0  0  0  0  0  0
   -4.9298   -6.0697    0.0000 C   0  0  0  0  0  0  0  0  0  0  0  0
  1  2  1  0
  2  3  1  0
  3  4  2  0
  4  5  1  0
  5  6  2  0
  6  7  1  0
  7  8  1  0
  8  9  1  0
  9 10  2  0
 10 11  1  0
 11 12  1  0
 12 13  2  0
 12 14  1  0
 14 15  2  0
 15 16  1  0
 16 17  1  0
 17 18  2  0
 17 19  1  0
 19 20  1  0
 20 21  1  0
 21 22  2  0
 21 23  1  0
 23 24  2  0
 24 25  1  0
 25 26  2  0
 26 27  1  0
 27 28  2  0
 28 29  1  0
 29 30  2  0
 30 31  1  0
 31 32  2  0
 15 33  1  0
 33 34  2  0
 34 35  1  0
 35 36  2  0
  6 37  1  0
 37 38  2  0
 38  3  1  0
 11  7  2  0
 36 14  1  0
 36 10  1  0
 32 23  1  0
 31 26  1  0
M  END
>  <Compound_ID>  (432) 
CHEMBL185781

>  <Active>  (432) 
1

>  <Smiles>  (432) 
COc1ccc(-c2[nH]nc3c2C(=O)c2c(NC(=O)NNC(=O)c4ccc5ccccc5c4)cccc2-3)cc1

>  <canonical_smi>  (432) 
COc1ccc(-c2[nH]nc3c2C(=O)c2c(NC(=O)NNC(=O)c4ccc5ccccc5c4)cccc2-3)cc1

>  <Set>  (432) 
G2 active

>  <Set_type>  (432) 
Test

>  <MW>  (432) 
503.52

>  <HBD>  (432) 
4

>  <HBA>  (432) 
5

>  <NRB>  (432) 
4

>  <NR>  (432) 
6

>  <NAR>  (432) 
6

>  <PSA>  (432) 
125.21

>  <Standard Type>  (432) 
nan

>  <Standard Relation>  (432) 
nan

>  <Standard Units>  (432) 
nan

>  <Standard Value>  (432) 
nan

>  <Assay ChEMBL ID>  (432) 
nan

>  <Assay Description>  (432) 
nan

>  <BAO Label>  (432) 
nan

$$$$

     RDKit          2D

 35 39  0  0  0  0  0  0  0  0999 V2000
   -8.5234   -7.7536    0.0000 C   0  0  0  0  0  0  0  0  0  0  0  0
   -7.0317   -7.5968    0.0000 O   0  0  0  0  0  0  0  0  0  0  0  0
   -6.4216   -6.2265    0.0000 C   0  0  0  0  0  0  0  0  0  0  0  0
   -7.3032   -5.0129    0.0000 C   0  0  0  0  0  0  0  0  0  0  0  0
   -6.6931   -3.6426    0.0000 C   0  0  0  0  0  0  0  0  0  0  0  0
   -5.2013   -3.4858    0.0000 C   0  0  0  0  0  0  0  0  0  0  0  0
   -4.5912   -2.1155    0.0000 C   0  0  0  0  0  0  0  0  0  0  0  0
   -5.3412   -0.8165    0.0000 N   0  0  0  0  0  0  0  0  0  0  0  0
   -4.3375    0.2982    0.0000 N   0  0  0  0  0  0  0  0  0  0  0  0
   -2.9672   -0.3119    0.0000 C   0  0  0  0  0  0  0  0  0  0  0  0
   -3.1240   -1.8037    0.0000 C   0  0  0  0  0  0  0  0  0  0  0  0
   -1.7537   -2.4138    0.0000 C   0  0  0  0  0  0  0  0  0  0  0  0
   -1.4418   -3.8810    0.0000 O   0  0  0  0  0  0  0  0  0  0  0  0
   -0.7500   -1.2990    0.0000 C   0  0  0  0  0  0  0  0  0  0  0  0
    0.7500   -1.2990    0.0000 C   0  0  0  0  0  0  0  0  0  0  0  0
    1.5000   -2.5981    0.0000 N   0  0  0  0  0  0  0  0  0  0  0  0
    3.0000   -2.5981    0.0000 C   0  0  0  0  0  0  0  0  0  0  0  0
    3.7500   -1.2990    0.0000 O   0  0  0  0  0  0  0  0  0  0  0  0
    3.7500   -3.8971    0.0000 N   0  0  0  0  0  0  0  0  0  0  0  0
    5.2500   -3.8971    0.0000 N   0  0  0  0  0  0  0  0  0  0  0  0
    6.0000   -5.1962    0.0000 C   0  0  0  0  0  0  0  0  0  0  0  0
    5.2500   -6.4952    0.0000 O   0  0  0  0  0  0  0  0  0  0  0  0
    7.5000   -5.1962    0.0000 C   0  0  0  0  0  0  0  0  0  0  0  0
    8.2500   -6.4952    0.0000 C   0  0  0  0  0  0  0  0  0  0  0  0
    7.5000   -7.7942    0.0000 C   0  0  0  0  0  0  0  0  0  0  0  0
    8.2500   -9.0933    0.0000 C   0  0  0  0  0  0  0  0  0  0  0  0
    9.7500   -9.0933    0.0000 C   0  0  0  0  0  0  0  0  0  0  0  0
   10.5000   -7.7942    0.0000 C   0  0  0  0  0  0  0  0  0  0  0  0
    9.7500   -6.4952    0.0000 C   0  0  0  0  0  0  0  0  0  0  0  0
    1.5000    0.0000    0.0000 C   0  0  0  0  0  0  0  0  0  0  0  0
    0.7500    1.2990    0.0000 C   0  0  0  0  0  0  0  0  0  0  0  0
   -0.7500    1.2990    0.0000 C   0  0  0  0  0  0  0  0  0  0  0  0
   -1.5000    0.0000    0.0000 C   0  0  0  0  0  0  0  0  0  0  0  0
   -4.3197   -4.6994    0.0000 C   0  0  0  0  0  0  0  0  0  0  0  0
   -4.9298   -6.0697    0.0000 C   0  0  0  0  0  0  0  0  0  0  0  0
  1  2  1  0
  2  3  1  0
  3  4  2  0
  4  5  1  0
  5  6  2  0
  6  7  1  0
  7  8  1  0
  8  9  1  0
  9 10  2  0
 10 11  1  0
 11 12  1  0
 12 13  2  0
 12 14  1  0
 14 15  2  0
 15 16  1  0
 16 17  1  0
 17 18  2  0
 17 19  1  0
 19 20  1  0
 20 21  1  0
 21 22  2  0
 21 23  1  0
 23 24  1  0
 24 25  2  0
 25 26  1  0
 26 27  2  0
 27 28  1  0
 28 29  2  0
 15 30  1  0
 30 31  2  0
 31 32  1  0
 32 33  2  0
  6 34  1  0
 34 35  2  0
 35  3  1  0
 11  7  2  0
 33 14  1  0
 33 10  1  0
 29 24  1  0
M  END
>  <Compound_ID>  (433) 
CHEMBL187913

>  <Active>  (433) 
1

>  <Smiles>  (433) 
COc1ccc(-c2[nH]nc3c2C(=O)c2c(NC(=O)NNC(=O)Cc4ccccc4)cccc2-3)cc1

>  <canonical_smi>  (433) 
COc1ccc(-c2[nH]nc3c2C(=O)c2c(NC(=O)NNC(=O)Cc4ccccc4)cccc2-3)cc1

>  <Set>  (433) 
G2 active

>  <Set_type>  (433) 
Test

>  <MW>  (433) 
467.49

>  <HBD>  (433) 
4

>  <HBA>  (433) 
5

>  <NRB>  (433) 
5

>  <NR>  (433) 
5

>  <NAR>  (433) 
5

>  <PSA>  (433) 
125.21

>  <Standard Type>  (433) 
nan

>  <Standard Relation>  (433) 
nan

>  <Standard Units>  (433) 
nan

>  <Standard Value>  (433) 
nan

>  <Assay ChEMBL ID>  (433) 
nan

>  <Assay Description>  (433) 
nan

>  <BAO Label>  (433) 
nan

$$$$

     RDKit          2D

 21 23  0  0  0  0  0  0  0  0999 V2000
    3.5260   -1.2990    0.0000 N   0  0  0  0  0  0  0  0  0  0  0  0
    2.7760    0.0000    0.0000 C   0  0  0  0  0  0  0  0  0  0  0  0
    3.5260    1.2990    0.0000 O   0  0  0  0  0  0  0  0  0  0  0  0
    1.2760    0.0000    0.0000 N   0  0  0  0  0  0  0  0  0  0  0  0
    0.3943    1.2135    0.0000 C   0  0  0  0  0  0  0  0  0  0  0  0
   -1.0323    0.7500    0.0000 C   0  0  0  0  0  0  0  0  0  0  0  0
   -2.4589    1.2135    0.0000 N   0  0  0  0  0  0  0  0  0  0  0  0
   -3.3405    0.0000    0.0000 N   0  0  0  0  0  0  0  0  0  0  0  0
   -2.4589   -1.2135    0.0000 C   0  0  0  0  0  0  0  0  0  0  0  0
   -2.9224   -2.6401    0.0000 N   0  0  0  0  0  0  0  0  0  0  0  0
   -4.3896   -2.9520    0.0000 C   0  0  0  0  0  0  0  0  0  0  0  0
   -5.3933   -1.8373    0.0000 O   0  0  0  0  0  0  0  0  0  0  0  0
   -4.8531   -4.3786    0.0000 C   0  0  0  0  0  0  0  0  0  0  0  0
   -6.3204   -4.6904    0.0000 C   0  0  0  0  0  0  0  0  0  0  0  0
   -7.3241   -3.5757    0.0000 C   0  0  0  0  0  0  0  0  0  0  0  0
   -8.7913   -3.8876    0.0000 C   0  0  0  0  0  0  0  0  0  0  0  0
   -9.2548   -5.3142    0.0000 C   0  0  0  0  0  0  0  0  0  0  0  0
   -8.2511   -6.4289    0.0000 C   0  0  0  0  0  0  0  0  0  0  0  0
   -6.7839   -6.1170    0.0000 C   0  0  0  0  0  0  0  0  0  0  0  0
   -1.0323   -0.7500    0.0000 C   0  0  0  0  0  0  0  0  0  0  0  0
    0.3943   -1.2135    0.0000 C   0  0  0  0  0  0  0  0  0  0  0  0
  1  2  1  0
  2  3  2  0
  2  4  1  0
  4  5  1  0
  5  6  1  0
  6  7  2  0
  7  8  1  0
  8  9  1  0
  9 10  1  0
 10 11  1  0
 11 12  2  0
 11 13  1  0
 13 14  1  0
 14 15  2  0
 15 16  1  0
 16 17  2  0
 17 18  1  0
 18 19  2  0
  9 20  2  0
 20 21  1  0
 21  4  1  0
 20  6  1  0
 19 14  1  0
M  END
>  <Compound_ID>  (434) 
CHEMBL378584

>  <Active>  (434) 
1

>  <Smiles>  (434) 
NC(=O)N1Cc2n[nH]c(NC(=O)Cc3ccccc3)c2C1

>  <canonical_smi>  (434) 
NC(=O)N1Cc2n[nH]c(NC(=O)Cc3ccccc3)c2C1

>  <Set>  (434) 
G2 active

>  <Set_type>  (434) 
Test

>  <MW>  (434) 
285.31

>  <HBD>  (434) 
3

>  <HBA>  (434) 
3

>  <NRB>  (434) 
3

>  <NR>  (434) 
3

>  <NAR>  (434) 
2

>  <PSA>  (434) 
104.11

>  <Standard Type>  (434) 
nan

>  <Standard Relation>  (434) 
nan

>  <Standard Units>  (434) 
nan

>  <Standard Value>  (434) 
nan

>  <Assay ChEMBL ID>  (434) 
nan

>  <Assay Description>  (434) 
nan

>  <BAO Label>  (434) 
nan

$$$$

     RDKit          2D

 32 36  0  0  0  0  0  0  0  0999 V2000
   -1.8373   -5.6601    0.0000 O   0  0  0  0  0  0  0  0  0  0  0  0
   -2.9520   -4.6564    0.0000 C   0  0  0  0  0  0  0  0  0  0  0  0
   -4.3786   -5.1199    0.0000 C   0  0  0  0  0  0  0  0  0  0  0  0
   -4.6904   -6.5871    0.0000 C   0  0  0  0  0  0  0  0  0  0  0  0
   -6.1170   -7.0506    0.0000 C   0  0  0  0  0  0  0  0  0  0  0  0
   -6.4289   -8.5179    0.0000 C   0  0  0  0  0  0  0  0  0  0  0  0
   -5.3142   -9.5216    0.0000 C   0  0  0  0  0  0  0  0  0  0  0  0
   -5.6260  -10.9888    0.0000 C   0  0  0  0  0  0  0  0  0  0  0  0
   -7.0526  -11.4523    0.0000 C   0  0  0  0  0  0  0  0  0  0  0  0
   -7.3645  -12.9195    0.0000 C   0  0  0  0  0  0  0  0  0  0  0  0
   -6.2498  -13.9232    0.0000 N   0  0  0  0  0  0  0  0  0  0  0  0
   -4.8232  -13.4597    0.0000 C   0  0  0  0  0  0  0  0  0  0  0  0
   -4.5113  -11.9925    0.0000 C   0  0  0  0  0  0  0  0  0  0  0  0
   -3.8876   -9.0580    0.0000 C   0  0  0  0  0  0  0  0  0  0  0  0
   -3.5757   -7.5908    0.0000 C   0  0  0  0  0  0  0  0  0  0  0  0
   -2.6401   -3.1891    0.0000 N   0  0  0  0  0  0  0  0  0  0  0  0
   -1.2135   -2.7256    0.0000 C   0  0  0  0  0  0  0  0  0  0  0  0
   -0.0000   -3.6073    0.0000 N   0  0  0  0  0  0  0  0  0  0  0  0
    1.2135   -2.7256    0.0000 N   0  0  0  0  0  0  0  0  0  0  0  0
    0.7500   -1.2990    0.0000 C   0  0  0  0  0  0  0  0  0  0  0  0
    1.5000    0.0000    0.0000 C   0  0  0  0  0  0  0  0  0  0  0  0
    0.7500    1.2990    0.0000 C   0  0  0  0  0  0  0  0  0  0  0  0
   -0.7500    1.2990    0.0000 C   0  0  0  0  0  0  0  0  0  0  0  0
   -1.5000    2.5981    0.0000 N   0  0  0  0  0  0  0  0  0  0  0  0
   -2.9918    2.7549    0.0000 C   0  0  0  0  0  0  0  0  0  0  0  0
   -3.3037    4.2221    0.0000 C   0  0  0  0  0  0  0  0  0  0  0  0
   -2.0046    4.9721    0.0000 C   0  0  0  0  0  0  0  0  0  0  0  0
   -0.8899    3.9684    0.0000 S   0  0  0  0  0  0  0  0  0  0  0  0
   -0.0082    5.1819    0.0000 O   0  0  0  0  0  0  0  0  0  0  0  0
    0.4091    3.2184    0.0000 O   0  0  0  0  0  0  0  0  0  0  0  0
   -1.5000    0.0000    0.0000 C   0  0  0  0  0  0  0  0  0  0  0  0
   -0.7500   -1.2990    0.0000 C   0  0  0  0  0  0  0  0  0  0  0  0
  1  2  2  0
  2  3  1  0
  3  4  1  0
  4  5  2  0
  5  6  1  0
  6  7  2  0
  7  8  1  0
  8  9  2  0
  9 10  1  0
 10 11  2  0
 11 12  1  0
 12 13  2  0
  7 14  1  0
 14 15  2  0
  2 16  1  0
 16 17  1  0
 17 18  2  0
 18 19  1  0
 19 20  1  0
 20 21  2  0
 21 22  1  0
 22 23  2  0
 23 24  1  0
 24 25  1  0
 25 26  1  0
 26 27  1  0
 27 28  1  0
 28 29  2  0
 28 30  2  0
 23 31  1  0
 31 32  2  0
 15  4  1  0
 32 17  1  0
 13  8  1  0
 32 20  1  0
 28 24  1  0
M  END
>  <Compound_ID>  (435) 
CHEMBL254171

>  <Active>  (435) 
1

>  <Smiles>  (435) 
O=C(Cc1ccc(-c2ccncc2)cc1)Nc1n[nH]c2ccc(N3CCCS3(=O)=O)cc12

>  <canonical_smi>  (435) 
O=C(Cc1ccc(-c2ccncc2)cc1)Nc1n[nH]c2ccc(N3CCCS3(=O)=O)cc12

>  <Set>  (435) 
G2 active

>  <Set_type>  (435) 
Test

>  <MW>  (435) 
447.52

>  <HBD>  (435) 
2

>  <HBA>  (435) 
5

>  <NRB>  (435) 
5

>  <NR>  (435) 
5

>  <NAR>  (435) 
4

>  <PSA>  (435) 
108.05

>  <Standard Type>  (435) 
nan

>  <Standard Relation>  (435) 
nan

>  <Standard Units>  (435) 
nan

>  <Standard Value>  (435) 
nan

>  <Assay ChEMBL ID>  (435) 
nan

>  <Assay Description>  (435) 
nan

>  <BAO Label>  (435) 
nan

$$$$

     RDKit          2D

 32 36  0  0  0  0  0  0  0  0999 V2000
   -1.8373   -5.6601    0.0000 O   0  0  0  0  0  0  0  0  0  0  0  0
   -2.9520   -4.6564    0.0000 C   0  0  0  0  0  0  0  0  0  0  0  0
   -4.3786   -5.1199    0.0000 C   0  0  0  0  0  0  0  0  0  0  0  0
   -4.6904   -6.5871    0.0000 C   0  0  0  0  0  0  0  0  0  0  0  0
   -6.1170   -7.0506    0.0000 C   0  0  0  0  0  0  0  0  0  0  0  0
   -6.4289   -8.5179    0.0000 C   0  0  0  0  0  0  0  0  0  0  0  0
   -5.3142   -9.5216    0.0000 C   0  0  0  0  0  0  0  0  0  0  0  0
   -5.6260  -10.9888    0.0000 N   0  0  0  0  0  0  0  0  0  0  0  0
   -7.0526  -11.4523    0.0000 C   0  0  0  0  0  0  0  0  0  0  0  0
   -7.3645  -12.9195    0.0000 C   0  0  0  0  0  0  0  0  0  0  0  0
   -6.2498  -13.9232    0.0000 C   0  0  0  0  0  0  0  0  0  0  0  0
   -4.8232  -13.4597    0.0000 C   0  0  0  0  0  0  0  0  0  0  0  0
   -4.5113  -11.9925    0.0000 C   0  0  0  0  0  0  0  0  0  0  0  0
   -3.8876   -9.0580    0.0000 C   0  0  0  0  0  0  0  0  0  0  0  0
   -3.5757   -7.5908    0.0000 C   0  0  0  0  0  0  0  0  0  0  0  0
   -2.6401   -3.1891    0.0000 N   0  0  0  0  0  0  0  0  0  0  0  0
   -1.2135   -2.7256    0.0000 C   0  0  0  0  0  0  0  0  0  0  0  0
   -0.0000   -3.6073    0.0000 N   0  0  0  0  0  0  0  0  0  0  0  0
    1.2135   -2.7256    0.0000 N   0  0  0  0  0  0  0  0  0  0  0  0
    0.7500   -1.2990    0.0000 C   0  0  0  0  0  0  0  0  0  0  0  0
    1.5000    0.0000    0.0000 C   0  0  0  0  0  0  0  0  0  0  0  0
    0.7500    1.2990    0.0000 C   0  0  0  0  0  0  0  0  0  0  0  0
   -0.7500    1.2990    0.0000 C   0  0  0  0  0  0  0  0  0  0  0  0
   -1.5000    2.5981    0.0000 N   0  0  0  0  0  0  0  0  0  0  0  0
   -2.9918    2.7549    0.0000 C   0  0  0  0  0  0  0  0  0  0  0  0
   -3.3037    4.2221    0.0000 C   0  0  0  0  0  0  0  0  0  0  0  0
   -2.0046    4.9721    0.0000 C   0  0  0  0  0  0  0  0  0  0  0  0
   -0.8899    3.9684    0.0000 S   0  0  0  0  0  0  0  0  0  0  0  0
   -0.0082    5.1819    0.0000 O   0  0  0  0  0  0  0  0  0  0  0  0
    0.4091    3.2184    0.0000 O   0  0  0  0  0  0  0  0  0  0  0  0
   -1.5000    0.0000    0.0000 C   0  0  0  0  0  0  0  0  0  0  0  0
   -0.7500   -1.2990    0.0000 C   0  0  0  0  0  0  0  0  0  0  0  0
  1  2  2  0
  2  3  1  0
  3  4  1  0
  4  5  2  0
  5  6  1  0
  6  7  2  0
  7  8  1  0
  8  9  1  0
  9 10  1  0
 10 11  1  0
 11 12  1  0
 12 13  1  0
  7 14  1  0
 14 15  2  0
  2 16  1  0
 16 17  1  0
 17 18  2  0
 18 19  1  0
 19 20  1  0
 20 21  2  0
 21 22  1  0
 22 23  2  0
 23 24  1  0
 24 25  1  0
 25 26  1  0
 26 27  1  0
 27 28  1  0
 28 29  2  0
 28 30  2  0
 23 31  1  0
 31 32  2  0
 15  4  1  0
 32 17  1  0
 13  8  1  0
 32 20  1  0
 28 24  1  0
M  END
>  <Compound_ID>  (436) 
CHEMBL258040

>  <Active>  (436) 
1

>  <Smiles>  (436) 
O=C(Cc1ccc(N2CCCCC2)cc1)Nc1n[nH]c2ccc(N3CCCS3(=O)=O)cc12

>  <canonical_smi>  (436) 
O=C(Cc1ccc(N2CCCCC2)cc1)Nc1n[nH]c2ccc(N3CCCS3(=O)=O)cc12

>  <Set>  (436) 
G2 active

>  <Set_type>  (436) 
Test

>  <MW>  (436) 
453.57

>  <HBD>  (436) 
2

>  <HBA>  (436) 
5

>  <NRB>  (436) 
5

>  <NR>  (436) 
5

>  <NAR>  (436) 
3

>  <PSA>  (436) 
98.4

>  <Standard Type>  (436) 
nan

>  <Standard Relation>  (436) 
nan

>  <Standard Units>  (436) 
nan

>  <Standard Value>  (436) 
nan

>  <Assay ChEMBL ID>  (436) 
nan

>  <Assay Description>  (436) 
nan

>  <BAO Label>  (436) 
nan

$$$$

     RDKit          2D

 31 35  0  0  0  0  0  0  0  0999 V2000
   -8.5234   -7.7536    0.0000 C   0  0  0  0  0  0  0  0  0  0  0  0
   -7.0317   -7.5968    0.0000 O   0  0  0  0  0  0  0  0  0  0  0  0
   -6.4216   -6.2265    0.0000 C   0  0  0  0  0  0  0  0  0  0  0  0
   -7.3032   -5.0129    0.0000 C   0  0  0  0  0  0  0  0  0  0  0  0
   -6.6931   -3.6426    0.0000 C   0  0  0  0  0  0  0  0  0  0  0  0
   -5.2013   -3.4858    0.0000 C   0  0  0  0  0  0  0  0  0  0  0  0
   -4.5912   -2.1155    0.0000 C   0  0  0  0  0  0  0  0  0  0  0  0
   -5.3412   -0.8165    0.0000 N   0  0  0  0  0  0  0  0  0  0  0  0
   -4.3375    0.2982    0.0000 N   0  0  0  0  0  0  0  0  0  0  0  0
   -2.9672   -0.3119    0.0000 C   0  0  0  0  0  0  0  0  0  0  0  0
   -3.1240   -1.8037    0.0000 C   0  0  0  0  0  0  0  0  0  0  0  0
   -1.7537   -2.4138    0.0000 C   0  0  0  0  0  0  0  0  0  0  0  0
   -1.4418   -3.8810    0.0000 O   0  0  0  0  0  0  0  0  0  0  0  0
   -0.7500   -1.2990    0.0000 C   0  0  0  0  0  0  0  0  0  0  0  0
    0.7500   -1.2990    0.0000 C   0  0  0  0  0  0  0  0  0  0  0  0
    1.5000   -2.5981    0.0000 N   0  0  0  0  0  0  0  0  0  0  0  0
    3.0000   -2.5981    0.0000 C   0  0  0  0  0  0  0  0  0  0  0  0
    3.7500   -1.2990    0.0000 O   0  0  0  0  0  0  0  0  0  0  0  0
    3.7500   -3.8971    0.0000 N   0  0  0  0  0  0  0  0  0  0  0  0
    5.2500   -3.8971    0.0000 C   0  0  0  0  0  0  0  0  0  0  0  0
    6.0000   -5.1962    0.0000 C   0  0  0  0  0  0  0  0  0  0  0  0
    7.5000   -5.1962    0.0000 C   0  0  0  0  0  0  0  0  0  0  0  0
    8.2500   -3.8971    0.0000 C   0  0  0  0  0  0  0  0  0  0  0  0
    7.5000   -2.5981    0.0000 C   0  0  0  0  0  0  0  0  0  0  0  0
    6.0000   -2.5981    0.0000 C   0  0  0  0  0  0  0  0  0  0  0  0
    1.5000    0.0000    0.0000 C   0  0  0  0  0  0  0  0  0  0  0  0
    0.7500    1.2990    0.0000 C   0  0  0  0  0  0  0  0  0  0  0  0
   -0.7500    1.2990    0.0000 C   0  0  0  0  0  0  0  0  0  0  0  0
   -1.5000    0.0000    0.0000 C   0  0  0  0  0  0  0  0  0  0  0  0
   -4.3197   -4.6994    0.0000 C   0  0  0  0  0  0  0  0  0  0  0  0
   -4.9298   -6.0697    0.0000 C   0  0  0  0  0  0  0  0  0  0  0  0
  1  2  1  0
  2  3  1  0
  3  4  2  0
  4  5  1  0
  5  6  2  0
  6  7  1  0
  7  8  1  0
  8  9  1  0
  9 10  2  0
 10 11  1  0
 11 12  1  0
 12 13  2  0
 12 14  1  0
 14 15  2  0
 15 16  1  0
 16 17  1  0
 17 18  2  0
 17 19  1  0
 19 20  1  0
 20 21  2  0
 21 22  1  0
 22 23  2  0
 23 24  1  0
 24 25  2  0
 15 26  1  0
 26 27  2  0
 27 28  1  0
 28 29  2  0
  6 30  1  0
 30 31  2  0
 31  3  1  0
 11  7  2  0
 29 14  1  0
 29 10  1  0
 25 20  1  0
M  END
>  <Compound_ID>  (437) 
CHEMBL436078

>  <Active>  (437) 
1

>  <Smiles>  (437) 
COc1ccc(-c2[nH]nc3c2C(=O)c2c(NC(=O)Nc4ccccc4)cccc2-3)cc1

>  <canonical_smi>  (437) 
COc1ccc(-c2[nH]nc3c2C(=O)c2c(NC(=O)Nc4ccccc4)cccc2-3)cc1

>  <Set>  (437) 
G2 active

>  <Set_type>  (437) 
Test

>  <MW>  (437) 
410.43

>  <HBD>  (437) 
3

>  <HBA>  (437) 
4

>  <NRB>  (437) 
4

>  <NR>  (437) 
5

>  <NAR>  (437) 
5

>  <PSA>  (437) 
96.11

>  <Standard Type>  (437) 
nan

>  <Standard Relation>  (437) 
nan

>  <Standard Units>  (437) 
nan

>  <Standard Value>  (437) 
nan

>  <Assay ChEMBL ID>  (437) 
nan

>  <Assay Description>  (437) 
nan

>  <BAO Label>  (437) 
nan

$$$$

     RDKit          2D

 30 33  0  0  0  0  0  0  0  0999 V2000
    8.0260   -3.8971    0.0000 C   0  0  0  0  0  0  0  0  0  0  0  0
    7.2760   -2.5981    0.0000 C   0  0  0  0  0  0  0  0  0  0  0  0
    5.7760   -2.5981    0.0000 C   0  0  0  0  0  0  0  0  0  0  0  0
    5.0260   -1.2990    0.0000 C   0  0  0  0  0  0  0  0  0  0  0  0
    3.5260   -1.2990    0.0000 N   0  0  0  0  0  0  0  0  0  0  0  0
    2.7760    0.0000    0.0000 C   0  0  0  0  0  0  0  0  0  0  0  0
    3.5260    1.2990    0.0000 O   0  0  0  0  0  0  0  0  0  0  0  0
    1.2760    0.0000    0.0000 N   0  0  0  0  0  0  0  0  0  0  0  0
    0.3943    1.2135    0.0000 C   0  0  0  0  0  0  0  0  0  0  0  0
   -1.0323    0.7500    0.0000 C   0  0  0  0  0  0  0  0  0  0  0  0
   -2.4589    1.2135    0.0000 N   0  0  0  0  0  0  0  0  0  0  0  0
   -3.3405    0.0000    0.0000 N   0  0  0  0  0  0  0  0  0  0  0  0
   -2.4589   -1.2135    0.0000 C   0  0  0  0  0  0  0  0  0  0  0  0
   -2.9224   -2.6401    0.0000 N   0  0  0  0  0  0  0  0  0  0  0  0
   -4.3896   -2.9520    0.0000 C   0  0  0  0  0  0  0  0  0  0  0  0
   -5.3933   -1.8373    0.0000 O   0  0  0  0  0  0  0  0  0  0  0  0
   -4.8531   -4.3786    0.0000 C   0  0  0  0  0  0  0  0  0  0  0  0
   -6.3204   -4.6904    0.0000 C   0  0  0  0  0  0  0  0  0  0  0  0
   -7.3241   -3.5757    0.0000 C   0  0  0  0  0  0  0  0  0  0  0  0
   -8.7913   -3.8876    0.0000 C   0  0  0  0  0  0  0  0  0  0  0  0
   -9.2548   -5.3142    0.0000 C   0  0  0  0  0  0  0  0  0  0  0  0
  -10.7220   -5.6260    0.0000 N   0  0  0  0  0  0  0  0  0  0  0  0
  -11.3321   -6.9964    0.0000 C   0  0  0  0  0  0  0  0  0  0  0  0
  -12.8239   -6.8396    0.0000 C   0  0  0  0  0  0  0  0  0  0  0  0
  -13.1358   -5.3723    0.0000 C   0  0  0  0  0  0  0  0  0  0  0  0
  -11.8367   -4.6223    0.0000 C   0  0  0  0  0  0  0  0  0  0  0  0
   -8.2511   -6.4289    0.0000 C   0  0  0  0  0  0  0  0  0  0  0  0
   -6.7839   -6.1170    0.0000 C   0  0  0  0  0  0  0  0  0  0  0  0
   -1.0323   -0.7500    0.0000 C   0  0  0  0  0  0  0  0  0  0  0  0
    0.3943   -1.2135    0.0000 C   0  0  0  0  0  0  0  0  0  0  0  0
  1  2  1  0
  2  3  1  0
  3  4  1  0
  4  5  1  0
  5  6  1  0
  6  7  2  0
  6  8  1  0
  8  9  1  0
  9 10  1  0
 10 11  2  0
 11 12  1  0
 12 13  1  0
 13 14  1  0
 14 15  1  0
 15 16  2  0
 15 17  1  0
 17 18  1  0
 18 19  2  0
 19 20  1  0
 20 21  2  0
 21 22  1  0
 22 23  1  0
 23 24  1  0
 24 25  1  0
 25 26  1  0
 21 27  1  0
 27 28  2  0
 13 29  2  0
 29 30  1  0
 30  8  1  0
 29 10  1  0
 28 18  1  0
 26 22  1  0
M  END
>  <Compound_ID>  (438) 
CHEMBL383104

>  <Active>  (438) 
1

>  <Smiles>  (438) 
CCCCNC(=O)N1Cc2n[nH]c(NC(=O)Cc3ccc(N4CCCC4)cc3)c2C1

>  <canonical_smi>  (438) 
CCCCNC(=O)N1Cc2n[nH]c(NC(=O)Cc3ccc(N4CCCC4)cc3)c2C1

>  <Set>  (438) 
G2 active

>  <Set_type>  (438) 
Test

>  <MW>  (438) 
410.52

>  <HBD>  (438) 
3

>  <HBA>  (438) 
4

>  <NRB>  (438) 
7

>  <NR>  (438) 
4

>  <NAR>  (438) 
2

>  <PSA>  (438) 
93.36

>  <Standard Type>  (438) 
nan

>  <Standard Relation>  (438) 
nan

>  <Standard Units>  (438) 
nan

>  <Standard Value>  (438) 
nan

>  <Assay ChEMBL ID>  (438) 
nan

>  <Assay Description>  (438) 
nan

>  <BAO Label>  (438) 
nan

$$$$

     RDKit          2D

 18 20  0  0  0  0  0  0  0  0999 V2000
    3.0000   -2.5981    0.0000 O   0  0  0  0  0  0  0  0  0  0  0  0
    1.5000   -2.5981    0.0000 C   0  0  0  0  0  0  0  0  0  0  0  0
    0.7500   -3.8971    0.0000 N   0  0  0  0  0  0  0  0  0  0  0  0
    1.5000   -5.1962    0.0000 C   0  0  0  0  0  0  0  0  0  0  0  0
    2.9918   -5.3529    0.0000 C   0  0  0  0  0  0  0  0  0  0  0  0
    3.3037   -6.8202    0.0000 C   0  0  0  0  0  0  0  0  0  0  0  0
    4.6740   -7.4303    0.0000 C   0  0  0  0  0  0  0  0  0  0  0  0
    6.1658   -7.2735    0.0000 C   0  0  0  0  0  0  0  0  0  0  0  0
    5.5556   -8.6438    0.0000 C   0  0  0  0  0  0  0  0  0  0  0  0
    2.0046   -7.5702    0.0000 N   0  0  0  0  0  0  0  0  0  0  0  0
    0.8899   -6.5665    0.0000 N   0  0  0  0  0  0  0  0  0  0  0  0
    0.7500   -1.2990    0.0000 C   0  0  0  0  0  0  0  0  0  0  0  0
    1.5000    0.0000    0.0000 C   0  0  0  0  0  0  0  0  0  0  0  0
    0.7500    1.2990    0.0000 C   0  0  0  0  0  0  0  0  0  0  0  0
   -0.7500    1.2990    0.0000 C   0  0  0  0  0  0  0  0  0  0  0  0
   -1.5000    2.5981    0.0000 Br  0  0  0  0  0  0  0  0  0  0  0  0
   -1.5000    0.0000    0.0000 C   0  0  0  0  0  0  0  0  0  0  0  0
   -0.7500   -1.2990    0.0000 C   0  0  0  0  0  0  0  0  0  0  0  0
  1  2  2  0
  2  3  1  0
  3  4  1  0
  4  5  1  0
  5  6  2  0
  6  7  1  0
  7  8  1  0
  8  9  1  0
  6 10  1  0
 10 11  1  0
  2 12  1  0
 12 13  2  0
 13 14  1  0
 14 15  2  0
 15 16  1  0
 15 17  1  0
 17 18  2  0
 11  4  2  0
 18 12  1  0
  9  7  1  0
M  END
>  <Compound_ID>  (439) 
CHEMBL115319

>  <Active>  (439) 
1

>  <Smiles>  (439) 
O=C(Nc1cc(C2CC2)[nH]n1)c1ccc(Br)cc1

>  <canonical_smi>  (439) 
O=C(Nc1cc(C2CC2)[nH]n1)c1ccc(Br)cc1

>  <Set>  (439) 
G2 active

>  <Set_type>  (439) 
Test

>  <MW>  (439) 
306.16

>  <HBD>  (439) 
2

>  <HBA>  (439) 
2

>  <NRB>  (439) 
3

>  <NR>  (439) 
3

>  <NAR>  (439) 
2

>  <PSA>  (439) 
57.78

>  <Standard Type>  (439) 
nan

>  <Standard Relation>  (439) 
nan

>  <Standard Units>  (439) 
nan

>  <Standard Value>  (439) 
nan

>  <Assay ChEMBL ID>  (439) 
nan

>  <Assay Description>  (439) 
nan

>  <BAO Label>  (439) 
nan

$$$$

     RDKit          2D

 32 36  0  0  0  0  0  0  0  0999 V2000
   10.5000   -5.1962    0.0000 N   0  0  0  0  0  0  0  0  0  0  0  0
    9.7500   -3.8971    0.0000 C   0  0  0  0  0  0  0  0  0  0  0  0
   10.5000   -2.5981    0.0000 O   0  0  0  0  0  0  0  0  0  0  0  0
    8.2500   -3.8971    0.0000 C   0  0  0  0  0  0  0  0  0  0  0  0
    7.5000   -5.1962    0.0000 C   0  0  0  0  0  0  0  0  0  0  0  0
    6.0000   -5.1962    0.0000 C   0  0  0  0  0  0  0  0  0  0  0  0
    5.2500   -3.8971    0.0000 N   0  0  0  0  0  0  0  0  0  0  0  0
    3.7500   -3.8971    0.0000 C   0  0  0  0  0  0  0  0  0  0  0  0
    3.0000   -2.5981    0.0000 C   0  0  0  0  0  0  0  0  0  0  0  0
    3.7500   -1.2990    0.0000 O   0  0  0  0  0  0  0  0  0  0  0  0
    1.5000   -2.5981    0.0000 N   0  0  0  0  0  0  0  0  0  0  0  0
    0.7500   -1.2990    0.0000 C   0  0  0  0  0  0  0  0  0  0  0  0
    1.5000    0.0000    0.0000 C   0  0  0  0  0  0  0  0  0  0  0  0
    0.7500    1.2990    0.0000 C   0  0  0  0  0  0  0  0  0  0  0  0
   -0.7500    1.2990    0.0000 C   0  0  0  0  0  0  0  0  0  0  0  0
   -1.5000    0.0000    0.0000 C   0  0  0  0  0  0  0  0  0  0  0  0
   -0.7500   -1.2990    0.0000 C   0  0  0  0  0  0  0  0  0  0  0  0
   -1.7537   -2.4138    0.0000 C   0  0  0  0  0  0  0  0  0  0  0  0
   -1.4418   -3.8810    0.0000 O   0  0  0  0  0  0  0  0  0  0  0  0
   -3.1240   -1.8037    0.0000 C   0  0  0  0  0  0  0  0  0  0  0  0
   -4.5912   -2.1155    0.0000 C   0  0  0  0  0  0  0  0  0  0  0  0
   -5.2013   -3.4858    0.0000 C   0  0  0  0  0  0  0  0  0  0  0  0
   -6.6931   -3.6426    0.0000 C   0  0  0  0  0  0  0  0  0  0  0  0
   -7.3032   -5.0129    0.0000 C   0  0  0  0  0  0  0  0  0  0  0  0
   -6.4216   -6.2265    0.0000 C   0  0  0  0  0  0  0  0  0  0  0  0
   -4.9298   -6.0697    0.0000 C   0  0  0  0  0  0  0  0  0  0  0  0
   -4.3197   -4.6994    0.0000 C   0  0  0  0  0  0  0  0  0  0  0  0
   -5.3412   -0.8165    0.0000 N   0  0  0  0  0  0  0  0  0  0  0  0
   -4.3375    0.2982    0.0000 N   0  0  0  0  0  0  0  0  0  0  0  0
   -2.9672   -0.3119    0.0000 C   0  0  0  0  0  0  0  0  0  0  0  0
    6.0000   -2.5981    0.0000 C   0  0  0  0  0  0  0  0  0  0  0  0
    7.5000   -2.5981    0.0000 C   0  0  0  0  0  0  0  0  0  0  0  0
  1  2  1  0
  2  3  2  0
  2  4  1  0
  4  5  1  0
  5  6  1  0
  6  7  1  0
  7  8  1  0
  8  9  1  0
  9 10  2  0
  9 11  1  0
 11 12  1  0
 12 13  2  0
 13 14  1  0
 14 15  2  0
 15 16  1  0
 16 17  2  0
 17 18  1  0
 18 19  2  0
 18 20  1  0
 20 21  1  0
 21 22  1  0
 22 23  1  0
 23 24  1  0
 24 25  1  0
 25 26  1  0
 26 27  1  0
 21 28  2  0
 28 29  1  0
 29 30  1  0
  7 31  1  0
 31 32  1  0
 32  4  1  0
 17 12  1  0
 30 20  2  0
 30 16  1  0
 27 22  1  0
M  END
>  <Compound_ID>  (440) 
CHEMBL147232

>  <Active>  (440) 
1

>  <Smiles>  (440) 
NC(=O)C1CCN(CC(=O)Nc2cccc3c2C(=O)c2c(C4CCCCC4)n[nH]c2-3)CC1

>  <canonical_smi>  (440) 
NC(=O)C1CCN(CC(=O)Nc2cccc3c2C(=O)c2c(C4CCCCC4)n[nH]c2-3)CC1

>  <Set>  (440) 
G2 active

>  <Set_type>  (440) 
Test

>  <MW>  (440) 
435.53

>  <HBD>  (440) 
3

>  <HBA>  (440) 
5

>  <NRB>  (440) 
5

>  <NR>  (440) 
5

>  <NAR>  (440) 
3

>  <PSA>  (440) 
121.18

>  <Standard Type>  (440) 
nan

>  <Standard Relation>  (440) 
nan

>  <Standard Units>  (440) 
nan

>  <Standard Value>  (440) 
nan

>  <Assay ChEMBL ID>  (440) 
nan

>  <Assay Description>  (440) 
nan

>  <BAO Label>  (440) 
nan

$$$$

     RDKit          2D

 34 38  0  0  0  0  0  0  0  0999 V2000
   -2.2447   -8.9500    0.0000 C   0  0  0  0  0  0  0  0  0  0  0  0
   -2.5565   -7.4827    0.0000 N   0  0  0  0  0  0  0  0  0  0  0  0
   -1.4418   -6.4791    0.0000 C   0  0  0  0  0  0  0  0  0  0  0  0
   -0.0152   -6.9426    0.0000 O   0  0  0  0  0  0  0  0  0  0  0  0
   -1.7537   -5.0118    0.0000 C   0  0  0  0  0  0  0  0  0  0  0  0
   -3.1240   -4.4017    0.0000 N   0  0  0  0  0  0  0  0  0  0  0  0
   -2.9672   -2.9099    0.0000 N   0  0  0  0  0  0  0  0  0  0  0  0
   -4.0819   -1.9062    0.0000 C   0  0  0  0  0  0  0  0  0  0  0  0
   -1.5000   -2.5981    0.0000 C   0  0  0  0  0  0  0  0  0  0  0  0
   -0.7500   -3.8971    0.0000 C   0  0  0  0  0  0  0  0  0  0  0  0
    0.7500   -3.8971    0.0000 C   0  0  0  0  0  0  0  0  0  0  0  0
    2.1595   -4.4101    0.0000 C   0  0  0  0  0  0  0  0  0  0  0  0
    0.4895   -5.3743    0.0000 C   0  0  0  0  0  0  0  0  0  0  0  0
    1.5000   -2.5981    0.0000 C   0  0  0  0  0  0  0  0  0  0  0  0
    0.7500   -1.2990    0.0000 C   0  0  0  0  0  0  0  0  0  0  0  0
    1.5000    0.0000    0.0000 C   0  0  0  0  0  0  0  0  0  0  0  0
    0.7500    1.2990    0.0000 N   0  0  0  0  0  0  0  0  0  0  0  0
   -0.7500    1.2990    0.0000 C   0  0  0  0  0  0  0  0  0  0  0  0
   -1.5000    2.5981    0.0000 N   0  0  0  0  0  0  0  0  0  0  0  0
   -0.7500    3.8971    0.0000 C   0  0  0  0  0  0  0  0  0  0  0  0
    0.7500    3.8971    0.0000 C   0  0  0  0  0  0  0  0  0  0  0  0
    1.5000    5.1962    0.0000 C   0  0  0  0  0  0  0  0  0  0  0  0
    0.7500    6.4952    0.0000 C   0  0  0  0  0  0  0  0  0  0  0  0
    1.5000    7.7942    0.0000 C   0  0  0  0  0  0  0  0  0  0  0  0
    3.0000    7.7942    0.0000 N   0  0  0  0  0  0  0  0  0  0  0  0
    3.7500    6.4952    0.0000 C   0  0  0  0  0  0  0  0  0  0  0  0
    5.2500    6.4952    0.0000 C   0  0  0  0  0  0  0  0  0  0  0  0
    6.0000    7.7942    0.0000 O   0  0  0  0  0  0  0  0  0  0  0  0
    5.2500    9.0933    0.0000 C   0  0  0  0  0  0  0  0  0  0  0  0
    3.7500    9.0933    0.0000 C   0  0  0  0  0  0  0  0  0  0  0  0
   -0.7500    6.4952    0.0000 C   0  0  0  0  0  0  0  0  0  0  0  0
   -1.5000    5.1962    0.0000 C   0  0  0  0  0  0  0  0  0  0  0  0
   -1.5000    0.0000    0.0000 N   0  0  0  0  0  0  0  0  0  0  0  0
   -0.7500   -1.2990    0.0000 C   0  0  0  0  0  0  0  0  0  0  0  0
  1  2  1  0
  2  3  1  0
  3  4  2  0
  3  5  1  0
  5  6  2  0
  6  7  1  0
  7  8  1  0
  7  9  1  0
  9 10  2  0
 10 11  1  0
 11 12  1  0
 11 13  1  0
 11 14  1  0
 14 15  1  0
 15 16  2  0
 16 17  1  0
 17 18  2  0
 18 19  1  0
 19 20  1  0
 20 21  2  0
 21 22  1  0
 22 23  2  0
 23 24  1  0
 24 25  1  0
 25 26  1  0
 26 27  1  0
 27 28  1  0
 28 29  1  0
 29 30  1  0
 23 31  1  0
 31 32  2  0
 18 33  1  0
 33 34  2  0
 10  5  1  0
 34 15  1  0
 34  9  1  0
 32 20  1  0
 30 25  1  0
M  END
>  <Compound_ID>  (441) 
CHEMBL550959

>  <Active>  (441) 
1

>  <Smiles>  (441) 
CNC(=O)c1nn(C)c2c1C(C)(C)Cc1cnc(Nc3ccc(CN4CCOCC4)cc3)nc1-2

>  <canonical_smi>  (441) 
CNC(=O)c1nn(C)c2c1C(C)(C)Cc1cnc(Nc3ccc(CN4CCOCC4)cc3)nc1-2

>  <Set>  (441) 
G2 active

>  <Set_type>  (441) 
Test

>  <MW>  (441) 
461.57

>  <HBD>  (441) 
2

>  <HBA>  (441) 
7

>  <NRB>  (441) 
5

>  <NR>  (441) 
5

>  <NAR>  (441) 
3

>  <PSA>  (441) 
97.2

>  <Standard Type>  (441) 
nan

>  <Standard Relation>  (441) 
nan

>  <Standard Units>  (441) 
nan

>  <Standard Value>  (441) 
nan

>  <Assay ChEMBL ID>  (441) 
nan

>  <Assay Description>  (441) 
nan

>  <BAO Label>  (441) 
nan

$$$$

     RDKit          2D

 35 40  0  0  0  0  0  0  0  0999 V2000
    3.7500   -1.2990    0.0000 O   0  0  0  0  0  0  0  0  0  0  0  0
    3.0000   -2.5981    0.0000 C   0  0  0  0  0  0  0  0  0  0  0  0
    3.7500   -3.8971    0.0000 C   0  0  0  0  0  0  0  0  0  0  0  0
    5.2500   -3.8971    0.0000 N   0  0  0  0  0  0  0  0  0  0  0  0
    6.0000   -5.1962    0.0000 C   0  0  0  0  0  0  0  0  0  0  0  0
    7.5000   -5.1962    0.0000 C   0  0  0  0  0  0  0  0  0  0  0  0
    8.2500   -3.8971    0.0000 O   0  0  0  0  0  0  0  0  0  0  0  0
    7.5000   -2.5981    0.0000 C   0  0  0  0  0  0  0  0  0  0  0  0
    6.0000   -2.5981    0.0000 C   0  0  0  0  0  0  0  0  0  0  0  0
    1.5000   -2.5981    0.0000 N   0  0  0  0  0  0  0  0  0  0  0  0
    0.7500   -1.2990    0.0000 C   0  0  0  0  0  0  0  0  0  0  0  0
    1.5000    0.0000    0.0000 C   0  0  0  0  0  0  0  0  0  0  0  0
    0.7500    1.2990    0.0000 C   0  0  0  0  0  0  0  0  0  0  0  0
   -0.7500    1.2990    0.0000 C   0  0  0  0  0  0  0  0  0  0  0  0
   -1.5000    0.0000    0.0000 C   0  0  0  0  0  0  0  0  0  0  0  0
   -0.7500   -1.2990    0.0000 C   0  0  0  0  0  0  0  0  0  0  0  0
   -1.7537   -2.4138    0.0000 C   0  0  0  0  0  0  0  0  0  0  0  0
   -1.4418   -3.8810    0.0000 O   0  0  0  0  0  0  0  0  0  0  0  0
   -3.1240   -1.8037    0.0000 C   0  0  0  0  0  0  0  0  0  0  0  0
   -4.5912   -2.1155    0.0000 C   0  0  0  0  0  0  0  0  0  0  0  0
   -5.2013   -3.4858    0.0000 C   0  0  0  0  0  0  0  0  0  0  0  0
   -6.6931   -3.6426    0.0000 C   0  0  0  0  0  0  0  0  0  0  0  0
   -7.3032   -5.0129    0.0000 C   0  0  0  0  0  0  0  0  0  0  0  0
   -6.4216   -6.2265    0.0000 C   0  0  0  0  0  0  0  0  0  0  0  0
   -7.0317   -7.5968    0.0000 N   0  0  0  0  0  0  0  0  0  0  0  0
   -8.5234   -7.7536    0.0000 C   0  0  0  0  0  0  0  0  0  0  0  0
   -9.1335   -9.1239    0.0000 C   0  0  0  0  0  0  0  0  0  0  0  0
   -8.2519  -10.3374    0.0000 O   0  0  0  0  0  0  0  0  0  0  0  0
   -6.7601  -10.1806    0.0000 C   0  0  0  0  0  0  0  0  0  0  0  0
   -6.1500   -8.8103    0.0000 C   0  0  0  0  0  0  0  0  0  0  0  0
   -4.9298   -6.0697    0.0000 C   0  0  0  0  0  0  0  0  0  0  0  0
   -4.3197   -4.6994    0.0000 C   0  0  0  0  0  0  0  0  0  0  0  0
   -5.3412   -0.8165    0.0000 N   0  0  0  0  0  0  0  0  0  0  0  0
   -4.3375    0.2982    0.0000 N   0  0  0  0  0  0  0  0  0  0  0  0
   -2.9672   -0.3119    0.0000 C   0  0  0  0  0  0  0  0  0  0  0  0
  1  2  2  0
  2  3  1  0
  3  4  1  0
  4  5  1  0
  5  6  1  0
  6  7  1  0
  7  8  1  0
  8  9  1  0
  2 10  1  0
 10 11  1  0
 11 12  2  0
 12 13  1  0
 13 14  2  0
 14 15  1  0
 15 16  2  0
 16 17  1  0
 17 18  2  0
 17 19  1  0
 19 20  1  0
 20 21  1  0
 21 22  2  0
 22 23  1  0
 23 24  2  0
 24 25  1  0
 25 26  1  0
 26 27  1  0
 27 28  1  0
 28 29  1  0
 29 30  1  0
 24 31  1  0
 31 32  2  0
 20 33  2  0
 33 34  1  0
 34 35  1  0
  9  4  1  0
 16 11  1  0
 35 19  2  0
 35 15  1  0
 32 21  1  0
 30 25  1  0
M  END
>  <Compound_ID>  (442) 
CHEMBL149015

>  <Active>  (442) 
1

>  <Smiles>  (442) 
O=C(CN1CCOCC1)Nc1cccc2c1C(=O)c1c(-c3ccc(N4CCOCC4)cc3)n[nH]c1-2

>  <canonical_smi>  (442) 
O=C(CN1CCOCC1)Nc1cccc2c1C(=O)c1c(-c3ccc(N4CCOCC4)cc3)n[nH]c1-2

>  <Set>  (442) 
G2 active

>  <Set_type>  (442) 
Test

>  <MW>  (442) 
473.53

>  <HBD>  (442) 
2

>  <HBA>  (442) 
7

>  <NRB>  (442) 
5

>  <NR>  (442) 
6

>  <NAR>  (442) 
4

>  <PSA>  (442) 
99.79

>  <Standard Type>  (442) 
nan

>  <Standard Relation>  (442) 
nan

>  <Standard Units>  (442) 
nan

>  <Standard Value>  (442) 
nan

>  <Assay ChEMBL ID>  (442) 
nan

>  <Assay Description>  (442) 
nan

>  <BAO Label>  (442) 
nan

$$$$

     RDKit          2D

 20 22  0  0  0  0  0  0  0  0999 V2000
    3.0000   -2.5981    0.0000 O   0  0  0  0  0  0  0  0  0  0  0  0
    1.5000   -2.5981    0.0000 C   0  0  0  0  0  0  0  0  0  0  0  0
    0.7500   -3.8971    0.0000 N   0  0  0  0  0  0  0  0  0  0  0  0
    1.5000   -5.1962    0.0000 C   0  0  0  0  0  0  0  0  0  0  0  0
    2.9918   -5.3529    0.0000 C   0  0  0  0  0  0  0  0  0  0  0  0
    3.3037   -6.8202    0.0000 C   0  0  0  0  0  0  0  0  0  0  0  0
    4.6740   -7.4303    0.0000 C   0  0  0  0  0  0  0  0  0  0  0  0
    5.9730   -6.6803    0.0000 C   0  0  0  0  0  0  0  0  0  0  0  0
    7.0877   -7.6840    0.0000 C   0  0  0  0  0  0  0  0  0  0  0  0
    6.4776   -9.0543    0.0000 C   0  0  0  0  0  0  0  0  0  0  0  0
    4.9858   -8.8975    0.0000 C   0  0  0  0  0  0  0  0  0  0  0  0
    2.0046   -7.5702    0.0000 N   0  0  0  0  0  0  0  0  0  0  0  0
    0.8899   -6.5665    0.0000 N   0  0  0  0  0  0  0  0  0  0  0  0
    0.7500   -1.2990    0.0000 C   0  0  0  0  0  0  0  0  0  0  0  0
    1.5000    0.0000    0.0000 C   0  0  0  0  0  0  0  0  0  0  0  0
    0.7500    1.2990    0.0000 C   0  0  0  0  0  0  0  0  0  0  0  0
   -0.7500    1.2990    0.0000 C   0  0  0  0  0  0  0  0  0  0  0  0
   -1.5000    2.5981    0.0000 Br  0  0  0  0  0  0  0  0  0  0  0  0
   -1.5000    0.0000    0.0000 C   0  0  0  0  0  0  0  0  0  0  0  0
   -0.7500   -1.2990    0.0000 C   0  0  0  0  0  0  0  0  0  0  0  0
  1  2  2  0
  2  3  1  0
  3  4  1  0
  4  5  1  0
  5  6  2  0
  6  7  1  0
  7  8  1  0
  8  9  1  0
  9 10  1  0
 10 11  1  0
  6 12  1  0
 12 13  1  0
  2 14  1  0
 14 15  2  0
 15 16  1  0
 16 17  2  0
 17 18  1  0
 17 19  1  0
 19 20  2  0
 13  4  2  0
 20 14  1  0
 11  7  1  0
M  END
>  <Compound_ID>  (443) 
CHEMBL419753

>  <Active>  (443) 
1

>  <Smiles>  (443) 
O=C(Nc1cc(C2CCCC2)[nH]n1)c1ccc(Br)cc1

>  <canonical_smi>  (443) 
O=C(Nc1cc(C2CCCC2)[nH]n1)c1ccc(Br)cc1

>  <Set>  (443) 
G2 active

>  <Set_type>  (443) 
Test

>  <MW>  (443) 
334.22

>  <HBD>  (443) 
2

>  <HBA>  (443) 
2

>  <NRB>  (443) 
3

>  <NR>  (443) 
3

>  <NAR>  (443) 
2

>  <PSA>  (443) 
57.78

>  <Standard Type>  (443) 
nan

>  <Standard Relation>  (443) 
nan

>  <Standard Units>  (443) 
nan

>  <Standard Value>  (443) 
nan

>  <Assay ChEMBL ID>  (443) 
nan

>  <Assay Description>  (443) 
nan

>  <BAO Label>  (443) 
nan

$$$$

     RDKit          2D

 31 35  0  0  0  0  0  0  0  0999 V2000
   -8.5234   -7.7536    0.0000 C   0  0  0  0  0  0  0  0  0  0  0  0
   -7.0317   -7.5968    0.0000 O   0  0  0  0  0  0  0  0  0  0  0  0
   -6.4216   -6.2265    0.0000 C   0  0  0  0  0  0  0  0  0  0  0  0
   -7.3032   -5.0129    0.0000 C   0  0  0  0  0  0  0  0  0  0  0  0
   -6.6931   -3.6426    0.0000 C   0  0  0  0  0  0  0  0  0  0  0  0
   -5.2013   -3.4858    0.0000 C   0  0  0  0  0  0  0  0  0  0  0  0
   -4.5912   -2.1155    0.0000 C   0  0  0  0  0  0  0  0  0  0  0  0
   -5.3412   -0.8165    0.0000 N   0  0  0  0  0  0  0  0  0  0  0  0
   -4.3375    0.2982    0.0000 N   0  0  0  0  0  0  0  0  0  0  0  0
   -2.9672   -0.3119    0.0000 C   0  0  0  0  0  0  0  0  0  0  0  0
   -3.1240   -1.8037    0.0000 C   0  0  0  0  0  0  0  0  0  0  0  0
   -1.7537   -2.4138    0.0000 C   0  0  0  0  0  0  0  0  0  0  0  0
   -1.4418   -3.8810    0.0000 O   0  0  0  0  0  0  0  0  0  0  0  0
   -0.7500   -1.2990    0.0000 C   0  0  0  0  0  0  0  0  0  0  0  0
    0.7500   -1.2990    0.0000 C   0  0  0  0  0  0  0  0  0  0  0  0
    1.5000   -2.5981    0.0000 N   0  0  0  0  0  0  0  0  0  0  0  0
    3.0000   -2.5981    0.0000 C   0  0  0  0  0  0  0  0  0  0  0  0
    3.7500   -1.2990    0.0000 O   0  0  0  0  0  0  0  0  0  0  0  0
    3.7500   -3.8971    0.0000 C   0  0  0  0  0  0  0  0  0  0  0  0
    5.2500   -3.8971    0.0000 N   0  0  0  0  0  0  0  0  0  0  0  0
    6.0000   -5.1962    0.0000 C   0  0  0  0  0  0  0  0  0  0  0  0
    7.5000   -5.1962    0.0000 C   0  0  0  0  0  0  0  0  0  0  0  0
    8.2500   -3.8971    0.0000 S   0  0  0  0  0  0  0  0  0  0  0  0
    7.5000   -2.5981    0.0000 C   0  0  0  0  0  0  0  0  0  0  0  0
    6.0000   -2.5981    0.0000 C   0  0  0  0  0  0  0  0  0  0  0  0
    1.5000    0.0000    0.0000 C   0  0  0  0  0  0  0  0  0  0  0  0
    0.7500    1.2990    0.0000 C   0  0  0  0  0  0  0  0  0  0  0  0
   -0.7500    1.2990    0.0000 C   0  0  0  0  0  0  0  0  0  0  0  0
   -1.5000    0.0000    0.0000 C   0  0  0  0  0  0  0  0  0  0  0  0
   -4.3197   -4.6994    0.0000 C   0  0  0  0  0  0  0  0  0  0  0  0
   -4.9298   -6.0697    0.0000 C   0  0  0  0  0  0  0  0  0  0  0  0
  1  2  1  0
  2  3  1  0
  3  4  2  0
  4  5  1  0
  5  6  2  0
  6  7  1  0
  7  8  1  0
  8  9  1  0
  9 10  2  0
 10 11  1  0
 11 12  1  0
 12 13  2  0
 12 14  1  0
 14 15  2  0
 15 16  1  0
 16 17  1  0
 17 18  2  0
 17 19  1  0
 19 20  1  0
 20 21  1  0
 21 22  1  0
 22 23  1  0
 23 24  1  0
 24 25  1  0
 15 26  1  0
 26 27  2  0
 27 28  1  0
 28 29  2  0
  6 30  1  0
 30 31  2  0
 31  3  1  0
 11  7  2  0
 29 14  1  0
 29 10  1  0
 25 20  1  0
M  END
>  <Compound_ID>  (444) 
CHEMBL151551

>  <Active>  (444) 
1

>  <Smiles>  (444) 
COc1ccc(-c2[nH]nc3c2C(=O)c2c(NC(=O)CN4CCSCC4)cccc2-3)cc1

>  <canonical_smi>  (444) 
COc1ccc(-c2[nH]nc3c2C(=O)c2c(NC(=O)CN4CCSCC4)cccc2-3)cc1

>  <Set>  (444) 
G2 active

>  <Set_type>  (444) 
Test

>  <MW>  (444) 
434.52

>  <HBD>  (444) 
2

>  <HBA>  (444) 
6

>  <NRB>  (444) 
5

>  <NR>  (444) 
5

>  <NAR>  (444) 
4

>  <PSA>  (444) 
87.32

>  <Standard Type>  (444) 
nan

>  <Standard Relation>  (444) 
nan

>  <Standard Units>  (444) 
nan

>  <Standard Value>  (444) 
nan

>  <Assay ChEMBL ID>  (444) 
nan

>  <Assay Description>  (444) 
nan

>  <BAO Label>  (444) 
nan

$$$$

     RDKit          2D

 23 26  0  0  0  0  0  0  0  0999 V2000
   -3.0000   -5.1962    0.0000 O   0  0  0  0  0  0  0  0  0  0  0  0
   -3.7500   -3.8971    0.0000 C   0  0  0  0  0  0  0  0  0  0  0  0
   -5.2500   -3.8971    0.0000 N   0  0  0  0  0  0  0  0  0  0  0  0
   -6.0000   -5.1962    0.0000 C   0  0  0  0  0  0  0  0  0  0  0  0
   -5.3899   -6.5665    0.0000 N   0  0  0  0  0  0  0  0  0  0  0  0
   -6.5046   -7.5702    0.0000 C   0  0  0  0  0  0  0  0  0  0  0  0
   -7.8037   -6.8202    0.0000 C   0  0  0  0  0  0  0  0  0  0  0  0
   -9.1740   -7.4303    0.0000 C   0  0  0  0  0  0  0  0  0  0  0  0
  -10.5743   -6.8927    0.0000 C   0  0  0  0  0  0  0  0  0  0  0  0
  -11.1119   -8.2931    0.0000 C   0  0  0  0  0  0  0  0  0  0  0  0
   -9.7115   -8.8306    0.0000 C   0  0  0  0  0  0  0  0  0  0  0  0
   -7.4918   -5.3529    0.0000 S   0  0  0  0  0  0  0  0  0  0  0  0
   -3.0000   -2.5981    0.0000 N   0  0  0  0  0  0  0  0  0  0  0  0
   -1.5000   -2.5981    0.0000 C   0  0  0  0  0  0  0  0  0  0  0  0
   -0.7500   -3.8971    0.0000 C   0  0  0  0  0  0  0  0  0  0  0  0
    0.7500   -3.8971    0.0000 C   0  0  0  0  0  0  0  0  0  0  0  0
    1.5000   -2.5981    0.0000 C   0  0  0  0  0  0  0  0  0  0  0  0
    0.7500   -1.2990    0.0000 C   0  0  0  0  0  0  0  0  0  0  0  0
    1.5000    0.0000    0.0000 C   0  0  0  0  0  0  0  0  0  0  0  0
    0.7500    1.2990    0.0000 C   0  0  0  0  0  0  0  0  0  0  0  0
   -0.7500    1.2990    0.0000 N   0  0  0  0  0  0  0  0  0  0  0  0
   -1.5000    0.0000    0.0000 C   0  0  0  0  0  0  0  0  0  0  0  0
   -0.7500   -1.2990    0.0000 C   0  0  0  0  0  0  0  0  0  0  0  0
  1  2  2  0
  2  3  1  0
  3  4  1  0
  4  5  2  0
  5  6  1  0
  6  7  2  0
  7  8  1  0
  8  9  1  0
  9 10  1  0
 10 11  1  0
  7 12  1  0
  2 13  1  0
 13 14  1  0
 14 15  2  0
 15 16  1  0
 16 17  2  0
 17 18  1  0
 18 19  2  0
 19 20  1  0
 20 21  2  0
 21 22  1  0
 22 23  2  0
 12  4  1  0
 23 14  1  0
 11  8  1  0
 23 18  1  0
M  END
>  <Compound_ID>  (445) 
CHEMBL186342

>  <Active>  (445) 
1

>  <Smiles>  (445) 
O=C(Nc1ncc(C2CCC2)s1)Nc1cccc2ccncc12

>  <canonical_smi>  (445) 
O=C(Nc1ncc(C2CCC2)s1)Nc1cccc2ccncc12

>  <Set>  (445) 
G2 active

>  <Set_type>  (445) 
Test

>  <MW>  (445) 
324.41

>  <HBD>  (445) 
2

>  <HBA>  (445) 
3

>  <NRB>  (445) 
3

>  <NR>  (445) 
4

>  <NAR>  (445) 
3

>  <PSA>  (445) 
66.91

>  <Standard Type>  (445) 
nan

>  <Standard Relation>  (445) 
nan

>  <Standard Units>  (445) 
nan

>  <Standard Value>  (445) 
nan

>  <Assay ChEMBL ID>  (445) 
nan

>  <Assay Description>  (445) 
nan

>  <BAO Label>  (445) 
nan

$$$$

     RDKit          2D

 35 39  0  0  0  0  0  0  0  0999 V2000
   -2.2447   -8.9500    0.0000 C   0  0  0  0  0  0  0  0  0  0  0  0
   -2.5565   -7.4827    0.0000 N   0  0  0  0  0  0  0  0  0  0  0  0
   -1.4418   -6.4791    0.0000 C   0  0  0  0  0  0  0  0  0  0  0  0
   -0.0152   -6.9426    0.0000 O   0  0  0  0  0  0  0  0  0  0  0  0
   -1.7537   -5.0118    0.0000 C   0  0  0  0  0  0  0  0  0  0  0  0
   -3.1240   -4.4017    0.0000 N   0  0  0  0  0  0  0  0  0  0  0  0
   -2.9672   -2.9099    0.0000 N   0  0  0  0  0  0  0  0  0  0  0  0
   -4.0819   -1.9062    0.0000 C   0  0  0  0  0  0  0  0  0  0  0  0
   -1.5000   -2.5981    0.0000 C   0  0  0  0  0  0  0  0  0  0  0  0
   -0.7500   -3.8971    0.0000 C   0  0  0  0  0  0  0  0  0  0  0  0
    0.7500   -3.8971    0.0000 C   0  0  0  0  0  0  0  0  0  0  0  0
    2.1595   -4.4101    0.0000 C   0  0  0  0  0  0  0  0  0  0  0  0
    0.4895   -5.3743    0.0000 C   0  0  0  0  0  0  0  0  0  0  0  0
    1.5000   -2.5981    0.0000 C   0  0  0  0  0  0  0  0  0  0  0  0
    0.7500   -1.2990    0.0000 C   0  0  0  0  0  0  0  0  0  0  0  0
    1.5000    0.0000    0.0000 C   0  0  0  0  0  0  0  0  0  0  0  0
    0.7500    1.2990    0.0000 N   0  0  0  0  0  0  0  0  0  0  0  0
   -0.7500    1.2990    0.0000 C   0  0  0  0  0  0  0  0  0  0  0  0
   -1.5000    2.5981    0.0000 N   0  0  0  0  0  0  0  0  0  0  0  0
   -0.7500    3.8971    0.0000 C   0  0  0  0  0  0  0  0  0  0  0  0
    0.7500    3.8971    0.0000 C   0  0  0  0  0  0  0  0  0  0  0  0
    1.5000    5.1962    0.0000 C   0  0  0  0  0  0  0  0  0  0  0  0
    0.7500    6.4952    0.0000 C   0  0  0  0  0  0  0  0  0  0  0  0
   -0.7500    6.4952    0.0000 C   0  0  0  0  0  0  0  0  0  0  0  0
   -1.5000    7.7942    0.0000 C   0  0  0  0  0  0  0  0  0  0  0  0
   -0.7500    9.0933    0.0000 N   0  0  0  0  0  0  0  0  0  0  0  0
    0.7500    9.0933    0.0000 C   0  0  0  0  0  0  0  0  0  0  0  0
    1.5000   10.3923    0.0000 C   0  0  0  0  0  0  0  0  0  0  0  0
    0.7500   11.6913    0.0000 N   0  0  0  0  0  0  0  0  0  0  0  0
    1.5000   12.9904    0.0000 C   0  0  0  0  0  0  0  0  0  0  0  0
   -0.7500   11.6913    0.0000 C   0  0  0  0  0  0  0  0  0  0  0  0
   -1.5000   10.3923    0.0000 C   0  0  0  0  0  0  0  0  0  0  0  0
   -1.5000    5.1962    0.0000 C   0  0  0  0  0  0  0  0  0  0  0  0
   -1.5000    0.0000    0.0000 N   0  0  0  0  0  0  0  0  0  0  0  0
   -0.7500   -1.2990    0.0000 C   0  0  0  0  0  0  0  0  0  0  0  0
  1  2  1  0
  2  3  1  0
  3  4  2  0
  3  5  1  0
  5  6  2  0
  6  7  1  0
  7  8  1  0
  7  9  1  0
  9 10  2  0
 10 11  1  0
 11 12  1  0
 11 13  1  0
 11 14  1  0
 14 15  1  0
 15 16  2  0
 16 17  1  0
 17 18  2  0
 18 19  1  0
 19 20  1  0
 20 21  2  0
 21 22  1  0
 22 23  2  0
 23 24  1  0
 24 25  1  0
 25 26  1  0
 26 27  1  0
 27 28  1  0
 28 29  1  0
 29 30  1  0
 29 31  1  0
 31 32  1  0
 24 33  2  0
 18 34  1  0
 34 35  2  0
 10  5  1  0
 35 15  1  0
 35  9  1  0
 33 20  1  0
 32 26  1  0
M  END
>  <Compound_ID>  (446) 
CHEMBL564470

>  <Active>  (446) 
1

>  <Smiles>  (446) 
CNC(=O)c1nn(C)c2c1C(C)(C)Cc1cnc(Nc3cccc(CN4CCN(C)CC4)c3)nc1-2

>  <canonical_smi>  (446) 
CNC(=O)c1nn(C)c2c1C(C)(C)Cc1cnc(Nc3cccc(CN4CCN(C)CC4)c3)nc1-2

>  <Set>  (446) 
G2 active

>  <Set_type>  (446) 
Test

>  <MW>  (446) 
474.61

>  <HBD>  (446) 
2

>  <HBA>  (446) 
7

>  <NRB>  (446) 
5

>  <NR>  (446) 
5

>  <NAR>  (446) 
3

>  <PSA>  (446) 
91.21

>  <Standard Type>  (446) 
nan

>  <Standard Relation>  (446) 
nan

>  <Standard Units>  (446) 
nan

>  <Standard Value>  (446) 
nan

>  <Assay ChEMBL ID>  (446) 
nan

>  <Assay Description>  (446) 
nan

>  <BAO Label>  (446) 
nan

$$$$

     RDKit          2D

 19 21  0  0  0  0  0  0  0  0999 V2000
   -0.7500   -3.8971    0.0000 O   0  0  0  0  0  0  0  0  0  0  0  0
    0.7500   -3.8971    0.0000 C   0  0  0  0  0  0  0  0  0  0  0  0
    1.5000   -2.5981    0.0000 C   0  0  0  0  0  0  0  0  0  0  0  0
    0.7500   -1.2990    0.0000 C   0  0  0  0  0  0  0  0  0  0  0  0
    1.5000    0.0000    0.0000 C   0  0  0  0  0  0  0  0  0  0  0  0
    0.7500    1.2990    0.0000 C   0  0  0  0  0  0  0  0  0  0  0  0
   -0.7500    1.2990    0.0000 C   0  0  0  0  0  0  0  0  0  0  0  0
   -1.5000    0.0000    0.0000 C   0  0  0  0  0  0  0  0  0  0  0  0
   -0.7500   -1.2990    0.0000 C   0  0  0  0  0  0  0  0  0  0  0  0
    1.5000   -5.1962    0.0000 N   0  0  0  0  0  0  0  0  0  0  0  0
    0.7500   -6.4952    0.0000 C   0  0  0  0  0  0  0  0  0  0  0  0
    1.3601   -7.8655    0.0000 N   0  0  0  0  0  0  0  0  0  0  0  0
    0.2454   -8.8692    0.0000 C   0  0  0  0  0  0  0  0  0  0  0  0
   -1.0537   -8.1192    0.0000 C   0  0  0  0  0  0  0  0  0  0  0  0
   -2.4240   -8.7293    0.0000 C   0  0  0  0  0  0  0  0  0  0  0  0
   -3.8243   -8.1918    0.0000 C   0  0  0  0  0  0  0  0  0  0  0  0
   -4.3619   -9.5921    0.0000 C   0  0  0  0  0  0  0  0  0  0  0  0
   -2.9615  -10.1297    0.0000 C   0  0  0  0  0  0  0  0  0  0  0  0
   -0.7418   -6.6520    0.0000 S   0  0  0  0  0  0  0  0  0  0  0  0
  1  2  2  0
  2  3  1  0
  3  4  1  0
  4  5  2  0
  5  6  1  0
  6  7  2  0
  7  8  1  0
  8  9  2  0
  2 10  1  0
 10 11  1  0
 11 12  2  0
 12 13  1  0
 13 14  2  0
 14 15  1  0
 15 16  1  0
 16 17  1  0
 17 18  1  0
 14 19  1  0
  9  4  1  0
 19 11  1  0
 18 15  1  0
M  END
>  <Compound_ID>  (447) 
CHEMBL365855

>  <Active>  (447) 
1

>  <Smiles>  (447) 
O=C(Cc1ccccc1)Nc1ncc(C2CCC2)s1

>  <canonical_smi>  (447) 
O=C(Cc1ccccc1)Nc1ncc(C2CCC2)s1

>  <Set>  (447) 
G2 active

>  <Set_type>  (447) 
Test

>  <MW>  (447) 
272.37

>  <HBD>  (447) 
1

>  <HBA>  (447) 
2

>  <NRB>  (447) 
4

>  <NR>  (447) 
3

>  <NAR>  (447) 
2

>  <PSA>  (447) 
41.99

>  <Standard Type>  (447) 
nan

>  <Standard Relation>  (447) 
nan

>  <Standard Units>  (447) 
nan

>  <Standard Value>  (447) 
nan

>  <Assay ChEMBL ID>  (447) 
nan

>  <Assay Description>  (447) 
nan

>  <BAO Label>  (447) 
nan

$$$$

     RDKit          2D

 23 26  0  0  0  0  0  0  0  0999 V2000
    5.2500   -1.2990    0.0000 C   0  0  0  0  0  0  0  0  0  0  0  0
    3.7500   -1.2990    0.0000 C   0  0  0  0  0  0  0  0  0  0  0  0
    3.0000   -2.5981    0.0000 O   0  0  0  0  0  0  0  0  0  0  0  0
    3.0000    0.0000    0.0000 N   0  0  0  0  0  0  0  0  0  0  0  0
    1.5000    0.0000    0.0000 C   0  0  0  0  0  0  0  0  0  0  0  0
    0.7500   -1.2990    0.0000 C   0  0  0  0  0  0  0  0  0  0  0  0
   -0.7500   -1.2990    0.0000 C   0  0  0  0  0  0  0  0  0  0  0  0
   -1.5000    0.0000    0.0000 C   0  0  0  0  0  0  0  0  0  0  0  0
   -0.7500    1.2990    0.0000 C   0  0  0  0  0  0  0  0  0  0  0  0
    0.7500    1.2990    0.0000 C   0  0  0  0  0  0  0  0  0  0  0  0
    1.2135    2.7256    0.0000 C   0  0  0  0  0  0  0  0  0  0  0  0
    2.6401    3.1891    0.0000 O   0  0  0  0  0  0  0  0  0  0  0  0
    0.0000    3.6073    0.0000 C   0  0  0  0  0  0  0  0  0  0  0  0
   -0.4635    5.0339    0.0000 C   0  0  0  0  0  0  0  0  0  0  0  0
    0.4182    6.2474    0.0000 C   0  0  0  0  0  0  0  0  0  0  0  0
    1.9099    6.0906    0.0000 C   0  0  0  0  0  0  0  0  0  0  0  0
    2.7916    7.3041    0.0000 C   0  0  0  0  0  0  0  0  0  0  0  0
    2.1815    8.6745    0.0000 N   0  0  0  0  0  0  0  0  0  0  0  0
    0.6897    8.8313    0.0000 C   0  0  0  0  0  0  0  0  0  0  0  0
   -0.1920    7.6177    0.0000 C   0  0  0  0  0  0  0  0  0  0  0  0
   -1.9635    5.0339    0.0000 N   0  0  0  0  0  0  0  0  0  0  0  0
   -2.4271    3.6073    0.0000 N   0  0  0  0  0  0  0  0  0  0  0  0
   -1.2135    2.7256    0.0000 C   0  0  0  0  0  0  0  0  0  0  0  0
  1  2  1  0
  2  3  2  0
  2  4  1  0
  4  5  1  0
  5  6  2  0
  6  7  1  0
  7  8  2  0
  8  9  1  0
  9 10  2  0
 10 11  1  0
 11 12  2  0
 11 13  1  0
 13 14  1  0
 14 15  1  0
 15 16  2  0
 16 17  1  0
 17 18  2  0
 18 19  1  0
 19 20  2  0
 14 21  2  0
 21 22  1  0
 22 23  1  0
 10  5  1  0
 23 13  2  0
 23  9  1  0
 20 15  1  0
M  END
>  <Compound_ID>  (448) 
CHEMBL346831

>  <Active>  (448) 
1

>  <Smiles>  (448) 
CC(=O)Nc1cccc2c1C(=O)c1c(-c3ccncc3)n[nH]c1-2

>  <canonical_smi>  (448) 
CC(=O)Nc1cccc2c1C(=O)c1c(-c3ccncc3)n[nH]c1-2

>  <Set>  (448) 
G2 active

>  <Set_type>  (448) 
Test

>  <MW>  (448) 
304.31

>  <HBD>  (448) 
2

>  <HBA>  (448) 
4

>  <NRB>  (448) 
2

>  <NR>  (448) 
4

>  <NAR>  (448) 
4

>  <PSA>  (448) 
87.74

>  <Standard Type>  (448) 
nan

>  <Standard Relation>  (448) 
nan

>  <Standard Units>  (448) 
nan

>  <Standard Value>  (448) 
nan

>  <Assay ChEMBL ID>  (448) 
nan

>  <Assay Description>  (448) 
nan

>  <BAO Label>  (448) 
nan

$$$$

     RDKit          2D

 26 29  0  0  0  0  0  0  0  0999 V2000
   -0.5773   -4.2803    0.0000 C   0  0  0  0  0  0  0  0  0  0  0  0
    0.8899   -3.9684    0.0000 C   0  0  0  0  0  0  0  0  0  0  0  0
    2.0046   -4.9721    0.0000 C   0  0  0  0  0  0  0  0  0  0  0  0
    3.3037   -4.2221    0.0000 C   0  0  0  0  0  0  0  0  0  0  0  0
    2.9918   -2.7549    0.0000 C   0  0  0  0  0  0  0  0  0  0  0  0
    3.9955   -1.6402    0.0000 O   0  0  0  0  0  0  0  0  0  0  0  0
    1.5000   -2.5981    0.0000 N   0  0  0  0  0  0  0  0  0  0  0  0
    0.7500   -1.2990    0.0000 C   0  0  0  0  0  0  0  0  0  0  0  0
    1.5000    0.0000    0.0000 C   0  0  0  0  0  0  0  0  0  0  0  0
    0.7500    1.2990    0.0000 C   0  0  0  0  0  0  0  0  0  0  0  0
   -0.7500    1.2990    0.0000 C   0  0  0  0  0  0  0  0  0  0  0  0
   -1.5000    2.5981    0.0000 C   0  0  0  0  0  0  0  0  0  0  0  0
   -0.7500    3.8971    0.0000 C   0  0  0  0  0  0  0  0  0  0  0  0
   -3.0000    2.5981    0.0000 C   0  0  0  0  0  0  0  0  0  0  0  0
   -3.7500    1.2990    0.0000 O   0  0  0  0  0  0  0  0  0  0  0  0
   -3.7500    3.8971    0.0000 N   0  0  0  0  0  0  0  0  0  0  0  0
   -5.2500    3.8971    0.0000 C   0  0  0  0  0  0  0  0  0  0  0  0
   -6.1317    2.6836    0.0000 C   0  0  0  0  0  0  0  0  0  0  0  0
   -7.5583    3.1471    0.0000 C   0  0  0  0  0  0  0  0  0  0  0  0
   -8.7718    2.2654    0.0000 C   0  0  0  0  0  0  0  0  0  0  0  0
   -9.3819    0.8951    0.0000 C   0  0  0  0  0  0  0  0  0  0  0  0
  -10.2636    2.1086    0.0000 C   0  0  0  0  0  0  0  0  0  0  0  0
   -7.5583    4.6471    0.0000 N   0  0  0  0  0  0  0  0  0  0  0  0
   -6.1317    5.1106    0.0000 N   0  0  0  0  0  0  0  0  0  0  0  0
   -1.5000    0.0000    0.0000 C   0  0  0  0  0  0  0  0  0  0  0  0
   -0.7500   -1.2990    0.0000 C   0  0  0  0  0  0  0  0  0  0  0  0
  1  2  2  0
  2  3  1  0
  3  4  1  0
  4  5  1  0
  5  6  2  0
  5  7  1  0
  7  8  1  0
  8  9  2  0
  9 10  1  0
 10 11  2  0
 11 12  1  0
 12 13  1  0
 12 14  1  0
 14 15  2  0
 14 16  1  0
 16 17  1  0
 17 18  1  0
 18 19  2  0
 19 20  1  0
 20 21  1  0
 21 22  1  0
 19 23  1  0
 23 24  1  0
 11 25  1  0
 25 26  2  0
  7  2  1  0
 26  8  1  0
 24 17  2  0
 22 20  1  0
M  END
>  <Compound_ID>  (449) 
CHEMBL373346

>  <Active>  (449) 
1

>  <Smiles>  (449) 
C=C1CCC(=O)N1c1ccc(C(C)C(=O)Nc2cc(C3CC3)[nH]n2)cc1

>  <canonical_smi>  (449) 
C=C1CCC(=O)N1c1ccc(C(C)C(=O)Nc2cc(C3CC3)[nH]n2)cc1

>  <Set>  (449) 
G2 active

>  <Set_type>  (449) 
Test

>  <MW>  (449) 
350.42

>  <HBD>  (449) 
2

>  <HBA>  (449) 
3

>  <NRB>  (449) 
5

>  <NR>  (449) 
4

>  <NAR>  (449) 
2

>  <PSA>  (449) 
78.09

>  <Standard Type>  (449) 
nan

>  <Standard Relation>  (449) 
nan

>  <Standard Units>  (449) 
nan

>  <Standard Value>  (449) 
nan

>  <Assay ChEMBL ID>  (449) 
nan

>  <Assay Description>  (449) 
nan

>  <BAO Label>  (449) 
nan

$$$$

     RDKit          2D

 27 31  0  0  0  0  0  0  0  0999 V2000
    4.0819   -1.9062    0.0000 C   0  0  0  0  0  0  0  0  0  0  0  0
    2.9672   -2.9099    0.0000 N   0  0  0  0  0  0  0  0  0  0  0  0
    3.1240   -4.4017    0.0000 N   0  0  0  0  0  0  0  0  0  0  0  0
    1.7537   -5.0118    0.0000 C   0  0  0  0  0  0  0  0  0  0  0  0
    1.4418   -6.4791    0.0000 C   0  0  0  0  0  0  0  0  0  0  0  0
    0.0152   -6.9426    0.0000 O   0  0  0  0  0  0  0  0  0  0  0  0
    2.5565   -7.4827    0.0000 N   0  0  0  0  0  0  0  0  0  0  0  0
    2.2447   -8.9500    0.0000 C   0  0  0  0  0  0  0  0  0  0  0  0
    2.7082  -10.3766    0.0000 C   0  0  0  0  0  0  0  0  0  0  0  0
    1.2410  -10.0647    0.0000 C   0  0  0  0  0  0  0  0  0  0  0  0
    0.7500   -3.8971    0.0000 C   0  0  0  0  0  0  0  0  0  0  0  0
    1.5000   -2.5981    0.0000 C   0  0  0  0  0  0  0  0  0  0  0  0
    0.7500   -1.2990    0.0000 C   0  0  0  0  0  0  0  0  0  0  0  0
    1.5000    0.0000    0.0000 N   0  0  0  0  0  0  0  0  0  0  0  0
    0.7500    1.2990    0.0000 C   0  0  0  0  0  0  0  0  0  0  0  0
    1.5000    2.5981    0.0000 N   0  0  0  0  0  0  0  0  0  0  0  0
    3.0000    2.5981    0.0000 C   0  0  0  0  0  0  0  0  0  0  0  0
    3.7500    1.2990    0.0000 C   0  0  0  0  0  0  0  0  0  0  0  0
    5.2500    1.2990    0.0000 C   0  0  0  0  0  0  0  0  0  0  0  0
    6.0000    2.5981    0.0000 C   0  0  0  0  0  0  0  0  0  0  0  0
    5.2500    3.8971    0.0000 C   0  0  0  0  0  0  0  0  0  0  0  0
    3.7500    3.8971    0.0000 C   0  0  0  0  0  0  0  0  0  0  0  0
   -0.7500    1.2990    0.0000 N   0  0  0  0  0  0  0  0  0  0  0  0
   -1.5000    0.0000    0.0000 C   0  0  0  0  0  0  0  0  0  0  0  0
   -0.7500   -1.2990    0.0000 C   0  0  0  0  0  0  0  0  0  0  0  0
   -1.5000   -2.5981    0.0000 C   0  0  0  0  0  0  0  0  0  0  0  0
   -0.7500   -3.8971    0.0000 C   0  0  0  0  0  0  0  0  0  0  0  0
  1  2  1  0
  2  3  1  0
  3  4  2  0
  4  5  1  0
  5  6  2  0
  5  7  1  0
  7  8  1  0
  8  9  1  0
  9 10  1  0
  4 11  1  0
 11 12  2  0
 12 13  1  0
 13 14  2  0
 14 15  1  0
 15 16  1  0
 16 17  1  0
 17 18  2  0
 18 19  1  0
 19 20  2  0
 20 21  1  0
 21 22  2  0
 15 23  2  0
 23 24  1  0
 24 25  2  0
 25 26  1  0
 26 27  1  0
 12  2  1  0
 25 13  1  0
 10  8  1  0
 27 11  1  0
 22 17  1  0
M  END
>  <Compound_ID>  (450) 
CHEMBL559639

>  <Active>  (450) 
1

>  <Smiles>  (450) 
Cn1nc(C(=O)NC2CC2)c2c1-c1nc(Nc3ccccc3)ncc1CC2

>  <canonical_smi>  (450) 
Cn1nc(C(=O)NC2CC2)c2c1-c1nc(Nc3ccccc3)ncc1CC2

>  <Set>  (450) 
G2 active

>  <Set_type>  (450) 
Test

>  <MW>  (450) 
360.42

>  <HBD>  (450) 
2

>  <HBA>  (450) 
5

>  <NRB>  (450) 
4

>  <NR>  (450) 
5

>  <NAR>  (450) 
3

>  <PSA>  (450) 
84.73

>  <Standard Type>  (450) 
nan

>  <Standard Relation>  (450) 
nan

>  <Standard Units>  (450) 
nan

>  <Standard Value>  (450) 
nan

>  <Assay ChEMBL ID>  (450) 
nan

>  <Assay Description>  (450) 
nan

>  <BAO Label>  (450) 
nan

$$$$

     RDKit          2D

 23 25  0  0  0  0  0  0  0  0999 V2000
    3.7500   -1.2990    0.0000 C   0  0  0  0  0  0  0  0  0  0  0  0
    3.0000    0.0000    0.0000 C   0  0  0  0  0  0  0  0  0  0  0  0
    1.5000    0.0000    0.0000 C   0  0  0  0  0  0  0  0  0  0  0  0
    0.7500   -1.2990    0.0000 N   0  0  0  0  0  0  0  0  0  0  0  0
   -0.7500   -1.2990    0.0000 C   0  0  0  0  0  0  0  0  0  0  0  0
   -1.5000   -2.5981    0.0000 O   0  0  0  0  0  0  0  0  0  0  0  0
   -1.5000    0.0000    0.0000 C   0  0  0  0  0  0  0  0  0  0  0  0
   -2.9672    0.3119    0.0000 C   0  0  0  0  0  0  0  0  0  0  0  0
   -4.0819   -0.6918    0.0000 C   0  0  0  0  0  0  0  0  0  0  0  0
   -5.5085   -0.2283    0.0000 C   0  0  0  0  0  0  0  0  0  0  0  0
   -3.1240    1.8037    0.0000 N   0  0  0  0  0  0  0  0  0  0  0  0
   -1.7537    2.4138    0.0000 N   0  0  0  0  0  0  0  0  0  0  0  0
   -1.4418    3.8810    0.0000 C   0  0  0  0  0  0  0  0  0  0  0  0
   -0.0152    4.3445    0.0000 C   0  0  0  0  0  0  0  0  0  0  0  0
    1.0995    3.3408    0.0000 Cl  0  0  0  0  0  0  0  0  0  0  0  0
    0.2966    5.8117    0.0000 C   0  0  0  0  0  0  0  0  0  0  0  0
   -0.8181    6.8154    0.0000 C   0  0  0  0  0  0  0  0  0  0  0  0
   -0.5062    8.2826    0.0000 Cl  0  0  0  0  0  0  0  0  0  0  0  0
   -2.2447    6.3519    0.0000 C   0  0  0  0  0  0  0  0  0  0  0  0
   -2.5565    4.8847    0.0000 C   0  0  0  0  0  0  0  0  0  0  0  0
   -3.9831    4.4211    0.0000 Cl  0  0  0  0  0  0  0  0  0  0  0  0
   -0.7500    1.2990    0.0000 C   0  0  0  0  0  0  0  0  0  0  0  0
    0.7500    1.2990    0.0000 N   0  0  0  0  0  0  0  0  0  0  0  0
  1  2  1  0
  2  3  1  0
  3  4  2  0
  4  5  1  0
  5  6  1  0
  5  7  2  0
  7  8  1  0
  8  9  1  0
  9 10  1  0
  8 11  2  0
 11 12  1  0
 12 13  1  0
 13 14  2  0
 14 15  1  0
 14 16  1  0
 16 17  2  0
 17 18  1  0
 17 19  1  0
 19 20  2  0
 20 21  1  0
 12 22  1  0
 22 23  2  0
 23  3  1  0
 22  7  1  0
 20 13  1  0
M  END
>  <Compound_ID>  (451) 
CHEMBL363172

>  <Active>  (451) 
1

>  <Smiles>  (451) 
CCc1nc(O)c2c(CC)nn(-c3c(Cl)cc(Cl)cc3Cl)c2n1

>  <canonical_smi>  (451) 
CCc1nc(O)c2c(CC)nn(-c3c(Cl)cc(Cl)cc3Cl)c2n1

>  <Set>  (451) 
G2 active

>  <Set_type>  (451) 
Test

>  <MW>  (451) 
371.66

>  <HBD>  (451) 
1

>  <HBA>  (451) 
4

>  <NRB>  (451) 
3

>  <NR>  (451) 
3

>  <NAR>  (451) 
3

>  <PSA>  (451) 
63.83

>  <Standard Type>  (451) 
nan

>  <Standard Relation>  (451) 
nan

>  <Standard Units>  (451) 
nan

>  <Standard Value>  (451) 
nan

>  <Assay ChEMBL ID>  (451) 
nan

>  <Assay Description>  (451) 
nan

>  <BAO Label>  (451) 
nan

$$$$

     RDKit          2D

 37 40  0  0  0  0  0  0  0  0999 V2000
    0.4022   -7.7629    0.0000 N   0  0  0  0  0  0  0  0  0  0  0  0
    0.2454   -6.2711    0.0000 C   0  0  0  0  0  0  0  0  0  0  0  0
    1.3601   -5.2674    0.0000 N   0  0  0  0  0  0  0  0  0  0  0  0
    0.7500   -3.8971    0.0000 C   0  0  0  0  0  0  0  0  0  0  0  0
    1.5000   -2.5981    0.0000 N   0  0  0  0  0  0  0  0  0  0  0  0
    0.7500   -1.2990    0.0000 C   0  0  0  0  0  0  0  0  0  0  0  0
    1.5000    0.0000    0.0000 C   0  0  0  0  0  0  0  0  0  0  0  0
    0.7500    1.2990    0.0000 C   0  0  0  0  0  0  0  0  0  0  0  0
   -0.7500    1.2990    0.0000 C   0  0  0  0  0  0  0  0  0  0  0  0
   -1.5000    2.5981    0.0000 S   0  0  0  0  0  0  0  0  0  0  0  0
   -0.2010    3.3481    0.0000 O   0  0  0  0  0  0  0  0  0  0  0  0
   -2.7990    1.8481    0.0000 O   0  0  0  0  0  0  0  0  0  0  0  0
   -2.2500    3.8971    0.0000 N   0  0  0  0  0  0  0  0  0  0  0  0
   -3.7500    3.8971    0.0000 C   0  0  0  0  0  0  0  0  0  0  0  0
   -4.5000    2.5981    0.0000 O   0  0  0  0  0  0  0  0  0  0  0  0
   -4.5000    5.1962    0.0000 C   0  0  0  0  0  0  0  0  0  0  0  0
   -6.0000    5.1962    0.0000 C   0  0  0  0  0  0  0  0  0  0  0  0
   -6.7500    6.4952    0.0000 N   0  0  0  0  0  0  0  0  0  0  0  0
   -6.0000    7.7942    0.0000 C   0  0  0  0  0  0  0  0  0  0  0  0
   -6.7500    9.0933    0.0000 C   0  0  0  0  0  0  0  0  0  0  0  0
   -8.2500    9.0933    0.0000 O   0  0  0  0  0  0  0  0  0  0  0  0
   -9.0000    7.7942    0.0000 C   0  0  0  0  0  0  0  0  0  0  0  0
   -8.2500    6.4952    0.0000 C   0  0  0  0  0  0  0  0  0  0  0  0
   -1.5000    0.0000    0.0000 C   0  0  0  0  0  0  0  0  0  0  0  0
   -0.7500   -1.2990    0.0000 C   0  0  0  0  0  0  0  0  0  0  0  0
   -0.7418   -4.0539    0.0000 N   0  0  0  0  0  0  0  0  0  0  0  0
   -1.0537   -5.5211    0.0000 N   0  0  0  0  0  0  0  0  0  0  0  0
   -2.4240   -6.1312    0.0000 C   0  0  0  0  0  0  0  0  0  0  0  0
   -2.5808   -7.6230    0.0000 O   0  0  0  0  0  0  0  0  0  0  0  0
   -3.6375   -5.2496    0.0000 C   0  0  0  0  0  0  0  0  0  0  0  0
   -3.4807   -3.7578    0.0000 C   0  0  0  0  0  0  0  0  0  0  0  0
   -2.1104   -3.1477    0.0000 F   0  0  0  0  0  0  0  0  0  0  0  0
   -4.6942   -2.8761    0.0000 C   0  0  0  0  0  0  0  0  0  0  0  0
   -6.0645   -3.4862    0.0000 C   0  0  0  0  0  0  0  0  0  0  0  0
   -6.2213   -4.9780    0.0000 C   0  0  0  0  0  0  0  0  0  0  0  0
   -5.0078   -5.8597    0.0000 C   0  0  0  0  0  0  0  0  0  0  0  0
   -5.1646   -7.3514    0.0000 F   0  0  0  0  0  0  0  0  0  0  0  0
  1  2  1  0
  2  3  2  0
  3  4  1  0
  4  5  1  0
  5  6  1  0
  6  7  2  0
  7  8  1  0
  8  9  2  0
  9 10  1  0
 10 11  2  0
 10 12  2  0
 10 13  1  0
 13 14  1  0
 14 15  2  0
 14 16  1  0
 16 17  1  0
 17 18  1  0
 18 19  1  0
 19 20  1  0
 20 21  1  0
 21 22  1  0
 22 23  1  0
  9 24  1  0
 24 25  2  0
  4 26  2  0
 26 27  1  0
 27 28  1  0
 28 29  2  0
 28 30  1  0
 30 31  2  0
 31 32  1  0
 31 33  1  0
 33 34  2  0
 34 35  1  0
 35 36  2  0
 36 37  1  0
 27  2  1  0
 36 30  1  0
 25  6  1  0
 23 18  1  0
M  END
>  <Compound_ID>  (452) 
CHEMBL378420

>  <Active>  (452) 
1

>  <Smiles>  (452) 
Nc1nc(Nc2ccc(S(=O)(=O)NC(=O)CCN3CCOCC3)cc2)nn1C(=O)c1c(F)cccc1F

>  <canonical_smi>  (452) 
Nc1nc(Nc2ccc(S(=O)(=O)NC(=O)CCN3CCOCC3)cc2)nn1C(=O)c1c(F)cccc1F

>  <Set>  (452) 
G2 active

>  <Set_type>  (452) 
Test

>  <MW>  (452) 
535.53

>  <HBD>  (452) 
3

>  <HBA>  (452) 
10

>  <NRB>  (452) 
8

>  <NR>  (452) 
4

>  <NAR>  (452) 
3

>  <PSA>  (452) 
161.54

>  <Standard Type>  (452) 
nan

>  <Standard Relation>  (452) 
nan

>  <Standard Units>  (452) 
nan

>  <Standard Value>  (452) 
nan

>  <Assay ChEMBL ID>  (452) 
nan

>  <Assay Description>  (452) 
nan

>  <BAO Label>  (452) 
nan

$$$$

     RDKit          2D

 30 33  0  0  0  0  0  0  0  0999 V2000
  -10.5738    5.8451    0.0000 C   0  0  0  0  0  0  0  0  0  0  0  0
   -9.1472    6.3086    0.0000 N   0  0  0  0  0  0  0  0  0  0  0  0
   -8.8353    7.7759    0.0000 C   0  0  0  0  0  0  0  0  0  0  0  0
   -8.0325    5.3050    0.0000 S   0  0  0  0  0  0  0  0  0  0  0  0
   -7.0288    6.4197    0.0000 O   0  0  0  0  0  0  0  0  0  0  0  0
   -9.0362    4.1902    0.0000 O   0  0  0  0  0  0  0  0  0  0  0  0
   -6.9177    4.3013    0.0000 C   0  0  0  0  0  0  0  0  0  0  0  0
   -5.4912    4.7648    0.0000 C   0  0  0  0  0  0  0  0  0  0  0  0
   -4.3764    3.7611    0.0000 C   0  0  0  0  0  0  0  0  0  0  0  0
   -4.6883    2.2939    0.0000 C   0  0  0  0  0  0  0  0  0  0  0  0
   -3.5736    1.2902    0.0000 N   0  0  0  0  0  0  0  0  0  0  0  0
   -2.1470    1.7537    0.0000 C   0  0  0  0  0  0  0  0  0  0  0  0
   -1.8351    3.2209    0.0000 C   0  0  0  0  0  0  0  0  0  0  0  0
   -0.4086    3.6844    0.0000 C   0  0  0  0  0  0  0  0  0  0  0  0
   -0.0967    5.1517    0.0000 N   0  0  0  0  0  0  0  0  0  0  0  0
    1.3299    5.6152    0.0000 C   0  0  0  0  0  0  0  0  0  0  0  0
    2.4446    4.6115    0.0000 C   0  0  0  0  0  0  0  0  0  0  0  0
    3.8712    5.0750    0.0000 C   0  0  0  0  0  0  0  0  0  0  0  0
    4.1831    6.5422    0.0000 C   0  0  0  0  0  0  0  0  0  0  0  0
    5.6097    7.0058    0.0000 N   0  0  0  0  0  0  0  0  0  0  0  0
    3.0684    7.5459    0.0000 C   0  0  0  0  0  0  0  0  0  0  0  0
    1.6418    7.0824    0.0000 C   0  0  0  0  0  0  0  0  0  0  0  0
    0.7062    2.6807    0.0000 N   0  0  0  0  0  0  0  0  0  0  0  0
    0.3943    1.2135    0.0000 C   0  0  0  0  0  0  0  0  0  0  0  0
    1.2760    0.0000    0.0000 N   0  0  0  0  0  0  0  0  0  0  0  0
    0.3943   -1.2135    0.0000 C   0  0  0  0  0  0  0  0  0  0  0  0
   -1.0323   -0.7500    0.0000 N   0  0  0  0  0  0  0  0  0  0  0  0
   -1.0323    0.7500    0.0000 N   0  0  0  0  0  0  0  0  0  0  0  0
   -6.1149    1.8303    0.0000 C   0  0  0  0  0  0  0  0  0  0  0  0
   -7.2296    2.8340    0.0000 C   0  0  0  0  0  0  0  0  0  0  0  0
  1  2  1  0
  2  3  1  0
  2  4  1  0
  4  5  2  0
  4  6  2  0
  4  7  1  0
  7  8  2  0
  8  9  1  0
  9 10  2  0
 10 11  1  0
 11 12  1  0
 12 13  2  0
 13 14  1  0
 14 15  1  0
 15 16  1  0
 16 17  1  0
 17 18  1  0
 18 19  1  0
 19 20  1  0
 19 21  1  0
 21 22  1  0
 14 23  2  0
 23 24  1  0
 24 25  2  0
 25 26  1  0
 26 27  2  0
 27 28  1  0
 10 29  1  0
 29 30  2  0
 30  7  1  0
 28 12  1  0
 22 16  1  0
 28 24  1  0
M  END
>  <Compound_ID>  (453) 
CHEMBL202695

>  <Active>  (453) 
1

>  <Smiles>  (453) 
CN(C)S(=O)(=O)c1ccc(Nc2cc(NC3CCC(N)CC3)nc3ncnn23)cc1

>  <canonical_smi>  (453) 
CN(C)S(=O)(=O)c1ccc(Nc2cc(NC3CCC(N)CC3)nc3ncnn23)cc1

>  <Set>  (453) 
G2 active

>  <Set_type>  (453) 
Test

>  <MW>  (453) 
430.54

>  <HBD>  (453) 
3

>  <HBA>  (453) 
8

>  <NRB>  (453) 
6

>  <NR>  (453) 
4

>  <NAR>  (453) 
3

>  <PSA>  (453) 
130.54

>  <Standard Type>  (453) 
nan

>  <Standard Relation>  (453) 
nan

>  <Standard Units>  (453) 
nan

>  <Standard Value>  (453) 
nan

>  <Assay ChEMBL ID>  (453) 
nan

>  <Assay Description>  (453) 
nan

>  <BAO Label>  (453) 
nan

$$$$

     RDKit          2D

 36 40  0  0  0  0  0  0  0  0999 V2000
    6.0000   -7.7942    0.0000 C   0  0  0  0  0  0  0  0  0  0  0  0
    5.2500   -6.4952    0.0000 C   0  0  0  0  0  0  0  0  0  0  0  0
    3.7500   -6.4952    0.0000 C   0  0  0  0  0  0  0  0  0  0  0  0
    3.0000   -5.1962    0.0000 N   0  0  0  0  0  0  0  0  0  0  0  0
    3.7500   -3.8971    0.0000 C   0  0  0  0  0  0  0  0  0  0  0  0
    3.0000   -2.5981    0.0000 N   0  0  0  0  0  0  0  0  0  0  0  0
    1.5000   -2.5981    0.0000 C   0  0  0  0  0  0  0  0  0  0  0  0
    0.7500   -3.8971    0.0000 C   0  0  0  0  0  0  0  0  0  0  0  0
   -0.7500   -3.8971    0.0000 C   0  0  0  0  0  0  0  0  0  0  0  0
   -1.5000   -2.5981    0.0000 C   0  0  0  0  0  0  0  0  0  0  0  0
   -0.7500   -1.2990    0.0000 C   0  0  0  0  0  0  0  0  0  0  0  0
    0.7500   -1.2990    0.0000 C   0  0  0  0  0  0  0  0  0  0  0  0
    1.5000    0.0000    0.0000 O   0  0  0  0  0  0  0  0  0  0  0  0
    0.7500    1.2990    0.0000 C   0  0  0  0  0  0  0  0  0  0  0  0
   -0.7500    1.2990    0.0000 C   0  0  0  0  0  0  0  0  0  0  0  0
   -1.5000    0.0000    0.0000 O   0  0  0  0  0  0  0  0  0  0  0  0
    5.2500   -3.8971    0.0000 N   0  0  0  0  0  0  0  0  0  0  0  0
    6.0000   -5.1962    0.0000 C   0  0  0  0  0  0  0  0  0  0  0  0
    7.5000   -5.1962    0.0000 C   0  0  0  0  0  0  0  0  0  0  0  0
    8.3817   -3.9826    0.0000 C   0  0  0  0  0  0  0  0  0  0  0  0
    9.8083   -4.4462    0.0000 N   0  0  0  0  0  0  0  0  0  0  0  0
    9.8083   -5.9462    0.0000 C   0  0  0  0  0  0  0  0  0  0  0  0
   11.0218   -6.8278    0.0000 C   0  0  0  0  0  0  0  0  0  0  0  0
   12.3921   -6.2177    0.0000 O   0  0  0  0  0  0  0  0  0  0  0  0
   10.8650   -8.3196    0.0000 N   0  0  0  0  0  0  0  0  0  0  0  0
   12.0785   -9.2013    0.0000 C   0  0  0  0  0  0  0  0  0  0  0  0
   13.4488   -8.5912    0.0000 C   0  0  0  0  0  0  0  0  0  0  0  0
   14.6624   -9.4729    0.0000 O   0  0  0  0  0  0  0  0  0  0  0  0
   11.9217  -10.6931    0.0000 C   0  0  0  0  0  0  0  0  0  0  0  0
   10.5514  -11.3032    0.0000 C   0  0  0  0  0  0  0  0  0  0  0  0
   10.3946  -12.7950    0.0000 C   0  0  0  0  0  0  0  0  0  0  0  0
   11.6081  -13.6766    0.0000 C   0  0  0  0  0  0  0  0  0  0  0  0
   12.9785  -13.0665    0.0000 C   0  0  0  0  0  0  0  0  0  0  0  0
   14.1920  -13.9482    0.0000 Cl  0  0  0  0  0  0  0  0  0  0  0  0
   13.1353  -11.5748    0.0000 C   0  0  0  0  0  0  0  0  0  0  0  0
    8.3817   -6.4097    0.0000 C   0  0  0  0  0  0  0  0  0  0  0  0
  1  2  1  0
  2  3  2  0
  3  4  1  0
  4  5  2  0
  5  6  1  0
  6  7  1  0
  7  8  2  0
  8  9  1  0
  9 10  2  0
 10 11  1  0
 11 12  2  0
 12 13  1  0
 13 14  1  0
 14 15  1  0
 15 16  1  0
  5 17  1  0
 17 18  2  0
 18 19  1  0
 19 20  2  0
 20 21  1  0
 21 22  1  0
 22 23  1  0
 23 24  2  0
 23 25  1  0
 25 26  1  0
 26 27  1  6
 27 28  1  0
 26 29  1  0
 29 30  2  0
 30 31  1  0
 31 32  2  0
 32 33  1  0
 33 34  1  0
 33 35  2  0
 22 36  2  0
 18  2  1  0
 36 19  1  0
 12  7  1  0
 35 29  1  0
 16 11  1  0
M  END
>  <Compound_ID>  (454) 
CHEMBL571722

>  <Active>  (454) 
1

>  <Smiles>  (454) 
Cc1cnc(Nc2cccc3c2OCCO3)nc1-c1c[nH]c(C(=O)N[C@H](CO)c2cccc(Cl)c2)c1

>  <canonical_smi>  (454) 
Cc1cnc(Nc2cccc3c2OCCO3)nc1-c1c[nH]c(C(=O)N[C@H](CO)c2cccc(Cl)c2)c1

>  <Set>  (454) 
G2 active

>  <Set_type>  (454) 
Test

>  <MW>  (454) 
505.96

>  <HBD>  (454) 
4

>  <HBA>  (454) 
7

>  <NRB>  (454) 
7

>  <NR>  (454) 
5

>  <NAR>  (454) 
4

>  <PSA>  (454) 
121.39

>  <Standard Type>  (454) 
nan

>  <Standard Relation>  (454) 
nan

>  <Standard Units>  (454) 
nan

>  <Standard Value>  (454) 
nan

>  <Assay ChEMBL ID>  (454) 
nan

>  <Assay Description>  (454) 
nan

>  <BAO Label>  (454) 
nan

$$$$

     RDKit          2D

 23 26  0  0  0  0  0  0  0  0999 V2000
    5.2500   -1.2990    0.0000 N   0  0  0  0  0  0  0  0  0  0  0  0
    3.7500   -1.2990    0.0000 C   0  0  0  0  0  0  0  0  0  0  0  0
    3.0000   -2.5981    0.0000 O   0  0  0  0  0  0  0  0  0  0  0  0
    3.0000    0.0000    0.0000 N   0  0  0  0  0  0  0  0  0  0  0  0
    1.5000    0.0000    0.0000 C   0  0  0  0  0  0  0  0  0  0  0  0
    0.7500   -1.2990    0.0000 C   0  0  0  0  0  0  0  0  0  0  0  0
   -0.7500   -1.2990    0.0000 C   0  0  0  0  0  0  0  0  0  0  0  0
   -1.5000    0.0000    0.0000 C   0  0  0  0  0  0  0  0  0  0  0  0
   -0.7500    1.2990    0.0000 C   0  0  0  0  0  0  0  0  0  0  0  0
    0.7500    1.2990    0.0000 C   0  0  0  0  0  0  0  0  0  0  0  0
    1.2135    2.7256    0.0000 C   0  0  0  0  0  0  0  0  0  0  0  0
    2.6401    3.1891    0.0000 O   0  0  0  0  0  0  0  0  0  0  0  0
    0.0000    3.6073    0.0000 C   0  0  0  0  0  0  0  0  0  0  0  0
   -0.4635    5.0339    0.0000 C   0  0  0  0  0  0  0  0  0  0  0  0
    0.4182    6.2474    0.0000 C   0  0  0  0  0  0  0  0  0  0  0  0
    1.9099    6.0906    0.0000 C   0  0  0  0  0  0  0  0  0  0  0  0
    2.7916    7.3041    0.0000 C   0  0  0  0  0  0  0  0  0  0  0  0
    2.1815    8.6745    0.0000 C   0  0  0  0  0  0  0  0  0  0  0  0
    0.6897    8.8313    0.0000 C   0  0  0  0  0  0  0  0  0  0  0  0
   -0.1920    7.6177    0.0000 C   0  0  0  0  0  0  0  0  0  0  0  0
   -1.9635    5.0339    0.0000 N   0  0  0  0  0  0  0  0  0  0  0  0
   -2.4271    3.6073    0.0000 N   0  0  0  0  0  0  0  0  0  0  0  0
   -1.2135    2.7256    0.0000 C   0  0  0  0  0  0  0  0  0  0  0  0
  1  2  1  0
  2  3  2  0
  2  4  1  0
  4  5  1  0
  5  6  2  0
  6  7  1  0
  7  8  2  0
  8  9  1  0
  9 10  2  0
 10 11  1  0
 11 12  2  0
 11 13  1  0
 13 14  1  0
 14 15  1  0
 15 16  1  0
 16 17  1  0
 17 18  1  0
 18 19  1  0
 19 20  1  0
 14 21  2  0
 21 22  1  0
 22 23  1  0
 10  5  1  0
 23 13  2  0
 23  9  1  0
 20 15  1  0
M  END
>  <Compound_ID>  (455) 
CHEMBL147018

>  <Active>  (455) 
1

>  <Smiles>  (455) 
NC(=O)Nc1cccc2c1C(=O)c1c(C3CCCCC3)n[nH]c1-2

>  <canonical_smi>  (455) 
NC(=O)Nc1cccc2c1C(=O)c1c(C3CCCCC3)n[nH]c1-2

>  <Set>  (455) 
G2 active

>  <Set_type>  (455) 
Test

>  <MW>  (455) 
310.36

>  <HBD>  (455) 
3

>  <HBA>  (455) 
3

>  <NRB>  (455) 
2

>  <NR>  (455) 
4

>  <NAR>  (455) 
3

>  <PSA>  (455) 
100.87

>  <Standard Type>  (455) 
nan

>  <Standard Relation>  (455) 
nan

>  <Standard Units>  (455) 
nan

>  <Standard Value>  (455) 
nan

>  <Assay ChEMBL ID>  (455) 
nan

>  <Assay Description>  (455) 
nan

>  <BAO Label>  (455) 
nan

$$$$

     RDKit          2D

 20 22  0  0  0  0  0  0  0  0999 V2000
   -0.7500   -3.8971    0.0000 O   0  0  0  0  0  0  0  0  0  0  0  0
    0.7500   -3.8971    0.0000 C   0  0  0  0  0  0  0  0  0  0  0  0
    1.5000   -2.5981    0.0000 C   0  0  0  0  0  0  0  0  0  0  0  0
    0.7500   -1.2990    0.0000 C   0  0  0  0  0  0  0  0  0  0  0  0
    1.5000    0.0000    0.0000 C   0  0  0  0  0  0  0  0  0  0  0  0
    0.7500    1.2990    0.0000 C   0  0  0  0  0  0  0  0  0  0  0  0
   -0.7500    1.2990    0.0000 C   0  0  0  0  0  0  0  0  0  0  0  0
   -1.5000    0.0000    0.0000 C   0  0  0  0  0  0  0  0  0  0  0  0
   -0.7500   -1.2990    0.0000 C   0  0  0  0  0  0  0  0  0  0  0  0
    1.5000   -5.1962    0.0000 N   0  0  0  0  0  0  0  0  0  0  0  0
    0.7500   -6.4952    0.0000 C   0  0  0  0  0  0  0  0  0  0  0  0
    1.3601   -7.8655    0.0000 N   0  0  0  0  0  0  0  0  0  0  0  0
    0.2454   -8.8692    0.0000 C   0  0  0  0  0  0  0  0  0  0  0  0
   -1.0537   -8.1192    0.0000 C   0  0  0  0  0  0  0  0  0  0  0  0
   -2.4240   -8.7293    0.0000 C   0  0  0  0  0  0  0  0  0  0  0  0
   -2.7358  -10.1965    0.0000 C   0  0  0  0  0  0  0  0  0  0  0  0
   -4.2276  -10.3533    0.0000 C   0  0  0  0  0  0  0  0  0  0  0  0
   -4.8377   -8.9830    0.0000 C   0  0  0  0  0  0  0  0  0  0  0  0
   -3.7230   -7.9793    0.0000 C   0  0  0  0  0  0  0  0  0  0  0  0
   -0.7418   -6.6520    0.0000 S   0  0  0  0  0  0  0  0  0  0  0  0
  1  2  2  0
  2  3  1  0
  3  4  1  0
  4  5  2  0
  5  6  1  0
  6  7  2  0
  7  8  1  0
  8  9  2  0
  2 10  1  0
 10 11  1  0
 11 12  2  0
 12 13  1  0
 13 14  2  0
 14 15  1  0
 15 16  1  0
 16 17  1  0
 17 18  1  0
 18 19  1  0
 14 20  1  0
  9  4  1  0
 20 11  1  0
 19 15  1  0
M  END
>  <Compound_ID>  (456) 
CHEMBL186511

>  <Active>  (456) 
1

>  <Smiles>  (456) 
O=C(Cc1ccccc1)Nc1ncc(C2CCCC2)s1

>  <canonical_smi>  (456) 
O=C(Cc1ccccc1)Nc1ncc(C2CCCC2)s1

>  <Set>  (456) 
G2 active

>  <Set_type>  (456) 
Test

>  <MW>  (456) 
286.4

>  <HBD>  (456) 
1

>  <HBA>  (456) 
2

>  <NRB>  (456) 
4

>  <NR>  (456) 
3

>  <NAR>  (456) 
2

>  <PSA>  (456) 
41.99

>  <Standard Type>  (456) 
nan

>  <Standard Relation>  (456) 
nan

>  <Standard Units>  (456) 
nan

>  <Standard Value>  (456) 
nan

>  <Assay ChEMBL ID>  (456) 
nan

>  <Assay Description>  (456) 
nan

>  <BAO Label>  (456) 
nan

$$$$

     RDKit          2D

 33 37  0  0  0  0  0  0  0  0999 V2000
    3.4430   -7.9964    0.0000 O   0  0  0  0  0  0  0  0  0  0  0  0
    3.7548   -6.5291    0.0000 C   0  0  0  0  0  0  0  0  0  0  0  0
    2.6401   -5.5255    0.0000 N   0  0  0  0  0  0  0  0  0  0  0  0
    1.2135   -5.9890    0.0000 C   0  0  0  0  0  0  0  0  0  0  0  0
    0.7500   -7.4156    0.0000 C   0  0  0  0  0  0  0  0  0  0  0  0
   -0.7500   -7.4156    0.0000 N   0  0  0  0  0  0  0  0  0  0  0  0
   -1.2135   -5.9890    0.0000 N   0  0  0  0  0  0  0  0  0  0  0  0
   -0.0000   -5.1073    0.0000 C   0  0  0  0  0  0  0  0  0  0  0  0
   -0.0000   -3.6073    0.0000 C   0  0  0  0  0  0  0  0  0  0  0  0
    1.2135   -2.7256    0.0000 N   0  0  0  0  0  0  0  0  0  0  0  0
    0.7500   -1.2990    0.0000 C   0  0  0  0  0  0  0  0  0  0  0  0
    1.5000    0.0000    0.0000 C   0  0  0  0  0  0  0  0  0  0  0  0
    0.7500    1.2990    0.0000 C   0  0  0  0  0  0  0  0  0  0  0  0
    1.5000    2.5981    0.0000 C   0  0  0  0  0  0  0  0  0  0  0  0
    3.0000    2.5981    0.0000 N   0  0  0  0  0  0  0  0  0  0  0  0
    3.7500    1.2990    0.0000 C   0  0  0  0  0  0  0  0  0  0  0  0
    5.2500    1.2990    0.0000 C   0  0  0  0  0  0  0  0  0  0  0  0
    6.0000    2.5981    0.0000 O   0  0  0  0  0  0  0  0  0  0  0  0
    5.2500    3.8971    0.0000 C   0  0  0  0  0  0  0  0  0  0  0  0
    3.7500    3.8971    0.0000 C   0  0  0  0  0  0  0  0  0  0  0  0
   -0.7500    1.2990    0.0000 C   0  0  0  0  0  0  0  0  0  0  0  0
   -1.5000    0.0000    0.0000 C   0  0  0  0  0  0  0  0  0  0  0  0
   -0.7500   -1.2990    0.0000 C   0  0  0  0  0  0  0  0  0  0  0  0
   -1.2135   -2.7256    0.0000 N   0  0  0  0  0  0  0  0  0  0  0  0
    5.1814   -6.0656    0.0000 N   0  0  0  0  0  0  0  0  0  0  0  0
    6.2961   -7.0693    0.0000 C   0  0  0  0  0  0  0  0  0  0  0  0
    5.9843   -8.5365    0.0000 C   0  0  0  0  0  0  0  0  0  0  0  0
    4.5577   -9.0001    0.0000 F   0  0  0  0  0  0  0  0  0  0  0  0
    7.0990   -9.5402    0.0000 C   0  0  0  0  0  0  0  0  0  0  0  0
    8.5256   -9.0767    0.0000 C   0  0  0  0  0  0  0  0  0  0  0  0
    8.8374   -7.6095    0.0000 C   0  0  0  0  0  0  0  0  0  0  0  0
    7.7227   -6.6058    0.0000 C   0  0  0  0  0  0  0  0  0  0  0  0
    8.0346   -5.1386    0.0000 F   0  0  0  0  0  0  0  0  0  0  0  0
  1  2  2  0
  2  3  1  0
  3  4  1  0
  4  5  2  0
  5  6  1  0
  6  7  1  0
  7  8  2  0
  8  9  1  0
  9 10  2  0
 10 11  1  0
 11 12  2  0
 12 13  1  0
 13 14  1  0
 14 15  1  0
 15 16  1  0
 16 17  1  0
 17 18  1  0
 18 19  1  0
 19 20  1  0
 13 21  2  0
 21 22  1  0
 22 23  2  0
 23 24  1  0
  2 25  1  0
 25 26  1  0
 26 27  2  0
 27 28  1  0
 27 29  1  0
 29 30  2  0
 30 31  1  0
 31 32  2  0
 32 33  1  0
  8  4  1  0
 24  9  1  0
 32 26  1  0
 23 11  1  0
 20 15  1  0
M  END
>  <Compound_ID>  (457) 
CHEMBL458421

>  <Active>  (457) 
1

>  <Smiles>  (457) 
O=C(Nc1c[nH]nc1-c1nc2cc(CN3CCOCC3)ccc2[nH]1)Nc1c(F)cccc1F

>  <canonical_smi>  (457) 
O=C(Nc1c[nH]nc1-c1nc2cc(CN3CCOCC3)ccc2[nH]1)Nc1c(F)cccc1F

>  <Set>  (457) 
G2 active

>  <Set_type>  (457) 
Test

>  <MW>  (457) 
453.45

>  <HBD>  (457) 
4

>  <HBA>  (457) 
5

>  <NRB>  (457) 
5

>  <NR>  (457) 
5

>  <NAR>  (457) 
4

>  <PSA>  (457) 
110.96

>  <Standard Type>  (457) 
nan

>  <Standard Relation>  (457) 
nan

>  <Standard Units>  (457) 
nan

>  <Standard Value>  (457) 
nan

>  <Assay ChEMBL ID>  (457) 
nan

>  <Assay Description>  (457) 
nan

>  <BAO Label>  (457) 
nan

$$$$

     RDKit          2D

 24 26  0  0  0  0  0  0  0  0999 V2000
    7.4557  -13.2052    0.0000 C   0  0  0  0  0  0  0  0  0  0  0  0
    8.7547  -12.4552    0.0000 C   0  0  0  0  0  0  0  0  0  0  0  0
   10.0538  -11.7052    0.0000 C   0  0  0  0  0  0  0  0  0  0  0  0
    9.5047  -13.7542    0.0000 C   0  0  0  0  0  0  0  0  0  0  0  0
    8.0047  -11.1562    0.0000 C   0  0  0  0  0  0  0  0  0  0  0  0
    8.6148   -9.7859    0.0000 C   0  0  0  0  0  0  0  0  0  0  0  0
    7.5001   -8.7822    0.0000 N   0  0  0  0  0  0  0  0  0  0  0  0
    6.2011   -9.5322    0.0000 C   0  0  0  0  0  0  0  0  0  0  0  0
    4.8308   -8.9221    0.0000 C   0  0  0  0  0  0  0  0  0  0  0  0
    4.6740   -7.4303    0.0000 S   0  0  0  0  0  0  0  0  0  0  0  0
    3.3037   -6.8202    0.0000 C   0  0  0  0  0  0  0  0  0  0  0  0
    2.0046   -7.5702    0.0000 C   0  0  0  0  0  0  0  0  0  0  0  0
    0.8899   -6.5665    0.0000 N   0  0  0  0  0  0  0  0  0  0  0  0
    1.5000   -5.1962    0.0000 C   0  0  0  0  0  0  0  0  0  0  0  0
    0.7500   -3.8971    0.0000 N   0  0  0  0  0  0  0  0  0  0  0  0
    1.5000   -2.5981    0.0000 C   0  0  0  0  0  0  0  0  0  0  0  0
    0.7500   -1.2990    0.0000 C   0  0  0  0  0  0  0  0  0  0  0  0
    1.5000    0.0000    0.0000 C   0  0  0  0  0  0  0  0  0  0  0  0
    0.7500    1.2990    0.0000 C   0  0  0  0  0  0  0  0  0  0  0  0
   -0.7500    1.2990    0.0000 C   0  0  0  0  0  0  0  0  0  0  0  0
   -1.5000    0.0000    0.0000 C   0  0  0  0  0  0  0  0  0  0  0  0
   -0.7500   -1.2990    0.0000 C   0  0  0  0  0  0  0  0  0  0  0  0
    2.9918   -5.3529    0.0000 S   0  0  0  0  0  0  0  0  0  0  0  0
    6.5129  -10.9994    0.0000 O   0  0  0  0  0  0  0  0  0  0  0  0
  1  2  1  0
  2  3  1  0
  2  4  1  0
  2  5  1  0
  5  6  2  0
  6  7  1  0
  7  8  2  0
  8  9  1  0
  9 10  1  0
 10 11  1  0
 11 12  2  0
 12 13  1  0
 13 14  2  0
 14 15  1  0
 15 16  1  0
 16 17  1  0
 17 18  1  0
 18 19  1  0
 19 20  1  0
 20 21  1  0
 21 22  1  0
 14 23  1  0
  8 24  1  0
 24  5  1  0
 23 11  1  0
 22 17  1  0
M  END
>  <Compound_ID>  (458) 
CHEMBL495754

>  <Active>  (458) 
1

>  <Smiles>  (458) 
CC(C)(C)c1cnc(CSc2cnc(NCC3CCCCC3)s2)o1

>  <canonical_smi>  (458) 
CC(C)(C)c1cnc(CSc2cnc(NCC3CCCCC3)s2)o1

>  <Set>  (458) 
G2 active

>  <Set_type>  (458) 
Test

>  <MW>  (458) 
365.57

>  <HBD>  (458) 
1

>  <HBA>  (458) 
5

>  <NRB>  (458) 
6

>  <NR>  (458) 
3

>  <NAR>  (458) 
2

>  <PSA>  (458) 
50.95

>  <Standard Type>  (458) 
nan

>  <Standard Relation>  (458) 
nan

>  <Standard Units>  (458) 
nan

>  <Standard Value>  (458) 
nan

>  <Assay ChEMBL ID>  (458) 
nan

>  <Assay Description>  (458) 
nan

>  <BAO Label>  (458) 
nan

$$$$

     RDKit          2D

 34 38  0  0  0  0  0  0  0  0999 V2000
    7.5000  -10.3923    0.0000 C   0  0  0  0  0  0  0  0  0  0  0  0
    8.2500   -9.0933    0.0000 O   0  0  0  0  0  0  0  0  0  0  0  0
    7.5000   -7.7942    0.0000 C   0  0  0  0  0  0  0  0  0  0  0  0
    6.0000   -7.7942    0.0000 C   0  0  0  0  0  0  0  0  0  0  0  0
    5.2500   -6.4952    0.0000 C   0  0  0  0  0  0  0  0  0  0  0  0
    6.0000   -5.1962    0.0000 C   0  0  0  0  0  0  0  0  0  0  0  0
    5.2500   -3.8971    0.0000 C   0  0  0  0  0  0  0  0  0  0  0  0
    3.7500   -3.8971    0.0000 N   0  0  0  0  0  0  0  0  0  0  0  0
    3.0000   -2.5981    0.0000 C   0  0  0  0  0  0  0  0  0  0  0  0
    3.7500   -1.2990    0.0000 O   0  0  0  0  0  0  0  0  0  0  0  0
    1.5000   -2.5981    0.0000 N   0  0  0  0  0  0  0  0  0  0  0  0
    0.7500   -1.2990    0.0000 C   0  0  0  0  0  0  0  0  0  0  0  0
    1.5000    0.0000    0.0000 C   0  0  0  0  0  0  0  0  0  0  0  0
    0.7500    1.2990    0.0000 C   0  0  0  0  0  0  0  0  0  0  0  0
   -0.7500    1.2990    0.0000 C   0  0  0  0  0  0  0  0  0  0  0  0
   -1.5000    0.0000    0.0000 C   0  0  0  0  0  0  0  0  0  0  0  0
   -0.7500   -1.2990    0.0000 C   0  0  0  0  0  0  0  0  0  0  0  0
   -1.7537   -2.4138    0.0000 C   0  0  0  0  0  0  0  0  0  0  0  0
   -1.4418   -3.8810    0.0000 O   0  0  0  0  0  0  0  0  0  0  0  0
   -3.1240   -1.8037    0.0000 C   0  0  0  0  0  0  0  0  0  0  0  0
   -4.5912   -2.1155    0.0000 C   0  0  0  0  0  0  0  0  0  0  0  0
   -5.2013   -3.4858    0.0000 C   0  0  0  0  0  0  0  0  0  0  0  0
   -6.6931   -3.6426    0.0000 C   0  0  0  0  0  0  0  0  0  0  0  0
   -7.3032   -5.0129    0.0000 C   0  0  0  0  0  0  0  0  0  0  0  0
   -6.4216   -6.2265    0.0000 C   0  0  0  0  0  0  0  0  0  0  0  0
   -7.0317   -7.5968    0.0000 O   0  0  0  0  0  0  0  0  0  0  0  0
   -8.5234   -7.7536    0.0000 C   0  0  0  0  0  0  0  0  0  0  0  0
   -4.9298   -6.0697    0.0000 C   0  0  0  0  0  0  0  0  0  0  0  0
   -4.3197   -4.6994    0.0000 C   0  0  0  0  0  0  0  0  0  0  0  0
   -5.3412   -0.8165    0.0000 N   0  0  0  0  0  0  0  0  0  0  0  0
   -4.3375    0.2982    0.0000 N   0  0  0  0  0  0  0  0  0  0  0  0
   -2.9672   -0.3119    0.0000 C   0  0  0  0  0  0  0  0  0  0  0  0
    7.5000   -5.1962    0.0000 C   0  0  0  0  0  0  0  0  0  0  0  0
    8.2500   -6.4952    0.0000 C   0  0  0  0  0  0  0  0  0  0  0  0
  1  2  1  0
  2  3  1  0
  3  4  2  0
  4  5  1  0
  5  6  2  0
  6  7  1  0
  7  8  1  0
  8  9  1  0
  9 10  2  0
  9 11  1  0
 11 12  1  0
 12 13  2  0
 13 14  1  0
 14 15  2  0
 15 16  1  0
 16 17  2  0
 17 18  1  0
 18 19  2  0
 18 20  1  0
 20 21  1  0
 21 22  1  0
 22 23  2  0
 23 24  1  0
 24 25  2  0
 25 26  1  0
 26 27  1  0
 25 28  1  0
 28 29  2  0
 21 30  2  0
 30 31  1  0
 31 32  1  0
  6 33  1  0
 33 34  2  0
 34  3  1  0
 17 12  1  0
 32 20  2  0
 32 16  1  0
 29 22  1  0
M  END
>  <Compound_ID>  (459) 
CHEMBL358390

>  <Active>  (459) 
1

>  <Smiles>  (459) 
COc1ccc(CNC(=O)Nc2cccc3c2C(=O)c2c(-c4ccc(OC)cc4)n[nH]c2-3)cc1

>  <canonical_smi>  (459) 
COc1ccc(CNC(=O)Nc2cccc3c2C(=O)c2c(-c4ccc(OC)cc4)n[nH]c2-3)cc1

>  <Set>  (459) 
G2 active

>  <Set_type>  (459) 
Test

>  <MW>  (459) 
454.49

>  <HBD>  (459) 
3

>  <HBA>  (459) 
5

>  <NRB>  (459) 
6

>  <NR>  (459) 
5

>  <NAR>  (459) 
5

>  <PSA>  (459) 
105.34

>  <Standard Type>  (459) 
nan

>  <Standard Relation>  (459) 
nan

>  <Standard Units>  (459) 
nan

>  <Standard Value>  (459) 
nan

>  <Assay ChEMBL ID>  (459) 
nan

>  <Assay Description>  (459) 
nan

>  <BAO Label>  (459) 
nan

$$$$

     RDKit          2D

 21 23  0  0  0  0  0  0  0  0999 V2000
   -8.6562    2.3705    0.0000 C   0  0  0  0  0  0  0  0  0  0  0  0
   -7.2296    2.8340    0.0000 C   0  0  0  0  0  0  0  0  0  0  0  0
   -6.1149    1.8303    0.0000 C   0  0  0  0  0  0  0  0  0  0  0  0
   -4.6883    2.2939    0.0000 C   0  0  0  0  0  0  0  0  0  0  0  0
   -3.5736    1.2902    0.0000 O   0  0  0  0  0  0  0  0  0  0  0  0
   -2.1470    1.7537    0.0000 C   0  0  0  0  0  0  0  0  0  0  0  0
   -1.8351    3.2209    0.0000 C   0  0  0  0  0  0  0  0  0  0  0  0
   -2.9499    4.2246    0.0000 C   0  0  0  0  0  0  0  0  0  0  0  0
   -4.3764    3.7611    0.0000 O   0  0  0  0  0  0  0  0  0  0  0  0
   -2.6380    5.6918    0.0000 C   0  0  0  0  0  0  0  0  0  0  0  0
   -3.6417    6.8066    0.0000 C   0  0  0  0  0  0  0  0  0  0  0  0
   -2.8917    8.1056    0.0000 C   0  0  0  0  0  0  0  0  0  0  0  0
   -1.4245    7.7937    0.0000 C   0  0  0  0  0  0  0  0  0  0  0  0
   -1.2677    6.3019    0.0000 O   0  0  0  0  0  0  0  0  0  0  0  0
   -0.4086    3.6844    0.0000 C   0  0  0  0  0  0  0  0  0  0  0  0
    0.7062    2.6807    0.0000 N   0  0  0  0  0  0  0  0  0  0  0  0
    0.3943    1.2135    0.0000 C   0  0  0  0  0  0  0  0  0  0  0  0
    1.2760    0.0000    0.0000 N   0  0  0  0  0  0  0  0  0  0  0  0
    0.3943   -1.2135    0.0000 N   0  0  0  0  0  0  0  0  0  0  0  0
   -1.0323   -0.7500    0.0000 C   0  0  0  0  0  0  0  0  0  0  0  0
   -1.0323    0.7500    0.0000 C   0  0  0  0  0  0  0  0  0  0  0  0
  1  2  1  0
  2  3  1  0
  3  4  1  0
  4  5  1  0
  5  6  1  0
  6  7  1  0
  7  8  1  0
  8  9  2  0
  8 10  1  0
 10 11  2  0
 11 12  1  0
 12 13  2  0
 13 14  1  0
  7 15  2  0
 15 16  1  0
 16 17  1  0
 17 18  2  0
 18 19  1  0
 19 20  2  0
 20 21  1  0
 21  6  2  0
 14 10  1  0
 21 17  1  0
M  END
>  <Compound_ID>  (460) 
CHEMBL312657

>  <Active>  (460) 
1

>  <Smiles>  (460) 
CCCCOc1c(C(=O)c2ccco2)c[nH]c2nncc1-2

>  <canonical_smi>  (460) 
CCCCOc1c(C(=O)c2ccco2)c[nH]c2nncc1-2

>  <Set>  (460) 
G2 active

>  <Set_type>  (460) 
Test

>  <MW>  (460) 
285.3

>  <HBD>  (460) 
1

>  <HBA>  (460) 
5

>  <NRB>  (460) 
6

>  <NR>  (460) 
3

>  <NAR>  (460) 
3

>  <PSA>  (460) 
81.01

>  <Standard Type>  (460) 
nan

>  <Standard Relation>  (460) 
nan

>  <Standard Units>  (460) 
nan

>  <Standard Value>  (460) 
nan

>  <Assay ChEMBL ID>  (460) 
nan

>  <Assay Description>  (460) 
nan

>  <BAO Label>  (460) 
nan

$$$$

     RDKit          2D

 30 34  0  0  0  0  0  0  0  0999 V2000
   -0.7500   -6.4952    0.0000 C   0  0  0  0  0  0  0  0  0  0  0  0
   -1.5000   -5.1962    0.0000 O   0  0  0  0  0  0  0  0  0  0  0  0
   -0.7500   -3.8971    0.0000 C   0  0  0  0  0  0  0  0  0  0  0  0
    0.7500   -3.8971    0.0000 C   0  0  0  0  0  0  0  0  0  0  0  0
    1.5000   -2.5981    0.0000 C   0  0  0  0  0  0  0  0  0  0  0  0
    0.7500   -1.2990    0.0000 C   0  0  0  0  0  0  0  0  0  0  0  0
    1.5000    0.0000    0.0000 C   0  0  0  0  0  0  0  0  0  0  0  0
    0.7500    1.2990    0.0000 N   0  0  0  0  0  0  0  0  0  0  0  0
   -0.7500    1.2990    0.0000 C   0  0  0  0  0  0  0  0  0  0  0  0
   -1.5000    2.5981    0.0000 N   0  0  0  0  0  0  0  0  0  0  0  0
   -0.7500    3.8971    0.0000 C   0  0  0  0  0  0  0  0  0  0  0  0
    0.7500    3.8971    0.0000 C   0  0  0  0  0  0  0  0  0  0  0  0
    1.5000    5.1962    0.0000 C   0  0  0  0  0  0  0  0  0  0  0  0
    0.7500    6.4952    0.0000 C   0  0  0  0  0  0  0  0  0  0  0  0
    1.5000    7.7942    0.0000 N   0  0  0  0  0  0  0  0  0  0  0  0
    0.8899    9.1645    0.0000 C   0  0  0  0  0  0  0  0  0  0  0  0
    2.0046   10.1682    0.0000 C   0  0  0  0  0  0  0  0  0  0  0  0
    3.3037    9.4182    0.0000 C   0  0  0  0  0  0  0  0  0  0  0  0
    4.6740   10.0283    0.0000 N   0  0  0  0  0  0  0  0  0  0  0  0
    2.9918    7.9510    0.0000 C   0  0  0  0  0  0  0  0  0  0  0  0
   -0.7500    6.4952    0.0000 C   0  0  0  0  0  0  0  0  0  0  0  0
   -1.5000    5.1962    0.0000 C   0  0  0  0  0  0  0  0  0  0  0  0
   -1.5000    0.0000    0.0000 N   0  0  0  0  0  0  0  0  0  0  0  0
   -0.7500   -1.2990    0.0000 C   0  0  0  0  0  0  0  0  0  0  0  0
   -1.5000   -2.5981    0.0000 C   0  0  0  0  0  0  0  0  0  0  0  0
   -3.0000   -2.5981    0.0000 C   0  0  0  0  0  0  0  0  0  0  0  0
   -3.8817   -3.8116    0.0000 C   0  0  0  0  0  0  0  0  0  0  0  0
   -5.3083   -3.3481    0.0000 C   0  0  0  0  0  0  0  0  0  0  0  0
   -5.3083   -1.8481    0.0000 C   0  0  0  0  0  0  0  0  0  0  0  0
   -3.8817   -1.3846    0.0000 C   0  0  0  0  0  0  0  0  0  0  0  0
  1  2  1  0
  2  3  1  0
  3  4  2  0
  4  5  1  0
  5  6  2  0
  6  7  1  0
  7  8  2  0
  8  9  1  0
  9 10  1  0
 10 11  1  0
 11 12  2  0
 12 13  1  0
 13 14  2  0
 14 15  1  0
 15 16  1  0
 16 17  1  0
 17 18  1  0
 18 19  1  0
 18 20  1  0
 14 21  1  0
 21 22  2  0
  9 23  2  0
 23 24  1  0
 24 25  2  0
 25 26  1  0
 26 27  1  0
 27 28  1  0
 28 29  1  0
 29 30  1  0
 25  3  1  0
 30 26  1  0
 24  6  1  0
 22 11  1  0
 20 15  1  0
M  END
>  <Compound_ID>  (461) 
CHEMBL181416

>  <Active>  (461) 
1

>  <Smiles>  (461) 
COc1ccc2cnc(Nc3ccc(N4CCC(N)C4)cc3)nc2c1C1CCCC1

>  <canonical_smi>  (461) 
COc1ccc2cnc(Nc3ccc(N4CCC(N)C4)cc3)nc2c1C1CCCC1

>  <Set>  (461) 
G2 active

>  <Set_type>  (461) 
Test

>  <MW>  (461) 
403.53

>  <HBD>  (461) 
2

>  <HBA>  (461) 
6

>  <NRB>  (461) 
5

>  <NR>  (461) 
5

>  <NAR>  (461) 
3

>  <PSA>  (461) 
76.3

>  <Standard Type>  (461) 
nan

>  <Standard Relation>  (461) 
nan

>  <Standard Units>  (461) 
nan

>  <Standard Value>  (461) 
nan

>  <Assay ChEMBL ID>  (461) 
nan

>  <Assay Description>  (461) 
nan

>  <BAO Label>  (461) 
nan

$$$$

     RDKit          2D

 28 31  0  0  0  0  0  0  0  0999 V2000
   -2.9520   -4.6564    0.0000 C   0  0  0  0  0  0  0  0  0  0  0  0
   -2.6401   -3.1891    0.0000 C   0  0  0  0  0  0  0  0  0  0  0  0
   -1.2135   -2.7256    0.0000 C   0  0  0  0  0  0  0  0  0  0  0  0
   -0.0000   -3.6073    0.0000 N   0  0  0  0  0  0  0  0  0  0  0  0
    1.2135   -2.7256    0.0000 N   0  0  0  0  0  0  0  0  0  0  0  0
    2.6401   -3.1891    0.0000 C   0  0  0  0  0  0  0  0  0  0  0  0
    2.9520   -4.6564    0.0000 C   0  0  0  0  0  0  0  0  0  0  0  0
    1.8373   -5.6601    0.0000 Cl  0  0  0  0  0  0  0  0  0  0  0  0
    4.3786   -5.1199    0.0000 C   0  0  0  0  0  0  0  0  0  0  0  0
    5.4933   -4.1162    0.0000 C   0  0  0  0  0  0  0  0  0  0  0  0
    6.9199   -4.5797    0.0000 Cl  0  0  0  0  0  0  0  0  0  0  0  0
    5.1814   -2.6490    0.0000 C   0  0  0  0  0  0  0  0  0  0  0  0
    3.7548   -2.1855    0.0000 C   0  0  0  0  0  0  0  0  0  0  0  0
    3.4430   -0.7182    0.0000 Cl  0  0  0  0  0  0  0  0  0  0  0  0
    0.7500   -1.2990    0.0000 C   0  0  0  0  0  0  0  0  0  0  0  0
    1.5000    0.0000    0.0000 N   0  0  0  0  0  0  0  0  0  0  0  0
    0.7500    1.2990    0.0000 C   0  0  0  0  0  0  0  0  0  0  0  0
    1.5000    2.5981    0.0000 C   0  0  0  0  0  0  0  0  0  0  0  0
    3.0000    2.5981    0.0000 C   0  0  0  0  0  0  0  0  0  0  0  0
    3.7500    1.2990    0.0000 C   0  0  0  0  0  0  0  0  0  0  0  0
    5.2500    1.2990    0.0000 C   0  0  0  0  0  0  0  0  0  0  0  0
    6.0000    2.5981    0.0000 C   0  0  0  0  0  0  0  0  0  0  0  0
    5.2500    3.8971    0.0000 C   0  0  0  0  0  0  0  0  0  0  0  0
    3.7500    3.8971    0.0000 N   0  0  0  0  0  0  0  0  0  0  0  0
   -0.7500    1.2990    0.0000 N   0  0  0  0  0  0  0  0  0  0  0  0
   -1.5000    0.0000    0.0000 C   0  0  0  0  0  0  0  0  0  0  0  0
   -3.0000    0.0000    0.0000 O   0  0  0  0  0  0  0  0  0  0  0  0
   -0.7500   -1.2990    0.0000 C   0  0  0  0  0  0  0  0  0  0  0  0
  1  2  1  0
  2  3  1  0
  3  4  2  0
  4  5  1  0
  5  6  1  0
  6  7  2  0
  7  8  1  0
  7  9  1  0
  9 10  2  0
 10 11  1  0
 10 12  1  0
 12 13  2  0
 13 14  1  0
  5 15  1  0
 15 16  2  0
 16 17  1  0
 17 18  1  0
 18 19  1  0
 19 20  2  0
 20 21  1  0
 21 22  2  0
 22 23  1  0
 23 24  2  0
 17 25  2  0
 25 26  1  0
 26 27  1  0
 26 28  2  0
 28  3  1  0
 13  6  1  0
 28 15  1  0
 24 19  1  0
M  END
>  <Compound_ID>  (462) 
CHEMBL190091

>  <Active>  (462) 
1

>  <Smiles>  (462) 
CCc1nn(-c2c(Cl)cc(Cl)cc2Cl)c2nc(Cc3ccccn3)nc(O)c12

>  <canonical_smi>  (462) 
CCc1nn(-c2c(Cl)cc(Cl)cc2Cl)c2nc(Cc3ccccn3)nc(O)c12

>  <Set>  (462) 
G2 active

>  <Set_type>  (462) 
Test

>  <MW>  (462) 
434.71

>  <HBD>  (462) 
1

>  <HBA>  (462) 
5

>  <NRB>  (462) 
4

>  <NR>  (462) 
4

>  <NAR>  (462) 
4

>  <PSA>  (462) 
76.72

>  <Standard Type>  (462) 
nan

>  <Standard Relation>  (462) 
nan

>  <Standard Units>  (462) 
nan

>  <Standard Value>  (462) 
nan

>  <Assay ChEMBL ID>  (462) 
nan

>  <Assay Description>  (462) 
nan

>  <BAO Label>  (462) 
nan

$$$$

     RDKit          2D

 33 37  0  0  0  0  0  0  0  0999 V2000
   -2.2447   -8.9500    0.0000 C   0  0  0  0  0  0  0  0  0  0  0  0
   -2.5565   -7.4827    0.0000 N   0  0  0  0  0  0  0  0  0  0  0  0
   -1.4418   -6.4791    0.0000 C   0  0  0  0  0  0  0  0  0  0  0  0
   -0.0152   -6.9426    0.0000 O   0  0  0  0  0  0  0  0  0  0  0  0
   -1.7537   -5.0118    0.0000 C   0  0  0  0  0  0  0  0  0  0  0  0
   -3.1240   -4.4017    0.0000 N   0  0  0  0  0  0  0  0  0  0  0  0
   -2.9672   -2.9099    0.0000 N   0  0  0  0  0  0  0  0  0  0  0  0
   -4.0819   -1.9062    0.0000 C   0  0  0  0  0  0  0  0  0  0  0  0
   -1.5000   -2.5981    0.0000 C   0  0  0  0  0  0  0  0  0  0  0  0
   -0.7500   -3.8971    0.0000 C   0  0  0  0  0  0  0  0  0  0  0  0
    0.7500   -3.8971    0.0000 C   0  0  0  0  0  0  0  0  0  0  0  0
    2.1595   -4.4101    0.0000 C   0  0  0  0  0  0  0  0  0  0  0  0
    0.4895   -5.3743    0.0000 C   0  0  0  0  0  0  0  0  0  0  0  0
    1.5000   -2.5981    0.0000 C   0  0  0  0  0  0  0  0  0  0  0  0
    0.7500   -1.2990    0.0000 C   0  0  0  0  0  0  0  0  0  0  0  0
    1.5000    0.0000    0.0000 C   0  0  0  0  0  0  0  0  0  0  0  0
    0.7500    1.2990    0.0000 N   0  0  0  0  0  0  0  0  0  0  0  0
   -0.7500    1.2990    0.0000 C   0  0  0  0  0  0  0  0  0  0  0  0
   -1.5000    2.5981    0.0000 N   0  0  0  0  0  0  0  0  0  0  0  0
   -0.7500    3.8971    0.0000 C   0  0  0  0  0  0  0  0  0  0  0  0
    0.7500    3.8971    0.0000 C   0  0  0  0  0  0  0  0  0  0  0  0
    1.5000    5.1962    0.0000 C   0  0  0  0  0  0  0  0  0  0  0  0
    0.7500    6.4952    0.0000 C   0  0  0  0  0  0  0  0  0  0  0  0
   -0.7500    6.4952    0.0000 C   0  0  0  0  0  0  0  0  0  0  0  0
   -1.5000    7.7942    0.0000 N   0  0  0  0  0  0  0  0  0  0  0  0
   -0.7500    9.0933    0.0000 C   0  0  0  0  0  0  0  0  0  0  0  0
   -1.5000   10.3923    0.0000 C   0  0  0  0  0  0  0  0  0  0  0  0
   -3.0000   10.3923    0.0000 O   0  0  0  0  0  0  0  0  0  0  0  0
   -3.7500    9.0933    0.0000 C   0  0  0  0  0  0  0  0  0  0  0  0
   -3.0000    7.7942    0.0000 C   0  0  0  0  0  0  0  0  0  0  0  0
   -1.5000    5.1962    0.0000 C   0  0  0  0  0  0  0  0  0  0  0  0
   -1.5000    0.0000    0.0000 N   0  0  0  0  0  0  0  0  0  0  0  0
   -0.7500   -1.2990    0.0000 C   0  0  0  0  0  0  0  0  0  0  0  0
  1  2  1  0
  2  3  1  0
  3  4  2  0
  3  5  1  0
  5  6  2  0
  6  7  1  0
  7  8  1  0
  7  9  1  0
  9 10  2  0
 10 11  1  0
 11 12  1  0
 11 13  1  0
 11 14  1  0
 14 15  1  0
 15 16  2  0
 16 17  1  0
 17 18  2  0
 18 19  1  0
 19 20  1  0
 20 21  2  0
 21 22  1  0
 22 23  2  0
 23 24  1  0
 24 25  1  0
 25 26  1  0
 26 27  1  0
 27 28  1  0
 28 29  1  0
 29 30  1  0
 24 31  2  0
 18 32  1  0
 32 33  2  0
 10  5  1  0
 33 15  1  0
 33  9  1  0
 31 20  1  0
 30 25  1  0
M  END
>  <Compound_ID>  (463) 
CHEMBL560839

>  <Active>  (463) 
1

>  <Smiles>  (463) 
CNC(=O)c1nn(C)c2c1C(C)(C)Cc1cnc(Nc3cccc(N4CCOCC4)c3)nc1-2

>  <canonical_smi>  (463) 
CNC(=O)c1nn(C)c2c1C(C)(C)Cc1cnc(Nc3cccc(N4CCOCC4)c3)nc1-2

>  <Set>  (463) 
G2 active

>  <Set_type>  (463) 
Test

>  <MW>  (463) 
447.54

>  <HBD>  (463) 
2

>  <HBA>  (463) 
7

>  <NRB>  (463) 
4

>  <NR>  (463) 
5

>  <NAR>  (463) 
3

>  <PSA>  (463) 
97.2

>  <Standard Type>  (463) 
nan

>  <Standard Relation>  (463) 
nan

>  <Standard Units>  (463) 
nan

>  <Standard Value>  (463) 
nan

>  <Assay ChEMBL ID>  (463) 
nan

>  <Assay Description>  (463) 
nan

>  <BAO Label>  (463) 
nan

$$$$

     RDKit          2D

 33 36  0  0  0  0  0  0  0  0999 V2000
   -5.1962  -11.1073    0.0000 N   0  0  0  0  0  0  0  0  0  0  0  0
   -6.4952  -10.3573    0.0000 C   0  0  0  0  0  0  0  0  0  0  0  0
   -7.7942  -11.1073    0.0000 N   0  0  0  0  0  0  0  0  0  0  0  0
   -6.4952   -8.8573    0.0000 N   0  0  0  0  0  0  0  0  0  0  0  0
   -5.1962   -8.1073    0.0000 S   0  0  0  0  0  0  0  0  0  0  0  0
   -5.9462   -6.8083    0.0000 O   0  0  0  0  0  0  0  0  0  0  0  0
   -4.4462   -9.4063    0.0000 O   0  0  0  0  0  0  0  0  0  0  0  0
   -3.8971   -7.3573    0.0000 C   0  0  0  0  0  0  0  0  0  0  0  0
   -3.8971   -5.8573    0.0000 C   0  0  0  0  0  0  0  0  0  0  0  0
   -2.5981   -5.1073    0.0000 C   0  0  0  0  0  0  0  0  0  0  0  0
   -1.2990   -5.8573    0.0000 C   0  0  0  0  0  0  0  0  0  0  0  0
   -0.0000   -5.1073    0.0000 N   0  0  0  0  0  0  0  0  0  0  0  0
   -0.0000   -3.6073    0.0000 C   0  0  0  0  0  0  0  0  0  0  0  0
    1.2135   -2.7256    0.0000 C   0  0  0  0  0  0  0  0  0  0  0  0
    0.7500   -1.2990    0.0000 N   0  0  0  0  0  0  0  0  0  0  0  0
    1.5000    0.0000    0.0000 C   0  0  0  0  0  0  0  0  0  0  0  0
    0.7500    1.2990    0.0000 C   0  0  0  0  0  0  0  0  0  0  0  0
    1.5000    2.5981    0.0000 C   0  0  0  0  0  0  0  0  0  0  0  0
    0.7500    3.8971    0.0000 O   0  0  0  0  0  0  0  0  0  0  0  0
    3.0000    2.5981    0.0000 C   0  0  0  0  0  0  0  0  0  0  0  0
    3.7500    1.2990    0.0000 C   0  0  0  0  0  0  0  0  0  0  0  0
    3.0000   -0.0000    0.0000 Cl  0  0  0  0  0  0  0  0  0  0  0  0
    5.2500    1.2990    0.0000 C   0  0  0  0  0  0  0  0  0  0  0  0
    6.0000    2.5981    0.0000 C   0  0  0  0  0  0  0  0  0  0  0  0
    5.2500    3.8971    0.0000 C   0  0  0  0  0  0  0  0  0  0  0  0
    3.7500    3.8971    0.0000 C   0  0  0  0  0  0  0  0  0  0  0  0
    3.0000    5.1962    0.0000 Cl  0  0  0  0  0  0  0  0  0  0  0  0
   -0.7500    1.2990    0.0000 C   0  0  0  0  0  0  0  0  0  0  0  0
   -1.5000    0.0000    0.0000 C   0  0  0  0  0  0  0  0  0  0  0  0
   -0.7500   -1.2990    0.0000 C   0  0  0  0  0  0  0  0  0  0  0  0
   -1.2135   -2.7256    0.0000 N   0  0  0  0  0  0  0  0  0  0  0  0
   -1.2990   -7.3573    0.0000 C   0  0  0  0  0  0  0  0  0  0  0  0
   -2.5981   -8.1073    0.0000 C   0  0  0  0  0  0  0  0  0  0  0  0
  1  2  2  0
  2  3  1  0
  2  4  1  0
  4  5  1  0
  5  6  2  0
  5  7  2  0
  5  8  1  0
  8  9  2  0
  9 10  1  0
 10 11  2  0
 11 12  1  0
 12 13  1  0
 13 14  2  0
 14 15  1  0
 15 16  1  0
 16 17  2  0
 17 18  1  0
 18 19  2  0
 18 20  1  0
 20 21  2  0
 21 22  1  0
 21 23  1  0
 23 24  2  0
 24 25  1  0
 25 26  2  0
 26 27  1  0
 17 28  1  0
 28 29  2  0
 29 30  1  0
 30 31  2  0
 11 32  1  0
 32 33  2  0
 33  8  1  0
 31 13  1  0
 30 15  1  0
 26 20  1  0
M  END
>  <Compound_ID>  (464) 
CHEMBL181289

>  <Active>  (464) 
1

>  <Smiles>  (464) 
N=C(N)NS(=O)(=O)c1ccc(Nc2cn3cc(C(=O)c4c(Cl)cccc4Cl)ccc3n2)cc1

>  <canonical_smi>  (464) 
N=C(N)NS(=O)(=O)c1ccc(Nc2cn3cc(C(=O)c4c(Cl)cccc4Cl)ccc3n2)cc1

>  <Set>  (464) 
G2 active

>  <Set_type>  (464) 
Test

>  <MW>  (464) 
503.37

>  <HBD>  (464) 
4

>  <HBA>  (464) 
6

>  <NRB>  (464) 
6

>  <NR>  (464) 
4

>  <NAR>  (464) 
4

>  <PSA>  (464) 
142.44

>  <Standard Type>  (464) 
nan

>  <Standard Relation>  (464) 
nan

>  <Standard Units>  (464) 
nan

>  <Standard Value>  (464) 
nan

>  <Assay ChEMBL ID>  (464) 
nan

>  <Assay Description>  (464) 
nan

>  <BAO Label>  (464) 
nan

$$$$

     RDKit          2D

 36 40  0  0  0  0  0  0  0  0999 V2000
    6.0000   -7.7942    0.0000 C   0  0  0  0  0  0  0  0  0  0  0  0
    5.2500   -6.4952    0.0000 C   0  0  0  0  0  0  0  0  0  0  0  0
    3.7500   -6.4952    0.0000 C   0  0  0  0  0  0  0  0  0  0  0  0
    3.0000   -5.1962    0.0000 N   0  0  0  0  0  0  0  0  0  0  0  0
    3.7500   -3.8971    0.0000 C   0  0  0  0  0  0  0  0  0  0  0  0
    3.0000   -2.5981    0.0000 N   0  0  0  0  0  0  0  0  0  0  0  0
    1.5000   -2.5981    0.0000 C   0  0  0  0  0  0  0  0  0  0  0  0
    0.7500   -3.8971    0.0000 C   0  0  0  0  0  0  0  0  0  0  0  0
   -0.7500   -3.8971    0.0000 C   0  0  0  0  0  0  0  0  0  0  0  0
   -1.5000   -2.5981    0.0000 C   0  0  0  0  0  0  0  0  0  0  0  0
   -0.7500   -1.2990    0.0000 C   0  0  0  0  0  0  0  0  0  0  0  0
    0.7500   -1.2990    0.0000 C   0  0  0  0  0  0  0  0  0  0  0  0
    1.5000    0.0000    0.0000 C   0  0  0  0  0  0  0  0  0  0  0  0
    0.7500    1.2990    0.0000 C   0  0  0  0  0  0  0  0  0  0  0  0
   -0.7500    1.2990    0.0000 C   0  0  0  0  0  0  0  0  0  0  0  0
   -1.5000    0.0000    0.0000 C   0  0  0  0  0  0  0  0  0  0  0  0
    5.2500   -3.8971    0.0000 N   0  0  0  0  0  0  0  0  0  0  0  0
    6.0000   -5.1962    0.0000 C   0  0  0  0  0  0  0  0  0  0  0  0
    7.5000   -5.1962    0.0000 C   0  0  0  0  0  0  0  0  0  0  0  0
    8.3817   -3.9826    0.0000 C   0  0  0  0  0  0  0  0  0  0  0  0
    9.8083   -4.4462    0.0000 N   0  0  0  0  0  0  0  0  0  0  0  0
    9.8083   -5.9462    0.0000 C   0  0  0  0  0  0  0  0  0  0  0  0
   11.0218   -6.8278    0.0000 C   0  0  0  0  0  0  0  0  0  0  0  0
   12.3921   -6.2177    0.0000 O   0  0  0  0  0  0  0  0  0  0  0  0
   10.8650   -8.3196    0.0000 N   0  0  0  0  0  0  0  0  0  0  0  0
   12.0785   -9.2013    0.0000 C   0  0  0  0  0  0  0  0  0  0  0  0
   13.4488   -8.5912    0.0000 C   0  0  0  0  0  0  0  0  0  0  0  0
   14.6624   -9.4729    0.0000 O   0  0  0  0  0  0  0  0  0  0  0  0
   11.9217  -10.6931    0.0000 C   0  0  0  0  0  0  0  0  0  0  0  0
   10.5514  -11.3032    0.0000 C   0  0  0  0  0  0  0  0  0  0  0  0
   10.3946  -12.7950    0.0000 C   0  0  0  0  0  0  0  0  0  0  0  0
   11.6081  -13.6766    0.0000 C   0  0  0  0  0  0  0  0  0  0  0  0
   12.9785  -13.0665    0.0000 C   0  0  0  0  0  0  0  0  0  0  0  0
   14.1920  -13.9482    0.0000 Cl  0  0  0  0  0  0  0  0  0  0  0  0
   13.1353  -11.5748    0.0000 C   0  0  0  0  0  0  0  0  0  0  0  0
    8.3817   -6.4097    0.0000 C   0  0  0  0  0  0  0  0  0  0  0  0
  1  2  1  0
  2  3  2  0
  3  4  1  0
  4  5  2  0
  5  6  1  0
  6  7  1  0
  7  8  2  0
  8  9  1  0
  9 10  2  0
 10 11  1  0
 11 12  2  0
 12 13  1  0
 13 14  1  0
 14 15  1  0
 15 16  1  0
  5 17  1  0
 17 18  2  0
 18 19  1  0
 19 20  2  0
 20 21  1  0
 21 22  1  0
 22 23  1  0
 23 24  2  0
 23 25  1  0
 25 26  1  0
 26 27  1  6
 27 28  1  0
 26 29  1  0
 29 30  2  0
 30 31  1  0
 31 32  2  0
 32 33  1  0
 33 34  1  0
 33 35  2  0
 22 36  2  0
 18  2  1  0
 36 19  1  0
 12  7  1  0
 35 29  1  0
 16 11  1  0
M  END
>  <Compound_ID>  (465) 
CHEMBL570111

>  <Active>  (465) 
1

>  <Smiles>  (465) 
Cc1cnc(Nc2cccc3c2CCCC3)nc1-c1c[nH]c(C(=O)N[C@H](CO)c2cccc(Cl)c2)c1

>  <canonical_smi>  (465) 
Cc1cnc(Nc2cccc3c2CCCC3)nc1-c1c[nH]c(C(=O)N[C@H](CO)c2cccc(Cl)c2)c1

>  <Set>  (465) 
G2 active

>  <Set_type>  (465) 
Test

>  <MW>  (465) 
502.02

>  <HBD>  (465) 
4

>  <HBA>  (465) 
5

>  <NRB>  (465) 
7

>  <NR>  (465) 
5

>  <NAR>  (465) 
4

>  <PSA>  (465) 
102.93

>  <Standard Type>  (465) 
nan

>  <Standard Relation>  (465) 
nan

>  <Standard Units>  (465) 
nan

>  <Standard Value>  (465) 
nan

>  <Assay ChEMBL ID>  (465) 
nan

>  <Assay Description>  (465) 
nan

>  <BAO Label>  (465) 
nan

$$$$

     RDKit          2D

 28 31  0  0  0  0  0  0  0  0999 V2000
   -0.7500   -6.4952    0.0000 C   0  0  0  0  0  0  0  0  0  0  0  0
   -1.5000   -5.1962    0.0000 O   0  0  0  0  0  0  0  0  0  0  0  0
   -0.7500   -3.8971    0.0000 C   0  0  0  0  0  0  0  0  0  0  0  0
    0.7500   -3.8971    0.0000 C   0  0  0  0  0  0  0  0  0  0  0  0
    1.5000   -2.5981    0.0000 C   0  0  0  0  0  0  0  0  0  0  0  0
    0.7500   -1.2990    0.0000 C   0  0  0  0  0  0  0  0  0  0  0  0
    1.5000    0.0000    0.0000 C   0  0  0  0  0  0  0  0  0  0  0  0
    0.7500    1.2990    0.0000 N   0  0  0  0  0  0  0  0  0  0  0  0
   -0.7500    1.2990    0.0000 C   0  0  0  0  0  0  0  0  0  0  0  0
   -1.5000    2.5981    0.0000 N   0  0  0  0  0  0  0  0  0  0  0  0
   -0.7500    3.8971    0.0000 C   0  0  0  0  0  0  0  0  0  0  0  0
    0.7500    3.8971    0.0000 C   0  0  0  0  0  0  0  0  0  0  0  0
    1.5000    5.1962    0.0000 C   0  0  0  0  0  0  0  0  0  0  0  0
    0.7500    6.4952    0.0000 C   0  0  0  0  0  0  0  0  0  0  0  0
    1.5000    7.7942    0.0000 N   0  0  0  0  0  0  0  0  0  0  0  0
    0.8899    9.1645    0.0000 C   0  0  0  0  0  0  0  0  0  0  0  0
    2.0046   10.1682    0.0000 C   0  0  0  0  0  0  0  0  0  0  0  0
    3.3037    9.4182    0.0000 C   0  0  0  0  0  0  0  0  0  0  0  0
    4.6740   10.0283    0.0000 N   0  0  0  0  0  0  0  0  0  0  0  0
    2.9918    7.9510    0.0000 C   0  0  0  0  0  0  0  0  0  0  0  0
   -0.7500    6.4952    0.0000 C   0  0  0  0  0  0  0  0  0  0  0  0
   -1.5000    5.1962    0.0000 C   0  0  0  0  0  0  0  0  0  0  0  0
   -1.5000    0.0000    0.0000 N   0  0  0  0  0  0  0  0  0  0  0  0
   -0.7500   -1.2990    0.0000 C   0  0  0  0  0  0  0  0  0  0  0  0
   -1.5000   -2.5981    0.0000 C   0  0  0  0  0  0  0  0  0  0  0  0
   -3.0000   -2.5981    0.0000 C   0  0  0  0  0  0  0  0  0  0  0  0
   -3.7500   -3.8971    0.0000 C   0  0  0  0  0  0  0  0  0  0  0  0
   -3.7500   -1.2990    0.0000 C   0  0  0  0  0  0  0  0  0  0  0  0
  1  2  1  0
  2  3  1  0
  3  4  2  0
  4  5  1  0
  5  6  2  0
  6  7  1  0
  7  8  2  0
  8  9  1  0
  9 10  1  0
 10 11  1  0
 11 12  2  0
 12 13  1  0
 13 14  2  0
 14 15  1  0
 15 16  1  0
 16 17  1  0
 17 18  1  0
 18 19  1  0
 18 20  1  0
 14 21  1  0
 21 22  2  0
  9 23  2  0
 23 24  1  0
 24 25  2  0
 25 26  1  0
 26 27  1  0
 26 28  1  0
 25  3  1  0
 24  6  1  0
 22 11  1  0
 20 15  1  0
M  END
>  <Compound_ID>  (466) 
CHEMBL183511

>  <Active>  (466) 
1

>  <Smiles>  (466) 
COc1ccc2cnc(Nc3ccc(N4CCC(N)C4)cc3)nc2c1C(C)C

>  <canonical_smi>  (466) 
COc1ccc2cnc(Nc3ccc(N4CCC(N)C4)cc3)nc2c1C(C)C

>  <Set>  (466) 
G2 active

>  <Set_type>  (466) 
Test

>  <MW>  (466) 
377.49

>  <HBD>  (466) 
2

>  <HBA>  (466) 
6

>  <NRB>  (466) 
5

>  <NR>  (466) 
4

>  <NAR>  (466) 
3

>  <PSA>  (466) 
76.3

>  <Standard Type>  (466) 
nan

>  <Standard Relation>  (466) 
nan

>  <Standard Units>  (466) 
nan

>  <Standard Value>  (466) 
nan

>  <Assay ChEMBL ID>  (466) 
nan

>  <Assay Description>  (466) 
nan

>  <BAO Label>  (466) 
nan

$$$$

     RDKit          2D

 30 34  0  0  0  0  0  0  0  0999 V2000
   -1.7455   -5.5373    0.0000 C   0  0  0  0  0  0  0  0  0  0  0  0
   -0.7418   -6.6520    0.0000 C   0  0  0  0  0  0  0  0  0  0  0  0
   -1.0537   -8.1192    0.0000 O   0  0  0  0  0  0  0  0  0  0  0  0
    0.2454   -8.8692    0.0000 N   0  0  0  0  0  0  0  0  0  0  0  0
    1.3601   -7.8655    0.0000 C   0  0  0  0  0  0  0  0  0  0  0  0
    0.7500   -6.4952    0.0000 C   0  0  0  0  0  0  0  0  0  0  0  0
    1.5000   -5.1962    0.0000 C   0  0  0  0  0  0  0  0  0  0  0  0
    0.7500   -3.8971    0.0000 N   0  0  0  0  0  0  0  0  0  0  0  0
    1.5000   -2.5981    0.0000 C   0  0  0  0  0  0  0  0  0  0  0  0
    3.0000   -2.5981    0.0000 O   0  0  0  0  0  0  0  0  0  0  0  0
    0.7500   -1.2990    0.0000 C   0  0  0  0  0  0  0  0  0  0  0  0
    1.5000    0.0000    0.0000 C   0  0  0  0  0  0  0  0  0  0  0  0
    0.7500    1.2990    0.0000 C   0  0  0  0  0  0  0  0  0  0  0  0
   -0.7500    1.2990    0.0000 C   0  0  0  0  0  0  0  0  0  0  0  0
   -1.7537    2.4138    0.0000 C   0  0  0  0  0  0  0  0  0  0  0  0
   -3.1240    1.8037    0.0000 C   0  0  0  0  0  0  0  0  0  0  0  0
   -4.4231    2.5537    0.0000 C   0  0  0  0  0  0  0  0  0  0  0  0
   -5.7934    1.9435    0.0000 N   0  0  0  0  0  0  0  0  0  0  0  0
   -6.7971    3.0583    0.0000 N   0  0  0  0  0  0  0  0  0  0  0  0
   -6.0471    4.3573    0.0000 C   0  0  0  0  0  0  0  0  0  0  0  0
   -4.5798    4.0454    0.0000 C   0  0  0  0  0  0  0  0  0  0  0  0
   -3.4651    5.0491    0.0000 C   0  0  0  0  0  0  0  0  0  0  0  0
   -2.0385    4.5856    0.0000 C   0  0  0  0  0  0  0  0  0  0  0  0
   -0.9238    5.5893    0.0000 C   0  0  0  0  0  0  0  0  0  0  0  0
   -1.2357    7.0565    0.0000 C   0  0  0  0  0  0  0  0  0  0  0  0
   -2.6623    7.5200    0.0000 C   0  0  0  0  0  0  0  0  0  0  0  0
   -3.7770    6.5164    0.0000 C   0  0  0  0  0  0  0  0  0  0  0  0
   -2.9672    0.3119    0.0000 N   0  0  0  0  0  0  0  0  0  0  0  0
   -1.5000    0.0000    0.0000 C   0  0  0  0  0  0  0  0  0  0  0  0
   -0.7500   -1.2990    0.0000 C   0  0  0  0  0  0  0  0  0  0  0  0
  1  2  1  0
  2  3  1  0
  3  4  1  0
  4  5  2  0
  5  6  1  0
  6  7  1  0
  7  8  1  0
  8  9  1  0
  9 10  2  0
  9 11  1  0
 11 12  2  0
 12 13  1  0
 13 14  2  0
 14 15  1  0
 15 16  2  0
 16 17  1  0
 17 18  2  0
 18 19  1  0
 19 20  1  0
 20 21  2  0
 21 22  1  0
 22 23  2  0
 23 24  1  0
 24 25  2  0
 25 26  1  0
 26 27  2  0
 16 28  1  0
 28 29  1  0
 29 30  2  0
  6  2  2  0
 30 11  1  0
 29 14  1  0
 21 17  1  0
 27 22  1  0
M  END
>  <Compound_ID>  (467) 
CHEMBL1164264

>  <Active>  (467) 
1

>  <Smiles>  (467) 
Cc1oncc1CNC(=O)c1ccc2cc(-c3n[nH]cc3-c3ccccc3)[nH]c2c1

>  <canonical_smi>  (467) 
Cc1oncc1CNC(=O)c1ccc2cc(-c3n[nH]cc3-c3ccccc3)[nH]c2c1

>  <Set>  (467) 
G2 active

>  <Set_type>  (467) 
Test

>  <MW>  (467) 
397.44

>  <HBD>  (467) 
3

>  <HBA>  (467) 
4

>  <NRB>  (467) 
5

>  <NR>  (467) 
5

>  <NAR>  (467) 
5

>  <PSA>  (467) 
99.6

>  <Standard Type>  (467) 
nan

>  <Standard Relation>  (467) 
nan

>  <Standard Units>  (467) 
nan

>  <Standard Value>  (467) 
nan

>  <Assay ChEMBL ID>  (467) 
nan

>  <Assay Description>  (467) 
nan

>  <BAO Label>  (467) 
nan

$$$$

     RDKit          2D

 28 31  0  0  0  0  0  0  0  0999 V2000
   -0.7500   -6.4952    0.0000 C   0  0  0  0  0  0  0  0  0  0  0  0
   -1.5000   -5.1962    0.0000 O   0  0  0  0  0  0  0  0  0  0  0  0
   -0.7500   -3.8971    0.0000 C   0  0  0  0  0  0  0  0  0  0  0  0
    0.7500   -3.8971    0.0000 C   0  0  0  0  0  0  0  0  0  0  0  0
    1.5000   -2.5981    0.0000 C   0  0  0  0  0  0  0  0  0  0  0  0
    0.7500   -1.2990    0.0000 C   0  0  0  0  0  0  0  0  0  0  0  0
    1.5000    0.0000    0.0000 C   0  0  0  0  0  0  0  0  0  0  0  0
    0.7500    1.2990    0.0000 N   0  0  0  0  0  0  0  0  0  0  0  0
   -0.7500    1.2990    0.0000 C   0  0  0  0  0  0  0  0  0  0  0  0
   -1.5000    2.5981    0.0000 N   0  0  0  0  0  0  0  0  0  0  0  0
   -0.7500    3.8971    0.0000 C   0  0  0  0  0  0  0  0  0  0  0  0
    0.7500    3.8971    0.0000 C   0  0  0  0  0  0  0  0  0  0  0  0
    1.5000    5.1962    0.0000 C   0  0  0  0  0  0  0  0  0  0  0  0
    0.7500    6.4952    0.0000 C   0  0  0  0  0  0  0  0  0  0  0  0
    1.5000    7.7942    0.0000 N   0  0  0  0  0  0  0  0  0  0  0  0
    3.0000    7.7942    0.0000 C   0  0  0  0  0  0  0  0  0  0  0  0
    3.7500    9.0933    0.0000 C   0  0  0  0  0  0  0  0  0  0  0  0
    3.0000   10.3923    0.0000 C   0  0  0  0  0  0  0  0  0  0  0  0
    1.5000   10.3923    0.0000 C   0  0  0  0  0  0  0  0  0  0  0  0
    0.7500    9.0933    0.0000 C   0  0  0  0  0  0  0  0  0  0  0  0
   -0.7500    6.4952    0.0000 C   0  0  0  0  0  0  0  0  0  0  0  0
   -1.5000    5.1962    0.0000 C   0  0  0  0  0  0  0  0  0  0  0  0
   -1.5000    0.0000    0.0000 N   0  0  0  0  0  0  0  0  0  0  0  0
   -0.7500   -1.2990    0.0000 C   0  0  0  0  0  0  0  0  0  0  0  0
   -1.5000   -2.5981    0.0000 C   0  0  0  0  0  0  0  0  0  0  0  0
   -3.0000   -2.5981    0.0000 C   0  0  0  0  0  0  0  0  0  0  0  0
   -3.7500   -3.8971    0.0000 C   0  0  0  0  0  0  0  0  0  0  0  0
   -3.7500   -1.2990    0.0000 C   0  0  0  0  0  0  0  0  0  0  0  0
  1  2  1  0
  2  3  1  0
  3  4  2  0
  4  5  1  0
  5  6  2  0
  6  7  1  0
  7  8  2  0
  8  9  1  0
  9 10  1  0
 10 11  1  0
 11 12  2  0
 12 13  1  0
 13 14  2  0
 14 15  1  0
 15 16  1  0
 16 17  1  0
 17 18  1  0
 18 19  1  0
 19 20  1  0
 14 21  1  0
 21 22  2  0
  9 23  2  0
 23 24  1  0
 24 25  2  0
 25 26  1  0
 26 27  1  0
 26 28  1  0
 25  3  1  0
 24  6  1  0
 22 11  1  0
 20 15  1  0
M  END
>  <Compound_ID>  (468) 
CHEMBL361621

>  <Active>  (468) 
1

>  <Smiles>  (468) 
COc1ccc2cnc(Nc3ccc(N4CCCCC4)cc3)nc2c1C(C)C

>  <canonical_smi>  (468) 
COc1ccc2cnc(Nc3ccc(N4CCCCC4)cc3)nc2c1C(C)C

>  <Set>  (468) 
G2 active

>  <Set_type>  (468) 
Test

>  <MW>  (468) 
376.5

>  <HBD>  (468) 
1

>  <HBA>  (468) 
5

>  <NRB>  (468) 
5

>  <NR>  (468) 
4

>  <NAR>  (468) 
3

>  <PSA>  (468) 
50.28

>  <Standard Type>  (468) 
nan

>  <Standard Relation>  (468) 
nan

>  <Standard Units>  (468) 
nan

>  <Standard Value>  (468) 
nan

>  <Assay ChEMBL ID>  (468) 
nan

>  <Assay Description>  (468) 
nan

>  <BAO Label>  (468) 
nan

$$$$

     RDKit          2D

 21 24  0  0  0  0  0  0  0  0999 V2000
    3.7500   -1.2990    0.0000 O   0  0  0  0  0  0  0  0  0  0  0  0
    3.0000   -2.5981    0.0000 C   0  0  0  0  0  0  0  0  0  0  0  0
    1.5000   -2.5981    0.0000 N   0  0  0  0  0  0  0  0  0  0  0  0
    0.7500   -1.2990    0.0000 C   0  0  0  0  0  0  0  0  0  0  0  0
    1.5000    0.0000    0.0000 N   0  0  0  0  0  0  0  0  0  0  0  0
    0.7500    1.2990    0.0000 C   0  0  0  0  0  0  0  0  0  0  0  0
   -0.7500    1.2990    0.0000 N   0  0  0  0  0  0  0  0  0  0  0  0
   -1.5000    0.0000    0.0000 C   0  0  0  0  0  0  0  0  0  0  0  0
   -2.9672   -0.3119    0.0000 O   0  0  0  0  0  0  0  0  0  0  0  0
   -3.1240   -1.8037    0.0000 C   0  0  0  0  0  0  0  0  0  0  0  0
   -4.4231   -2.5537    0.0000 C   0  0  0  0  0  0  0  0  0  0  0  0
   -5.7221   -1.8037    0.0000 C   0  0  0  0  0  0  0  0  0  0  0  0
   -7.0211   -2.5537    0.0000 C   0  0  0  0  0  0  0  0  0  0  0  0
   -7.0211   -4.0537    0.0000 C   0  0  0  0  0  0  0  0  0  0  0  0
   -5.7221   -4.8037    0.0000 N   0  0  0  0  0  0  0  0  0  0  0  0
   -4.4231   -4.0537    0.0000 C   0  0  0  0  0  0  0  0  0  0  0  0
   -1.7537   -2.4138    0.0000 C   0  0  0  0  0  0  0  0  0  0  0  0
   -0.7500   -1.2990    0.0000 C   0  0  0  0  0  0  0  0  0  0  0  0
    3.7500   -3.8971    0.0000 C   0  0  0  0  0  0  0  0  0  0  0  0
    5.0490   -4.6471    0.0000 C   0  0  0  0  0  0  0  0  0  0  0  0
    3.7500   -5.3971    0.0000 C   0  0  0  0  0  0  0  0  0  0  0  0
  1  2  2  0
  2  3  1  0
  3  4  1  0
  4  5  2  0
  5  6  1  0
  6  7  2  0
  7  8  1  0
  8  9  1  0
  9 10  1  0
 10 11  1  0
 11 12  2  0
 12 13  1  0
 13 14  2  0
 14 15  1  0
 15 16  2  0
 10 17  2  0
 17 18  1  0
  2 19  1  0
 19 20  1  0
 20 21  1  0
 18  4  1  0
 21 19  1  0
 18  8  2  0
 16 11  1  0
M  END
>  <Compound_ID>  (469) 
CHEMBL361196

>  <Active>  (469) 
1

>  <Smiles>  (469) 
O=C(Nc1ncnc2oc(-c3cccnc3)cc12)C1CC1

>  <canonical_smi>  (469) 
O=C(Nc1ncnc2oc(-c3cccnc3)cc12)C1CC1

>  <Set>  (469) 
G2 active

>  <Set_type>  (469) 
Test

>  <MW>  (469) 
280.29

>  <HBD>  (469) 
1

>  <HBA>  (469) 
5

>  <NRB>  (469) 
3

>  <NR>  (469) 
4

>  <NAR>  (469) 
3

>  <PSA>  (469) 
80.91

>  <Standard Type>  (469) 
nan

>  <Standard Relation>  (469) 
nan

>  <Standard Units>  (469) 
nan

>  <Standard Value>  (469) 
nan

>  <Assay ChEMBL ID>  (469) 
nan

>  <Assay Description>  (469) 
nan

>  <BAO Label>  (469) 
nan

$$$$

     RDKit          2D

 38 41  0  0  0  0  0  0  0  0999 V2000
    7.3618  -19.9914    0.0000 C   0  0  0  0  0  0  0  0  0  0  0  0
    6.3581  -18.8767    0.0000 C   0  0  0  0  0  0  0  0  0  0  0  0
    4.8909  -19.1886    0.0000 O   0  0  0  0  0  0  0  0  0  0  0  0
    6.8216  -17.4501    0.0000 N   0  0  0  0  0  0  0  0  0  0  0  0
    5.8179  -16.3354    0.0000 C   0  0  0  0  0  0  0  0  0  0  0  0
    6.1298  -14.8682    0.0000 N   0  0  0  0  0  0  0  0  0  0  0  0
    4.8308  -14.1182    0.0000 C   0  0  0  0  0  0  0  0  0  0  0  0
    4.6740  -12.6264    0.0000 C   0  0  0  0  0  0  0  0  0  0  0  0
    3.3037  -12.0163    0.0000 C   0  0  0  0  0  0  0  0  0  0  0  0
    2.0046  -12.7663    0.0000 N   0  0  0  0  0  0  0  0  0  0  0  0
    0.8899  -11.7626    0.0000 N   0  0  0  0  0  0  0  0  0  0  0  0
    1.5000  -10.3923    0.0000 C   0  0  0  0  0  0  0  0  0  0  0  0
    0.7500   -9.0933    0.0000 S   0  0  0  0  0  0  0  0  0  0  0  0
    1.5000   -7.7942    0.0000 C   0  0  0  0  0  0  0  0  0  0  0  0
    0.7500   -6.4952    0.0000 C   0  0  0  0  0  0  0  0  0  0  0  0
   -0.7500   -6.4952    0.0000 O   0  0  0  0  0  0  0  0  0  0  0  0
    1.5000   -5.1962    0.0000 N   0  0  0  0  0  0  0  0  0  0  0  0
    0.7500   -3.8971    0.0000 N   0  0  0  0  0  0  0  0  0  0  0  0
    1.5000   -2.5981    0.0000 C   0  0  0  0  0  0  0  0  0  0  0  0
    0.7500   -1.2990    0.0000 C   0  0  0  0  0  0  0  0  0  0  0  0
    1.5000    0.0000    0.0000 C   0  0  0  0  0  0  0  0  0  0  0  0
    0.7500    1.2990    0.0000 C   0  0  0  0  0  0  0  0  0  0  0  0
   -0.7500    1.2990    0.0000 C   0  0  0  0  0  0  0  0  0  0  0  0
   -1.5000    0.0000    0.0000 C   0  0  0  0  0  0  0  0  0  0  0  0
   -0.7500   -1.2990    0.0000 C   0  0  0  0  0  0  0  0  0  0  0  0
    2.9918  -10.5491    0.0000 N   0  0  0  0  0  0  0  0  0  0  0  0
    3.9955   -9.4344    0.0000 N   0  0  0  0  0  0  0  0  0  0  0  0
    5.4627   -9.7462    0.0000 C   0  0  0  0  0  0  0  0  0  0  0  0
    5.9262  -11.1728    0.0000 O   0  0  0  0  0  0  0  0  0  0  0  0
    6.4664   -8.6315    0.0000 C   0  0  0  0  0  0  0  0  0  0  0  0
    7.9336   -8.9434    0.0000 C   0  0  0  0  0  0  0  0  0  0  0  0
    8.9373   -7.8287    0.0000 C   0  0  0  0  0  0  0  0  0  0  0  0
    8.4738   -6.4021    0.0000 C   0  0  0  0  0  0  0  0  0  0  0  0
    9.4775   -5.2874    0.0000 Cl  0  0  0  0  0  0  0  0  0  0  0  0
    7.0066   -6.0902    0.0000 C   0  0  0  0  0  0  0  0  0  0  0  0
    6.0029   -7.2049    0.0000 C   0  0  0  0  0  0  0  0  0  0  0  0
    3.7160  -15.1219    0.0000 C   0  0  0  0  0  0  0  0  0  0  0  0
    4.3261  -16.4922    0.0000 S   0  0  0  0  0  0  0  0  0  0  0  0
  1  2  1  0
  2  3  2  0
  2  4  1  0
  4  5  1  0
  5  6  2  0
  6  7  1  0
  7  8  1  0
  8  9  1  0
  9 10  2  0
 10 11  1  0
 11 12  2  0
 12 13  1  0
 13 14  1  0
 14 15  1  0
 15 16  2  0
 15 17  1  0
 17 18  1  0
 18 19  2  0
 19 20  1  0
 20 21  2  0
 21 22  1  0
 22 23  2  0
 23 24  1  0
 24 25  2  0
 12 26  1  0
 26 27  1  0
 27 28  1  0
 28 29  2  0
 28 30  1  0
 30 31  2  0
 31 32  1  0
 32 33  2  0
 33 34  1  0
 33 35  1  0
 35 36  2  0
  7 37  2  0
 37 38  1  0
 38  5  1  0
 26  9  1  0
 36 30  1  0
 25 20  1  0
M  END
>  <Compound_ID>  (470) 
CHEMBL232864

>  <Active>  (470) 
1

>  <Smiles>  (470) 
CC(=O)Nc1nc(Cc2nnc(SCC(=O)N/N=C/c3ccccc3)n2NC(=O)c2ccc(Cl)cc2)cs1

>  <canonical_smi>  (470) 
CC(=O)Nc1nc(Cc2nnc(SCC(=O)N/N=C/c3ccccc3)n2NC(=O)c2ccc(Cl)cc2)cs1

>  <Set>  (470) 
G2 active

>  <Set_type>  (470) 
Test

>  <MW>  (470) 
569.07

>  <HBD>  (470) 
3

>  <HBA>  (470) 
7

>  <NRB>  (470) 
10

>  <NR>  (470) 
4

>  <NAR>  (470) 
4

>  <PSA>  (470) 
143.26

>  <Standard Type>  (470) 
nan

>  <Standard Relation>  (470) 
nan

>  <Standard Units>  (470) 
nan

>  <Standard Value>  (470) 
nan

>  <Assay ChEMBL ID>  (470) 
nan

>  <Assay Description>  (470) 
nan

>  <BAO Label>  (470) 
nan

$$$$

     RDKit          2D

 30 34  0  0  0  0  0  0  0  0999 V2000
   -1.7455   -5.5373    0.0000 C   0  0  0  0  0  0  0  0  0  0  0  0
   -0.7418   -6.6520    0.0000 N   0  0  0  0  0  0  0  0  0  0  0  0
   -1.0537   -8.1192    0.0000 C   0  0  0  0  0  0  0  0  0  0  0  0
    0.2454   -8.8692    0.0000 N   0  0  0  0  0  0  0  0  0  0  0  0
    1.3601   -7.8655    0.0000 C   0  0  0  0  0  0  0  0  0  0  0  0
    0.7500   -6.4952    0.0000 C   0  0  0  0  0  0  0  0  0  0  0  0
    1.5000   -5.1962    0.0000 C   0  0  0  0  0  0  0  0  0  0  0  0
    0.7500   -3.8971    0.0000 N   0  0  0  0  0  0  0  0  0  0  0  0
    1.5000   -2.5981    0.0000 C   0  0  0  0  0  0  0  0  0  0  0  0
    3.0000   -2.5981    0.0000 O   0  0  0  0  0  0  0  0  0  0  0  0
    0.7500   -1.2990    0.0000 C   0  0  0  0  0  0  0  0  0  0  0  0
    1.5000    0.0000    0.0000 C   0  0  0  0  0  0  0  0  0  0  0  0
    0.7500    1.2990    0.0000 C   0  0  0  0  0  0  0  0  0  0  0  0
   -0.7500    1.2990    0.0000 C   0  0  0  0  0  0  0  0  0  0  0  0
   -1.7537    2.4138    0.0000 C   0  0  0  0  0  0  0  0  0  0  0  0
   -3.1240    1.8037    0.0000 C   0  0  0  0  0  0  0  0  0  0  0  0
   -4.4231    2.5537    0.0000 C   0  0  0  0  0  0  0  0  0  0  0  0
   -5.7934    1.9435    0.0000 N   0  0  0  0  0  0  0  0  0  0  0  0
   -6.7971    3.0583    0.0000 N   0  0  0  0  0  0  0  0  0  0  0  0
   -6.0471    4.3573    0.0000 C   0  0  0  0  0  0  0  0  0  0  0  0
   -4.5798    4.0454    0.0000 C   0  0  0  0  0  0  0  0  0  0  0  0
   -3.4651    5.0491    0.0000 C   0  0  0  0  0  0  0  0  0  0  0  0
   -2.0385    4.5856    0.0000 C   0  0  0  0  0  0  0  0  0  0  0  0
   -0.9238    5.5893    0.0000 C   0  0  0  0  0  0  0  0  0  0  0  0
   -1.2357    7.0565    0.0000 C   0  0  0  0  0  0  0  0  0  0  0  0
   -2.6623    7.5200    0.0000 C   0  0  0  0  0  0  0  0  0  0  0  0
   -3.7770    6.5164    0.0000 C   0  0  0  0  0  0  0  0  0  0  0  0
   -2.9672    0.3119    0.0000 N   0  0  0  0  0  0  0  0  0  0  0  0
   -1.5000    0.0000    0.0000 C   0  0  0  0  0  0  0  0  0  0  0  0
   -0.7500   -1.2990    0.0000 C   0  0  0  0  0  0  0  0  0  0  0  0
  1  2  1  0
  2  3  1  0
  3  4  2  0
  4  5  1  0
  5  6  2  0
  6  7  1  0
  7  8  1  0
  8  9  1  0
  9 10  2  0
  9 11  1  0
 11 12  2  0
 12 13  1  0
 13 14  2  0
 14 15  1  0
 15 16  2  0
 16 17  1  0
 17 18  2  0
 18 19  1  0
 19 20  1  0
 20 21  2  0
 21 22  1  0
 22 23  2  0
 23 24  1  0
 24 25  2  0
 25 26  1  0
 26 27  2  0
 16 28  1  0
 28 29  1  0
 29 30  2  0
  6  2  1  0
 30 11  1  0
 29 14  1  0
 21 17  1  0
 27 22  1  0
M  END
>  <Compound_ID>  (471) 
CHEMBL1164177

>  <Active>  (471) 
1

>  <Smiles>  (471) 
Cn1cncc1CNC(=O)c1ccc2cc(-c3n[nH]cc3-c3ccccc3)[nH]c2c1

>  <canonical_smi>  (471) 
Cn1cncc1CNC(=O)c1ccc2cc(-c3n[nH]cc3-c3ccccc3)[nH]c2c1

>  <Set>  (471) 
G2 active

>  <Set_type>  (471) 
Test

>  <MW>  (471) 
396.45

>  <HBD>  (471) 
3

>  <HBA>  (471) 
3

>  <NRB>  (471) 
5

>  <NR>  (471) 
5

>  <NAR>  (471) 
5

>  <PSA>  (471) 
91.39

>  <Standard Type>  (471) 
nan

>  <Standard Relation>  (471) 
nan

>  <Standard Units>  (471) 
nan

>  <Standard Value>  (471) 
nan

>  <Assay ChEMBL ID>  (471) 
nan

>  <Assay Description>  (471) 
nan

>  <BAO Label>  (471) 
nan

$$$$

     RDKit          2D

 37 43  0  0  0  0  0  0  0  0999 V2000
    3.7500   -1.2990    0.0000 C   0  0  0  0  0  0  0  0  0  0  0  0
    3.0000    0.0000    0.0000 O   0  0  0  0  0  0  0  0  0  0  0  0
    1.5000    0.0000    0.0000 C   0  0  0  0  0  0  0  0  0  0  0  0
    0.7500   -1.2990    0.0000 C   0  0  0  0  0  0  0  0  0  0  0  0
   -0.7500   -1.2990    0.0000 C   0  0  0  0  0  0  0  0  0  0  0  0
   -1.5000    0.0000    0.0000 C   0  0  0  0  0  0  0  0  0  0  0  0
   -2.9672    0.3119    0.0000 C   0  0  0  0  0  0  0  0  0  0  0  0
   -4.1807   -0.5698    0.0000 C   0  0  0  0  0  0  0  0  0  0  0  0
   -5.5511    0.0403    0.0000 C   0  0  0  0  0  0  0  0  0  0  0  0
   -5.7079    1.5321    0.0000 C   0  0  0  0  0  0  0  0  0  0  0  0
   -4.4943    2.4138    0.0000 C   0  0  0  0  0  0  0  0  0  0  0  0
   -4.6511    3.9055    0.0000 C   0  0  0  0  0  0  0  0  0  0  0  0
   -6.0214    4.5156    0.0000 C   0  0  0  0  0  0  0  0  0  0  0  0
   -7.2350    3.6340    0.0000 C   0  0  0  0  0  0  0  0  0  0  0  0
   -8.7022    3.9458    0.0000 C   0  0  0  0  0  0  0  0  0  0  0  0
   -9.4522    2.6468    0.0000 C   0  0  0  0  0  0  0  0  0  0  0  0
   -8.4485    1.5321    0.0000 N   0  0  0  0  0  0  0  0  0  0  0  0
   -8.7604    0.0649    0.0000 C   0  0  0  0  0  0  0  0  0  0  0  0
   -7.0782    2.1422    0.0000 C   0  0  0  0  0  0  0  0  0  0  0  0
   -3.1240    1.8037    0.0000 C   0  0  0  0  0  0  0  0  0  0  0  0
   -1.7537    2.4138    0.0000 N   0  0  0  0  0  0  0  0  0  0  0  0
   -1.4418    3.8810    0.0000 C   0  0  0  0  0  0  0  0  0  0  0  0
   -0.0152    4.3445    0.0000 C   0  0  0  0  0  0  0  0  0  0  0  0
    0.2966    5.8117    0.0000 C   0  0  0  0  0  0  0  0  0  0  0  0
    1.7232    6.2752    0.0000 N   0  0  0  0  0  0  0  0  0  0  0  0
    2.8379    5.2716    0.0000 C   0  0  0  0  0  0  0  0  0  0  0  0
    4.2645    5.7351    0.0000 C   0  0  0  0  0  0  0  0  0  0  0  0
    4.5764    7.2023    0.0000 O   0  0  0  0  0  0  0  0  0  0  0  0
    3.4617    8.2060    0.0000 C   0  0  0  0  0  0  0  0  0  0  0  0
    2.0351    7.7425    0.0000 C   0  0  0  0  0  0  0  0  0  0  0  0
   -0.7500    1.2990    0.0000 C   0  0  0  0  0  0  0  0  0  0  0  0
    0.7500    1.2990    0.0000 C   0  0  0  0  0  0  0  0  0  0  0  0
   -6.5548   -1.0744    0.0000 C   0  0  0  0  0  0  0  0  0  0  0  0
   -8.0465   -0.9176    0.0000 O   0  0  0  0  0  0  0  0  0  0  0  0
   -5.8048   -2.3735    0.0000 N   0  0  0  0  0  0  0  0  0  0  0  0
   -4.3375   -2.0616    0.0000 C   0  0  0  0  0  0  0  0  0  0  0  0
   -3.2228   -3.0653    0.0000 O   0  0  0  0  0  0  0  0  0  0  0  0
  1  2  1  0
  2  3  1  0
  3  4  2  0
  4  5  1  0
  5  6  2  0
  6  7  1  0
  7  8  2  0
  8  9  1  0
  9 10  2  0
 10 11  1  0
 11 12  1  0
 12 13  2  0
 13 14  1  0
 14 15  1  0
 15 16  2  0
 16 17  1  0
 17 18  1  0
 17 19  1  0
 11 20  2  0
 20 21  1  0
 21 22  1  0
 22 23  1  0
 23 24  1  0
 24 25  1  0
 25 26  1  0
 26 27  1  0
 27 28  1  0
 28 29  1  0
 29 30  1  0
 21 31  1  0
 31 32  2  0
  9 33  1  0
 33 34  2  0
 33 35  1  0
 35 36  1  0
 36 37  2  0
 32  3  1  0
 31  6  1  0
 20  7  1  0
 30 25  1  0
 36  8  1  0
 19 10  1  0
 19 14  2  0
M  END
>  <Compound_ID>  (472) 
CHEMBL72077

>  <Active>  (472) 
1

>  <Smiles>  (472) 
COc1ccc2c3c4c(c5c(ccc6ccn(C)c65)c3n(CCCN3CCOCC3)c2c1)C(=O)NC4=O

>  <canonical_smi>  (472) 
COc1ccc2c3c4c(c5c(ccc6ccn(C)c65)c3n(CCCN3CCOCC3)c2c1)C(=O)NC4=O

>  <Set>  (472) 
G2 active

>  <Set_type>  (472) 
Test

>  <MW>  (472) 
496.57

>  <HBD>  (472) 
1

>  <HBA>  (472) 
5

>  <NRB>  (472) 
5

>  <NR>  (472) 
7

>  <NAR>  (472) 
5

>  <PSA>  (472) 
77.73

>  <Standard Type>  (472) 
nan

>  <Standard Relation>  (472) 
nan

>  <Standard Units>  (472) 
nan

>  <Standard Value>  (472) 
nan

>  <Assay ChEMBL ID>  (472) 
nan

>  <Assay Description>  (472) 
nan

>  <BAO Label>  (472) 
nan

$$$$

     RDKit          2D

 29 33  0  0  0  0  0  0  0  0999 V2000
    5.2500   -1.2990    0.0000 C   0  0  0  0  0  0  0  0  0  0  0  0
    3.7500   -1.2990    0.0000 C   0  0  0  0  0  0  0  0  0  0  0  0
    3.0000   -2.5981    0.0000 O   0  0  0  0  0  0  0  0  0  0  0  0
    3.0000    0.0000    0.0000 N   0  0  0  0  0  0  0  0  0  0  0  0
    1.5000    0.0000    0.0000 C   0  0  0  0  0  0  0  0  0  0  0  0
    0.7500   -1.2990    0.0000 C   0  0  0  0  0  0  0  0  0  0  0  0
   -0.7500   -1.2990    0.0000 C   0  0  0  0  0  0  0  0  0  0  0  0
   -1.5000    0.0000    0.0000 C   0  0  0  0  0  0  0  0  0  0  0  0
   -0.7500    1.2990    0.0000 C   0  0  0  0  0  0  0  0  0  0  0  0
    0.7500    1.2990    0.0000 C   0  0  0  0  0  0  0  0  0  0  0  0
    1.2135    2.7256    0.0000 C   0  0  0  0  0  0  0  0  0  0  0  0
    2.6401    3.1891    0.0000 O   0  0  0  0  0  0  0  0  0  0  0  0
    0.0000    3.6073    0.0000 C   0  0  0  0  0  0  0  0  0  0  0  0
   -0.4635    5.0339    0.0000 C   0  0  0  0  0  0  0  0  0  0  0  0
    0.4182    6.2474    0.0000 C   0  0  0  0  0  0  0  0  0  0  0  0
    1.9099    6.0906    0.0000 C   0  0  0  0  0  0  0  0  0  0  0  0
    2.7916    7.3041    0.0000 C   0  0  0  0  0  0  0  0  0  0  0  0
    2.1815    8.6745    0.0000 C   0  0  0  0  0  0  0  0  0  0  0  0
    3.0632    9.8880    0.0000 N   0  0  0  0  0  0  0  0  0  0  0  0
    4.5550    9.7312    0.0000 C   0  0  0  0  0  0  0  0  0  0  0  0
    5.4366   10.9447    0.0000 C   0  0  0  0  0  0  0  0  0  0  0  0
    4.8265   12.3150    0.0000 C   0  0  0  0  0  0  0  0  0  0  0  0
    3.3348   12.4718    0.0000 C   0  0  0  0  0  0  0  0  0  0  0  0
    2.4531   11.2583    0.0000 C   0  0  0  0  0  0  0  0  0  0  0  0
    0.6897    8.8313    0.0000 C   0  0  0  0  0  0  0  0  0  0  0  0
   -0.1920    7.6177    0.0000 C   0  0  0  0  0  0  0  0  0  0  0  0
   -1.9635    5.0339    0.0000 N   0  0  0  0  0  0  0  0  0  0  0  0
   -2.4271    3.6073    0.0000 N   0  0  0  0  0  0  0  0  0  0  0  0
   -1.2135    2.7256    0.0000 C   0  0  0  0  0  0  0  0  0  0  0  0
  1  2  1  0
  2  3  2  0
  2  4  1  0
  4  5  1  0
  5  6  2  0
  6  7  1  0
  7  8  2  0
  8  9  1  0
  9 10  2  0
 10 11  1  0
 11 12  2  0
 11 13  1  0
 13 14  1  0
 14 15  1  0
 15 16  2  0
 16 17  1  0
 17 18  2  0
 18 19  1  0
 19 20  1  0
 20 21  1  0
 21 22  1  0
 22 23  1  0
 23 24  1  0
 18 25  1  0
 25 26  2  0
 14 27  2  0
 27 28  1  0
 28 29  1  0
 10  5  1  0
 29 13  2  0
 29  9  1  0
 26 15  1  0
 24 19  1  0
M  END
>  <Compound_ID>  (473) 
CHEMBL149168

>  <Active>  (473) 
1

>  <Smiles>  (473) 
CC(=O)Nc1cccc2c1C(=O)c1c(-c3ccc(N4CCCCC4)cc3)n[nH]c1-2

>  <canonical_smi>  (473) 
CC(=O)Nc1cccc2c1C(=O)c1c(-c3ccc(N4CCCCC4)cc3)n[nH]c1-2

>  <Set>  (473) 
G2 active

>  <Set_type>  (473) 
Test

>  <MW>  (473) 
386.46

>  <HBD>  (473) 
2

>  <HBA>  (473) 
4

>  <NRB>  (473) 
3

>  <NR>  (473) 
5

>  <NAR>  (473) 
4

>  <PSA>  (473) 
78.09

>  <Standard Type>  (473) 
nan

>  <Standard Relation>  (473) 
nan

>  <Standard Units>  (473) 
nan

>  <Standard Value>  (473) 
nan

>  <Assay ChEMBL ID>  (473) 
nan

>  <Assay Description>  (473) 
nan

>  <BAO Label>  (473) 
nan

$$$$

     RDKit          2D

 37 43  0  0  0  0  0  0  0  0999 V2000
    3.7500   -1.2990    0.0000 C   0  0  0  0  0  0  0  0  0  0  0  0
    3.0000    0.0000    0.0000 O   0  0  0  0  0  0  0  0  0  0  0  0
    1.5000    0.0000    0.0000 C   0  0  0  0  0  0  0  0  0  0  0  0
    0.7500   -1.2990    0.0000 C   0  0  0  0  0  0  0  0  0  0  0  0
   -0.7500   -1.2990    0.0000 C   0  0  0  0  0  0  0  0  0  0  0  0
   -1.5000    0.0000    0.0000 C   0  0  0  0  0  0  0  0  0  0  0  0
   -2.9672    0.3119    0.0000 C   0  0  0  0  0  0  0  0  0  0  0  0
   -4.1807   -0.5698    0.0000 C   0  0  0  0  0  0  0  0  0  0  0  0
   -5.5511    0.0403    0.0000 C   0  0  0  0  0  0  0  0  0  0  0  0
   -5.7079    1.5321    0.0000 C   0  0  0  0  0  0  0  0  0  0  0  0
   -4.4943    2.4138    0.0000 C   0  0  0  0  0  0  0  0  0  0  0  0
   -4.6511    3.9055    0.0000 C   0  0  0  0  0  0  0  0  0  0  0  0
   -6.0214    4.5156    0.0000 C   0  0  0  0  0  0  0  0  0  0  0  0
   -7.2350    3.6340    0.0000 C   0  0  0  0  0  0  0  0  0  0  0  0
   -8.7022    3.9458    0.0000 C   0  0  0  0  0  0  0  0  0  0  0  0
   -9.4522    2.6468    0.0000 C   0  0  0  0  0  0  0  0  0  0  0  0
   -8.4485    1.5321    0.0000 N   0  0  0  0  0  0  0  0  0  0  0  0
   -8.7604    0.0649    0.0000 C   0  0  0  0  0  0  0  0  0  0  0  0
   -7.0782    2.1422    0.0000 C   0  0  0  0  0  0  0  0  0  0  0  0
   -3.1240    1.8037    0.0000 C   0  0  0  0  0  0  0  0  0  0  0  0
   -1.7537    2.4138    0.0000 N   0  0  0  0  0  0  0  0  0  0  0  0
   -1.4418    3.8810    0.0000 C   0  0  0  0  0  0  0  0  0  0  0  0
   -0.0152    4.3445    0.0000 C   0  0  0  0  0  0  0  0  0  0  0  0
    0.2966    5.8117    0.0000 N   0  0  0  0  0  0  0  0  0  0  0  0
   -0.7071    6.9264    0.0000 C   0  0  0  0  0  0  0  0  0  0  0  0
    0.0429    8.2255    0.0000 C   0  0  0  0  0  0  0  0  0  0  0  0
    1.5101    7.9136    0.0000 C   0  0  0  0  0  0  0  0  0  0  0  0
    1.6669    6.4218    0.0000 C   0  0  0  0  0  0  0  0  0  0  0  0
    2.9660    5.6718    0.0000 C   0  0  0  0  0  0  0  0  0  0  0  0
    4.2650    6.4218    0.0000 O   0  0  0  0  0  0  0  0  0  0  0  0
   -0.7500    1.2990    0.0000 C   0  0  0  0  0  0  0  0  0  0  0  0
    0.7500    1.2990    0.0000 C   0  0  0  0  0  0  0  0  0  0  0  0
   -6.5548   -1.0744    0.0000 C   0  0  0  0  0  0  0  0  0  0  0  0
   -8.0465   -0.9176    0.0000 O   0  0  0  0  0  0  0  0  0  0  0  0
   -5.8048   -2.3735    0.0000 N   0  0  0  0  0  0  0  0  0  0  0  0
   -4.3375   -2.0616    0.0000 C   0  0  0  0  0  0  0  0  0  0  0  0
   -3.2228   -3.0653    0.0000 O   0  0  0  0  0  0  0  0  0  0  0  0
  1  2  1  0
  2  3  1  0
  3  4  2  0
  4  5  1  0
  5  6  2  0
  6  7  1  0
  7  8  2  0
  8  9  1  0
  9 10  2  0
 10 11  1  0
 11 12  1  0
 12 13  2  0
 13 14  1  0
 14 15  1  0
 15 16  2  0
 16 17  1  0
 17 18  1  0
 17 19  1  0
 11 20  2  0
 20 21  1  0
 21 22  1  0
 22 23  1  0
 23 24  1  0
 24 25  1  0
 25 26  1  0
 26 27  1  0
 27 28  1  0
 28 29  1  1
 29 30  1  0
 21 31  1  0
 31 32  2  0
  9 33  1  0
 33 34  2  0
 33 35  1  0
 35 36  1  0
 36 37  2  0
 32  3  1  0
 31  6  1  0
 20  7  1  0
 28 24  1  0
 36  8  1  0
 19 10  1  0
 19 14  2  0
M  END
>  <Compound_ID>  (474) 
CHEMBL75952

>  <Active>  (474) 
1

>  <Smiles>  (474) 
COc1ccc2c3c4c(c5c(ccc6ccn(C)c65)c3n(CCN3CCC[C@H]3CO)c2c1)C(=O)NC4=O

>  <canonical_smi>  (474) 
COc1ccc2c3c4c(c5c(ccc6ccn(C)c65)c3n(CCN3CCC[C@H]3CO)c2c1)C(=O)NC4=O

>  <Set>  (474) 
G2 active

>  <Set_type>  (474) 
Test

>  <MW>  (474) 
496.57

>  <HBD>  (474) 
2

>  <HBA>  (474) 
5

>  <NRB>  (474) 
5

>  <NR>  (474) 
7

>  <NAR>  (474) 
5

>  <PSA>  (474) 
88.73

>  <Standard Type>  (474) 
nan

>  <Standard Relation>  (474) 
nan

>  <Standard Units>  (474) 
nan

>  <Standard Value>  (474) 
nan

>  <Assay ChEMBL ID>  (474) 
nan

>  <Assay Description>  (474) 
nan

>  <BAO Label>  (474) 
nan

$$$$
