
     RDKit          2D

 32 37  0  0  0  0  0  0  0  0999 V2000
    2.4507  -12.2836    0.0000 C   0  0  0  0  0  0  0  0  0  0  0  0
    2.9142  -10.8570    0.0000 O   0  0  0  0  0  0  0  0  0  0  0  0
    1.9105   -9.7423    0.0000 C   0  0  0  0  0  0  0  0  0  0  0  0
    0.4433  -10.0541    0.0000 C   0  0  0  0  0  0  0  0  0  0  0  0
   -0.5604   -8.9394    0.0000 C   0  0  0  0  0  0  0  0  0  0  0  0
   -0.0969   -7.5128    0.0000 C   0  0  0  0  0  0  0  0  0  0  0  0
    1.3703   -7.2010    0.0000 C   0  0  0  0  0  0  0  0  0  0  0  0
    2.3740   -8.3157    0.0000 C   0  0  0  0  0  0  0  0  0  0  0  0
    1.5271   -5.7092    0.0000 C   0  0  0  0  0  0  0  0  0  0  0  0
    2.7406   -4.8275    0.0000 C   0  0  0  0  0  0  0  0  0  0  0  0
    2.5838   -3.3357    0.0000 C   0  0  0  0  0  0  0  0  0  0  0  0
    1.2135   -2.7256    0.0000 C   0  0  0  0  0  0  0  0  0  0  0  0
    0.7500   -1.2990    0.0000 C   0  0  0  0  0  0  0  0  0  0  0  0
    1.5000    0.0000    0.0000 C   0  0  0  0  0  0  0  0  0  0  0  0
    0.7500    1.2990    0.0000 C   0  0  0  0  0  0  0  0  0  0  0  0
   -0.7500    1.2990    0.0000 C   0  0  0  0  0  0  0  0  0  0  0  0
   -1.5000    0.0000    0.0000 C   0  0  0  0  0  0  0  0  0  0  0  0
   -0.7500   -1.2990    0.0000 C   0  0  0  0  0  0  0  0  0  0  0  0
   -1.2135   -2.7256    0.0000 N   0  0  0  0  0  0  0  0  0  0  0  0
   -2.6401   -3.1891    0.0000 C   0  0  0  0  0  0  0  0  0  0  0  0
    0.0000   -3.6073    0.0000 C   0  0  0  0  0  0  0  0  0  0  0  0
    0.1568   -5.0991    0.0000 C   0  0  0  0  0  0  0  0  0  0  0  0
   -0.8469   -6.2138    0.0000 N   0  0  0  0  0  0  0  0  0  0  0  0
   -2.3387   -6.0570    0.0000 C   0  0  0  0  0  0  0  0  0  0  0  0
   -3.2204   -7.2705    0.0000 C   0  0  0  0  0  0  0  0  0  0  0  0
   -4.7121   -7.1137    0.0000 C   0  0  0  0  0  0  0  0  0  0  0  0
   -6.2039   -6.9569    0.0000 N   0  0  0  0  0  0  0  0  0  0  0  0
    3.9542   -2.7256    0.0000 C   0  0  0  0  0  0  0  0  0  0  0  0
    4.2660   -1.2584    0.0000 O   0  0  0  0  0  0  0  0  0  0  0  0
    4.9579   -3.8403    0.0000 N   0  0  0  0  0  0  0  0  0  0  0  0
    4.2079   -5.1394    0.0000 C   0  0  0  0  0  0  0  0  0  0  0  0
    4.8180   -6.5097    0.0000 O   0  0  0  0  0  0  0  0  0  0  0  0
  1  2  1  0
  2  3  1  0
  3  4  2  0
  4  5  1  0
  5  6  2  0
  6  7  1  0
  7  8  2  0
  7  9  1  0
  9 10  2  0
 10 11  1  0
 11 12  2  0
 12 13  1  0
 13 14  2  0
 14 15  1  0
 15 16  2  0
 16 17  1  0
 17 18  2  0
 18 19  1  0
 19 20  1  0
 19 21  1  0
 21 22  2  0
 22 23  1  0
 23 24  1  0
 24 25  1  0
 25 26  1  0
 26 27  3  0
 11 28  1  0
 28 29  2  0
 28 30  1  0
 30 31  1  0
 31 32  2  0
  8  3  1  0
 22  9  1  0
 23  6  1  0
 31 10  1  0
 21 12  1  0
 18 13  1  0
M  END
>  <Compound_ID>  (1) 
CHEMBL345593

>  <Active>  (1) 
1

>  <Smiles>  (1) 
COc1ccc2c(c1)c1c3c(c4c5ccccc5n(C)c4c1n2CCC#N)C(=O)NC3=O

>  <canonical_smi>  (1) 
COc1ccc2c(c1)c1c3c(c4c5ccccc5n(C)c4c1n2CCC#N)C(=O)NC3=O

>  <Set>  (1) 
G1 active

>  <Set_type>  (1) 
G1

>  <MW>  (1) 
422.44

>  <HBD>  (1) 
1

>  <HBA>  (1) 
4

>  <NRB>  (1) 
3

>  <NR>  (1) 
6

>  <NAR>  (1) 
5

>  <PSA>  (1) 
89.05

>  <Standard Type>  (1) 
nan

>  <Standard Relation>  (1) 
nan

>  <Standard Units>  (1) 
nan

>  <Standard Value>  (1) 
nan

>  <Assay ChEMBL ID>  (1) 
nan

>  <Assay Description>  (1) 
nan

>  <BAO Label>  (1) 
nan

>  <bits>  (1) 
<rdkit.DataStructs.cDataStructs.ExplicitBitVect object at 0x00000210F8EB4970>

>  <Group>  (1) 
G2

$$$$

     RDKit          2D

 34 39  0  0  0  0  0  0  0  0999 V2000
   -8.0346   -3.5760    0.0000 C   0  0  0  0  0  0  0  0  0  0  0  0
   -6.9199   -4.5797    0.0000 C   0  0  0  0  0  0  0  0  0  0  0  0
   -5.4933   -4.1162    0.0000 N   0  0  0  0  0  0  0  0  0  0  0  0
   -5.1814   -2.6490    0.0000 C   0  0  0  0  0  0  0  0  0  0  0  0
   -3.7548   -2.1855    0.0000 C   0  0  0  0  0  0  0  0  0  0  0  0
   -2.6401   -3.1891    0.0000 C   0  0  0  0  0  0  0  0  0  0  0  0
   -1.2135   -2.7256    0.0000 N   0  0  0  0  0  0  0  0  0  0  0  0
   -0.0000   -3.6073    0.0000 C   0  0  0  0  0  0  0  0  0  0  0  0
    1.2135   -2.7256    0.0000 C   0  0  0  0  0  0  0  0  0  0  0  0
    2.6401   -3.1891    0.0000 C   0  0  0  0  0  0  0  0  0  0  0  0
    3.8536   -2.3075    0.0000 C   0  0  0  0  0  0  0  0  0  0  0  0
    3.8536   -0.8075    0.0000 C   0  0  0  0  0  0  0  0  0  0  0  0
    2.6401    0.0742    0.0000 C   0  0  0  0  0  0  0  0  0  0  0  0
    3.1036    1.5008    0.0000 N   0  0  0  0  0  0  0  0  0  0  0  0
    2.2220    2.7143    0.0000 C   0  0  0  0  0  0  0  0  0  0  0  0
    4.6036    1.5008    0.0000 C   0  0  0  0  0  0  0  0  0  0  0  0
    5.6073    2.6155    0.0000 C   0  0  0  0  0  0  0  0  0  0  0  0
    7.0746    2.3036    0.0000 C   0  0  0  0  0  0  0  0  0  0  0  0
    7.5381    0.8771    0.0000 C   0  0  0  0  0  0  0  0  0  0  0  0
    6.5344   -0.2377    0.0000 C   0  0  0  0  0  0  0  0  0  0  0  0
    5.0672    0.0742    0.0000 C   0  0  0  0  0  0  0  0  0  0  0  0
    5.0672   -3.1891    0.0000 C   0  0  0  0  0  0  0  0  0  0  0  0
    6.4937   -2.7256    0.0000 O   0  0  0  0  0  0  0  0  0  0  0  0
    4.6036   -4.6157    0.0000 N   0  0  0  0  0  0  0  0  0  0  0  0
    3.1036   -4.6157    0.0000 C   0  0  0  0  0  0  0  0  0  0  0  0
    2.2220   -5.8293    0.0000 O   0  0  0  0  0  0  0  0  0  0  0  0
    0.7500   -1.2990    0.0000 C   0  0  0  0  0  0  0  0  0  0  0  0
    1.5000    0.0000    0.0000 C   0  0  0  0  0  0  0  0  0  0  0  0
    0.7500    1.2990    0.0000 C   0  0  0  0  0  0  0  0  0  0  0  0
   -0.7500    1.2990    0.0000 C   0  0  0  0  0  0  0  0  0  0  0  0
   -1.5000    0.0000    0.0000 C   0  0  0  0  0  0  0  0  0  0  0  0
   -0.7500   -1.2990    0.0000 C   0  0  0  0  0  0  0  0  0  0  0  0
   -2.9520   -4.6564    0.0000 C   0  0  0  0  0  0  0  0  0  0  0  0
   -4.3786   -5.1199    0.0000 C   0  0  0  0  0  0  0  0  0  0  0  0
  1  2  1  0
  2  3  1  0
  3  4  1  0
  4  5  1  0
  5  6  1  0
  6  7  1  0
  7  8  1  0
  8  9  2  0
  9 10  1  0
 10 11  2  0
 11 12  1  0
 12 13  2  0
 13 14  1  0
 14 15  1  0
 14 16  1  0
 16 17  2  0
 17 18  1  0
 18 19  2  0
 19 20  1  0
 20 21  2  0
 11 22  1  0
 22 23  2  0
 22 24  1  0
 24 25  1  0
 25 26  2  0
  9 27  1  0
 27 28  2  0
 28 29  1  0
 29 30  2  0
 30 31  1  0
 31 32  2  0
  6 33  1  0
 33 34  1  0
 34  3  1  0
 32  7  1  0
 25 10  1  0
 32 27  1  0
 21 12  1  0
 21 16  1  0
M  END
>  <Compound_ID>  (2) 
CHEMBL54382

>  <Active>  (2) 
1

>  <Smiles>  (2) 
CCN1CCC(n2cc(C3=C(c4cn(C)c5ccccc45)C(=O)NC3=O)c3ccccc32)CC1

>  <canonical_smi>  (2) 
CCN1CCC(n2cc(C3=C(c4cn(C)c5ccccc45)C(=O)NC3=O)c3ccccc32)CC1

>  <Set>  (2) 
G1 active

>  <Set_type>  (2) 
G1

>  <MW>  (2) 
452.56

>  <HBD>  (2) 
1

>  <HBA>  (2) 
3

>  <NRB>  (2) 
4

>  <NR>  (2) 
6

>  <NAR>  (2) 
4

>  <PSA>  (2) 
59.27

>  <Standard Type>  (2) 
nan

>  <Standard Relation>  (2) 
nan

>  <Standard Units>  (2) 
nan

>  <Standard Value>  (2) 
nan

>  <Assay ChEMBL ID>  (2) 
nan

>  <Assay Description>  (2) 
nan

>  <BAO Label>  (2) 
nan

>  <bits>  (2) 
<rdkit.DataStructs.cDataStructs.ExplicitBitVect object at 0x00000210F8EB5150>

>  <Group>  (2) 
G2

$$$$

     RDKit          2D

 29 35  0  0  0  0  0  0  0  0999 V2000
    4.2660   -1.2584    0.0000 O   0  0  0  0  0  0  0  0  0  0  0  0
    3.9542   -2.7256    0.0000 C   0  0  0  0  0  0  0  0  0  0  0  0
    4.9579   -3.8403    0.0000 N   0  0  0  0  0  0  0  0  0  0  0  0
    4.2079   -5.1394    0.0000 C   0  0  0  0  0  0  0  0  0  0  0  0
    2.7406   -4.8275    0.0000 C   0  0  0  0  0  0  0  0  0  0  0  0
    2.5838   -3.3357    0.0000 C   0  0  0  0  0  0  0  0  0  0  0  0
    1.2135   -2.7256    0.0000 C   0  0  0  0  0  0  0  0  0  0  0  0
    0.7500   -1.2990    0.0000 C   0  0  0  0  0  0  0  0  0  0  0  0
    1.5000    0.0000    0.0000 C   0  0  0  0  0  0  0  0  0  0  0  0
    0.7500    1.2990    0.0000 C   0  0  0  0  0  0  0  0  0  0  0  0
   -0.7500    1.2990    0.0000 C   0  0  0  0  0  0  0  0  0  0  0  0
   -1.5000    0.0000    0.0000 C   0  0  0  0  0  0  0  0  0  0  0  0
   -0.7500   -1.2990    0.0000 C   0  0  0  0  0  0  0  0  0  0  0  0
   -1.2135   -2.7256    0.0000 N   0  0  0  0  0  0  0  0  0  0  0  0
    0.0000   -3.6073    0.0000 C   0  0  0  0  0  0  0  0  0  0  0  0
    0.1568   -5.0991    0.0000 C   0  0  0  0  0  0  0  0  0  0  0  0
    1.5271   -5.7092    0.0000 C   0  0  0  0  0  0  0  0  0  0  0  0
    1.3703   -7.2010    0.0000 C   0  0  0  0  0  0  0  0  0  0  0  0
    2.3740   -8.3157    0.0000 C   0  0  0  0  0  0  0  0  0  0  0  0
    1.9105   -9.7423    0.0000 C   0  0  0  0  0  0  0  0  0  0  0  0
    0.4433  -10.0541    0.0000 C   0  0  0  0  0  0  0  0  0  0  0  0
   -0.5604   -8.9394    0.0000 C   0  0  0  0  0  0  0  0  0  0  0  0
   -0.0969   -7.5128    0.0000 C   0  0  0  0  0  0  0  0  0  0  0  0
   -0.8469   -6.2138    0.0000 N   0  0  0  0  0  0  0  0  0  0  0  0
   -2.3362   -6.0347    0.0000 C   0  0  0  0  0  0  0  0  0  0  0  0
   -3.1247   -4.7587    0.0000 S   0  0  0  0  0  0  0  0  0  0  0  0
   -4.1933   -5.8114    0.0000 O   0  0  0  0  0  0  0  0  0  0  0  0
   -4.3888   -3.9512    0.0000 O   0  0  0  0  0  0  0  0  0  0  0  0
   -2.6187   -3.3466    0.0000 C   0  0  0  0  0  0  0  0  0  0  0  0
  1  2  2  0
  2  3  1  0
  3  4  1  0
  4  5  1  0
  5  6  2  0
  6  7  1  0
  7  8  1  0
  8  9  2  0
  9 10  1  0
 10 11  2  0
 11 12  1  0
 12 13  2  0
 13 14  1  0
 14 15  1  0
 15 16  1  0
 16 17  2  0
 17 18  1  0
 18 19  2  0
 19 20  1  0
 20 21  2  0
 21 22  1  0
 22 23  2  0
 23 24  1  0
 24 25  1  0
 25 26  1  0
 26 27  2  0
 26 28  2  0
 26 29  1  0
  6  2  1  0
 15  7  2  0
 24 16  1  0
 17  5  1  0
 23 18  1  0
 13  8  1  0
 29 14  1  0
M  END
>  <Compound_ID>  (3) 
CHEMBL281448

>  <Active>  (3) 
1

>  <Smiles>  (3) 
O=C1NCc2c1c1c3ccccc3n3c1c1c2c2ccccc2n1CS(=O)(=O)C3

>  <canonical_smi>  (3) 
O=C1NCc2c1c1c3ccccc3n3c1c1c2c2ccccc2n1CS(=O)(=O)C3

>  <Set>  (3) 
G1 active

>  <Set_type>  (3) 
G1

>  <MW>  (3) 
401.45

>  <HBD>  (3) 
1

>  <HBA>  (3) 
3

>  <NRB>  (3) 
0

>  <NR>  (3) 
7

>  <NAR>  (3) 
5

>  <PSA>  (3) 
73.1

>  <Standard Type>  (3) 
nan

>  <Standard Relation>  (3) 
nan

>  <Standard Units>  (3) 
nan

>  <Standard Value>  (3) 
nan

>  <Assay ChEMBL ID>  (3) 
nan

>  <Assay Description>  (3) 
nan

>  <BAO Label>  (3) 
nan

>  <bits>  (3) 
<rdkit.DataStructs.cDataStructs.ExplicitBitVect object at 0x00000210F8EB4DD0>

>  <Group>  (3) 
G2

$$$$

     RDKit          2D

 28 34  0  0  0  0  0  0  0  0999 V2000
    4.2660   -1.2584    0.0000 O   0  0  0  0  0  0  0  0  0  0  0  0
    3.9542   -2.7256    0.0000 C   0  0  0  0  0  0  0  0  0  0  0  0
    4.9579   -3.8403    0.0000 N   0  0  0  0  0  0  0  0  0  0  0  0
    4.2079   -5.1394    0.0000 C   0  0  0  0  0  0  0  0  0  0  0  0
    4.8180   -6.5097    0.0000 O   0  0  0  0  0  0  0  0  0  0  0  0
    2.7406   -4.8275    0.0000 C   0  0  0  0  0  0  0  0  0  0  0  0
    2.5838   -3.3357    0.0000 C   0  0  0  0  0  0  0  0  0  0  0  0
    1.2135   -2.7256    0.0000 C   0  0  0  0  0  0  0  0  0  0  0  0
    0.7500   -1.2990    0.0000 C   0  0  0  0  0  0  0  0  0  0  0  0
    1.5000    0.0000    0.0000 C   0  0  0  0  0  0  0  0  0  0  0  0
    0.7500    1.2990    0.0000 C   0  0  0  0  0  0  0  0  0  0  0  0
   -0.7500    1.2990    0.0000 C   0  0  0  0  0  0  0  0  0  0  0  0
   -1.5000    0.0000    0.0000 C   0  0  0  0  0  0  0  0  0  0  0  0
   -0.7500   -1.2990    0.0000 C   0  0  0  0  0  0  0  0  0  0  0  0
   -1.2135   -2.7256    0.0000 N   0  0  0  0  0  0  0  0  0  0  0  0
    0.0000   -3.6073    0.0000 C   0  0  0  0  0  0  0  0  0  0  0  0
    0.1568   -5.0991    0.0000 C   0  0  0  0  0  0  0  0  0  0  0  0
    1.5271   -5.7092    0.0000 C   0  0  0  0  0  0  0  0  0  0  0  0
    1.3703   -7.2010    0.0000 C   0  0  0  0  0  0  0  0  0  0  0  0
    2.3740   -8.3157    0.0000 C   0  0  0  0  0  0  0  0  0  0  0  0
    1.9105   -9.7423    0.0000 C   0  0  0  0  0  0  0  0  0  0  0  0
    0.4433  -10.0541    0.0000 C   0  0  0  0  0  0  0  0  0  0  0  0
   -0.5604   -8.9394    0.0000 C   0  0  0  0  0  0  0  0  0  0  0  0
   -0.0969   -7.5128    0.0000 C   0  0  0  0  0  0  0  0  0  0  0  0
   -0.8469   -6.2138    0.0000 N   0  0  0  0  0  0  0  0  0  0  0  0
   -2.3362   -6.0347    0.0000 C   0  0  0  0  0  0  0  0  0  0  0  0
   -3.1247   -4.7587    0.0000 S   0  0  0  0  0  0  0  0  0  0  0  0
   -2.6187   -3.3466    0.0000 C   0  0  0  0  0  0  0  0  0  0  0  0
  1  2  2  0
  2  3  1  0
  3  4  1  0
  4  5  2  0
  4  6  1  0
  6  7  2  0
  7  8  1  0
  8  9  1  0
  9 10  2  0
 10 11  1  0
 11 12  2  0
 12 13  1  0
 13 14  2  0
 14 15  1  0
 15 16  1  0
 16 17  1  0
 17 18  2  0
 18 19  1  0
 19 20  2  0
 20 21  1  0
 21 22  2  0
 22 23  1  0
 23 24  2  0
 24 25  1  0
 25 26  1  0
 26 27  1  0
 27 28  1  0
  7  2  1  0
 16  8  2  0
 25 17  1  0
 18  6  1  0
 24 19  1  0
 14  9  1  0
 28 15  1  0
M  END
>  <Compound_ID>  (4) 
CHEMBL283903

>  <Active>  (4) 
1

>  <Smiles>  (4) 
O=C1NC(=O)c2c1c1c3ccccc3n3c1c1c2c2ccccc2n1CSC3

>  <canonical_smi>  (4) 
O=C1NC(=O)c2c1c1c3ccccc3n3c1c1c2c2ccccc2n1CSC3

>  <Set>  (4) 
G1 active

>  <Set_type>  (4) 
G1

>  <MW>  (4) 
383.43

>  <HBD>  (4) 
1

>  <HBA>  (4) 
3

>  <NRB>  (4) 
0

>  <NR>  (4) 
7

>  <NAR>  (4) 
5

>  <PSA>  (4) 
56.03

>  <Standard Type>  (4) 
nan

>  <Standard Relation>  (4) 
nan

>  <Standard Units>  (4) 
nan

>  <Standard Value>  (4) 
nan

>  <Assay ChEMBL ID>  (4) 
nan

>  <Assay Description>  (4) 
nan

>  <BAO Label>  (4) 
nan

>  <bits>  (4) 
<rdkit.DataStructs.cDataStructs.ExplicitBitVect object at 0x00000210F8EB5CB0>

>  <Group>  (4) 
G2

$$$$

     RDKit          2D

 29 30  0  0  0  0  0  0  0  0999 V2000
   13.5000   -5.1962    0.0000 C   0  0  0  0  0  0  0  0  0  0  0  0
   12.7500   -3.8971    0.0000 C   0  0  0  0  0  0  0  0  0  0  0  0
   11.2500   -3.8971    0.0000 C   0  0  0  0  0  0  0  0  0  0  0  0
   10.5000   -2.5981    0.0000 C   0  0  0  0  0  0  0  0  0  0  0  0
    9.0000   -2.5981    0.0000 C   0  0  0  0  0  0  0  0  0  0  0  0
    8.2500   -1.2990    0.0000 C   0  0  0  0  0  0  0  0  0  0  0  0
    6.7500   -1.2990    0.0000 C   0  0  0  0  0  0  0  0  0  0  0  0
    6.0000    0.0000    0.0000 C   0  0  0  0  0  0  0  0  0  0  0  0
    4.5000    0.0000    0.0000 C   0  0  0  0  0  0  0  0  0  0  0  0
    3.0000    0.0000    0.0000 C   0  0  0  0  0  0  0  0  0  0  0  0
    1.5000    0.0000    0.0000 C   0  0  0  0  0  0  0  0  0  0  0  0
    0.7500   -1.2990    0.0000 C   0  0  0  0  0  0  0  0  0  0  0  0
   -0.7500   -1.2990    0.0000 C   0  0  0  0  0  0  0  0  0  0  0  0
   -1.5000    0.0000    0.0000 C   0  0  0  0  0  0  0  0  0  0  0  0
   -0.7500    1.2990    0.0000 C   0  0  0  0  0  0  0  0  0  0  0  0
    0.7500    1.2990    0.0000 C   0  0  0  0  0  0  0  0  0  0  0  0
   -1.1382    2.7479    0.0000 C   0  0  0  0  0  0  0  0  0  0  0  0
   -2.4373    3.4979    0.0000 C   0  0  0  0  0  0  0  0  0  0  0  0
   -2.2415    4.9851    0.0000 C   0  0  0  0  0  0  0  0  0  0  0  0
   -0.8557    5.5591    0.0000 O   0  0  0  0  0  0  0  0  0  0  0  0
   -3.8862    3.1097    0.0000 N   0  0  0  0  0  0  0  0  0  0  0  0
   -4.6362    1.8107    0.0000 C   0  0  0  0  0  0  0  0  0  0  0  0
   -6.1233    2.0064    0.0000 O   0  0  0  0  0  0  0  0  0  0  0  0
   -4.2479    0.3618    0.0000 C   0  0  0  0  0  0  0  0  0  0  0  0
   -5.4380   -0.5514    0.0000 C   0  0  0  0  0  0  0  0  0  0  0  0
   -6.8238    0.0227    0.0000 C   0  0  0  0  0  0  0  0  0  0  0  0
   -5.2422   -2.0385    0.0000 C   0  0  0  0  0  0  0  0  0  0  0  0
   -2.9489   -0.3882    0.0000 N   0  0  0  0  0  0  0  0  0  0  0  0
   -3.1447   -1.8754    0.0000 C   0  0  0  0  0  0  0  0  0  0  0  0
  1  2  1  0
  2  3  1  0
  3  4  1  0
  4  5  1  0
  5  6  1  0
  6  7  1  0
  7  8  1  0
  8  9  1  0
  9 10  3  0
 10 11  1  0
 11 12  2  0
 12 13  1  0
 13 14  2  0
 14 15  1  0
 15 16  2  0
 15 17  1  0
 17 18  1  0
 18 19  1  6
 19 20  1  0
 18 21  1  0
 21 22  1  0
 22 23  2  0
 22 24  1  0
 24 25  1  1
 25 26  1  0
 25 27  1  0
 24 28  1  0
 28 29  1  0
 16 11  1  0
 28 14  1  0
M  END
>  <Compound_ID>  (5) 
CHEMBL6453

>  <Active>  (5) 
1

>  <Smiles>  (5) 
CCCCCCCCC#Cc1ccc2c(c1)C[C@@H](CO)NC(=O)[C@H](C(C)C)N2C

>  <canonical_smi>  (5) 
CCCCCCCCC#Cc1ccc2c(c1)C[C@@H](CO)NC(=O)[C@H](C(C)C)N2C

>  <Set>  (5) 
G1 active

>  <Set_type>  (5) 
G1

>  <MW>  (5) 
398.59

>  <HBD>  (5) 
2

>  <HBA>  (5) 
3

>  <NRB>  (5) 
8

>  <NR>  (5) 
2

>  <NAR>  (5) 
1

>  <PSA>  (5) 
52.57

>  <Standard Type>  (5) 
nan

>  <Standard Relation>  (5) 
nan

>  <Standard Units>  (5) 
nan

>  <Standard Value>  (5) 
nan

>  <Assay ChEMBL ID>  (5) 
nan

>  <Assay Description>  (5) 
nan

>  <BAO Label>  (5) 
nan

>  <bits>  (5) 
<rdkit.DataStructs.cDataStructs.ExplicitBitVect object at 0x00000210F8EB6500>

>  <Group>  (5) 
G2

$$$$

     RDKit          2D

 33 40  0  0  0  0  0  0  0  0999 V2000
    4.2660   -1.2584    0.0000 O   0  0  0  0  0  0  0  0  0  0  0  0
    3.9542   -2.7256    0.0000 C   0  0  0  0  0  0  0  0  0  0  0  0
    4.9579   -3.8403    0.0000 N   0  0  0  0  0  0  0  0  0  0  0  0
    4.2079   -5.1394    0.0000 C   0  0  0  0  0  0  0  0  0  0  0  0
    4.8180   -6.5097    0.0000 O   0  0  0  0  0  0  0  0  0  0  0  0
    2.7406   -4.8275    0.0000 C   0  0  0  0  0  0  0  0  0  0  0  0
    2.5838   -3.3357    0.0000 C   0  0  0  0  0  0  0  0  0  0  0  0
    1.2135   -2.7256    0.0000 C   0  0  0  0  0  0  0  0  0  0  0  0
    0.7500   -1.2990    0.0000 C   0  0  0  0  0  0  0  0  0  0  0  0
    1.5000    0.0000    0.0000 C   0  0  0  0  0  0  0  0  0  0  0  0
    0.7500    1.2990    0.0000 C   0  0  0  0  0  0  0  0  0  0  0  0
   -0.7500    1.2990    0.0000 C   0  0  0  0  0  0  0  0  0  0  0  0
   -1.5000    0.0000    0.0000 C   0  0  0  0  0  0  0  0  0  0  0  0
   -0.7500   -1.2990    0.0000 C   0  0  0  0  0  0  0  0  0  0  0  0
   -1.2135   -2.7256    0.0000 N   0  0  0  0  0  0  0  0  0  0  0  0
    0.0000   -3.6073    0.0000 C   0  0  0  0  0  0  0  0  0  0  0  0
    0.1568   -5.0991    0.0000 C   0  0  0  0  0  0  0  0  0  0  0  0
    1.5271   -5.7092    0.0000 C   0  0  0  0  0  0  0  0  0  0  0  0
    1.3703   -7.2010    0.0000 C   0  0  0  0  0  0  0  0  0  0  0  0
    2.3740   -8.3157    0.0000 C   0  0  0  0  0  0  0  0  0  0  0  0
    1.9105   -9.7423    0.0000 C   0  0  0  0  0  0  0  0  0  0  0  0
    0.4433  -10.0541    0.0000 C   0  0  0  0  0  0  0  0  0  0  0  0
   -0.5604   -8.9394    0.0000 C   0  0  0  0  0  0  0  0  0  0  0  0
   -0.0969   -7.5128    0.0000 C   0  0  0  0  0  0  0  0  0  0  0  0
   -0.8469   -6.2138    0.0000 N   0  0  0  0  0  0  0  0  0  0  0  0
   -2.3505   -5.8985    0.0000 C   0  0  0  0  0  0  0  0  0  0  0  0
   -3.8532   -5.9511    0.0000 C   0  0  0  0  0  0  0  0  0  0  0  0
   -4.7349   -4.7375    0.0000 O   0  0  0  0  0  0  0  0  0  0  0  0
   -4.1248   -3.3672    0.0000 C   0  0  0  0  0  0  0  0  0  0  0  0
   -2.6330   -3.2104    0.0000 C   0  0  0  0  0  0  0  0  0  0  0  0
   -3.1390   -4.6225    0.0000 S   0  0  0  0  0  0  0  0  0  0  0  0
   -3.8947   -4.3687    0.0000 O   0  0  0  0  0  0  0  0  0  0  0  0
   -4.4305   -5.3854    0.0000 O   0  0  0  0  0  0  0  0  0  0  0  0
  1  2  2  0
  2  3  1  0
  3  4  1  0
  4  5  2  0
  4  6  1  0
  6  7  2  0
  7  8  1  0
  8  9  1  0
  9 10  2  0
 10 11  1  0
 11 12  2  0
 12 13  1  0
 13 14  2  0
 14 15  1  0
 15 16  1  0
 16 17  1  0
 17 18  2  0
 18 19  1  0
 19 20  2  0
 20 21  1  0
 21 22  2  0
 22 23  1  0
 23 24  2  0
 24 25  1  0
 25 26  1  0
 26 27  1  0
 27 28  1  0
 28 29  1  0
 29 30  1  0
 30 31  1  0
 31 32  2  0
 31 33  2  0
  7  2  1  0
 16  8  2  0
 25 17  1  0
 31 26  1  0
 18  6  1  0
 24 19  1  0
 14  9  1  0
 30 15  1  0
M  END
>  <Compound_ID>  (6) 
CHEMBL283399

>  <Active>  (6) 
1

>  <Smiles>  (6) 
O=C1NC(=O)c2c1c1c3ccccc3n3c1c1c2c2ccccc2n1C1COCC3S1(=O)=O

>  <canonical_smi>  (6) 
O=C1NC(=O)c2c1c1c3ccccc3n3c1c1c2c2ccccc2n1C1COCC3S1(=O)=O

>  <Set>  (6) 
G1 active

>  <Set_type>  (6) 
G1

>  <MW>  (6) 
457.47

>  <HBD>  (6) 
1

>  <HBA>  (6) 
5

>  <NRB>  (6) 
0

>  <NR>  (6) 
8

>  <NAR>  (6) 
5

>  <PSA>  (6) 
99.4

>  <Standard Type>  (6) 
nan

>  <Standard Relation>  (6) 
nan

>  <Standard Units>  (6) 
nan

>  <Standard Value>  (6) 
nan

>  <Assay ChEMBL ID>  (6) 
nan

>  <Assay Description>  (6) 
nan

>  <BAO Label>  (6) 
nan

>  <bits>  (6) 
<rdkit.DataStructs.cDataStructs.ExplicitBitVect object at 0x00000210F8EB7450>

>  <Group>  (6) 
G2

$$$$

     RDKit          2D

 28 34  0  0  0  0  0  0  0  0999 V2000
    4.2660   -1.2584    0.0000 N   0  0  0  0  0  0  0  0  0  0  0  0
    3.9542   -2.7256    0.0000 C   0  0  0  0  0  0  0  0  0  0  0  0
    4.9579   -3.8403    0.0000 N   0  0  0  0  0  0  0  0  0  0  0  0
    4.2079   -5.1394    0.0000 C   0  0  0  0  0  0  0  0  0  0  0  0
    4.8180   -6.5097    0.0000 O   0  0  0  0  0  0  0  0  0  0  0  0
    2.7406   -4.8275    0.0000 C   0  0  0  0  0  0  0  0  0  0  0  0
    2.5838   -3.3357    0.0000 C   0  0  0  0  0  0  0  0  0  0  0  0
    1.2135   -2.7256    0.0000 C   0  0  0  0  0  0  0  0  0  0  0  0
    0.7500   -1.2990    0.0000 C   0  0  0  0  0  0  0  0  0  0  0  0
    1.5000    0.0000    0.0000 C   0  0  0  0  0  0  0  0  0  0  0  0
    0.7500    1.2990    0.0000 C   0  0  0  0  0  0  0  0  0  0  0  0
   -0.7500    1.2990    0.0000 C   0  0  0  0  0  0  0  0  0  0  0  0
   -1.5000    0.0000    0.0000 C   0  0  0  0  0  0  0  0  0  0  0  0
   -0.7500   -1.2990    0.0000 C   0  0  0  0  0  0  0  0  0  0  0  0
   -1.2135   -2.7256    0.0000 N   0  0  0  0  0  0  0  0  0  0  0  0
    0.0000   -3.6073    0.0000 C   0  0  0  0  0  0  0  0  0  0  0  0
    0.1568   -5.0991    0.0000 C   0  0  0  0  0  0  0  0  0  0  0  0
    1.5271   -5.7092    0.0000 C   0  0  0  0  0  0  0  0  0  0  0  0
    1.3703   -7.2010    0.0000 C   0  0  0  0  0  0  0  0  0  0  0  0
    2.3740   -8.3157    0.0000 C   0  0  0  0  0  0  0  0  0  0  0  0
    1.9105   -9.7423    0.0000 C   0  0  0  0  0  0  0  0  0  0  0  0
    0.4433  -10.0541    0.0000 C   0  0  0  0  0  0  0  0  0  0  0  0
   -0.5604   -8.9394    0.0000 C   0  0  0  0  0  0  0  0  0  0  0  0
   -0.0969   -7.5128    0.0000 C   0  0  0  0  0  0  0  0  0  0  0  0
   -0.8469   -6.2138    0.0000 N   0  0  0  0  0  0  0  0  0  0  0  0
   -2.3362   -6.0347    0.0000 C   0  0  0  0  0  0  0  0  0  0  0  0
   -3.1247   -4.7587    0.0000 O   0  0  0  0  0  0  0  0  0  0  0  0
   -2.6187   -3.3466    0.0000 C   0  0  0  0  0  0  0  0  0  0  0  0
  1  2  1  0
  2  3  2  0
  3  4  1  0
  4  5  2  0
  4  6  1  0
  6  7  2  0
  7  8  1  0
  8  9  1  0
  9 10  2  0
 10 11  1  0
 11 12  2  0
 12 13  1  0
 13 14  2  0
 14 15  1  0
 15 16  1  0
 16 17  1  0
 17 18  2  0
 18 19  1  0
 19 20  2  0
 20 21  1  0
 21 22  2  0
 22 23  1  0
 23 24  2  0
 24 25  1  0
 25 26  1  0
 26 27  1  0
 27 28  1  0
  7  2  1  0
 16  8  2  0
 25 17  1  0
 18  6  1  0
 24 19  1  0
 14  9  1  0
 28 15  1  0
M  END
>  <Compound_ID>  (7) 
CHEMBL283930

>  <Active>  (7) 
1

>  <Smiles>  (7) 
NC1=NC(=O)c2c1c1c3ccccc3n3c1c1c2c2ccccc2n1COC3

>  <canonical_smi>  (7) 
NC1=NC(=O)c2c1c1c3ccccc3n3c1c1c2c2ccccc2n1COC3

>  <Set>  (7) 
G1 active

>  <Set_type>  (7) 
G1

>  <MW>  (7) 
366.38

>  <HBD>  (7) 
1

>  <HBA>  (7) 
3

>  <NRB>  (7) 
0

>  <NR>  (7) 
7

>  <NAR>  (7) 
5

>  <PSA>  (7) 
74.54

>  <Standard Type>  (7) 
nan

>  <Standard Relation>  (7) 
nan

>  <Standard Units>  (7) 
nan

>  <Standard Value>  (7) 
nan

>  <Assay ChEMBL ID>  (7) 
nan

>  <Assay Description>  (7) 
nan

>  <BAO Label>  (7) 
nan

>  <bits>  (7) 
<rdkit.DataStructs.cDataStructs.ExplicitBitVect object at 0x00000210F8EB7680>

>  <Group>  (7) 
G2

$$$$

     RDKit          2D

 32 34  0  0  0  0  0  0  0  0999 V2000
   -1.6056  -13.0341    0.0000 C   0  0  0  0  0  0  0  0  0  0  0  0
   -0.1138  -12.8773    0.0000 C   0  0  0  0  0  0  0  0  0  0  0  0
    0.7679  -14.0909    0.0000 C   0  0  0  0  0  0  0  0  0  0  0  0
    0.4963  -11.5070    0.0000 C   0  0  0  0  0  0  0  0  0  0  0  0
   -0.2537  -10.2080    0.0000 C   0  0  0  0  0  0  0  0  0  0  0  0
    0.7500   -9.0933    0.0000 C   0  0  0  0  0  0  0  0  0  0  0  0
   -0.4635   -8.2116    0.0000 C   0  0  0  0  0  0  0  0  0  0  0  0
   -1.8338   -8.8217    0.0000 O   0  0  0  0  0  0  0  0  0  0  0  0
    1.5000   -7.7942    0.0000 C   0  0  0  0  0  0  0  0  0  0  0  0
    0.7500   -6.4952    0.0000 O   0  0  0  0  0  0  0  0  0  0  0  0
    1.5000   -5.1962    0.0000 C   0  0  0  0  0  0  0  0  0  0  0  0
    3.0000   -5.1962    0.0000 O   0  0  0  0  0  0  0  0  0  0  0  0
    0.7500   -3.8971    0.0000 C   0  0  0  0  0  0  0  0  0  0  0  0
    1.5000   -2.5981    0.0000 O   0  0  0  0  0  0  0  0  0  0  0  0
    0.7500   -1.2990    0.0000 C   0  0  0  0  0  0  0  0  0  0  0  0
    1.5000    0.0000    0.0000 C   0  0  0  0  0  0  0  0  0  0  0  0
    0.7500    1.2990    0.0000 C   0  0  0  0  0  0  0  0  0  0  0  0
   -0.7500    1.2990    0.0000 C   0  0  0  0  0  0  0  0  0  0  0  0
   -1.5000    2.5981    0.0000 C   0  0  0  0  0  0  0  0  0  0  0  0
   -2.2500    3.8971    0.0000 C   0  0  0  0  0  0  0  0  0  0  0  0
   -3.0000    5.1962    0.0000 C   0  0  0  0  0  0  0  0  0  0  0  0
   -2.2500    6.4952    0.0000 C   0  0  0  0  0  0  0  0  0  0  0  0
   -3.0000    7.7942    0.0000 C   0  0  0  0  0  0  0  0  0  0  0  0
   -4.5000    7.7942    0.0000 C   0  0  0  0  0  0  0  0  0  0  0  0
   -5.2500    9.0933    0.0000 C   0  0  0  0  0  0  0  0  0  0  0  0
   -5.2500    6.4952    0.0000 C   0  0  0  0  0  0  0  0  0  0  0  0
   -4.5000    5.1962    0.0000 C   0  0  0  0  0  0  0  0  0  0  0  0
   -1.5000    0.0000    0.0000 C   0  0  0  0  0  0  0  0  0  0  0  0
   -0.7500   -1.2990    0.0000 C   0  0  0  0  0  0  0  0  0  0  0  0
    2.1203   -9.7034    0.0000 O   0  0  0  0  0  0  0  0  0  0  0  0
    1.9635  -11.1952    0.0000 C   0  0  0  0  0  0  0  0  0  0  0  0
    3.0782  -12.1989    0.0000 O   0  0  0  0  0  0  0  0  0  0  0  0
  1  2  1  0
  2  3  1  0
  2  4  2  0
  4  5  1  0
  5  6  1  0
  6  7  1  0
  7  8  1  0
  6  9  1  0
  9 10  1  0
 10 11  1  0
 11 12  2  0
 11 13  1  0
 13 14  1  0
 14 15  1  0
 15 16  2  0
 16 17  1  0
 17 18  2  0
 18 19  1  0
 19 20  3  0
 20 21  1  0
 21 22  2  0
 22 23  1  0
 23 24  2  0
 24 25  1  0
 24 26  1  0
 26 27  2  0
 18 28  1  0
 28 29  2  0
  6 30  1  0
 30 31  1  0
 31 32  2  0
 31  4  1  0
 29 15  1  0
 27 21  1  0
M  END
>  <Compound_ID>  (8) 
CHEMBL523155

>  <Active>  (8) 
1

>  <Smiles>  (8) 
CC(C)=C1CC(CO)(COC(=O)COc2ccc(C#Cc3ccc(C)cc3)cc2)OC1=O

>  <canonical_smi>  (8) 
CC(C)=C1CC(CO)(COC(=O)COc2ccc(C#Cc3ccc(C)cc3)cc2)OC1=O

>  <Set>  (8) 
G1 active

>  <Set_type>  (8) 
G1

>  <MW>  (8) 
434.49

>  <HBD>  (8) 
1

>  <HBA>  (8) 
6

>  <NRB>  (8) 
6

>  <NR>  (8) 
3

>  <NAR>  (8) 
2

>  <PSA>  (8) 
82.06

>  <Standard Type>  (8) 
nan

>  <Standard Relation>  (8) 
nan

>  <Standard Units>  (8) 
nan

>  <Standard Value>  (8) 
nan

>  <Assay ChEMBL ID>  (8) 
nan

>  <Assay Description>  (8) 
nan

>  <BAO Label>  (8) 
nan

>  <bits>  (8) 
<rdkit.DataStructs.cDataStructs.ExplicitBitVect object at 0x00000210F8EB7920>

>  <Group>  (8) 
G2

$$$$

     RDKit          2D

 29 32  0  0  0  0  0  0  0  0999 V2000
   -8.0346   -3.5760    0.0000 N   0  0  0  0  0  0  0  0  0  0  0  0
   -7.7227   -2.1088    0.0000 C   0  0  0  0  0  0  0  0  0  0  0  0
   -8.8374   -1.1051    0.0000 N   0  0  0  0  0  0  0  0  0  0  0  0
   -6.2961   -1.6453    0.0000 S   0  0  0  0  0  0  0  0  0  0  0  0
   -5.1814   -2.6490    0.0000 C   0  0  0  0  0  0  0  0  0  0  0  0
   -3.7548   -2.1855    0.0000 C   0  0  0  0  0  0  0  0  0  0  0  0
   -2.6401   -3.1891    0.0000 C   0  0  0  0  0  0  0  0  0  0  0  0
   -1.2135   -2.7256    0.0000 N   0  0  0  0  0  0  0  0  0  0  0  0
   -0.0000   -3.6073    0.0000 C   0  0  0  0  0  0  0  0  0  0  0  0
   -0.0000   -5.1073    0.0000 C   0  0  0  0  0  0  0  0  0  0  0  0
   -1.2990   -5.8573    0.0000 C   0  0  0  0  0  0  0  0  0  0  0  0
   -1.2990   -7.3573    0.0000 C   0  0  0  0  0  0  0  0  0  0  0  0
   -0.0000   -8.1073    0.0000 C   0  0  0  0  0  0  0  0  0  0  0  0
    1.2990   -7.3573    0.0000 C   0  0  0  0  0  0  0  0  0  0  0  0
    1.2990   -5.8573    0.0000 C   0  0  0  0  0  0  0  0  0  0  0  0
    1.2135   -2.7256    0.0000 C   0  0  0  0  0  0  0  0  0  0  0  0
    2.6401   -3.1891    0.0000 C   0  0  0  0  0  0  0  0  0  0  0  0
    3.8536   -2.3075    0.0000 C   0  0  0  0  0  0  0  0  0  0  0  0
    5.0672   -3.1891    0.0000 C   0  0  0  0  0  0  0  0  0  0  0  0
    6.4937   -2.7256    0.0000 O   0  0  0  0  0  0  0  0  0  0  0  0
    4.6036   -4.6157    0.0000 N   0  0  0  0  0  0  0  0  0  0  0  0
    3.1036   -4.6157    0.0000 C   0  0  0  0  0  0  0  0  0  0  0  0
    2.2220   -5.8293    0.0000 O   0  0  0  0  0  0  0  0  0  0  0  0
    0.7500   -1.2990    0.0000 C   0  0  0  0  0  0  0  0  0  0  0  0
    1.5000    0.0000    0.0000 C   0  0  0  0  0  0  0  0  0  0  0  0
    0.7500    1.2990    0.0000 C   0  0  0  0  0  0  0  0  0  0  0  0
   -0.7500    1.2990    0.0000 C   0  0  0  0  0  0  0  0  0  0  0  0
   -1.5000    0.0000    0.0000 C   0  0  0  0  0  0  0  0  0  0  0  0
   -0.7500   -1.2990    0.0000 C   0  0  0  0  0  0  0  0  0  0  0  0
  1  2  2  0
  2  3  1  0
  2  4  1  0
  4  5  1  0
  5  6  1  0
  6  7  1  0
  7  8  1  0
  8  9  1  0
  9 10  1  0
 10 11  2  0
 11 12  1  0
 12 13  2  0
 13 14  1  0
 14 15  2  0
  9 16  2  0
 16 17  1  0
 17 18  2  0
 18 19  1  0
 19 20  2  0
 19 21  1  0
 21 22  1  0
 22 23  2  0
 16 24  1  0
 24 25  2  0
 25 26  1  0
 26 27  2  0
 27 28  1  0
 28 29  2  0
 29  8  1  0
 15 10  1  0
 22 17  1  0
 29 24  1  0
M  END
>  <Compound_ID>  (9) 
CHEMBL161832

>  <Active>  (9) 
1

>  <Smiles>  (9) 
N=C(N)SCCCn1c(-c2ccccc2)c(C2=CC(=O)NC2=O)c2ccccc21

>  <canonical_smi>  (9) 
N=C(N)SCCCn1c(-c2ccccc2)c(C2=CC(=O)NC2=O)c2ccccc21

>  <Set>  (9) 
G1 active

>  <Set_type>  (9) 
G1

>  <MW>  (9) 
404.5

>  <HBD>  (9) 
3

>  <HBA>  (9) 
4

>  <NRB>  (9) 
6

>  <NR>  (9) 
4

>  <NAR>  (9) 
3

>  <PSA>  (9) 
100.97

>  <Standard Type>  (9) 
nan

>  <Standard Relation>  (9) 
nan

>  <Standard Units>  (9) 
nan

>  <Standard Value>  (9) 
nan

>  <Assay ChEMBL ID>  (9) 
nan

>  <Assay Description>  (9) 
nan

>  <BAO Label>  (9) 
nan

>  <bits>  (9) 
<rdkit.DataStructs.cDataStructs.ExplicitBitVect object at 0x00000210F8EB5A10>

>  <Group>  (9) 
G2

$$$$

     RDKit          2D

 25 30  0  0  0  0  0  0  0  0999 V2000
   -4.2660   -1.2584    0.0000 O   0  0  0  0  0  0  0  0  0  0  0  0
   -3.9542   -2.7256    0.0000 C   0  0  0  0  0  0  0  0  0  0  0  0
   -4.9579   -3.8403    0.0000 N   0  0  0  0  0  0  0  0  0  0  0  0
   -4.2079   -5.1394    0.0000 C   0  0  0  0  0  0  0  0  0  0  0  0
   -2.7406   -4.8275    0.0000 C   0  0  0  0  0  0  0  0  0  0  0  0
   -1.5271   -5.7092    0.0000 C   0  0  0  0  0  0  0  0  0  0  0  0
   -0.1568   -5.0991    0.0000 C   0  0  0  0  0  0  0  0  0  0  0  0
   -0.0000   -3.6073    0.0000 C   0  0  0  0  0  0  0  0  0  0  0  0
    1.2135   -2.7256    0.0000 N   0  0  0  0  0  0  0  0  0  0  0  0
    0.7500   -1.2990    0.0000 C   0  0  0  0  0  0  0  0  0  0  0  0
    1.5000    0.0000    0.0000 C   0  0  0  0  0  0  0  0  0  0  0  0
    0.7500    1.2990    0.0000 C   0  0  0  0  0  0  0  0  0  0  0  0
   -0.7500    1.2990    0.0000 C   0  0  0  0  0  0  0  0  0  0  0  0
   -1.5000    0.0000    0.0000 C   0  0  0  0  0  0  0  0  0  0  0  0
   -0.7500   -1.2990    0.0000 C   0  0  0  0  0  0  0  0  0  0  0  0
   -1.2135   -2.7256    0.0000 C   0  0  0  0  0  0  0  0  0  0  0  0
   -2.5838   -3.3357    0.0000 C   0  0  0  0  0  0  0  0  0  0  0  0
    1.0567   -5.9808    0.0000 C   0  0  0  0  0  0  0  0  0  0  0  0
    0.8999   -7.4725    0.0000 C   0  0  0  0  0  0  0  0  0  0  0  0
   -0.4704   -8.0826    0.0000 C   0  0  0  0  0  0  0  0  0  0  0  0
   -0.6272   -9.5744    0.0000 C   0  0  0  0  0  0  0  0  0  0  0  0
   -1.9975  -10.1845    0.0000 C   0  0  0  0  0  0  0  0  0  0  0  0
   -3.2110   -9.3029    0.0000 C   0  0  0  0  0  0  0  0  0  0  0  0
   -3.0542   -7.8111    0.0000 C   0  0  0  0  0  0  0  0  0  0  0  0
   -1.6839   -7.2010    0.0000 C   0  0  0  0  0  0  0  0  0  0  0  0
  1  2  2  0
  2  3  1  0
  3  4  1  0
  4  5  1  0
  5  6  2  0
  6  7  1  0
  7  8  2  0
  8  9  1  0
  9 10  1  0
 10 11  2  0
 11 12  1  0
 12 13  2  0
 13 14  1  0
 14 15  2  0
 15 16  1  0
 16 17  2  0
  7 18  1  0
 18 19  1  0
 19 20  1  0
 20 21  2  0
 21 22  1  0
 22 23  2  0
 23 24  1  0
 24 25  2  0
 17  2  1  0
 25 20  1  0
 17  5  1  0
 25  6  1  0
 16  8  1  0
 15 10  1  0
M  END
>  <Compound_ID>  (10) 
CHEMBL374581

>  <Active>  (10) 
1

>  <Smiles>  (10) 
O=C1NCc2c3c(c4[nH]c5ccccc5c4c21)CCc1ccccc1-3

>  <canonical_smi>  (10) 
O=C1NCc2c3c(c4[nH]c5ccccc5c4c21)CCc1ccccc1-3

>  <Set>  (10) 
G1 active

>  <Set_type>  (10) 
G1

>  <MW>  (10) 
324.38

>  <HBD>  (10) 
2

>  <HBA>  (10) 
1

>  <NRB>  (10) 
0

>  <NR>  (10) 
6

>  <NAR>  (10) 
4

>  <PSA>  (10) 
44.89

>  <Standard Type>  (10) 
nan

>  <Standard Relation>  (10) 
nan

>  <Standard Units>  (10) 
nan

>  <Standard Value>  (10) 
nan

>  <Assay ChEMBL ID>  (10) 
nan

>  <Assay Description>  (10) 
nan

>  <BAO Label>  (10) 
nan

>  <bits>  (10) 
<rdkit.DataStructs.cDataStructs.ExplicitBitVect object at 0x00000210F8EB4430>

>  <Group>  (10) 
G2

$$$$

     RDKit          2D

 34 36  0  0  0  0  0  0  0  0999 V2000
   -0.7500   -9.0933    0.0000 O   0  0  0  0  0  0  0  0  0  0  0  0
    0.7500   -9.0933    0.0000 C   0  0  0  0  0  0  0  0  0  0  0  0
    1.5000   -7.7942    0.0000 O   0  0  0  0  0  0  0  0  0  0  0  0
    0.7500   -6.4952    0.0000 C   0  0  0  0  0  0  0  0  0  0  0  0
    1.5000   -5.1962    0.0000 C   0  0  0  0  0  0  0  0  0  0  0  0
    0.7500   -3.8971    0.0000 C   0  0  0  0  0  0  0  0  0  0  0  0
    1.5000   -2.5981    0.0000 C   0  0  0  0  0  0  0  0  0  0  0  0
    0.7500   -1.2990    0.0000 C   0  0  0  0  0  0  0  0  0  0  0  0
    1.5000    0.0000    0.0000 C   0  0  0  0  0  0  0  0  0  0  0  0
    0.7500    1.2990    0.0000 C   0  0  0  0  0  0  0  0  0  0  0  0
   -0.7500    1.2990    0.0000 C   0  0  0  0  0  0  0  0  0  0  0  0
   -1.5000    2.5981    0.0000 O   0  0  0  0  0  0  0  0  0  0  0  0
   -1.5000    0.0000    0.0000 C   0  0  0  0  0  0  0  0  0  0  0  0
   -0.7500   -1.2990    0.0000 C   0  0  0  0  0  0  0  0  0  0  0  0
    1.5000  -10.3923    0.0000 C   0  0  0  0  0  0  0  0  0  0  0  0
    0.7500  -11.6913    0.0000 C   0  0  0  0  0  0  0  0  0  0  0  0
    1.5000  -12.9904    0.0000 C   0  0  0  0  0  0  0  0  0  0  0  0
    0.9077  -13.7763    0.0000 O   0  0  0  0  0  0  0  0  0  0  0  0
    3.0000  -12.9904    0.0000 C   0  0  0  0  0  0  0  0  0  0  0  0
    3.7500  -14.2894    0.0000 C   0  0  0  0  0  0  0  0  0  0  0  0
    5.2500  -14.2894    0.0000 O   0  0  0  0  0  0  0  0  0  0  0  0
    3.0000  -15.5885    0.0000 C   0  0  0  0  0  0  0  0  0  0  0  0
    1.5000  -15.5885    0.0000 C   0  0  0  0  0  0  0  0  0  0  0  0
    0.9077  -14.8025    0.0000 O   0  0  0  0  0  0  0  0  0  0  0  0
    0.7500  -16.8875    0.0000 C   0  0  0  0  0  0  0  0  0  0  0  0
    1.5000  -18.1865    0.0000 C   0  0  0  0  0  0  0  0  0  0  0  0
    3.0000  -18.1865    0.0000 C   0  0  0  0  0  0  0  0  0  0  0  0
    3.7500  -16.8875    0.0000 C   0  0  0  0  0  0  0  0  0  0  0  0
    5.2500  -16.8875    0.0000 C   0  0  0  0  0  0  0  0  0  0  0  0
    6.0000  -15.5885    0.0000 O   0  0  0  0  0  0  0  0  0  0  0  0
    6.0000  -18.1865    0.0000 O   0  0  0  0  0  0  0  0  0  0  0  0
    3.7500  -11.6913    0.0000 C   0  0  0  0  0  0  0  0  0  0  0  0
    5.2500  -11.6913    0.0000 O   0  0  0  0  0  0  0  0  0  0  0  0
    3.0000  -10.3923    0.0000 C   0  0  0  0  0  0  0  0  0  0  0  0
  1  2  2  0
  2  3  1  0
  3  4  1  0
  4  5  1  0
  5  6  1  0
  6  7  1  0
  7  8  1  0
  8  9  2  0
  9 10  1  0
 10 11  2  0
 11 12  1  0
 11 13  1  0
 13 14  2  0
  2 15  1  0
 15 16  2  0
 16 17  1  0
 17 18  1  0
 17 19  2  0
 19 20  1  0
 20 21  2  0
 20 22  1  0
 22 23  2  0
 23 24  1  0
 23 25  1  0
 25 26  2  0
 26 27  1  0
 27 28  2  0
 28 29  1  0
 29 30  2  0
 29 31  1  0
 19 32  1  0
 32 33  1  0
 32 34  2  0
 14  8  1  0
 34 15  1  0
 28 22  1  0
M  END
>  <Compound_ID>  (11) 
CHEMBL439996

>  <Active>  (11) 
1

>  <Smiles>  (11) 
O=C(OCCCCc1ccc(O)cc1)c1cc(O)c(C(=O)c2c(O)cccc2C(=O)O)c(O)c1

>  <canonical_smi>  (11) 
O=C(OCCCCc1ccc(O)cc1)c1cc(O)c(C(=O)c2c(O)cccc2C(=O)O)c(O)c1

>  <Set>  (11) 
G1 active

>  <Set_type>  (11) 
G1

>  <MW>  (11) 
466.44

>  <HBD>  (11) 
5

>  <HBA>  (11) 
9

>  <NRB>  (11) 
9

>  <NR>  (11) 
3

>  <NAR>  (11) 
3

>  <PSA>  (11) 
161.59

>  <Standard Type>  (11) 
nan

>  <Standard Relation>  (11) 
nan

>  <Standard Units>  (11) 
nan

>  <Standard Value>  (11) 
nan

>  <Assay ChEMBL ID>  (11) 
nan

>  <Assay Description>  (11) 
nan

>  <BAO Label>  (11) 
nan

>  <bits>  (11) 
<rdkit.DataStructs.cDataStructs.ExplicitBitVect object at 0x00000210F8EB4660>

>  <Group>  (11) 
G2

$$$$

     RDKit          2D

 30 35  0  0  0  0  0  0  0  0999 V2000
   -2.2220    2.7143    0.0000 C   0  0  0  0  0  0  0  0  0  0  0  0
   -3.1036    1.5008    0.0000 N   0  0  0  0  0  0  0  0  0  0  0  0
   -2.6401    0.0742    0.0000 C   0  0  0  0  0  0  0  0  0  0  0  0
   -3.8536   -0.8075    0.0000 C   0  0  0  0  0  0  0  0  0  0  0  0
   -3.8536   -2.3075    0.0000 C   0  0  0  0  0  0  0  0  0  0  0  0
   -2.6401   -3.1891    0.0000 C   0  0  0  0  0  0  0  0  0  0  0  0
   -1.2135   -2.7256    0.0000 C   0  0  0  0  0  0  0  0  0  0  0  0
   -0.0000   -3.6073    0.0000 C   0  0  0  0  0  0  0  0  0  0  0  0
    1.2135   -2.7256    0.0000 N   0  0  0  0  0  0  0  0  0  0  0  0
    0.7500   -1.2990    0.0000 C   0  0  0  0  0  0  0  0  0  0  0  0
    1.5000    0.0000    0.0000 C   0  0  0  0  0  0  0  0  0  0  0  0
    0.7500    1.2990    0.0000 C   0  0  0  0  0  0  0  0  0  0  0  0
   -0.7500    1.2990    0.0000 C   0  0  0  0  0  0  0  0  0  0  0  0
   -1.5000    0.0000    0.0000 C   0  0  0  0  0  0  0  0  0  0  0  0
   -0.7500   -1.2990    0.0000 C   0  0  0  0  0  0  0  0  0  0  0  0
    2.5838   -3.3357    0.0000 C   0  0  0  0  0  0  0  0  0  0  0  0
    2.7406   -4.8275    0.0000 C   0  0  0  0  0  0  0  0  0  0  0  0
    1.5271   -5.7092    0.0000 N   0  0  0  0  0  0  0  0  0  0  0  0
    0.1568   -5.0991    0.0000 C   0  0  0  0  0  0  0  0  0  0  0  0
   -3.1036   -4.6157    0.0000 C   0  0  0  0  0  0  0  0  0  0  0  0
   -2.2220   -5.8293    0.0000 O   0  0  0  0  0  0  0  0  0  0  0  0
   -4.6036   -4.6157    0.0000 N   0  0  0  0  0  0  0  0  0  0  0  0
   -5.0672   -3.1891    0.0000 C   0  0  0  0  0  0  0  0  0  0  0  0
   -6.4937   -2.7256    0.0000 O   0  0  0  0  0  0  0  0  0  0  0  0
   -5.0672    0.0742    0.0000 C   0  0  0  0  0  0  0  0  0  0  0  0
   -6.5344   -0.2377    0.0000 C   0  0  0  0  0  0  0  0  0  0  0  0
   -7.5381    0.8771    0.0000 C   0  0  0  0  0  0  0  0  0  0  0  0
   -7.0746    2.3036    0.0000 C   0  0  0  0  0  0  0  0  0  0  0  0
   -5.6073    2.6155    0.0000 C   0  0  0  0  0  0  0  0  0  0  0  0
   -4.6036    1.5008    0.0000 C   0  0  0  0  0  0  0  0  0  0  0  0
  1  2  1  0
  2  3  1  0
  3  4  2  0
  4  5  1  0
  5  6  2  0
  6  7  1  0
  7  8  2  0
  8  9  1  0
  9 10  1  0
 10 11  2  0
 11 12  1  0
 12 13  2  0
 13 14  1  0
 14 15  2  0
  9 16  1  0
 16 17  1  0
 17 18  1  0
 18 19  1  0
  6 20  1  0
 20 21  2  0
 20 22  1  0
 22 23  1  0
 23 24  2  0
  4 25  1  0
 25 26  2  0
 26 27  1  0
 27 28  2  0
 28 29  1  0
 29 30  2  0
 30  2  1  0
 23  5  1  0
 30 25  1  0
 15  7  1  0
 19  8  1  0
 15 10  1  0
M  END
>  <Compound_ID>  (12) 
CHEMBL100084

>  <Active>  (12) 
1

>  <Smiles>  (12) 
Cn1cc(C2=C(c3c4n(c5ccccc35)CCNC4)C(=O)NC2=O)c2ccccc21

>  <canonical_smi>  (12) 
Cn1cc(C2=C(c3c4n(c5ccccc35)CCNC4)C(=O)NC2=O)c2ccccc21

>  <Set>  (12) 
G1 active

>  <Set_type>  (12) 
G1

>  <MW>  (12) 
396.45

>  <HBD>  (12) 
2

>  <HBA>  (12) 
3

>  <NRB>  (12) 
2

>  <NR>  (12) 
6

>  <NAR>  (12) 
4

>  <PSA>  (12) 
68.06

>  <Standard Type>  (12) 
nan

>  <Standard Relation>  (12) 
nan

>  <Standard Units>  (12) 
nan

>  <Standard Value>  (12) 
nan

>  <Assay ChEMBL ID>  (12) 
nan

>  <Assay Description>  (12) 
nan

>  <BAO Label>  (12) 
nan

>  <bits>  (12) 
<rdkit.DataStructs.cDataStructs.ExplicitBitVect object at 0x00000210F8EB65E0>

>  <Group>  (12) 
G2

$$$$

     RDKit          2D

 42 50  0  0  0  0  0  0  0  0999 V2000
    6.4640   -1.9952    0.0000 C   0  0  0  0  0  0  0  0  0  0  0  0
    4.9655   -1.9279    0.0000 O   0  0  0  0  0  0  0  0  0  0  0  0
    4.1580   -3.1920    0.0000 C   0  0  0  0  0  0  0  0  0  0  0  0
    4.8489   -4.5234    0.0000 C   0  0  0  0  0  0  0  0  0  0  0  0
    6.3474   -4.5907    0.0000 N   0  0  0  0  0  0  0  0  0  0  0  0
    7.0384   -5.9220    0.0000 C   0  0  0  0  0  0  0  0  0  0  0  0
    7.1549   -3.3266    0.0000 C   0  0  0  0  0  0  0  0  0  0  0  0
    8.6534   -3.3939    0.0000 C   0  0  0  0  0  0  0  0  0  0  0  0
    9.3444   -4.7252    0.0000 C   0  0  0  0  0  0  0  0  0  0  0  0
   10.8429   -4.7925    0.0000 C   0  0  0  0  0  0  0  0  0  0  0  0
   11.6504   -3.5285    0.0000 C   0  0  0  0  0  0  0  0  0  0  0  0
   10.9594   -2.1971    0.0000 C   0  0  0  0  0  0  0  0  0  0  0  0
    9.4610   -2.1298    0.0000 C   0  0  0  0  0  0  0  0  0  0  0  0
    4.0414   -5.7874    0.0000 C   0  0  0  0  0  0  0  0  0  0  0  0
    2.5382   -5.8249    0.0000 C   0  0  0  0  0  0  0  0  0  0  0  0
    3.2490   -4.5040    0.0000 O   0  0  0  0  0  0  0  0  0  0  0  0
    2.6595   -3.1247    0.0000 C   0  0  0  0  0  0  0  0  0  0  0  0
    3.6464   -1.9951    0.0000 C   0  0  0  0  0  0  0  0  0  0  0  0
    1.2135   -2.7256    0.0000 N   0  0  0  0  0  0  0  0  0  0  0  0
    0.7500   -1.2990    0.0000 C   0  0  0  0  0  0  0  0  0  0  0  0
    1.5000    0.0000    0.0000 C   0  0  0  0  0  0  0  0  0  0  0  0
    0.7500    1.2990    0.0000 C   0  0  0  0  0  0  0  0  0  0  0  0
   -0.7500    1.2990    0.0000 C   0  0  0  0  0  0  0  0  0  0  0  0
   -1.5000    0.0000    0.0000 C   0  0  0  0  0  0  0  0  0  0  0  0
   -0.7500   -1.2990    0.0000 C   0  0  0  0  0  0  0  0  0  0  0  0
   -1.2135   -2.7256    0.0000 C   0  0  0  0  0  0  0  0  0  0  0  0
   -2.5518   -3.5691    0.0000 C   0  0  0  0  0  0  0  0  0  0  0  0
   -2.6191   -5.0676    0.0000 C   0  0  0  0  0  0  0  0  0  0  0  0
   -1.3550   -5.8751    0.0000 C   0  0  0  0  0  0  0  0  0  0  0  0
   -1.0212   -7.3375    0.0000 C   0  0  0  0  0  0  0  0  0  0  0  0
   -1.8846   -8.5641    0.0000 C   0  0  0  0  0  0  0  0  0  0  0  0
   -1.2541   -9.9251    0.0000 C   0  0  0  0  0  0  0  0  0  0  0  0
    0.2399  -10.0596    0.0000 C   0  0  0  0  0  0  0  0  0  0  0  0
    1.1033   -8.8330    0.0000 C   0  0  0  0  0  0  0  0  0  0  0  0
    0.4728   -7.4720    0.0000 C   0  0  0  0  0  0  0  0  0  0  0  0
    1.0623   -6.0927    0.0000 N   0  0  0  0  0  0  0  0  0  0  0  0
   -0.0673   -5.1058    0.0000 C   0  0  0  0  0  0  0  0  0  0  0  0
   -0.0000   -3.6073    0.0000 C   0  0  0  0  0  0  0  0  0  0  0  0
   -4.0650   -5.4667    0.0000 C   0  0  0  0  0  0  0  0  0  0  0  0
   -4.5921   -6.8710    0.0000 O   0  0  0  0  0  0  0  0  0  0  0  0
   -4.8913   -4.2148    0.0000 N   0  0  0  0  0  0  0  0  0  0  0  0
   -3.9561   -3.0421    0.0000 C   0  0  0  0  0  0  0  0  0  0  0  0
  1  2  1  0
  3  2  1  1
  3  4  1  0
  4  5  1  1
  5  6  1  0
  5  7  1  0
  7  8  1  0
  8  9  2  0
  9 10  1  0
 10 11  2  0
 11 12  1  0
 12 13  2  0
  4 14  1  0
 15 14  1  1
 15 16  1  0
 16 17  1  0
 17 18  1  6
 17 19  1  0
 19 20  1  0
 20 21  2  0
 21 22  1  0
 22 23  2  0
 23 24  1  0
 24 25  2  0
 25 26  1  0
 26 27  2  0
 27 28  1  0
 28 29  2  0
 29 30  1  0
 30 31  2  0
 31 32  1  0
 32 33  2  0
 33 34  1  0
 34 35  2  0
 35 36  1  0
 36 37  1  0
 37 38  2  0
 28 39  1  0
 39 40  2  0
 39 41  1  0
 41 42  1  0
 17  3  1  0
 38 19  1  0
 13  8  1  0
 36 15  1  0
 25 20  1  0
 38 26  1  0
 42 27  1  0
 37 29  1  0
 35 30  1  0
M  END
>  <Compound_ID>  (13) 
CHEMBL131193

>  <Active>  (13) 
1

>  <Smiles>  (13) 
CO[C@H]1[C@@H](N(C)Cc2ccccc2)C[C@@H]2O[C@@]1(C)n1c3ccccc3c3c4c(c5c6ccccc6n2c5c31)C(=O)NC4

>  <canonical_smi>  (13) 
CO[C@H]1[C@@H](N(C)Cc2ccccc2)C[C@@H]2O[C@@]1(C)n1c3ccccc3c3c4c(c5c6ccccc6n2c5c31)C(=O)NC4

>  <Set>  (13) 
G1 active

>  <Set_type>  (13) 
G1

>  <MW>  (13) 
556.67

>  <HBD>  (13) 
1

>  <HBA>  (13) 
4

>  <NRB>  (13) 
4

>  <NR>  (13) 
9

>  <NAR>  (13) 
6

>  <PSA>  (13) 
60.66

>  <Standard Type>  (13) 
nan

>  <Standard Relation>  (13) 
nan

>  <Standard Units>  (13) 
nan

>  <Standard Value>  (13) 
nan

>  <Assay ChEMBL ID>  (13) 
nan

>  <Assay Description>  (13) 
nan

>  <BAO Label>  (13) 
nan

>  <bits>  (13) 
<rdkit.DataStructs.cDataStructs.ExplicitBitVect object at 0x00000210F8EB5770>

>  <Group>  (13) 
G2

$$$$

     RDKit          2D

 27 30  0  0  0  0  0  0  0  0999 V2000
   -6.4937   -2.7256    0.0000 O   0  0  0  0  0  0  0  0  0  0  0  0
   -5.0672   -3.1891    0.0000 C   0  0  0  0  0  0  0  0  0  0  0  0
   -4.6036   -4.6157    0.0000 N   0  0  0  0  0  0  0  0  0  0  0  0
   -3.1036   -4.6157    0.0000 C   0  0  0  0  0  0  0  0  0  0  0  0
   -2.2220   -5.8293    0.0000 O   0  0  0  0  0  0  0  0  0  0  0  0
   -2.6401   -3.1891    0.0000 C   0  0  0  0  0  0  0  0  0  0  0  0
   -1.2135   -2.7256    0.0000 C   0  0  0  0  0  0  0  0  0  0  0  0
   -0.0000   -3.6073    0.0000 C   0  0  0  0  0  0  0  0  0  0  0  0
    1.2135   -2.7256    0.0000 N   0  0  0  0  0  0  0  0  0  0  0  0
    2.6401   -3.1891    0.0000 C   0  0  0  0  0  0  0  0  0  0  0  0
    2.9520   -4.6564    0.0000 C   0  0  0  0  0  0  0  0  0  0  0  0
    4.3786   -5.1199    0.0000 C   0  0  0  0  0  0  0  0  0  0  0  0
    4.6904   -6.5871    0.0000 O   0  0  0  0  0  0  0  0  0  0  0  0
    0.7500   -1.2990    0.0000 C   0  0  0  0  0  0  0  0  0  0  0  0
    1.5000    0.0000    0.0000 N   0  0  0  0  0  0  0  0  0  0  0  0
    0.7500    1.2990    0.0000 C   0  0  0  0  0  0  0  0  0  0  0  0
   -0.7500    1.2990    0.0000 C   0  0  0  0  0  0  0  0  0  0  0  0
   -1.5000    0.0000    0.0000 C   0  0  0  0  0  0  0  0  0  0  0  0
   -0.7500   -1.2990    0.0000 C   0  0  0  0  0  0  0  0  0  0  0  0
   -3.8536   -2.3075    0.0000 C   0  0  0  0  0  0  0  0  0  0  0  0
   -3.8536   -0.8075    0.0000 C   0  0  0  0  0  0  0  0  0  0  0  0
   -2.5546   -0.0575    0.0000 C   0  0  0  0  0  0  0  0  0  0  0  0
   -2.5546    1.4425    0.0000 C   0  0  0  0  0  0  0  0  0  0  0  0
   -3.8536    2.1925    0.0000 C   0  0  0  0  0  0  0  0  0  0  0  0
   -5.1527    1.4425    0.0000 C   0  0  0  0  0  0  0  0  0  0  0  0
   -5.1527   -0.0575    0.0000 C   0  0  0  0  0  0  0  0  0  0  0  0
   -6.4517   -0.8075    0.0000 Cl  0  0  0  0  0  0  0  0  0  0  0  0
  1  2  2  0
  2  3  1  0
  3  4  1  0
  4  5  2  0
  4  6  1  0
  6  7  1  0
  7  8  2  0
  8  9  1  0
  9 10  1  0
 10 11  1  0
 11 12  1  0
 12 13  1  0
  9 14  1  0
 14 15  2  0
 15 16  1  0
 16 17  2  0
 17 18  1  0
 18 19  2  0
  6 20  2  0
 20 21  1  0
 21 22  2  0
 22 23  1  0
 23 24  2  0
 24 25  1  0
 25 26  2  0
 26 27  1  0
 20  2  1  0
 26 21  1  0
 19  7  1  0
 19 14  1  0
M  END
>  <Compound_ID>  (14) 
CHEMBL326971

>  <Active>  (14) 
1

>  <Smiles>  (14) 
O=C1NC(=O)C(c2cn(CCCO)c3ncccc23)=C1c1ccccc1Cl

>  <canonical_smi>  (14) 
O=C1NC(=O)C(c2cn(CCCO)c3ncccc23)=C1c1ccccc1Cl

>  <Set>  (14) 
G1 active

>  <Set_type>  (14) 
G1

>  <MW>  (14) 
381.82

>  <HBD>  (14) 
2

>  <HBA>  (14) 
4

>  <NRB>  (14) 
5

>  <NR>  (14) 
4

>  <NAR>  (14) 
3

>  <PSA>  (14) 
84.22

>  <Standard Type>  (14) 
nan

>  <Standard Relation>  (14) 
nan

>  <Standard Units>  (14) 
nan

>  <Standard Value>  (14) 
nan

>  <Assay ChEMBL ID>  (14) 
nan

>  <Assay Description>  (14) 
nan

>  <BAO Label>  (14) 
nan

>  <bits>  (14) 
<rdkit.DataStructs.cDataStructs.ExplicitBitVect object at 0x00000210F8EB5BD0>

>  <Group>  (14) 
G2

$$$$

     RDKit          2D

 35 40  0  0  0  0  0  0  0  0999 V2000
   -7.3226    3.2658    0.0000 C   0  0  0  0  0  0  0  0  0  0  0  0
   -7.0990    1.7826    0.0000 C   0  0  0  0  0  0  0  0  0  0  0  0
   -8.2718    0.8473    0.0000 C   0  0  0  0  0  0  0  0  0  0  0  0
   -5.7027    1.2346    0.0000 O   0  0  0  0  0  0  0  0  0  0  0  0
   -5.4791   -0.2487    0.0000 C   0  0  0  0  0  0  0  0  0  0  0  0
   -6.6519   -1.1839    0.0000 O   0  0  0  0  0  0  0  0  0  0  0  0
   -4.0828   -0.7967    0.0000 N   0  0  0  0  0  0  0  0  0  0  0  0
   -3.9707   -2.2925    0.0000 C   0  0  0  0  0  0  0  0  0  0  0  0
   -2.7314   -3.1375    0.0000 C   0  0  0  0  0  0  0  0  0  0  0  0
   -1.2980   -2.6953    0.0000 N   0  0  0  0  0  0  0  0  0  0  0  0
   -0.1114   -3.6129    0.0000 C   0  0  0  0  0  0  0  0  0  0  0  0
    1.1280   -2.7680    0.0000 C   0  0  0  0  0  0  0  0  0  0  0  0
    2.5400   -3.2740    0.0000 C   0  0  0  0  0  0  0  0  0  0  0  0
    3.7794   -2.4290    0.0000 C   0  0  0  0  0  0  0  0  0  0  0  0
    3.8243   -0.9296    0.0000 C   0  0  0  0  0  0  0  0  0  0  0  0
    2.6377   -0.0121    0.0000 C   0  0  0  0  0  0  0  0  0  0  0  0
    3.1437    1.4000    0.0000 N   0  0  0  0  0  0  0  0  0  0  0  0
    4.6430    1.3552    0.0000 C   0  0  0  0  0  0  0  0  0  0  0  0
    5.6796    2.4393    0.0000 C   0  0  0  0  0  0  0  0  0  0  0  0
    7.1368    2.0837    0.0000 C   0  0  0  0  0  0  0  0  0  0  0  0
    7.5575    0.6439    0.0000 C   0  0  0  0  0  0  0  0  0  0  0  0
    6.5209   -0.4403    0.0000 C   0  0  0  0  0  0  0  0  0  0  0  0
    5.0636   -0.0847    0.0000 N   0  0  0  0  0  0  0  0  0  0  0  0
    4.9660   -3.3466    0.0000 C   0  0  0  0  0  0  0  0  0  0  0  0
    6.4058   -2.9259    0.0000 O   0  0  0  0  0  0  0  0  0  0  0  0
    4.4600   -4.7586    0.0000 N   0  0  0  0  0  0  0  0  0  0  0  0
    2.9607   -4.7138    0.0000 C   0  0  0  0  0  0  0  0  0  0  0  0
    2.0431   -5.9004    0.0000 O   0  0  0  0  0  0  0  0  0  0  0  0
    0.7500   -1.2990    0.0000 C   0  0  0  0  0  0  0  0  0  0  0  0
    1.5000    0.0000    0.0000 C   0  0  0  0  0  0  0  0  0  0  0  0
    0.7500    1.2990    0.0000 C   0  0  0  0  0  0  0  0  0  0  0  0
   -0.7500    1.2990    0.0000 C   0  0  0  0  0  0  0  0  0  0  0  0
   -1.5000    0.0000    0.0000 C   0  0  0  0  0  0  0  0  0  0  0  0
   -0.7500   -1.2990    0.0000 C   0  0  0  0  0  0  0  0  0  0  0  0
   -2.9832    0.2236    0.0000 C   0  0  0  0  0  0  0  0  0  0  0  0
  1  2  1  0
  2  3  1  0
  2  4  1  0
  4  5  1  0
  5  6  2  0
  5  7  1  0
  7  8  1  0
  8  9  1  0
  9 10  1  0
 10 11  1  0
 11 12  2  0
 12 13  1  0
 13 14  2  0
 14 15  1  0
 15 16  2  0
 16 17  1  0
 17 18  2  0
 18 19  1  0
 19 20  2  0
 20 21  1  0
 21 22  2  0
 22 23  1  0
 14 24  1  0
 24 25  2  0
 24 26  1  0
 26 27  1  0
 27 28  2  0
 12 29  1  0
 29 30  2  0
 30 31  1  0
 31 32  2  0
 32 33  1  0
 33 34  2  0
 33 35  1  0
 35  7  1  0
 34 10  1  0
 27 13  1  0
 34 29  1  0
 23 15  1  0
 23 18  1  0
M  END
>  <Compound_ID>  (15) 
CHEMBL363058

>  <Active>  (15) 
1

>  <Smiles>  (15) 
CC(C)OC(=O)N1CCn2cc(C3=C(c4cnc5ccccn45)C(=O)NC3=O)c3cccc(c32)C1

>  <canonical_smi>  (15) 
CC(C)OC(=O)N1CCn2cc(C3=C(c4cnc5ccccn45)C(=O)NC3=O)c3cccc(c32)C1

>  <Set>  (15) 
G1 active

>  <Set_type>  (15) 
G1

>  <MW>  (15) 
469.5

>  <HBD>  (15) 
1

>  <HBA>  (15) 
5

>  <NRB>  (15) 
3

>  <NR>  (15) 
6

>  <NAR>  (15) 
4

>  <PSA>  (15) 
97.94

>  <Standard Type>  (15) 
nan

>  <Standard Relation>  (15) 
nan

>  <Standard Units>  (15) 
nan

>  <Standard Value>  (15) 
nan

>  <Assay ChEMBL ID>  (15) 
nan

>  <Assay Description>  (15) 
nan

>  <BAO Label>  (15) 
nan

>  <bits>  (15) 
<rdkit.DataStructs.cDataStructs.ExplicitBitVect object at 0x00000210F8EB5FC0>

>  <Group>  (15) 
G2

$$$$

     RDKit          2D

 36 41  0  0  0  0  0  0  0  0999 V2000
   -3.5736    1.2902    0.0000 C   0  0  0  0  0  0  0  0  0  0  0  0
   -2.1470    1.7537    0.0000 C   0  0  0  0  0  0  0  0  0  0  0  0
   -1.8351    3.2209    0.0000 C   0  0  0  0  0  0  0  0  0  0  0  0
   -2.9499    4.2246    0.0000 N   0  0  0  0  0  0  0  0  0  0  0  0
   -2.6380    5.6918    0.0000 C   0  0  0  0  0  0  0  0  0  0  0  0
   -1.2114    6.1554    0.0000 C   0  0  0  0  0  0  0  0  0  0  0  0
   -0.0967    5.1517    0.0000 C   0  0  0  0  0  0  0  0  0  0  0  0
    1.0180    4.1480    0.0000 N   0  0  0  0  0  0  0  0  0  0  0  0
   -0.8995    7.6226    0.0000 C   0  0  0  0  0  0  0  0  0  0  0  0
   -2.0143    8.6263    0.0000 N   0  0  0  0  0  0  0  0  0  0  0  0
   -3.4408    8.1628    0.0000 C   0  0  0  0  0  0  0  0  0  0  0  0
   -3.7527    6.6955    0.0000 C   0  0  0  0  0  0  0  0  0  0  0  0
   -5.1793    6.2320    0.0000 C   0  0  0  0  0  0  0  0  0  0  0  0
   -6.3928    7.1137    0.0000 C   0  0  0  0  0  0  0  0  0  0  0  0
   -7.6063    6.2320    0.0000 C   0  0  0  0  0  0  0  0  0  0  0  0
   -9.0736    6.5439    0.0000 C   0  0  0  0  0  0  0  0  0  0  0  0
  -10.0773    5.4292    0.0000 C   0  0  0  0  0  0  0  0  0  0  0  0
  -11.5445    5.7410    0.0000 C   0  0  0  0  0  0  0  0  0  0  0  0
  -12.0080    7.1676    0.0000 N   0  0  0  0  0  0  0  0  0  0  0  0
  -11.0043    8.2823    0.0000 C   0  0  0  0  0  0  0  0  0  0  0  0
  -11.4678    9.7089    0.0000 C   0  0  0  0  0  0  0  0  0  0  0  0
  -12.9351   10.0208    0.0000 N   0  0  0  0  0  0  0  0  0  0  0  0
  -13.3986   11.4474    0.0000 C   0  0  0  0  0  0  0  0  0  0  0  0
  -13.9387    8.9061    0.0000 C   0  0  0  0  0  0  0  0  0  0  0  0
  -13.4752    7.4795    0.0000 C   0  0  0  0  0  0  0  0  0  0  0  0
   -9.6137    4.0026    0.0000 C   0  0  0  0  0  0  0  0  0  0  0  0
   -8.1465    3.6907    0.0000 C   0  0  0  0  0  0  0  0  0  0  0  0
   -7.1428    4.8054    0.0000 C   0  0  0  0  0  0  0  0  0  0  0  0
   -5.6428    4.8054    0.0000 O   0  0  0  0  0  0  0  0  0  0  0  0
   -0.4086    3.6844    0.0000 C   0  0  0  0  0  0  0  0  0  0  0  0
    0.7062    2.6807    0.0000 C   0  0  0  0  0  0  0  0  0  0  0  0
    0.3943    1.2135    0.0000 C   0  0  0  0  0  0  0  0  0  0  0  0
    1.2760    0.0000    0.0000 N   0  0  0  0  0  0  0  0  0  0  0  0
    0.3943   -1.2135    0.0000 C   0  0  0  0  0  0  0  0  0  0  0  0
   -1.0323   -0.7500    0.0000 C   0  0  0  0  0  0  0  0  0  0  0  0
   -1.0323    0.7500    0.0000 C   0  0  0  0  0  0  0  0  0  0  0  0
  1  2  1  0
  2  3  2  0
  3  4  1  0
  4  5  1  0
  5  6  2  0
  6  7  1  0
  7  8  3  0
  6  9  1  0
  9 10  2  0
 10 11  1  0
 11 12  2  0
 12 13  1  0
 13 14  2  0
 14 15  1  0
 15 16  2  0
 16 17  1  0
 17 18  1  0
 18 19  1  0
 19 20  1  0
 20 21  1  0
 21 22  1  0
 22 23  1  0
 22 24  1  0
 24 25  1  0
 17 26  2  0
 26 27  1  0
 27 28  2  0
 28 29  1  0
  3 30  1  0
 30 31  2  0
 31 32  1  0
 32 33  1  0
 33 34  1  0
 34 35  2  0
 35 36  1  0
 36  2  1  0
 12  5  1  0
 29 13  1  0
 36 32  2  0
 28 15  1  0
 25 19  1  0
M  END
>  <Compound_ID>  (16) 
CHEMBL571581

>  <Active>  (16) 
1

>  <Smiles>  (16) 
Cc1c(Nc2c(C#N)cncc2-c2cc3cc(CN4CCN(C)CC4)ccc3o2)ccc2[nH]ccc12

>  <canonical_smi>  (16) 
Cc1c(Nc2c(C#N)cncc2-c2cc3cc(CN4CCN(C)CC4)ccc3o2)ccc2[nH]ccc12

>  <Set>  (16) 
G1 active

>  <Set_type>  (16) 
G1

>  <MW>  (16) 
476.58

>  <HBD>  (16) 
2

>  <HBA>  (16) 
6

>  <NRB>  (16) 
5

>  <NR>  (16) 
6

>  <NAR>  (16) 
5

>  <PSA>  (16) 
84.12

>  <Standard Type>  (16) 
nan

>  <Standard Relation>  (16) 
nan

>  <Standard Units>  (16) 
nan

>  <Standard Value>  (16) 
nan

>  <Assay ChEMBL ID>  (16) 
nan

>  <Assay Description>  (16) 
nan

>  <BAO Label>  (16) 
nan

>  <bits>  (16) 
<rdkit.DataStructs.cDataStructs.ExplicitBitVect object at 0x00000210F8EB6490>

>  <Group>  (16) 
G2

$$$$

     RDKit          2D

 35 42  0  0  0  0  0  0  0  0999 V2000
    7.0384   -5.9220    0.0000 C   0  0  0  0  0  0  0  0  0  0  0  0
    6.3474   -4.5907    0.0000 N   0  0  0  0  0  0  0  0  0  0  0  0
    4.8489   -4.5234    0.0000 C   0  0  0  0  0  0  0  0  0  0  0  0
    4.0414   -5.7874    0.0000 C   0  0  0  0  0  0  0  0  0  0  0  0
    2.5382   -5.8249    0.0000 C   0  0  0  0  0  0  0  0  0  0  0  0
    3.2490   -4.5040    0.0000 O   0  0  0  0  0  0  0  0  0  0  0  0
    2.6595   -3.1247    0.0000 C   0  0  0  0  0  0  0  0  0  0  0  0
    3.6464   -1.9951    0.0000 C   0  0  0  0  0  0  0  0  0  0  0  0
    4.1580   -3.1920    0.0000 C   0  0  0  0  0  0  0  0  0  0  0  0
    4.9655   -1.9279    0.0000 O   0  0  0  0  0  0  0  0  0  0  0  0
    6.4640   -1.9952    0.0000 C   0  0  0  0  0  0  0  0  0  0  0  0
    1.2135   -2.7256    0.0000 N   0  0  0  0  0  0  0  0  0  0  0  0
    0.7500   -1.2990    0.0000 C   0  0  0  0  0  0  0  0  0  0  0  0
    1.5000    0.0000    0.0000 C   0  0  0  0  0  0  0  0  0  0  0  0
    0.7500    1.2990    0.0000 C   0  0  0  0  0  0  0  0  0  0  0  0
   -0.7500    1.2990    0.0000 C   0  0  0  0  0  0  0  0  0  0  0  0
   -1.5000    0.0000    0.0000 C   0  0  0  0  0  0  0  0  0  0  0  0
   -0.7500   -1.2990    0.0000 C   0  0  0  0  0  0  0  0  0  0  0  0
   -1.2135   -2.7256    0.0000 C   0  0  0  0  0  0  0  0  0  0  0  0
   -2.5518   -3.5691    0.0000 C   0  0  0  0  0  0  0  0  0  0  0  0
   -2.6191   -5.0676    0.0000 C   0  0  0  0  0  0  0  0  0  0  0  0
   -1.3550   -5.8751    0.0000 C   0  0  0  0  0  0  0  0  0  0  0  0
   -1.0212   -7.3375    0.0000 C   0  0  0  0  0  0  0  0  0  0  0  0
   -1.8846   -8.5641    0.0000 C   0  0  0  0  0  0  0  0  0  0  0  0
   -1.2541   -9.9251    0.0000 C   0  0  0  0  0  0  0  0  0  0  0  0
    0.2399  -10.0596    0.0000 C   0  0  0  0  0  0  0  0  0  0  0  0
    1.1033   -8.8330    0.0000 C   0  0  0  0  0  0  0  0  0  0  0  0
    0.4728   -7.4720    0.0000 C   0  0  0  0  0  0  0  0  0  0  0  0
    1.0623   -6.0927    0.0000 N   0  0  0  0  0  0  0  0  0  0  0  0
   -0.0673   -5.1058    0.0000 C   0  0  0  0  0  0  0  0  0  0  0  0
   -0.0000   -3.6073    0.0000 C   0  0  0  0  0  0  0  0  0  0  0  0
   -4.0650   -5.4667    0.0000 C   0  0  0  0  0  0  0  0  0  0  0  0
   -4.5921   -6.8710    0.0000 O   0  0  0  0  0  0  0  0  0  0  0  0
   -4.8913   -4.2148    0.0000 N   0  0  0  0  0  0  0  0  0  0  0  0
   -3.9561   -3.0421    0.0000 C   0  0  0  0  0  0  0  0  0  0  0  0
  1  2  1  0
  3  2  1  6
  3  4  1  0
  4  5  1  0
  5  6  1  0
  6  7  1  0
  7  8  1  1
  7  9  1  0
  9 10  1  6
 10 11  1  0
  7 12  1  0
 12 13  1  0
 13 14  2  0
 14 15  1  0
 15 16  2  0
 16 17  1  0
 17 18  2  0
 18 19  1  0
 19 20  2  0
 20 21  1  0
 21 22  2  0
 22 23  1  0
 23 24  2  0
 24 25  1  0
 25 26  2  0
 26 27  1  0
 27 28  2  0
 28 29  1  0
 29 30  1  0
 30 31  2  0
 21 32  1  0
 32 33  2  0
 32 34  1  0
 34 35  1  0
  9  3  1  0
 31 12  1  0
 29  5  1  0
 18 13  1  0
 31 19  1  0
 35 20  1  0
 30 22  1  0
 28 23  1  0
M  END
>  <Compound_ID>  (17) 
CHEMBL162

>  <Active>  (17) 
1

>  <Smiles>  (17) 
CN[C@@H]1CC2O[C@@](C)([C@@H]1OC)n1c3ccccc3c3c4c(c5c6ccccc6n2c5c31)C(=O)NC4

>  <canonical_smi>  (17) 
CN[C@@H]1CC2O[C@@](C)([C@@H]1OC)n1c3ccccc3c3c4c(c5c6ccccc6n2c5c31)C(=O)NC4

>  <Set>  (17) 
G2 active

>  <Set_type>  (17) 
Train

>  <MW>  (17) 
466.54

>  <HBD>  (17) 
2

>  <HBA>  (17) 
4

>  <NRB>  (17) 
2

>  <NR>  (17) 
8

>  <NAR>  (17) 
5

>  <PSA>  (17) 
69.45

>  <Standard Type>  (17) 
nan

>  <Standard Relation>  (17) 
nan

>  <Standard Units>  (17) 
nan

>  <Standard Value>  (17) 
nan

>  <Assay ChEMBL ID>  (17) 
nan

>  <Assay Description>  (17) 
nan

>  <BAO Label>  (17) 
nan

>  <bits>  (17) 
<rdkit.DataStructs.cDataStructs.ExplicitBitVect object at 0x00000210F8EB7CA0>

>  <Group>  (17) 
G2

$$$$

     RDKit          2D

 39 42  0  0  0  0  0  0  0  0999 V2000
    4.6740   -7.4303    0.0000 N   0  0  0  0  0  0  0  0  0  0  0  0
    3.3037   -6.8202    0.0000 C   0  0  0  0  0  0  0  0  0  0  0  0
    2.9918   -5.3529    0.0000 C   0  0  0  0  0  0  0  0  0  0  0  0
    1.5000   -5.1962    0.0000 C   0  0  0  0  0  0  0  0  0  0  0  0
    0.7500   -3.8971    0.0000 N   0  0  0  0  0  0  0  0  0  0  0  0
    1.5000   -2.5981    0.0000 C   0  0  0  0  0  0  0  0  0  0  0  0
    3.0000   -2.5981    0.0000 O   0  0  0  0  0  0  0  0  0  0  0  0
    0.7500   -1.2990    0.0000 C   0  0  0  0  0  0  0  0  0  0  0  0
    1.5000    0.0000    0.0000 C   0  0  0  0  0  0  0  0  0  0  0  0
    0.7500    1.2990    0.0000 C   0  0  0  0  0  0  0  0  0  0  0  0
   -0.7500    1.2990    0.0000 C   0  0  0  0  0  0  0  0  0  0  0  0
   -1.5000    2.5981    0.0000 O   0  0  0  0  0  0  0  0  0  0  0  0
   -1.5000    0.0000    0.0000 C   0  0  0  0  0  0  0  0  0  0  0  0
   -0.7500   -1.2990    0.0000 C   0  0  0  0  0  0  0  0  0  0  0  0
    0.8899   -6.5665    0.0000 C   0  0  0  0  0  0  0  0  0  0  0  0
   -0.5773   -6.8783    0.0000 O   0  0  0  0  0  0  0  0  0  0  0  0
   -1.0409   -8.3049    0.0000 C   0  0  0  0  0  0  0  0  0  0  0  0
   -0.0372   -9.4196    0.0000 O   0  0  0  0  0  0  0  0  0  0  0  0
   -2.5081   -8.6168    0.0000 C   0  0  0  0  0  0  0  0  0  0  0  0
   -3.5118   -7.5021    0.0000 C   0  0  0  0  0  0  0  0  0  0  0  0
   -4.9790   -7.8139    0.0000 C   0  0  0  0  0  0  0  0  0  0  0  0
   -5.9827   -6.6992    0.0000 O   0  0  0  0  0  0  0  0  0  0  0  0
   -5.4425   -9.2405    0.0000 C   0  0  0  0  0  0  0  0  0  0  0  0
   -6.9097   -9.5524    0.0000 C   0  0  0  0  0  0  0  0  0  0  0  0
   -7.9134   -8.4377    0.0000 O   0  0  0  0  0  0  0  0  0  0  0  0
   -7.3733  -10.9790    0.0000 C   0  0  0  0  0  0  0  0  0  0  0  0
   -6.3696  -12.0937    0.0000 C   0  0  0  0  0  0  0  0  0  0  0  0
   -5.3892  -12.0079    0.0000 O   0  0  0  0  0  0  0  0  0  0  0  0
   -6.8331  -13.5203    0.0000 C   0  0  0  0  0  0  0  0  0  0  0  0
   -8.3003  -13.8321    0.0000 C   0  0  0  0  0  0  0  0  0  0  0  0
   -9.3040  -12.7174    0.0000 C   0  0  0  0  0  0  0  0  0  0  0  0
   -8.8405  -11.2908    0.0000 C   0  0  0  0  0  0  0  0  0  0  0  0
   -9.8442  -10.1761    0.0000 C   0  0  0  0  0  0  0  0  0  0  0  0
   -9.3807   -8.7495    0.0000 O   0  0  0  0  0  0  0  0  0  0  0  0
  -11.3114  -10.4880    0.0000 O   0  0  0  0  0  0  0  0  0  0  0  0
   -4.4388  -10.3552    0.0000 C   0  0  0  0  0  0  0  0  0  0  0  0
   -4.6266  -11.3213    0.0000 O   0  0  0  0  0  0  0  0  0  0  0  0
   -2.9716  -10.0434    0.0000 C   0  0  0  0  0  0  0  0  0  0  0  0
    2.0046   -7.5702    0.0000 C   0  0  0  0  0  0  0  0  0  0  0  0
  2  1  1  1
  2  3  1  0
  3  4  1  0
  4  5  1  6
  5  6  1  0
  6  7  2  0
  6  8  1  0
  8  9  2  0
  9 10  1  0
 10 11  2  0
 11 12  1  0
 11 13  1  0
 13 14  2  0
  4 15  1  0
 15 16  1  1
 16 17  1  0
 17 18  2  0
 17 19  1  0
 19 20  2  0
 20 21  1  0
 21 22  1  0
 21 23  2  0
 23 24  1  0
 24 25  2  0
 24 26  1  0
 26 27  2  0
 27 28  1  0
 27 29  1  0
 29 30  2  0
 30 31  1  0
 31 32  2  0
 32 33  1  0
 33 34  2  0
 33 35  1  0
 23 36  1  0
 36 37  1  0
 36 38  2  0
 15 39  1  0
 39  2  1  0
 14  8  1  0
 38 19  1  0
 32 26  1  0
M  END
>  <Compound_ID>  (18) 
CHEMBL432168

>  <Active>  (18) 
1

>  <Smiles>  (18) 
N[C@@H]1C[C@@H](NC(=O)c2ccc(O)cc2)[C@H](OC(=O)c2cc(O)c(C(=O)c3c(O)cccc3C(=O)O)c(O)c2)C1

>  <canonical_smi>  (18) 
N[C@@H]1C[C@@H](NC(=O)c2ccc(O)cc2)[C@H](OC(=O)c2cc(O)c(C(=O)c3c(O)cccc3C(=O)O)c(O)c2)C1

>  <Set>  (18) 
G2 active

>  <Set_type>  (18) 
Train

>  <MW>  (18) 
536.49

>  <HBD>  (18) 
7

>  <HBA>  (18) 
11

>  <NRB>  (18) 
7

>  <NR>  (18) 
4

>  <NAR>  (18) 
3

>  <PSA>  (18) 
216.71

>  <Standard Type>  (18) 
nan

>  <Standard Relation>  (18) 
nan

>  <Standard Units>  (18) 
nan

>  <Standard Value>  (18) 
nan

>  <Assay ChEMBL ID>  (18) 
nan

>  <Assay Description>  (18) 
nan

>  <BAO Label>  (18) 
nan

>  <bits>  (18) 
<rdkit.DataStructs.cDataStructs.ExplicitBitVect object at 0x00000210F8EB4040>

>  <Group>  (18) 
G2

$$$$

     RDKit          2D

 30 36  0  0  0  0  0  0  0  0999 V2000
    4.2660   -1.2584    0.0000 O   0  0  0  0  0  0  0  0  0  0  0  0
    3.9542   -2.7256    0.0000 C   0  0  0  0  0  0  0  0  0  0  0  0
    4.9579   -3.8403    0.0000 N   0  0  0  0  0  0  0  0  0  0  0  0
    4.2079   -5.1394    0.0000 C   0  0  0  0  0  0  0  0  0  0  0  0
    4.8180   -6.5097    0.0000 O   0  0  0  0  0  0  0  0  0  0  0  0
    2.7406   -4.8275    0.0000 C   0  0  0  0  0  0  0  0  0  0  0  0
    2.5838   -3.3357    0.0000 C   0  0  0  0  0  0  0  0  0  0  0  0
    1.2135   -2.7256    0.0000 C   0  0  0  0  0  0  0  0  0  0  0  0
    0.7500   -1.2990    0.0000 C   0  0  0  0  0  0  0  0  0  0  0  0
    1.5000    0.0000    0.0000 C   0  0  0  0  0  0  0  0  0  0  0  0
    0.7500    1.2990    0.0000 C   0  0  0  0  0  0  0  0  0  0  0  0
   -0.7500    1.2990    0.0000 C   0  0  0  0  0  0  0  0  0  0  0  0
   -1.5000    0.0000    0.0000 C   0  0  0  0  0  0  0  0  0  0  0  0
   -0.7500   -1.2990    0.0000 C   0  0  0  0  0  0  0  0  0  0  0  0
   -1.2135   -2.7256    0.0000 N   0  0  0  0  0  0  0  0  0  0  0  0
    0.0000   -3.6073    0.0000 C   0  0  0  0  0  0  0  0  0  0  0  0
    0.1568   -5.0991    0.0000 C   0  0  0  0  0  0  0  0  0  0  0  0
    1.5271   -5.7092    0.0000 C   0  0  0  0  0  0  0  0  0  0  0  0
    1.3703   -7.2010    0.0000 C   0  0  0  0  0  0  0  0  0  0  0  0
    2.3740   -8.3157    0.0000 C   0  0  0  0  0  0  0  0  0  0  0  0
    1.9105   -9.7423    0.0000 C   0  0  0  0  0  0  0  0  0  0  0  0
    0.4433  -10.0541    0.0000 C   0  0  0  0  0  0  0  0  0  0  0  0
   -0.5604   -8.9394    0.0000 C   0  0  0  0  0  0  0  0  0  0  0  0
   -0.0969   -7.5128    0.0000 C   0  0  0  0  0  0  0  0  0  0  0  0
   -0.8469   -6.2138    0.0000 N   0  0  0  0  0  0  0  0  0  0  0  0
   -2.3362   -6.0347    0.0000 C   0  0  0  0  0  0  0  0  0  0  0  0
   -3.1247   -4.7587    0.0000 S   0  0  0  0  0  0  0  0  0  0  0  0
   -4.1933   -5.8114    0.0000 O   0  0  0  0  0  0  0  0  0  0  0  0
   -4.3888   -3.9512    0.0000 O   0  0  0  0  0  0  0  0  0  0  0  0
   -2.6187   -3.3466    0.0000 C   0  0  0  0  0  0  0  0  0  0  0  0
  1  2  2  0
  2  3  1  0
  3  4  1  0
  4  5  2  0
  4  6  1  0
  6  7  2  0
  7  8  1  0
  8  9  1  0
  9 10  2  0
 10 11  1  0
 11 12  2  0
 12 13  1  0
 13 14  2  0
 14 15  1  0
 15 16  1  0
 16 17  1  0
 17 18  2  0
 18 19  1  0
 19 20  2  0
 20 21  1  0
 21 22  2  0
 22 23  1  0
 23 24  2  0
 24 25  1  0
 25 26  1  0
 26 27  1  0
 27 28  2  0
 27 29  2  0
 27 30  1  0
  7  2  1  0
 16  8  2  0
 25 17  1  0
 18  6  1  0
 24 19  1  0
 14  9  1  0
 30 15  1  0
M  END
>  <Compound_ID>  (19) 
CHEMBL283259

>  <Active>  (19) 
1

>  <Smiles>  (19) 
O=C1NC(=O)c2c1c1c3ccccc3n3c1c1c2c2ccccc2n1CS(=O)(=O)C3

>  <canonical_smi>  (19) 
O=C1NC(=O)c2c1c1c3ccccc3n3c1c1c2c2ccccc2n1CS(=O)(=O)C3

>  <Set>  (19) 
G2 active

>  <Set_type>  (19) 
Train

>  <MW>  (19) 
415.43

>  <HBD>  (19) 
1

>  <HBA>  (19) 
4

>  <NRB>  (19) 
0

>  <NR>  (19) 
7

>  <NAR>  (19) 
5

>  <PSA>  (19) 
90.17

>  <Standard Type>  (19) 
nan

>  <Standard Relation>  (19) 
nan

>  <Standard Units>  (19) 
nan

>  <Standard Value>  (19) 
nan

>  <Assay ChEMBL ID>  (19) 
nan

>  <Assay Description>  (19) 
nan

>  <BAO Label>  (19) 
nan

>  <bits>  (19) 
<rdkit.DataStructs.cDataStructs.ExplicitBitVect object at 0x00000210F8EB4190>

>  <Group>  (19) 
G2

$$$$

     RDKit          2D

 36 39  0  0  0  0  0  0  0  0999 V2000
    2.2872   -8.1206    0.0000 O   0  0  0  0  0  0  0  0  0  0  0  0
    3.2909   -7.0059    0.0000 C   0  0  0  0  0  0  0  0  0  0  0  0
    2.8273   -5.5793    0.0000 O   0  0  0  0  0  0  0  0  0  0  0  0
    1.3601   -5.2674    0.0000 C   0  0  0  0  0  0  0  0  0  0  0  0
    0.2454   -6.2711    0.0000 C   0  0  0  0  0  0  0  0  0  0  0  0
   -1.0537   -5.5211    0.0000 C   0  0  0  0  0  0  0  0  0  0  0  0
   -0.7418   -4.0539    0.0000 C   0  0  0  0  0  0  0  0  0  0  0  0
    0.7500   -3.8971    0.0000 C   0  0  0  0  0  0  0  0  0  0  0  0
    1.5000   -2.5981    0.0000 C   0  0  0  0  0  0  0  0  0  0  0  0
    0.7500   -1.2990    0.0000 C   0  0  0  0  0  0  0  0  0  0  0  0
    1.5000    0.0000    0.0000 C   0  0  0  0  0  0  0  0  0  0  0  0
    0.7500    1.2990    0.0000 C   0  0  0  0  0  0  0  0  0  0  0  0
   -0.7500    1.2990    0.0000 C   0  0  0  0  0  0  0  0  0  0  0  0
   -1.5000    2.5981    0.0000 O   0  0  0  0  0  0  0  0  0  0  0  0
   -1.5000    0.0000    0.0000 C   0  0  0  0  0  0  0  0  0  0  0  0
   -0.7500   -1.2990    0.0000 C   0  0  0  0  0  0  0  0  0  0  0  0
    4.7581   -7.3178    0.0000 C   0  0  0  0  0  0  0  0  0  0  0  0
    5.2216   -8.7443    0.0000 C   0  0  0  0  0  0  0  0  0  0  0  0
    6.6888   -9.0562    0.0000 C   0  0  0  0  0  0  0  0  0  0  0  0
    6.8766  -10.0223    0.0000 O   0  0  0  0  0  0  0  0  0  0  0  0
    7.6925   -7.9415    0.0000 C   0  0  0  0  0  0  0  0  0  0  0  0
    9.1597   -8.2534    0.0000 C   0  0  0  0  0  0  0  0  0  0  0  0
   10.1634   -7.1386    0.0000 O   0  0  0  0  0  0  0  0  0  0  0  0
    9.6233   -9.6799    0.0000 C   0  0  0  0  0  0  0  0  0  0  0  0
    8.6196  -10.7947    0.0000 C   0  0  0  0  0  0  0  0  0  0  0  0
    7.6392  -10.7089    0.0000 O   0  0  0  0  0  0  0  0  0  0  0  0
    9.0831  -12.2212    0.0000 C   0  0  0  0  0  0  0  0  0  0  0  0
   10.5503  -12.5331    0.0000 C   0  0  0  0  0  0  0  0  0  0  0  0
   11.5540  -11.4184    0.0000 C   0  0  0  0  0  0  0  0  0  0  0  0
   11.0905   -9.9918    0.0000 C   0  0  0  0  0  0  0  0  0  0  0  0
   12.0942   -8.8771    0.0000 C   0  0  0  0  0  0  0  0  0  0  0  0
   11.6307   -7.4505    0.0000 O   0  0  0  0  0  0  0  0  0  0  0  0
   13.5614   -9.1890    0.0000 O   0  0  0  0  0  0  0  0  0  0  0  0
    7.2290   -6.5149    0.0000 C   0  0  0  0  0  0  0  0  0  0  0  0
    8.2327   -5.4002    0.0000 O   0  0  0  0  0  0  0  0  0  0  0  0
    5.7618   -6.2030    0.0000 C   0  0  0  0  0  0  0  0  0  0  0  0
  1  2  2  0
  2  3  1  0
  3  4  1  0
  4  5  1  0
  5  6  1  0
  6  7  1  0
  7  8  1  0
  8  9  1  0
  9 10  1  0
 10 11  2  0
 11 12  1  0
 12 13  2  0
 13 14  1  0
 13 15  1  0
 15 16  2  0
  2 17  1  0
 17 18  2  0
 18 19  1  0
 19 20  1  0
 19 21  2  0
 21 22  1  0
 22 23  2  0
 22 24  1  0
 24 25  2  0
 25 26  1  0
 25 27  1  0
 27 28  2  0
 28 29  1  0
 29 30  2  0
 30 31  1  0
 31 32  2  0
 31 33  1  0
 21 34  1  0
 34 35  1  0
 34 36  2  0
  8  4  1  0
 16 10  1  0
 36 17  1  0
 30 24  1  0
M  END
>  <Compound_ID>  (20) 
CHEMBL295806

>  <Active>  (20) 
1

>  <Smiles>  (20) 
O=C(OC1CCCC1Cc1ccc(O)cc1)c1cc(O)c(C(=O)c2c(O)cccc2C(=O)O)c(O)c1

>  <canonical_smi>  (20) 
O=C(OC1CCCC1Cc1ccc(O)cc1)c1cc(O)c(C(=O)c2c(O)cccc2C(=O)O)c(O)c1

>  <Set>  (20) 
G2 active

>  <Set_type>  (20) 
Train

>  <MW>  (20) 
492.48

>  <HBD>  (20) 
5

>  <HBA>  (20) 
9

>  <NRB>  (20) 
7

>  <NR>  (20) 
4

>  <NAR>  (20) 
3

>  <PSA>  (20) 
161.59

>  <Standard Type>  (20) 
nan

>  <Standard Relation>  (20) 
nan

>  <Standard Units>  (20) 
nan

>  <Standard Value>  (20) 
nan

>  <Assay ChEMBL ID>  (20) 
nan

>  <Assay Description>  (20) 
nan

>  <BAO Label>  (20) 
nan

>  <bits>  (20) 
<rdkit.DataStructs.cDataStructs.ExplicitBitVect object at 0x00000210F8EB5070>

>  <Group>  (20) 
G2

$$$$

     RDKit          2D

 41 47  0  0  0  0  0  0  0  0999 V2000
   -0.3752    1.0826    0.0000 C   0  0  0  0  0  0  0  0  0  0  0  0
   -1.1252   -0.2164    0.0000 N   0  0  0  0  0  0  0  0  0  0  0  0
   -0.3752   -1.5154    0.0000 C   0  0  0  0  0  0  0  0  0  0  0  0
   -2.6252   -0.2164    0.0000 C   0  0  0  0  0  0  0  0  0  0  0  0
   -3.3752   -1.5154    0.0000 C   0  0  0  0  0  0  0  0  0  0  0  0
   -4.8752   -1.5154    0.0000 C   0  0  0  0  0  0  0  0  0  0  0  0
   -5.6252   -2.8145    0.0000 N   0  0  0  0  0  0  0  0  0  0  0  0
   -5.0151   -4.1848    0.0000 N   0  0  0  0  0  0  0  0  0  0  0  0
   -6.1298   -5.1885    0.0000 C   0  0  0  0  0  0  0  0  0  0  0  0
   -5.9730   -6.6803    0.0000 C   0  0  0  0  0  0  0  0  0  0  0  0
   -4.6740   -7.4303    0.0000 C   0  0  0  0  0  0  0  0  0  0  0  0
   -3.3037   -6.8202    0.0000 C   0  0  0  0  0  0  0  0  0  0  0  0
   -2.0046   -7.5702    0.0000 C   0  0  0  0  0  0  0  0  0  0  0  0
   -0.8899   -6.5665    0.0000 N   0  0  0  0  0  0  0  0  0  0  0  0
    0.5773   -6.8783    0.0000 C   0  0  0  0  0  0  0  0  0  0  0  0
    1.0409   -8.3049    0.0000 C   0  0  0  0  0  0  0  0  0  0  0  0
    2.5081   -8.6168    0.0000 N   0  0  0  0  0  0  0  0  0  0  0  0
    3.5118   -7.5021    0.0000 C   0  0  0  0  0  0  0  0  0  0  0  0
    4.9790   -7.8139    0.0000 C   0  0  0  0  0  0  0  0  0  0  0  0
    5.9827   -6.6992    0.0000 C   0  0  0  0  0  0  0  0  0  0  0  0
    5.5192   -5.2726    0.0000 C   0  0  0  0  0  0  0  0  0  0  0  0
    4.0519   -4.9608    0.0000 C   0  0  0  0  0  0  0  0  0  0  0  0
    3.0482   -6.0755    0.0000 C   0  0  0  0  0  0  0  0  0  0  0  0
    1.5810   -5.7636    0.0000 C   0  0  0  0  0  0  0  0  0  0  0  0
   -1.5000   -5.1962    0.0000 C   0  0  0  0  0  0  0  0  0  0  0  0
   -0.8899   -3.8258    0.0000 C   0  0  0  0  0  0  0  0  0  0  0  0
   -1.7716   -2.6123    0.0000 C   0  0  0  0  0  0  0  0  0  0  0  0
   -3.2634   -2.7691    0.0000 C   0  0  0  0  0  0  0  0  0  0  0  0
   -3.8735   -4.1394    0.0000 C   0  0  0  0  0  0  0  0  0  0  0  0
   -2.9918   -5.3529    0.0000 C   0  0  0  0  0  0  0  0  0  0  0  0
   -4.9858   -8.8975    0.0000 C   0  0  0  0  0  0  0  0  0  0  0  0
   -3.9821  -10.0122    0.0000 O   0  0  0  0  0  0  0  0  0  0  0  0
   -6.4776   -9.0543    0.0000 N   0  0  0  0  0  0  0  0  0  0  0  0
   -7.0877   -7.6840    0.0000 C   0  0  0  0  0  0  0  0  0  0  0  0
   -8.5549   -7.3721    0.0000 O   0  0  0  0  0  0  0  0  0  0  0  0
   -7.4288   -4.4385    0.0000 C   0  0  0  0  0  0  0  0  0  0  0  0
   -8.8554   -4.9020    0.0000 C   0  0  0  0  0  0  0  0  0  0  0  0
   -9.9701   -3.8983    0.0000 C   0  0  0  0  0  0  0  0  0  0  0  0
   -9.6583   -2.4311    0.0000 C   0  0  0  0  0  0  0  0  0  0  0  0
   -8.2317   -1.9676    0.0000 C   0  0  0  0  0  0  0  0  0  0  0  0
   -7.1170   -2.9713    0.0000 C   0  0  0  0  0  0  0  0  0  0  0  0
  1  2  1  0
  2  3  1  0
  2  4  1  0
  4  5  1  0
  5  6  1  0
  6  7  1  0
  7  8  1  0
  8  9  2  0
  9 10  1  0
 10 11  2  0
 11 12  1  0
 12 13  2  0
 13 14  1  0
 14 15  1  0
 15 16  2  0
 16 17  1  0
 17 18  2  0
 18 19  1  0
 19 20  2  0
 20 21  1  0
 21 22  2  0
 22 23  1  0
 23 24  2  0
 14 25  1  0
 25 26  2  0
 26 27  1  0
 27 28  2  0
 28 29  1  0
 29 30  2  0
 11 31  1  0
 31 32  2  0
 31 33  1  0
 33 34  1  0
 34 35  2  0
  9 36  1  0
 36 37  2  0
 37 38  1  0
 38 39  2  0
 39 40  1  0
 40 41  2  0
 41  7  1  0
 34 10  1  0
 41 36  1  0
 30 12  1  0
 24 15  1  0
 30 25  1  0
 23 18  1  0
M  END
>  <Compound_ID>  (21) 
CHEMBL359486

>  <Active>  (21) 
1

>  <Smiles>  (21) 
CN(C)CCCn1nc(C2=C(c3cn(-c4cnc5ccccc5c4)c4ccccc34)C(=O)NC2=O)c2ccccc21

>  <canonical_smi>  (21) 
CN(C)CCCn1nc(C2=C(c3cn(-c4cnc5ccccc5c4)c4ccccc34)C(=O)NC2=O)c2ccccc21

>  <Set>  (21) 
G2 active

>  <Set_type>  (21) 
Train

>  <MW>  (21) 
540.63

>  <HBD>  (21) 
1

>  <HBA>  (21) 
5

>  <NRB>  (21) 
7

>  <NR>  (21) 
7

>  <NAR>  (21) 
6

>  <PSA>  (21) 
85.05

>  <Standard Type>  (21) 
nan

>  <Standard Relation>  (21) 
nan

>  <Standard Units>  (21) 
nan

>  <Standard Value>  (21) 
nan

>  <Assay ChEMBL ID>  (21) 
nan

>  <Assay Description>  (21) 
nan

>  <BAO Label>  (21) 
nan

>  <bits>  (21) 
<rdkit.DataStructs.cDataStructs.ExplicitBitVect object at 0x00000210F8EB53F0>

>  <Group>  (21) 
G2

$$$$

     RDKit          2D

 30 32  0  0  0  0  0  0  0  0999 V2000
   -1.6056  -10.4361    0.0000 C   0  0  0  0  0  0  0  0  0  0  0  0
   -0.1138  -10.2793    0.0000 C   0  0  0  0  0  0  0  0  0  0  0  0
    0.7679  -11.4928    0.0000 C   0  0  0  0  0  0  0  0  0  0  0  0
    0.4963   -8.9089    0.0000 C   0  0  0  0  0  0  0  0  0  0  0  0
   -0.2537   -7.6099    0.0000 C   0  0  0  0  0  0  0  0  0  0  0  0
    0.7500   -6.4952    0.0000 C   0  0  0  0  0  0  0  0  0  0  0  0
   -0.4635   -5.6135    0.0000 C   0  0  0  0  0  0  0  0  0  0  0  0
   -1.8338   -6.2236    0.0000 O   0  0  0  0  0  0  0  0  0  0  0  0
    1.5000   -5.1962    0.0000 C   0  0  0  0  0  0  0  0  0  0  0  0
    0.7500   -3.8971    0.0000 O   0  0  0  0  0  0  0  0  0  0  0  0
    1.5000   -2.5981    0.0000 C   0  0  0  0  0  0  0  0  0  0  0  0
    3.0000   -2.5981    0.0000 O   0  0  0  0  0  0  0  0  0  0  0  0
    0.7500   -1.2990    0.0000 C   0  0  0  0  0  0  0  0  0  0  0  0
    1.5000    0.0000    0.0000 C   0  0  0  0  0  0  0  0  0  0  0  0
    0.7500    1.2990    0.0000 C   0  0  0  0  0  0  0  0  0  0  0  0
   -0.7500    1.2990    0.0000 C   0  0  0  0  0  0  0  0  0  0  0  0
   -1.5000    2.5981    0.0000 C   0  0  0  0  0  0  0  0  0  0  0  0
   -2.2500    3.8971    0.0000 C   0  0  0  0  0  0  0  0  0  0  0  0
   -3.0000    5.1962    0.0000 C   0  0  0  0  0  0  0  0  0  0  0  0
   -2.2500    6.4952    0.0000 C   0  0  0  0  0  0  0  0  0  0  0  0
   -3.0000    7.7942    0.0000 C   0  0  0  0  0  0  0  0  0  0  0  0
   -4.5000    7.7942    0.0000 C   0  0  0  0  0  0  0  0  0  0  0  0
   -5.2500    9.0933    0.0000 C   0  0  0  0  0  0  0  0  0  0  0  0
   -5.2500    6.4952    0.0000 C   0  0  0  0  0  0  0  0  0  0  0  0
   -4.5000    5.1962    0.0000 C   0  0  0  0  0  0  0  0  0  0  0  0
   -1.5000    0.0000    0.0000 C   0  0  0  0  0  0  0  0  0  0  0  0
   -0.7500   -1.2990    0.0000 C   0  0  0  0  0  0  0  0  0  0  0  0
    2.1203   -7.1053    0.0000 O   0  0  0  0  0  0  0  0  0  0  0  0
    1.9635   -8.5971    0.0000 C   0  0  0  0  0  0  0  0  0  0  0  0
    3.0782   -9.6008    0.0000 O   0  0  0  0  0  0  0  0  0  0  0  0
  1  2  1  0
  2  3  1  0
  2  4  2  0
  4  5  1  0
  5  6  1  0
  6  7  1  0
  7  8  1  0
  6  9  1  0
  9 10  1  0
 10 11  1  0
 11 12  2  0
 11 13  1  0
 13 14  2  0
 14 15  1  0
 15 16  2  0
 16 17  1  0
 17 18  3  0
 18 19  1  0
 19 20  2  0
 20 21  1  0
 21 22  2  0
 22 23  1  0
 22 24  1  0
 24 25  2  0
 16 26  1  0
 26 27  2  0
  6 28  1  0
 28 29  1  0
 29 30  2  0
 29  4  1  0
 27 13  1  0
 25 19  1  0
M  END
>  <Compound_ID>  (22) 
CHEMBL522428

>  <Active>  (22) 
1

>  <Smiles>  (22) 
CC(C)=C1CC(CO)(COC(=O)c2ccc(C#Cc3ccc(C)cc3)cc2)OC1=O

>  <canonical_smi>  (22) 
CC(C)=C1CC(CO)(COC(=O)c2ccc(C#Cc3ccc(C)cc3)cc2)OC1=O

>  <Set>  (22) 
G2 active

>  <Set_type>  (22) 
Train

>  <MW>  (22) 
404.46

>  <HBD>  (22) 
1

>  <HBA>  (22) 
5

>  <NRB>  (22) 
4

>  <NR>  (22) 
3

>  <NAR>  (22) 
2

>  <PSA>  (22) 
72.83

>  <Standard Type>  (22) 
nan

>  <Standard Relation>  (22) 
nan

>  <Standard Units>  (22) 
nan

>  <Standard Value>  (22) 
nan

>  <Assay ChEMBL ID>  (22) 
nan

>  <Assay Description>  (22) 
nan

>  <BAO Label>  (22) 
nan

>  <bits>  (22) 
<rdkit.DataStructs.cDataStructs.ExplicitBitVect object at 0x00000210F8EB5B60>

>  <Group>  (22) 
G2

$$$$

     RDKit          2D

 35 40  0  0  0  0  0  0  0  0999 V2000
   -7.4799   -6.0803    0.0000 C   0  0  0  0  0  0  0  0  0  0  0  0
   -6.0175   -5.7465    0.0000 N   0  0  0  0  0  0  0  0  0  0  0  0
   -5.5753   -4.3132    0.0000 C   0  0  0  0  0  0  0  0  0  0  0  0
   -4.9972   -6.8461    0.0000 C   0  0  0  0  0  0  0  0  0  0  0  0
   -3.5348   -6.5123    0.0000 C   0  0  0  0  0  0  0  0  0  0  0  0
   -3.5348   -5.0123    0.0000 C   0  0  0  0  0  0  0  0  0  0  0  0
   -2.8840   -3.6609    0.0000 C   0  0  0  0  0  0  0  0  0  0  0  0
   -1.2135   -2.7256    0.0000 N   0  0  0  0  0  0  0  0  0  0  0  0
   -0.0000   -3.6073    0.0000 C   0  0  0  0  0  0  0  0  0  0  0  0
    1.2135   -2.7256    0.0000 C   0  0  0  0  0  0  0  0  0  0  0  0
    0.7500   -1.2990    0.0000 C   0  0  0  0  0  0  0  0  0  0  0  0
    1.5000    0.0000    0.0000 C   0  0  0  0  0  0  0  0  0  0  0  0
    0.7500    1.2990    0.0000 C   0  0  0  0  0  0  0  0  0  0  0  0
   -0.7500    1.2990    0.0000 C   0  0  0  0  0  0  0  0  0  0  0  0
   -1.5000    0.0000    0.0000 C   0  0  0  0  0  0  0  0  0  0  0  0
   -0.7500   -1.2990    0.0000 C   0  0  0  0  0  0  0  0  0  0  0  0
    2.3863   -3.6609    0.0000 C   0  0  0  0  0  0  0  0  0  0  0  0
    3.0371   -5.0123    0.0000 C   0  0  0  0  0  0  0  0  0  0  0  0
    4.5235   -4.8110    0.0000 C   0  0  0  0  0  0  0  0  0  0  0  0
    5.5601   -5.8952    0.0000 O   0  0  0  0  0  0  0  0  0  0  0  0
    4.7914   -3.3351    0.0000 N   0  0  0  0  0  0  0  0  0  0  0  0
    3.4705   -2.6243    0.0000 C   0  0  0  0  0  0  0  0  0  0  0  0
    3.2691   -1.1378    0.0000 O   0  0  0  0  0  0  0  0  0  0  0  0
    3.0371   -6.5123    0.0000 C   0  0  0  0  0  0  0  0  0  0  0  0
    2.3863   -7.8638    0.0000 C   0  0  0  0  0  0  0  0  0  0  0  0
    1.2135   -8.7990    0.0000 N   0  0  0  0  0  0  0  0  0  0  0  0
    2.6179   -9.3261    0.0000 C   0  0  0  0  0  0  0  0  0  0  0  0
    3.1659  -10.7224    0.0000 C   0  0  0  0  0  0  0  0  0  0  0  0
    4.6491  -10.9459    0.0000 C   0  0  0  0  0  0  0  0  0  0  0  0
    5.5844   -9.7732    0.0000 C   0  0  0  0  0  0  0  0  0  0  0  0
    5.0364   -8.3769    0.0000 C   0  0  0  0  0  0  0  0  0  0  0  0
    3.5531   -8.1533    0.0000 C   0  0  0  0  0  0  0  0  0  0  0  0
   -0.2489   -9.1328    0.0000 C   0  0  0  0  0  0  0  0  0  0  0  0
   -1.7113   -8.7990    0.0000 C   0  0  0  0  0  0  0  0  0  0  0  0
   -2.8840   -7.8638    0.0000 O   0  0  0  0  0  0  0  0  0  0  0  0
  1  2  1  0
  2  3  1  0
  2  4  1  0
  5  4  1  6
  5  6  1  0
  6  7  1  0
  7  8  1  0
  8  9  1  0
  9 10  2  0
 10 11  1  0
 11 12  2  0
 12 13  1  0
 13 14  2  0
 14 15  1  0
 15 16  2  0
 10 17  1  0
 17 18  2  0
 18 19  1  0
 19 20  2  0
 19 21  1  0
 21 22  1  0
 22 23  2  0
 18 24  1  0
 24 25  2  0
 25 26  1  0
 26 27  1  0
 27 28  2  0
 28 29  1  0
 29 30  2  0
 30 31  1  0
 31 32  2  0
 26 33  1  0
 33 34  1  0
 34 35  1  0
 35  5  1  0
 16  8  1  0
 22 17  1  0
 32 24  1  0
 16 11  1  0
 32 27  1  0
M  END
>  <Compound_ID>  (23) 
CHEMBL91829

>  <Active>  (23) 
1

>  <Smiles>  (23) 
CN(C)C[C@@H]1CCn2cc(c3ccccc32)C2=C(C(=O)NC2=O)c2cn(c3ccccc23)CCO1

>  <canonical_smi>  (23) 
CN(C)C[C@@H]1CCn2cc(c3ccccc32)C2=C(C(=O)NC2=O)c2cn(c3ccccc23)CCO1

>  <Set>  (23) 
G2 active

>  <Set_type>  (23) 
Train

>  <MW>  (23) 
468.56

>  <HBD>  (23) 
1

>  <HBA>  (23) 
4

>  <NRB>  (23) 
2

>  <NR>  (23) 
6

>  <NAR>  (23) 
4

>  <PSA>  (23) 
68.5

>  <Standard Type>  (23) 
nan

>  <Standard Relation>  (23) 
nan

>  <Standard Units>  (23) 
nan

>  <Standard Value>  (23) 
nan

>  <Assay ChEMBL ID>  (23) 
nan

>  <Assay Description>  (23) 
nan

>  <BAO Label>  (23) 
nan

>  <bits>  (23) 
<rdkit.DataStructs.cDataStructs.ExplicitBitVect object at 0x00000210F8EB5C40>

>  <Group>  (23) 
G2

$$$$

     RDKit          2D

 34 40  0  0  0  0  0  0  0  0999 V2000
   -4.3723   -8.3493    0.0000 C   0  0  0  0  0  0  0  0  0  0  0  0
   -3.4906   -7.1358    0.0000 N   0  0  0  0  0  0  0  0  0  0  0  0
   -3.9542   -5.7092    0.0000 C   0  0  0  0  0  0  0  0  0  0  0  0
   -2.7406   -4.8275    0.0000 C   0  0  0  0  0  0  0  0  0  0  0  0
   -2.5838   -3.3357    0.0000 C   0  0  0  0  0  0  0  0  0  0  0  0
   -1.2135   -2.7256    0.0000 N   0  0  0  0  0  0  0  0  0  0  0  0
   -0.0000   -3.6073    0.0000 C   0  0  0  0  0  0  0  0  0  0  0  0
    1.2135   -2.7256    0.0000 C   0  0  0  0  0  0  0  0  0  0  0  0
    2.6401   -3.1891    0.0000 C   0  0  0  0  0  0  0  0  0  0  0  0
    3.8536   -2.3075    0.0000 C   0  0  0  0  0  0  0  0  0  0  0  0
    3.8536   -0.8075    0.0000 C   0  0  0  0  0  0  0  0  0  0  0  0
    2.6401    0.0742    0.0000 C   0  0  0  0  0  0  0  0  0  0  0  0
    3.1036    1.5008    0.0000 N   0  0  0  0  0  0  0  0  0  0  0  0
    2.2220    2.7143    0.0000 C   0  0  0  0  0  0  0  0  0  0  0  0
    4.6036    1.5008    0.0000 C   0  0  0  0  0  0  0  0  0  0  0  0
    5.6073    2.6155    0.0000 C   0  0  0  0  0  0  0  0  0  0  0  0
    7.0746    2.3036    0.0000 C   0  0  0  0  0  0  0  0  0  0  0  0
    7.5381    0.8771    0.0000 C   0  0  0  0  0  0  0  0  0  0  0  0
    6.5344   -0.2377    0.0000 C   0  0  0  0  0  0  0  0  0  0  0  0
    5.0672    0.0742    0.0000 C   0  0  0  0  0  0  0  0  0  0  0  0
    5.0672   -3.1891    0.0000 C   0  0  0  0  0  0  0  0  0  0  0  0
    6.4937   -2.7256    0.0000 O   0  0  0  0  0  0  0  0  0  0  0  0
    4.6036   -4.6157    0.0000 N   0  0  0  0  0  0  0  0  0  0  0  0
    3.1036   -4.6157    0.0000 C   0  0  0  0  0  0  0  0  0  0  0  0
    2.2220   -5.8293    0.0000 O   0  0  0  0  0  0  0  0  0  0  0  0
    0.7500   -1.2990    0.0000 C   0  0  0  0  0  0  0  0  0  0  0  0
    1.5000    0.0000    0.0000 C   0  0  0  0  0  0  0  0  0  0  0  0
    0.7500    1.2990    0.0000 C   0  0  0  0  0  0  0  0  0  0  0  0
   -0.7500    1.2990    0.0000 C   0  0  0  0  0  0  0  0  0  0  0  0
   -1.5000    0.0000    0.0000 C   0  0  0  0  0  0  0  0  0  0  0  0
   -0.7500   -1.2990    0.0000 C   0  0  0  0  0  0  0  0  0  0  0  0
   -0.1568   -5.0991    0.0000 C   0  0  0  0  0  0  0  0  0  0  0  0
   -1.5271   -5.7092    0.0000 C   0  0  0  0  0  0  0  0  0  0  0  0
   -1.9906   -7.1358    0.0000 C   0  0  0  0  0  0  0  0  0  0  0  0
  1  2  1  0
  2  3  1  0
  4  3  1  6
  4  5  1  0
  5  6  1  0
  6  7  1  0
  7  8  2  0
  8  9  1  0
  9 10  2  0
 10 11  1  0
 11 12  2  0
 12 13  1  0
 13 14  1  0
 13 15  1  0
 15 16  2  0
 16 17  1  0
 17 18  2  0
 18 19  1  0
 19 20  2  0
 10 21  1  0
 21 22  2  0
 21 23  1  0
 23 24  1  0
 24 25  2  0
  8 26  1  0
 26 27  2  0
 27 28  1  0
 28 29  2  0
 29 30  1  0
 30 31  2  0
  7 32  1  0
 33 32  1  1
 33 34  1  0
 34  2  1  0
 33  4  1  0
 31  6  1  0
 24  9  1  0
 31 26  1  0
 20 11  1  0
 20 15  1  0
M  END
>  <Compound_ID>  (24) 
CHEMBL538718

>  <Active>  (24) 
1

>  <Smiles>  (24) 
CN1C[C@@H]2Cn3c(c(C4=C(c5cn(C)c6ccccc56)C(=O)NC4=O)c4ccccc43)C[C@H]2C1

>  <canonical_smi>  (24) 
CN1C[C@@H]2Cc3c(C4=C(c5cn(C)c6ccccc56)C(=O)NC4=O)c4ccccc4n3C[C@H]2C1

>  <Set>  (24) 
G2 active

>  <Set_type>  (24) 
Train

>  <MW>  (24) 
450.54

>  <HBD>  (24) 
1

>  <HBA>  (24) 
3

>  <NRB>  (24) 
2

>  <NR>  (24) 
7

>  <NAR>  (24) 
4

>  <PSA>  (24) 
59.27

>  <Standard Type>  (24) 
nan

>  <Standard Relation>  (24) 
nan

>  <Standard Units>  (24) 
nan

>  <Standard Value>  (24) 
nan

>  <Assay ChEMBL ID>  (24) 
nan

>  <Assay Description>  (24) 
nan

>  <BAO Label>  (24) 
nan

>  <bits>  (24) 
<rdkit.DataStructs.cDataStructs.ExplicitBitVect object at 0x00000210F8EB6570>

>  <Group>  (24) 
G2

$$$$

     RDKit          2D

 31 35  0  0  0  0  0  0  0  0999 V2000
   -6.4937   -2.7256    0.0000 O   0  0  0  0  0  0  0  0  0  0  0  0
   -5.0672   -3.1891    0.0000 C   0  0  0  0  0  0  0  0  0  0  0  0
   -4.6036   -4.6157    0.0000 N   0  0  0  0  0  0  0  0  0  0  0  0
   -3.1036   -4.6157    0.0000 C   0  0  0  0  0  0  0  0  0  0  0  0
   -2.2220   -5.8293    0.0000 O   0  0  0  0  0  0  0  0  0  0  0  0
   -2.6401   -3.1891    0.0000 C   0  0  0  0  0  0  0  0  0  0  0  0
   -1.2135   -2.7256    0.0000 C   0  0  0  0  0  0  0  0  0  0  0  0
   -0.0000   -3.6073    0.0000 C   0  0  0  0  0  0  0  0  0  0  0  0
    1.2135   -2.7256    0.0000 N   0  0  0  0  0  0  0  0  0  0  0  0
    2.6401   -3.1891    0.0000 C   0  0  0  0  0  0  0  0  0  0  0  0
    2.9520   -4.6564    0.0000 C   0  0  0  0  0  0  0  0  0  0  0  0
    4.3786   -5.1199    0.0000 C   0  0  0  0  0  0  0  0  0  0  0  0
    4.6904   -6.5871    0.0000 N   0  0  0  0  0  0  0  0  0  0  0  0
    6.0607   -7.1972    0.0000 C   0  0  0  0  0  0  0  0  0  0  0  0
    5.9040   -8.6890    0.0000 C   0  0  0  0  0  0  0  0  0  0  0  0
    4.4367   -9.0009    0.0000 N   0  0  0  0  0  0  0  0  0  0  0  0
    3.6867   -7.7018    0.0000 C   0  0  0  0  0  0  0  0  0  0  0  0
    0.7500   -1.2990    0.0000 C   0  0  0  0  0  0  0  0  0  0  0  0
    1.5000    0.0000    0.0000 C   0  0  0  0  0  0  0  0  0  0  0  0
    0.7500    1.2990    0.0000 C   0  0  0  0  0  0  0  0  0  0  0  0
   -0.7500    1.2990    0.0000 C   0  0  0  0  0  0  0  0  0  0  0  0
   -1.5000    0.0000    0.0000 C   0  0  0  0  0  0  0  0  0  0  0  0
   -0.7500   -1.2990    0.0000 C   0  0  0  0  0  0  0  0  0  0  0  0
   -3.8536   -2.3075    0.0000 C   0  0  0  0  0  0  0  0  0  0  0  0
   -3.8536   -0.8075    0.0000 N   0  0  0  0  0  0  0  0  0  0  0  0
   -5.1527   -0.0575    0.0000 C   0  0  0  0  0  0  0  0  0  0  0  0
   -5.1527    1.4425    0.0000 C   0  0  0  0  0  0  0  0  0  0  0  0
   -6.4517    2.1925    0.0000 C   0  0  0  0  0  0  0  0  0  0  0  0
   -7.7508    1.4425    0.0000 C   0  0  0  0  0  0  0  0  0  0  0  0
   -7.7508   -0.0575    0.0000 C   0  0  0  0  0  0  0  0  0  0  0  0
   -6.4517   -0.8075    0.0000 C   0  0  0  0  0  0  0  0  0  0  0  0
  1  2  2  0
  2  3  1  0
  3  4  1  0
  4  5  2  0
  4  6  1  0
  6  7  1  0
  7  8  2  0
  8  9  1  0
  9 10  1  0
 10 11  1  0
 11 12  1  0
 12 13  1  0
 13 14  1  0
 14 15  2  0
 15 16  1  0
 16 17  2  0
  9 18  1  0
 18 19  2  0
 19 20  1  0
 20 21  2  0
 21 22  1  0
 22 23  2  0
  6 24  2  0
 24 25  1  0
 25 26  1  0
 26 27  2  0
 27 28  1  0
 28 29  2  0
 29 30  1  0
 30 31  2  0
 24  2  1  0
 31 26  1  0
 23  7  1  0
 17 13  1  0
 23 18  1  0
M  END
>  <Compound_ID>  (25) 
CHEMBL366266

>  <Active>  (25) 
1

>  <Smiles>  (25) 
O=C1NC(=O)C(c2cn(CCCn3ccnc3)c3ccccc23)=C1Nc1ccccc1

>  <canonical_smi>  (25) 
O=C1NC(=O)C(c2cn(CCCn3ccnc3)c3ccccc23)=C1Nc1ccccc1

>  <Set>  (25) 
G2 active

>  <Set_type>  (25) 
Train

>  <MW>  (25) 
411.47

>  <HBD>  (25) 
2

>  <HBA>  (25) 
4

>  <NRB>  (25) 
7

>  <NR>  (25) 
5

>  <NAR>  (25) 
4

>  <PSA>  (25) 
80.95

>  <Standard Type>  (25) 
nan

>  <Standard Relation>  (25) 
nan

>  <Standard Units>  (25) 
nan

>  <Standard Value>  (25) 
nan

>  <Assay ChEMBL ID>  (25) 
nan

>  <Assay Description>  (25) 
nan

>  <BAO Label>  (25) 
nan

>  <bits>  (25) 
<rdkit.DataStructs.cDataStructs.ExplicitBitVect object at 0x00000210F8EB6810>

>  <Group>  (25) 
G2

$$$$

     RDKit          2D

 36 43  0  0  0  0  0  0  0  0999 V2000
    7.0384   -5.9220    0.0000 C   0  0  0  0  0  0  0  0  0  0  0  0
    6.3474   -4.5907    0.0000 N   0  0  0  0  0  0  0  0  0  0  0  0
    4.8489   -4.5234    0.0000 C   0  0  0  0  0  0  0  0  0  0  0  0
    4.0414   -5.7874    0.0000 C   0  0  0  0  0  0  0  0  0  0  0  0
    2.5382   -5.8249    0.0000 C   0  0  0  0  0  0  0  0  0  0  0  0
    3.2490   -4.5040    0.0000 O   0  0  0  0  0  0  0  0  0  0  0  0
    2.6595   -3.1247    0.0000 C   0  0  0  0  0  0  0  0  0  0  0  0
    3.6464   -1.9951    0.0000 C   0  0  0  0  0  0  0  0  0  0  0  0
    4.1580   -3.1920    0.0000 C   0  0  0  0  0  0  0  0  0  0  0  0
    4.9655   -1.9279    0.0000 O   0  0  0  0  0  0  0  0  0  0  0  0
    6.4640   -1.9952    0.0000 C   0  0  0  0  0  0  0  0  0  0  0  0
    1.2135   -2.7256    0.0000 N   0  0  0  0  0  0  0  0  0  0  0  0
    0.7500   -1.2990    0.0000 C   0  0  0  0  0  0  0  0  0  0  0  0
    1.5000    0.0000    0.0000 C   0  0  0  0  0  0  0  0  0  0  0  0
    0.7500    1.2990    0.0000 C   0  0  0  0  0  0  0  0  0  0  0  0
   -0.7500    1.2990    0.0000 C   0  0  0  0  0  0  0  0  0  0  0  0
   -1.5000    0.0000    0.0000 C   0  0  0  0  0  0  0  0  0  0  0  0
   -0.7500   -1.2990    0.0000 C   0  0  0  0  0  0  0  0  0  0  0  0
   -1.2135   -2.7256    0.0000 C   0  0  0  0  0  0  0  0  0  0  0  0
   -2.5518   -3.5691    0.0000 C   0  0  0  0  0  0  0  0  0  0  0  0
   -2.6191   -5.0676    0.0000 C   0  0  0  0  0  0  0  0  0  0  0  0
   -1.3550   -5.8751    0.0000 C   0  0  0  0  0  0  0  0  0  0  0  0
   -1.0212   -7.3375    0.0000 C   0  0  0  0  0  0  0  0  0  0  0  0
   -1.8846   -8.5641    0.0000 C   0  0  0  0  0  0  0  0  0  0  0  0
   -1.2541   -9.9251    0.0000 C   0  0  0  0  0  0  0  0  0  0  0  0
    0.2399  -10.0596    0.0000 C   0  0  0  0  0  0  0  0  0  0  0  0
    1.1033   -8.8330    0.0000 C   0  0  0  0  0  0  0  0  0  0  0  0
    0.4728   -7.4720    0.0000 C   0  0  0  0  0  0  0  0  0  0  0  0
    1.0623   -6.0927    0.0000 N   0  0  0  0  0  0  0  0  0  0  0  0
   -0.0673   -5.1058    0.0000 C   0  0  0  0  0  0  0  0  0  0  0  0
   -0.0000   -3.6073    0.0000 C   0  0  0  0  0  0  0  0  0  0  0  0
   -4.0650   -5.4667    0.0000 C   0  0  0  0  0  0  0  0  0  0  0  0
   -4.5921   -6.8710    0.0000 O   0  0  0  0  0  0  0  0  0  0  0  0
   -4.8913   -4.2148    0.0000 N   0  0  0  0  0  0  0  0  0  0  0  0
   -3.9561   -3.0421    0.0000 C   0  0  0  0  0  0  0  0  0  0  0  0
   -4.3552   -1.5961    0.0000 O   0  0  0  0  0  0  0  0  0  0  0  0
  1  2  1  0
  3  2  1  1
  3  4  1  0
  5  4  1  1
  5  6  1  0
  6  7  1  0
  7  8  1  6
  7  9  1  0
  9 10  1  1
 10 11  1  0
  7 12  1  0
 12 13  1  0
 13 14  2  0
 14 15  1  0
 15 16  2  0
 16 17  1  0
 17 18  2  0
 18 19  1  0
 19 20  2  0
 20 21  1  0
 21 22  2  0
 22 23  1  0
 23 24  2  0
 24 25  1  0
 25 26  2  0
 26 27  1  0
 27 28  2  0
 28 29  1  0
 29 30  1  0
 30 31  2  0
 21 32  1  0
 32 33  2  0
 32 34  1  0
 34 35  1  0
 35 36  2  0
  9  3  1  0
 31 12  1  0
 29  5  1  0
 18 13  1  0
 31 19  1  0
 35 20  1  0
 30 22  1  0
 28 23  1  0
M  END
>  <Compound_ID>  (26) 
CHEMBL337026

>  <Active>  (26) 
1

>  <Smiles>  (26) 
CN[C@H]1C[C@@H]2O[C@](C)([C@H]1OC)n1c3ccccc3c3c4c(c5c6ccccc6n2c5c31)C(=O)NC4=O

>  <canonical_smi>  (26) 
CN[C@H]1C[C@@H]2O[C@](C)([C@H]1OC)n1c3ccccc3c3c4c(c5c6ccccc6n2c5c31)C(=O)NC4=O

>  <Set>  (26) 
G2 active

>  <Set_type>  (26) 
Train

>  <MW>  (26) 
480.52

>  <HBD>  (26) 
2

>  <HBA>  (26) 
5

>  <NRB>  (26) 
2

>  <NR>  (26) 
8

>  <NAR>  (26) 
5

>  <PSA>  (26) 
86.52

>  <Standard Type>  (26) 
nan

>  <Standard Relation>  (26) 
nan

>  <Standard Units>  (26) 
nan

>  <Standard Value>  (26) 
nan

>  <Assay ChEMBL ID>  (26) 
nan

>  <Assay Description>  (26) 
nan

>  <BAO Label>  (26) 
nan

>  <bits>  (26) 
<rdkit.DataStructs.cDataStructs.ExplicitBitVect object at 0x00000210F8EB68F0>

>  <Group>  (26) 
G2

$$$$

     RDKit          2D

 33 37  0  0  0  0  0  0  0  0999 V2000
    5.4425   -9.2405    0.0000 N   0  0  0  0  0  0  0  0  0  0  0  0
    4.4388  -10.3552    0.0000 C   0  0  0  0  0  0  0  0  0  0  0  0
    4.9023  -11.7818    0.0000 N   0  0  0  0  0  0  0  0  0  0  0  0
    2.9716  -10.0434    0.0000 S   0  0  0  0  0  0  0  0  0  0  0  0
    2.5081   -8.6168    0.0000 C   0  0  0  0  0  0  0  0  0  0  0  0
    1.0409   -8.3049    0.0000 C   0  0  0  0  0  0  0  0  0  0  0  0
    0.5773   -6.8783    0.0000 C   0  0  0  0  0  0  0  0  0  0  0  0
   -0.8899   -6.5665    0.0000 N   0  0  0  0  0  0  0  0  0  0  0  0
   -1.5000   -5.1962    0.0000 C   0  0  0  0  0  0  0  0  0  0  0  0
   -0.7500   -3.8971    0.0000 C   0  0  0  0  0  0  0  0  0  0  0  0
    0.7500   -3.8971    0.0000 C   0  0  0  0  0  0  0  0  0  0  0  0
    1.5000   -2.5981    0.0000 C   0  0  0  0  0  0  0  0  0  0  0  0
    0.7500   -1.2990    0.0000 C   0  0  0  0  0  0  0  0  0  0  0  0
    1.5000    0.0000    0.0000 C   0  0  0  0  0  0  0  0  0  0  0  0
    0.7500    1.2990    0.0000 C   0  0  0  0  0  0  0  0  0  0  0  0
   -0.7500    1.2990    0.0000 C   0  0  0  0  0  0  0  0  0  0  0  0
   -1.5000    0.0000    0.0000 C   0  0  0  0  0  0  0  0  0  0  0  0
   -0.7500   -1.2990    0.0000 C   0  0  0  0  0  0  0  0  0  0  0  0
   -1.5000   -2.5981    0.0000 C   0  0  0  0  0  0  0  0  0  0  0  0
   -2.9918   -5.3529    0.0000 C   0  0  0  0  0  0  0  0  0  0  0  0
   -3.9955   -4.2382    0.0000 C   0  0  0  0  0  0  0  0  0  0  0  0
   -5.4873   -4.3950    0.0000 C   0  0  0  0  0  0  0  0  0  0  0  0
   -6.0974   -3.0247    0.0000 C   0  0  0  0  0  0  0  0  0  0  0  0
   -7.5646   -2.7128    0.0000 O   0  0  0  0  0  0  0  0  0  0  0  0
   -4.9826   -2.0210    0.0000 N   0  0  0  0  0  0  0  0  0  0  0  0
   -3.6836   -2.7710    0.0000 C   0  0  0  0  0  0  0  0  0  0  0  0
   -2.3133   -2.1609    0.0000 O   0  0  0  0  0  0  0  0  0  0  0  0
   -3.3037   -6.8202    0.0000 C   0  0  0  0  0  0  0  0  0  0  0  0
   -4.6027   -7.5702    0.0000 C   0  0  0  0  0  0  0  0  0  0  0  0
   -4.6027   -9.0702    0.0000 C   0  0  0  0  0  0  0  0  0  0  0  0
   -3.3037   -9.8202    0.0000 C   0  0  0  0  0  0  0  0  0  0  0  0
   -2.0046   -9.0702    0.0000 C   0  0  0  0  0  0  0  0  0  0  0  0
   -2.0046   -7.5702    0.0000 C   0  0  0  0  0  0  0  0  0  0  0  0
  1  2  2  0
  2  3  1  0
  2  4  1  0
  4  5  1  0
  5  6  1  0
  6  7  1  0
  7  8  1  0
  8  9  1  0
  9 10  1  0
 10 11  2  0
 11 12  1  0
 12 13  2  0
 13 14  1  0
 14 15  2  0
 15 16  1  0
 16 17  2  0
 17 18  1  0
 18 19  2  0
  9 20  2  0
 20 21  1  0
 21 22  2  0
 22 23  1  0
 23 24  2  0
 23 25  1  0
 25 26  1  0
 26 27  2  0
 20 28  1  0
 28 29  2  0
 29 30  1  0
 30 31  2  0
 31 32  1  0
 32 33  2  0
 33  8  1  0
 19 10  1  0
 26 21  1  0
 33 28  1  0
 18 13  1  0
M  END
>  <Compound_ID>  (27) 
CHEMBL444864

>  <Active>  (27) 
1

>  <Smiles>  (27) 
N=C(N)SCCCn1c(-c2ccc3ccccc3c2)c(C2=CC(=O)NC2=O)c2ccccc21

>  <canonical_smi>  (27) 
N=C(N)SCCCn1c(-c2ccc3ccccc3c2)c(C2=CC(=O)NC2=O)c2ccccc21

>  <Set>  (27) 
G2 active

>  <Set_type>  (27) 
Train

>  <MW>  (27) 
454.56

>  <HBD>  (27) 
3

>  <HBA>  (27) 
4

>  <NRB>  (27) 
6

>  <NR>  (27) 
5

>  <NAR>  (27) 
4

>  <PSA>  (27) 
100.97

>  <Standard Type>  (27) 
nan

>  <Standard Relation>  (27) 
nan

>  <Standard Units>  (27) 
nan

>  <Standard Value>  (27) 
nan

>  <Assay ChEMBL ID>  (27) 
nan

>  <Assay Description>  (27) 
nan

>  <BAO Label>  (27) 
nan

>  <bits>  (27) 
<rdkit.DataStructs.cDataStructs.ExplicitBitVect object at 0x00000210F8EB6960>

>  <Group>  (27) 
G2

$$$$

     RDKit          2D

 33 37  0  0  0  0  0  0  0  0999 V2000
   -2.6401   -3.1891    0.0000 C   0  0  0  0  0  0  0  0  0  0  0  0
   -1.2135   -2.7256    0.0000 N   0  0  0  0  0  0  0  0  0  0  0  0
   -0.0000   -3.6073    0.0000 C   0  0  0  0  0  0  0  0  0  0  0  0
    1.2135   -2.7256    0.0000 C   0  0  0  0  0  0  0  0  0  0  0  0
    2.6401   -3.1891    0.0000 C   0  0  0  0  0  0  0  0  0  0  0  0
    3.8536   -2.3075    0.0000 C   0  0  0  0  0  0  0  0  0  0  0  0
    3.8536   -0.8075    0.0000 C   0  0  0  0  0  0  0  0  0  0  0  0
    2.6401    0.0742    0.0000 C   0  0  0  0  0  0  0  0  0  0  0  0
    3.1036    1.5008    0.0000 N   0  0  0  0  0  0  0  0  0  0  0  0
    2.2220    2.7143    0.0000 C   0  0  0  0  0  0  0  0  0  0  0  0
    2.8321    4.0846    0.0000 C   0  0  0  0  0  0  0  0  0  0  0  0
    1.9504    5.2982    0.0000 C   0  0  0  0  0  0  0  0  0  0  0  0
    2.5605    6.6685    0.0000 S   0  0  0  0  0  0  0  0  0  0  0  0
    1.6788    7.8820    0.0000 C   0  0  0  0  0  0  0  0  0  0  0  0
    0.1870    7.7252    0.0000 N   0  0  0  0  0  0  0  0  0  0  0  0
    2.2889    9.2523    0.0000 N   0  0  0  0  0  0  0  0  0  0  0  0
    4.6036    1.5008    0.0000 C   0  0  0  0  0  0  0  0  0  0  0  0
    5.6073    2.6155    0.0000 C   0  0  0  0  0  0  0  0  0  0  0  0
    7.0746    2.3036    0.0000 C   0  0  0  0  0  0  0  0  0  0  0  0
    7.5381    0.8771    0.0000 C   0  0  0  0  0  0  0  0  0  0  0  0
    6.5344   -0.2377    0.0000 C   0  0  0  0  0  0  0  0  0  0  0  0
    5.0672    0.0742    0.0000 C   0  0  0  0  0  0  0  0  0  0  0  0
    5.0672   -3.1891    0.0000 C   0  0  0  0  0  0  0  0  0  0  0  0
    6.4937   -2.7256    0.0000 O   0  0  0  0  0  0  0  0  0  0  0  0
    4.6036   -4.6157    0.0000 N   0  0  0  0  0  0  0  0  0  0  0  0
    3.1036   -4.6157    0.0000 C   0  0  0  0  0  0  0  0  0  0  0  0
    2.2220   -5.8293    0.0000 O   0  0  0  0  0  0  0  0  0  0  0  0
    0.7500   -1.2990    0.0000 C   0  0  0  0  0  0  0  0  0  0  0  0
    1.5000    0.0000    0.0000 C   0  0  0  0  0  0  0  0  0  0  0  0
    0.7500    1.2990    0.0000 C   0  0  0  0  0  0  0  0  0  0  0  0
   -0.7500    1.2990    0.0000 C   0  0  0  0  0  0  0  0  0  0  0  0
   -1.5000    0.0000    0.0000 C   0  0  0  0  0  0  0  0  0  0  0  0
   -0.7500   -1.2990    0.0000 C   0  0  0  0  0  0  0  0  0  0  0  0
  1  2  1  0
  2  3  1  0
  3  4  2  0
  4  5  1  0
  5  6  2  0
  6  7  1  0
  7  8  2  0
  8  9  1  0
  9 10  1  0
 10 11  1  0
 11 12  1  0
 12 13  1  0
 13 14  1  0
 14 15  2  0
 14 16  1  0
  9 17  1  0
 17 18  2  0
 18 19  1  0
 19 20  2  0
 20 21  1  0
 21 22  2  0
  6 23  1  0
 23 24  2  0
 23 25  1  0
 25 26  1  0
 26 27  2  0
  4 28  1  0
 28 29  2  0
 29 30  1  0
 30 31  2  0
 31 32  1  0
 32 33  2  0
 33  2  1  0
 26  5  1  0
 33 28  1  0
 22  7  1  0
 22 17  1  0
M  END
>  <Compound_ID>  (28) 
CHEMBL6291

>  <Active>  (28) 
1

>  <Smiles>  (28) 
Cn1cc(C2=C(c3cn(CCCSC(=N)N)c4ccccc34)C(=O)NC2=O)c2ccccc21

>  <canonical_smi>  (28) 
Cn1cc(C2=C(c3cn(CCCSC(=N)N)c4ccccc34)C(=O)NC2=O)c2ccccc21

>  <Set>  (28) 
G2 active

>  <Set_type>  (28) 
Train

>  <MW>  (28) 
457.56

>  <HBD>  (28) 
3

>  <HBA>  (28) 
4

>  <NRB>  (28) 
6

>  <NR>  (28) 
5

>  <NAR>  (28) 
4

>  <PSA>  (28) 
105.9

>  <Standard Type>  (28) 
nan

>  <Standard Relation>  (28) 
nan

>  <Standard Units>  (28) 
nan

>  <Standard Value>  (28) 
nan

>  <Assay ChEMBL ID>  (28) 
nan

>  <Assay Description>  (28) 
nan

>  <BAO Label>  (28) 
nan

>  <bits>  (28) 
<rdkit.DataStructs.cDataStructs.ExplicitBitVect object at 0x00000210F8EB69D0>

>  <Group>  (28) 
G2

$$$$

     RDKit          2D

 33 37  0  0  0  0  0  0  0  0999 V2000
    2.7057    7.0241    0.0000 N   0  0  0  0  0  0  0  0  0  0  0  0
    1.3354    7.6342    0.0000 C   0  0  0  0  0  0  0  0  0  0  0  0
    1.1786    9.1259    0.0000 N   0  0  0  0  0  0  0  0  0  0  0  0
    0.1219    6.7525    0.0000 S   0  0  0  0  0  0  0  0  0  0  0  0
    0.2787    5.2607    0.0000 C   0  0  0  0  0  0  0  0  0  0  0  0
   -0.9348    4.3790    0.0000 C   0  0  0  0  0  0  0  0  0  0  0  0
   -0.7780    2.8872    0.0000 C   0  0  0  0  0  0  0  0  0  0  0  0
   -1.9916    2.0056    0.0000 N   0  0  0  0  0  0  0  0  0  0  0  0
   -1.9916    0.5056    0.0000 C   0  0  0  0  0  0  0  0  0  0  0  0
   -3.4182    0.0420    0.0000 C   0  0  0  0  0  0  0  0  0  0  0  0
   -3.8817   -1.3846    0.0000 C   0  0  0  0  0  0  0  0  0  0  0  0
   -3.0000   -2.5981    0.0000 C   0  0  0  0  0  0  0  0  0  0  0  0
   -1.5000   -2.5981    0.0000 C   0  0  0  0  0  0  0  0  0  0  0  0
   -0.7500   -3.8971    0.0000 C   0  0  0  0  0  0  0  0  0  0  0  0
    0.7500   -3.8971    0.0000 C   0  0  0  0  0  0  0  0  0  0  0  0
    1.5000   -2.5981    0.0000 C   0  0  0  0  0  0  0  0  0  0  0  0
    0.7500   -1.2990    0.0000 C   0  0  0  0  0  0  0  0  0  0  0  0
    1.5000    0.0000    0.0000 C   0  0  0  0  0  0  0  0  0  0  0  0
    0.7500    1.2990    0.0000 C   0  0  0  0  0  0  0  0  0  0  0  0
   -0.7500    1.2990    0.0000 C   0  0  0  0  0  0  0  0  0  0  0  0
   -1.5000    0.0000    0.0000 C   0  0  0  0  0  0  0  0  0  0  0  0
   -0.7500   -1.2990    0.0000 C   0  0  0  0  0  0  0  0  0  0  0  0
   -3.8817   -3.8116    0.0000 C   0  0  0  0  0  0  0  0  0  0  0  0
   -3.4182   -5.2382    0.0000 O   0  0  0  0  0  0  0  0  0  0  0  0
   -5.3083   -3.3481    0.0000 N   0  0  0  0  0  0  0  0  0  0  0  0
   -5.3083   -1.8481    0.0000 C   0  0  0  0  0  0  0  0  0  0  0  0
   -6.5218   -0.9664    0.0000 O   0  0  0  0  0  0  0  0  0  0  0  0
   -4.2998    1.2556    0.0000 C   0  0  0  0  0  0  0  0  0  0  0  0
   -5.7916    1.4124    0.0000 C   0  0  0  0  0  0  0  0  0  0  0  0
   -6.4017    2.7827    0.0000 C   0  0  0  0  0  0  0  0  0  0  0  0
   -5.5200    3.9962    0.0000 C   0  0  0  0  0  0  0  0  0  0  0  0
   -4.0283    3.8394    0.0000 C   0  0  0  0  0  0  0  0  0  0  0  0
   -3.4182    2.4691    0.0000 C   0  0  0  0  0  0  0  0  0  0  0  0
  1  2  2  0
  2  3  1  0
  2  4  1  0
  4  5  1  0
  5  6  1  0
  6  7  1  0
  7  8  1  0
  8  9  1  0
  9 10  2  0
 10 11  1  0
 11 12  2  0
 12 13  1  0
 13 14  2  0
 14 15  1  0
 15 16  2  0
 16 17  1  0
 17 18  2  0
 18 19  1  0
 19 20  2  0
 20 21  1  0
 21 22  2  0
 12 23  1  0
 23 24  2  0
 23 25  1  0
 25 26  1  0
 26 27  2  0
 10 28  1  0
 28 29  2  0
 29 30  1  0
 30 31  2  0
 31 32  1  0
 32 33  2  0
 33  8  1  0
 26 11  1  0
 33 28  1  0
 22 13  1  0
 22 17  1  0
M  END
>  <Compound_ID>  (29) 
CHEMBL163269

>  <Active>  (29) 
1

>  <Smiles>  (29) 
N=C(N)SCCCn1cc(C2=C(c3cccc4ccccc34)C(=O)NC2=O)c2ccccc21

>  <canonical_smi>  (29) 
N=C(N)SCCCn1cc(C2=C(c3cccc4ccccc34)C(=O)NC2=O)c2ccccc21

>  <Set>  (29) 
G2 active

>  <Set_type>  (29) 
Train

>  <MW>  (29) 
454.56

>  <HBD>  (29) 
3

>  <HBA>  (29) 
4

>  <NRB>  (29) 
6

>  <NR>  (29) 
5

>  <NAR>  (29) 
4

>  <PSA>  (29) 
100.97

>  <Standard Type>  (29) 
nan

>  <Standard Relation>  (29) 
nan

>  <Standard Units>  (29) 
nan

>  <Standard Value>  (29) 
nan

>  <Assay ChEMBL ID>  (29) 
nan

>  <Assay Description>  (29) 
nan

>  <BAO Label>  (29) 
nan

>  <bits>  (29) 
<rdkit.DataStructs.cDataStructs.ExplicitBitVect object at 0x00000210F8EB6B90>

>  <Group>  (29) 
G2

$$$$

     RDKit          2D

 36 41  0  0  0  0  0  0  0  0999 V2000
   -6.1170   -7.0506    0.0000 C   0  0  0  0  0  0  0  0  0  0  0  0
   -4.6904   -6.5871    0.0000 N   0  0  0  0  0  0  0  0  0  0  0  0
   -3.5757   -7.5908    0.0000 C   0  0  0  0  0  0  0  0  0  0  0  0
   -4.3786   -5.1199    0.0000 C   0  0  0  0  0  0  0  0  0  0  0  0
   -2.9520   -4.6564    0.0000 C   0  0  0  0  0  0  0  0  0  0  0  0
   -2.6401   -3.1891    0.0000 C   0  0  0  0  0  0  0  0  0  0  0  0
   -1.2135   -2.7256    0.0000 N   0  0  0  0  0  0  0  0  0  0  0  0
   -0.0000   -3.6073    0.0000 N   0  0  0  0  0  0  0  0  0  0  0  0
    1.2135   -2.7256    0.0000 C   0  0  0  0  0  0  0  0  0  0  0  0
    2.6401   -3.1891    0.0000 C   0  0  0  0  0  0  0  0  0  0  0  0
    3.8536   -2.3075    0.0000 C   0  0  0  0  0  0  0  0  0  0  0  0
    3.8536   -0.8075    0.0000 C   0  0  0  0  0  0  0  0  0  0  0  0
    2.6401    0.0742    0.0000 C   0  0  0  0  0  0  0  0  0  0  0  0
    3.1036    1.5008    0.0000 N   0  0  0  0  0  0  0  0  0  0  0  0
    2.2220    2.7143    0.0000 C   0  0  0  0  0  0  0  0  0  0  0  0
    0.7220    2.7143    0.0000 C   0  0  0  0  0  0  0  0  0  0  0  0
    0.2584    4.1409    0.0000 C   0  0  0  0  0  0  0  0  0  0  0  0
    1.4720    5.0226    0.0000 C   0  0  0  0  0  0  0  0  0  0  0  0
    2.6855    4.1409    0.0000 S   0  0  0  0  0  0  0  0  0  0  0  0
    4.6036    1.5008    0.0000 C   0  0  0  0  0  0  0  0  0  0  0  0
    5.6073    2.6155    0.0000 C   0  0  0  0  0  0  0  0  0  0  0  0
    7.0746    2.3036    0.0000 C   0  0  0  0  0  0  0  0  0  0  0  0
    7.5381    0.8771    0.0000 C   0  0  0  0  0  0  0  0  0  0  0  0
    6.5344   -0.2377    0.0000 C   0  0  0  0  0  0  0  0  0  0  0  0
    5.0672    0.0742    0.0000 C   0  0  0  0  0  0  0  0  0  0  0  0
    5.0672   -3.1891    0.0000 C   0  0  0  0  0  0  0  0  0  0  0  0
    6.4937   -2.7256    0.0000 O   0  0  0  0  0  0  0  0  0  0  0  0
    4.6036   -4.6157    0.0000 N   0  0  0  0  0  0  0  0  0  0  0  0
    3.1036   -4.6157    0.0000 C   0  0  0  0  0  0  0  0  0  0  0  0
    2.2220   -5.8293    0.0000 O   0  0  0  0  0  0  0  0  0  0  0  0
    0.7500   -1.2990    0.0000 C   0  0  0  0  0  0  0  0  0  0  0  0
    1.5000    0.0000    0.0000 C   0  0  0  0  0  0  0  0  0  0  0  0
    0.7500    1.2990    0.0000 C   0  0  0  0  0  0  0  0  0  0  0  0
   -0.7500    1.2990    0.0000 C   0  0  0  0  0  0  0  0  0  0  0  0
   -1.5000    0.0000    0.0000 C   0  0  0  0  0  0  0  0  0  0  0  0
   -0.7500   -1.2990    0.0000 C   0  0  0  0  0  0  0  0  0  0  0  0
  1  2  1  0
  2  3  1  0
  2  4  1  0
  4  5  1  0
  5  6  1  0
  6  7  1  0
  7  8  1  0
  8  9  2  0
  9 10  1  0
 10 11  2  0
 11 12  1  0
 12 13  2  0
 13 14  1  0
 14 15  1  0
 15 16  2  0
 16 17  1  0
 17 18  2  0
 18 19  1  0
 14 20  1  0
 20 21  2  0
 21 22  1  0
 22 23  2  0
 23 24  1  0
 24 25  2  0
 11 26  1  0
 26 27  2  0
 26 28  1  0
 28 29  1  0
 29 30  2  0
  9 31  1  0
 31 32  2  0
 32 33  1  0
 33 34  2  0
 34 35  1  0
 35 36  2  0
 36  7  1  0
 29 10  1  0
 36 31  1  0
 25 12  1  0
 19 15  1  0
 25 20  1  0
M  END
>  <Compound_ID>  (30) 
CHEMBL178945

>  <Active>  (30) 
1

>  <Smiles>  (30) 
CN(C)CCCn1nc(C2=C(c3cn(-c4cccs4)c4ccccc34)C(=O)NC2=O)c2ccccc21

>  <canonical_smi>  (30) 
CN(C)CCCn1nc(C2=C(c3cn(-c4cccs4)c4ccccc34)C(=O)NC2=O)c2ccccc21

>  <Set>  (30) 
G2 active

>  <Set_type>  (30) 
Train

>  <MW>  (30) 
495.61

>  <HBD>  (30) 
1

>  <HBA>  (30) 
4

>  <NRB>  (30) 
7

>  <NR>  (30) 
6

>  <NAR>  (30) 
5

>  <PSA>  (30) 
72.16

>  <Standard Type>  (30) 
nan

>  <Standard Relation>  (30) 
nan

>  <Standard Units>  (30) 
nan

>  <Standard Value>  (30) 
nan

>  <Assay ChEMBL ID>  (30) 
nan

>  <Assay Description>  (30) 
nan

>  <BAO Label>  (30) 
nan

>  <bits>  (30) 
<rdkit.DataStructs.cDataStructs.ExplicitBitVect object at 0x00000210F8EB6E30>

>  <Group>  (30) 
G2

$$$$

     RDKit          2D

 36 39  0  0  0  0  0  0  0  0999 V2000
    2.2872   -8.1206    0.0000 O   0  0  0  0  0  0  0  0  0  0  0  0
    3.2909   -7.0059    0.0000 C   0  0  0  0  0  0  0  0  0  0  0  0
    2.8273   -5.5793    0.0000 O   0  0  0  0  0  0  0  0  0  0  0  0
    1.3601   -5.2674    0.0000 C   0  0  0  0  0  0  0  0  0  0  0  0
    0.2454   -6.2711    0.0000 C   0  0  0  0  0  0  0  0  0  0  0  0
   -1.0537   -5.5211    0.0000 N   0  0  0  0  0  0  0  0  0  0  0  0
   -0.7418   -4.0539    0.0000 C   0  0  0  0  0  0  0  0  0  0  0  0
    0.7500   -3.8971    0.0000 C   0  0  0  0  0  0  0  0  0  0  0  0
    1.5000   -2.5981    0.0000 C   0  0  0  0  0  0  0  0  0  0  0  0
    0.7500   -1.2990    0.0000 C   0  0  0  0  0  0  0  0  0  0  0  0
    1.5000    0.0000    0.0000 C   0  0  0  0  0  0  0  0  0  0  0  0
    0.7500    1.2990    0.0000 C   0  0  0  0  0  0  0  0  0  0  0  0
   -0.7500    1.2990    0.0000 C   0  0  0  0  0  0  0  0  0  0  0  0
   -1.5000    2.5981    0.0000 O   0  0  0  0  0  0  0  0  0  0  0  0
   -1.5000    0.0000    0.0000 C   0  0  0  0  0  0  0  0  0  0  0  0
   -0.7500   -1.2990    0.0000 C   0  0  0  0  0  0  0  0  0  0  0  0
    4.7581   -7.3178    0.0000 C   0  0  0  0  0  0  0  0  0  0  0  0
    5.2216   -8.7443    0.0000 C   0  0  0  0  0  0  0  0  0  0  0  0
    6.6888   -9.0562    0.0000 C   0  0  0  0  0  0  0  0  0  0  0  0
    6.8766  -10.0223    0.0000 O   0  0  0  0  0  0  0  0  0  0  0  0
    7.6925   -7.9415    0.0000 C   0  0  0  0  0  0  0  0  0  0  0  0
    9.1597   -8.2534    0.0000 C   0  0  0  0  0  0  0  0  0  0  0  0
   10.1634   -7.1386    0.0000 O   0  0  0  0  0  0  0  0  0  0  0  0
    9.6233   -9.6799    0.0000 C   0  0  0  0  0  0  0  0  0  0  0  0
    8.6196  -10.7947    0.0000 C   0  0  0  0  0  0  0  0  0  0  0  0
    7.6392  -10.7089    0.0000 O   0  0  0  0  0  0  0  0  0  0  0  0
    9.0831  -12.2212    0.0000 C   0  0  0  0  0  0  0  0  0  0  0  0
   10.5503  -12.5331    0.0000 C   0  0  0  0  0  0  0  0  0  0  0  0
   11.5540  -11.4184    0.0000 C   0  0  0  0  0  0  0  0  0  0  0  0
   11.0905   -9.9918    0.0000 C   0  0  0  0  0  0  0  0  0  0  0  0
   12.0942   -8.8771    0.0000 C   0  0  0  0  0  0  0  0  0  0  0  0
   11.6307   -7.4505    0.0000 O   0  0  0  0  0  0  0  0  0  0  0  0
   13.5614   -9.1890    0.0000 O   0  0  0  0  0  0  0  0  0  0  0  0
    7.2290   -6.5149    0.0000 C   0  0  0  0  0  0  0  0  0  0  0  0
    8.2327   -5.4002    0.0000 O   0  0  0  0  0  0  0  0  0  0  0  0
    5.7618   -6.2030    0.0000 C   0  0  0  0  0  0  0  0  0  0  0  0
  1  2  2  0
  2  3  1  0
  3  4  1  0
  4  5  1  0
  5  6  1  0
  6  7  1  0
  7  8  1  0
  8  9  1  0
  9 10  1  0
 10 11  2  0
 11 12  1  0
 12 13  2  0
 13 14  1  0
 13 15  1  0
 15 16  2  0
  2 17  1  0
 17 18  2  0
 18 19  1  0
 19 20  1  0
 19 21  2  0
 21 22  1  0
 22 23  2  0
 22 24  1  0
 24 25  2  0
 25 26  1  0
 25 27  1  0
 27 28  2  0
 28 29  1  0
 29 30  2  0
 30 31  1  0
 31 32  2  0
 31 33  1  0
 21 34  1  0
 34 35  1  0
 34 36  2  0
  8  4  1  0
 16 10  1  0
 36 17  1  0
 30 24  1  0
M  END
>  <Compound_ID>  (31) 
CHEMBL300422

>  <Active>  (31) 
1

>  <Smiles>  (31) 
O=C(OC1CNCC1Cc1ccc(O)cc1)c1cc(O)c(C(=O)c2c(O)cccc2C(=O)O)c(O)c1

>  <canonical_smi>  (31) 
O=C(OC1CNCC1Cc1ccc(O)cc1)c1cc(O)c(C(=O)c2c(O)cccc2C(=O)O)c(O)c1

>  <Set>  (31) 
G2 active

>  <Set_type>  (31) 
Train

>  <MW>  (31) 
493.47

>  <HBD>  (31) 
6

>  <HBA>  (31) 
10

>  <NRB>  (31) 
7

>  <NR>  (31) 
4

>  <NAR>  (31) 
3

>  <PSA>  (31) 
173.62

>  <Standard Type>  (31) 
nan

>  <Standard Relation>  (31) 
nan

>  <Standard Units>  (31) 
nan

>  <Standard Value>  (31) 
nan

>  <Assay ChEMBL ID>  (31) 
nan

>  <Assay Description>  (31) 
nan

>  <BAO Label>  (31) 
nan

>  <bits>  (31) 
<rdkit.DataStructs.cDataStructs.ExplicitBitVect object at 0x00000210F8EB6EA0>

>  <Group>  (31) 
G2

$$$$

     RDKit          2D

 33 39  0  0  0  0  0  0  0  0999 V2000
    4.2660   -1.2584    0.0000 O   0  0  0  0  0  0  0  0  0  0  0  0
    3.9542   -2.7256    0.0000 C   0  0  0  0  0  0  0  0  0  0  0  0
    4.9579   -3.8403    0.0000 N   0  0  0  0  0  0  0  0  0  0  0  0
    4.2079   -5.1394    0.0000 C   0  0  0  0  0  0  0  0  0  0  0  0
    4.8180   -6.5097    0.0000 O   0  0  0  0  0  0  0  0  0  0  0  0
    2.7406   -4.8275    0.0000 C   0  0  0  0  0  0  0  0  0  0  0  0
    2.5838   -3.3357    0.0000 C   0  0  0  0  0  0  0  0  0  0  0  0
    1.2135   -2.7256    0.0000 C   0  0  0  0  0  0  0  0  0  0  0  0
    0.7500   -1.2990    0.0000 C   0  0  0  0  0  0  0  0  0  0  0  0
    1.5000    0.0000    0.0000 C   0  0  0  0  0  0  0  0  0  0  0  0
    0.7500    1.2990    0.0000 C   0  0  0  0  0  0  0  0  0  0  0  0
   -0.7500    1.2990    0.0000 C   0  0  0  0  0  0  0  0  0  0  0  0
   -1.5000    0.0000    0.0000 C   0  0  0  0  0  0  0  0  0  0  0  0
   -0.7500   -1.2990    0.0000 C   0  0  0  0  0  0  0  0  0  0  0  0
   -1.2135   -2.7256    0.0000 N   0  0  0  0  0  0  0  0  0  0  0  0
    0.0000   -3.6073    0.0000 C   0  0  0  0  0  0  0  0  0  0  0  0
    0.1568   -5.0991    0.0000 C   0  0  0  0  0  0  0  0  0  0  0  0
    1.5271   -5.7092    0.0000 C   0  0  0  0  0  0  0  0  0  0  0  0
    1.3703   -7.2010    0.0000 C   0  0  0  0  0  0  0  0  0  0  0  0
    2.3740   -8.3157    0.0000 C   0  0  0  0  0  0  0  0  0  0  0  0
    1.9105   -9.7423    0.0000 C   0  0  0  0  0  0  0  0  0  0  0  0
    0.4433  -10.0541    0.0000 C   0  0  0  0  0  0  0  0  0  0  0  0
   -0.5604   -8.9394    0.0000 C   0  0  0  0  0  0  0  0  0  0  0  0
   -0.0969   -7.5128    0.0000 C   0  0  0  0  0  0  0  0  0  0  0  0
   -0.8469   -6.2138    0.0000 N   0  0  0  0  0  0  0  0  0  0  0  0
   -2.3362   -6.0347    0.0000 C   0  0  0  0  0  0  0  0  0  0  0  0
   -3.1247   -4.7587    0.0000 N   0  0  0  0  0  0  0  0  0  0  0  0
   -4.6165   -4.9155    0.0000 C   0  0  0  0  0  0  0  0  0  0  0  0
   -5.4982   -3.7020    0.0000 C   0  0  0  0  0  0  0  0  0  0  0  0
   -6.9899   -3.8587    0.0000 O   0  0  0  0  0  0  0  0  0  0  0  0
   -5.2266   -6.2858    0.0000 C   0  0  0  0  0  0  0  0  0  0  0  0
   -6.7184   -6.4426    0.0000 O   0  0  0  0  0  0  0  0  0  0  0  0
   -2.6187   -3.3466    0.0000 C   0  0  0  0  0  0  0  0  0  0  0  0
  1  2  2  0
  2  3  1  0
  3  4  1  0
  4  5  2  0
  4  6  1  0
  6  7  2  0
  7  8  1  0
  8  9  1  0
  9 10  2  0
 10 11  1  0
 11 12  2  0
 12 13  1  0
 13 14  2  0
 14 15  1  0
 15 16  1  0
 16 17  1  0
 17 18  2  0
 18 19  1  0
 19 20  2  0
 20 21  1  0
 21 22  2  0
 22 23  1  0
 23 24  2  0
 24 25  1  0
 25 26  1  0
 26 27  1  0
 27 28  1  0
 28 29  1  0
 29 30  1  0
 28 31  1  0
 31 32  1  0
 27 33  1  0
  7  2  1  0
 16  8  2  0
 25 17  1  0
 18  6  1  0
 24 19  1  0
 14  9  1  0
 33 15  1  0
M  END
>  <Compound_ID>  (32) 
CHEMBL285613

>  <Active>  (32) 
1

>  <Smiles>  (32) 
O=C1NC(=O)c2c1c1c3ccccc3n3c1c1c2c2ccccc2n1CN(C(CO)CO)C3

>  <canonical_smi>  (32) 
O=C1NC(=O)c2c1c1c3ccccc3n3c1c1c2c2ccccc2n1CN(C(CO)CO)C3

>  <Set>  (32) 
G2 active

>  <Set_type>  (32) 
Train

>  <MW>  (32) 
440.46

>  <HBD>  (32) 
3

>  <HBA>  (32) 
5

>  <NRB>  (32) 
3

>  <NR>  (32) 
7

>  <NAR>  (32) 
5

>  <PSA>  (32) 
99.73

>  <Standard Type>  (32) 
nan

>  <Standard Relation>  (32) 
nan

>  <Standard Units>  (32) 
nan

>  <Standard Value>  (32) 
nan

>  <Assay ChEMBL ID>  (32) 
nan

>  <Assay Description>  (32) 
nan

>  <BAO Label>  (32) 
nan

>  <bits>  (32) 
<rdkit.DataStructs.cDataStructs.ExplicitBitVect object at 0x00000210F8EB6F10>

>  <Group>  (32) 
G2

$$$$

     RDKit          2D

 37 42  0  0  0  0  0  0  0  0999 V2000
   -6.1170   -7.0506    0.0000 C   0  0  0  0  0  0  0  0  0  0  0  0
   -4.6904   -6.5871    0.0000 N   0  0  0  0  0  0  0  0  0  0  0  0
   -3.5757   -7.5908    0.0000 C   0  0  0  0  0  0  0  0  0  0  0  0
   -4.3786   -5.1199    0.0000 C   0  0  0  0  0  0  0  0  0  0  0  0
   -2.9520   -4.6564    0.0000 C   0  0  0  0  0  0  0  0  0  0  0  0
   -2.6401   -3.1891    0.0000 C   0  0  0  0  0  0  0  0  0  0  0  0
   -1.2135   -2.7256    0.0000 N   0  0  0  0  0  0  0  0  0  0  0  0
   -0.0000   -3.6073    0.0000 N   0  0  0  0  0  0  0  0  0  0  0  0
    1.2135   -2.7256    0.0000 C   0  0  0  0  0  0  0  0  0  0  0  0
    2.6401   -3.1891    0.0000 C   0  0  0  0  0  0  0  0  0  0  0  0
    3.8536   -2.3075    0.0000 C   0  0  0  0  0  0  0  0  0  0  0  0
    3.8536   -0.8075    0.0000 C   0  0  0  0  0  0  0  0  0  0  0  0
    2.6401    0.0742    0.0000 C   0  0  0  0  0  0  0  0  0  0  0  0
    3.1036    1.5008    0.0000 N   0  0  0  0  0  0  0  0  0  0  0  0
    2.2220    2.7143    0.0000 C   0  0  0  0  0  0  0  0  0  0  0  0
    2.8321    4.0846    0.0000 C   0  0  0  0  0  0  0  0  0  0  0  0
    1.9504    5.2982    0.0000 C   0  0  0  0  0  0  0  0  0  0  0  0
    0.4586    5.1414    0.0000 C   0  0  0  0  0  0  0  0  0  0  0  0
   -0.1515    3.7711    0.0000 C   0  0  0  0  0  0  0  0  0  0  0  0
    0.7302    2.5575    0.0000 C   0  0  0  0  0  0  0  0  0  0  0  0
    4.6036    1.5008    0.0000 C   0  0  0  0  0  0  0  0  0  0  0  0
    5.6073    2.6155    0.0000 C   0  0  0  0  0  0  0  0  0  0  0  0
    7.0746    2.3036    0.0000 C   0  0  0  0  0  0  0  0  0  0  0  0
    7.5381    0.8771    0.0000 C   0  0  0  0  0  0  0  0  0  0  0  0
    6.5344   -0.2377    0.0000 C   0  0  0  0  0  0  0  0  0  0  0  0
    5.0672    0.0742    0.0000 C   0  0  0  0  0  0  0  0  0  0  0  0
    5.0672   -3.1891    0.0000 C   0  0  0  0  0  0  0  0  0  0  0  0
    6.4937   -2.7256    0.0000 O   0  0  0  0  0  0  0  0  0  0  0  0
    4.6036   -4.6157    0.0000 N   0  0  0  0  0  0  0  0  0  0  0  0
    3.1036   -4.6157    0.0000 C   0  0  0  0  0  0  0  0  0  0  0  0
    2.2220   -5.8293    0.0000 O   0  0  0  0  0  0  0  0  0  0  0  0
    0.7500   -1.2990    0.0000 C   0  0  0  0  0  0  0  0  0  0  0  0
    1.5000    0.0000    0.0000 C   0  0  0  0  0  0  0  0  0  0  0  0
    0.7500    1.2990    0.0000 C   0  0  0  0  0  0  0  0  0  0  0  0
   -0.7500    1.2990    0.0000 C   0  0  0  0  0  0  0  0  0  0  0  0
   -1.5000    0.0000    0.0000 C   0  0  0  0  0  0  0  0  0  0  0  0
   -0.7500   -1.2990    0.0000 C   0  0  0  0  0  0  0  0  0  0  0  0
  1  2  1  0
  2  3  1  0
  2  4  1  0
  4  5  1  0
  5  6  1  0
  6  7  1  0
  7  8  1  0
  8  9  2  0
  9 10  1  0
 10 11  2  0
 11 12  1  0
 12 13  2  0
 13 14  1  0
 14 15  1  0
 15 16  2  0
 16 17  1  0
 17 18  2  0
 18 19  1  0
 19 20  2  0
 14 21  1  0
 21 22  2  0
 22 23  1  0
 23 24  2  0
 24 25  1  0
 25 26  2  0
 11 27  1  0
 27 28  2  0
 27 29  1  0
 29 30  1  0
 30 31  2  0
  9 32  1  0
 32 33  2  0
 33 34  1  0
 34 35  2  0
 35 36  1  0
 36 37  2  0
 37  7  1  0
 30 10  1  0
 37 32  1  0
 26 12  1  0
 20 15  1  0
 26 21  1  0
M  END
>  <Compound_ID>  (33) 
CHEMBL366668

>  <Active>  (33) 
1

>  <Smiles>  (33) 
CN(C)CCCn1nc(C2=C(c3cn(-c4ccccc4)c4ccccc34)C(=O)NC2=O)c2ccccc21

>  <canonical_smi>  (33) 
CN(C)CCCn1nc(C2=C(c3cn(-c4ccccc4)c4ccccc34)C(=O)NC2=O)c2ccccc21

>  <Set>  (33) 
G2 active

>  <Set_type>  (33) 
Train

>  <MW>  (33) 
489.58

>  <HBD>  (33) 
1

>  <HBA>  (33) 
4

>  <NRB>  (33) 
7

>  <NR>  (33) 
6

>  <NAR>  (33) 
5

>  <PSA>  (33) 
72.16

>  <Standard Type>  (33) 
nan

>  <Standard Relation>  (33) 
nan

>  <Standard Units>  (33) 
nan

>  <Standard Value>  (33) 
nan

>  <Assay ChEMBL ID>  (33) 
nan

>  <Assay Description>  (33) 
nan

>  <BAO Label>  (33) 
nan

>  <bits>  (33) 
<rdkit.DataStructs.cDataStructs.ExplicitBitVect object at 0x00000210F8EB7300>

>  <Group>  (33) 
G2

$$$$

     RDKit          2D

 30 36  0  0  0  0  0  0  0  0999 V2000
    4.2660   -1.2584    0.0000 O   0  0  0  0  0  0  0  0  0  0  0  0
    3.9542   -2.7256    0.0000 C   0  0  0  0  0  0  0  0  0  0  0  0
    4.9579   -3.8403    0.0000 N   0  0  0  0  0  0  0  0  0  0  0  0
    4.2079   -5.1394    0.0000 C   0  0  0  0  0  0  0  0  0  0  0  0
    2.7406   -4.8275    0.0000 C   0  0  0  0  0  0  0  0  0  0  0  0
    2.5838   -3.3357    0.0000 C   0  0  0  0  0  0  0  0  0  0  0  0
    1.2135   -2.7256    0.0000 C   0  0  0  0  0  0  0  0  0  0  0  0
    0.7500   -1.2990    0.0000 C   0  0  0  0  0  0  0  0  0  0  0  0
    1.5000    0.0000    0.0000 C   0  0  0  0  0  0  0  0  0  0  0  0
    0.7500    1.2990    0.0000 C   0  0  0  0  0  0  0  0  0  0  0  0
   -0.7500    1.2990    0.0000 C   0  0  0  0  0  0  0  0  0  0  0  0
   -1.5000    0.0000    0.0000 C   0  0  0  0  0  0  0  0  0  0  0  0
   -0.7500   -1.2990    0.0000 C   0  0  0  0  0  0  0  0  0  0  0  0
   -1.2135   -2.7256    0.0000 N   0  0  0  0  0  0  0  0  0  0  0  0
    0.0000   -3.6073    0.0000 C   0  0  0  0  0  0  0  0  0  0  0  0
    0.1568   -5.0991    0.0000 C   0  0  0  0  0  0  0  0  0  0  0  0
    1.5271   -5.7092    0.0000 C   0  0  0  0  0  0  0  0  0  0  0  0
    1.3703   -7.2010    0.0000 C   0  0  0  0  0  0  0  0  0  0  0  0
    2.3740   -8.3157    0.0000 C   0  0  0  0  0  0  0  0  0  0  0  0
    1.9105   -9.7423    0.0000 C   0  0  0  0  0  0  0  0  0  0  0  0
    0.4433  -10.0541    0.0000 C   0  0  0  0  0  0  0  0  0  0  0  0
   -0.5604   -8.9394    0.0000 C   0  0  0  0  0  0  0  0  0  0  0  0
   -0.0969   -7.5128    0.0000 C   0  0  0  0  0  0  0  0  0  0  0  0
   -0.8469   -6.2138    0.0000 N   0  0  0  0  0  0  0  0  0  0  0  0
   -2.3362   -6.0347    0.0000 C   0  0  0  0  0  0  0  0  0  0  0  0
   -3.1247   -4.7587    0.0000 N   0  0  0  0  0  0  0  0  0  0  0  0
   -4.6165   -4.9155    0.0000 C   0  0  0  0  0  0  0  0  0  0  0  0
   -5.4982   -3.7020    0.0000 C   0  0  0  0  0  0  0  0  0  0  0  0
   -6.9899   -3.8587    0.0000 O   0  0  0  0  0  0  0  0  0  0  0  0
   -2.6187   -3.3466    0.0000 C   0  0  0  0  0  0  0  0  0  0  0  0
  1  2  2  0
  2  3  1  0
  3  4  1  0
  4  5  1  0
  5  6  2  0
  6  7  1  0
  7  8  1  0
  8  9  2  0
  9 10  1  0
 10 11  2  0
 11 12  1  0
 12 13  2  0
 13 14  1  0
 14 15  1  0
 15 16  1  0
 16 17  2  0
 17 18  1  0
 18 19  2  0
 19 20  1  0
 20 21  2  0
 21 22  1  0
 22 23  2  0
 23 24  1  0
 24 25  1  0
 25 26  1  0
 26 27  1  0
 27 28  1  0
 28 29  1  0
 26 30  1  0
  6  2  1  0
 15  7  2  0
 24 16  1  0
 17  5  1  0
 23 18  1  0
 13  8  1  0
 30 14  1  0
M  END
>  <Compound_ID>  (34) 
CHEMBL26817

>  <Active>  (34) 
1

>  <Smiles>  (34) 
O=C1NCc2c1c1c3ccccc3n3c1c1c2c2ccccc2n1CN(CCO)C3

>  <canonical_smi>  (34) 
O=C1NCc2c1c1c3ccccc3n3c1c1c2c2ccccc2n1CN(CCO)C3

>  <Set>  (34) 
G2 active

>  <Set_type>  (34) 
Train

>  <MW>  (34) 
396.45

>  <HBD>  (34) 
2

>  <HBA>  (34) 
3

>  <NRB>  (34) 
2

>  <NR>  (34) 
7

>  <NAR>  (34) 
5

>  <PSA>  (34) 
62.43

>  <Standard Type>  (34) 
nan

>  <Standard Relation>  (34) 
nan

>  <Standard Units>  (34) 
nan

>  <Standard Value>  (34) 
nan

>  <Assay ChEMBL ID>  (34) 
nan

>  <Assay Description>  (34) 
nan

>  <BAO Label>  (34) 
nan

>  <bits>  (34) 
<rdkit.DataStructs.cDataStructs.ExplicitBitVect object at 0x00000210F8EB73E0>

>  <Group>  (34) 
G2

$$$$

     RDKit          2D

 33 38  0  0  0  0  0  0  0  0999 V2000
   -2.2220    2.7143    0.0000 C   0  0  0  0  0  0  0  0  0  0  0  0
   -3.1036    1.5008    0.0000 N   0  0  0  0  0  0  0  0  0  0  0  0
   -2.6401    0.0742    0.0000 C   0  0  0  0  0  0  0  0  0  0  0  0
   -3.8536   -0.8075    0.0000 C   0  0  0  0  0  0  0  0  0  0  0  0
   -3.8536   -2.3075    0.0000 C   0  0  0  0  0  0  0  0  0  0  0  0
   -2.6401   -3.1891    0.0000 C   0  0  0  0  0  0  0  0  0  0  0  0
   -1.2135   -2.7256    0.0000 C   0  0  0  0  0  0  0  0  0  0  0  0
   -0.0000   -3.6073    0.0000 C   0  0  0  0  0  0  0  0  0  0  0  0
    1.2135   -2.7256    0.0000 N   0  0  0  0  0  0  0  0  0  0  0  0
    0.7500   -1.2990    0.0000 C   0  0  0  0  0  0  0  0  0  0  0  0
    1.5000    0.0000    0.0000 C   0  0  0  0  0  0  0  0  0  0  0  0
    0.7500    1.2990    0.0000 C   0  0  0  0  0  0  0  0  0  0  0  0
   -0.7500    1.2990    0.0000 C   0  0  0  0  0  0  0  0  0  0  0  0
   -1.5000    0.0000    0.0000 C   0  0  0  0  0  0  0  0  0  0  0  0
   -0.7500   -1.2990    0.0000 C   0  0  0  0  0  0  0  0  0  0  0  0
    2.6595   -3.1247    0.0000 C   0  0  0  0  0  0  0  0  0  0  0  0
    3.2490   -4.5040    0.0000 C   0  0  0  0  0  0  0  0  0  0  0  0
    2.5382   -5.8249    0.0000 C   0  0  0  0  0  0  0  0  0  0  0  0
    3.4199   -7.0384    0.0000 C   0  0  0  0  0  0  0  0  0  0  0  0
    2.8098   -8.4087    0.0000 N   0  0  0  0  0  0  0  0  0  0  0  0
    1.0623   -6.0927    0.0000 C   0  0  0  0  0  0  0  0  0  0  0  0
   -0.0673   -5.1058    0.0000 C   0  0  0  0  0  0  0  0  0  0  0  0
   -3.1036   -4.6157    0.0000 C   0  0  0  0  0  0  0  0  0  0  0  0
   -2.2220   -5.8293    0.0000 O   0  0  0  0  0  0  0  0  0  0  0  0
   -4.6036   -4.6157    0.0000 N   0  0  0  0  0  0  0  0  0  0  0  0
   -5.0672   -3.1891    0.0000 C   0  0  0  0  0  0  0  0  0  0  0  0
   -6.4937   -2.7256    0.0000 O   0  0  0  0  0  0  0  0  0  0  0  0
   -5.0672    0.0742    0.0000 C   0  0  0  0  0  0  0  0  0  0  0  0
   -6.5344   -0.2377    0.0000 C   0  0  0  0  0  0  0  0  0  0  0  0
   -7.5381    0.8771    0.0000 C   0  0  0  0  0  0  0  0  0  0  0  0
   -7.0746    2.3036    0.0000 C   0  0  0  0  0  0  0  0  0  0  0  0
   -5.6073    2.6155    0.0000 C   0  0  0  0  0  0  0  0  0  0  0  0
   -4.6036    1.5008    0.0000 C   0  0  0  0  0  0  0  0  0  0  0  0
  1  2  1  0
  2  3  1  0
  3  4  2  0
  4  5  1  0
  5  6  2  0
  6  7  1  0
  7  8  2  0
  8  9  1  0
  9 10  1  0
 10 11  2  0
 11 12  1  0
 12 13  2  0
 13 14  1  0
 14 15  2  0
  9 16  1  0
 16 17  1  0
 17 18  1  0
 18 19  1  0
 19 20  1  0
 18 21  1  0
 21 22  1  0
  6 23  1  0
 23 24  2  0
 23 25  1  0
 25 26  1  0
 26 27  2  0
  4 28  1  0
 28 29  2  0
 29 30  1  0
 30 31  2  0
 31 32  1  0
 32 33  2  0
 33  2  1  0
 26  5  1  0
 33 28  1  0
 15  7  1  0
 22  8  1  0
 15 10  1  0
M  END
>  <Compound_ID>  (35) 
CHEMBL327723

>  <Active>  (35) 
1

>  <Smiles>  (35) 
Cn1cc(C2=C(c3c4n(c5ccccc35)CCC(CN)CC4)C(=O)NC2=O)c2ccccc21

>  <canonical_smi>  (35) 
Cn1cc(C2=C(c3c4n(c5ccccc35)CCC(CN)CC4)C(=O)NC2=O)c2ccccc21

>  <Set>  (35) 
G2 active

>  <Set_type>  (35) 
Train

>  <MW>  (35) 
438.53

>  <HBD>  (35) 
2

>  <HBA>  (35) 
3

>  <NRB>  (35) 
3

>  <NR>  (35) 
6

>  <NAR>  (35) 
4

>  <PSA>  (35) 
82.05

>  <Standard Type>  (35) 
nan

>  <Standard Relation>  (35) 
nan

>  <Standard Units>  (35) 
nan

>  <Standard Value>  (35) 
nan

>  <Assay ChEMBL ID>  (35) 
nan

>  <Assay Description>  (35) 
nan

>  <BAO Label>  (35) 
nan

>  <bits>  (35) 
<rdkit.DataStructs.cDataStructs.ExplicitBitVect object at 0x00000210F8EB74C0>

>  <Group>  (35) 
G2

$$$$

     RDKit          2D

 29 35  0  0  0  0  0  0  0  0999 V2000
    4.2660   -1.2584    0.0000 O   0  0  0  0  0  0  0  0  0  0  0  0
    3.9542   -2.7256    0.0000 C   0  0  0  0  0  0  0  0  0  0  0  0
    4.9579   -3.8403    0.0000 N   0  0  0  0  0  0  0  0  0  0  0  0
    4.2079   -5.1394    0.0000 C   0  0  0  0  0  0  0  0  0  0  0  0
    4.8180   -6.5097    0.0000 O   0  0  0  0  0  0  0  0  0  0  0  0
    2.7406   -4.8275    0.0000 C   0  0  0  0  0  0  0  0  0  0  0  0
    2.5838   -3.3357    0.0000 C   0  0  0  0  0  0  0  0  0  0  0  0
    1.2135   -2.7256    0.0000 C   0  0  0  0  0  0  0  0  0  0  0  0
    0.7500   -1.2990    0.0000 C   0  0  0  0  0  0  0  0  0  0  0  0
    1.5000    0.0000    0.0000 C   0  0  0  0  0  0  0  0  0  0  0  0
    0.7500    1.2990    0.0000 C   0  0  0  0  0  0  0  0  0  0  0  0
   -0.7500    1.2990    0.0000 C   0  0  0  0  0  0  0  0  0  0  0  0
   -1.5000    0.0000    0.0000 C   0  0  0  0  0  0  0  0  0  0  0  0
   -0.7500   -1.2990    0.0000 C   0  0  0  0  0  0  0  0  0  0  0  0
   -1.2135   -2.7256    0.0000 N   0  0  0  0  0  0  0  0  0  0  0  0
    0.0000   -3.6073    0.0000 C   0  0  0  0  0  0  0  0  0  0  0  0
    0.1568   -5.0991    0.0000 C   0  0  0  0  0  0  0  0  0  0  0  0
    1.5271   -5.7092    0.0000 C   0  0  0  0  0  0  0  0  0  0  0  0
    1.3703   -7.2010    0.0000 C   0  0  0  0  0  0  0  0  0  0  0  0
    2.3740   -8.3157    0.0000 C   0  0  0  0  0  0  0  0  0  0  0  0
    1.9105   -9.7423    0.0000 C   0  0  0  0  0  0  0  0  0  0  0  0
    0.4433  -10.0541    0.0000 C   0  0  0  0  0  0  0  0  0  0  0  0
   -0.5604   -8.9394    0.0000 C   0  0  0  0  0  0  0  0  0  0  0  0
   -0.0969   -7.5128    0.0000 C   0  0  0  0  0  0  0  0  0  0  0  0
   -0.8469   -6.2138    0.0000 N   0  0  0  0  0  0  0  0  0  0  0  0
   -2.3362   -6.0347    0.0000 C   0  0  0  0  0  0  0  0  0  0  0  0
   -3.1247   -4.7587    0.0000 S   0  0  0  0  0  0  0  0  0  0  0  0
   -4.6165   -4.9155    0.0000 O   0  0  0  0  0  0  0  0  0  0  0  0
   -2.6187   -3.3466    0.0000 C   0  0  0  0  0  0  0  0  0  0  0  0
  1  2  2  0
  2  3  1  0
  3  4  1  0
  4  5  2  0
  4  6  1  0
  6  7  2  0
  7  8  1  0
  8  9  1  0
  9 10  2  0
 10 11  1  0
 11 12  2  0
 12 13  1  0
 13 14  2  0
 14 15  1  0
 15 16  1  0
 16 17  1  0
 17 18  2  0
 18 19  1  0
 19 20  2  0
 20 21  1  0
 21 22  2  0
 22 23  1  0
 23 24  2  0
 24 25  1  0
 25 26  1  0
 26 27  1  0
 27 28  2  0
 27 29  1  0
  7  2  1  0
 16  8  2  0
 25 17  1  0
 18  6  1  0
 24 19  1  0
 14  9  1  0
 29 15  1  0
M  END
>  <Compound_ID>  (36) 
CHEMBL27387

>  <Active>  (36) 
1

>  <Smiles>  (36) 
O=C1NC(=O)c2c1c1c3ccccc3n3c1c1c2c2ccccc2n1CS(=O)C3

>  <canonical_smi>  (36) 
O=C1NC(=O)c2c1c1c3ccccc3n3c1c1c2c2ccccc2n1CS(=O)C3

>  <Set>  (36) 
G2 active

>  <Set_type>  (36) 
Train

>  <MW>  (36) 
399.43

>  <HBD>  (36) 
1

>  <HBA>  (36) 
3

>  <NRB>  (36) 
0

>  <NR>  (36) 
7

>  <NAR>  (36) 
5

>  <PSA>  (36) 
73.1

>  <Standard Type>  (36) 
nan

>  <Standard Relation>  (36) 
nan

>  <Standard Units>  (36) 
nan

>  <Standard Value>  (36) 
nan

>  <Assay ChEMBL ID>  (36) 
nan

>  <Assay Description>  (36) 
nan

>  <BAO Label>  (36) 
nan

>  <bits>  (36) 
<rdkit.DataStructs.cDataStructs.ExplicitBitVect object at 0x00000210F8EB7530>

>  <Group>  (36) 
G2

$$$$

     RDKit          2D

 32 36  0  0  0  0  0  0  0  0999 V2000
   -8.0346   -3.5760    0.0000 N   0  0  0  0  0  0  0  0  0  0  0  0
   -7.7227   -2.1088    0.0000 C   0  0  0  0  0  0  0  0  0  0  0  0
   -8.8374   -1.1051    0.0000 N   0  0  0  0  0  0  0  0  0  0  0  0
   -6.2961   -1.6453    0.0000 S   0  0  0  0  0  0  0  0  0  0  0  0
   -5.1814   -2.6490    0.0000 C   0  0  0  0  0  0  0  0  0  0  0  0
   -3.7548   -2.1855    0.0000 C   0  0  0  0  0  0  0  0  0  0  0  0
   -2.6401   -3.1891    0.0000 C   0  0  0  0  0  0  0  0  0  0  0  0
   -1.2135   -2.7256    0.0000 N   0  0  0  0  0  0  0  0  0  0  0  0
   -0.0000   -3.6073    0.0000 C   0  0  0  0  0  0  0  0  0  0  0  0
   -0.0000   -5.1073    0.0000 C   0  0  0  0  0  0  0  0  0  0  0  0
   -1.2135   -5.9890    0.0000 C   0  0  0  0  0  0  0  0  0  0  0  0
   -0.7500   -7.4156    0.0000 C   0  0  0  0  0  0  0  0  0  0  0  0
   -1.5000   -8.7146    0.0000 C   0  0  0  0  0  0  0  0  0  0  0  0
   -0.7500  -10.0136    0.0000 C   0  0  0  0  0  0  0  0  0  0  0  0
    0.7500  -10.0136    0.0000 C   0  0  0  0  0  0  0  0  0  0  0  0
    1.5000   -8.7146    0.0000 C   0  0  0  0  0  0  0  0  0  0  0  0
    0.7500   -7.4156    0.0000 C   0  0  0  0  0  0  0  0  0  0  0  0
    1.2135   -5.9890    0.0000 O   0  0  0  0  0  0  0  0  0  0  0  0
    1.2135   -2.7256    0.0000 C   0  0  0  0  0  0  0  0  0  0  0  0
    2.6401   -3.1891    0.0000 C   0  0  0  0  0  0  0  0  0  0  0  0
    3.8536   -2.3075    0.0000 C   0  0  0  0  0  0  0  0  0  0  0  0
    5.0672   -3.1891    0.0000 C   0  0  0  0  0  0  0  0  0  0  0  0
    6.4937   -2.7256    0.0000 O   0  0  0  0  0  0  0  0  0  0  0  0
    4.6036   -4.6157    0.0000 N   0  0  0  0  0  0  0  0  0  0  0  0
    3.1036   -4.6157    0.0000 C   0  0  0  0  0  0  0  0  0  0  0  0
    2.2220   -5.8293    0.0000 O   0  0  0  0  0  0  0  0  0  0  0  0
    0.7500   -1.2990    0.0000 C   0  0  0  0  0  0  0  0  0  0  0  0
    1.5000    0.0000    0.0000 C   0  0  0  0  0  0  0  0  0  0  0  0
    0.7500    1.2990    0.0000 C   0  0  0  0  0  0  0  0  0  0  0  0
   -0.7500    1.2990    0.0000 C   0  0  0  0  0  0  0  0  0  0  0  0
   -1.5000    0.0000    0.0000 C   0  0  0  0  0  0  0  0  0  0  0  0
   -0.7500   -1.2990    0.0000 C   0  0  0  0  0  0  0  0  0  0  0  0
  1  2  2  0
  2  3  1  0
  2  4  1  0
  4  5  1  0
  5  6  1  0
  6  7  1  0
  7  8  1  0
  8  9  1  0
  9 10  1  0
 10 11  2  0
 11 12  1  0
 12 13  2  0
 13 14  1  0
 14 15  2  0
 15 16  1  0
 16 17  2  0
 17 18  1  0
  9 19  2  0
 19 20  1  0
 20 21  2  0
 21 22  1  0
 22 23  2  0
 22 24  1  0
 24 25  1  0
 25 26  2  0
 19 27  1  0
 27 28  2  0
 28 29  1  0
 29 30  2  0
 30 31  1  0
 31 32  2  0
 32  8  1  0
 18 10  1  0
 25 20  1  0
 32 27  1  0
 17 12  1  0
M  END
>  <Compound_ID>  (37) 
CHEMBL435868

>  <Active>  (37) 
1

>  <Smiles>  (37) 
N=C(N)SCCCn1c(-c2cc3ccccc3o2)c(C2=CC(=O)NC2=O)c2ccccc21

>  <canonical_smi>  (37) 
N=C(N)SCCCn1c(-c2cc3ccccc3o2)c(C2=CC(=O)NC2=O)c2ccccc21

>  <Set>  (37) 
G2 active

>  <Set_type>  (37) 
Train

>  <MW>  (37) 
444.52

>  <HBD>  (37) 
3

>  <HBA>  (37) 
5

>  <NRB>  (37) 
6

>  <NR>  (37) 
5

>  <NAR>  (37) 
4

>  <PSA>  (37) 
114.11

>  <Standard Type>  (37) 
nan

>  <Standard Relation>  (37) 
nan

>  <Standard Units>  (37) 
nan

>  <Standard Value>  (37) 
nan

>  <Assay ChEMBL ID>  (37) 
nan

>  <Assay Description>  (37) 
nan

>  <BAO Label>  (37) 
nan

>  <bits>  (37) 
<rdkit.DataStructs.cDataStructs.ExplicitBitVect object at 0x00000210F8EB75A0>

>  <Group>  (37) 
G2

$$$$

     RDKit          2D

 36 39  0  0  0  0  0  0  0  0999 V2000
    2.2872   -8.1206    0.0000 O   0  0  0  0  0  0  0  0  0  0  0  0
    3.2909   -7.0059    0.0000 C   0  0  0  0  0  0  0  0  0  0  0  0
    2.8273   -5.5793    0.0000 O   0  0  0  0  0  0  0  0  0  0  0  0
    1.3601   -5.2674    0.0000 C   0  0  0  0  0  0  0  0  0  0  0  0
    0.2454   -6.2711    0.0000 C   0  0  0  0  0  0  0  0  0  0  0  0
   -1.0537   -5.5211    0.0000 C   0  0  0  0  0  0  0  0  0  0  0  0
   -0.7418   -4.0539    0.0000 C   0  0  0  0  0  0  0  0  0  0  0  0
    0.7500   -3.8971    0.0000 C   0  0  0  0  0  0  0  0  0  0  0  0
    1.5000   -2.5981    0.0000 O   0  0  0  0  0  0  0  0  0  0  0  0
    0.7500   -1.2990    0.0000 C   0  0  0  0  0  0  0  0  0  0  0  0
    1.5000    0.0000    0.0000 C   0  0  0  0  0  0  0  0  0  0  0  0
    0.7500    1.2990    0.0000 C   0  0  0  0  0  0  0  0  0  0  0  0
   -0.7500    1.2990    0.0000 C   0  0  0  0  0  0  0  0  0  0  0  0
   -1.5000    2.5981    0.0000 O   0  0  0  0  0  0  0  0  0  0  0  0
   -1.5000    0.0000    0.0000 C   0  0  0  0  0  0  0  0  0  0  0  0
   -0.7500   -1.2990    0.0000 C   0  0  0  0  0  0  0  0  0  0  0  0
    4.7581   -7.3178    0.0000 C   0  0  0  0  0  0  0  0  0  0  0  0
    5.2216   -8.7443    0.0000 C   0  0  0  0  0  0  0  0  0  0  0  0
    6.6888   -9.0562    0.0000 C   0  0  0  0  0  0  0  0  0  0  0  0
    6.8766  -10.0223    0.0000 O   0  0  0  0  0  0  0  0  0  0  0  0
    7.6925   -7.9415    0.0000 C   0  0  0  0  0  0  0  0  0  0  0  0
    9.1597   -8.2534    0.0000 C   0  0  0  0  0  0  0  0  0  0  0  0
   10.1634   -7.1386    0.0000 O   0  0  0  0  0  0  0  0  0  0  0  0
    9.6233   -9.6799    0.0000 C   0  0  0  0  0  0  0  0  0  0  0  0
    8.6196  -10.7947    0.0000 C   0  0  0  0  0  0  0  0  0  0  0  0
    7.6392  -10.7089    0.0000 O   0  0  0  0  0  0  0  0  0  0  0  0
    9.0831  -12.2212    0.0000 C   0  0  0  0  0  0  0  0  0  0  0  0
   10.5503  -12.5331    0.0000 C   0  0  0  0  0  0  0  0  0  0  0  0
   11.5540  -11.4184    0.0000 C   0  0  0  0  0  0  0  0  0  0  0  0
   11.0905   -9.9918    0.0000 C   0  0  0  0  0  0  0  0  0  0  0  0
   12.0942   -8.8771    0.0000 C   0  0  0  0  0  0  0  0  0  0  0  0
   11.6307   -7.4505    0.0000 O   0  0  0  0  0  0  0  0  0  0  0  0
   13.5614   -9.1890    0.0000 O   0  0  0  0  0  0  0  0  0  0  0  0
    7.2290   -6.5149    0.0000 C   0  0  0  0  0  0  0  0  0  0  0  0
    8.2327   -5.4002    0.0000 O   0  0  0  0  0  0  0  0  0  0  0  0
    5.7618   -6.2030    0.0000 C   0  0  0  0  0  0  0  0  0  0  0  0
  1  2  2  0
  2  3  1  0
  3  4  1  0
  4  5  1  0
  5  6  1  0
  6  7  1  0
  7  8  1  0
  8  9  1  0
  9 10  1  0
 10 11  2  0
 11 12  1  0
 12 13  2  0
 13 14  1  0
 13 15  1  0
 15 16  2  0
  2 17  1  0
 17 18  2  0
 18 19  1  0
 19 20  1  0
 19 21  2  0
 21 22  1  0
 22 23  2  0
 22 24  1  0
 24 25  2  0
 25 26  1  0
 25 27  1  0
 27 28  2  0
 28 29  1  0
 29 30  2  0
 30 31  1  0
 31 32  2  0
 31 33  1  0
 21 34  1  0
 34 35  1  0
 34 36  2  0
  8  4  1  0
 16 10  1  0
 36 17  1  0
 30 24  1  0
M  END
>  <Compound_ID>  (38) 
CHEMBL48988

>  <Active>  (38) 
1

>  <Smiles>  (38) 
O=C(OC1CCCC1Oc1ccc(O)cc1)c1cc(O)c(C(=O)c2c(O)cccc2C(=O)O)c(O)c1

>  <canonical_smi>  (38) 
O=C(OC1CCCC1Oc1ccc(O)cc1)c1cc(O)c(C(=O)c2c(O)cccc2C(=O)O)c(O)c1

>  <Set>  (38) 
G2 active

>  <Set_type>  (38) 
Train

>  <MW>  (38) 
494.45

>  <HBD>  (38) 
5

>  <HBA>  (38) 
10

>  <NRB>  (38) 
7

>  <NR>  (38) 
4

>  <NAR>  (38) 
3

>  <PSA>  (38) 
170.82

>  <Standard Type>  (38) 
nan

>  <Standard Relation>  (38) 
nan

>  <Standard Units>  (38) 
nan

>  <Standard Value>  (38) 
nan

>  <Assay ChEMBL ID>  (38) 
nan

>  <Assay Description>  (38) 
nan

>  <BAO Label>  (38) 
nan

>  <bits>  (38) 
<rdkit.DataStructs.cDataStructs.ExplicitBitVect object at 0x00000210F8EB7610>

>  <Group>  (38) 
G2

$$$$

     RDKit          2D

 33 37  0  0  0  0  0  0  0  0999 V2000
   -2.9520   -4.6564    0.0000 C   0  0  0  0  0  0  0  0  0  0  0  0
   -2.6401   -3.1891    0.0000 C   0  0  0  0  0  0  0  0  0  0  0  0
   -1.2135   -2.7256    0.0000 N   0  0  0  0  0  0  0  0  0  0  0  0
   -0.0000   -3.6073    0.0000 C   0  0  0  0  0  0  0  0  0  0  0  0
    1.2135   -2.7256    0.0000 C   0  0  0  0  0  0  0  0  0  0  0  0
    2.6401   -3.1891    0.0000 C   0  0  0  0  0  0  0  0  0  0  0  0
    3.8536   -2.3075    0.0000 C   0  0  0  0  0  0  0  0  0  0  0  0
    3.8536   -0.8075    0.0000 C   0  0  0  0  0  0  0  0  0  0  0  0
    2.6401    0.0742    0.0000 N   0  0  0  0  0  0  0  0  0  0  0  0
    3.1036    1.5008    0.0000 N   0  0  0  0  0  0  0  0  0  0  0  0
    2.2220    2.7143    0.0000 C   0  0  0  0  0  0  0  0  0  0  0  0
    2.8321    4.0846    0.0000 C   0  0  0  0  0  0  0  0  0  0  0  0
    1.9504    5.2982    0.0000 C   0  0  0  0  0  0  0  0  0  0  0  0
    2.5605    6.6685    0.0000 N   0  0  0  0  0  0  0  0  0  0  0  0
    1.6788    7.8820    0.0000 C   0  0  0  0  0  0  0  0  0  0  0  0
    4.0523    6.8253    0.0000 C   0  0  0  0  0  0  0  0  0  0  0  0
    4.6036    1.5008    0.0000 C   0  0  0  0  0  0  0  0  0  0  0  0
    5.6073    2.6155    0.0000 C   0  0  0  0  0  0  0  0  0  0  0  0
    7.0746    2.3036    0.0000 C   0  0  0  0  0  0  0  0  0  0  0  0
    7.5381    0.8771    0.0000 C   0  0  0  0  0  0  0  0  0  0  0  0
    6.5344   -0.2377    0.0000 C   0  0  0  0  0  0  0  0  0  0  0  0
    5.0672    0.0742    0.0000 C   0  0  0  0  0  0  0  0  0  0  0  0
    5.0672   -3.1891    0.0000 C   0  0  0  0  0  0  0  0  0  0  0  0
    6.4937   -2.7256    0.0000 O   0  0  0  0  0  0  0  0  0  0  0  0
    4.6036   -4.6157    0.0000 N   0  0  0  0  0  0  0  0  0  0  0  0
    3.1036   -4.6157    0.0000 C   0  0  0  0  0  0  0  0  0  0  0  0
    2.2220   -5.8293    0.0000 O   0  0  0  0  0  0  0  0  0  0  0  0
    0.7500   -1.2990    0.0000 C   0  0  0  0  0  0  0  0  0  0  0  0
    1.5000    0.0000    0.0000 C   0  0  0  0  0  0  0  0  0  0  0  0
    0.7500    1.2990    0.0000 C   0  0  0  0  0  0  0  0  0  0  0  0
   -0.7500    1.2990    0.0000 C   0  0  0  0  0  0  0  0  0  0  0  0
   -1.5000    0.0000    0.0000 C   0  0  0  0  0  0  0  0  0  0  0  0
   -0.7500   -1.2990    0.0000 C   0  0  0  0  0  0  0  0  0  0  0  0
  1  2  2  0
  2  3  1  0
  3  4  1  0
  4  5  2  0
  5  6  1  0
  6  7  2  0
  7  8  1  0
  8  9  2  0
  9 10  1  0
 10 11  1  0
 11 12  1  0
 12 13  1  0
 13 14  1  0
 14 15  1  0
 14 16  1  0
 10 17  1  0
 17 18  2  0
 18 19  1  0
 19 20  2  0
 20 21  1  0
 21 22  2  0
  7 23  1  0
 23 24  2  0
 23 25  1  0
 25 26  1  0
 26 27  2  0
  5 28  1  0
 28 29  2  0
 29 30  1  0
 30 31  2  0
 31 32  1  0
 32 33  2  0
 33  3  1  0
 26  6  1  0
 33 28  1  0
 22  8  1  0
 22 17  1  0
M  END
>  <Compound_ID>  (39) 
CHEMBL368193

>  <Active>  (39) 
1

>  <Smiles>  (39) 
C=Cn1cc(C2=C(c3nn(CCCN(C)C)c4ccccc34)C(=O)NC2=O)c2ccccc21

>  <canonical_smi>  (39) 
C=Cn1cc(C2=C(c3nn(CCCN(C)C)c4ccccc34)C(=O)NC2=O)c2ccccc21

>  <Set>  (39) 
G2 active

>  <Set_type>  (39) 
Train

>  <MW>  (39) 
439.52

>  <HBD>  (39) 
1

>  <HBA>  (39) 
4

>  <NRB>  (39) 
7

>  <NR>  (39) 
5

>  <NAR>  (39) 
4

>  <PSA>  (39) 
72.16

>  <Standard Type>  (39) 
nan

>  <Standard Relation>  (39) 
nan

>  <Standard Units>  (39) 
nan

>  <Standard Value>  (39) 
nan

>  <Assay ChEMBL ID>  (39) 
nan

>  <Assay Description>  (39) 
nan

>  <BAO Label>  (39) 
nan

>  <bits>  (39) 
<rdkit.DataStructs.cDataStructs.ExplicitBitVect object at 0x00000210F8EB76F0>

>  <Group>  (39) 
G2

$$$$

     RDKit          2D

 28 34  0  0  0  0  0  0  0  0999 V2000
    4.2660   -1.2584    0.0000 N   0  0  0  0  0  0  0  0  0  0  0  0
    3.9542   -2.7256    0.0000 C   0  0  0  0  0  0  0  0  0  0  0  0
    4.9579   -3.8403    0.0000 N   0  0  0  0  0  0  0  0  0  0  0  0
    4.2079   -5.1394    0.0000 C   0  0  0  0  0  0  0  0  0  0  0  0
    4.8180   -6.5097    0.0000 O   0  0  0  0  0  0  0  0  0  0  0  0
    2.7406   -4.8275    0.0000 C   0  0  0  0  0  0  0  0  0  0  0  0
    2.5838   -3.3357    0.0000 C   0  0  0  0  0  0  0  0  0  0  0  0
    1.2135   -2.7256    0.0000 C   0  0  0  0  0  0  0  0  0  0  0  0
    0.7500   -1.2990    0.0000 C   0  0  0  0  0  0  0  0  0  0  0  0
    1.5000    0.0000    0.0000 C   0  0  0  0  0  0  0  0  0  0  0  0
    0.7500    1.2990    0.0000 C   0  0  0  0  0  0  0  0  0  0  0  0
   -0.7500    1.2990    0.0000 C   0  0  0  0  0  0  0  0  0  0  0  0
   -1.5000    0.0000    0.0000 C   0  0  0  0  0  0  0  0  0  0  0  0
   -0.7500   -1.2990    0.0000 C   0  0  0  0  0  0  0  0  0  0  0  0
   -1.2135   -2.7256    0.0000 N   0  0  0  0  0  0  0  0  0  0  0  0
    0.0000   -3.6073    0.0000 C   0  0  0  0  0  0  0  0  0  0  0  0
    0.1568   -5.0991    0.0000 C   0  0  0  0  0  0  0  0  0  0  0  0
    1.5271   -5.7092    0.0000 C   0  0  0  0  0  0  0  0  0  0  0  0
    1.3703   -7.2010    0.0000 C   0  0  0  0  0  0  0  0  0  0  0  0
    2.3740   -8.3157    0.0000 C   0  0  0  0  0  0  0  0  0  0  0  0
    1.9105   -9.7423    0.0000 C   0  0  0  0  0  0  0  0  0  0  0  0
    0.4433  -10.0541    0.0000 C   0  0  0  0  0  0  0  0  0  0  0  0
   -0.5604   -8.9394    0.0000 C   0  0  0  0  0  0  0  0  0  0  0  0
   -0.0969   -7.5128    0.0000 C   0  0  0  0  0  0  0  0  0  0  0  0
   -0.8469   -6.2138    0.0000 N   0  0  0  0  0  0  0  0  0  0  0  0
   -2.3362   -6.0347    0.0000 C   0  0  0  0  0  0  0  0  0  0  0  0
   -3.1247   -4.7587    0.0000 S   0  0  0  0  0  0  0  0  0  0  0  0
   -2.6187   -3.3466    0.0000 C   0  0  0  0  0  0  0  0  0  0  0  0
  1  2  1  0
  2  3  2  0
  3  4  1  0
  4  5  2  0
  4  6  1  0
  6  7  2  0
  7  8  1  0
  8  9  1  0
  9 10  2  0
 10 11  1  0
 11 12  2  0
 12 13  1  0
 13 14  2  0
 14 15  1  0
 15 16  1  0
 16 17  1  0
 17 18  2  0
 18 19  1  0
 19 20  2  0
 20 21  1  0
 21 22  2  0
 22 23  1  0
 23 24  2  0
 24 25  1  0
 25 26  1  0
 26 27  1  0
 27 28  1  0
  7  2  1  0
 16  8  2  0
 25 17  1  0
 18  6  1  0
 24 19  1  0
 14  9  1  0
 28 15  1  0
M  END
>  <Compound_ID>  (40) 
CHEMBL282612

>  <Active>  (40) 
1

>  <Smiles>  (40) 
NC1=NC(=O)c2c1c1c3ccccc3n3c1c1c2c2ccccc2n1CSC3

>  <canonical_smi>  (40) 
NC1=NC(=O)c2c1c1c3ccccc3n3c1c1c2c2ccccc2n1CSC3

>  <Set>  (40) 
G2 active

>  <Set_type>  (40) 
Train

>  <MW>  (40) 
382.45

>  <HBD>  (40) 
1

>  <HBA>  (40) 
3

>  <NRB>  (40) 
0

>  <NR>  (40) 
7

>  <NAR>  (40) 
5

>  <PSA>  (40) 
65.31

>  <Standard Type>  (40) 
nan

>  <Standard Relation>  (40) 
nan

>  <Standard Units>  (40) 
nan

>  <Standard Value>  (40) 
nan

>  <Assay ChEMBL ID>  (40) 
nan

>  <Assay Description>  (40) 
nan

>  <BAO Label>  (40) 
nan

>  <bits>  (40) 
<rdkit.DataStructs.cDataStructs.ExplicitBitVect object at 0x00000210F8EB7760>

>  <Group>  (40) 
G2

$$$$

     RDKit          2D

 42 46  0  0  0  0  0  0  0  0999 V2000
   -2.5981   -5.1073    0.0000 O   0  0  0  0  0  0  0  0  0  0  0  0
   -1.2990   -5.8573    0.0000 C   0  0  0  0  0  0  0  0  0  0  0  0
   -0.0000   -5.1073    0.0000 N   0  0  0  0  0  0  0  0  0  0  0  0
   -0.0000   -3.6073    0.0000 C   0  0  0  0  0  0  0  0  0  0  0  0
    1.2135   -2.7256    0.0000 C   0  0  0  0  0  0  0  0  0  0  0  0
    0.7500   -1.2990    0.0000 C   0  0  0  0  0  0  0  0  0  0  0  0
    1.5000    0.0000    0.0000 C   0  0  0  0  0  0  0  0  0  0  0  0
    0.7500    1.2990    0.0000 C   0  0  0  0  0  0  0  0  0  0  0  0
   -0.7500    1.2990    0.0000 C   0  0  0  0  0  0  0  0  0  0  0  0
   -1.5000    0.0000    0.0000 C   0  0  0  0  0  0  0  0  0  0  0  0
   -0.7500   -1.2990    0.0000 C   0  0  0  0  0  0  0  0  0  0  0  0
   -1.2135   -2.7256    0.0000 C   0  0  0  0  0  0  0  0  0  0  0  0
   -2.6401   -3.1891    0.0000 O   0  0  0  0  0  0  0  0  0  0  0  0
   -3.7548   -2.1855    0.0000 C   0  0  0  0  0  0  0  0  0  0  0  0
   -3.4430   -0.7182    0.0000 O   0  0  0  0  0  0  0  0  0  0  0  0
   -5.1814   -2.6490    0.0000 C   0  0  0  0  0  0  0  0  0  0  0  0
   -6.2961   -1.6453    0.0000 C   0  0  0  0  0  0  0  0  0  0  0  0
   -7.7227   -2.1088    0.0000 C   0  0  0  0  0  0  0  0  0  0  0  0
   -8.3684   -1.3660    0.0000 O   0  0  0  0  0  0  0  0  0  0  0  0
   -8.0346   -3.5760    0.0000 C   0  0  0  0  0  0  0  0  0  0  0  0
   -9.4612   -4.0396    0.0000 C   0  0  0  0  0  0  0  0  0  0  0  0
   -9.7730   -5.5068    0.0000 O   0  0  0  0  0  0  0  0  0  0  0  0
  -10.5759   -3.0359    0.0000 C   0  0  0  0  0  0  0  0  0  0  0  0
  -10.2640   -1.5686    0.0000 C   0  0  0  0  0  0  0  0  0  0  0  0
   -9.3721   -1.1527    0.0000 O   0  0  0  0  0  0  0  0  0  0  0  0
  -11.3787   -0.5649    0.0000 C   0  0  0  0  0  0  0  0  0  0  0  0
  -12.8053   -1.0285    0.0000 C   0  0  0  0  0  0  0  0  0  0  0  0
  -13.1172   -2.4957    0.0000 C   0  0  0  0  0  0  0  0  0  0  0  0
  -12.0025   -3.4994    0.0000 C   0  0  0  0  0  0  0  0  0  0  0  0
  -12.3143   -4.9666    0.0000 C   0  0  0  0  0  0  0  0  0  0  0  0
  -11.1996   -5.9703    0.0000 O   0  0  0  0  0  0  0  0  0  0  0  0
  -13.7409   -5.4301    0.0000 O   0  0  0  0  0  0  0  0  0  0  0  0
   -6.9199   -4.5797    0.0000 C   0  0  0  0  0  0  0  0  0  0  0  0
   -7.2317   -6.0469    0.0000 O   0  0  0  0  0  0  0  0  0  0  0  0
   -5.4933   -4.1162    0.0000 C   0  0  0  0  0  0  0  0  0  0  0  0
   -1.2990   -7.3573    0.0000 C   0  0  0  0  0  0  0  0  0  0  0  0
   -2.5981   -8.1073    0.0000 C   0  0  0  0  0  0  0  0  0  0  0  0
   -2.5981   -9.6073    0.0000 C   0  0  0  0  0  0  0  0  0  0  0  0
   -1.2990  -10.3573    0.0000 C   0  0  0  0  0  0  0  0  0  0  0  0
   -1.2990  -11.8573    0.0000 O   0  0  0  0  0  0  0  0  0  0  0  0
    0.0000   -9.6073    0.0000 C   0  0  0  0  0  0  0  0  0  0  0  0
    0.0000   -8.1073    0.0000 C   0  0  0  0  0  0  0  0  0  0  0  0
  1  2  2  0
  2  3  1  0
  4  3  1  1
  4  5  1  0
  5  6  1  0
  6  7  2  0
  7  8  1  0
  8  9  2  0
  9 10  1  0
 10 11  2  0
 11 12  1  0
 12 13  1  0
 13 14  1  0
 14 15  2  0
 14 16  1  0
 16 17  2  0
 17 18  1  0
 18 19  1  0
 18 20  2  0
 20 21  1  0
 21 22  2  0
 21 23  1  0
 23 24  2  0
 24 25  1  0
 24 26  1  0
 26 27  2  0
 27 28  1  0
 28 29  2  0
 29 30  1  0
 30 31  2  0
 30 32  1  0
 20 33  1  0
 33 34  1  0
 33 35  2  0
  2 36  1  0
 36 37  2  0
 37 38  1  0
 38 39  2  0
 39 40  1  0
 39 41  1  0
 41 42  2  0
 12  4  1  0
 35 16  1  0
 42 36  1  0
 11  6  1  0
 29 23  1  0
M  END
>  <Compound_ID>  (41) 
CHEMBL367162

>  <Active>  (41) 
1

>  <Smiles>  (41) 
O=C(N[C@@H]1Cc2ccccc2C1OC(=O)c1cc(O)c(C(=O)c2c(O)cccc2C(=O)O)c(O)c1)c1ccc(O)cc1

>  <canonical_smi>  (41) 
O=C(N[C@@H]1Cc2ccccc2C1OC(=O)c1cc(O)c(C(=O)c2c(O)cccc2C(=O)O)c(O)c1)c1ccc(O)cc1

>  <Set>  (41) 
G2 active

>  <Set_type>  (41) 
Train

>  <MW>  (41) 
569.52

>  <HBD>  (41) 
6

>  <HBA>  (41) 
10

>  <NRB>  (41) 
7

>  <NR>  (41) 
5

>  <NAR>  (41) 
4

>  <PSA>  (41) 
190.69

>  <Standard Type>  (41) 
nan

>  <Standard Relation>  (41) 
nan

>  <Standard Units>  (41) 
nan

>  <Standard Value>  (41) 
nan

>  <Assay ChEMBL ID>  (41) 
nan

>  <Assay Description>  (41) 
nan

>  <BAO Label>  (41) 
nan

>  <bits>  (41) 
<rdkit.DataStructs.cDataStructs.ExplicitBitVect object at 0x00000210F8EB7990>

>  <Group>  (41) 
G2

$$$$

     RDKit          2D

 31 38  0  0  0  0  0  0  0  0999 V2000
   -6.2685   -5.4722    0.0000 O   0  0  0  0  0  0  0  0  0  0  0  0
   -4.8012   -5.7841    0.0000 C   0  0  0  0  0  0  0  0  0  0  0  0
   -4.1911   -7.1544    0.0000 N   0  0  0  0  0  0  0  0  0  0  0  0
   -2.6993   -6.9976    0.0000 C   0  0  0  0  0  0  0  0  0  0  0  0
   -1.6957   -8.1123    0.0000 O   0  0  0  0  0  0  0  0  0  0  0  0
   -2.3875   -5.5304    0.0000 C   0  0  0  0  0  0  0  0  0  0  0  0
   -3.6865   -4.7804    0.0000 C   0  0  0  0  0  0  0  0  0  0  0  0
   -3.6865   -3.2804    0.0000 C   0  0  0  0  0  0  0  0  0  0  0  0
   -4.7707   -2.2438    0.0000 C   0  0  0  0  0  0  0  0  0  0  0  0
   -6.2665   -2.3559    0.0000 C   0  0  0  0  0  0  0  0  0  0  0  0
   -7.1115   -1.1166    0.0000 C   0  0  0  0  0  0  0  0  0  0  0  0
   -6.4607    0.2349    0.0000 C   0  0  0  0  0  0  0  0  0  0  0  0
   -4.9649    0.3470    0.0000 C   0  0  0  0  0  0  0  0  0  0  0  0
   -4.1199   -0.8924    0.0000 C   0  0  0  0  0  0  0  0  0  0  0  0
   -2.6110   -1.0472    0.0000 N   0  0  0  0  0  0  0  0  0  0  0  0
   -2.3875   -2.5304    0.0000 C   0  0  0  0  0  0  0  0  0  0  0  0
   -1.0884   -3.2804    0.0000 C   0  0  0  0  0  0  0  0  0  0  0  0
   -1.0884   -4.7804    0.0000 C   0  0  0  0  0  0  0  0  0  0  0  0
    0.3514   -5.2010    0.0000 C   0  0  0  0  0  0  0  0  0  0  0  0
    1.0022   -6.5525    0.0000 C   0  0  0  0  0  0  0  0  0  0  0  0
    2.4980   -6.6646    0.0000 C   0  0  0  0  0  0  0  0  0  0  0  0
    3.3430   -5.4252    0.0000 C   0  0  0  0  0  0  0  0  0  0  0  0
    2.6922   -4.0738    0.0000 C   0  0  0  0  0  0  0  0  0  0  0  0
    1.1963   -3.9617    0.0000 C   0  0  0  0  0  0  0  0  0  0  0  0
    0.3079   -2.7324    0.0000 N   0  0  0  0  0  0  0  0  0  0  0  0
    0.7500   -1.2990    0.0000 C   0  0  0  0  0  0  0  0  0  0  0  0
    1.5000    0.0000    0.0000 C   0  0  0  0  0  0  0  0  0  0  0  0
    0.7500    1.2990    0.0000 C   0  0  0  0  0  0  0  0  0  0  0  0
   -0.7500    1.2990    0.0000 C   0  0  0  0  0  0  0  0  0  0  0  0
   -1.5000    0.0000    0.0000 C   0  0  0  0  0  0  0  0  0  0  0  0
   -0.7500   -1.2990    0.0000 N   0  0  0  0  0  0  0  0  0  0  0  0
  1  2  2  0
  2  3  1  0
  3  4  1  0
  4  5  2  0
  4  6  1  0
  6  7  2  0
  7  8  1  0
  8  9  1  0
  9 10  2  0
 10 11  1  0
 11 12  2  0
 12 13  1  0
 13 14  2  0
 14 15  1  0
 15 16  1  0
 16 17  1  0
 17 18  2  0
 18 19  1  0
 19 20  2  0
 20 21  1  0
 21 22  2  0
 22 23  1  0
 23 24  2  0
 24 25  1  0
 25 26  1  0
 26 27  1  6
 27 28  1  0
 28 29  1  0
 30 29  1  6
 30 31  1  0
  7  2  1  0
 16  8  2  0
 25 17  1  0
 31 26  1  0
 18  6  1  0
 24 19  1  0
 14  9  1  0
 30 15  1  0
M  END
>  <Compound_ID>  (42) 
CHEMBL147986

>  <Active>  (42) 
1

>  <Smiles>  (42) 
O=C1NC(=O)c2c1c1c3ccccc3n3c1c1c2c2ccccc2n1[C@H]1CCC[C@@H]3N1

>  <canonical_smi>  (42) 
O=C1NC(=O)c2c1c1c3ccccc3n3c1c1c2c2ccccc2n1[C@@H]1CCC[C@H]3N1

>  <Set>  (42) 
G2 active

>  <Set_type>  (42) 
Train

>  <MW>  (42) 
406.45

>  <HBD>  (42) 
2

>  <HBA>  (42) 
3

>  <NRB>  (42) 
0

>  <NR>  (42) 
8

>  <NAR>  (42) 
5

>  <PSA>  (42) 
68.06

>  <Standard Type>  (42) 
nan

>  <Standard Relation>  (42) 
nan

>  <Standard Units>  (42) 
nan

>  <Standard Value>  (42) 
nan

>  <Assay ChEMBL ID>  (42) 
nan

>  <Assay Description>  (42) 
nan

>  <BAO Label>  (42) 
nan

>  <bits>  (42) 
<rdkit.DataStructs.cDataStructs.ExplicitBitVect object at 0x00000210F8EB7BC0>

>  <Group>  (42) 
G2

$$$$

     RDKit          2D

 41 47  0  0  0  0  0  0  0  0999 V2000
    3.0000    4.7634    0.0000 C   0  0  0  0  0  0  0  0  0  0  0  0
    1.5000    4.7634    0.0000 N   0  0  0  0  0  0  0  0  0  0  0  0
    0.7500    6.0624    0.0000 C   0  0  0  0  0  0  0  0  0  0  0  0
    0.7500    3.4643    0.0000 C   0  0  0  0  0  0  0  0  0  0  0  0
   -0.7500    3.4643    0.0000 C   0  0  0  0  0  0  0  0  0  0  0  0
   -1.5000    2.1653    0.0000 C   0  0  0  0  0  0  0  0  0  0  0  0
   -3.0000    2.1653    0.0000 N   0  0  0  0  0  0  0  0  0  0  0  0
   -3.8817    0.9518    0.0000 N   0  0  0  0  0  0  0  0  0  0  0  0
   -5.3083    1.4153    0.0000 C   0  0  0  0  0  0  0  0  0  0  0  0
   -6.5218    0.5336    0.0000 C   0  0  0  0  0  0  0  0  0  0  0  0
   -6.5218   -0.9664    0.0000 C   0  0  0  0  0  0  0  0  0  0  0  0
   -5.3083   -1.8481    0.0000 C   0  0  0  0  0  0  0  0  0  0  0  0
   -3.8817   -1.3846    0.0000 C   0  0  0  0  0  0  0  0  0  0  0  0
   -3.0000   -2.5981    0.0000 N   0  0  0  0  0  0  0  0  0  0  0  0
   -1.5000   -2.5981    0.0000 C   0  0  0  0  0  0  0  0  0  0  0  0
   -0.7500   -3.8971    0.0000 C   0  0  0  0  0  0  0  0  0  0  0  0
    0.7500   -3.8971    0.0000 C   0  0  0  0  0  0  0  0  0  0  0  0
    1.5000   -2.5981    0.0000 C   0  0  0  0  0  0  0  0  0  0  0  0
    0.7500   -1.2990    0.0000 C   0  0  0  0  0  0  0  0  0  0  0  0
    1.5000    0.0000    0.0000 C   0  0  0  0  0  0  0  0  0  0  0  0
    0.7500    1.2990    0.0000 C   0  0  0  0  0  0  0  0  0  0  0  0
   -0.7500    1.2990    0.0000 C   0  0  0  0  0  0  0  0  0  0  0  0
   -1.5000    0.0000    0.0000 C   0  0  0  0  0  0  0  0  0  0  0  0
   -0.7500   -1.2990    0.0000 C   0  0  0  0  0  0  0  0  0  0  0  0
   -3.8817   -3.8116    0.0000 C   0  0  0  0  0  0  0  0  0  0  0  0
   -3.5698   -5.2788    0.0000 C   0  0  0  0  0  0  0  0  0  0  0  0
   -4.6845   -6.2825    0.0000 C   0  0  0  0  0  0  0  0  0  0  0  0
   -6.1111   -5.8190    0.0000 C   0  0  0  0  0  0  0  0  0  0  0  0
   -6.4230   -4.3518    0.0000 C   0  0  0  0  0  0  0  0  0  0  0  0
   -5.3083   -3.3481    0.0000 C   0  0  0  0  0  0  0  0  0  0  0  0
   -7.9484   -1.4299    0.0000 C   0  0  0  0  0  0  0  0  0  0  0  0
   -8.4119   -2.8565    0.0000 O   0  0  0  0  0  0  0  0  0  0  0  0
   -8.8301   -0.2164    0.0000 N   0  0  0  0  0  0  0  0  0  0  0  0
   -7.9484    0.9971    0.0000 C   0  0  0  0  0  0  0  0  0  0  0  0
   -8.4119    2.4237    0.0000 O   0  0  0  0  0  0  0  0  0  0  0  0
   -5.3083    2.9153    0.0000 C   0  0  0  0  0  0  0  0  0  0  0  0
   -6.4230    3.9190    0.0000 C   0  0  0  0  0  0  0  0  0  0  0  0
   -6.1111    5.3862    0.0000 C   0  0  0  0  0  0  0  0  0  0  0  0
   -4.6845    5.8497    0.0000 C   0  0  0  0  0  0  0  0  0  0  0  0
   -3.5698    4.8460    0.0000 C   0  0  0  0  0  0  0  0  0  0  0  0
   -3.8817    3.3788    0.0000 C   0  0  0  0  0  0  0  0  0  0  0  0
  1  2  1  0
  2  3  1  0
  2  4  1  0
  4  5  1  0
  5  6  1  0
  6  7  1  0
  7  8  1  0
  8  9  2  0
  9 10  1  0
 10 11  2  0
 11 12  1  0
 12 13  2  0
 13 14  1  0
 14 15  1  0
 15 16  2  0
 16 17  1  0
 17 18  2  0
 18 19  1  0
 19 20  2  0
 20 21  1  0
 21 22  2  0
 22 23  1  0
 23 24  2  0
 14 25  1  0
 25 26  2  0
 26 27  1  0
 27 28  2  0
 28 29  1  0
 29 30  2  0
 11 31  1  0
 31 32  2  0
 31 33  1  0
 33 34  1  0
 34 35  2  0
  9 36  1  0
 36 37  2  0
 37 38  1  0
 38 39  2  0
 39 40  1  0
 40 41  2  0
 41  7  1  0
 34 10  1  0
 41 36  1  0
 30 12  1  0
 24 15  1  0
 30 25  1  0
 24 19  1  0
M  END
>  <Compound_ID>  (43) 
CHEMBL360304

>  <Active>  (43) 
1

>  <Smiles>  (43) 
CN(C)CCCn1nc(C2=C(c3cn(-c4cccc5ccccc45)c4ccccc34)C(=O)NC2=O)c2ccccc21

>  <canonical_smi>  (43) 
CN(C)CCCn1nc(C2=C(c3cn(-c4cccc5ccccc45)c4ccccc34)C(=O)NC2=O)c2ccccc21

>  <Set>  (43) 
G2 active

>  <Set_type>  (43) 
Train

>  <MW>  (43) 
539.64

>  <HBD>  (43) 
1

>  <HBA>  (43) 
4

>  <NRB>  (43) 
7

>  <NR>  (43) 
7

>  <NAR>  (43) 
6

>  <PSA>  (43) 
72.16

>  <Standard Type>  (43) 
nan

>  <Standard Relation>  (43) 
nan

>  <Standard Units>  (43) 
nan

>  <Standard Value>  (43) 
nan

>  <Assay ChEMBL ID>  (43) 
nan

>  <Assay Description>  (43) 
nan

>  <BAO Label>  (43) 
nan

>  <bits>  (43) 
<rdkit.DataStructs.cDataStructs.ExplicitBitVect object at 0x00000210F8EB4270>

>  <Group>  (43) 
G2

$$$$

     RDKit          2D

 43 48  0  0  0  0  0  0  0  0999 V2000
   -1.6004    6.4471    0.0000 O   0  0  0  0  0  0  0  0  0  0  0  0
   -2.9707    5.8370    0.0000 C   0  0  0  0  0  0  0  0  0  0  0  0
   -3.1275    4.3452    0.0000 N   0  0  0  0  0  0  0  0  0  0  0  0
   -1.9140    3.4635    0.0000 C   0  0  0  0  0  0  0  0  0  0  0  0
   -1.9140    1.9635    0.0000 C   0  0  0  0  0  0  0  0  0  0  0  0
   -1.0323    3.1771    0.0000 C   0  0  0  0  0  0  0  0  0  0  0  0
    0.3943    2.7135    0.0000 C   0  0  0  0  0  0  0  0  0  0  0  0
    0.3943    1.2135    0.0000 C   0  0  0  0  0  0  0  0  0  0  0  0
    1.2760    0.0000    0.0000 C   0  0  0  0  0  0  0  0  0  0  0  0
    0.3943   -1.2135    0.0000 C   0  0  0  0  0  0  0  0  0  0  0  0
   -1.0323   -0.7500    0.0000 C   0  0  0  0  0  0  0  0  0  0  0  0
   -1.0323    0.7500    0.0000 C   0  0  0  0  0  0  0  0  0  0  0  0
   -0.4874    3.9271    0.0000 C   0  0  0  0  0  0  0  0  0  0  0  0
   -0.0239    5.3536    0.0000 O   0  0  0  0  0  0  0  0  0  0  0  0
    1.4434    5.6655    0.0000 C   0  0  0  0  0  0  0  0  0  0  0  0
    2.4471    4.5508    0.0000 O   0  0  0  0  0  0  0  0  0  0  0  0
    1.9069    7.0921    0.0000 C   0  0  0  0  0  0  0  0  0  0  0  0
    3.3741    7.4040    0.0000 C   0  0  0  0  0  0  0  0  0  0  0  0
    3.8376    8.8305    0.0000 C   0  0  0  0  0  0  0  0  0  0  0  0
    4.8180    8.9163    0.0000 O   0  0  0  0  0  0  0  0  0  0  0  0
    2.8339    9.9453    0.0000 C   0  0  0  0  0  0  0  0  0  0  0  0
    3.2975   11.3718    0.0000 C   0  0  0  0  0  0  0  0  0  0  0  0
    2.2938   12.4866    0.0000 O   0  0  0  0  0  0  0  0  0  0  0  0
    4.7647   11.6837    0.0000 C   0  0  0  0  0  0  0  0  0  0  0  0
    5.7684   10.5690    0.0000 C   0  0  0  0  0  0  0  0  0  0  0  0
    5.5806    9.6029    0.0000 O   0  0  0  0  0  0  0  0  0  0  0  0
    7.2356   10.8809    0.0000 C   0  0  0  0  0  0  0  0  0  0  0  0
    7.6991   12.3074    0.0000 C   0  0  0  0  0  0  0  0  0  0  0  0
    6.6954   13.4222    0.0000 C   0  0  0  0  0  0  0  0  0  0  0  0
    5.2282   13.1103    0.0000 C   0  0  0  0  0  0  0  0  0  0  0  0
    4.2245   14.2250    0.0000 C   0  0  0  0  0  0  0  0  0  0  0  0
    2.7573   13.9131    0.0000 O   0  0  0  0  0  0  0  0  0  0  0  0
    4.6880   15.6516    0.0000 O   0  0  0  0  0  0  0  0  0  0  0  0
    1.3667    9.6334    0.0000 C   0  0  0  0  0  0  0  0  0  0  0  0
    0.3630   10.7481    0.0000 O   0  0  0  0  0  0  0  0  0  0  0  0
    0.9032    8.2068    0.0000 C   0  0  0  0  0  0  0  0  0  0  0  0
   -4.1842    6.7187    0.0000 C   0  0  0  0  0  0  0  0  0  0  0  0
   -4.0274    8.2104    0.0000 C   0  0  0  0  0  0  0  0  0  0  0  0
   -5.2410    9.0921    0.0000 C   0  0  0  0  0  0  0  0  0  0  0  0
   -6.6113    8.4820    0.0000 C   0  0  0  0  0  0  0  0  0  0  0  0
   -7.8248    9.3637    0.0000 O   0  0  0  0  0  0  0  0  0  0  0  0
   -6.7681    6.9902    0.0000 C   0  0  0  0  0  0  0  0  0  0  0  0
   -5.5545    6.1086    0.0000 C   0  0  0  0  0  0  0  0  0  0  0  0
  1  2  2  0
  2  3  1  0
  4  3  1  1
  4  5  1  0
  5  6  1  0
  6  7  1  0
  7  8  1  0
  8  9  1  0
  9 10  1  0
 10 11  1  0
 11 12  1  0
  7 13  1  0
 13 14  1  6
 14 15  1  0
 15 16  2  0
 15 17  1  0
 17 18  2  0
 18 19  1  0
 19 20  1  0
 19 21  2  0
 21 22  1  0
 22 23  2  0
 22 24  1  0
 24 25  2  0
 25 26  1  0
 25 27  1  0
 27 28  2  0
 28 29  1  0
 29 30  2  0
 30 31  1  0
 31 32  2  0
 31 33  1  0
 21 34  1  0
 34 35  1  0
 34 36  2  0
  2 37  1  0
 37 38  2  0
 38 39  1  0
 39 40  2  0
 40 41  1  0
 40 42  1  0
 42 43  2  0
 13  4  1  0
 36 17  1  0
 43 37  1  0
 12  5  1  0
 30 24  1  0
 12  8  1  0
M  END
>  <Compound_ID>  (44) 
CHEMBL263910

>  <Active>  (44) 
1

>  <Smiles>  (44) 
O=C(N[C@@H]1C2CC(C3CCCC32)[C@H]1OC(=O)c1cc(O)c(C(=O)c2c(O)cccc2C(=O)O)c(O)c1)c1ccc(O)cc1

>  <canonical_smi>  (44) 
O=C(N[C@@H]1C2CC(C3CCCC32)[C@H]1OC(=O)c1cc(O)c(C(=O)c2c(O)cccc2C(=O)O)c(O)c1)c1ccc(O)cc1

>  <Set>  (44) 
G2 active

>  <Set_type>  (44) 
Train

>  <MW>  (44) 
587.58

>  <HBD>  (44) 
6

>  <HBA>  (44) 
10

>  <NRB>  (44) 
7

>  <NR>  (44) 
6

>  <NAR>  (44) 
3

>  <PSA>  (44) 
190.69

>  <Standard Type>  (44) 
nan

>  <Standard Relation>  (44) 
nan

>  <Standard Units>  (44) 
nan

>  <Standard Value>  (44) 
nan

>  <Assay ChEMBL ID>  (44) 
nan

>  <Assay Description>  (44) 
nan

>  <BAO Label>  (44) 
nan

>  <bits>  (44) 
<rdkit.DataStructs.cDataStructs.ExplicitBitVect object at 0x00000210F8EB49E0>

>  <Group>  (44) 
G2

$$$$

     RDKit          2D

 39 42  0  0  0  0  0  0  0  0999 V2000
    2.2872  -10.7187    0.0000 O   0  0  0  0  0  0  0  0  0  0  0  0
    3.2909   -9.6040    0.0000 C   0  0  0  0  0  0  0  0  0  0  0  0
    2.8273   -8.1774    0.0000 N   0  0  0  0  0  0  0  0  0  0  0  0
    1.3601   -7.8655    0.0000 C   0  0  0  0  0  0  0  0  0  0  0  0
    0.2454   -8.8692    0.0000 C   0  0  0  0  0  0  0  0  0  0  0  0
   -1.0537   -8.1192    0.0000 C   0  0  0  0  0  0  0  0  0  0  0  0
   -0.7418   -6.6520    0.0000 C   0  0  0  0  0  0  0  0  0  0  0  0
    0.7500   -6.4952    0.0000 C   0  0  0  0  0  0  0  0  0  0  0  0
    1.5000   -5.1962    0.0000 C   0  0  0  0  0  0  0  0  0  0  0  0
    0.7500   -3.8971    0.0000 O   0  0  0  0  0  0  0  0  0  0  0  0
    1.5000   -2.5981    0.0000 C   0  0  0  0  0  0  0  0  0  0  0  0
    3.0000   -2.5981    0.0000 O   0  0  0  0  0  0  0  0  0  0  0  0
    0.7500   -1.2990    0.0000 C   0  0  0  0  0  0  0  0  0  0  0  0
    1.5000    0.0000    0.0000 C   0  0  0  0  0  0  0  0  0  0  0  0
    0.7500    1.2990    0.0000 C   0  0  0  0  0  0  0  0  0  0  0  0
    1.3423    2.0850    0.0000 O   0  0  0  0  0  0  0  0  0  0  0  0
   -0.7500    1.2990    0.0000 C   0  0  0  0  0  0  0  0  0  0  0  0
   -1.5000    2.5981    0.0000 C   0  0  0  0  0  0  0  0  0  0  0  0
   -3.0000    2.5981    0.0000 O   0  0  0  0  0  0  0  0  0  0  0  0
   -0.7500    3.8971    0.0000 C   0  0  0  0  0  0  0  0  0  0  0  0
    0.7500    3.8971    0.0000 C   0  0  0  0  0  0  0  0  0  0  0  0
    1.3423    3.1112    0.0000 O   0  0  0  0  0  0  0  0  0  0  0  0
    1.5000    5.1962    0.0000 C   0  0  0  0  0  0  0  0  0  0  0  0
    0.7500    6.4952    0.0000 C   0  0  0  0  0  0  0  0  0  0  0  0
   -0.7500    6.4952    0.0000 C   0  0  0  0  0  0  0  0  0  0  0  0
   -1.5000    5.1962    0.0000 C   0  0  0  0  0  0  0  0  0  0  0  0
   -3.0000    5.1962    0.0000 C   0  0  0  0  0  0  0  0  0  0  0  0
   -3.7500    3.8971    0.0000 O   0  0  0  0  0  0  0  0  0  0  0  0
   -3.7500    6.4952    0.0000 O   0  0  0  0  0  0  0  0  0  0  0  0
   -1.5000    0.0000    0.0000 C   0  0  0  0  0  0  0  0  0  0  0  0
   -3.0000    0.0000    0.0000 O   0  0  0  0  0  0  0  0  0  0  0  0
   -0.7500   -1.2990    0.0000 C   0  0  0  0  0  0  0  0  0  0  0  0
    4.7581   -9.9158    0.0000 C   0  0  0  0  0  0  0  0  0  0  0  0
    5.2216  -11.3424    0.0000 C   0  0  0  0  0  0  0  0  0  0  0  0
    6.6888  -11.6543    0.0000 C   0  0  0  0  0  0  0  0  0  0  0  0
    7.6925  -10.5396    0.0000 C   0  0  0  0  0  0  0  0  0  0  0  0
    9.1597  -10.8514    0.0000 O   0  0  0  0  0  0  0  0  0  0  0  0
    7.2290   -9.1130    0.0000 C   0  0  0  0  0  0  0  0  0  0  0  0
    5.7618   -8.8011    0.0000 C   0  0  0  0  0  0  0  0  0  0  0  0
  1  2  2  0
  2  3  1  0
  4  3  1  6
  4  5  1  0
  5  6  1  0
  6  7  1  0
  7  8  1  0
  8  9  1  1
  9 10  1  0
 10 11  1  0
 11 12  2  0
 11 13  1  0
 13 14  2  0
 14 15  1  0
 15 16  1  0
 15 17  2  0
 17 18  1  0
 18 19  2  0
 18 20  1  0
 20 21  2  0
 21 22  1  0
 21 23  1  0
 23 24  2  0
 24 25  1  0
 25 26  2  0
 26 27  1  0
 27 28  2  0
 27 29  1  0
 17 30  1  0
 30 31  1  0
 30 32  2  0
  2 33  1  0
 33 34  2  0
 34 35  1  0
 35 36  2  0
 36 37  1  0
 36 38  1  0
 38 39  2  0
  8  4  1  0
 32 13  1  0
 39 33  1  0
 26 20  1  0
M  END
>  <Compound_ID>  (45) 
CHEMBL60455

>  <Active>  (45) 
1

>  <Smiles>  (45) 
O=C(N[C@@H]1CCC[C@H]1COC(=O)c1cc(O)c(C(=O)c2c(O)cccc2C(=O)O)c(O)c1)c1ccc(O)cc1

>  <canonical_smi>  (45) 
O=C(N[C@@H]1CCC[C@H]1COC(=O)c1cc(O)c(C(=O)c2c(O)cccc2C(=O)O)c(O)c1)c1ccc(O)cc1

>  <Set>  (45) 
G2 active

>  <Set_type>  (45) 
Train

>  <MW>  (45) 
535.51

>  <HBD>  (45) 
6

>  <HBA>  (45) 
10

>  <NRB>  (45) 
8

>  <NR>  (45) 
4

>  <NAR>  (45) 
3

>  <PSA>  (45) 
190.69

>  <Standard Type>  (45) 
nan

>  <Standard Relation>  (45) 
nan

>  <Standard Units>  (45) 
nan

>  <Standard Value>  (45) 
nan

>  <Assay ChEMBL ID>  (45) 
nan

>  <Assay Description>  (45) 
nan

>  <BAO Label>  (45) 
nan

>  <bits>  (45) 
<rdkit.DataStructs.cDataStructs.ExplicitBitVect object at 0x00000210F8EB4AC0>

>  <Group>  (45) 
G2

$$$$

     RDKit          2D

 44 52  0  0  0  0  0  0  0  0999 V2000
    6.4640   -1.9952    0.0000 C   0  0  0  0  0  0  0  0  0  0  0  0
    4.9655   -1.9279    0.0000 O   0  0  0  0  0  0  0  0  0  0  0  0
    4.1580   -3.1920    0.0000 C   0  0  0  0  0  0  0  0  0  0  0  0
    4.8489   -4.5234    0.0000 C   0  0  0  0  0  0  0  0  0  0  0  0
    6.3474   -4.5907    0.0000 N   0  0  0  0  0  0  0  0  0  0  0  0
    7.1549   -3.3266    0.0000 C   0  0  0  0  0  0  0  0  0  0  0  0
    7.0384   -5.9220    0.0000 C   0  0  0  0  0  0  0  0  0  0  0  0
    6.2309   -7.1861    0.0000 O   0  0  0  0  0  0  0  0  0  0  0  0
    8.5369   -5.9893    0.0000 C   0  0  0  0  0  0  0  0  0  0  0  0
    9.3444   -4.7252    0.0000 C   0  0  0  0  0  0  0  0  0  0  0  0
   10.8429   -4.7925    0.0000 C   0  0  0  0  0  0  0  0  0  0  0  0
   11.5338   -6.1239    0.0000 C   0  0  0  0  0  0  0  0  0  0  0  0
   10.7263   -7.3880    0.0000 C   0  0  0  0  0  0  0  0  0  0  0  0
    9.2278   -7.3207    0.0000 C   0  0  0  0  0  0  0  0  0  0  0  0
    4.0414   -5.7874    0.0000 C   0  0  0  0  0  0  0  0  0  0  0  0
    2.5382   -5.8249    0.0000 C   0  0  0  0  0  0  0  0  0  0  0  0
    3.2490   -4.5040    0.0000 O   0  0  0  0  0  0  0  0  0  0  0  0
    2.6595   -3.1247    0.0000 C   0  0  0  0  0  0  0  0  0  0  0  0
    3.6464   -1.9951    0.0000 C   0  0  0  0  0  0  0  0  0  0  0  0
    1.2135   -2.7256    0.0000 N   0  0  0  0  0  0  0  0  0  0  0  0
    0.7500   -1.2990    0.0000 C   0  0  0  0  0  0  0  0  0  0  0  0
    1.5000    0.0000    0.0000 C   0  0  0  0  0  0  0  0  0  0  0  0
    0.7500    1.2990    0.0000 C   0  0  0  0  0  0  0  0  0  0  0  0
   -0.7500    1.2990    0.0000 C   0  0  0  0  0  0  0  0  0  0  0  0
   -1.5000    0.0000    0.0000 C   0  0  0  0  0  0  0  0  0  0  0  0
   -0.7500   -1.2990    0.0000 C   0  0  0  0  0  0  0  0  0  0  0  0
   -1.2135   -2.7256    0.0000 C   0  0  0  0  0  0  0  0  0  0  0  0
   -2.5518   -3.5691    0.0000 C   0  0  0  0  0  0  0  0  0  0  0  0
   -2.6191   -5.0676    0.0000 C   0  0  0  0  0  0  0  0  0  0  0  0
   -1.3550   -5.8751    0.0000 C   0  0  0  0  0  0  0  0  0  0  0  0
   -1.0212   -7.3375    0.0000 C   0  0  0  0  0  0  0  0  0  0  0  0
   -1.8846   -8.5641    0.0000 C   0  0  0  0  0  0  0  0  0  0  0  0
   -1.2541   -9.9251    0.0000 C   0  0  0  0  0  0  0  0  0  0  0  0
    0.2399  -10.0596    0.0000 C   0  0  0  0  0  0  0  0  0  0  0  0
    1.1033   -8.8330    0.0000 C   0  0  0  0  0  0  0  0  0  0  0  0
    0.4728   -7.4720    0.0000 C   0  0  0  0  0  0  0  0  0  0  0  0
    1.0623   -6.0927    0.0000 N   0  0  0  0  0  0  0  0  0  0  0  0
   -0.0673   -5.1058    0.0000 C   0  0  0  0  0  0  0  0  0  0  0  0
   -0.0000   -3.6073    0.0000 C   0  0  0  0  0  0  0  0  0  0  0  0
   -4.0650   -5.4667    0.0000 C   0  0  0  0  0  0  0  0  0  0  0  0
   -4.5921   -6.8710    0.0000 O   0  0  0  0  0  0  0  0  0  0  0  0
   -4.8913   -4.2148    0.0000 N   0  0  0  0  0  0  0  0  0  0  0  0
   -3.9561   -3.0421    0.0000 C   0  0  0  0  0  0  0  0  0  0  0  0
   -4.3552   -1.5961    0.0000 O   0  0  0  0  0  0  0  0  0  0  0  0
  1  2  1  0
  3  2  1  1
  3  4  1  0
  4  5  1  1
  5  6  1  0
  5  7  1  0
  7  8  2  0
  7  9  1  0
  9 10  2  0
 10 11  1  0
 11 12  2  0
 12 13  1  0
 13 14  2  0
  4 15  1  0
 16 15  1  1
 16 17  1  0
 17 18  1  0
 18 19  1  6
 18 20  1  0
 20 21  1  0
 21 22  2  0
 22 23  1  0
 23 24  2  0
 24 25  1  0
 25 26  2  0
 26 27  1  0
 27 28  2  0
 28 29  1  0
 29 30  2  0
 30 31  1  0
 31 32  2  0
 32 33  1  0
 33 34  2  0
 34 35  1  0
 35 36  2  0
 36 37  1  0
 37 38  1  0
 38 39  2  0
 29 40  1  0
 40 41  2  0
 40 42  1  0
 42 43  1  0
 43 44  1  6
 18  3  1  0
 39 20  1  0
 14  9  1  0
 37 16  1  0
 26 21  1  0
 39 27  1  0
 43 28  1  0
 38 30  1  0
 36 31  1  0
M  END
>  <Compound_ID>  (46) 
CHEMBL338956

>  <Active>  (46) 
1

>  <Smiles>  (46) 
CO[C@H]1[C@@H](N(C)C(=O)c2ccccc2)C[C@@H]2O[C@@]1(C)n1c3ccccc3c3c4c(c5c6ccccc6n2c5c31)C(=O)N[C@@H]4O

>  <canonical_smi>  (46) 
CO[C@H]1[C@@H](N(C)C(=O)c2ccccc2)C[C@@H]2O[C@@]1(C)n1c3ccccc3c3c4c(c5c6ccccc6n2c5c31)C(=O)N[C@@H]4O

>  <Set>  (46) 
G2 active

>  <Set_type>  (46) 
Train

>  <MW>  (46) 
586.65

>  <HBD>  (46) 
2

>  <HBA>  (46) 
5

>  <NRB>  (46) 
3

>  <NR>  (46) 
9

>  <NAR>  (46) 
6

>  <PSA>  (46) 
97.96

>  <Standard Type>  (46) 
nan

>  <Standard Relation>  (46) 
nan

>  <Standard Units>  (46) 
nan

>  <Standard Value>  (46) 
nan

>  <Assay ChEMBL ID>  (46) 
nan

>  <Assay Description>  (46) 
nan

>  <BAO Label>  (46) 
nan

>  <bits>  (46) 
<rdkit.DataStructs.cDataStructs.ExplicitBitVect object at 0x00000210F8EB4C80>

>  <Group>  (46) 
G2

$$$$

     RDKit          2D

 39 45  0  0  0  0  0  0  0  0999 V2000
   -2.6401   -3.1891    0.0000 C   0  0  0  0  0  0  0  0  0  0  0  0
   -1.2135   -2.7256    0.0000 N   0  0  0  0  0  0  0  0  0  0  0  0
   -0.0000   -3.6073    0.0000 C   0  0  0  0  0  0  0  0  0  0  0  0
    1.2135   -2.7256    0.0000 C   0  0  0  0  0  0  0  0  0  0  0  0
    2.6401   -3.1891    0.0000 C   0  0  0  0  0  0  0  0  0  0  0  0
    3.8536   -2.3075    0.0000 C   0  0  0  0  0  0  0  0  0  0  0  0
    3.8536   -0.8075    0.0000 C   0  0  0  0  0  0  0  0  0  0  0  0
    2.6401    0.0742    0.0000 C   0  0  0  0  0  0  0  0  0  0  0  0
    3.1036    1.5008    0.0000 N   0  0  0  0  0  0  0  0  0  0  0  0
    2.2220    2.7143    0.0000 C   0  0  0  0  0  0  0  0  0  0  0  0
    2.8321    4.0846    0.0000 C   0  0  0  0  0  0  0  0  0  0  0  0
    1.9504    5.2982    0.0000 C   0  0  0  0  0  0  0  0  0  0  0  0
    0.4586    5.1414    0.0000 N   0  0  0  0  0  0  0  0  0  0  0  0
   -0.4231    6.3549    0.0000 C   0  0  0  0  0  0  0  0  0  0  0  0
    0.1870    7.7252    0.0000 C   0  0  0  0  0  0  0  0  0  0  0  0
    1.6788    7.8820    0.0000 C   0  0  0  0  0  0  0  0  0  0  0  0
    2.2889    9.2523    0.0000 C   0  0  0  0  0  0  0  0  0  0  0  0
    1.4072   10.4658    0.0000 C   0  0  0  0  0  0  0  0  0  0  0  0
   -0.0845   10.3091    0.0000 C   0  0  0  0  0  0  0  0  0  0  0  0
   -0.6946    8.9387    0.0000 N   0  0  0  0  0  0  0  0  0  0  0  0
   -0.1515    3.7711    0.0000 C   0  0  0  0  0  0  0  0  0  0  0  0
    0.7302    2.5575    0.0000 C   0  0  0  0  0  0  0  0  0  0  0  0
    4.6036    1.5008    0.0000 C   0  0  0  0  0  0  0  0  0  0  0  0
    5.6073    2.6155    0.0000 C   0  0  0  0  0  0  0  0  0  0  0  0
    7.0746    2.3036    0.0000 C   0  0  0  0  0  0  0  0  0  0  0  0
    7.5381    0.8771    0.0000 C   0  0  0  0  0  0  0  0  0  0  0  0
    6.5344   -0.2377    0.0000 C   0  0  0  0  0  0  0  0  0  0  0  0
    5.0672    0.0742    0.0000 C   0  0  0  0  0  0  0  0  0  0  0  0
    5.0672   -3.1891    0.0000 C   0  0  0  0  0  0  0  0  0  0  0  0
    6.4937   -2.7256    0.0000 O   0  0  0  0  0  0  0  0  0  0  0  0
    4.6036   -4.6157    0.0000 N   0  0  0  0  0  0  0  0  0  0  0  0
    3.1036   -4.6157    0.0000 C   0  0  0  0  0  0  0  0  0  0  0  0
    2.2220   -5.8293    0.0000 O   0  0  0  0  0  0  0  0  0  0  0  0
    0.7500   -1.2990    0.0000 C   0  0  0  0  0  0  0  0  0  0  0  0
    1.5000    0.0000    0.0000 C   0  0  0  0  0  0  0  0  0  0  0  0
    0.7500    1.2990    0.0000 C   0  0  0  0  0  0  0  0  0  0  0  0
   -0.7500    1.2990    0.0000 C   0  0  0  0  0  0  0  0  0  0  0  0
   -1.5000    0.0000    0.0000 C   0  0  0  0  0  0  0  0  0  0  0  0
   -0.7500   -1.2990    0.0000 C   0  0  0  0  0  0  0  0  0  0  0  0
  1  2  1  0
  2  3  1  0
  3  4  2  0
  4  5  1  0
  5  6  2  0
  6  7  1  0
  7  8  2  0
  8  9  1  0
  9 10  1  0
 10 11  1  0
 11 12  1  0
 12 13  1  0
 13 14  1  0
 14 15  1  0
 15 16  2  0
 16 17  1  0
 17 18  2  0
 18 19  1  0
 19 20  2  0
 13 21  1  0
 21 22  1  0
  9 23  1  0
 23 24  2  0
 24 25  1  0
 25 26  2  0
 26 27  1  0
 27 28  2  0
  6 29  1  0
 29 30  2  0
 29 31  1  0
 31 32  1  0
 32 33  2  0
  4 34  1  0
 34 35  2  0
 35 36  1  0
 36 37  2  0
 37 38  1  0
 38 39  2  0
 39  2  1  0
 32  5  1  0
 39 34  1  0
 28  7  1  0
 22 10  1  0
 28 23  1  0
 20 15  1  0
M  END
>  <Compound_ID>  (47) 
CHEMBL300138

>  <Active>  (47) 
1

>  <Smiles>  (47) 
Cn1cc(C2=C(c3cn(C4CCN(Cc5ccccn5)CC4)c4ccccc34)C(=O)NC2=O)c2ccccc21

>  <canonical_smi>  (47) 
Cn1cc(C2=C(c3cn(C4CCN(Cc5ccccn5)CC4)c4ccccc34)C(=O)NC2=O)c2ccccc21

>  <Set>  (47) 
G2 active

>  <Set_type>  (47) 
Train

>  <MW>  (47) 
515.62

>  <HBD>  (47) 
1

>  <HBA>  (47) 
4

>  <NRB>  (47) 
5

>  <NR>  (47) 
7

>  <NAR>  (47) 
5

>  <PSA>  (47) 
72.16

>  <Standard Type>  (47) 
nan

>  <Standard Relation>  (47) 
nan

>  <Standard Units>  (47) 
nan

>  <Standard Value>  (47) 
nan

>  <Assay ChEMBL ID>  (47) 
nan

>  <Assay Description>  (47) 
nan

>  <BAO Label>  (47) 
nan

>  <bits>  (47) 
<rdkit.DataStructs.cDataStructs.ExplicitBitVect object at 0x00000210F8EB4CF0>

>  <Group>  (47) 
G2

$$$$

     RDKit          2D

 43 51  0  0  0  0  0  0  0  0999 V2000
    6.4640   -1.9952    0.0000 C   0  0  0  0  0  0  0  0  0  0  0  0
    4.9655   -1.9279    0.0000 O   0  0  0  0  0  0  0  0  0  0  0  0
    4.1580   -3.1920    0.0000 C   0  0  0  0  0  0  0  0  0  0  0  0
    4.8489   -4.5234    0.0000 C   0  0  0  0  0  0  0  0  0  0  0  0
    6.3474   -4.5907    0.0000 N   0  0  0  0  0  0  0  0  0  0  0  0
    7.1549   -3.3266    0.0000 C   0  0  0  0  0  0  0  0  0  0  0  0
    7.0384   -5.9220    0.0000 C   0  0  0  0  0  0  0  0  0  0  0  0
    6.2309   -7.1861    0.0000 O   0  0  0  0  0  0  0  0  0  0  0  0
    8.5369   -5.9893    0.0000 C   0  0  0  0  0  0  0  0  0  0  0  0
    9.3444   -4.7252    0.0000 C   0  0  0  0  0  0  0  0  0  0  0  0
   10.8429   -4.7925    0.0000 C   0  0  0  0  0  0  0  0  0  0  0  0
   11.5338   -6.1239    0.0000 C   0  0  0  0  0  0  0  0  0  0  0  0
   10.7263   -7.3880    0.0000 N   0  0  0  0  0  0  0  0  0  0  0  0
    9.2278   -7.3207    0.0000 C   0  0  0  0  0  0  0  0  0  0  0  0
    4.0414   -5.7874    0.0000 C   0  0  0  0  0  0  0  0  0  0  0  0
    2.5382   -5.8249    0.0000 C   0  0  0  0  0  0  0  0  0  0  0  0
    3.2490   -4.5040    0.0000 O   0  0  0  0  0  0  0  0  0  0  0  0
    2.6595   -3.1247    0.0000 C   0  0  0  0  0  0  0  0  0  0  0  0
    3.6464   -1.9951    0.0000 C   0  0  0  0  0  0  0  0  0  0  0  0
    1.2135   -2.7256    0.0000 N   0  0  0  0  0  0  0  0  0  0  0  0
    0.7500   -1.2990    0.0000 C   0  0  0  0  0  0  0  0  0  0  0  0
    1.5000    0.0000    0.0000 C   0  0  0  0  0  0  0  0  0  0  0  0
    0.7500    1.2990    0.0000 C   0  0  0  0  0  0  0  0  0  0  0  0
   -0.7500    1.2990    0.0000 C   0  0  0  0  0  0  0  0  0  0  0  0
   -1.5000    0.0000    0.0000 C   0  0  0  0  0  0  0  0  0  0  0  0
   -0.7500   -1.2990    0.0000 C   0  0  0  0  0  0  0  0  0  0  0  0
   -1.2135   -2.7256    0.0000 C   0  0  0  0  0  0  0  0  0  0  0  0
   -2.5518   -3.5691    0.0000 C   0  0  0  0  0  0  0  0  0  0  0  0
   -2.6191   -5.0676    0.0000 C   0  0  0  0  0  0  0  0  0  0  0  0
   -1.3550   -5.8751    0.0000 C   0  0  0  0  0  0  0  0  0  0  0  0
   -1.0212   -7.3375    0.0000 C   0  0  0  0  0  0  0  0  0  0  0  0
   -1.8846   -8.5641    0.0000 C   0  0  0  0  0  0  0  0  0  0  0  0
   -1.2541   -9.9251    0.0000 C   0  0  0  0  0  0  0  0  0  0  0  0
    0.2399  -10.0596    0.0000 C   0  0  0  0  0  0  0  0  0  0  0  0
    1.1033   -8.8330    0.0000 C   0  0  0  0  0  0  0  0  0  0  0  0
    0.4728   -7.4720    0.0000 C   0  0  0  0  0  0  0  0  0  0  0  0
    1.0623   -6.0927    0.0000 N   0  0  0  0  0  0  0  0  0  0  0  0
   -0.0673   -5.1058    0.0000 C   0  0  0  0  0  0  0  0  0  0  0  0
   -0.0000   -3.6073    0.0000 C   0  0  0  0  0  0  0  0  0  0  0  0
   -4.0650   -5.4667    0.0000 C   0  0  0  0  0  0  0  0  0  0  0  0
   -4.5921   -6.8710    0.0000 O   0  0  0  0  0  0  0  0  0  0  0  0
   -4.8913   -4.2148    0.0000 N   0  0  0  0  0  0  0  0  0  0  0  0
   -3.9561   -3.0421    0.0000 C   0  0  0  0  0  0  0  0  0  0  0  0
  1  2  1  0
  3  2  1  1
  3  4  1  0
  4  5  1  1
  5  6  1  0
  5  7  1  0
  7  8  2  0
  7  9  1  0
  9 10  2  0
 10 11  1  0
 11 12  2  0
 12 13  1  0
 13 14  2  0
  4 15  1  0
 16 15  1  1
 16 17  1  0
 17 18  1  0
 18 19  1  6
 18 20  1  0
 20 21  1  0
 21 22  2  0
 22 23  1  0
 23 24  2  0
 24 25  1  0
 25 26  2  0
 26 27  1  0
 27 28  2  0
 28 29  1  0
 29 30  2  0
 30 31  1  0
 31 32  2  0
 32 33  1  0
 33 34  2  0
 34 35  1  0
 35 36  2  0
 36 37  1  0
 37 38  1  0
 38 39  2  0
 29 40  1  0
 40 41  2  0
 40 42  1  0
 42 43  1  0
 18  3  1  0
 39 20  1  0
 14  9  1  0
 37 16  1  0
 26 21  1  0
 39 27  1  0
 43 28  1  0
 38 30  1  0
 36 31  1  0
M  END
>  <Compound_ID>  (48) 
CHEMBL335012

>  <Active>  (48) 
1

>  <Smiles>  (48) 
CO[C@H]1[C@@H](N(C)C(=O)c2cccnc2)C[C@@H]2O[C@@]1(C)n1c3ccccc3c3c4c(c5c6ccccc6n2c5c31)C(=O)NC4

>  <canonical_smi>  (48) 
CO[C@H]1[C@@H](N(C)C(=O)c2cccnc2)C[C@@H]2O[C@@]1(C)n1c3ccccc3c3c4c(c5c6ccccc6n2c5c31)C(=O)NC4

>  <Set>  (48) 
G2 active

>  <Set_type>  (48) 
Train

>  <MW>  (48) 
571.64

>  <HBD>  (48) 
1

>  <HBA>  (48) 
5

>  <NRB>  (48) 
3

>  <NR>  (48) 
9

>  <NAR>  (48) 
6

>  <PSA>  (48) 
90.62

>  <Standard Type>  (48) 
nan

>  <Standard Relation>  (48) 
nan

>  <Standard Units>  (48) 
nan

>  <Standard Value>  (48) 
nan

>  <Assay ChEMBL ID>  (48) 
nan

>  <Assay Description>  (48) 
nan

>  <BAO Label>  (48) 
nan

>  <bits>  (48) 
<rdkit.DataStructs.cDataStructs.ExplicitBitVect object at 0x00000210F8EB52A0>

>  <Group>  (48) 
G2

$$$$

     RDKit          2D

 40 46  0  0  0  0  0  0  0  0999 V2000
   -6.1170   -7.0506    0.0000 C   0  0  0  0  0  0  0  0  0  0  0  0
   -4.6904   -6.5871    0.0000 N   0  0  0  0  0  0  0  0  0  0  0  0
   -3.5757   -7.5908    0.0000 C   0  0  0  0  0  0  0  0  0  0  0  0
   -4.3786   -5.1199    0.0000 C   0  0  0  0  0  0  0  0  0  0  0  0
   -2.9520   -4.6564    0.0000 C   0  0  0  0  0  0  0  0  0  0  0  0
   -2.6401   -3.1891    0.0000 C   0  0  0  0  0  0  0  0  0  0  0  0
   -1.2135   -2.7256    0.0000 N   0  0  0  0  0  0  0  0  0  0  0  0
   -0.0000   -3.6073    0.0000 N   0  0  0  0  0  0  0  0  0  0  0  0
    1.2135   -2.7256    0.0000 C   0  0  0  0  0  0  0  0  0  0  0  0
    2.6401   -3.1891    0.0000 C   0  0  0  0  0  0  0  0  0  0  0  0
    3.8536   -2.3075    0.0000 C   0  0  0  0  0  0  0  0  0  0  0  0
    3.8536   -0.8075    0.0000 C   0  0  0  0  0  0  0  0  0  0  0  0
    2.6401    0.0742    0.0000 C   0  0  0  0  0  0  0  0  0  0  0  0
    3.1036    1.5008    0.0000 N   0  0  0  0  0  0  0  0  0  0  0  0
    2.2220    2.7143    0.0000 C   0  0  0  0  0  0  0  0  0  0  0  0
    0.7220    2.7143    0.0000 C   0  0  0  0  0  0  0  0  0  0  0  0
    0.2584    4.1409    0.0000 S   0  0  0  0  0  0  0  0  0  0  0  0
    1.4720    5.0226    0.0000 C   0  0  0  0  0  0  0  0  0  0  0  0
    1.6288    6.5144    0.0000 C   0  0  0  0  0  0  0  0  0  0  0  0
    2.9991    7.1245    0.0000 C   0  0  0  0  0  0  0  0  0  0  0  0
    4.2126    6.2428    0.0000 C   0  0  0  0  0  0  0  0  0  0  0  0
    4.0558    4.7510    0.0000 C   0  0  0  0  0  0  0  0  0  0  0  0
    2.6855    4.1409    0.0000 C   0  0  0  0  0  0  0  0  0  0  0  0
    4.6036    1.5008    0.0000 C   0  0  0  0  0  0  0  0  0  0  0  0
    5.6073    2.6155    0.0000 C   0  0  0  0  0  0  0  0  0  0  0  0
    7.0746    2.3036    0.0000 C   0  0  0  0  0  0  0  0  0  0  0  0
    7.5381    0.8771    0.0000 C   0  0  0  0  0  0  0  0  0  0  0  0
    6.5344   -0.2377    0.0000 C   0  0  0  0  0  0  0  0  0  0  0  0
    5.0672    0.0742    0.0000 C   0  0  0  0  0  0  0  0  0  0  0  0
    5.0672   -3.1891    0.0000 C   0  0  0  0  0  0  0  0  0  0  0  0
    6.4937   -2.7256    0.0000 O   0  0  0  0  0  0  0  0  0  0  0  0
    4.6036   -4.6157    0.0000 N   0  0  0  0  0  0  0  0  0  0  0  0
    3.1036   -4.6157    0.0000 C   0  0  0  0  0  0  0  0  0  0  0  0
    2.2220   -5.8293    0.0000 O   0  0  0  0  0  0  0  0  0  0  0  0
    0.7500   -1.2990    0.0000 C   0  0  0  0  0  0  0  0  0  0  0  0
    1.5000    0.0000    0.0000 C   0  0  0  0  0  0  0  0  0  0  0  0
    0.7500    1.2990    0.0000 C   0  0  0  0  0  0  0  0  0  0  0  0
   -0.7500    1.2990    0.0000 C   0  0  0  0  0  0  0  0  0  0  0  0
   -1.5000    0.0000    0.0000 C   0  0  0  0  0  0  0  0  0  0  0  0
   -0.7500   -1.2990    0.0000 C   0  0  0  0  0  0  0  0  0  0  0  0
  1  2  1  0
  2  3  1  0
  2  4  1  0
  4  5  1  0
  5  6  1  0
  6  7  1  0
  7  8  1  0
  8  9  2  0
  9 10  1  0
 10 11  2  0
 11 12  1  0
 12 13  2  0
 13 14  1  0
 14 15  1  0
 15 16  2  0
 16 17  1  0
 17 18  1  0
 18 19  2  0
 19 20  1  0
 20 21  2  0
 21 22  1  0
 22 23  2  0
 14 24  1  0
 24 25  2  0
 25 26  1  0
 26 27  2  0
 27 28  1  0
 28 29  2  0
 11 30  1  0
 30 31  2  0
 30 32  1  0
 32 33  1  0
 33 34  2  0
  9 35  1  0
 35 36  2  0
 36 37  1  0
 37 38  2  0
 38 39  1  0
 39 40  2  0
 40  7  1  0
 33 10  1  0
 40 35  1  0
 29 12  1  0
 23 15  1  0
 29 24  1  0
 23 18  1  0
M  END
>  <Compound_ID>  (49) 
CHEMBL426587

>  <Active>  (49) 
1

>  <Smiles>  (49) 
CN(C)CCCn1nc(C2=C(c3cn(-c4csc5ccccc45)c4ccccc34)C(=O)NC2=O)c2ccccc21

>  <canonical_smi>  (49) 
CN(C)CCCn1nc(C2=C(c3cn(-c4csc5ccccc45)c4ccccc34)C(=O)NC2=O)c2ccccc21

>  <Set>  (49) 
G2 active

>  <Set_type>  (49) 
Train

>  <MW>  (49) 
545.67

>  <HBD>  (49) 
1

>  <HBA>  (49) 
4

>  <NRB>  (49) 
7

>  <NR>  (49) 
7

>  <NAR>  (49) 
6

>  <PSA>  (49) 
72.16

>  <Standard Type>  (49) 
nan

>  <Standard Relation>  (49) 
nan

>  <Standard Units>  (49) 
nan

>  <Standard Value>  (49) 
nan

>  <Assay ChEMBL ID>  (49) 
nan

>  <Assay Description>  (49) 
nan

>  <BAO Label>  (49) 
nan

>  <bits>  (49) 
<rdkit.DataStructs.cDataStructs.ExplicitBitVect object at 0x00000210F8EB67A0>

>  <Group>  (49) 
G2

$$$$

     RDKit          2D

 42 48  0  0  0  0  0  0  0  0999 V2000
   -3.2691   -1.1378    0.0000 O   0  0  0  0  0  0  0  0  0  0  0  0
   -3.4705   -2.6243    0.0000 C   0  0  0  0  0  0  0  0  0  0  0  0
   -4.7914   -3.3351    0.0000 N   0  0  0  0  0  0  0  0  0  0  0  0
   -4.5235   -4.8110    0.0000 C   0  0  0  0  0  0  0  0  0  0  0  0
   -5.5601   -5.8952    0.0000 O   0  0  0  0  0  0  0  0  0  0  0  0
   -3.0371   -5.0123    0.0000 C   0  0  0  0  0  0  0  0  0  0  0  0
   -2.3863   -3.6609    0.0000 C   0  0  0  0  0  0  0  0  0  0  0  0
   -1.2135   -2.7256    0.0000 C   0  0  0  0  0  0  0  0  0  0  0  0
   -0.0000   -3.6073    0.0000 C   0  0  0  0  0  0  0  0  0  0  0  0
    1.2135   -2.7256    0.0000 N   0  0  0  0  0  0  0  0  0  0  0  0
    0.7500   -1.2990    0.0000 C   0  0  0  0  0  0  0  0  0  0  0  0
    1.5000    0.0000    0.0000 C   0  0  0  0  0  0  0  0  0  0  0  0
    0.7500    1.2990    0.0000 C   0  0  0  0  0  0  0  0  0  0  0  0
   -0.7500    1.2990    0.0000 C   0  0  0  0  0  0  0  0  0  0  0  0
   -1.5000    0.0000    0.0000 C   0  0  0  0  0  0  0  0  0  0  0  0
   -0.7500   -1.2990    0.0000 C   0  0  0  0  0  0  0  0  0  0  0  0
    2.8840   -3.6609    0.0000 C   0  0  0  0  0  0  0  0  0  0  0  0
    3.5348   -5.0123    0.0000 C   0  0  0  0  0  0  0  0  0  0  0  0
    3.5348   -6.5123    0.0000 O   0  0  0  0  0  0  0  0  0  0  0  0
    2.8840   -7.8638    0.0000 C   0  0  0  0  0  0  0  0  0  0  0  0
    4.0568   -8.7990    0.0000 C   0  0  0  0  0  0  0  0  0  0  0  0
    3.8332  -10.2822    0.0000 N   0  0  0  0  0  0  0  0  0  0  0  0
    5.0059  -11.2175    0.0000 S   0  0  0  0  0  0  0  0  0  0  0  0
    5.9412  -10.0447    0.0000 O   0  0  0  0  0  0  0  0  0  0  0  0
    4.0707  -12.3902    0.0000 O   0  0  0  0  0  0  0  0  0  0  0  0
    6.1787  -12.1527    0.0000 C   0  0  0  0  0  0  0  0  0  0  0  0
    5.9551  -13.6360    0.0000 C   0  0  0  0  0  0  0  0  0  0  0  0
    7.1279  -14.5712    0.0000 C   0  0  0  0  0  0  0  0  0  0  0  0
    8.5242  -14.0232    0.0000 C   0  0  0  0  0  0  0  0  0  0  0  0
    8.7477  -12.5399    0.0000 C   0  0  0  0  0  0  0  0  0  0  0  0
    7.5750  -11.6047    0.0000 C   0  0  0  0  0  0  0  0  0  0  0  0
    1.7113   -8.7990    0.0000 C   0  0  0  0  0  0  0  0  0  0  0  0
    0.2489   -9.1328    0.0000 C   0  0  0  0  0  0  0  0  0  0  0  0
   -1.2135   -8.7990    0.0000 N   0  0  0  0  0  0  0  0  0  0  0  0
   -2.3863   -7.8638    0.0000 C   0  0  0  0  0  0  0  0  0  0  0  0
   -3.0371   -6.5123    0.0000 C   0  0  0  0  0  0  0  0  0  0  0  0
   -3.8634   -7.7642    0.0000 C   0  0  0  0  0  0  0  0  0  0  0  0
   -5.3467   -7.9877    0.0000 C   0  0  0  0  0  0  0  0  0  0  0  0
   -5.8947   -9.3840    0.0000 C   0  0  0  0  0  0  0  0  0  0  0  0
   -4.9595  -10.5568    0.0000 C   0  0  0  0  0  0  0  0  0  0  0  0
   -3.4762  -10.3332    0.0000 C   0  0  0  0  0  0  0  0  0  0  0  0
   -2.9282   -8.9369    0.0000 C   0  0  0  0  0  0  0  0  0  0  0  0
  1  2  2  0
  2  3  1  0
  3  4  1  0
  4  5  2  0
  4  6  1  0
  6  7  2  0
  7  8  1  0
  8  9  2  0
  9 10  1  0
 10 11  1  0
 11 12  2  0
 12 13  1  0
 13 14  2  0
 14 15  1  0
 15 16  2  0
 10 17  1  0
 17 18  1  0
 18 19  1  0
 19 20  1  0
 20 21  1  6
 21 22  1  0
 22 23  1  0
 23 24  2  0
 23 25  2  0
 23 26  1  0
 26 27  2  0
 27 28  1  0
 28 29  2  0
 29 30  1  0
 30 31  2  0
 20 32  1  0
 32 33  1  0
 33 34  1  0
 34 35  1  0
 35 36  2  0
 36 37  1  0
 37 38  2  0
 38 39  1  0
 39 40  2  0
 40 41  1  0
 41 42  2  0
  7  2  1  0
 16  8  1  0
 31 26  1  0
 42 34  1  0
 36  6  1  0
 42 37  1  0
 16 11  1  0
M  END
>  <Compound_ID>  (50) 
CHEMBL315389

>  <Active>  (50) 
1

>  <Smiles>  (50) 
O=C1NC(=O)C2=C1c1cn(c3ccccc13)CCO[C@H](CNS(=O)(=O)c1ccccc1)CCn1cc2c2ccccc21

>  <canonical_smi>  (50) 
O=C1NC(=O)C2=C1c1cn(c3ccccc13)CCO[C@H](CNS(=O)(=O)c1ccccc1)CCn1cc2c2ccccc21

>  <Set>  (50) 
G2 active

>  <Set_type>  (50) 
Train

>  <MW>  (50) 
580.67

>  <HBD>  (50) 
2

>  <HBA>  (50) 
5

>  <NRB>  (50) 
4

>  <NR>  (50) 
7

>  <NAR>  (50) 
5

>  <PSA>  (50) 
111.43

>  <Standard Type>  (50) 
nan

>  <Standard Relation>  (50) 
nan

>  <Standard Units>  (50) 
nan

>  <Standard Value>  (50) 
nan

>  <Assay ChEMBL ID>  (50) 
nan

>  <Assay Description>  (50) 
nan

>  <BAO Label>  (50) 
nan

>  <bits>  (50) 
<rdkit.DataStructs.cDataStructs.ExplicitBitVect object at 0x00000210F8EB7060>

>  <Group>  (50) 
G2

$$$$

     RDKit          2D

 31 38  0  0  0  0  0  0  0  0999 V2000
    4.7475   -4.5713    0.0000 C   0  0  0  0  0  0  0  0  0  0  0  0
    3.2490   -4.5040    0.0000 N   0  0  0  0  0  0  0  0  0  0  0  0
    2.5382   -5.8249    0.0000 C   0  0  0  0  0  0  0  0  0  0  0  0
    3.9965   -5.1502    0.0000 C   0  0  0  0  0  0  0  0  0  0  0  0
    4.0638   -3.6517    0.0000 C   0  0  0  0  0  0  0  0  0  0  0  0
    2.6595   -3.1247    0.0000 C   0  0  0  0  0  0  0  0  0  0  0  0
    1.2135   -2.7256    0.0000 N   0  0  0  0  0  0  0  0  0  0  0  0
    0.7500   -1.2990    0.0000 C   0  0  0  0  0  0  0  0  0  0  0  0
    1.5000    0.0000    0.0000 C   0  0  0  0  0  0  0  0  0  0  0  0
    0.7500    1.2990    0.0000 C   0  0  0  0  0  0  0  0  0  0  0  0
   -0.7500    1.2990    0.0000 C   0  0  0  0  0  0  0  0  0  0  0  0
   -1.5000    0.0000    0.0000 C   0  0  0  0  0  0  0  0  0  0  0  0
   -0.7500   -1.2990    0.0000 C   0  0  0  0  0  0  0  0  0  0  0  0
   -1.2135   -2.7256    0.0000 C   0  0  0  0  0  0  0  0  0  0  0  0
   -2.5518   -3.5691    0.0000 C   0  0  0  0  0  0  0  0  0  0  0  0
   -2.6191   -5.0676    0.0000 C   0  0  0  0  0  0  0  0  0  0  0  0
   -1.3550   -5.8751    0.0000 C   0  0  0  0  0  0  0  0  0  0  0  0
   -1.0212   -7.3375    0.0000 C   0  0  0  0  0  0  0  0  0  0  0  0
   -1.8846   -8.5641    0.0000 C   0  0  0  0  0  0  0  0  0  0  0  0
   -1.2541   -9.9251    0.0000 C   0  0  0  0  0  0  0  0  0  0  0  0
    0.2399  -10.0596    0.0000 C   0  0  0  0  0  0  0  0  0  0  0  0
    1.1033   -8.8330    0.0000 C   0  0  0  0  0  0  0  0  0  0  0  0
    0.4728   -7.4720    0.0000 C   0  0  0  0  0  0  0  0  0  0  0  0
    1.0623   -6.0927    0.0000 N   0  0  0  0  0  0  0  0  0  0  0  0
   -0.0673   -5.1058    0.0000 C   0  0  0  0  0  0  0  0  0  0  0  0
   -0.0000   -3.6073    0.0000 C   0  0  0  0  0  0  0  0  0  0  0  0
   -4.0650   -5.4667    0.0000 C   0  0  0  0  0  0  0  0  0  0  0  0
   -4.5921   -6.8710    0.0000 O   0  0  0  0  0  0  0  0  0  0  0  0
   -4.8913   -4.2148    0.0000 N   0  0  0  0  0  0  0  0  0  0  0  0
   -3.9561   -3.0421    0.0000 C   0  0  0  0  0  0  0  0  0  0  0  0
   -4.3552   -1.5961    0.0000 O   0  0  0  0  0  0  0  0  0  0  0  0
  1  2  1  0
  2  3  1  0
  3  4  1  1
  4  5  1  0
  6  5  1  1
  6  7  1  0
  7  8  1  0
  8  9  2  0
  9 10  1  0
 10 11  2  0
 11 12  1  0
 12 13  2  0
 13 14  1  0
 14 15  2  0
 15 16  1  0
 16 17  2  0
 17 18  1  0
 18 19  2  0
 19 20  1  0
 20 21  2  0
 21 22  1  0
 22 23  2  0
 23 24  1  0
 24 25  1  0
 25 26  2  0
 16 27  1  0
 27 28  2  0
 27 29  1  0
 29 30  1  0
 30 31  2  0
  6  2  1  0
 26  7  1  0
 24  3  1  0
 13  8  1  0
 26 14  1  0
 30 15  1  0
 25 17  1  0
 23 18  1  0
M  END
>  <Compound_ID>  (51) 
CHEMBL421947

>  <Active>  (51) 
1

>  <Smiles>  (51) 
CN1[C@H]2CC[C@@H]1n1c3ccccc3c3c4c(c5c6ccccc6n2c5c31)C(=O)NC4=O

>  <canonical_smi>  (51) 
CN1[C@@H]2CC[C@H]1n1c3ccccc3c3c4c(c5c6ccccc6n2c5c31)C(=O)NC4=O

>  <Set>  (51) 
G2 active

>  <Set_type>  (51) 
Train

>  <MW>  (51) 
406.45

>  <HBD>  (51) 
1

>  <HBA>  (51) 
3

>  <NRB>  (51) 
0

>  <NR>  (51) 
8

>  <NAR>  (51) 
5

>  <PSA>  (51) 
59.27

>  <Standard Type>  (51) 
nan

>  <Standard Relation>  (51) 
nan

>  <Standard Units>  (51) 
nan

>  <Standard Value>  (51) 
nan

>  <Assay ChEMBL ID>  (51) 
nan

>  <Assay Description>  (51) 
nan

>  <BAO Label>  (51) 
nan

>  <bits>  (51) 
<rdkit.DataStructs.cDataStructs.ExplicitBitVect object at 0x00000210F8EB77D0>

>  <Group>  (51) 
G2

$$$$

     RDKit          2D

 33 35  0  0  0  0  0  0  0  0999 V2000
    1.4821  -15.3899    0.0000 C   0  0  0  0  0  0  0  0  0  0  0  0
    2.3638  -14.1764    0.0000 C   0  0  0  0  0  0  0  0  0  0  0  0
    3.8556  -14.3332    0.0000 C   0  0  0  0  0  0  0  0  0  0  0  0
    1.7537  -12.8061    0.0000 C   0  0  0  0  0  0  0  0  0  0  0  0
    2.5037  -11.5070    0.0000 C   0  0  0  0  0  0  0  0  0  0  0  0
    1.5000  -10.3923    0.0000 C   0  0  0  0  0  0  0  0  0  0  0  0
    2.7135   -9.5106    0.0000 C   0  0  0  0  0  0  0  0  0  0  0  0
    4.0838  -10.1207    0.0000 O   0  0  0  0  0  0  0  0  0  0  0  0
    0.7500   -9.0933    0.0000 C   0  0  0  0  0  0  0  0  0  0  0  0
    1.5000   -7.7942    0.0000 O   0  0  0  0  0  0  0  0  0  0  0  0
    0.7500   -6.4952    0.0000 C   0  0  0  0  0  0  0  0  0  0  0  0
   -0.7500   -6.4952    0.0000 O   0  0  0  0  0  0  0  0  0  0  0  0
    1.5000   -5.1962    0.0000 C   0  0  0  0  0  0  0  0  0  0  0  0
    0.7500   -3.8971    0.0000 C   0  0  0  0  0  0  0  0  0  0  0  0
    1.5000   -2.5981    0.0000 O   0  0  0  0  0  0  0  0  0  0  0  0
    0.7500   -1.2990    0.0000 C   0  0  0  0  0  0  0  0  0  0  0  0
    1.5000    0.0000    0.0000 C   0  0  0  0  0  0  0  0  0  0  0  0
    0.7500    1.2990    0.0000 C   0  0  0  0  0  0  0  0  0  0  0  0
   -0.7500    1.2990    0.0000 C   0  0  0  0  0  0  0  0  0  0  0  0
   -1.5000    2.5981    0.0000 C   0  0  0  0  0  0  0  0  0  0  0  0
   -2.2500    3.8971    0.0000 C   0  0  0  0  0  0  0  0  0  0  0  0
   -3.0000    5.1962    0.0000 C   0  0  0  0  0  0  0  0  0  0  0  0
   -2.2500    6.4952    0.0000 C   0  0  0  0  0  0  0  0  0  0  0  0
   -3.0000    7.7942    0.0000 C   0  0  0  0  0  0  0  0  0  0  0  0
   -4.5000    7.7942    0.0000 C   0  0  0  0  0  0  0  0  0  0  0  0
   -5.2500    9.0933    0.0000 C   0  0  0  0  0  0  0  0  0  0  0  0
   -5.2500    6.4952    0.0000 C   0  0  0  0  0  0  0  0  0  0  0  0
   -4.5000    5.1962    0.0000 C   0  0  0  0  0  0  0  0  0  0  0  0
   -1.5000    0.0000    0.0000 C   0  0  0  0  0  0  0  0  0  0  0  0
   -0.7500   -1.2990    0.0000 C   0  0  0  0  0  0  0  0  0  0  0  0
    0.1297  -11.0024    0.0000 O   0  0  0  0  0  0  0  0  0  0  0  0
    0.2865  -12.4942    0.0000 C   0  0  0  0  0  0  0  0  0  0  0  0
   -0.8282  -13.4979    0.0000 O   0  0  0  0  0  0  0  0  0  0  0  0
  1  2  1  0
  2  3  1  0
  2  4  2  0
  4  5  1  0
  5  6  1  0
  6  7  1  0
  7  8  1  0
  6  9  1  0
  9 10  1  0
 10 11  1  0
 11 12  2  0
 11 13  1  0
 13 14  1  0
 14 15  1  0
 15 16  1  0
 16 17  2  0
 17 18  1  0
 18 19  2  0
 19 20  1  0
 20 21  3  0
 21 22  1  0
 22 23  2  0
 23 24  1  0
 24 25  2  0
 25 26  1  0
 25 27  1  0
 27 28  2  0
 19 29  1  0
 29 30  2  0
  6 31  1  0
 31 32  1  0
 32 33  2  0
 32  4  1  0
 30 16  1  0
 28 22  1  0
M  END
>  <Compound_ID>  (52) 
CHEMBL492118

>  <Active>  (52) 
1

>  <Smiles>  (52) 
CC(C)=C1CC(CO)(COC(=O)CCOc2ccc(C#Cc3ccc(C)cc3)cc2)OC1=O

>  <canonical_smi>  (52) 
CC(C)=C1CC(CO)(COC(=O)CCOc2ccc(C#Cc3ccc(C)cc3)cc2)OC1=O

>  <Set>  (52) 
G2 active

>  <Set_type>  (52) 
Train

>  <MW>  (52) 
448.52

>  <HBD>  (52) 
1

>  <HBA>  (52) 
6

>  <NRB>  (52) 
7

>  <NR>  (52) 
3

>  <NAR>  (52) 
2

>  <PSA>  (52) 
82.06

>  <Standard Type>  (52) 
nan

>  <Standard Relation>  (52) 
nan

>  <Standard Units>  (52) 
nan

>  <Standard Value>  (52) 
nan

>  <Assay ChEMBL ID>  (52) 
nan

>  <Assay Description>  (52) 
nan

>  <BAO Label>  (52) 
nan

>  <bits>  (52) 
<rdkit.DataStructs.cDataStructs.ExplicitBitVect object at 0x00000210F8EB40B0>

>  <Group>  (52) 
G2

$$$$

     RDKit          2D

 41 46  0  0  0  0  0  0  0  0999 V2000
    3.3889  -13.4774    0.0000 C   0  0  0  0  0  0  0  0  0  0  0  0
    2.5780  -12.2156    0.0000 N   0  0  0  0  0  0  0  0  0  0  0  0
    1.2135  -12.8387    0.0000 C   0  0  0  0  0  0  0  0  0  0  0  0
   -0.2712  -13.0522    0.0000 C   0  0  0  0  0  0  0  0  0  0  0  0
   -1.7559  -12.8387    0.0000 O   0  0  0  0  0  0  0  0  0  0  0  0
   -3.1204  -12.2156    0.0000 C   0  0  0  0  0  0  0  0  0  0  0  0
   -4.2540  -11.2333    0.0000 C   0  0  0  0  0  0  0  0  0  0  0  0
   -5.0650   -9.9714    0.0000 O   0  0  0  0  0  0  0  0  0  0  0  0
   -5.4876   -8.5322    0.0000 C   0  0  0  0  0  0  0  0  0  0  0  0
   -5.4876   -7.0322    0.0000 C   0  0  0  0  0  0  0  0  0  0  0  0
   -5.0650   -5.5929    0.0000 N   0  0  0  0  0  0  0  0  0  0  0  0
   -6.4294   -4.9698    0.0000 C   0  0  0  0  0  0  0  0  0  0  0  0
   -4.2540   -4.3310    0.0000 C   0  0  0  0  0  0  0  0  0  0  0  0
   -3.1204   -3.3487    0.0000 C   0  0  0  0  0  0  0  0  0  0  0  0
   -1.2135   -2.7256    0.0000 N   0  0  0  0  0  0  0  0  0  0  0  0
   -0.0000   -3.6073    0.0000 C   0  0  0  0  0  0  0  0  0  0  0  0
    1.2135   -2.7256    0.0000 C   0  0  0  0  0  0  0  0  0  0  0  0
    0.7500   -1.2990    0.0000 C   0  0  0  0  0  0  0  0  0  0  0  0
    1.5000    0.0000    0.0000 C   0  0  0  0  0  0  0  0  0  0  0  0
    0.7500    1.2990    0.0000 C   0  0  0  0  0  0  0  0  0  0  0  0
   -0.7500    1.2990    0.0000 C   0  0  0  0  0  0  0  0  0  0  0  0
   -1.5000    0.0000    0.0000 C   0  0  0  0  0  0  0  0  0  0  0  0
   -0.7500   -1.2990    0.0000 C   0  0  0  0  0  0  0  0  0  0  0  0
    2.5780   -3.3487    0.0000 C   0  0  0  0  0  0  0  0  0  0  0  0
    3.7116   -4.3310    0.0000 C   0  0  0  0  0  0  0  0  0  0  0  0
    4.9961   -3.5564    0.0000 C   0  0  0  0  0  0  0  0  0  0  0  0
    6.3778   -4.1403    0.0000 O   0  0  0  0  0  0  0  0  0  0  0  0
    4.6564   -2.0954    0.0000 N   0  0  0  0  0  0  0  0  0  0  0  0
    3.1619   -1.9671    0.0000 C   0  0  0  0  0  0  0  0  0  0  0  0
    2.3873   -0.6825    0.0000 O   0  0  0  0  0  0  0  0  0  0  0  0
    4.5226   -5.5929    0.0000 C   0  0  0  0  0  0  0  0  0  0  0  0
    4.9452   -7.0322    0.0000 C   0  0  0  0  0  0  0  0  0  0  0  0
    4.9452   -8.5322    0.0000 N   0  0  0  0  0  0  0  0  0  0  0  0
    6.2913   -7.8703    0.0000 C   0  0  0  0  0  0  0  0  0  0  0  0
    7.6838   -8.4278    0.0000 C   0  0  0  0  0  0  0  0  0  0  0  0
    8.8629   -7.5006    0.0000 C   0  0  0  0  0  0  0  0  0  0  0  0
    8.6494   -6.0158    0.0000 C   0  0  0  0  0  0  0  0  0  0  0  0
    7.2569   -5.4584    0.0000 C   0  0  0  0  0  0  0  0  0  0  0  0
    6.0778   -6.3856    0.0000 C   0  0  0  0  0  0  0  0  0  0  0  0
    4.5226   -9.9714    0.0000 C   0  0  0  0  0  0  0  0  0  0  0  0
    3.7116  -11.2333    0.0000 C   0  0  0  0  0  0  0  0  0  0  0  0
  1  2  1  0
  2  3  1  0
  3  4  1  0
  4  5  1  0
  5  6  1  0
  6  7  1  0
  7  8  1  0
  8  9  1  0
  9 10  1  0
 10 11  1  0
 11 12  1  0
 11 13  1  0
 13 14  1  0
 14 15  1  0
 15 16  1  0
 16 17  2  0
 17 18  1  0
 18 19  2  0
 19 20  1  0
 20 21  2  0
 21 22  1  0
 22 23  2  0
 17 24  1  0
 24 25  2  0
 25 26  1  0
 26 27  2  0
 26 28  1  0
 28 29  1  0
 29 30  2  0
 25 31  1  0
 31 32  2  0
 32 33  1  0
 33 34  1  0
 34 35  2  0
 35 36  1  0
 36 37  2  0
 37 38  1  0
 38 39  2  0
 33 40  1  0
 40 41  1  0
 41  2  1  0
 23 15  1  0
 29 24  1  0
 39 31  1  0
 23 18  1  0
 39 34  1  0
M  END
>  <Compound_ID>  (53) 
CHEMBL105620

>  <Active>  (53) 
1

>  <Smiles>  (53) 
CN1CCOCCOCCN(C)CCn2cc(c3ccccc32)C2=C(C(=O)NC2=O)c2cn(c3ccccc23)CC1

>  <canonical_smi>  (53) 
CN1CCOCCOCCN(C)CCn2cc(c3ccccc32)C2=C(C(=O)NC2=O)c2cn(c3ccccc23)CC1

>  <Set>  (53) 
G2 active

>  <Set_type>  (53) 
Train

>  <MW>  (53) 
555.68

>  <HBD>  (53) 
1

>  <HBA>  (53) 
6

>  <NRB>  (53) 
0

>  <NR>  (53) 
6

>  <NAR>  (53) 
4

>  <PSA>  (53) 
80.97

>  <Standard Type>  (53) 
nan

>  <Standard Relation>  (53) 
nan

>  <Standard Units>  (53) 
nan

>  <Standard Value>  (53) 
nan

>  <Assay ChEMBL ID>  (53) 
nan

>  <Assay Description>  (53) 
nan

>  <BAO Label>  (53) 
nan

>  <bits>  (53) 
<rdkit.DataStructs.cDataStructs.ExplicitBitVect object at 0x00000210F8EB44A0>

>  <Group>  (53) 
G2

$$$$

     RDKit          2D

 31 36  0  0  0  0  0  0  0  0999 V2000
   -6.4937   -2.7256    0.0000 O   0  0  0  0  0  0  0  0  0  0  0  0
   -5.0672   -3.1891    0.0000 C   0  0  0  0  0  0  0  0  0  0  0  0
   -4.6036   -4.6157    0.0000 N   0  0  0  0  0  0  0  0  0  0  0  0
   -3.1036   -4.6157    0.0000 C   0  0  0  0  0  0  0  0  0  0  0  0
   -2.2220   -5.8293    0.0000 O   0  0  0  0  0  0  0  0  0  0  0  0
   -2.6401   -3.1891    0.0000 C   0  0  0  0  0  0  0  0  0  0  0  0
   -1.2135   -2.7256    0.0000 C   0  0  0  0  0  0  0  0  0  0  0  0
   -0.0000   -3.6073    0.0000 C   0  0  0  0  0  0  0  0  0  0  0  0
    1.2135   -2.7256    0.0000 N   0  0  0  0  0  0  0  0  0  0  0  0
    2.6401   -3.1891    0.0000 C   0  0  0  0  0  0  0  0  0  0  0  0
    2.9520   -4.6564    0.0000 C   0  0  0  0  0  0  0  0  0  0  0  0
    4.3786   -5.1199    0.0000 C   0  0  0  0  0  0  0  0  0  0  0  0
    5.4933   -4.1162    0.0000 C   0  0  0  0  0  0  0  0  0  0  0  0
    5.1814   -2.6490    0.0000 N   0  0  0  0  0  0  0  0  0  0  0  0
    3.7548   -2.1855    0.0000 C   0  0  0  0  0  0  0  0  0  0  0  0
    0.7500   -1.2990    0.0000 C   0  0  0  0  0  0  0  0  0  0  0  0
    1.5000    0.0000    0.0000 C   0  0  0  0  0  0  0  0  0  0  0  0
    0.7500    1.2990    0.0000 C   0  0  0  0  0  0  0  0  0  0  0  0
   -0.7500    1.2990    0.0000 C   0  0  0  0  0  0  0  0  0  0  0  0
   -1.5000    0.0000    0.0000 C   0  0  0  0  0  0  0  0  0  0  0  0
   -0.7500   -1.2990    0.0000 C   0  0  0  0  0  0  0  0  0  0  0  0
   -3.8536   -2.3075    0.0000 C   0  0  0  0  0  0  0  0  0  0  0  0
   -3.8536   -0.8075    0.0000 C   0  0  0  0  0  0  0  0  0  0  0  0
   -2.6401    0.0742    0.0000 N   0  0  0  0  0  0  0  0  0  0  0  0
   -3.1036    1.5008    0.0000 N   0  0  0  0  0  0  0  0  0  0  0  0
   -4.6036    1.5008    0.0000 C   0  0  0  0  0  0  0  0  0  0  0  0
   -5.6073    2.6155    0.0000 C   0  0  0  0  0  0  0  0  0  0  0  0
   -7.0746    2.3036    0.0000 C   0  0  0  0  0  0  0  0  0  0  0  0
   -7.5381    0.8771    0.0000 C   0  0  0  0  0  0  0  0  0  0  0  0
   -6.5344   -0.2377    0.0000 C   0  0  0  0  0  0  0  0  0  0  0  0
   -5.0672    0.0742    0.0000 C   0  0  0  0  0  0  0  0  0  0  0  0
  1  2  2  0
  2  3  1  0
  3  4  1  0
  4  5  2  0
  4  6  1  0
  6  7  1  0
  7  8  2  0
  8  9  1  0
  9 10  1  0
 10 11  2  0
 11 12  1  0
 12 13  2  0
 13 14  1  0
 14 15  2  0
  9 16  1  0
 16 17  2  0
 17 18  1  0
 18 19  2  0
 19 20  1  0
 20 21  2  0
  6 22  2  0
 22 23  1  0
 23 24  1  0
 24 25  1  0
 25 26  2  0
 26 27  1  0
 27 28  2  0
 28 29  1  0
 29 30  2  0
 30 31  1  0
 22  2  1  0
 31 23  2  0
 21  7  1  0
 31 26  1  0
 15 10  1  0
 21 16  1  0
M  END
>  <Compound_ID>  (54) 
CHEMBL175956

>  <Active>  (54) 
1

>  <Smiles>  (54) 
O=C1NC(=O)C(c2cn(-c3cccnc3)c3ccccc23)=C1c1[nH]nc2ccccc12

>  <canonical_smi>  (54) 
O=C1NC(=O)C(c2cn(-c3cccnc3)c3ccccc23)=C1c1[nH]nc2ccccc12

>  <Set>  (54) 
G2 active

>  <Set_type>  (54) 
Train

>  <MW>  (54) 
405.42

>  <HBD>  (54) 
2

>  <HBA>  (54) 
4

>  <NRB>  (54) 
3

>  <NR>  (54) 
6

>  <NAR>  (54) 
5

>  <PSA>  (54) 
92.67

>  <Standard Type>  (54) 
nan

>  <Standard Relation>  (54) 
nan

>  <Standard Units>  (54) 
nan

>  <Standard Value>  (54) 
nan

>  <Assay ChEMBL ID>  (54) 
nan

>  <Assay Description>  (54) 
nan

>  <BAO Label>  (54) 
nan

>  <bits>  (54) 
<rdkit.DataStructs.cDataStructs.ExplicitBitVect object at 0x00000210F8EB51C0>

>  <Group>  (54) 
G2

$$$$

     RDKit          2D

 34 39  0  0  0  0  0  0  0  0999 V2000
   -3.6263   -1.0254    0.0000 O   0  0  0  0  0  0  0  0  0  0  0  0
   -3.9381   -2.4926    0.0000 C   0  0  0  0  0  0  0  0  0  0  0  0
   -5.3085   -3.1027    0.0000 N   0  0  0  0  0  0  0  0  0  0  0  0
   -5.1517   -4.5945    0.0000 C   0  0  0  0  0  0  0  0  0  0  0  0
   -6.2664   -5.5982    0.0000 O   0  0  0  0  0  0  0  0  0  0  0  0
   -3.6844   -4.9063    0.0000 C   0  0  0  0  0  0  0  0  0  0  0  0
   -2.9344   -3.6073    0.0000 C   0  0  0  0  0  0  0  0  0  0  0  0
   -1.2135   -2.7256    0.0000 C   0  0  0  0  0  0  0  0  0  0  0  0
   -0.0000   -3.6073    0.0000 C   0  0  0  0  0  0  0  0  0  0  0  0
    1.2135   -2.7256    0.0000 N   0  0  0  0  0  0  0  0  0  0  0  0
    0.7500   -1.2990    0.0000 C   0  0  0  0  0  0  0  0  0  0  0  0
    1.5000    0.0000    0.0000 C   0  0  0  0  0  0  0  0  0  0  0  0
    0.7500    1.2990    0.0000 C   0  0  0  0  0  0  0  0  0  0  0  0
   -0.7500    1.2990    0.0000 C   0  0  0  0  0  0  0  0  0  0  0  0
   -1.5000    0.0000    0.0000 C   0  0  0  0  0  0  0  0  0  0  0  0
   -0.7500   -1.2990    0.0000 C   0  0  0  0  0  0  0  0  0  0  0  0
    2.4271   -3.6073    0.0000 C   0  0  0  0  0  0  0  0  0  0  0  0
    3.1771   -4.9063    0.0000 C   0  0  0  0  0  0  0  0  0  0  0  0
    3.3338   -6.3981    0.0000 C   0  0  0  0  0  0  0  0  0  0  0  0
    2.8703   -7.8247    0.0000 O   0  0  0  0  0  0  0  0  0  0  0  0
    1.8666   -8.9394    0.0000 C   0  0  0  0  0  0  0  0  0  0  0  0
    2.7483  -10.1529    0.0000 C   0  0  0  0  0  0  0  0  0  0  0  0
    2.1382  -11.5233    0.0000 O   0  0  0  0  0  0  0  0  0  0  0  0
    0.4963   -9.5495    0.0000 C   0  0  0  0  0  0  0  0  0  0  0  0
   -1.0037   -9.5495    0.0000 C   0  0  0  0  0  0  0  0  0  0  0  0
   -2.3740   -8.9394    0.0000 N   0  0  0  0  0  0  0  0  0  0  0  0
   -3.3777   -7.8247    0.0000 C   0  0  0  0  0  0  0  0  0  0  0  0
   -3.8412   -6.3981    0.0000 C   0  0  0  0  0  0  0  0  0  0  0  0
   -4.8449   -7.5128    0.0000 C   0  0  0  0  0  0  0  0  0  0  0  0
   -6.3449   -7.5128    0.0000 C   0  0  0  0  0  0  0  0  0  0  0  0
   -7.0949   -8.8119    0.0000 C   0  0  0  0  0  0  0  0  0  0  0  0
   -6.3449  -10.1109    0.0000 C   0  0  0  0  0  0  0  0  0  0  0  0
   -4.8449  -10.1109    0.0000 C   0  0  0  0  0  0  0  0  0  0  0  0
   -4.0949   -8.8119    0.0000 C   0  0  0  0  0  0  0  0  0  0  0  0
  1  2  2  0
  2  3  1  0
  3  4  1  0
  4  5  2  0
  4  6  1  0
  6  7  2  0
  7  8  1  0
  8  9  2  0
  9 10  1  0
 10 11  1  0
 11 12  2  0
 12 13  1  0
 13 14  2  0
 14 15  1  0
 15 16  2  0
 10 17  1  0
 17 18  1  0
 18 19  1  0
 19 20  1  0
 20 21  1  0
 21 22  1  0
 22 23  1  0
 21 24  1  0
 24 25  1  0
 25 26  1  0
 26 27  1  0
 27 28  2  0
 28 29  1  0
 29 30  2  0
 30 31  1  0
 31 32  2  0
 32 33  1  0
 33 34  2  0
  7  2  1  0
 16  8  1  0
 34 26  1  0
 28  6  1  0
 34 29  1  0
 16 11  1  0
M  END
>  <Compound_ID>  (55) 
CHEMBL294120

>  <Active>  (55) 
1

>  <Smiles>  (55) 
O=C1NC(=O)C2=C1c1cn(c3ccccc13)CCCOC(CO)CCn1cc2c2ccccc21

>  <canonical_smi>  (55) 
O=C1NC(=O)C2=C1c1cn(c3ccccc13)CCCOC(CO)CCn1cc2c2ccccc21

>  <Set>  (55) 
G2 active

>  <Set_type>  (55) 
Train

>  <MW>  (55) 
455.51

>  <HBD>  (55) 
2

>  <HBA>  (55) 
4

>  <NRB>  (55) 
1

>  <NR>  (55) 
6

>  <NAR>  (55) 
4

>  <PSA>  (55) 
85.49

>  <Standard Type>  (55) 
nan

>  <Standard Relation>  (55) 
nan

>  <Standard Units>  (55) 
nan

>  <Standard Value>  (55) 
nan

>  <Assay ChEMBL ID>  (55) 
nan

>  <Assay Description>  (55) 
nan

>  <BAO Label>  (55) 
nan

>  <bits>  (55) 
<rdkit.DataStructs.cDataStructs.ExplicitBitVect object at 0x00000210F8EB5230>

>  <Group>  (55) 
G2

$$$$

     RDKit          2D

 37 40  0  0  0  0  0  0  0  0999 V2000
    5.9262   -5.9767    0.0000 O   0  0  0  0  0  0  0  0  0  0  0  0
    5.4627   -4.5501    0.0000 C   0  0  0  0  0  0  0  0  0  0  0  0
    3.9955   -4.2382    0.0000 N   0  0  0  0  0  0  0  0  0  0  0  0
    2.9918   -5.3529    0.0000 C   0  0  0  0  0  0  0  0  0  0  0  0
    3.3037   -6.8202    0.0000 C   0  0  0  0  0  0  0  0  0  0  0  0
    2.0046   -7.5702    0.0000 C   0  0  0  0  0  0  0  0  0  0  0  0
    0.8899   -6.5665    0.0000 C   0  0  0  0  0  0  0  0  0  0  0  0
    1.5000   -5.1962    0.0000 C   0  0  0  0  0  0  0  0  0  0  0  0
    0.7500   -3.8971    0.0000 O   0  0  0  0  0  0  0  0  0  0  0  0
    1.5000   -2.5981    0.0000 C   0  0  0  0  0  0  0  0  0  0  0  0
    0.7500   -1.2990    0.0000 C   0  0  0  0  0  0  0  0  0  0  0  0
    1.5000    0.0000    0.0000 C   0  0  0  0  0  0  0  0  0  0  0  0
    0.7500    1.2990    0.0000 C   0  0  0  0  0  0  0  0  0  0  0  0
    1.5000    2.5981    0.0000 O   0  0  0  0  0  0  0  0  0  0  0  0
   -0.7500    1.2990    0.0000 C   0  0  0  0  0  0  0  0  0  0  0  0
   -1.5000    2.5981    0.0000 C   0  0  0  0  0  0  0  0  0  0  0  0
   -0.7500    3.8971    0.0000 O   0  0  0  0  0  0  0  0  0  0  0  0
   -3.0000    2.5981    0.0000 C   0  0  0  0  0  0  0  0  0  0  0  0
   -3.7500    1.2990    0.0000 C   0  0  0  0  0  0  0  0  0  0  0  0
   -3.3655    0.3931    0.0000 O   0  0  0  0  0  0  0  0  0  0  0  0
   -5.2500    1.2990    0.0000 C   0  0  0  0  0  0  0  0  0  0  0  0
   -6.0000    2.5981    0.0000 C   0  0  0  0  0  0  0  0  0  0  0  0
   -5.2500    3.8971    0.0000 C   0  0  0  0  0  0  0  0  0  0  0  0
   -3.7500    3.8971    0.0000 C   0  0  0  0  0  0  0  0  0  0  0  0
   -3.0000    5.1962    0.0000 C   0  0  0  0  0  0  0  0  0  0  0  0
   -1.5000    5.1962    0.0000 O   0  0  0  0  0  0  0  0  0  0  0  0
   -3.7500    6.4952    0.0000 O   0  0  0  0  0  0  0  0  0  0  0  0
   -1.5000    0.0000    0.0000 C   0  0  0  0  0  0  0  0  0  0  0  0
   -2.4768   -0.1200    0.0000 O   0  0  0  0  0  0  0  0  0  0  0  0
   -0.7500   -1.2990    0.0000 C   0  0  0  0  0  0  0  0  0  0  0  0
    6.4664   -3.4354    0.0000 C   0  0  0  0  0  0  0  0  0  0  0  0
    7.9336   -3.7472    0.0000 C   0  0  0  0  0  0  0  0  0  0  0  0
    8.9373   -2.6325    0.0000 C   0  0  0  0  0  0  0  0  0  0  0  0
    8.4738   -1.2059    0.0000 C   0  0  0  0  0  0  0  0  0  0  0  0
    9.4775   -0.0912    0.0000 O   0  0  0  0  0  0  0  0  0  0  0  0
    7.0066   -0.8941    0.0000 C   0  0  0  0  0  0  0  0  0  0  0  0
    6.0029   -2.0088    0.0000 C   0  0  0  0  0  0  0  0  0  0  0  0
  1  2  2  0
  2  3  1  0
  3  4  1  0
  4  5  1  0
  5  6  1  0
  6  7  1  0
  7  8  1  0
  8  9  1  0
  9 10  1  0
 10 11  1  0
 11 12  2  0
 12 13  1  0
 13 14  1  0
 13 15  2  0
 15 16  1  0
 16 17  2  0
 16 18  1  0
 18 19  2  0
 19 20  1  0
 19 21  1  0
 21 22  2  0
 22 23  1  0
 23 24  2  0
 24 25  1  0
 25 26  2  0
 25 27  1  0
 15 28  1  0
 28 29  1  0
 28 30  2  0
  2 31  1  0
 31 32  2  0
 32 33  1  0
 33 34  2  0
 34 35  1  0
 34 36  1  0
 36 37  2  0
  8  4  1  0
 30 11  1  0
 37 31  1  0
 24 18  1  0
M  END
>  <Compound_ID>  (56) 
CHEMBL89833

>  <Active>  (56) 
1

>  <Smiles>  (56) 
O=C(NC1CCCC1OCc1cc(O)c(C(=O)c2c(O)cccc2C(=O)O)c(O)c1)c1ccc(O)cc1

>  <canonical_smi>  (56) 
O=C(NC1CCCC1OCc1cc(O)c(C(=O)c2c(O)cccc2C(=O)O)c(O)c1)c1ccc(O)cc1

>  <Set>  (56) 
G2 active

>  <Set_type>  (56) 
Train

>  <MW>  (56) 
507.5

>  <HBD>  (56) 
6

>  <HBA>  (56) 
9

>  <NRB>  (56) 
8

>  <NR>  (56) 
4

>  <NAR>  (56) 
3

>  <PSA>  (56) 
173.62

>  <Standard Type>  (56) 
nan

>  <Standard Relation>  (56) 
nan

>  <Standard Units>  (56) 
nan

>  <Standard Value>  (56) 
nan

>  <Assay ChEMBL ID>  (56) 
nan

>  <Assay Description>  (56) 
nan

>  <BAO Label>  (56) 
nan

>  <bits>  (56) 
<rdkit.DataStructs.cDataStructs.ExplicitBitVect object at 0x00000210F8EB57E0>

>  <Group>  (56) 
G2

$$$$

     RDKit          2D

 40 46  0  0  0  0  0  0  0  0999 V2000
   -3.2691   -1.1378    0.0000 O   0  0  0  0  0  0  0  0  0  0  0  0
   -3.4705   -2.6243    0.0000 C   0  0  0  0  0  0  0  0  0  0  0  0
   -4.7914   -3.3351    0.0000 N   0  0  0  0  0  0  0  0  0  0  0  0
   -4.5235   -4.8110    0.0000 C   0  0  0  0  0  0  0  0  0  0  0  0
   -5.5601   -5.8952    0.0000 O   0  0  0  0  0  0  0  0  0  0  0  0
   -3.0371   -5.0123    0.0000 C   0  0  0  0  0  0  0  0  0  0  0  0
   -2.3863   -3.6609    0.0000 C   0  0  0  0  0  0  0  0  0  0  0  0
   -1.2135   -2.7256    0.0000 C   0  0  0  0  0  0  0  0  0  0  0  0
   -0.0000   -3.6073    0.0000 C   0  0  0  0  0  0  0  0  0  0  0  0
    1.2135   -2.7256    0.0000 N   0  0  0  0  0  0  0  0  0  0  0  0
    0.7500   -1.2990    0.0000 C   0  0  0  0  0  0  0  0  0  0  0  0
    1.5000    0.0000    0.0000 C   0  0  0  0  0  0  0  0  0  0  0  0
    0.7500    1.2990    0.0000 C   0  0  0  0  0  0  0  0  0  0  0  0
   -0.7500    1.2990    0.0000 C   0  0  0  0  0  0  0  0  0  0  0  0
   -1.5000    0.0000    0.0000 C   0  0  0  0  0  0  0  0  0  0  0  0
   -0.7500   -1.2990    0.0000 C   0  0  0  0  0  0  0  0  0  0  0  0
    2.8840   -3.6609    0.0000 C   0  0  0  0  0  0  0  0  0  0  0  0
    3.5348   -5.0123    0.0000 C   0  0  0  0  0  0  0  0  0  0  0  0
    3.5348   -6.5123    0.0000 O   0  0  0  0  0  0  0  0  0  0  0  0
    2.8840   -7.8638    0.0000 C   0  0  0  0  0  0  0  0  0  0  0  0
    4.0568   -8.7990    0.0000 C   0  0  0  0  0  0  0  0  0  0  0  0
    3.8332  -10.2822    0.0000 N   0  0  0  0  0  0  0  0  0  0  0  0
    5.0059  -11.2175    0.0000 C   0  0  0  0  0  0  0  0  0  0  0  0
    4.7824  -12.7007    0.0000 C   0  0  0  0  0  0  0  0  0  0  0  0
    3.3861  -13.2487    0.0000 C   0  0  0  0  0  0  0  0  0  0  0  0
    3.1625  -14.7320    0.0000 C   0  0  0  0  0  0  0  0  0  0  0  0
    4.3352  -15.6672    0.0000 C   0  0  0  0  0  0  0  0  0  0  0  0
    5.7316  -15.1192    0.0000 C   0  0  0  0  0  0  0  0  0  0  0  0
    5.9551  -13.6360    0.0000 C   0  0  0  0  0  0  0  0  0  0  0  0
    1.7113   -8.7990    0.0000 C   0  0  0  0  0  0  0  0  0  0  0  0
    0.2489   -9.1328    0.0000 C   0  0  0  0  0  0  0  0  0  0  0  0
   -1.2135   -8.7990    0.0000 N   0  0  0  0  0  0  0  0  0  0  0  0
   -2.3863   -7.8638    0.0000 C   0  0  0  0  0  0  0  0  0  0  0  0
   -3.0371   -6.5123    0.0000 C   0  0  0  0  0  0  0  0  0  0  0  0
   -3.8634   -7.7642    0.0000 C   0  0  0  0  0  0  0  0  0  0  0  0
   -5.3467   -7.9877    0.0000 C   0  0  0  0  0  0  0  0  0  0  0  0
   -5.8947   -9.3840    0.0000 C   0  0  0  0  0  0  0  0  0  0  0  0
   -4.9595  -10.5568    0.0000 C   0  0  0  0  0  0  0  0  0  0  0  0
   -3.4762  -10.3332    0.0000 C   0  0  0  0  0  0  0  0  0  0  0  0
   -2.9282   -8.9369    0.0000 C   0  0  0  0  0  0  0  0  0  0  0  0
  1  2  2  0
  2  3  1  0
  3  4  1  0
  4  5  2  0
  4  6  1  0
  6  7  2  0
  7  8  1  0
  8  9  2  0
  9 10  1  0
 10 11  1  0
 11 12  2  0
 12 13  1  0
 13 14  2  0
 14 15  1  0
 15 16  2  0
 10 17  1  0
 17 18  1  0
 18 19  1  0
 19 20  1  0
 20 21  1  6
 21 22  1  0
 22 23  1  0
 23 24  1  0
 24 25  2  0
 25 26  1  0
 26 27  2  0
 27 28  1  0
 28 29  2  0
 20 30  1  0
 30 31  1  0
 31 32  1  0
 32 33  1  0
 33 34  2  0
 34 35  1  0
 35 36  2  0
 36 37  1  0
 37 38  2  0
 38 39  1  0
 39 40  2  0
  7  2  1  0
 16  8  1  0
 29 24  1  0
 40 32  1  0
 34  6  1  0
 40 35  1  0
 16 11  1  0
M  END
>  <Compound_ID>  (57) 
CHEMBL328229

>  <Active>  (57) 
1

>  <Smiles>  (57) 
O=C1NC(=O)C2=C1c1cn(c3ccccc13)CCO[C@H](CNCc1ccccc1)CCn1cc2c2ccccc21

>  <canonical_smi>  (57) 
O=C1NC(=O)C2=C1c1cn(c3ccccc13)CCO[C@H](CNCc1ccccc1)CCn1cc2c2ccccc21

>  <Set>  (57) 
G2 active

>  <Set_type>  (57) 
Train

>  <MW>  (57) 
530.63

>  <HBD>  (57) 
2

>  <HBA>  (57) 
4

>  <NRB>  (57) 
4

>  <NR>  (57) 
7

>  <NAR>  (57) 
5

>  <PSA>  (57) 
77.29

>  <Standard Type>  (57) 
nan

>  <Standard Relation>  (57) 
nan

>  <Standard Units>  (57) 
nan

>  <Standard Value>  (57) 
nan

>  <Assay ChEMBL ID>  (57) 
nan

>  <Assay Description>  (57) 
nan

>  <BAO Label>  (57) 
nan

>  <bits>  (57) 
<rdkit.DataStructs.cDataStructs.ExplicitBitVect object at 0x00000210F8EB5850>

>  <Group>  (57) 
G2

$$$$

     RDKit          2D

 37 43  0  0  0  0  0  0  0  0999 V2000
    5.4933   -4.1162    0.0000 O   0  0  0  0  0  0  0  0  0  0  0  0
    5.1814   -2.6490    0.0000 C   0  0  0  0  0  0  0  0  0  0  0  0
    3.7548   -2.1855    0.0000 C   0  0  0  0  0  0  0  0  0  0  0  0
    2.6401   -3.1891    0.0000 C   0  0  0  0  0  0  0  0  0  0  0  0
    1.2135   -2.7256    0.0000 N   0  0  0  0  0  0  0  0  0  0  0  0
    0.7500   -1.2990    0.0000 C   0  0  0  0  0  0  0  0  0  0  0  0
    1.5000    0.0000    0.0000 C   0  0  0  0  0  0  0  0  0  0  0  0
    0.7500    1.2990    0.0000 C   0  0  0  0  0  0  0  0  0  0  0  0
   -0.7500    1.2990    0.0000 C   0  0  0  0  0  0  0  0  0  0  0  0
   -1.5000    0.0000    0.0000 C   0  0  0  0  0  0  0  0  0  0  0  0
   -0.7500   -1.2990    0.0000 C   0  0  0  0  0  0  0  0  0  0  0  0
   -1.2135   -2.7256    0.0000 C   0  0  0  0  0  0  0  0  0  0  0  0
   -2.5838   -3.3357    0.0000 C   0  0  0  0  0  0  0  0  0  0  0  0
   -2.7406   -4.8275    0.0000 C   0  0  0  0  0  0  0  0  0  0  0  0
   -1.5271   -5.7092    0.0000 C   0  0  0  0  0  0  0  0  0  0  0  0
   -1.3703   -7.2010    0.0000 C   0  0  0  0  0  0  0  0  0  0  0  0
   -2.3740   -8.3157    0.0000 C   0  0  0  0  0  0  0  0  0  0  0  0
   -1.9105   -9.7423    0.0000 C   0  0  0  0  0  0  0  0  0  0  0  0
   -0.4433  -10.0541    0.0000 C   0  0  0  0  0  0  0  0  0  0  0  0
    0.5604   -8.9394    0.0000 C   0  0  0  0  0  0  0  0  0  0  0  0
    0.0969   -7.5128    0.0000 C   0  0  0  0  0  0  0  0  0  0  0  0
    0.8469   -6.2138    0.0000 N   0  0  0  0  0  0  0  0  0  0  0  0
   -0.1568   -5.0991    0.0000 C   0  0  0  0  0  0  0  0  0  0  0  0
   -0.0000   -3.6073    0.0000 C   0  0  0  0  0  0  0  0  0  0  0  0
   -4.2079   -5.1394    0.0000 C   0  0  0  0  0  0  0  0  0  0  0  0
   -4.8180   -6.5097    0.0000 O   0  0  0  0  0  0  0  0  0  0  0  0
   -4.9579   -3.8403    0.0000 N   0  0  0  0  0  0  0  0  0  0  0  0
   -3.9542   -2.7256    0.0000 C   0  0  0  0  0  0  0  0  0  0  0  0
    6.2961   -1.6453    0.0000 N   0  0  0  0  0  0  0  0  0  0  0  0
    7.7227   -2.1088    0.0000 C   0  0  0  0  0  0  0  0  0  0  0  0
    8.8374   -1.1051    0.0000 C   0  0  0  0  0  0  0  0  0  0  0  0
   10.2640   -1.5686    0.0000 N   0  0  0  0  0  0  0  0  0  0  0  0
   10.5759   -3.0359    0.0000 C   0  0  0  0  0  0  0  0  0  0  0  0
   12.0025   -3.4994    0.0000 C   0  0  0  0  0  0  0  0  0  0  0  0
   13.1172   -2.4957    0.0000 C   0  0  0  0  0  0  0  0  0  0  0  0
   12.8053   -1.0285    0.0000 C   0  0  0  0  0  0  0  0  0  0  0  0
   11.3787   -0.5649    0.0000 C   0  0  0  0  0  0  0  0  0  0  0  0
  1  2  2  0
  2  3  1  0
  3  4  1  0
  4  5  1  0
  5  6  1  0
  6  7  2  0
  7  8  1  0
  8  9  2  0
  9 10  1  0
 10 11  2  0
 11 12  1  0
 12 13  2  0
 13 14  1  0
 14 15  2  0
 15 16  1  0
 16 17  2  0
 17 18  1  0
 18 19  2  0
 19 20  1  0
 20 21  2  0
 21 22  1  0
 22 23  1  0
 23 24  2  0
 14 25  1  0
 25 26  2  0
 25 27  1  0
 27 28  1  0
  2 29  1  0
 29 30  1  0
 30 31  1  0
 31 32  1  0
 32 33  1  0
 33 34  1  0
 34 35  1  0
 35 36  1  0
 36 37  1  0
 24  5  1  0
 37 32  1  0
 11  6  1  0
 24 12  1  0
 28 13  1  0
 23 15  1  0
 21 16  1  0
M  END
>  <Compound_ID>  (58) 
CHEMBL95825

>  <Active>  (58) 
1

>  <Smiles>  (58) 
O=C(CCn1c2ccccc2c2c3c(c4c5ccccc5[nH]c4c21)C(=O)NC3)NCCN1CCCCC1

>  <canonical_smi>  (58) 
O=C(CCn1c2ccccc2c2c3c(c4c5ccccc5[nH]c4c21)C(=O)NC3)NCCN1CCCCC1

>  <Set>  (58) 
G2 active

>  <Set_type>  (58) 
Train

>  <MW>  (58) 
493.61

>  <HBD>  (58) 
3

>  <HBA>  (58) 
3

>  <NRB>  (58) 
6

>  <NR>  (58) 
7

>  <NAR>  (58) 
5

>  <PSA>  (58) 
82.16

>  <Standard Type>  (58) 
nan

>  <Standard Relation>  (58) 
nan

>  <Standard Units>  (58) 
nan

>  <Standard Value>  (58) 
nan

>  <Assay ChEMBL ID>  (58) 
nan

>  <Assay Description>  (58) 
nan

>  <BAO Label>  (58) 
nan

>  <bits>  (58) 
<rdkit.DataStructs.cDataStructs.ExplicitBitVect object at 0x00000210F8EB6260>

>  <Group>  (58) 
G2

$$$$

     RDKit          2D

 35 41  0  0  0  0  0  0  0  0999 V2000
    5.4933   -4.1162    0.0000 O   0  0  0  0  0  0  0  0  0  0  0  0
    5.1814   -2.6490    0.0000 C   0  0  0  0  0  0  0  0  0  0  0  0
    3.7548   -2.1855    0.0000 C   0  0  0  0  0  0  0  0  0  0  0  0
    2.6401   -3.1891    0.0000 C   0  0  0  0  0  0  0  0  0  0  0  0
    1.2135   -2.7256    0.0000 N   0  0  0  0  0  0  0  0  0  0  0  0
    0.7500   -1.2990    0.0000 C   0  0  0  0  0  0  0  0  0  0  0  0
    1.5000    0.0000    0.0000 C   0  0  0  0  0  0  0  0  0  0  0  0
    0.7500    1.2990    0.0000 C   0  0  0  0  0  0  0  0  0  0  0  0
   -0.7500    1.2990    0.0000 C   0  0  0  0  0  0  0  0  0  0  0  0
   -1.5000    0.0000    0.0000 C   0  0  0  0  0  0  0  0  0  0  0  0
   -0.7500   -1.2990    0.0000 C   0  0  0  0  0  0  0  0  0  0  0  0
   -1.2135   -2.7256    0.0000 C   0  0  0  0  0  0  0  0  0  0  0  0
   -2.5838   -3.3357    0.0000 C   0  0  0  0  0  0  0  0  0  0  0  0
   -2.7406   -4.8275    0.0000 C   0  0  0  0  0  0  0  0  0  0  0  0
   -1.5271   -5.7092    0.0000 C   0  0  0  0  0  0  0  0  0  0  0  0
   -1.3703   -7.2010    0.0000 C   0  0  0  0  0  0  0  0  0  0  0  0
   -2.3740   -8.3157    0.0000 C   0  0  0  0  0  0  0  0  0  0  0  0
   -1.9105   -9.7423    0.0000 C   0  0  0  0  0  0  0  0  0  0  0  0
   -0.4433  -10.0541    0.0000 C   0  0  0  0  0  0  0  0  0  0  0  0
    0.5604   -8.9394    0.0000 C   0  0  0  0  0  0  0  0  0  0  0  0
    0.0969   -7.5128    0.0000 C   0  0  0  0  0  0  0  0  0  0  0  0
    0.8469   -6.2138    0.0000 N   0  0  0  0  0  0  0  0  0  0  0  0
   -0.1568   -5.0991    0.0000 C   0  0  0  0  0  0  0  0  0  0  0  0
   -0.0000   -3.6073    0.0000 C   0  0  0  0  0  0  0  0  0  0  0  0
   -4.2079   -5.1394    0.0000 C   0  0  0  0  0  0  0  0  0  0  0  0
   -4.8180   -6.5097    0.0000 O   0  0  0  0  0  0  0  0  0  0  0  0
   -4.9579   -3.8403    0.0000 N   0  0  0  0  0  0  0  0  0  0  0  0
   -3.9542   -2.7256    0.0000 C   0  0  0  0  0  0  0  0  0  0  0  0
    6.2961   -1.6453    0.0000 N   0  0  0  0  0  0  0  0  0  0  0  0
    7.7227   -2.1088    0.0000 C   0  0  0  0  0  0  0  0  0  0  0  0
    8.8374   -1.1051    0.0000 C   0  0  0  0  0  0  0  0  0  0  0  0
    8.6806    0.3867    0.0000 C   0  0  0  0  0  0  0  0  0  0  0  0
   10.0510    0.9968    0.0000 C   0  0  0  0  0  0  0  0  0  0  0  0
   11.0547   -0.1179    0.0000 O   0  0  0  0  0  0  0  0  0  0  0  0
   10.3047   -1.4170    0.0000 C   0  0  0  0  0  0  0  0  0  0  0  0
  1  2  2  0
  2  3  1  0
  3  4  1  0
  4  5  1  0
  5  6  1  0
  6  7  2  0
  7  8  1  0
  8  9  2  0
  9 10  1  0
 10 11  2  0
 11 12  1  0
 12 13  2  0
 13 14  1  0
 14 15  2  0
 15 16  1  0
 16 17  2  0
 17 18  1  0
 18 19  2  0
 19 20  1  0
 20 21  2  0
 21 22  1  0
 22 23  1  0
 23 24  2  0
 14 25  1  0
 25 26  2  0
 25 27  1  0
 27 28  1  0
  2 29  1  0
 29 30  1  0
 30 31  1  0
 31 32  1  0
 32 33  1  0
 33 34  1  0
 34 35  1  0
 24  5  1  0
 35 31  1  0
 11  6  1  0
 24 12  1  0
 28 13  1  0
 23 15  1  0
 21 16  1  0
M  END
>  <Compound_ID>  (59) 
CHEMBL97822

>  <Active>  (59) 
1

>  <Smiles>  (59) 
O=C(CCn1c2ccccc2c2c3c(c4c5ccccc5[nH]c4c21)C(=O)NC3)NCC1CCOC1

>  <canonical_smi>  (59) 
O=C(CCn1c2ccccc2c2c3c(c4c5ccccc5[nH]c4c21)C(=O)NC3)NCC1CCOC1

>  <Set>  (59) 
G2 active

>  <Set_type>  (59) 
Train

>  <MW>  (59) 
466.54

>  <HBD>  (59) 
3

>  <HBA>  (59) 
3

>  <NRB>  (59) 
5

>  <NR>  (59) 
7

>  <NAR>  (59) 
5

>  <PSA>  (59) 
88.15

>  <Standard Type>  (59) 
nan

>  <Standard Relation>  (59) 
nan

>  <Standard Units>  (59) 
nan

>  <Standard Value>  (59) 
nan

>  <Assay ChEMBL ID>  (59) 
nan

>  <Assay Description>  (59) 
nan

>  <BAO Label>  (59) 
nan

>  <bits>  (59) 
<rdkit.DataStructs.cDataStructs.ExplicitBitVect object at 0x00000210F8EB62D0>

>  <Group>  (59) 
G2

$$$$

     RDKit          2D

 24 27  0  0  0  0  0  0  0  0999 V2000
   -6.4517    2.1925    0.0000 C   0  0  0  0  0  0  0  0  0  0  0  0
   -5.1527    1.4425    0.0000 C   0  0  0  0  0  0  0  0  0  0  0  0
   -3.8536    2.1925    0.0000 C   0  0  0  0  0  0  0  0  0  0  0  0
   -2.5546    1.4425    0.0000 C   0  0  0  0  0  0  0  0  0  0  0  0
   -2.5546   -0.0575    0.0000 C   0  0  0  0  0  0  0  0  0  0  0  0
   -3.8536   -0.8075    0.0000 C   0  0  0  0  0  0  0  0  0  0  0  0
   -3.8536   -2.3075    0.0000 C   0  0  0  0  0  0  0  0  0  0  0  0
   -2.6401   -3.1891    0.0000 C   0  0  0  0  0  0  0  0  0  0  0  0
   -1.2135   -2.7256    0.0000 C   0  0  0  0  0  0  0  0  0  0  0  0
   -0.0000   -3.6073    0.0000 C   0  0  0  0  0  0  0  0  0  0  0  0
    1.2135   -2.7256    0.0000 N   0  0  0  0  0  0  0  0  0  0  0  0
    2.6401   -3.1891    0.0000 C   0  0  0  0  0  0  0  0  0  0  0  0
    0.7500   -1.2990    0.0000 C   0  0  0  0  0  0  0  0  0  0  0  0
    1.5000    0.0000    0.0000 C   0  0  0  0  0  0  0  0  0  0  0  0
    0.7500    1.2990    0.0000 C   0  0  0  0  0  0  0  0  0  0  0  0
   -0.7500    1.2990    0.0000 C   0  0  0  0  0  0  0  0  0  0  0  0
   -1.5000    0.0000    0.0000 C   0  0  0  0  0  0  0  0  0  0  0  0
   -0.7500   -1.2990    0.0000 C   0  0  0  0  0  0  0  0  0  0  0  0
   -3.1036   -4.6157    0.0000 C   0  0  0  0  0  0  0  0  0  0  0  0
   -2.2220   -5.8293    0.0000 O   0  0  0  0  0  0  0  0  0  0  0  0
   -4.6036   -4.6157    0.0000 N   0  0  0  0  0  0  0  0  0  0  0  0
   -5.0672   -3.1891    0.0000 C   0  0  0  0  0  0  0  0  0  0  0  0
   -6.4937   -2.7256    0.0000 O   0  0  0  0  0  0  0  0  0  0  0  0
   -5.1527   -0.0575    0.0000 C   0  0  0  0  0  0  0  0  0  0  0  0
  1  2  1  0
  2  3  2  0
  3  4  1  0
  4  5  2  0
  5  6  1  0
  6  7  1  0
  7  8  2  0
  8  9  1  0
  9 10  2  0
 10 11  1  0
 11 12  1  0
 11 13  1  0
 13 14  2  0
 14 15  1  0
 15 16  2  0
 16 17  1  0
 17 18  2  0
  8 19  1  0
 19 20  2  0
 19 21  1  0
 21 22  1  0
 22 23  2  0
  6 24  2  0
 24  2  1  0
 22  7  1  0
 18  9  1  0
 18 13  1  0
M  END
>  <Compound_ID>  (60) 
CHEMBL54209

>  <Active>  (60) 
1

>  <Smiles>  (60) 
Cc1cccc(C2=C(c3cn(C)c4ccccc34)C(=O)NC2=O)c1

>  <canonical_smi>  (60) 
Cc1cccc(C2=C(c3cn(C)c4ccccc34)C(=O)NC2=O)c1

>  <Set>  (60) 
G2 active

>  <Set_type>  (60) 
Train

>  <MW>  (60) 
316.36

>  <HBD>  (60) 
1

>  <HBA>  (60) 
2

>  <NRB>  (60) 
2

>  <NR>  (60) 
4

>  <NAR>  (60) 
3

>  <PSA>  (60) 
51.1

>  <Standard Type>  (60) 
nan

>  <Standard Relation>  (60) 
nan

>  <Standard Units>  (60) 
nan

>  <Standard Value>  (60) 
nan

>  <Assay ChEMBL ID>  (60) 
nan

>  <Assay Description>  (60) 
nan

>  <BAO Label>  (60) 
nan

>  <bits>  (60) 
<rdkit.DataStructs.cDataStructs.ExplicitBitVect object at 0x00000210F8EB6650>

>  <Group>  (60) 
G2

$$$$

     RDKit          2D

 36 41  0  0  0  0  0  0  0  0999 V2000
   -3.1752   -0.7688    0.0000 O   0  0  0  0  0  0  0  0  0  0  0  0
   -3.8004   -2.1323    0.0000 C   0  0  0  0  0  0  0  0  0  0  0  0
   -5.2710   -2.4280    0.0000 N   0  0  0  0  0  0  0  0  0  0  0  0
   -5.4442   -3.9180    0.0000 C   0  0  0  0  0  0  0  0  0  0  0  0
   -6.7514   -4.6536    0.0000 O   0  0  0  0  0  0  0  0  0  0  0  0
   -4.0807   -4.5431    0.0000 C   0  0  0  0  0  0  0  0  0  0  0  0
   -3.0648   -3.4395    0.0000 C   0  0  0  0  0  0  0  0  0  0  0  0
   -1.2135   -2.7256    0.0000 C   0  0  0  0  0  0  0  0  0  0  0  0
   -0.0000   -3.6073    0.0000 C   0  0  0  0  0  0  0  0  0  0  0  0
    1.2135   -2.7256    0.0000 N   0  0  0  0  0  0  0  0  0  0  0  0
    0.7500   -1.2990    0.0000 C   0  0  0  0  0  0  0  0  0  0  0  0
    1.5000    0.0000    0.0000 C   0  0  0  0  0  0  0  0  0  0  0  0
    0.7500    1.2990    0.0000 C   0  0  0  0  0  0  0  0  0  0  0  0
   -0.7500    1.2990    0.0000 C   0  0  0  0  0  0  0  0  0  0  0  0
   -1.5000    0.0000    0.0000 C   0  0  0  0  0  0  0  0  0  0  0  0
   -0.7500   -1.2990    0.0000 C   0  0  0  0  0  0  0  0  0  0  0  0
    2.5327   -3.4395    0.0000 C   0  0  0  0  0  0  0  0  0  0  0  0
    3.5487   -4.5431    0.0000 C   0  0  0  0  0  0  0  0  0  0  0  0
    4.1512   -5.9168    0.0000 O   0  0  0  0  0  0  0  0  0  0  0  0
    4.2751   -7.4117    0.0000 C   0  0  0  0  0  0  0  0  0  0  0  0
    3.9068   -8.8658    0.0000 C   0  0  0  0  0  0  0  0  0  0  0  0
    3.0864  -10.1215    0.0000 O   0  0  0  0  0  0  0  0  0  0  0  0
    1.9027  -11.0428    0.0000 C   0  0  0  0  0  0  0  0  0  0  0  0
    0.4840  -11.5299    0.0000 C   0  0  0  0  0  0  0  0  0  0  0  0
   -1.0160  -11.5299    0.0000 O   0  0  0  0  0  0  0  0  0  0  0  0
   -2.4347  -11.0428    0.0000 C   0  0  0  0  0  0  0  0  0  0  0  0
   -3.6185  -10.1215    0.0000 C   0  0  0  0  0  0  0  0  0  0  0  0
   -4.4389   -8.8658    0.0000 N   0  0  0  0  0  0  0  0  0  0  0  0
   -4.8071   -7.4117    0.0000 C   0  0  0  0  0  0  0  0  0  0  0  0
   -4.6832   -5.9168    0.0000 C   0  0  0  0  0  0  0  0  0  0  0  0
   -6.0667   -6.4965    0.0000 C   0  0  0  0  0  0  0  0  0  0  0  0
   -7.4232   -5.8564    0.0000 C   0  0  0  0  0  0  0  0  0  0  0  0
   -8.6559   -6.7111    0.0000 C   0  0  0  0  0  0  0  0  0  0  0  0
   -8.5320   -8.2060    0.0000 C   0  0  0  0  0  0  0  0  0  0  0  0
   -7.1755   -8.8461    0.0000 C   0  0  0  0  0  0  0  0  0  0  0  0
   -5.9428   -7.9914    0.0000 C   0  0  0  0  0  0  0  0  0  0  0  0
  1  2  2  0
  2  3  1  0
  3  4  1  0
  4  5  2  0
  4  6  1  0
  6  7  2  0
  7  8  1  0
  8  9  2  0
  9 10  1  0
 10 11  1  0
 11 12  2  0
 12 13  1  0
 13 14  2  0
 14 15  1  0
 15 16  2  0
 10 17  1  0
 17 18  1  0
 18 19  1  0
 19 20  1  0
 20 21  1  0
 21 22  1  0
 22 23  1  0
 23 24  1  0
 24 25  1  0
 25 26  1  0
 26 27  1  0
 27 28  1  0
 28 29  1  0
 29 30  2  0
 30 31  1  0
 31 32  2  0
 32 33  1  0
 33 34  2  0
 34 35  1  0
 35 36  2  0
  7  2  1  0
 16  8  1  0
 36 28  1  0
 30  6  1  0
 36 31  1  0
 16 11  1  0
M  END
>  <Compound_ID>  (61) 
CHEMBL340259

>  <Active>  (61) 
1

>  <Smiles>  (61) 
O=C1NC(=O)C2=C1c1cn(c3ccccc13)CCOCCOCCOCCn1cc2c2ccccc21

>  <canonical_smi>  (61) 
O=C1NC(=O)C2=C1c1cn(c3ccccc13)CCOCCOCCOCCn1cc2c2ccccc21

>  <Set>  (61) 
G2 active

>  <Set_type>  (61) 
Test

>  <MW>  (61) 
485.54

>  <HBD>  (61) 
1

>  <HBA>  (61) 
5

>  <NRB>  (61) 
0

>  <NR>  (61) 
6

>  <NAR>  (61) 
4

>  <PSA>  (61) 
83.72

>  <Standard Type>  (61) 
nan

>  <Standard Relation>  (61) 
nan

>  <Standard Units>  (61) 
nan

>  <Standard Value>  (61) 
nan

>  <Assay ChEMBL ID>  (61) 
nan

>  <Assay Description>  (61) 
nan

>  <BAO Label>  (61) 
nan

>  <bits>  (61) 
<rdkit.DataStructs.cDataStructs.ExplicitBitVect object at 0x00000210F8EB6880>

>  <Group>  (61) 
G2

$$$$

     RDKit          2D

 31 35  0  0  0  0  0  0  0  0999 V2000
   -6.4937   -2.7256    0.0000 O   0  0  0  0  0  0  0  0  0  0  0  0
   -5.0672   -3.1891    0.0000 C   0  0  0  0  0  0  0  0  0  0  0  0
   -4.6036   -4.6157    0.0000 N   0  0  0  0  0  0  0  0  0  0  0  0
   -3.1036   -4.6157    0.0000 C   0  0  0  0  0  0  0  0  0  0  0  0
   -2.2220   -5.8293    0.0000 O   0  0  0  0  0  0  0  0  0  0  0  0
   -2.6401   -3.1891    0.0000 C   0  0  0  0  0  0  0  0  0  0  0  0
   -1.2135   -2.7256    0.0000 C   0  0  0  0  0  0  0  0  0  0  0  0
   -0.0000   -3.6073    0.0000 C   0  0  0  0  0  0  0  0  0  0  0  0
    1.2135   -2.7256    0.0000 N   0  0  0  0  0  0  0  0  0  0  0  0
    2.6401   -3.1891    0.0000 C   0  0  0  0  0  0  0  0  0  0  0  0
    2.9520   -4.6564    0.0000 C   0  0  0  0  0  0  0  0  0  0  0  0
    4.3786   -5.1199    0.0000 C   0  0  0  0  0  0  0  0  0  0  0  0
    4.6904   -6.5871    0.0000 N   0  0  0  0  0  0  0  0  0  0  0  0
    6.0607   -7.1972    0.0000 C   0  0  0  0  0  0  0  0  0  0  0  0
    5.9040   -8.6890    0.0000 C   0  0  0  0  0  0  0  0  0  0  0  0
    4.4367   -9.0009    0.0000 C   0  0  0  0  0  0  0  0  0  0  0  0
    3.6867   -7.7018    0.0000 C   0  0  0  0  0  0  0  0  0  0  0  0
    0.7500   -1.2990    0.0000 C   0  0  0  0  0  0  0  0  0  0  0  0
    1.5000    0.0000    0.0000 C   0  0  0  0  0  0  0  0  0  0  0  0
    0.7500    1.2990    0.0000 C   0  0  0  0  0  0  0  0  0  0  0  0
   -0.7500    1.2990    0.0000 C   0  0  0  0  0  0  0  0  0  0  0  0
   -1.5000    0.0000    0.0000 C   0  0  0  0  0  0  0  0  0  0  0  0
   -0.7500   -1.2990    0.0000 C   0  0  0  0  0  0  0  0  0  0  0  0
   -3.8536   -2.3075    0.0000 C   0  0  0  0  0  0  0  0  0  0  0  0
   -3.8536   -0.8075    0.0000 N   0  0  0  0  0  0  0  0  0  0  0  0
   -5.1527   -0.0575    0.0000 C   0  0  0  0  0  0  0  0  0  0  0  0
   -5.1527    1.4425    0.0000 C   0  0  0  0  0  0  0  0  0  0  0  0
   -6.4517    2.1925    0.0000 C   0  0  0  0  0  0  0  0  0  0  0  0
   -7.7508    1.4425    0.0000 C   0  0  0  0  0  0  0  0  0  0  0  0
   -7.7508   -0.0575    0.0000 C   0  0  0  0  0  0  0  0  0  0  0  0
   -6.4517   -0.8075    0.0000 C   0  0  0  0  0  0  0  0  0  0  0  0
  1  2  2  0
  2  3  1  0
  3  4  1  0
  4  5  2  0
  4  6  1  0
  6  7  1  0
  7  8  2  0
  8  9  1  0
  9 10  1  0
 10 11  1  0
 11 12  1  0
 12 13  1  0
 13 14  1  0
 14 15  1  0
 15 16  1  0
 16 17  1  0
  9 18  1  0
 18 19  2  0
 19 20  1  0
 20 21  2  0
 21 22  1  0
 22 23  2  0
  6 24  2  0
 24 25  1  0
 25 26  1  0
 26 27  2  0
 27 28  1  0
 28 29  2  0
 29 30  1  0
 30 31  2  0
 24  2  1  0
 31 26  1  0
 23  7  1  0
 17 13  1  0
 23 18  1  0
M  END
>  <Compound_ID>  (62) 
CHEMBL184042

>  <Active>  (62) 
1

>  <Smiles>  (62) 
O=C1NC(=O)C(c2cn(CCCN3CCCC3)c3ccccc23)=C1Nc1ccccc1

>  <canonical_smi>  (62) 
O=C1NC(=O)C(c2cn(CCCN3CCCC3)c3ccccc23)=C1Nc1ccccc1

>  <Set>  (62) 
G2 active

>  <Set_type>  (62) 
Test

>  <MW>  (62) 
414.51

>  <HBD>  (62) 
2

>  <HBA>  (62) 
4

>  <NRB>  (62) 
7

>  <NR>  (62) 
5

>  <NAR>  (62) 
3

>  <PSA>  (62) 
66.37

>  <Standard Type>  (62) 
nan

>  <Standard Relation>  (62) 
nan

>  <Standard Units>  (62) 
nan

>  <Standard Value>  (62) 
nan

>  <Assay ChEMBL ID>  (62) 
nan

>  <Assay Description>  (62) 
nan

>  <BAO Label>  (62) 
nan

>  <bits>  (62) 
<rdkit.DataStructs.cDataStructs.ExplicitBitVect object at 0x00000210F8EB6AB0>

>  <Group>  (62) 
G2

$$$$

     RDKit          2D

 38 44  0  0  0  0  0  0  0  0999 V2000
   -2.6401   -3.1891    0.0000 C   0  0  0  0  0  0  0  0  0  0  0  0
   -1.2135   -2.7256    0.0000 N   0  0  0  0  0  0  0  0  0  0  0  0
   -0.0000   -3.6073    0.0000 C   0  0  0  0  0  0  0  0  0  0  0  0
    1.2135   -2.7256    0.0000 C   0  0  0  0  0  0  0  0  0  0  0  0
    2.6401   -3.1891    0.0000 C   0  0  0  0  0  0  0  0  0  0  0  0
    3.8536   -2.3075    0.0000 C   0  0  0  0  0  0  0  0  0  0  0  0
    3.8536   -0.8075    0.0000 C   0  0  0  0  0  0  0  0  0  0  0  0
    2.6401    0.0742    0.0000 C   0  0  0  0  0  0  0  0  0  0  0  0
    3.1036    1.5008    0.0000 N   0  0  0  0  0  0  0  0  0  0  0  0
    2.2220    2.7143    0.0000 C   0  0  0  0  0  0  0  0  0  0  0  0
    0.7220    2.7143    0.0000 C   0  0  0  0  0  0  0  0  0  0  0  0
    0.2584    4.1409    0.0000 C   0  0  0  0  0  0  0  0  0  0  0  0
    1.4720    5.0226    0.0000 N   0  0  0  0  0  0  0  0  0  0  0  0
    1.4720    6.5226    0.0000 C   0  0  0  0  0  0  0  0  0  0  0  0
    2.7710    7.2726    0.0000 C   0  0  0  0  0  0  0  0  0  0  0  0
    4.0700    6.5226    0.0000 C   0  0  0  0  0  0  0  0  0  0  0  0
    5.3691    7.2726    0.0000 C   0  0  0  0  0  0  0  0  0  0  0  0
    5.3691    8.7726    0.0000 C   0  0  0  0  0  0  0  0  0  0  0  0
    4.0700    9.5226    0.0000 C   0  0  0  0  0  0  0  0  0  0  0  0
    2.7710    8.7726    0.0000 C   0  0  0  0  0  0  0  0  0  0  0  0
    2.6855    4.1409    0.0000 C   0  0  0  0  0  0  0  0  0  0  0  0
    4.6036    1.5008    0.0000 C   0  0  0  0  0  0  0  0  0  0  0  0
    5.6073    2.6155    0.0000 C   0  0  0  0  0  0  0  0  0  0  0  0
    7.0746    2.3036    0.0000 C   0  0  0  0  0  0  0  0  0  0  0  0
    7.5381    0.8771    0.0000 C   0  0  0  0  0  0  0  0  0  0  0  0
    6.5344   -0.2377    0.0000 C   0  0  0  0  0  0  0  0  0  0  0  0
    5.0672    0.0742    0.0000 C   0  0  0  0  0  0  0  0  0  0  0  0
    5.0672   -3.1891    0.0000 C   0  0  0  0  0  0  0  0  0  0  0  0
    6.4937   -2.7256    0.0000 O   0  0  0  0  0  0  0  0  0  0  0  0
    4.6036   -4.6157    0.0000 N   0  0  0  0  0  0  0  0  0  0  0  0
    3.1036   -4.6157    0.0000 C   0  0  0  0  0  0  0  0  0  0  0  0
    2.2220   -5.8293    0.0000 O   0  0  0  0  0  0  0  0  0  0  0  0
    0.7500   -1.2990    0.0000 C   0  0  0  0  0  0  0  0  0  0  0  0
    1.5000    0.0000    0.0000 C   0  0  0  0  0  0  0  0  0  0  0  0
    0.7500    1.2990    0.0000 C   0  0  0  0  0  0  0  0  0  0  0  0
   -0.7500    1.2990    0.0000 C   0  0  0  0  0  0  0  0  0  0  0  0
   -1.5000    0.0000    0.0000 C   0  0  0  0  0  0  0  0  0  0  0  0
   -0.7500   -1.2990    0.0000 C   0  0  0  0  0  0  0  0  0  0  0  0
  1  2  1  0
  2  3  1  0
  3  4  2  0
  4  5  1  0
  5  6  2  0
  6  7  1  0
  7  8  2  0
  8  9  1  0
  9 10  1  0
 10 11  1  0
 11 12  1  0
 12 13  1  0
 13 14  1  0
 14 15  1  0
 15 16  2  0
 16 17  1  0
 17 18  2  0
 18 19  1  0
 19 20  2  0
 13 21  1  0
  9 22  1  0
 22 23  2  0
 23 24  1  0
 24 25  2  0
 25 26  1  0
 26 27  2  0
  6 28  1  0
 28 29  2  0
 28 30  1  0
 30 31  1  0
 31 32  2  0
  4 33  1  0
 33 34  2  0
 34 35  1  0
 35 36  2  0
 36 37  1  0
 37 38  2  0
 38  2  1  0
 31  5  1  0
 38 33  1  0
 27  7  1  0
 21 10  1  0
 27 22  1  0
 20 15  1  0
M  END
>  <Compound_ID>  (63) 
CHEMBL291975

>  <Active>  (63) 
1

>  <Smiles>  (63) 
Cn1cc(C2=C(c3cn(C4CCN(Cc5ccccc5)C4)c4ccccc34)C(=O)NC2=O)c2ccccc21

>  <canonical_smi>  (63) 
Cn1cc(C2=C(c3cn(C4CCN(Cc5ccccc5)C4)c4ccccc34)C(=O)NC2=O)c2ccccc21

>  <Set>  (63) 
G2 active

>  <Set_type>  (63) 
Test

>  <MW>  (63) 
500.6

>  <HBD>  (63) 
1

>  <HBA>  (63) 
3

>  <NRB>  (63) 
5

>  <NR>  (63) 
7

>  <NAR>  (63) 
5

>  <PSA>  (63) 
59.27

>  <Standard Type>  (63) 
nan

>  <Standard Relation>  (63) 
nan

>  <Standard Units>  (63) 
nan

>  <Standard Value>  (63) 
nan

>  <Assay ChEMBL ID>  (63) 
nan

>  <Assay Description>  (63) 
nan

>  <BAO Label>  (63) 
nan

>  <bits>  (63) 
<rdkit.DataStructs.cDataStructs.ExplicitBitVect object at 0x00000210F8EB70D0>

>  <Group>  (63) 
G2

$$$$

     RDKit          2D

 39 45  0  0  0  0  0  0  0  0999 V2000
   -8.5805   -2.4478    0.0000 C   0  0  0  0  0  0  0  0  0  0  0  0
   -7.5603   -3.5474    0.0000 N   0  0  0  0  0  0  0  0  0  0  0  0
   -6.0979   -3.2136    0.0000 C   0  0  0  0  0  0  0  0  0  0  0  0
   -5.0776   -4.3132    0.0000 C   0  0  0  0  0  0  0  0  0  0  0  0
   -5.5197   -5.7465    0.0000 N   0  0  0  0  0  0  0  0  0  0  0  0
   -4.4995   -6.8461    0.0000 C   0  0  0  0  0  0  0  0  0  0  0  0
   -3.0371   -6.5123    0.0000 C   0  0  0  0  0  0  0  0  0  0  0  0
   -3.0371   -5.0123    0.0000 C   0  0  0  0  0  0  0  0  0  0  0  0
   -2.3863   -3.6609    0.0000 C   0  0  0  0  0  0  0  0  0  0  0  0
   -1.2135   -2.7256    0.0000 N   0  0  0  0  0  0  0  0  0  0  0  0
   -0.0000   -3.6073    0.0000 C   0  0  0  0  0  0  0  0  0  0  0  0
    1.2135   -2.7256    0.0000 C   0  0  0  0  0  0  0  0  0  0  0  0
    0.7500   -1.2990    0.0000 C   0  0  0  0  0  0  0  0  0  0  0  0
    1.5000    0.0000    0.0000 C   0  0  0  0  0  0  0  0  0  0  0  0
    0.7500    1.2990    0.0000 C   0  0  0  0  0  0  0  0  0  0  0  0
   -0.7500    1.2990    0.0000 C   0  0  0  0  0  0  0  0  0  0  0  0
   -1.5000    0.0000    0.0000 C   0  0  0  0  0  0  0  0  0  0  0  0
   -0.7500   -1.2990    0.0000 C   0  0  0  0  0  0  0  0  0  0  0  0
    2.8840   -3.6609    0.0000 C   0  0  0  0  0  0  0  0  0  0  0  0
    3.5348   -5.0123    0.0000 C   0  0  0  0  0  0  0  0  0  0  0  0
    5.0213   -4.8110    0.0000 C   0  0  0  0  0  0  0  0  0  0  0  0
    6.0578   -5.8952    0.0000 O   0  0  0  0  0  0  0  0  0  0  0  0
    5.2891   -3.3351    0.0000 N   0  0  0  0  0  0  0  0  0  0  0  0
    3.9682   -2.6243    0.0000 C   0  0  0  0  0  0  0  0  0  0  0  0
    3.7668   -1.1378    0.0000 O   0  0  0  0  0  0  0  0  0  0  0  0
    3.5348   -6.5123    0.0000 C   0  0  0  0  0  0  0  0  0  0  0  0
    2.8840   -7.8638    0.0000 C   0  0  0  0  0  0  0  0  0  0  0  0
    1.7113   -8.7990    0.0000 N   0  0  0  0  0  0  0  0  0  0  0  0
    3.1156   -9.3261    0.0000 C   0  0  0  0  0  0  0  0  0  0  0  0
    3.6636  -10.7224    0.0000 C   0  0  0  0  0  0  0  0  0  0  0  0
    5.1469  -10.9459    0.0000 C   0  0  0  0  0  0  0  0  0  0  0  0
    6.0821   -9.7732    0.0000 C   0  0  0  0  0  0  0  0  0  0  0  0
    5.5341   -8.3769    0.0000 C   0  0  0  0  0  0  0  0  0  0  0  0
    4.0508   -8.1533    0.0000 C   0  0  0  0  0  0  0  0  0  0  0  0
    0.2489   -9.1328    0.0000 C   0  0  0  0  0  0  0  0  0  0  0  0
   -1.2135   -8.7990    0.0000 C   0  0  0  0  0  0  0  0  0  0  0  0
   -2.3863   -7.8638    0.0000 O   0  0  0  0  0  0  0  0  0  0  0  0
   -6.9821   -6.0803    0.0000 C   0  0  0  0  0  0  0  0  0  0  0  0
   -8.0024   -4.9807    0.0000 C   0  0  0  0  0  0  0  0  0  0  0  0
  1  2  1  0
  2  3  1  0
  3  4  1  0
  4  5  1  0
  5  6  1  0
  7  6  1  6
  7  8  1  0
  8  9  1  0
  9 10  1  0
 10 11  1  0
 11 12  2  0
 12 13  1  0
 13 14  2  0
 14 15  1  0
 15 16  2  0
 16 17  1  0
 17 18  2  0
 12 19  1  0
 19 20  2  0
 20 21  1  0
 21 22  2  0
 21 23  1  0
 23 24  1  0
 24 25  2  0
 20 26  1  0
 26 27  2  0
 27 28  1  0
 28 29  1  0
 29 30  2  0
 30 31  1  0
 31 32  2  0
 32 33  1  0
 33 34  2  0
 28 35  1  0
 35 36  1  0
 36 37  1  0
  5 38  1  0
 38 39  1  0
 39  2  1  0
 37  7  1  0
 18 10  1  0
 24 19  1  0
 34 26  1  0
 18 13  1  0
 34 29  1  0
M  END
>  <Compound_ID>  (64) 
CHEMBL91959

>  <Active>  (64) 
1

>  <Smiles>  (64) 
CN1CCN(C[C@@H]2CCn3cc(c4ccccc43)C3=C(C(=O)NC3=O)c3cn(c4ccccc34)CCO2)CC1

>  <canonical_smi>  (64) 
CN1CCN(C[C@@H]2CCn3cc(c4ccccc43)C3=C(C(=O)NC3=O)c3cn(c4ccccc34)CCO2)CC1

>  <Set>  (64) 
G2 active

>  <Set_type>  (64) 
Test

>  <MW>  (64) 
523.64

>  <HBD>  (64) 
1

>  <HBA>  (64) 
5

>  <NRB>  (64) 
2

>  <NR>  (64) 
7

>  <NAR>  (64) 
4

>  <PSA>  (64) 
71.74

>  <Standard Type>  (64) 
nan

>  <Standard Relation>  (64) 
nan

>  <Standard Units>  (64) 
nan

>  <Standard Value>  (64) 
nan

>  <Assay ChEMBL ID>  (64) 
nan

>  <Assay Description>  (64) 
nan

>  <BAO Label>  (64) 
nan

>  <bits>  (64) 
<rdkit.DataStructs.cDataStructs.ExplicitBitVect object at 0x00000210F8EB7DF0>

>  <Group>  (64) 
G2

$$$$

     RDKit          2D

 45 52  0  0  0  0  0  0  0  0999 V2000
    3.3748   -0.2164    0.0000 C   0  0  0  0  0  0  0  0  0  0  0  0
    1.8748   -0.2164    0.0000 N   0  0  0  0  0  0  0  0  0  0  0  0
    1.1248   -1.5154    0.0000 C   0  0  0  0  0  0  0  0  0  0  0  0
   -0.3752   -1.5154    0.0000 C   0  0  0  0  0  0  0  0  0  0  0  0
   -1.1252   -0.2164    0.0000 N   0  0  0  0  0  0  0  0  0  0  0  0
   -2.6252   -0.2164    0.0000 C   0  0  0  0  0  0  0  0  0  0  0  0
   -3.3752   -1.5154    0.0000 C   0  0  0  0  0  0  0  0  0  0  0  0
   -4.8752   -1.5154    0.0000 C   0  0  0  0  0  0  0  0  0  0  0  0
   -5.6252   -2.8145    0.0000 N   0  0  0  0  0  0  0  0  0  0  0  0
   -5.0151   -4.1848    0.0000 N   0  0  0  0  0  0  0  0  0  0  0  0
   -6.1298   -5.1885    0.0000 C   0  0  0  0  0  0  0  0  0  0  0  0
   -5.9730   -6.6803    0.0000 C   0  0  0  0  0  0  0  0  0  0  0  0
   -4.6740   -7.4303    0.0000 C   0  0  0  0  0  0  0  0  0  0  0  0
   -3.3037   -6.8202    0.0000 C   0  0  0  0  0  0  0  0  0  0  0  0
   -2.0046   -7.5702    0.0000 C   0  0  0  0  0  0  0  0  0  0  0  0
   -0.8899   -6.5665    0.0000 N   0  0  0  0  0  0  0  0  0  0  0  0
    0.5773   -6.8783    0.0000 C   0  0  0  0  0  0  0  0  0  0  0  0
    1.0409   -8.3049    0.0000 C   0  0  0  0  0  0  0  0  0  0  0  0
    2.5081   -8.6168    0.0000 C   0  0  0  0  0  0  0  0  0  0  0  0
    3.5118   -7.5021    0.0000 C   0  0  0  0  0  0  0  0  0  0  0  0
    4.9790   -7.8139    0.0000 C   0  0  0  0  0  0  0  0  0  0  0  0
    5.9827   -6.6992    0.0000 C   0  0  0  0  0  0  0  0  0  0  0  0
    5.5192   -5.2726    0.0000 C   0  0  0  0  0  0  0  0  0  0  0  0
    4.0519   -4.9608    0.0000 C   0  0  0  0  0  0  0  0  0  0  0  0
    3.0482   -6.0755    0.0000 C   0  0  0  0  0  0  0  0  0  0  0  0
    1.5810   -5.7636    0.0000 C   0  0  0  0  0  0  0  0  0  0  0  0
   -1.5000   -5.1962    0.0000 C   0  0  0  0  0  0  0  0  0  0  0  0
   -0.8899   -3.8258    0.0000 C   0  0  0  0  0  0  0  0  0  0  0  0
   -1.7716   -2.6123    0.0000 C   0  0  0  0  0  0  0  0  0  0  0  0
   -3.2634   -2.7691    0.0000 C   0  0  0  0  0  0  0  0  0  0  0  0
   -3.8735   -4.1394    0.0000 C   0  0  0  0  0  0  0  0  0  0  0  0
   -2.9918   -5.3529    0.0000 C   0  0  0  0  0  0  0  0  0  0  0  0
   -4.9858   -8.8975    0.0000 C   0  0  0  0  0  0  0  0  0  0  0  0
   -3.9821  -10.0122    0.0000 O   0  0  0  0  0  0  0  0  0  0  0  0
   -6.4776   -9.0543    0.0000 N   0  0  0  0  0  0  0  0  0  0  0  0
   -7.0877   -7.6840    0.0000 C   0  0  0  0  0  0  0  0  0  0  0  0
   -8.5549   -7.3721    0.0000 O   0  0  0  0  0  0  0  0  0  0  0  0
   -7.4288   -4.4385    0.0000 C   0  0  0  0  0  0  0  0  0  0  0  0
   -8.8554   -4.9020    0.0000 C   0  0  0  0  0  0  0  0  0  0  0  0
   -9.9701   -3.8983    0.0000 C   0  0  0  0  0  0  0  0  0  0  0  0
   -9.6583   -2.4311    0.0000 C   0  0  0  0  0  0  0  0  0  0  0  0
   -8.2317   -1.9676    0.0000 C   0  0  0  0  0  0  0  0  0  0  0  0
   -7.1170   -2.9713    0.0000 C   0  0  0  0  0  0  0  0  0  0  0  0
   -0.3752    1.0826    0.0000 C   0  0  0  0  0  0  0  0  0  0  0  0
    1.1248    1.0826    0.0000 C   0  0  0  0  0  0  0  0  0  0  0  0
  1  2  1  0
  2  3  1  0
  3  4  1  0
  4  5  1  0
  5  6  1  0
  6  7  1  0
  7  8  1  0
  8  9  1  0
  9 10  1  0
 10 11  2  0
 11 12  1  0
 12 13  2  0
 13 14  1  0
 14 15  2  0
 15 16  1  0
 16 17  1  0
 17 18  2  0
 18 19  1  0
 19 20  2  0
 20 21  1  0
 21 22  2  0
 22 23  1  0
 23 24  2  0
 24 25  1  0
 25 26  2  0
 16 27  1  0
 27 28  2  0
 28 29  1  0
 29 30  2  0
 30 31  1  0
 31 32  2  0
 13 33  1  0
 33 34  2  0
 33 35  1  0
 35 36  1  0
 36 37  2  0
 11 38  1  0
 38 39  2  0
 39 40  1  0
 40 41  2  0
 41 42  1  0
 42 43  2  0
  5 44  1  0
 44 45  1  0
 45  2  1  0
 43  9  1  0
 36 12  1  0
 43 38  1  0
 32 14  1  0
 26 17  1  0
 32 27  1  0
 25 20  1  0
M  END
>  <Compound_ID>  (65) 
CHEMBL175845

>  <Active>  (65) 
1

>  <Smiles>  (65) 
CN1CCN(CCCn2nc(C3=C(c4cn(-c5ccc6ccccc6c5)c5ccccc45)C(=O)NC3=O)c3ccccc32)CC1

>  <canonical_smi>  (65) 
CN1CCN(CCCn2nc(C3=C(c4cn(-c5ccc6ccccc6c5)c5ccccc45)C(=O)NC3=O)c3ccccc32)CC1

>  <Set>  (65) 
G2 active

>  <Set_type>  (65) 
Test

>  <MW>  (65) 
594.72

>  <HBD>  (65) 
1

>  <HBA>  (65) 
5

>  <NRB>  (65) 
7

>  <NR>  (65) 
8

>  <NAR>  (65) 
6

>  <PSA>  (65) 
75.4

>  <Standard Type>  (65) 
nan

>  <Standard Relation>  (65) 
nan

>  <Standard Units>  (65) 
nan

>  <Standard Value>  (65) 
nan

>  <Assay ChEMBL ID>  (65) 
nan

>  <Assay Description>  (65) 
nan

>  <BAO Label>  (65) 
nan

>  <bits>  (65) 
<rdkit.DataStructs.cDataStructs.ExplicitBitVect object at 0x00000210F8EB4350>

>  <Group>  (65) 
G2

$$$$

     RDKit          2D

 43 48  0  0  0  0  0  0  0  0999 V2000
   -3.6363  -14.6316    0.0000 C   0  0  0  0  0  0  0  0  0  0  0  0
   -2.1785  -14.2779    0.0000 C   0  0  0  0  0  0  0  0  0  0  0  0
   -1.7559  -12.8387    0.0000 N   0  0  0  0  0  0  0  0  0  0  0  0
   -3.1204  -12.2156    0.0000 C   0  0  0  0  0  0  0  0  0  0  0  0
   -4.2540  -11.2333    0.0000 C   0  0  0  0  0  0  0  0  0  0  0  0
   -5.0650   -9.9714    0.0000 O   0  0  0  0  0  0  0  0  0  0  0  0
   -5.4876   -8.5322    0.0000 C   0  0  0  0  0  0  0  0  0  0  0  0
   -5.4876   -7.0322    0.0000 C   0  0  0  0  0  0  0  0  0  0  0  0
   -5.0650   -5.5929    0.0000 N   0  0  0  0  0  0  0  0  0  0  0  0
   -6.4294   -4.9698    0.0000 C   0  0  0  0  0  0  0  0  0  0  0  0
   -6.5720   -3.4766    0.0000 C   0  0  0  0  0  0  0  0  0  0  0  0
   -4.2540   -4.3310    0.0000 C   0  0  0  0  0  0  0  0  0  0  0  0
   -3.1204   -3.3487    0.0000 C   0  0  0  0  0  0  0  0  0  0  0  0
   -1.2135   -2.7256    0.0000 N   0  0  0  0  0  0  0  0  0  0  0  0
   -0.0000   -3.6073    0.0000 C   0  0  0  0  0  0  0  0  0  0  0  0
    1.2135   -2.7256    0.0000 C   0  0  0  0  0  0  0  0  0  0  0  0
    0.7500   -1.2990    0.0000 C   0  0  0  0  0  0  0  0  0  0  0  0
    1.5000    0.0000    0.0000 C   0  0  0  0  0  0  0  0  0  0  0  0
    0.7500    1.2990    0.0000 C   0  0  0  0  0  0  0  0  0  0  0  0
   -0.7500    1.2990    0.0000 C   0  0  0  0  0  0  0  0  0  0  0  0
   -1.5000    0.0000    0.0000 C   0  0  0  0  0  0  0  0  0  0  0  0
   -0.7500   -1.2990    0.0000 C   0  0  0  0  0  0  0  0  0  0  0  0
    2.5780   -3.3487    0.0000 C   0  0  0  0  0  0  0  0  0  0  0  0
    3.7116   -4.3310    0.0000 C   0  0  0  0  0  0  0  0  0  0  0  0
    4.9961   -3.5564    0.0000 C   0  0  0  0  0  0  0  0  0  0  0  0
    6.3778   -4.1403    0.0000 O   0  0  0  0  0  0  0  0  0  0  0  0
    4.6564   -2.0954    0.0000 N   0  0  0  0  0  0  0  0  0  0  0  0
    3.1619   -1.9671    0.0000 C   0  0  0  0  0  0  0  0  0  0  0  0
    2.3873   -0.6825    0.0000 O   0  0  0  0  0  0  0  0  0  0  0  0
    4.5226   -5.5929    0.0000 C   0  0  0  0  0  0  0  0  0  0  0  0
    4.9452   -7.0322    0.0000 C   0  0  0  0  0  0  0  0  0  0  0  0
    4.9452   -8.5322    0.0000 N   0  0  0  0  0  0  0  0  0  0  0  0
    6.2913   -7.8703    0.0000 C   0  0  0  0  0  0  0  0  0  0  0  0
    7.6838   -8.4278    0.0000 C   0  0  0  0  0  0  0  0  0  0  0  0
    8.8629   -7.5006    0.0000 C   0  0  0  0  0  0  0  0  0  0  0  0
    8.6494   -6.0158    0.0000 C   0  0  0  0  0  0  0  0  0  0  0  0
    7.2569   -5.4584    0.0000 C   0  0  0  0  0  0  0  0  0  0  0  0
    6.0778   -6.3856    0.0000 C   0  0  0  0  0  0  0  0  0  0  0  0
    4.5226   -9.9714    0.0000 C   0  0  0  0  0  0  0  0  0  0  0  0
    3.7116  -11.2333    0.0000 C   0  0  0  0  0  0  0  0  0  0  0  0
    2.5780  -12.2156    0.0000 O   0  0  0  0  0  0  0  0  0  0  0  0
    1.2135  -12.8387    0.0000 C   0  0  0  0  0  0  0  0  0  0  0  0
   -0.2712  -13.0522    0.0000 C   0  0  0  0  0  0  0  0  0  0  0  0
  1  2  1  0
  2  3  1  0
  3  4  1  0
  4  5  1  0
  5  6  1  0
  6  7  1  0
  7  8  1  0
  8  9  1  0
  9 10  1  0
 10 11  1  0
  9 12  1  0
 12 13  1  0
 13 14  1  0
 14 15  1  0
 15 16  2  0
 16 17  1  0
 17 18  2  0
 18 19  1  0
 19 20  2  0
 20 21  1  0
 21 22  2  0
 16 23  1  0
 23 24  2  0
 24 25  1  0
 25 26  2  0
 25 27  1  0
 27 28  1  0
 28 29  2  0
 24 30  1  0
 30 31  2  0
 31 32  1  0
 32 33  1  0
 33 34  2  0
 34 35  1  0
 35 36  2  0
 36 37  1  0
 37 38  2  0
 32 39  1  0
 39 40  1  0
 40 41  1  0
 41 42  1  0
 42 43  1  0
 43  3  1  0
 22 14  1  0
 28 23  1  0
 38 30  1  0
 22 17  1  0
 38 33  1  0
M  END
>  <Compound_ID>  (66) 
CHEMBL103421

>  <Active>  (66) 
1

>  <Smiles>  (66) 
CCN1CCOCCN(CC)CCn2cc(c3ccccc32)C2=C(C(=O)NC2=O)c2cn(c3ccccc23)CCOCC1

>  <canonical_smi>  (66) 
CCN1CCOCCN(CC)CCn2cc(c3ccccc32)C2=C(C(=O)NC2=O)c2cn(c3ccccc23)CCOCC1

>  <Set>  (66) 
G2 active

>  <Set_type>  (66) 
Test

>  <MW>  (66) 
583.73

>  <HBD>  (66) 
1

>  <HBA>  (66) 
6

>  <NRB>  (66) 
2

>  <NR>  (66) 
6

>  <NAR>  (66) 
4

>  <PSA>  (66) 
80.97

>  <Standard Type>  (66) 
nan

>  <Standard Relation>  (66) 
nan

>  <Standard Units>  (66) 
nan

>  <Standard Value>  (66) 
nan

>  <Assay ChEMBL ID>  (66) 
nan

>  <Assay Description>  (66) 
nan

>  <BAO Label>  (66) 
nan

>  <bits>  (66) 
<rdkit.DataStructs.cDataStructs.ExplicitBitVect object at 0x00000210F8EB4D60>

>  <Group>  (66) 
G2

$$$$

     RDKit          2D

 38 41  0  0  0  0  0  0  0  0999 V2000
    5.9262   -5.9767    0.0000 O   0  0  0  0  0  0  0  0  0  0  0  0
    5.4627   -4.5501    0.0000 C   0  0  0  0  0  0  0  0  0  0  0  0
    3.9955   -4.2382    0.0000 N   0  0  0  0  0  0  0  0  0  0  0  0
    2.9918   -5.3529    0.0000 C   0  0  0  0  0  0  0  0  0  0  0  0
    3.3037   -6.8202    0.0000 C   0  0  0  0  0  0  0  0  0  0  0  0
    2.0046   -7.5702    0.0000 N   0  0  0  0  0  0  0  0  0  0  0  0
    0.8899   -6.5665    0.0000 C   0  0  0  0  0  0  0  0  0  0  0  0
    1.5000   -5.1962    0.0000 C   0  0  0  0  0  0  0  0  0  0  0  0
    0.7500   -3.8971    0.0000 N   0  0  0  0  0  0  0  0  0  0  0  0
    1.5000   -2.5981    0.0000 C   0  0  0  0  0  0  0  0  0  0  0  0
    3.0000   -2.5981    0.0000 O   0  0  0  0  0  0  0  0  0  0  0  0
    0.7500   -1.2990    0.0000 C   0  0  0  0  0  0  0  0  0  0  0  0
    1.5000    0.0000    0.0000 C   0  0  0  0  0  0  0  0  0  0  0  0
    0.7500    1.2990    0.0000 C   0  0  0  0  0  0  0  0  0  0  0  0
    1.5000    2.5981    0.0000 O   0  0  0  0  0  0  0  0  0  0  0  0
   -0.7500    1.2990    0.0000 C   0  0  0  0  0  0  0  0  0  0  0  0
   -1.5000    2.5981    0.0000 C   0  0  0  0  0  0  0  0  0  0  0  0
   -0.7500    3.8971    0.0000 O   0  0  0  0  0  0  0  0  0  0  0  0
   -3.0000    2.5981    0.0000 C   0  0  0  0  0  0  0  0  0  0  0  0
   -3.7500    1.2990    0.0000 C   0  0  0  0  0  0  0  0  0  0  0  0
   -3.3655    0.3931    0.0000 O   0  0  0  0  0  0  0  0  0  0  0  0
   -5.2500    1.2990    0.0000 C   0  0  0  0  0  0  0  0  0  0  0  0
   -6.0000    2.5981    0.0000 C   0  0  0  0  0  0  0  0  0  0  0  0
   -5.2500    3.8971    0.0000 C   0  0  0  0  0  0  0  0  0  0  0  0
   -3.7500    3.8971    0.0000 C   0  0  0  0  0  0  0  0  0  0  0  0
   -3.0000    5.1962    0.0000 C   0  0  0  0  0  0  0  0  0  0  0  0
   -1.5000    5.1962    0.0000 O   0  0  0  0  0  0  0  0  0  0  0  0
   -3.7500    6.4952    0.0000 O   0  0  0  0  0  0  0  0  0  0  0  0
   -1.5000    0.0000    0.0000 C   0  0  0  0  0  0  0  0  0  0  0  0
   -2.4768   -0.1200    0.0000 O   0  0  0  0  0  0  0  0  0  0  0  0
   -0.7500   -1.2990    0.0000 C   0  0  0  0  0  0  0  0  0  0  0  0
    6.4664   -3.4354    0.0000 C   0  0  0  0  0  0  0  0  0  0  0  0
    7.9336   -3.7472    0.0000 C   0  0  0  0  0  0  0  0  0  0  0  0
    8.9373   -2.6325    0.0000 C   0  0  0  0  0  0  0  0  0  0  0  0
    8.4738   -1.2059    0.0000 C   0  0  0  0  0  0  0  0  0  0  0  0
    9.4775   -0.0912    0.0000 O   0  0  0  0  0  0  0  0  0  0  0  0
    7.0066   -0.8941    0.0000 C   0  0  0  0  0  0  0  0  0  0  0  0
    6.0029   -2.0088    0.0000 C   0  0  0  0  0  0  0  0  0  0  0  0
  1  2  2  0
  2  3  1  0
  4  3  1  6
  4  5  1  0
  5  6  1  0
  6  7  1  0
  7  8  1  0
  8  9  1  1
  9 10  1  0
 10 11  2  0
 10 12  1  0
 12 13  2  0
 13 14  1  0
 14 15  1  0
 14 16  2  0
 16 17  1  0
 17 18  2  0
 17 19  1  0
 19 20  2  0
 20 21  1  0
 20 22  1  0
 22 23  2  0
 23 24  1  0
 24 25  2  0
 25 26  1  0
 26 27  2  0
 26 28  1  0
 16 29  1  0
 29 30  1  0
 29 31  2  0
  2 32  1  0
 32 33  2  0
 33 34  1  0
 34 35  2  0
 35 36  1  0
 35 37  1  0
 37 38  2  0
  8  4  1  0
 31 12  1  0
 38 32  1  0
 25 19  1  0
M  END
>  <Compound_ID>  (67) 
CHEMBL59677

>  <Active>  (67) 
1

>  <Smiles>  (67) 
O=C(N[C@@H]1CNC[C@H]1NC(=O)c1cc(O)c(C(=O)c2c(O)cccc2C(=O)O)c(O)c1)c1ccc(O)cc1

>  <canonical_smi>  (67) 
O=C(N[C@@H]1CNC[C@H]1NC(=O)c1cc(O)c(C(=O)c2c(O)cccc2C(=O)O)c(O)c1)c1ccc(O)cc1

>  <Set>  (67) 
G2 active

>  <Set_type>  (67) 
Test

>  <MW>  (67) 
521.48

>  <HBD>  (67) 
8

>  <HBA>  (67) 
10

>  <NRB>  (67) 
7

>  <NR>  (67) 
4

>  <NAR>  (67) 
3

>  <PSA>  (67) 
205.52

>  <Standard Type>  (67) 
nan

>  <Standard Relation>  (67) 
nan

>  <Standard Units>  (67) 
nan

>  <Standard Value>  (67) 
nan

>  <Assay ChEMBL ID>  (67) 
nan

>  <Assay Description>  (67) 
nan

>  <BAO Label>  (67) 
nan

>  <bits>  (67) 
<rdkit.DataStructs.cDataStructs.ExplicitBitVect object at 0x00000210F8EB59A0>

>  <Group>  (67) 
G2

$$$$

     RDKit          2D

 38 42  0  0  0  0  0  0  0  0999 V2000
    4.5511   -9.5003    0.0000 C   0  0  0  0  0  0  0  0  0  0  0  0
    4.3943   -8.0085    0.0000 C   0  0  0  0  0  0  0  0  0  0  0  0
    3.0240   -7.3984    0.0000 C   0  0  0  0  0  0  0  0  0  0  0  0
    2.8672   -5.9066    0.0000 C   0  0  0  0  0  0  0  0  0  0  0  0
    4.0808   -5.0249    0.0000 C   0  0  0  0  0  0  0  0  0  0  0  0
    3.9240   -3.5332    0.0000 C   0  0  0  0  0  0  0  0  0  0  0  0
    5.1375   -2.6515    0.0000 O   0  0  0  0  0  0  0  0  0  0  0  0
    2.5537   -2.9231    0.0000 N   0  0  0  0  0  0  0  0  0  0  0  0
    1.2546   -3.6731    0.0000 C   0  0  0  0  0  0  0  0  0  0  0  0
    0.1399   -2.6694    0.0000 C   0  0  0  0  0  0  0  0  0  0  0  0
   -1.3273   -2.9812    0.0000 C   0  0  0  0  0  0  0  0  0  0  0  0
   -2.3310   -1.8665    0.0000 O   0  0  0  0  0  0  0  0  0  0  0  0
   -1.7909   -4.4078    0.0000 N   0  0  0  0  0  0  0  0  0  0  0  0
   -3.2581   -4.7197    0.0000 C   0  0  0  0  0  0  0  0  0  0  0  0
   -3.7216   -6.1463    0.0000 C   0  0  0  0  0  0  0  0  0  0  0  0
   -5.1888   -6.4581    0.0000 C   0  0  0  0  0  0  0  0  0  0  0  0
   -6.3035   -5.4544    0.0000 C   0  0  0  0  0  0  0  0  0  0  0  0
   -6.1467   -3.9626    0.0000 C   0  0  0  0  0  0  0  0  0  0  0  0
   -7.6026   -6.2044    0.0000 N   0  0  0  0  0  0  0  0  0  0  0  0
   -7.2907   -7.6717    0.0000 C   0  0  0  0  0  0  0  0  0  0  0  0
   -8.1724   -8.8852    0.0000 C   0  0  0  0  0  0  0  0  0  0  0  0
   -7.5623  -10.2555    0.0000 C   0  0  0  0  0  0  0  0  0  0  0  0
   -6.0705  -10.4123    0.0000 C   0  0  0  0  0  0  0  0  0  0  0  0
   -5.4604  -11.7826    0.0000 C   0  0  0  0  0  0  0  0  0  0  0  0
   -4.8503  -13.1529    0.0000 N   0  0  0  0  0  0  0  0  0  0  0  0
   -5.1888   -9.1988    0.0000 C   0  0  0  0  0  0  0  0  0  0  0  0
   -5.7989   -7.8284    0.0000 C   0  0  0  0  0  0  0  0  0  0  0  0
    0.7500   -1.2990    0.0000 C   0  0  0  0  0  0  0  0  0  0  0  0
    1.5000    0.0000    0.0000 C   0  0  0  0  0  0  0  0  0  0  0  0
    0.7500    1.2990    0.0000 C   0  0  0  0  0  0  0  0  0  0  0  0
   -0.7500    1.2990    0.0000 N   0  0  0  0  0  4  0  0  0  0  0  0
   -1.5000    0.0000    0.0000 C   0  0  0  0  0  0  0  0  0  0  0  0
   -0.7500   -1.2990    0.0000 C   0  0  0  0  0  0  0  0  0  0  0  0
    2.2418   -1.4558    0.0000 C   0  0  0  0  0  0  0  0  0  0  0  0
    5.4511   -5.6350    0.0000 C   0  0  0  0  0  0  0  0  0  0  0  0
    6.6646   -4.7534    0.0000 F   0  0  0  0  0  0  0  0  0  0  0  0
    5.6079   -7.1268    0.0000 C   0  0  0  0  0  0  0  0  0  0  0  0
    6.9782   -7.7369    0.0000 F   0  0  0  0  0  0  0  0  0  0  0  0
  1  2  1  0
  2  3  2  0
  3  4  1  0
  4  5  2  0
  5  6  1  0
  6  7  2  0
  6  8  1  0
  8  9  1  0
  9 10  1  0
 10 11  1  1
 11 12  2  0
 11 13  1  0
 13 14  1  0
 14 15  1  0
 15 16  1  0
 16 17  2  0
 17 18  1  0
 17 19  1  0
 19 20  1  0
 20 21  2  0
 21 22  1  0
 22 23  2  0
 23 24  1  0
 24 25  3  0
 23 26  1  0
 26 27  2  0
 10 28  1  0
 28 29  1  0
 29 30  1  0
 30 31  1  0
 31 32  1  0
 32 33  1  0
 28 34  1  0
  5 35  1  0
 35 36  1  0
 35 37  2  0
 37 38  1  0
 37  2  1  0
 34  8  1  0
 27 16  1  0
 33 28  1  0
 27 20  1  0
M  CHG  1  31   1
M  END
>  <Compound_ID>  (68) 
C44714538

>  <Active>  (68) 
0

>  <Smiles>  (68) 
Cc1ccc(C(=O)N2C[C@@H](C(=O)NCCc3c(C)[nH]c4ccc(C#N)cc34)C3(CC[NH2+]CC3)C2)c(F)c1F

>  <canonical_smi>  (68) 
Cc1ccc(C(=O)N2C[C@@H](C(=O)NCCc3c(C)[nH]c4ccc(C#N)cc34)C3(CC[NH2+]CC3)C2)c(F)c1F

>  <Set>  (68) 
G2 inactive

>  <Set_type>  (68) 
Train

>  <MW>  (68) 
520.6

>  <HBD>  (68) 
3

>  <HBA>  (68) 
3

>  <NRB>  (68) 
5

>  <NR>  (68) 
5

>  <NAR>  (68) 
3

>  <PSA>  (68) 
105.6

>  <Standard Type>  (68) 
nan

>  <Standard Relation>  (68) 
nan

>  <Standard Units>  (68) 
nan

>  <Standard Value>  (68) 
nan

>  <Assay ChEMBL ID>  (68) 
nan

>  <Assay Description>  (68) 
nan

>  <BAO Label>  (68) 
nan

>  <bits>  (68) 
<rdkit.DataStructs.cDataStructs.ExplicitBitVect object at 0x00000210F8C97B50>

>  <Group>  (68) 
G2

$$$$

     RDKit          2D

 26 28  0  0  0  0  0  0  0  0999 V2000
    6.5218   -0.9664    0.0000 O   0  0  0  0  0  0  0  0  0  0  0  0
    5.3083   -1.8481    0.0000 C   0  0  0  0  0  0  0  0  0  0  0  0
    5.3083   -3.3481    0.0000 N   0  0  0  0  0  0  0  0  0  0  0  0
    3.8817   -3.8116    0.0000 C   0  0  0  0  0  0  0  0  0  0  0  0
    3.4182   -5.2382    0.0000 O   0  0  0  0  0  0  0  0  0  0  0  0
    3.0000   -2.5981    0.0000 C   0  0  0  0  0  0  0  0  0  0  0  0
    1.5000   -2.5981    0.0000 C   0  0  0  0  0  0  0  0  0  0  0  0
    0.7500   -1.2990    0.0000 C   0  0  0  0  0  0  0  0  0  0  0  0
    1.5000    0.0000    0.0000 C   0  0  0  0  0  0  0  0  0  0  0  0
    0.7500    1.2990    0.0000 C   0  0  0  0  0  0  0  0  0  0  0  0
   -0.7500    1.2990    0.0000 C   0  0  0  0  0  0  0  0  0  0  0  0
   -1.5000    2.5981    0.0000 O   0  0  0  0  0  0  0  0  0  0  0  0
   -0.7500    3.8971    0.0000 S   0  0  0  0  0  0  0  0  0  0  0  0
    0.5490    3.1471    0.0000 O   0  0  0  0  0  0  0  0  0  0  0  0
   -2.0490    4.6471    0.0000 O   0  0  0  0  0  0  0  0  0  0  0  0
    0.0000    5.1962    0.0000 C   0  0  0  0  0  0  0  0  0  0  0  0
    1.5000    5.1962    0.0000 C   0  0  0  0  0  0  0  0  0  0  0  0
    2.2500    6.4952    0.0000 C   0  0  0  0  0  0  0  0  0  0  0  0
    3.7500    6.4952    0.0000 Cl  0  0  0  0  0  0  0  0  0  0  0  0
    1.5000    7.7942    0.0000 C   0  0  0  0  0  0  0  0  0  0  0  0
    0.0000    7.7942    0.0000 C   0  0  0  0  0  0  0  0  0  0  0  0
   -0.7500    9.0933    0.0000 Cl  0  0  0  0  0  0  0  0  0  0  0  0
   -0.7500    6.4952    0.0000 C   0  0  0  0  0  0  0  0  0  0  0  0
   -1.5000    0.0000    0.0000 C   0  0  0  0  0  0  0  0  0  0  0  0
   -0.7500   -1.2990    0.0000 C   0  0  0  0  0  0  0  0  0  0  0  0
    3.8817   -1.3846    0.0000 N   0  0  0  0  0  0  0  0  0  0  0  0
  1  2  2  0
  2  3  1  0
  3  4  1  0
  4  5  2  0
  4  6  1  0
  6  7  2  0
  7  8  1  0
  8  9  2  0
  9 10  1  0
 10 11  2  0
 11 12  1  0
 12 13  1  0
 13 14  2  0
 13 15  2  0
 13 16  1  0
 16 17  2  0
 17 18  1  0
 18 19  1  0
 18 20  2  0
 20 21  1  0
 21 22  1  0
 21 23  2  0
 11 24  1  0
 24 25  2  0
  6 26  1  0
 26  2  1  0
 25  8  1  0
 23 16  1  0
M  END
>  <Compound_ID>  (69) 
C02163263

>  <Active>  (69) 
0

>  <Smiles>  (69) 
O=C1NC(=O)/C(=C/c2ccc(OS(=O)(=O)c3cc(Cl)cc(Cl)c3)cc2)N1

>  <canonical_smi>  (69) 
O=C1NC(=O)/C(=C/c2ccc(OS(=O)(=O)c3cc(Cl)cc(Cl)c3)cc2)N1

>  <Set>  (69) 
G2 inactive

>  <Set_type>  (69) 
Train

>  <MW>  (69) 
413.24

>  <HBD>  (69) 
2

>  <HBA>  (69) 
5

>  <NRB>  (69) 
4

>  <NR>  (69) 
3

>  <NAR>  (69) 
2

>  <PSA>  (69) 
101.57

>  <Standard Type>  (69) 
nan

>  <Standard Relation>  (69) 
nan

>  <Standard Units>  (69) 
nan

>  <Standard Value>  (69) 
nan

>  <Assay ChEMBL ID>  (69) 
nan

>  <Assay Description>  (69) 
nan

>  <BAO Label>  (69) 
nan

>  <bits>  (69) 
<rdkit.DataStructs.cDataStructs.ExplicitBitVect object at 0x00000210F8E680B0>

>  <Group>  (69) 
G2

$$$$

     RDKit          2D

 23 24  0  0  0  0  0  0  0  0999 V2000
    3.7500   -1.2990    0.0000 O   0  0  0  0  0  0  0  0  0  0  0  0
    3.0000    0.0000    0.0000 C   0  0  0  0  0  0  0  0  0  0  0  0
    1.5000    0.0000    0.0000 C   0  0  0  0  0  0  0  0  0  0  0  0
    0.7500   -1.2990    0.0000 O   0  0  0  0  0  0  0  0  0  0  0  0
   -0.7500   -1.2990    0.0000 C   0  0  0  0  0  0  0  0  0  0  0  0
   -1.5000   -2.5981    0.0000 O   0  0  0  0  0  0  0  0  0  0  0  0
   -0.7500   -3.8971    0.0000 C   0  0  0  0  0  0  0  0  0  0  0  0
   -1.5000   -5.1962    0.0000 C   0  0  0  0  0  0  0  0  0  0  0  0
   -0.8899   -6.5665    0.0000 O   0  0  0  0  0  0  0  0  0  0  0  0
   -2.0046   -7.5702    0.0000 C   0  0  0  0  0  0  0  0  0  0  0  0
   -2.8863   -8.7837    0.0000 O   0  0  0  0  0  0  0  0  0  0  0  0
   -0.8899   -8.5739    0.0000 C   0  0  0  0  0  0  0  0  0  0  0  0
   -1.2018  -10.0411    0.0000 O   0  0  0  0  0  0  0  0  0  0  0  0
   -3.3037   -6.8202    0.0000 C   0  0  0  0  0  0  0  0  0  0  0  0
   -4.6740   -7.4303    0.0000 O   0  0  0  0  0  0  0  0  0  0  0  0
   -2.9918   -5.3529    0.0000 C   0  0  0  0  0  0  0  0  0  0  0  0
   -3.9955   -4.2382    0.0000 O   0  0  0  0  0  0  0  0  0  0  0  0
   -1.5000    0.0000    0.0000 C   0  0  0  0  0  0  0  0  0  0  0  0
   -3.0000    0.0000    0.0000 O   0  0  0  0  0  0  0  0  0  0  0  0
   -0.7500    1.2990    0.0000 C   0  0  0  0  0  0  0  0  0  0  0  0
   -1.5000    2.5981    0.0000 O   0  0  0  0  0  0  0  0  0  0  0  0
    0.7500    1.2990    0.0000 C   0  0  0  0  0  0  0  0  0  0  0  0
    1.5000    2.5981    0.0000 O   0  0  0  0  0  0  0  0  0  0  0  0
  1  2  1  0
  3  2  1  6
  3  4  1  0
  4  5  1  0
  5  6  1  1
  6  7  1  0
  8  7  1  1
  8  9  1  0
  9 10  1  0
 10 11  1  6
 10 12  1  0
 12 13  1  0
 10 14  1  0
 14 15  1  1
 14 16  1  0
 16 17  1  1
  5 18  1  0
 18 19  1  1
 18 20  1  0
 20 21  1  1
 20 22  1  0
 22 23  1  1
 22  3  1  0
 16  8  1  0
M  END
>  <Compound_ID>  (70) 
C08738284

>  <Active>  (70) 
0

>  <Smiles>  (70) 
OC[C@@H]1O[C@@H](OC[C@H]2O[C@@](O)(CO)[C@@H](O)[C@H]2O)[C@@H](O)[C@@H](O)[C@H]1O

>  <canonical_smi>  (70) 
OC[C@@H]1O[C@@H](OC[C@H]2O[C@@](O)(CO)[C@@H](O)[C@H]2O)[C@@H](O)[C@@H](O)[C@H]1O

>  <Set>  (70) 
G2 inactive

>  <Set_type>  (70) 
Train

>  <MW>  (70) 
342.3

>  <HBD>  (70) 
8

>  <HBA>  (70) 
11

>  <NRB>  (70) 
5

>  <NR>  (70) 
2

>  <NAR>  (70) 
0

>  <PSA>  (70) 
189.53

>  <Standard Type>  (70) 
nan

>  <Standard Relation>  (70) 
nan

>  <Standard Units>  (70) 
nan

>  <Standard Value>  (70) 
nan

>  <Assay ChEMBL ID>  (70) 
nan

>  <Assay Description>  (70) 
nan

>  <BAO Label>  (70) 
nan

>  <bits>  (70) 
<rdkit.DataStructs.cDataStructs.ExplicitBitVect object at 0x00000210F8E6B6F0>

>  <Group>  (70) 
G2

$$$$

     RDKit          2D

 26 26  0  0  0  0  0  0  0  0999 V2000
    5.2077   -1.4153    0.0000 C   0  0  0  0  0  0  0  0  0  0  0  0
    4.0586   -0.4512    0.0000 C   0  0  0  0  0  0  0  0  0  0  0  0
    4.3191    1.0261    0.0000 O   0  0  0  0  0  0  0  0  0  0  0  0
    2.6491   -0.9642    0.0000 N   0  0  0  0  0  0  0  0  0  0  0  0
    1.5000    0.0000    0.0000 C   0  0  0  0  0  0  0  0  0  0  0  0
    2.6491    0.9642    0.0000 C   0  0  0  0  0  0  0  0  0  0  0  0
    0.7500   -1.2990    0.0000 C   0  0  0  0  0  0  0  0  0  0  0  0
    2.1595   -1.8121    0.0000 C   0  0  0  0  0  0  0  0  0  0  0  0
    0.4895   -2.7762    0.0000 C   0  0  0  0  0  0  0  0  0  0  0  0
   -0.9200   -3.2893    0.0000 O   0  0  0  0  0  0  0  0  0  0  0  0
    1.6386   -3.7404    0.0000 C   0  0  0  0  0  0  0  0  0  0  0  0
    3.0481   -3.2274    0.0000 O   0  0  0  0  0  0  0  0  0  0  0  0
    1.3781   -5.2176    0.0000 C   0  0  0  0  0  0  0  0  0  0  0  0
    2.5272   -6.1818    0.0000 N   0  0  0  0  0  4  0  0  0  0  0  0
   -0.7500   -1.2990    0.0000 O   0  0  0  0  0  0  0  0  0  0  0  0
   -1.5000    0.0000    0.0000 C   0  0  0  0  0  0  0  0  0  0  0  0
   -2.6491    0.9642    0.0000 O   0  0  0  0  0  0  0  0  0  0  0  0
   -2.6491   -0.9642    0.0000 C   0  0  0  0  0  0  0  0  0  0  0  0
   -4.0586   -0.4512    0.0000 O   0  0  0  0  0  0  0  0  0  0  0  0
   -2.3886   -2.4414    0.0000 O   0  0  0  0  0  1  0  0  0  0  0  0
   -0.7500    1.2990    0.0000 C   0  0  0  0  0  0  0  0  0  0  0  0
   -2.1595    1.8121    0.0000 C   0  0  0  0  0  0  0  0  0  0  0  0
   -0.4895    2.7762    0.0000 C   0  0  0  0  0  0  0  0  0  0  0  0
    0.7500    1.2990    0.0000 C   0  0  0  0  0  0  0  0  0  0  0  0
    0.4895    2.7762    0.0000 C   0  0  0  0  0  0  0  0  0  0  0  0
    2.1595    1.8121    0.0000 O   0  0  0  0  0  0  0  0  0  0  0  0
  1  2  1  0
  2  3  2  0
  2  4  1  0
  4  5  1  0
  5  6  1  6
  5  7  1  0
  7  8  1  6
  7  9  1  0
  9 10  1  1
  9 11  1  0
 11 12  1  1
 11 13  1  0
 13 14  1  0
  7 15  1  0
 15 16  1  0
 16 17  1  6
 16 18  1  0
 18 19  2  0
 18 20  1  0
 16 21  1  0
 21 22  1  0
 21 23  1  0
 21 24  1  0
 24 25  1  6
 24 26  1  0
 24  5  1  0
M  CHG  2  14   1  20  -1
M  END
>  <Compound_ID>  (71) 
C09970242

>  <Active>  (71) 
0

>  <Smiles>  (71) 
CC(=O)N[C@@]1(C)[C@@](C)([C@H](O)[C@@H](O)C[NH3+])O[C@@](O)(C(=O)[O-])C(C)(C)[C@@]1(C)O

>  <canonical_smi>  (71) 
CC(=O)N[C@@]1(C)[C@@](C)([C@H](O)[C@@H](O)C[NH3+])O[C@@](O)(C(=O)[O-])C(C)(C)[C@@]1(C)O

>  <Set>  (71) 
G2 inactive

>  <Set_type>  (71) 
Train

>  <MW>  (71) 
378.42

>  <HBD>  (71) 
6

>  <HBA>  (71) 
8

>  <NRB>  (71) 
5

>  <NR>  (71) 
1

>  <NAR>  (71) 
0

>  <PSA>  (71) 
187.02

>  <Standard Type>  (71) 
nan

>  <Standard Relation>  (71) 
nan

>  <Standard Units>  (71) 
nan

>  <Standard Value>  (71) 
nan

>  <Assay ChEMBL ID>  (71) 
nan

>  <Assay Description>  (71) 
nan

>  <BAO Label>  (71) 
nan

>  <bits>  (71) 
<rdkit.DataStructs.cDataStructs.ExplicitBitVect object at 0x00000210F8E6B610>

>  <Group>  (71) 
G2

$$$$

     RDKit          2D

 21 21  0  0  0  0  0  0  0  0999 V2000
    4.4263   -5.8470    0.0000 N   0  0  0  0  0  0  0  0  0  0  0  0
    3.2772   -4.8828    0.0000 C   0  0  0  0  0  0  0  0  0  0  0  0
    1.8676   -5.3958    0.0000 O   0  0  0  0  0  0  0  0  0  0  0  0
    3.5377   -3.4056    0.0000 C   0  0  0  0  0  0  0  0  0  0  0  0
    2.3886   -2.4414    0.0000 N   0  0  0  0  0  0  0  0  0  0  0  0
    0.9791   -2.9544    0.0000 C   0  0  0  0  0  0  0  0  0  0  0  0
   -0.1700   -1.9902    0.0000 C   0  0  0  0  0  0  0  0  0  0  0  0
   -1.5796   -2.5033    0.0000 N   0  0  0  0  0  0  0  0  0  0  0  0
    0.0905   -0.5130    0.0000 O   0  0  0  0  0  0  0  0  0  0  0  0
    2.6491   -0.9642    0.0000 C   0  0  0  0  0  0  0  0  0  0  0  0
    4.1106   -0.6268    0.0000 O   0  0  0  0  0  0  0  0  0  0  0  0
    1.5000    0.0000    0.0000 C   0  0  0  0  0  0  0  0  0  0  0  0
    2.6491    0.9642    0.0000 C   0  0  0  0  0  0  0  0  0  0  0  0
    4.1106    0.6268    0.0000 N   0  0  0  0  0  0  0  0  0  0  0  0
    2.3886    2.4414    0.0000 N   0  0  0  0  0  0  0  0  0  0  0  0
    3.5377    3.4056    0.0000 O   0  0  0  0  0  0  0  0  0  0  0  0
    0.7500   -1.2990    0.0000 C   0  0  0  0  0  0  0  0  0  0  0  0
   -0.7500   -1.2990    0.0000 C   0  0  0  0  0  0  0  0  0  0  0  0
   -1.5000    0.0000    0.0000 O   0  0  0  0  0  0  0  0  0  0  0  0
   -0.7500    1.2990    0.0000 C   0  0  0  0  0  0  0  0  0  0  0  0
    0.7500    1.2990    0.0000 C   0  0  0  0  0  0  0  0  0  0  0  0
  1  2  1  0
  2  3  2  0
  2  4  1  0
  4  5  1  0
  5  6  1  0
  6  7  1  0
  7  8  1  0
  7  9  2  0
  5 10  1  0
 10 11  2  0
 10 12  1  0
 12 13  1  0
 13 14  1  0
 13 15  2  0
 15 16  1  0
 12 17  1  0
 17 18  1  0
 18 19  1  0
 19 20  1  0
 20 21  1  0
 21 12  1  0
M  END
>  <Compound_ID>  (72) 
C61809532

>  <Active>  (72) 
0

>  <Smiles>  (72) 
NC(=O)CN(CC(N)=O)C(=O)C1(/C(N)=N/O)CCOCC1

>  <canonical_smi>  (72) 
NC(=O)CN(CC(N)=O)C(=O)C1(/C(N)=N/O)CCOCC1

>  <Set>  (72) 
G2 inactive

>  <Set_type>  (72) 
Train

>  <MW>  (72) 
301.3

>  <HBD>  (72) 
4

>  <HBA>  (72) 
6

>  <NRB>  (72) 
6

>  <NR>  (72) 
1

>  <NAR>  (72) 
0

>  <PSA>  (72) 
174.33

>  <Standard Type>  (72) 
nan

>  <Standard Relation>  (72) 
nan

>  <Standard Units>  (72) 
nan

>  <Standard Value>  (72) 
nan

>  <Assay ChEMBL ID>  (72) 
nan

>  <Assay Description>  (72) 
nan

>  <BAO Label>  (72) 
nan

>  <bits>  (72) 
<rdkit.DataStructs.cDataStructs.ExplicitBitVect object at 0x00000210F8E6A5E0>

>  <Group>  (72) 
G2

$$$$

     RDKit          2D

 23 24  0  0  0  0  0  0  0  0999 V2000
    3.0000    0.0000    0.0000 N   0  0  0  0  0  0  0  0  0  0  0  0
    1.5000    0.0000    0.0000 C   0  0  0  0  0  0  0  0  0  0  0  0
    0.7500   -1.2990    0.0000 N   0  0  0  0  0  0  0  0  0  0  0  0
   -0.7500   -1.2990    0.0000 C   0  0  0  0  0  0  0  0  0  0  0  0
   -1.5000   -2.5981    0.0000 S   0  0  0  0  0  0  0  0  0  0  0  0
   -1.5000    0.0000    0.0000 N   0  0  0  0  0  0  0  0  0  0  0  0
   -0.7500    1.2990    0.0000 C   0  0  0  0  0  0  0  0  0  0  0  0
   -1.5000    2.5981    0.0000 O   0  0  0  0  0  0  0  0  0  0  0  0
    0.7500    1.2990    0.0000 C   0  0  0  0  0  0  0  0  0  0  0  0
    1.5000    2.5981    0.0000 N   0  0  0  0  0  0  0  0  0  0  0  0
    3.0000    2.5981    0.0000 N   0  0  0  0  0  0  0  0  0  0  0  0
    3.7500    3.8971    0.0000 C   0  0  0  0  0  0  0  0  0  0  0  0
    5.2500    3.8971    0.0000 C   0  0  0  0  0  0  0  0  0  0  0  0
    6.0000    2.5981    0.0000 Br  0  0  0  0  0  0  0  0  0  0  0  0
    6.0000    5.1962    0.0000 C   0  0  0  0  0  0  0  0  0  0  0  0
    5.2500    6.4952    0.0000 C   0  0  0  0  0  0  0  0  0  0  0  0
    6.0000    7.7942    0.0000 S   0  0  0  0  0  0  0  0  0  0  0  0
    6.7500    9.0933    0.0000 N   0  0  0  0  0  0  0  0  0  0  0  0
    7.2990    7.0442    0.0000 O   0  0  0  0  0  0  0  0  0  0  0  0
    4.7010    8.5442    0.0000 O   0  0  0  0  0  0  0  0  0  0  0  0
    3.7500    6.4952    0.0000 C   0  0  0  0  0  0  0  0  0  0  0  0
    3.0000    5.1962    0.0000 C   0  0  0  0  0  0  0  0  0  0  0  0
    1.5000    5.1962    0.0000 Br  0  0  0  0  0  0  0  0  0  0  0  0
  1  2  1  0
  2  3  1  0
  3  4  1  0
  4  5  2  0
  4  6  1  0
  6  7  1  0
  7  8  2  0
  7  9  1  0
  9 10  1  0
 10 11  2  0
 11 12  1  0
 12 13  2  0
 13 14  1  0
 13 15  1  0
 15 16  2  0
 16 17  1  0
 17 18  1  0
 17 19  2  0
 17 20  2  0
 16 21  1  0
 21 22  2  0
 22 23  1  0
  9  2  2  0
 22 12  1  0
M  END
>  <Compound_ID>  (73) 
C13099280

>  <Active>  (73) 
0

>  <Smiles>  (73) 
Nc1[nH]c(=S)[nH]c(=O)c1/N=N/c1c(Br)cc(S(N)(=O)=O)cc1Br

>  <canonical_smi>  (73) 
Nc1[nH]c(=S)[nH]c(=O)c1/N=N/c1c(Br)cc(S(N)(=O)=O)cc1Br

>  <Set>  (73) 
G2 inactive

>  <Set_type>  (73) 
Train

>  <MW>  (73) 
484.16

>  <HBD>  (73) 
4

>  <HBA>  (73) 
5

>  <NRB>  (73) 
3

>  <NR>  (73) 
2

>  <NAR>  (73) 
2

>  <PSA>  (73) 
159.55

>  <Standard Type>  (73) 
nan

>  <Standard Relation>  (73) 
nan

>  <Standard Units>  (73) 
nan

>  <Standard Value>  (73) 
nan

>  <Assay ChEMBL ID>  (73) 
nan

>  <Assay Description>  (73) 
nan

>  <BAO Label>  (73) 
nan

>  <bits>  (73) 
<rdkit.DataStructs.cDataStructs.ExplicitBitVect object at 0x00000210F8E69C40>

>  <Group>  (73) 
G2

$$$$

     RDKit          2D

 30 34  0  0  0  0  0  0  0  0999 V2000
    3.0000    0.0000    0.0000 N   0  0  0  0  0  0  0  0  0  0  0  0
    1.5000    0.0000    0.0000 C   0  0  0  0  0  0  0  0  0  0  0  0
    0.7500   -1.2990    0.0000 N   0  0  0  0  0  0  0  0  0  0  0  0
   -0.7500   -1.2990    0.0000 C   0  0  0  0  0  0  0  0  0  0  0  0
   -1.5000    0.0000    0.0000 N   0  0  0  0  0  0  0  0  0  0  0  0
   -0.7500    1.2990    0.0000 C   0  0  0  0  0  0  0  0  0  0  0  0
    0.7500    1.2990    0.0000 C   0  0  0  0  0  0  0  0  0  0  0  0
    1.2135    2.7256    0.0000 C   0  0  0  0  0  0  0  0  0  0  0  0
    2.6401    3.1891    0.0000 C   0  0  0  0  0  0  0  0  0  0  0  0
    3.1036    4.6157    0.0000 N   0  0  0  0  0  0  0  0  0  0  0  0
    4.6036    4.6157    0.0000 C   0  0  0  0  0  0  0  0  0  0  0  0
    5.4853    5.8293    0.0000 C   0  0  0  0  0  0  0  0  0  0  0  0
    6.9771    5.6725    0.0000 C   0  0  0  0  0  0  0  0  0  0  0  0
    7.8588    6.8860    0.0000 C   0  0  0  0  0  0  0  0  0  0  0  0
    7.2487    8.2563    0.0000 C   0  0  0  0  0  0  0  0  0  0  0  0
    5.7569    8.4131    0.0000 C   0  0  0  0  0  0  0  0  0  0  0  0
    4.8752    7.1996    0.0000 C   0  0  0  0  0  0  0  0  0  0  0  0
    5.0672    3.1891    0.0000 C   0  0  0  0  0  0  0  0  0  0  0  0
    3.8536    2.3075    0.0000 S   0  0  0  0  0  0  0  0  0  0  0  0
   -0.0000    3.6073    0.0000 C   0  0  0  0  0  0  0  0  0  0  0  0
   -1.2135    2.7256    0.0000 N   0  0  0  0  0  0  0  0  0  0  0  0
   -2.6401    3.1891    0.0000 C   0  0  0  0  0  0  0  0  0  0  0  0
   -3.8536    2.3075    0.0000 O   0  0  0  0  0  0  0  0  0  0  0  0
   -5.0672    3.1891    0.0000 C   0  0  0  0  0  0  0  0  0  0  0  0
   -6.4937    2.7256    0.0000 C   0  0  0  0  0  0  0  0  0  0  0  0
   -7.6085    3.7293    0.0000 O   0  0  0  0  0  0  0  0  0  0  0  0
   -4.6036    4.6157    0.0000 C   0  0  0  0  0  0  0  0  0  0  0  0
   -5.4853    5.8293    0.0000 O   0  0  0  0  0  0  0  0  0  0  0  0
   -3.1036    4.6157    0.0000 C   0  0  0  0  0  0  0  0  0  0  0  0
   -2.2220    5.8293    0.0000 O   0  0  0  0  0  0  0  0  0  0  0  0
  1  2  1  0
  2  3  2  0
  3  4  1  0
  4  5  2  0
  5  6  1  0
  6  7  2  0
  7  8  1  0
  8  9  1  0
  9 10  2  0
 10 11  1  0
 11 12  1  0
 12 13  2  0
 13 14  1  0
 14 15  2  0
 15 16  1  0
 16 17  2  0
 11 18  2  0
 18 19  1  0
  8 20  2  0
 20 21  1  0
 22 21  1  6
 22 23  1  0
 23 24  1  0
 24 25  1  1
 25 26  1  0
 24 27  1  0
 27 28  1  1
 27 29  1  0
 29 30  1  6
  7  2  1  0
 19  9  1  0
 29 22  1  0
 21  6  1  0
 17 12  1  0
M  END
>  <Compound_ID>  (74) 
C05121289

>  <Active>  (74) 
0

>  <Smiles>  (74) 
Nc1ncnc2c1c(-c1nc(-c3ccccc3)cs1)cn2[C@@H]1O[C@@H](CO)[C@@H](O)[C@@H]1O

>  <canonical_smi>  (74) 
Nc1ncnc2c1c(-c1nc(-c3ccccc3)cs1)cn2[C@@H]1O[C@@H](CO)[C@@H](O)[C@@H]1O

>  <Set>  (74) 
G2 inactive

>  <Set_type>  (74) 
Train

>  <MW>  (74) 
425.47

>  <HBD>  (74) 
4

>  <HBA>  (74) 
8

>  <NRB>  (74) 
4

>  <NR>  (74) 
5

>  <NAR>  (74) 
4

>  <PSA>  (74) 
139.54

>  <Standard Type>  (74) 
nan

>  <Standard Relation>  (74) 
nan

>  <Standard Units>  (74) 
nan

>  <Standard Value>  (74) 
nan

>  <Assay ChEMBL ID>  (74) 
nan

>  <Assay Description>  (74) 
nan

>  <BAO Label>  (74) 
nan

>  <bits>  (74) 
<rdkit.DataStructs.cDataStructs.ExplicitBitVect object at 0x00000210F8E69770>

>  <Group>  (74) 
G2

$$$$

     RDKit          2D

 33 36  0  0  0  0  0  0  0  0999 V2000
    3.7500   -1.2990    0.0000 C   0  0  0  0  0  0  0  0  0  0  0  0
    3.0000    0.0000    0.0000 N   0  0  0  0  0  0  0  0  0  0  0  0
    3.7500    1.2990    0.0000 C   0  0  0  0  0  0  0  0  0  0  0  0
    1.5000    0.0000    0.0000 C   0  0  0  0  0  0  0  0  0  0  0  0
    0.7500   -1.2990    0.0000 C   0  0  0  0  0  0  0  0  0  0  0  0
   -0.7500   -1.2990    0.0000 C   0  0  0  0  0  0  0  0  0  0  0  0
   -1.5000    0.0000    0.0000 C   0  0  0  0  0  0  0  0  0  0  0  0
   -0.7500    1.2990    0.0000 C   0  0  0  0  0  0  0  0  0  0  0  0
    0.7500    1.2990    0.0000 C   0  0  0  0  0  0  0  0  0  0  0  0
    1.5000    2.5981    0.0000 O   0  0  0  0  0  0  0  0  0  0  0  0
   -1.5000    2.5981    0.0000 C   0  0  0  0  0  0  0  0  0  0  0  0
   -0.7500    3.8971    0.0000 O   0  0  0  0  0  0  0  0  0  0  0  0
   -3.0000    2.5981    0.0000 C   0  0  0  0  0  0  0  0  0  0  0  0
   -3.7500    3.8971    0.0000 C   0  0  0  0  0  0  0  0  0  0  0  0
   -3.0000    5.1962    0.0000 O   0  0  0  0  0  0  0  0  0  0  0  0
   -5.2500    3.8971    0.0000 C   0  0  0  0  0  0  0  0  0  0  0  0
   -4.5000    5.1962    0.0000 O   0  0  0  0  0  0  0  0  0  0  0  0
   -6.0000    5.1962    0.0000 C   0  0  0  0  0  0  0  0  0  0  0  0
   -5.2500    6.4952    0.0000 O   0  0  0  0  0  1  0  0  0  0  0  0
   -7.5000    5.1962    0.0000 C   0  0  0  0  0  0  0  0  0  0  0  0
   -8.2500    6.4952    0.0000 C   0  0  0  0  0  0  0  0  0  0  0  0
   -7.5000    7.7942    0.0000 N   0  0  0  0  0  0  0  0  0  0  0  0
   -9.7500    6.4952    0.0000 O   0  0  0  0  0  0  0  0  0  0  0  0
   -8.2500    3.8971    0.0000 C   0  0  0  0  0  0  0  0  0  0  0  0
   -9.7500    3.8971    0.0000 O   0  0  0  0  0  0  0  0  0  0  0  0
   -7.5000    2.5981    0.0000 C   0  0  0  0  0  0  0  0  0  0  0  0
   -8.2500    1.2990    0.0000 N   0  0  0  0  0  4  0  0  0  0  0  0
   -9.7500    1.2990    0.0000 C   0  0  0  0  0  0  0  0  0  0  0  0
   -7.5000   -0.0000    0.0000 C   0  0  0  0  0  0  0  0  0  0  0  0
   -6.0000    2.5981    0.0000 C   0  0  0  0  0  0  0  0  0  0  0  0
   -5.2500    1.2990    0.0000 C   0  0  0  0  0  0  0  0  0  0  0  0
   -3.7500    1.2990    0.0000 C   0  0  0  0  0  0  0  0  0  0  0  0
   -3.0000    0.0000    0.0000 C   0  0  0  0  0  0  0  0  0  0  0  0
  1  2  1  0
  2  3  1  0
  2  4  1  0
  4  5  2  0
  5  6  1  0
  6  7  2  0
  7  8  1  0
  8  9  2  0
  9 10  1  0
  8 11  1  0
 11 12  2  0
 13 11  1  6
 13 14  1  0
 14 15  2  0
 14 16  1  0
 16 17  1  1
 16 18  1  0
 18 19  1  0
 18 20  2  0
 20 21  1  0
 21 22  1  0
 21 23  2  0
 20 24  1  0
 24 25  2  0
 24 26  1  0
 26 27  1  6
 27 28  1  0
 27 29  1  0
 26 30  1  0
 30 31  1  6
 32 31  1  1
 32 33  1  0
  9  4  1  0
 32 13  1  0
 33  7  1  0
 30 16  1  0
M  CHG  2  19  -1  27   1
M  END
>  <Compound_ID>  (75) 
C44021601

>  <Active>  (75) 
0

>  <Smiles>  (75) 
CN(C)c1ccc2c(c1O)C(=O)[C@H]1C(=O)[C@@]3(O)C([O-])=C(C(N)=O)C(=O)[C@@H]([NH+](C)C)[C@H]3C[C@@H]1C2

>  <canonical_smi>  (75) 
CN(C)c1ccc2c(c1O)C(=O)[C@H]1C(=O)[C@@]3(O)C([O-])=C(C(N)=O)C(=O)[C@@H]([NH+](C)C)[C@H]3C[C@@H]1C2

>  <Set>  (75) 
G2 inactive

>  <Set_type>  (75) 
Train

>  <MW>  (75) 
457.48

>  <HBD>  (75) 
4

>  <HBA>  (75) 
8

>  <NRB>  (75) 
3

>  <NR>  (75) 
4

>  <NAR>  (75) 
1

>  <PSA>  (75) 
165.5

>  <Standard Type>  (75) 
nan

>  <Standard Relation>  (75) 
nan

>  <Standard Units>  (75) 
nan

>  <Standard Value>  (75) 
nan

>  <Assay ChEMBL ID>  (75) 
nan

>  <Assay Description>  (75) 
nan

>  <BAO Label>  (75) 
nan

>  <bits>  (75) 
<rdkit.DataStructs.cDataStructs.ExplicitBitVect object at 0x00000210F8E69E70>

>  <Group>  (75) 
G2

$$$$

     RDKit          2D

 30 33  0  0  0  0  0  0  0  0999 V2000
    1.2990   -5.8573    0.0000 C   0  0  0  0  0  0  0  0  0  0  0  0
   -0.0000   -5.1073    0.0000 C   0  0  0  0  0  0  0  0  0  0  0  0
   -1.2990   -5.8573    0.0000 N   0  0  0  0  0  0  0  0  0  0  0  0
   -2.5981   -5.1073    0.0000 N   0  0  0  0  0  0  0  0  0  0  0  0
   -3.8971   -5.8573    0.0000 C   0  0  0  0  0  0  0  0  0  0  0  0
   -3.8971   -7.3573    0.0000 O   0  0  0  0  0  0  0  0  0  0  0  0
   -5.1962   -5.1073    0.0000 C   0  0  0  0  0  0  0  0  0  0  0  0
   -5.1962   -3.6073    0.0000 C   0  0  0  0  0  0  0  0  0  0  0  0
   -6.4952   -2.8573    0.0000 C   0  0  0  0  0  0  0  0  0  0  0  0
   -7.7942   -3.6073    0.0000 C   0  0  0  0  0  0  0  0  0  0  0  0
   -7.7942   -5.1073    0.0000 C   0  0  0  0  0  0  0  0  0  0  0  0
   -6.4952   -5.8573    0.0000 C   0  0  0  0  0  0  0  0  0  0  0  0
   -6.4952   -7.3573    0.0000 N   0  0  0  0  0  2  0  0  0  0  0  0
   -7.7942   -8.1073    0.0000 S   0  0  0  0  0  0  0  0  0  0  0  0
   -8.5442   -6.8083    0.0000 O   0  0  0  0  0  0  0  0  0  0  0  0
   -7.0442   -9.4063    0.0000 O   0  0  0  0  0  0  0  0  0  0  0  0
   -9.0933   -8.8573    0.0000 C   0  0  0  0  0  0  0  0  0  0  0  0
   -9.2501  -10.3491    0.0000 C   0  0  0  0  0  0  0  0  0  0  0  0
  -10.7173  -10.6610    0.0000 C   0  0  0  0  0  0  0  0  0  0  0  0
  -11.4673   -9.3619    0.0000 C   0  0  0  0  0  0  0  0  0  0  0  0
  -10.4636   -8.2472    0.0000 S   0  0  0  0  0  0  0  0  0  0  0  0
   -0.0000   -3.6073    0.0000 C   0  0  0  0  0  0  0  0  0  0  0  0
    1.2135   -2.7256    0.0000 N   0  0  0  0  0  0  0  0  0  0  0  0
    0.7500   -1.2990    0.0000 C   0  0  0  0  0  0  0  0  0  0  0  0
    1.5000    0.0000    0.0000 C   0  0  0  0  0  0  0  0  0  0  0  0
    0.7500    1.2990    0.0000 C   0  0  0  0  0  0  0  0  0  0  0  0
   -0.7500    1.2990    0.0000 C   0  0  0  0  0  0  0  0  0  0  0  0
   -1.5000    0.0000    0.0000 C   0  0  0  0  0  0  0  0  0  0  0  0
   -0.7500   -1.2990    0.0000 C   0  0  0  0  0  0  0  0  0  0  0  0
   -1.2135   -2.7256    0.0000 N   0  0  0  0  0  0  0  0  0  0  0  0
  1  2  1  0
  2  3  2  0
  3  4  1  0
  4  5  1  0
  5  6  2  0
  5  7  1  0
  7  8  2  0
  8  9  1  0
  9 10  2  0
 10 11  1  0
 11 12  2  0
 12 13  1  0
 13 14  1  0
 14 15  2  0
 14 16  2  0
 14 17  1  0
 17 18  2  0
 18 19  1  0
 19 20  2  0
 20 21  1  0
  2 22  1  0
 22 23  2  0
 23 24  1  0
 24 25  2  0
 25 26  1  0
 26 27  2  0
 27 28  1  0
 28 29  2  0
 29 30  1  0
 12  7  1  0
 21 17  1  0
 30 22  1  0
 29 24  1  0
M  CHG  1  13  -1
M  END
>  <Compound_ID>  (76) 
C17414669

>  <Active>  (76) 
0

>  <Smiles>  (76) 
C/C(=N/NC(=O)c1ccccc1[N-]S(=O)(=O)c1cccs1)c1nc2ccccc2[nH]1

>  <canonical_smi>  (76) 
C/C(=N/NC(=O)c1ccccc1[N-]S(=O)(=O)c1cccs1)c1nc2ccccc2[nH]1

>  <Set>  (76) 
G2 inactive

>  <Set_type>  (76) 
Train

>  <MW>  (76) 
438.51

>  <HBD>  (76) 
2

>  <HBA>  (76) 
4

>  <NRB>  (76) 
6

>  <NR>  (76) 
4

>  <NAR>  (76) 
4

>  <PSA>  (76) 
118.38

>  <Standard Type>  (76) 
nan

>  <Standard Relation>  (76) 
nan

>  <Standard Units>  (76) 
nan

>  <Standard Value>  (76) 
nan

>  <Assay ChEMBL ID>  (76) 
nan

>  <Assay Description>  (76) 
nan

>  <BAO Label>  (76) 
nan

>  <bits>  (76) 
<rdkit.DataStructs.cDataStructs.ExplicitBitVect object at 0x00000210F8E6BA70>

>  <Group>  (76) 
G2

$$$$

     RDKit          2D

 32 35  0  0  0  0  0  0  0  0999 V2000
    3.7500   -1.2990    0.0000 C   0  0  0  0  0  0  0  0  0  0  0  0
    3.0000    0.0000    0.0000 O   0  0  0  0  0  0  0  0  0  0  0  0
    1.5000    0.0000    0.0000 C   0  0  0  0  0  0  0  0  0  0  0  0
    0.7500   -1.2990    0.0000 C   0  0  0  0  0  0  0  0  0  0  0  0
   -0.7500   -1.2990    0.0000 C   0  0  0  0  0  0  0  0  0  0  0  0
   -1.5000   -2.5981    0.0000 C   0  0  0  0  0  0  0  0  0  0  0  0
   -0.7500   -3.8971    0.0000 O   0  0  0  0  0  0  0  0  0  0  0  0
   -3.0000   -2.5981    0.0000 C   0  0  0  0  0  0  0  0  0  0  0  0
   -3.7500   -3.8971    0.0000 C   0  0  0  0  0  0  0  0  0  0  0  0
   -5.2500   -3.8971    0.0000 C   0  0  0  0  0  0  0  0  0  0  0  0
   -6.0000   -5.1962    0.0000 C   0  0  0  0  0  0  0  0  0  0  0  0
   -5.2500   -6.4952    0.0000 C   0  0  0  0  0  0  0  0  0  0  0  0
   -6.0000   -7.7942    0.0000 O   0  0  0  0  0  0  0  0  0  0  0  0
   -3.7500   -6.4952    0.0000 C   0  0  0  0  0  0  0  0  0  0  0  0
   -3.0000   -5.1962    0.0000 C   0  0  0  0  0  0  0  0  0  0  0  0
   -3.7500   -1.2990    0.0000 C   0  0  0  0  0  0  0  0  0  0  0  0
   -3.0000    0.0000    0.0000 O   0  0  0  0  0  0  0  0  0  0  0  0
   -1.5000    0.0000    0.0000 C   0  0  0  0  0  0  0  0  0  0  0  0
   -0.7500    1.2990    0.0000 C   0  0  0  0  0  0  0  0  0  0  0  0
    0.7500    1.2990    0.0000 C   0  0  0  0  0  0  0  0  0  0  0  0
    1.5000    2.5981    0.0000 O   0  0  0  0  0  0  0  0  0  0  0  0
    0.7500    3.8971    0.0000 C   0  0  0  0  0  0  0  0  0  0  0  0
    1.5000    5.1962    0.0000 O   0  0  0  0  0  0  0  0  0  0  0  0
    0.7500    6.4952    0.0000 C   0  0  0  0  0  0  0  0  0  0  0  0
    1.5000    7.7942    0.0000 C   0  0  0  0  0  0  0  0  0  0  0  0
    3.0000    7.7942    0.0000 O   0  0  0  0  0  0  0  0  0  0  0  0
   -0.7500    6.4952    0.0000 C   0  0  0  0  0  0  0  0  0  0  0  0
   -1.5000    7.7942    0.0000 O   0  0  0  0  0  0  0  0  0  0  0  0
   -1.5000    5.1962    0.0000 C   0  0  0  0  0  0  0  0  0  0  0  0
   -3.0000    5.1962    0.0000 O   0  0  0  0  0  0  0  0  0  0  0  0
   -0.7500    3.8971    0.0000 C   0  0  0  0  0  0  0  0  0  0  0  0
   -1.5000    2.5981    0.0000 O   0  0  0  0  0  0  0  0  0  0  0  0
  1  2  1  0
  2  3  1  0
  3  4  2  0
  4  5  1  0
  5  6  1  0
  6  7  2  0
  6  8  1  0
  8  9  1  0
  9 10  2  0
 10 11  1  0
 11 12  2  0
 12 13  1  0
 12 14  1  0
 14 15  2  0
  8 16  2  0
 16 17  1  0
 17 18  1  0
 18 19  1  0
 19 20  2  0
 20 21  1  0
 22 21  1  1
 22 23  1  0
 23 24  1  0
 24 25  1  1
 25 26  1  0
 24 27  1  0
 27 28  1  6
 27 29  1  0
 29 30  1  1
 29 31  1  0
 31 32  1  1
 20  3  1  0
 31 22  1  0
 18  5  2  0
 15  9  1  0
M  END
>  <Compound_ID>  (77) 
C39937114

>  <Active>  (77) 
0

>  <Smiles>  (77) 
COc1cc2c(=O)c(-c3ccc(O)cc3)coc2cc1O[C@@H]1O[C@H](CO)[C@@H](O)[C@H](O)[C@@H]1O

>  <canonical_smi>  (77) 
COc1cc2c(=O)c(-c3ccc(O)cc3)coc2cc1O[C@@H]1O[C@H](CO)[C@@H](O)[C@H](O)[C@@H]1O

>  <Set>  (77) 
G2 inactive

>  <Set_type>  (77) 
Train

>  <MW>  (77) 
446.41

>  <HBD>  (77) 
5

>  <HBA>  (77) 
10

>  <NRB>  (77) 
5

>  <NR>  (77) 
4

>  <NAR>  (77) 
3

>  <PSA>  (77) 
159.05

>  <Standard Type>  (77) 
nan

>  <Standard Relation>  (77) 
nan

>  <Standard Units>  (77) 
nan

>  <Standard Value>  (77) 
nan

>  <Assay ChEMBL ID>  (77) 
nan

>  <Assay Description>  (77) 
nan

>  <BAO Label>  (77) 
nan

>  <bits>  (77) 
<rdkit.DataStructs.cDataStructs.ExplicitBitVect object at 0x00000210F8E6BB50>

>  <Group>  (77) 
G2

$$$$

     RDKit          2D

 20 24  0  0  0  0  0  0  0  0999 V2000
   -3.3067    4.6817    0.0000 O   0  0  0  0  0  0  0  0  0  0  0  0
   -2.0932    3.8000    0.0000 C   0  0  0  0  0  0  0  0  0  0  0  0
   -0.7229    4.4102    0.0000 C   0  0  0  0  0  0  0  0  0  0  0  0
    0.4906    3.5285    0.0000 C   0  0  0  0  0  0  0  0  0  0  0  0
    0.3338    2.0367    0.0000 C   0  0  0  0  0  0  0  0  0  0  0  0
   -1.0365    1.4266    0.0000 C   0  0  0  0  0  0  0  0  0  0  0  0
   -2.2500    2.3083    0.0000 C   0  0  0  0  0  0  0  0  0  0  0  0
   -3.4635    1.4266    0.0000 O   0  0  0  0  0  0  0  0  0  0  0  0
   -3.0000    0.0000    0.0000 C   0  0  0  0  0  0  0  0  0  0  0  0
   -3.7500   -1.2990    0.0000 C   0  0  0  0  0  0  0  0  0  0  0  0
   -5.2500   -1.2990    0.0000 O   0  0  0  0  0  0  0  0  0  0  0  0
   -3.0000   -2.5981    0.0000 C   0  0  0  0  0  0  0  0  0  0  0  0
   -1.5000   -2.5981    0.0000 C   0  0  0  0  0  0  0  0  0  0  0  0
   -0.7500   -1.2990    0.0000 C   0  0  0  0  0  0  0  0  0  0  0  0
    0.7500   -1.2990    0.0000 C   0  0  0  0  0  0  0  0  0  0  0  0
    1.2389    0.8405    0.0000 C   0  0  0  0  0  0  0  0  0  0  0  0
    0.8000   -0.0000    0.0000 N   0  0  0  0  0  4  0  0  0  0  0  0
    0.4000    0.6928    0.0000 C   0  0  0  0  0  0  0  0  0  0  0  0
   -0.4000    0.6928    0.0000 C   0  0  0  0  0  0  0  0  0  0  0  0
   -1.5000    0.0000    0.0000 C   0  0  0  0  0  0  0  0  0  0  0  0
  1  2  1  0
  2  3  2  0
  3  4  1  0
  4  5  2  0
  5  6  1  0
  6  7  2  0
  7  8  1  0
  9  8  1  6
  9 10  1  0
 10 11  1  1
 10 12  1  0
 12 13  2  0
 14 13  1  1
 14 15  1  0
 15 16  1  1
 15 17  1  0
 17 18  1  0
 18 19  1  0
 20 19  1  6
  7  2  1  0
 20  9  1  0
 16  5  1  0
 20  6  1  0
 20 14  1  0
M  CHG  1  17   1
M  END
>  <Compound_ID>  (78) 
C05440557

>  <Active>  (78) 
0

>  <Smiles>  (78) 
Oc1ccc2c3c1O[C@H]1[C@H](O)C=C[C@@H]4[C@H](C2)[NH2+]CC[C@]341

>  <canonical_smi>  (78) 
Oc1ccc2c3c1O[C@H]1[C@H](O)C=C[C@@H]4[C@H](C2)[NH2+]CC[C@]341

>  <Set>  (78) 
G2 inactive

>  <Set_type>  (78) 
Train

>  <MW>  (78) 
272.32

>  <HBD>  (78) 
3

>  <HBA>  (78) 
3

>  <NRB>  (78) 
0

>  <NR>  (78) 
5

>  <NAR>  (78) 
1

>  <PSA>  (78) 
66.3

>  <Standard Type>  (78) 
nan

>  <Standard Relation>  (78) 
nan

>  <Standard Units>  (78) 
nan

>  <Standard Value>  (78) 
nan

>  <Assay ChEMBL ID>  (78) 
nan

>  <Assay Description>  (78) 
nan

>  <BAO Label>  (78) 
nan

>  <bits>  (78) 
<rdkit.DataStructs.cDataStructs.ExplicitBitVect object at 0x00000210F8E68C80>

>  <Group>  (78) 
G2

$$$$

     RDKit          2D

 19 21  0  0  0  0  0  0  0  0999 V2000
   -4.3764    3.7611    0.0000 N   0  0  0  0  0  4  0  0  0  0  0  0
   -2.9499    4.2246    0.0000 C   0  0  0  0  0  0  0  0  0  0  0  0
   -2.6380    5.6918    0.0000 C   0  0  0  0  0  0  0  0  0  0  0  0
   -1.2114    6.1554    0.0000 C   0  0  0  0  0  0  0  0  0  0  0  0
   -0.8995    7.6226    0.0000 C   0  0  0  0  0  0  0  0  0  0  0  0
   -2.0143    8.6263    0.0000 N   0  0  0  0  0  0  0  0  0  0  0  0
   -3.4408    8.1628    0.0000 C   0  0  0  0  0  0  0  0  0  0  0  0
   -3.7527    6.6955    0.0000 C   0  0  0  0  0  0  0  0  0  0  0  0
   -1.8351    3.2209    0.0000 C   0  0  0  0  0  0  0  0  0  0  0  0
   -2.1470    1.7537    0.0000 C   0  0  0  0  0  0  0  0  0  0  0  0
   -1.0323    0.7500    0.0000 C   0  0  0  0  0  0  0  0  0  0  0  0
    0.3943    1.2135    0.0000 C   0  0  0  0  0  0  0  0  0  0  0  0
    0.7062    2.6807    0.0000 C   0  0  0  0  0  0  0  0  0  0  0  0
   -0.4086    3.6844    0.0000 C   0  0  0  0  0  0  0  0  0  0  0  0
   -0.0967    5.1517    0.0000 Cl  0  0  0  0  0  0  0  0  0  0  0  0
    1.2760    0.0000    0.0000 N   0  0  0  0  0  0  0  0  0  0  0  0
    0.3943   -1.2135    0.0000 C   0  0  0  0  0  0  0  0  0  0  0  0
    0.8578   -2.6401    0.0000 O   0  0  0  0  0  0  0  0  0  0  0  0
   -1.0323   -0.7500    0.0000 C   0  0  0  0  0  0  0  0  0  0  0  0
  2  1  1  1
  2  3  1  0
  3  4  2  0
  4  5  1  0
  5  6  2  0
  6  7  1  0
  7  8  2  0
  2  9  1  0
  9 10  2  0
 10 11  1  0
 11 12  2  0
 12 13  1  0
 13 14  2  0
 14 15  1  0
 12 16  1  0
 16 17  1  0
 17 18  2  0
 17 19  1  0
  8  3  1  0
 14  9  1  0
 19 11  1  0
M  CHG  1   1   1
M  END
>  <Compound_ID>  (79) 
C35359532

>  <Active>  (79) 
0

>  <Smiles>  (79) 
[NH3+][C@@H](c1ccncc1)c1cc2c(cc1Cl)NC(=O)C2

>  <canonical_smi>  (79) 
[NH3+][C@@H](c1ccncc1)c1cc2c(cc1Cl)NC(=O)C2

>  <Set>  (79) 
G2 inactive

>  <Set_type>  (79) 
Train

>  <MW>  (79) 
274.73

>  <HBD>  (79) 
2

>  <HBA>  (79) 
2

>  <NRB>  (79) 
2

>  <NR>  (79) 
3

>  <NAR>  (79) 
2

>  <PSA>  (79) 
69.63

>  <Standard Type>  (79) 
nan

>  <Standard Relation>  (79) 
nan

>  <Standard Units>  (79) 
nan

>  <Standard Value>  (79) 
nan

>  <Assay ChEMBL ID>  (79) 
nan

>  <Assay Description>  (79) 
nan

>  <BAO Label>  (79) 
nan

>  <bits>  (79) 
<rdkit.DataStructs.cDataStructs.ExplicitBitVect object at 0x00000210F8E68200>

>  <Group>  (79) 
G2

$$$$

     RDKit          2D

 17 18  0  0  0  0  0  0  0  0999 V2000
    4.4315    3.4734    0.0000 N   0  0  0  0  0  0  0  0  0  0  0  0
    3.4962    2.3006    0.0000 C   0  0  0  0  0  0  0  0  0  0  0  0
    4.0442    0.9043    0.0000 O   0  0  0  0  0  0  0  0  0  0  0  0
    2.0130    2.5242    0.0000 C   0  0  0  0  0  0  0  0  0  0  0  0
    1.4650    3.9205    0.0000 C   0  0  0  0  0  0  0  0  0  0  0  0
    0.0132    4.2979    0.0000 C   0  0  0  0  0  0  0  0  0  0  0  0
   -0.0765    5.7952    0.0000 C   0  0  0  0  0  0  0  0  0  0  0  0
   -1.3406    6.6027    0.0000 Br  0  0  0  0  0  0  0  0  0  0  0  0
    1.3198    6.3432    0.0000 C   0  0  0  0  0  0  0  0  0  0  0  0
    2.2725    5.1846    0.0000 S   0  0  0  0  0  0  0  0  0  0  0  0
    1.0777    1.3515    0.0000 N   0  0  0  0  0  0  0  0  0  0  0  0
    1.7286    0.0000    0.0000 C   0  0  0  0  0  0  0  0  0  0  0  0
    1.0777   -1.3515    0.0000 C   0  0  0  0  0  0  0  0  0  0  0  0
   -0.3846   -1.6852    0.0000 C   0  0  0  0  0  0  0  0  0  0  0  0
   -1.5574   -0.7500    0.0000 N   0  0  0  0  0  4  0  0  0  0  0  0
   -1.5574    0.7500    0.0000 C   0  0  0  0  0  0  0  0  0  0  0  0
   -0.3846    1.6852    0.0000 C   0  0  0  0  0  0  0  0  0  0  0  0
  1  2  1  0
  2  3  2  0
  2  4  1  0
  4  5  1  0
  5  6  2  0
  6  7  1  0
  7  8  1  0
  7  9  2  0
  9 10  1  0
  4 11  1  6
 11 12  1  0
 12 13  1  0
 13 14  1  0
 14 15  1  0
 15 16  1  0
 16 17  1  0
 10  5  1  0
 17 11  1  0
M  CHG  1  15   1
M  END
>  <Compound_ID>  (80) 
C48701894

>  <Active>  (80) 
0

>  <Smiles>  (80) 
NC(=O)[C@@H](c1cc(Br)cs1)N1CCC[NH2+]CC1

>  <canonical_smi>  (80) 
NC(=O)[C@@H](c1cc(Br)cs1)N1CCC[NH2+]CC1

>  <Set>  (80) 
G2 inactive

>  <Set_type>  (80) 
Train

>  <MW>  (80) 
319.25

>  <HBD>  (80) 
2

>  <HBA>  (80) 
2

>  <NRB>  (80) 
3

>  <NR>  (80) 
2

>  <NAR>  (80) 
1

>  <PSA>  (80) 
62.94

>  <Standard Type>  (80) 
nan

>  <Standard Relation>  (80) 
nan

>  <Standard Units>  (80) 
nan

>  <Standard Value>  (80) 
nan

>  <Assay ChEMBL ID>  (80) 
nan

>  <Assay Description>  (80) 
nan

>  <BAO Label>  (80) 
nan

>  <bits>  (80) 
<rdkit.DataStructs.cDataStructs.ExplicitBitVect object at 0x00000210F8E6AB20>

>  <Group>  (80) 
G2

$$$$

     RDKit          2D

 31 34  0  0  0  0  0  0  0  0999 V2000
    1.6959  -13.3649    0.0000 C   0  0  0  0  0  0  0  0  0  0  0  0
    1.5391  -11.8731    0.0000 C   0  0  0  0  0  0  0  0  0  0  0  0
    0.1688  -11.2630    0.0000 N   0  0  0  0  0  0  0  0  0  0  0  0
   -1.1302  -12.0130    0.0000 C   0  0  0  0  0  0  0  0  0  0  0  0
   -1.2870  -13.5048    0.0000 C   0  0  0  0  0  0  0  0  0  0  0  0
   -2.2449  -11.0093    0.0000 C   0  0  0  0  0  0  0  0  0  0  0  0
   -3.7122  -11.3212    0.0000 C   0  0  0  0  0  0  0  0  0  0  0  0
   -1.6348   -9.6390    0.0000 S   0  0  0  0  0  0  0  0  0  0  0  0
   -0.1430   -9.7958    0.0000 C   0  0  0  0  0  0  0  0  0  0  0  0
    0.8606   -8.6811    0.0000 C   0  0  0  0  0  0  0  0  0  0  0  0
    0.5488   -7.2139    0.0000 S   0  0  0  0  0  0  0  0  0  0  0  0
    1.8478   -6.4639    0.0000 C   0  0  0  0  0  0  0  0  0  0  0  0
    2.0046   -4.9721    0.0000 C   0  0  0  0  0  0  0  0  0  0  0  0
    0.8899   -3.9684    0.0000 C   0  0  0  0  0  0  0  0  0  0  0  0
   -0.5773   -4.2803    0.0000 O   0  0  0  0  0  0  0  0  0  0  0  0
    1.5000   -2.5981    0.0000 N   0  0  0  0  0  0  0  0  0  0  0  0
    0.7500   -1.2990    0.0000 C   0  0  0  0  0  0  0  0  0  0  0  0
    1.5000    0.0000    0.0000 C   0  0  0  0  0  0  0  0  0  0  0  0
    0.7500    1.2990    0.0000 C   0  0  0  0  0  0  0  0  0  0  0  0
   -0.7500    1.2990    0.0000 C   0  0  0  0  0  0  0  0  0  0  0  0
   -1.5000    0.0000    0.0000 C   0  0  0  0  0  0  0  0  0  0  0  0
   -0.7500   -1.2990    0.0000 C   0  0  0  0  0  0  0  0  0  0  0  0
    2.9918   -2.7549    0.0000 C   0  0  0  0  0  0  0  0  0  0  0  0
    3.9955   -1.6402    0.0000 S   0  0  0  0  0  0  0  0  0  0  0  0
    3.3037   -4.2221    0.0000 N   0  0  0  0  0  0  0  0  0  0  0  0
    4.6740   -4.8322    0.0000 C   0  0  0  0  0  0  0  0  0  0  0  0
    2.9625   -7.4676    0.0000 N   0  0  0  0  0  0  0  0  0  0  0  0
    4.4298   -7.1557    0.0000 C   0  0  0  0  0  0  0  0  0  0  0  0
    5.4335   -8.2704    0.0000 C   0  0  0  0  0  0  0  0  0  0  0  0
    2.3524   -8.8379    0.0000 C   0  0  0  0  0  0  0  0  0  0  0  0
    3.1024  -10.1369    0.0000 O   0  0  0  0  0  0  0  0  0  0  0  0
  1  2  1  0
  2  3  1  0
  3  4  1  0
  4  5  1  0
  4  6  2  0
  6  7  1  0
  6  8  1  0
  8  9  1  0
  9 10  2  0
 10 11  1  0
 11 12  1  0
 12 13  2  3
 13 14  1  0
 14 15  2  0
 14 16  1  0
 16 17  1  0
 17 18  2  0
 18 19  1  0
 19 20  2  0
 20 21  1  0
 21 22  2  0
 16 23  1  0
 23 24  2  0
 23 25  1  0
 25 26  1  0
 12 27  1  0
 27 28  1  0
 28 29  1  0
 27 30  1  0
 30 31  2  0
  9  3  1  0
 30 10  1  0
 25 13  1  0
 22 17  1  0
M  END
>  <Compound_ID>  (81) 
C33342817

>  <Active>  (81) 
0

>  <Smiles>  (81) 
CCN1C(C)=C(C)S/C1=c1\sc(=C2C(=O)N(c3ccccc3)C(=S)N2C)n(CC)c1=O

>  <canonical_smi>  (81) 
CCN1C(C)=C(C)S/C1=c1\sc(=C2C(=O)N(c3ccccc3)C(=S)N2C)n(CC)c1=O

>  <Set>  (81) 
G2 inactive

>  <Set_type>  (81) 
Train

>  <MW>  (81) 
472.66

>  <HBD>  (81) 
0

>  <HBA>  (81) 
6

>  <NRB>  (81) 
3

>  <NR>  (81) 
4

>  <NAR>  (81) 
2

>  <PSA>  (81) 
48.79

>  <Standard Type>  (81) 
nan

>  <Standard Relation>  (81) 
nan

>  <Standard Units>  (81) 
nan

>  <Standard Value>  (81) 
nan

>  <Assay ChEMBL ID>  (81) 
nan

>  <Assay Description>  (81) 
nan

>  <BAO Label>  (81) 
nan

>  <bits>  (81) 
<rdkit.DataStructs.cDataStructs.ExplicitBitVect object at 0x00000210F8E69070>

>  <Group>  (81) 
G2

$$$$

     RDKit          2D

 31 35  0  0  0  0  0  0  0  0999 V2000
    5.0319   -5.9138    0.0000 O   0  0  0  0  0  0  0  0  0  0  0  0
    3.7925   -5.0688    0.0000 C   0  0  0  0  0  0  0  0  0  0  0  0
    4.0161   -3.5856    0.0000 C   0  0  0  0  0  0  0  0  0  0  0  0
    2.9958   -2.4860    0.0000 C   0  0  0  0  0  0  0  0  0  0  0  0
    1.5000   -2.5981    0.0000 C   0  0  0  0  0  0  0  0  0  0  0  0
    0.7500   -1.2990    0.0000 N   0  0  0  0  0  4  0  0  0  0  0  0
    1.5000    0.0000    0.0000 C   0  0  0  0  0  0  0  0  0  0  0  0
    0.7500    1.2990    0.0000 C   0  0  0  0  0  0  0  0  0  0  0  0
   -0.7500    1.2990    0.0000 C   0  0  0  0  0  0  0  0  0  0  0  0
   -1.5000    0.0000    0.0000 C   0  0  0  0  0  0  0  0  0  0  0  0
   -0.7500   -1.2990    0.0000 C   0  0  0  0  0  0  0  0  0  0  0  0
   -2.2500    1.2990    0.0000 C   0  0  0  0  0  0  0  0  0  0  0  0
   -3.7500    1.2990    0.0000 C   0  0  0  0  0  0  0  0  0  0  0  0
   -4.5000    2.5981    0.0000 C   0  0  0  0  0  0  0  0  0  0  0  0
   -3.7500    3.8971    0.0000 C   0  0  0  0  0  0  0  0  0  0  0  0
   -2.2500    3.8971    0.0000 C   0  0  0  0  0  0  0  0  0  0  0  0
   -1.5000    5.1962    0.0000 O   0  0  0  0  0  0  0  0  0  0  0  0
   -1.5000    2.5981    0.0000 N   0  0  0  0  0  0  0  0  0  0  0  0
   -0.0000    2.5981    0.0000 C   0  0  0  0  0  0  0  0  0  0  0  0
    0.6550   -3.8374    0.0000 C   0  0  0  0  0  0  0  0  0  0  0  0
    1.0972   -5.2708    0.0000 C   0  0  0  0  0  0  0  0  0  0  0  0
    2.4935   -5.8188    0.0000 N   0  0  0  0  0  0  0  0  0  0  0  0
    2.6056   -7.3146    0.0000 C   0  0  0  0  0  0  0  0  0  0  0  0
    1.3662   -8.1596    0.0000 C   0  0  0  0  0  0  0  0  0  0  0  0
    0.0147   -7.5088    0.0000 C   0  0  0  0  0  0  0  0  0  0  0  0
   -1.2246   -8.3537    0.0000 C   0  0  0  0  0  0  0  0  0  0  0  0
   -1.1125   -9.8496    0.0000 C   0  0  0  0  0  0  0  0  0  0  0  0
   -2.3519  -10.6945    0.0000 F   0  0  0  0  0  0  0  0  0  0  0  0
    0.2389  -10.5004    0.0000 C   0  0  0  0  0  0  0  0  0  0  0  0
    0.3510  -11.9962    0.0000 F   0  0  0  0  0  0  0  0  0  0  0  0
    1.4783   -9.6554    0.0000 C   0  0  0  0  0  0  0  0  0  0  0  0
  1  2  2  0
  2  3  1  0
  3  4  1  0
  4  5  1  0
  5  6  1  1
  6  7  1  0
  8  7  1  1
  8  9  1  0
  9 10  1  0
 10 11  1  1
 10 12  1  0
 12 13  2  0
 13 14  1  0
 14 15  2  0
 15 16  1  0
 16 17  2  0
 16 18  1  0
 18 19  1  0
  5 20  1  0
 20 21  1  0
 21 22  1  0
 22 23  1  0
 23 24  1  0
 24 25  2  0
 25 26  1  0
 26 27  2  0
 27 28  1  0
 27 29  1  0
 29 30  1  0
 29 31  2  0
 22  2  1  0
 31 24  1  0
 11  6  1  0
 18 12  1  0
 19  8  1  0
M  CHG  1   6   1
M  END
>  <Compound_ID>  (82) 
C15002964

>  <Active>  (82) 
0

>  <Smiles>  (82) 
O=C1CC[C@H]([NH+]2C[C@H]3C[C@@H](C2)c2cccc(=O)n2C3)CCN1Cc1ccc(F)c(F)c1

>  <canonical_smi>  (82) 
O=C1CC[C@H]([NH+]2C[C@@H]3C[C@@H](Cn4c3cccc4=O)C2)CCN1Cc1ccc(F)c(F)c1

>  <Set>  (82) 
G2 inactive

>  <Set_type>  (82) 
Train

>  <MW>  (82) 
428.5

>  <HBD>  (82) 
1

>  <HBA>  (82) 
2

>  <NRB>  (82) 
3

>  <NR>  (82) 
5

>  <NAR>  (82) 
2

>  <PSA>  (82) 
46.75

>  <Standard Type>  (82) 
nan

>  <Standard Relation>  (82) 
nan

>  <Standard Units>  (82) 
nan

>  <Standard Value>  (82) 
nan

>  <Assay ChEMBL ID>  (82) 
nan

>  <Assay Description>  (82) 
nan

>  <BAO Label>  (82) 
nan

>  <bits>  (82) 
<rdkit.DataStructs.cDataStructs.ExplicitBitVect object at 0x00000210F8E6A340>

>  <Group>  (82) 
G2

$$$$

     RDKit          2D

 26 28  0  0  0  0  0  0  0  0999 V2000
    5.7723   -4.0946    0.0000 C   0  0  0  0  0  0  0  0  0  0  0  0
    4.5823   -5.0077    0.0000 C   0  0  0  0  0  0  0  0  0  0  0  0
    4.7781   -6.4949    0.0000 C   0  0  0  0  0  0  0  0  0  0  0  0
    3.1965   -4.4337    0.0000 S   0  0  0  0  0  0  0  0  0  0  0  0
    3.7705   -3.0479    0.0000 O   0  0  0  0  0  0  0  0  0  0  0  0
    2.6225   -5.8195    0.0000 O   0  0  0  0  0  0  0  0  0  0  0  0
    1.8107   -3.8597    0.0000 C   0  0  0  0  0  0  0  0  0  0  0  0
    1.8107   -2.3597    0.0000 N   0  0  0  0  0  0  0  0  0  0  0  0
    0.7500   -1.2990    0.0000 C   0  0  0  0  0  0  0  0  0  0  0  0
    1.5000    0.0000    0.0000 C   0  0  0  0  0  0  0  0  0  0  0  0
    3.0000    0.0000    0.0000 Cl  0  0  0  0  0  0  0  0  0  0  0  0
    0.7500    1.2990    0.0000 N   0  0  0  0  0  0  0  0  0  0  0  0
   -0.7500    1.2990    0.0000 C   0  0  0  0  0  0  0  0  0  0  0  0
   -1.5000    0.0000    0.0000 N   0  0  0  0  0  0  0  0  0  0  0  0
   -0.7500   -1.2990    0.0000 C   0  0  0  0  0  0  0  0  0  0  0  0
   -1.8107   -2.3597    0.0000 N   0  0  0  0  0  0  0  0  0  0  0  0
   -3.1965   -1.7857    0.0000 C   0  0  0  0  0  0  0  0  0  0  0  0
   -1.8107   -3.8597    0.0000 C   0  0  0  0  0  0  0  0  0  0  0  0
   -3.2595   -4.2479    0.0000 C   0  0  0  0  0  0  0  0  0  0  0  0
   -4.3202   -3.1873    0.0000 F   0  0  0  0  0  0  0  0  0  0  0  0
   -3.6478   -5.6968    0.0000 C   0  0  0  0  0  0  0  0  0  0  0  0
   -2.5871   -6.7575    0.0000 C   0  0  0  0  0  0  0  0  0  0  0  0
   -2.9753   -8.2064    0.0000 I   0  0  0  0  0  0  0  0  0  0  0  0
   -1.1382   -6.3692    0.0000 C   0  0  0  0  0  0  0  0  0  0  0  0
   -0.7500   -4.9204    0.0000 C   0  0  0  0  0  0  0  0  0  0  0  0
    0.7500   -4.9204    0.0000 C   0  0  0  0  0  0  0  0  0  0  0  0
  1  2  1  0
  2  3  1  0
  2  4  1  0
  4  5  2  0
  4  6  2  0
  4  7  1  0
  7  8  2  0
  8  9  1  0
  9 10  2  0
 10 11  1  0
 10 12  1  0
 12 13  2  0
 13 14  1  0
 14 15  2  0
 15 16  1  0
 16 17  1  0
 16 18  1  0
 18 19  2  0
 19 20  1  0
 19 21  1  0
 21 22  2  0
 22 23  1  0
 22 24  1  0
 24 25  2  0
 25 26  1  0
 26  7  1  0
 15  9  1  0
 25 18  1  0
M  END
>  <Compound_ID>  (83) 
C39480363

>  <Active>  (83) 
0

>  <Smiles>  (83) 
CC(C)S(=O)(=O)/C1=N/c2c(Cl)ncnc2N(C)c2c(F)cc(I)cc2C1

>  <canonical_smi>  (83) 
CC(C)S(=O)(=O)/C1=N/c2c(Cl)ncnc2N(C)c2c(F)cc(I)cc2C1

>  <Set>  (83) 
G2 inactive

>  <Set_type>  (83) 
Train

>  <MW>  (83) 
508.74

>  <HBD>  (83) 
0

>  <HBA>  (83) 
5

>  <NRB>  (83) 
1

>  <NR>  (83) 
3

>  <NAR>  (83) 
2

>  <PSA>  (83) 
75.52

>  <Standard Type>  (83) 
nan

>  <Standard Relation>  (83) 
nan

>  <Standard Units>  (83) 
nan

>  <Standard Value>  (83) 
nan

>  <Assay ChEMBL ID>  (83) 
nan

>  <Assay Description>  (83) 
nan

>  <BAO Label>  (83) 
nan

>  <bits>  (83) 
<rdkit.DataStructs.cDataStructs.ExplicitBitVect object at 0x00000210F8E6BD80>

>  <Group>  (83) 
G2

$$$$

     RDKit          2D

 34 39  0  0  0  0  0  0  0  0999 V2000
   -5.2703   -9.5411    0.0000 C   0  0  0  0  0  0  0  0  0  0  0  0
   -5.4271   -8.0493    0.0000 C   0  0  0  0  0  0  0  0  0  0  0  0
   -6.8943   -8.3612    0.0000 C   0  0  0  0  0  0  0  0  0  0  0  0
   -3.9271   -8.0493    0.0000 O   0  0  0  0  0  0  0  0  0  0  0  0
   -3.4635   -6.6227    0.0000 C   0  0  0  0  0  0  0  0  0  0  0  0
   -2.2500   -7.5044    0.0000 C   0  0  0  0  0  0  0  0  0  0  0  0
   -1.0365   -6.6227    0.0000 C   0  0  0  0  0  0  0  0  0  0  0  0
   -1.5000   -5.1962    0.0000 C   0  0  0  0  0  0  0  0  0  0  0  0
   -0.7500   -3.8971    0.0000 C   0  0  0  0  0  0  0  0  0  0  0  0
    0.7500   -3.8971    0.0000 C   0  0  0  0  0  0  0  0  0  0  0  0
    1.5000   -2.5981    0.0000 C   0  0  0  0  0  0  0  0  0  0  0  0
    0.7500   -1.2990    0.0000 C   0  0  0  0  0  0  0  0  0  0  0  0
    1.5000    0.0000    0.0000 C   0  0  0  0  0  0  0  0  0  0  0  0
    0.7500    1.2990    0.0000 C   0  0  0  0  0  0  0  0  0  0  0  0
   -0.7500    1.2990    0.0000 C   0  0  0  0  0  0  0  0  0  0  0  0
   -1.5000    0.0000    0.0000 C   0  0  0  0  0  0  0  0  0  0  0  0
   -0.7500   -1.2990    0.0000 C   0  0  0  0  0  0  0  0  0  0  0  0
   -2.2500   -1.2990    0.0000 C   0  0  0  0  0  0  0  0  0  0  0  0
   -1.5000   -2.5981    0.0000 C   0  0  0  0  0  0  0  0  0  0  0  0
   -3.0000   -2.5981    0.0000 C   0  0  0  0  0  0  0  0  0  0  0  0
   -3.7500   -3.8971    0.0000 C   0  0  0  0  0  0  0  0  0  0  0  0
   -3.0000   -5.1962    0.0000 C   0  0  0  0  0  0  0  0  0  0  0  0
   -1.8853   -6.1998    0.0000 C   0  0  0  0  0  0  0  0  0  0  0  0
   -4.6771   -5.7411    0.0000 C   0  0  0  0  0  0  0  0  0  0  0  0
   -5.8906   -6.6227    0.0000 N   0  0  0  0  0  0  0  0  0  0  0  0
   -7.3172   -6.1592    0.0000 C   0  0  0  0  0  0  0  0  0  0  0  0
   -8.4319   -7.1629    0.0000 O   0  0  0  0  0  0  0  0  0  0  0  0
   -7.6290   -4.6920    0.0000 C   0  0  0  0  0  0  0  0  0  0  0  0
   -9.0556   -4.2285    0.0000 S   0  0  0  0  0  0  0  0  0  0  0  0
   -9.3675   -2.7612    0.0000 C   0  0  0  0  0  0  0  0  0  0  0  0
  -10.7378   -2.1511    0.0000 N   0  0  0  0  0  4  0  0  0  0  0  0
  -10.5810   -0.6594    0.0000 C   0  0  0  0  0  0  0  0  0  0  0  0
   -9.1138   -0.3475    0.0000 C   0  0  0  0  0  0  0  0  0  0  0  0
   -8.3638   -1.6465    0.0000 N   0  0  0  0  0  0  0  0  0  0  0  0
  1  2  1  0
  2  3  1  0
  2  4  1  0
  4  5  1  0
  5  6  1  1
  6  7  1  0
  8  7  1  1
  8  9  1  0
  9 10  1  1
 10 11  1  0
 12 11  1  6
 12 13  1  0
 13 14  1  0
 14 15  1  0
 15 16  1  0
 16 17  1  0
 17 18  1  6
 17 19  1  0
 19 20  1  1
 20 21  1  0
 21 22  1  0
 22 23  1  6
  5 24  1  0
 24 25  1  0
 25 26  1  0
 26 27  2  0
 26 28  1  0
 28 29  1  0
 29 30  1  0
 30 31  2  0
 31 32  1  0
 32 33  1  0
 33 34  1  0
 25  2  1  0
 34 30  1  0
 22  5  1  0
 22  8  1  0
 19  9  1  0
 17 12  1  0
M  CHG  1  31   1
M  END
>  <Compound_ID>  (84) 
C13362213

>  <Active>  (84) 
0

>  <Smiles>  (84) 
CC1(C)O[C@]2(CC[C@@H]3[C@@H]4CC[C@H]5CCCC[C@]5(C)[C@@H]4CC[C@@]32C)CN1C(=O)CSC1=[NH+]CCN1

>  <canonical_smi>  (84) 
CC1(C)O[C@]2(CC[C@@H]3[C@@H]4CC[C@H]5CCCC[C@]5(C)[C@@H]4CC[C@@]32C)CN1C(=O)CSC1=[NH+]CCN1

>  <Set>  (84) 
G2 inactive

>  <Set_type>  (84) 
Train

>  <MW>  (84) 
488.76

>  <HBD>  (84) 
2

>  <HBA>  (84) 
4

>  <NRB>  (84) 
2

>  <NR>  (84) 
6

>  <NAR>  (84) 
0

>  <PSA>  (84) 
55.54

>  <Standard Type>  (84) 
nan

>  <Standard Relation>  (84) 
nan

>  <Standard Units>  (84) 
nan

>  <Standard Value>  (84) 
nan

>  <Assay ChEMBL ID>  (84) 
nan

>  <Assay Description>  (84) 
nan

>  <BAO Label>  (84) 
nan

>  <bits>  (84) 
<rdkit.DataStructs.cDataStructs.ExplicitBitVect object at 0x00000210F8E6B680>

>  <Group>  (84) 
G2

$$$$

     RDKit          2D

 26 29  0  0  0  0  0  0  0  0999 V2000
    7.0633    3.9826    0.0000 C   0  0  0  0  0  0  0  0  0  0  0  0
    6.0430    2.8830    0.0000 C   0  0  0  0  0  0  0  0  0  0  0  0
    6.4852    1.4497    0.0000 Br  0  0  0  0  0  0  0  0  0  0  0  0
    4.5807    3.2168    0.0000 C   0  0  0  0  0  0  0  0  0  0  0  0
    3.5604    2.1172    0.0000 S   0  0  0  0  0  0  0  0  0  0  0  0
    2.0980    2.4510    0.0000 C   0  0  0  0  0  0  0  0  0  0  0  0
    1.6559    3.8844    0.0000 N   0  0  0  0  0  0  0  0  0  0  0  0
    0.1935    4.2182    0.0000 C   0  0  0  0  0  0  0  0  0  0  0  0
   -0.5370    5.5283    0.0000 N   0  0  0  0  0  0  0  0  0  0  0  0
   -2.0087    5.2384    0.0000 N   0  0  0  0  0  0  0  0  0  0  0  0
   -3.1083    6.2587    0.0000 C   0  0  0  0  0  0  0  0  0  0  0  0
   -2.7745    7.7211    0.0000 C   0  0  0  0  0  0  0  0  0  0  0  0
   -3.8741    8.7413    0.0000 C   0  0  0  0  0  0  0  0  0  0  0  0
   -5.3075    8.2992    0.0000 C   0  0  0  0  0  0  0  0  0  0  0  0
   -5.6412    6.8368    0.0000 C   0  0  0  0  0  0  0  0  0  0  0  0
   -4.5417    5.8165    0.0000 C   0  0  0  0  0  0  0  0  0  0  0  0
   -2.1878    3.7491    0.0000 C   0  0  0  0  0  0  0  0  0  0  0  0
   -3.4979    3.0186    0.0000 O   0  0  0  0  0  0  0  0  0  0  0  0
   -0.8268    3.1186    0.0000 C   0  0  0  0  0  0  0  0  0  0  0  0
   -0.3846    1.6852    0.0000 C   0  0  0  0  0  0  0  0  0  0  0  0
    1.0777    1.3515    0.0000 N   0  0  0  0  0  4  0  0  0  0  0  0
    1.7286    0.0000    0.0000 C   0  0  0  0  0  0  0  0  0  0  0  0
    1.0777   -1.3515    0.0000 C   0  0  0  0  0  0  0  0  0  0  0  0
   -0.3846   -1.6852    0.0000 C   0  0  0  0  0  0  0  0  0  0  0  0
   -1.5574   -0.7500    0.0000 C   0  0  0  0  0  0  0  0  0  0  0  0
   -1.5574    0.7500    0.0000 C   0  0  0  0  0  0  0  0  0  0  0  0
  1  2  2  0
  2  3  1  0
  2  4  1  0
  4  5  1  0
  5  6  1  0
  6  7  2  0
  7  8  1  0
  8  9  2  0
  9 10  1  0
 10 11  1  0
 11 12  2  0
 12 13  1  0
 13 14  2  0
 14 15  1  0
 15 16  2  0
 10 17  1  0
 17 18  1  0
 17 19  2  0
 19 20  1  0
 20 21  2  0
 21 22  1  0
 22 23  1  0
 23 24  1  0
 24 25  1  0
 25 26  1  0
 21  6  1  0
 19  8  1  0
 26 20  1  0
 16 11  1  0
M  CHG  1  21   1
M  END
>  <Compound_ID>  (85) 
C59928045

>  <Active>  (85) 
0

>  <Smiles>  (85) 
C=C(Br)CSc1nc2nn(-c3ccccc3)c(O)c2c2[n+]1CCCCC2

>  <canonical_smi>  (85) 
C=C(Br)CSc1nc2nn(-c3ccccc3)c(O)c2c2[n+]1CCCCC2

>  <Set>  (85) 
G2 inactive

>  <Set_type>  (85) 
Train

>  <MW>  (85) 
432.37

>  <HBD>  (85) 
1

>  <HBA>  (85) 
4

>  <NRB>  (85) 
4

>  <NR>  (85) 
4

>  <NAR>  (85) 
3

>  <PSA>  (85) 
54.82

>  <Standard Type>  (85) 
nan

>  <Standard Relation>  (85) 
nan

>  <Standard Units>  (85) 
nan

>  <Standard Value>  (85) 
nan

>  <Assay ChEMBL ID>  (85) 
nan

>  <Assay Description>  (85) 
nan

>  <BAO Label>  (85) 
nan

>  <bits>  (85) 
<rdkit.DataStructs.cDataStructs.ExplicitBitVect object at 0x00000210F8E68040>

>  <Group>  (85) 
G2

$$$$

     RDKit          2D

 28 32  0  0  0  0  0  0  0  0999 V2000
    9.1873   -3.9064    0.0000 C   0  0  0  0  0  0  0  0  0  0  0  0
    8.3056   -5.1199    0.0000 C   0  0  0  0  0  0  0  0  0  0  0  0
    6.8056   -5.1199    0.0000 C   0  0  0  0  0  0  0  0  0  0  0  0
    6.3421   -6.5465    0.0000 C   0  0  0  0  0  0  0  0  0  0  0  0
    7.5556   -7.4282    0.0000 N   0  0  0  0  0  0  0  0  0  0  0  0
    8.7691   -6.5465    0.0000 N   0  0  0  0  0  0  0  0  0  0  0  0
    4.8421   -6.5465    0.0000 C   0  0  0  0  0  0  0  0  0  0  0  0
    3.9604   -7.7600    0.0000 O   0  0  0  0  0  0  0  0  0  0  0  0
    4.3786   -5.1199    0.0000 N   0  0  0  0  0  0  0  0  0  0  0  0
    2.9520   -4.6564    0.0000 C   0  0  0  0  0  0  0  0  0  0  0  0
    2.6401   -3.1891    0.0000 C   0  0  0  0  0  0  0  0  0  0  0  0
    1.2135   -2.7256    0.0000 C   0  0  0  0  0  0  0  0  0  0  0  0
    0.7500   -1.2990    0.0000 C   0  0  0  0  0  0  0  0  0  0  0  0
    1.5000    0.0000    0.0000 C   0  0  0  0  0  0  0  0  0  0  0  0
    0.7500    1.2990    0.0000 C   0  0  0  0  0  0  0  0  0  0  0  0
   -0.7500    1.2990    0.0000 C   0  0  0  0  0  0  0  0  0  0  0  0
   -1.5000    0.0000    0.0000 C   0  0  0  0  0  0  0  0  0  0  0  0
   -0.7500   -1.2990    0.0000 C   0  0  0  0  0  0  0  0  0  0  0  0
   -1.2135   -2.7256    0.0000 N   0  0  0  0  0  4  0  0  0  0  0  0
    0.0000   -3.6073    0.0000 C   0  0  0  0  0  0  0  0  0  0  0  0
    5.5921   -4.2382    0.0000 C   0  0  0  0  0  0  0  0  0  0  0  0
    5.5921   -2.7382    0.0000 C   0  0  0  0  0  0  0  0  0  0  0  0
    6.8911   -1.9882    0.0000 C   0  0  0  0  0  0  0  0  0  0  0  0
    6.8911   -0.4882    0.0000 C   0  0  0  0  0  0  0  0  0  0  0  0
    5.5921    0.2618    0.0000 C   0  0  0  0  0  0  0  0  0  0  0  0
    4.2930   -0.4882    0.0000 C   0  0  0  0  0  0  0  0  0  0  0  0
    2.9940    0.2618    0.0000 Br  0  0  0  0  0  0  0  0  0  0  0  0
    4.2930   -1.9882    0.0000 C   0  0  0  0  0  0  0  0  0  0  0  0
  1  2  1  0
  2  3  2  0
  3  4  1  0
  4  5  1  6
  5  6  2  0
  4  7  1  0
  7  8  2  0
  7  9  1  0
  9 10  1  0
 10 11  1  0
 11 12  1  0
 12 13  2  0
 13 14  1  0
 14 15  2  0
 15 16  1  0
 16 17  2  0
 17 18  1  0
 18 19  2  0
 19 20  1  0
  9 21  1  0
 21 22  1  6
 22 23  2  0
 23 24  1  0
 24 25  2  0
 25 26  1  0
 26 27  1  0
 26 28  2  0
  6  2  1  0
 20 12  1  0
 28 22  1  0
 21  3  1  0
 18 13  1  0
M  CHG  1  19   1
M  END
>  <Compound_ID>  (86) 
C63560393

>  <Active>  (86) 
0

>  <Smiles>  (86) 
CC1=C2[C@H](N=N1)C(=O)N(CCC1=c3ccccc3=[NH+]C1)[C@@H]2c1cccc(Br)c1

>  <canonical_smi>  (86) 
CC1=C2[C@H](N=N1)C(=O)N(CCC1=c3ccccc3=[NH+]C1)[C@@H]2c1cccc(Br)c1

>  <Set>  (86) 
G2 inactive

>  <Set_type>  (86) 
Train

>  <MW>  (86) 
436.33

>  <HBD>  (86) 
1

>  <HBA>  (86) 
1

>  <NRB>  (86) 
4

>  <NR>  (86) 
5

>  <NAR>  (86) 
2

>  <PSA>  (86) 
59.0

>  <Standard Type>  (86) 
nan

>  <Standard Relation>  (86) 
nan

>  <Standard Units>  (86) 
nan

>  <Standard Value>  (86) 
nan

>  <Assay ChEMBL ID>  (86) 
nan

>  <Assay Description>  (86) 
nan

>  <BAO Label>  (86) 
nan

>  <bits>  (86) 
<rdkit.DataStructs.cDataStructs.ExplicitBitVect object at 0x00000210F8E6A570>

>  <Group>  (86) 
G2

$$$$

     RDKit          2D

 25 28  0  0  0  0  0  0  0  0999 V2000
    2.6761    4.9840    0.0000 C   0  0  0  0  0  0  0  0  0  0  0  0
    1.6559    3.8844    0.0000 C   0  0  0  0  0  0  0  0  0  0  0  0
    0.1935    4.2182    0.0000 N   0  0  0  0  0  0  0  0  0  0  0  0
   -0.8268    3.1186    0.0000 C   0  0  0  0  0  0  0  0  0  0  0  0
   -2.2892    3.4524    0.0000 N   0  0  0  0  0  0  0  0  0  0  0  0
   -2.7313    4.8857    0.0000 C   0  0  0  0  0  0  0  0  0  0  0  0
   -4.1937    5.2195    0.0000 C   0  0  0  0  0  0  0  0  0  0  0  0
   -5.3233    4.2326    0.0000 N   0  0  0  0  0  0  0  0  0  0  0  0
   -6.6110    5.0020    0.0000 N   0  0  0  0  0  0  0  0  0  0  0  0
   -6.2772    6.4643    0.0000 C   0  0  0  0  0  0  0  0  0  0  0  0
   -4.7832    6.5988    0.0000 N   0  0  0  0  0  0  0  0  0  0  0  0
   -3.9569    7.8507    0.0000 C   0  0  0  0  0  0  0  0  0  0  0  0
   -4.4204    9.2773    0.0000 C   0  0  0  0  0  0  0  0  0  0  0  0
   -5.8248    9.8043    0.0000 C   0  0  0  0  0  0  0  0  0  0  0  0
   -7.1124    9.0350    0.0000 C   0  0  0  0  0  0  0  0  0  0  0  0
   -7.3138    7.5485    0.0000 C   0  0  0  0  0  0  0  0  0  0  0  0
   -0.3846    1.6852    0.0000 C   0  0  0  0  0  0  0  0  0  0  0  0
    1.0777    1.3515    0.0000 C   0  0  0  0  0  0  0  0  0  0  0  0
    2.0980    2.4510    0.0000 N   0  0  0  0  0  4  0  0  0  0  0  0
    1.7286    0.0000    0.0000 C   0  0  0  0  0  0  0  0  0  0  0  0
    1.0777   -1.3515    0.0000 C   0  0  0  0  0  0  0  0  0  0  0  0
   -0.3846   -1.6852    0.0000 N   0  0  0  0  0  4  0  0  0  0  0  0
   -0.7184   -3.1476    0.0000 C   0  0  0  0  0  0  0  0  0  0  0  0
   -1.5574   -0.7500    0.0000 C   0  0  0  0  0  0  0  0  0  0  0  0
   -1.5574    0.7500    0.0000 C   0  0  0  0  0  0  0  0  0  0  0  0
  1  2  1  0
  2  3  2  0
  3  4  1  0
  4  5  1  0
  5  6  1  0
  6  7  1  0
  7  8  2  0
  8  9  1  0
  9 10  2  0
 10 11  1  0
 11 12  1  0
 12 13  1  0
 13 14  1  0
 14 15  1  0
 15 16  1  0
  4 17  2  0
 17 18  1  0
 18 19  2  0
 18 20  1  0
 20 21  1  0
 21 22  1  0
 22 23  1  0
 22 24  1  0
 24 25  1  0
 19  2  1  0
 11  7  1  0
 25 17  1  0
 16 10  1  0
M  CHG  2  19   1  22   1
M  END
>  <Compound_ID>  (87) 
C65458193

>  <Active>  (87) 
0

>  <Smiles>  (87) 
Cc1nc(NCc2nnc3n2CCCCC3)c2c([nH+]1)CC[NH+](C)CC2

>  <canonical_smi>  (87) 
Cc1nc(NCc2nnc3n2CCCCC3)c2c([nH+]1)CC[NH+](C)CC2

>  <Set>  (87) 
G2 inactive

>  <Set_type>  (87) 
Train

>  <MW>  (87) 
343.48

>  <HBD>  (87) 
2

>  <HBA>  (87) 
4

>  <NRB>  (87) 
3

>  <NR>  (87) 
4

>  <NAR>  (87) 
2

>  <PSA>  (87) 
74.21

>  <Standard Type>  (87) 
nan

>  <Standard Relation>  (87) 
nan

>  <Standard Units>  (87) 
nan

>  <Standard Value>  (87) 
nan

>  <Assay ChEMBL ID>  (87) 
nan

>  <Assay Description>  (87) 
nan

>  <BAO Label>  (87) 
nan

>  <bits>  (87) 
<rdkit.DataStructs.cDataStructs.ExplicitBitVect object at 0x00000210F8E6B1B0>

>  <Group>  (87) 
G2

$$$$

     RDKit          2D

 26 28  0  0  0  0  0  0  0  0999 V2000
    4.5000    0.0000    0.0000 N   0  0  0  0  0  0  0  0  0  0  0  0
    3.0000    0.0000    0.0000 S   0  0  0  0  0  0  0  0  0  0  0  0
    3.0000   -1.5000    0.0000 O   0  0  0  0  0  0  0  0  0  0  0  0
    3.0000    1.5000    0.0000 O   0  0  0  0  0  0  0  0  0  0  0  0
    1.5000    0.0000    0.0000 C   0  0  0  0  0  0  0  0  0  0  0  0
    0.7500   -1.2990    0.0000 C   0  0  0  0  0  0  0  0  0  0  0  0
   -0.7500   -1.2990    0.0000 C   0  0  0  0  0  0  0  0  0  0  0  0
   -1.5000    0.0000    0.0000 C   0  0  0  0  0  0  0  0  0  0  0  0
   -0.7500    1.2990    0.0000 C   0  0  0  0  0  0  0  0  0  0  0  0
    0.7500    1.2990    0.0000 C   0  0  0  0  0  0  0  0  0  0  0  0
    1.5000    2.5981    0.0000 Cl  0  0  0  0  0  0  0  0  0  0  0  0
   -3.0000    0.0000    0.0000 N   0  0  0  0  0  0  0  0  0  0  0  0
   -3.7500   -1.2990    0.0000 C   0  0  0  0  0  0  0  0  0  0  0  0
   -5.2500   -1.2990    0.0000 C   0  0  0  0  0  0  0  0  0  0  0  0
   -6.0000    0.0000    0.0000 C   0  0  0  0  0  0  0  0  0  0  0  0
   -7.5000    0.0000    0.0000 C   0  0  0  0  0  0  0  0  0  0  0  0
   -8.2500    1.2990    0.0000 Cl  0  0  0  0  0  0  0  0  0  0  0  0
   -8.2500   -1.2990    0.0000 C   0  0  0  0  0  0  0  0  0  0  0  0
   -7.5000   -2.5981    0.0000 C   0  0  0  0  0  0  0  0  0  0  0  0
   -8.2500   -3.8971    0.0000 Cl  0  0  0  0  0  0  0  0  0  0  0  0
   -6.0000   -2.5981    0.0000 C   0  0  0  0  0  0  0  0  0  0  0  0
   -5.2500   -3.8971    0.0000 O   0  0  0  0  0  0  0  0  0  0  0  0
   -3.0000   -2.5981    0.0000 N   0  0  0  0  0  0  0  0  0  0  0  0
   -1.5000   -2.5981    0.0000 S   0  0  0  0  0  0  0  0  0  0  0  0
   -0.0905   -3.1111    0.0000 O   0  0  0  0  0  0  0  0  0  0  0  0
   -1.7605   -4.0753    0.0000 O   0  0  0  0  0  0  0  0  0  0  0  0
  1  2  1  0
  2  3  2  0
  2  4  2  0
  2  5  1  0
  5  6  2  0
  6  7  1  0
  7  8  2  0
  8  9  1  0
  9 10  2  0
 10 11  1  0
  8 12  1  0
 12 13  1  0
 13 14  1  1
 14 15  2  0
 15 16  1  0
 16 17  1  0
 16 18  2  0
 18 19  1  0
 19 20  1  0
 19 21  2  0
 21 22  1  0
 13 23  1  0
 23 24  1  0
 24 25  2  0
 24 26  2  0
 10  5  1  0
 21 14  1  0
 24  7  1  0
M  END
>  <Compound_ID>  (88) 
C59590052

>  <Active>  (88) 
0

>  <Smiles>  (88) 
NS(=O)(=O)c1cc2c(cc1Cl)N[C@H](c1cc(Cl)cc(Cl)c1O)NS2(=O)=O

>  <canonical_smi>  (88) 
NS(=O)(=O)c1cc2c(cc1Cl)N[C@H](c1cc(Cl)cc(Cl)c1O)NS2(=O)=O

>  <Set>  (88) 
G2 inactive

>  <Set_type>  (88) 
Train

>  <MW>  (88) 
458.73

>  <HBD>  (88) 
4

>  <HBA>  (88) 
6

>  <NRB>  (88) 
2

>  <NR>  (88) 
3

>  <NAR>  (88) 
2

>  <PSA>  (88) 
138.59

>  <Standard Type>  (88) 
nan

>  <Standard Relation>  (88) 
nan

>  <Standard Units>  (88) 
nan

>  <Standard Value>  (88) 
nan

>  <Assay ChEMBL ID>  (88) 
nan

>  <Assay Description>  (88) 
nan

>  <BAO Label>  (88) 
nan

>  <bits>  (88) 
<rdkit.DataStructs.cDataStructs.ExplicitBitVect object at 0x00000210F8E6B5A0>

>  <Group>  (88) 
G2

$$$$

     RDKit          2D

 32 37  0  0  0  0  0  0  0  0999 V2000
    5.0218   -0.9664    0.0000 O   0  0  0  0  0  0  0  0  0  0  0  0
    3.8083   -1.8481    0.0000 C   0  0  0  0  0  0  0  0  0  0  0  0
    2.3817   -1.3846    0.0000 O   0  0  0  0  0  0  0  0  0  0  0  0
    1.5000   -2.5981    0.0000 C   0  0  0  0  0  0  0  0  0  0  0  0
    0.7500   -1.2990    0.0000 C   0  0  0  0  0  0  0  0  0  0  0  0
    1.5000    0.0000    0.0000 C   0  0  0  0  0  0  0  0  0  0  0  0
    0.7500    1.2990    0.0000 C   0  0  0  0  0  0  0  0  0  0  0  0
   -0.7500    1.2990    0.0000 C   0  0  0  0  0  0  0  0  0  0  0  0
   -1.5000    2.5981    0.0000 O   0  0  0  0  0  0  0  0  0  0  0  0
   -1.5000    0.0000    0.0000 C   0  0  0  0  0  0  0  0  0  0  0  0
   -0.7500   -1.2990    0.0000 C   0  0  0  0  0  0  0  0  0  0  0  0
   -1.5000   -2.5981    0.0000 O   0  0  0  0  0  0  0  0  0  0  0  0
   -0.7500   -3.8971    0.0000 C   0  0  0  0  0  0  0  0  0  0  0  0
   -1.5000   -5.1962    0.0000 C   0  0  0  0  0  0  0  0  0  0  0  0
   -0.7500   -6.4952    0.0000 C   0  0  0  0  0  0  0  0  0  0  0  0
   -1.5000   -7.7942    0.0000 O   0  0  0  0  0  0  0  0  0  0  0  0
    0.7500   -6.4952    0.0000 C   0  0  0  0  0  0  0  0  0  0  0  0
    1.5000   -5.1962    0.0000 C   0  0  0  0  0  0  0  0  0  0  0  0
    0.7500   -3.8971    0.0000 C   0  0  0  0  0  0  0  0  0  0  0  0
    2.3817   -3.8116    0.0000 C   0  0  0  0  0  0  0  0  0  0  0  0
    2.7355   -5.0625    0.0000 C   0  0  0  0  0  0  0  0  0  0  0  0
    3.3301   -5.5978    0.0000 C   0  0  0  0  0  0  0  0  0  0  0  0
    2.8727   -7.7497    0.0000 N   0  0  0  0  0  0  0  0  0  0  0  0
    3.8764   -8.8645    0.0000 C   0  0  0  0  0  0  0  0  0  0  0  0
    5.3681   -8.7077    0.0000 O   0  0  0  0  0  0  0  0  0  0  0  0
    3.1264  -10.1635    0.0000 C   0  0  0  0  0  0  0  0  0  0  0  0
    1.6591   -9.8516    0.0000 C   0  0  0  0  0  0  0  0  0  0  0  0
    1.5023   -8.3598    0.0000 C   0  0  0  0  0  0  0  0  0  0  0  0
    0.2033   -7.6098    0.0000 O   0  0  0  0  0  0  0  0  0  0  0  0
    4.0909   -5.3506    0.0000 C   0  0  0  0  0  0  0  0  0  0  0  0
    4.2572   -4.5681    0.0000 C   0  0  0  0  0  0  0  0  0  0  0  0
    3.8083   -3.3481    0.0000 C   0  0  0  0  0  0  0  0  0  0  0  0
  1  2  2  0
  2  3  1  0
  3  4  1  0
  4  5  1  0
  5  6  2  0
  6  7  1  0
  7  8  2  0
  8  9  1  0
  8 10  1  0
 10 11  2  0
 11 12  1  0
 12 13  1  0
 13 14  2  0
 14 15  1  0
 15 16  1  0
 15 17  2  0
 17 18  1  0
 18 19  2  0
  4 20  1  0
 20 21  2  0
 21 22  1  0
 22 23  1  0
 23 24  1  0
 24 25  2  0
 24 26  1  0
 26 27  2  0
 27 28  1  0
 28 29  2  0
 22 30  2  0
 30 31  1  0
 31 32  2  0
 32  2  1  0
 19  4  1  0
 32 20  1  0
 11  5  1  0
 19 13  1  0
 28 23  1  0
M  END
>  <Compound_ID>  (89) 
C65742655

>  <Active>  (89) 
0

>  <Smiles>  (89) 
O=C1OC2(c3ccc(O)cc3Oc3cc(O)ccc32)c2cc(N3C(=O)C=CC3=O)ccc21

>  <canonical_smi>  (89) 
O=C1OC2(c3ccc(O)cc3Oc3cc(O)ccc32)c2cc(N3C(=O)C=CC3=O)ccc21

>  <Set>  (89) 
G2 inactive

>  <Set_type>  (89) 
Train

>  <MW>  (89) 
427.37

>  <HBD>  (89) 
2

>  <HBA>  (89) 
7

>  <NRB>  (89) 
1

>  <NR>  (89) 
6

>  <NAR>  (89) 
3

>  <PSA>  (89) 
113.37

>  <Standard Type>  (89) 
nan

>  <Standard Relation>  (89) 
nan

>  <Standard Units>  (89) 
nan

>  <Standard Value>  (89) 
nan

>  <Assay ChEMBL ID>  (89) 
nan

>  <Assay Description>  (89) 
nan

>  <BAO Label>  (89) 
nan

>  <bits>  (89) 
<rdkit.DataStructs.cDataStructs.ExplicitBitVect object at 0x00000210F8E6A8F0>

>  <Group>  (89) 
G2

$$$$

     RDKit          2D

 29 32  0  0  0  0  0  0  0  0999 V2000
   10.4154   12.1446    0.0000 C   0  0  0  0  0  0  0  0  0  0  0  0
    8.9156   12.1670    0.0000 C   0  0  0  0  0  0  0  0  0  0  0  0
    8.1851   13.4771    0.0000 N   0  0  0  0  0  0  0  0  0  0  0  0
    6.6853   13.4996    0.0000 N   0  0  0  0  0  0  0  0  0  0  0  0
    5.9159   12.2119    0.0000 C   0  0  0  0  0  0  0  0  0  0  0  0
    4.4161   12.2344    0.0000 O   0  0  0  0  0  0  0  0  0  0  0  0
    6.6464   10.9018    0.0000 C   0  0  0  0  0  0  0  0  0  0  0  0
    8.1463   10.8794    0.0000 C   0  0  0  0  0  0  0  0  0  0  0  0
    8.5884    9.4460    0.0000 C   0  0  0  0  0  0  0  0  0  0  0  0
   10.0079    8.9612    0.0000 C   0  0  0  0  0  0  0  0  0  0  0  0
    7.3618    8.5826    0.0000 O   0  0  0  0  0  0  0  0  0  0  0  0
    6.1616    9.4823    0.0000 C   0  0  0  0  0  0  0  0  0  0  0  0
    4.7283    9.0402    0.0000 N   0  0  0  0  0  0  0  0  0  0  0  0
    4.3945    7.5778    0.0000 C   0  0  0  0  0  0  0  0  0  0  0  0
    5.4940    6.5575    0.0000 O   0  0  0  0  0  0  0  0  0  0  0  0
    2.9611    7.1357    0.0000 C   0  0  0  0  0  0  0  0  0  0  0  0
    2.6273    5.6733    0.0000 O   0  0  0  0  0  0  0  0  0  0  0  0
    1.1940    5.2311    0.0000 C   0  0  0  0  0  0  0  0  0  0  0  0
    0.0944    6.2514    0.0000 O   0  0  0  0  0  0  0  0  0  0  0  0
    0.8602    3.7687    0.0000 C   0  0  0  0  0  0  0  0  0  0  0  0
   -0.5191    3.1792    0.0000 C   0  0  0  0  0  0  0  0  0  0  0  0
   -0.3846    1.6852    0.0000 C   0  0  0  0  0  0  0  0  0  0  0  0
    1.0777    1.3515    0.0000 C   0  0  0  0  0  0  0  0  0  0  0  0
    1.7286    0.0000    0.0000 C   0  0  0  0  0  0  0  0  0  0  0  0
    1.0777   -1.3515    0.0000 C   0  0  0  0  0  0  0  0  0  0  0  0
   -0.3846   -1.6852    0.0000 C   0  0  0  0  0  0  0  0  0  0  0  0
   -1.5574   -0.7500    0.0000 C   0  0  0  0  0  0  0  0  0  0  0  0
   -1.5574    0.7500    0.0000 C   0  0  0  0  0  0  0  0  0  0  0  0
    1.8471    2.6391    0.0000 S   0  0  0  0  0  0  0  0  0  0  0  0
  2  1  1  1
  2  3  1  0
  3  4  1  0
  4  5  1  0
  5  6  2  0
  5  7  1  0
  7  8  2  0
  8  9  1  0
  9 10  1  1
  9 11  1  0
 11 12  1  0
 12 13  1  6
 13 14  1  0
 14 15  2  0
 14 16  1  0
 16 17  1  0
 17 18  1  0
 18 19  2  0
 20 18  1  1
 20 21  1  0
 21 22  1  0
 22 23  2  0
 23 24  1  0
 24 25  1  0
 25 26  1  0
 26 27  1  0
 27 28  1  0
 23 29  1  0
  8  2  1  0
 29 20  1  0
 12  7  1  0
 28 22  1  0
M  END
>  <Compound_ID>  (90) 
C39612495

>  <Active>  (90) 
0

>  <Smiles>  (90) 
C[C@@H]1NNC(=O)C2=C1[C@@H](C)O[C@@H]2NC(=O)COC(=O)[C@@H]1CC2=C(CCCCC2)S1

>  <canonical_smi>  (90) 
C[C@@H]1NNC(=O)C2=C1[C@@H](C)O[C@@H]2NC(=O)COC(=O)[C@@H]1CC2=C(CCCCC2)S1

>  <Set>  (90) 
G2 inactive

>  <Set_type>  (90) 
Train

>  <MW>  (90) 
421.52

>  <HBD>  (90) 
3

>  <HBA>  (90) 
7

>  <NRB>  (90) 
4

>  <NR>  (90) 
4

>  <NAR>  (90) 
0

>  <PSA>  (90) 
105.76

>  <Standard Type>  (90) 
nan

>  <Standard Relation>  (90) 
nan

>  <Standard Units>  (90) 
nan

>  <Standard Value>  (90) 
nan

>  <Assay ChEMBL ID>  (90) 
nan

>  <Assay Description>  (90) 
nan

>  <BAO Label>  (90) 
nan

>  <bits>  (90) 
<rdkit.DataStructs.cDataStructs.ExplicitBitVect object at 0x00000210F8E68E40>

>  <Group>  (90) 
G2

$$$$

     RDKit          2D

 27 31  0  0  0  0  0  0  0  0999 V2000
    3.0000    0.0000    0.0000 C   0  0  0  0  0  0  0  0  0  0  0  0
    1.5000    0.0000    0.0000 C   0  0  0  0  0  0  0  0  0  0  0  0
    0.7500   -1.2990    0.0000 C   0  0  0  0  0  0  0  0  0  0  0  0
   -0.7500   -1.2990    0.0000 N   0  0  0  0  0  0  0  0  0  0  0  0
   -1.5000    0.0000    0.0000 C   0  0  0  0  0  0  0  0  0  0  0  0
   -2.9672   -0.3119    0.0000 N   0  0  0  0  0  0  0  0  0  0  0  0
   -3.1240   -1.8037    0.0000 C   0  0  0  0  0  0  0  0  0  0  0  0
   -4.4554   -2.4946    0.0000 C   0  0  0  0  0  0  0  0  0  0  0  0
   -4.7453   -3.9663    0.0000 N   0  0  0  0  0  0  0  0  0  0  0  0
   -3.7754   -5.1106    0.0000 C   0  0  0  0  0  0  0  0  0  0  0  0
   -4.3855   -6.4809    0.0000 O   0  0  0  0  0  0  0  0  0  0  0  0
   -2.2760   -5.0657    0.0000 C   0  0  0  0  0  0  0  0  0  0  0  0
   -1.3763   -3.8655    0.0000 C   0  0  0  0  0  0  0  0  0  0  0  0
    0.0954   -4.1554    0.0000 C   0  0  0  0  0  0  0  0  0  0  0  0
    1.0823   -3.0258    0.0000 C   0  0  0  0  0  0  0  0  0  0  0  0
    2.5540   -3.3157    0.0000 C   0  0  0  0  0  0  0  0  0  0  0  0
    3.0389   -4.7352    0.0000 C   0  0  0  0  0  0  0  0  0  0  0  0
    2.0519   -5.8648    0.0000 C   0  0  0  0  0  0  0  0  0  0  0  0
    2.2310   -7.3540    0.0000 C   0  0  0  0  0  0  0  0  0  0  0  0
    3.5411   -8.0845    0.0000 C   0  0  0  0  0  0  0  0  0  0  0  0
    0.8700   -7.9846    0.0000 C   0  0  0  0  0  0  0  0  0  0  0  0
    0.5801   -9.4563    0.0000 C   0  0  0  0  0  0  0  0  0  0  0  0
   -0.1503   -6.8850    0.0000 N   0  0  0  0  0  0  0  0  0  0  0  0
    0.5802   -5.5749    0.0000 C   0  0  0  0  0  0  0  0  0  0  0  0
   -1.7537   -2.4138    0.0000 C   0  0  0  0  0  0  0  0  0  0  0  0
   -0.7500    1.2990    0.0000 C   0  0  0  0  0  0  0  0  0  0  0  0
    0.7500    1.2990    0.0000 C   0  0  0  0  0  0  0  0  0  0  0  0
  1  2  1  0
  2  3  2  0
  3  4  1  0
  4  5  1  0
  5  6  2  0
  6  7  1  0
  7  8  1  6
  8  9  1  0
  9 10  1  0
 10 11  2  0
 10 12  1  0
 12 13  1  0
 13 14  1  6
 14 15  2  0
 15 16  1  0
 16 17  2  0
 17 18  1  0
 18 19  2  0
 19 20  1  0
 19 21  1  0
 21 22  1  0
 21 23  2  0
 24 23  1  6
 13 25  1  0
  5 26  1  0
 26 27  2  0
 27  2  1  0
 25  4  1  6
 25  7  1  0
 24 14  1  0
 24 18  1  0
M  END
>  <Compound_ID>  (91) 
C65397323

>  <Active>  (91) 
0

>  <Smiles>  (91) 
CC1=CN2C(=N[C@H]3CNC(=O)C[C@@H](C4=CC=CC5=C(C)C(C)=N[C@H]45)[C@H]32)C=C1

>  <canonical_smi>  (91) 
CC1=CN2C(=N[C@H]3CNC(=O)C[C@@H](C4=CC=CC5=C(C)C(C)=N[C@H]45)[C@H]32)C=C1

>  <Set>  (91) 
G2 inactive

>  <Set_type>  (91) 
Train

>  <MW>  (91) 
360.46

>  <HBD>  (91) 
1

>  <HBA>  (91) 
2

>  <NRB>  (91) 
1

>  <NR>  (91) 
5

>  <NAR>  (91) 
0

>  <PSA>  (91) 
57.06

>  <Standard Type>  (91) 
nan

>  <Standard Relation>  (91) 
nan

>  <Standard Units>  (91) 
nan

>  <Standard Value>  (91) 
nan

>  <Assay ChEMBL ID>  (91) 
nan

>  <Assay Description>  (91) 
nan

>  <BAO Label>  (91) 
nan

>  <bits>  (91) 
<rdkit.DataStructs.cDataStructs.ExplicitBitVect object at 0x00000210F8E6B530>

>  <Group>  (91) 
G2

$$$$

     RDKit          2D

 17 18  0  0  0  0  0  0  0  0999 V2000
    3.0000    0.0000    0.0000 O   0  0  0  0  0  1  0  0  0  0  0  0
    1.5000    0.0000    0.0000 C   0  0  0  0  0  0  0  0  0  0  0  0
    0.7500   -1.2990    0.0000 C   0  0  0  0  0  0  0  0  0  0  0  0
    1.5000   -2.5981    0.0000 Br  0  0  0  0  0  0  0  0  0  0  0  0
   -0.7500   -1.2990    0.0000 C   0  0  0  0  0  0  0  0  0  0  0  0
   -1.5000    0.0000    0.0000 C   0  0  0  0  0  0  0  0  0  0  0  0
   -0.7500    1.2990    0.0000 C   0  0  0  0  0  0  0  0  0  0  0  0
   -1.5000    2.5981    0.0000 Br  0  0  0  0  0  0  0  0  0  0  0  0
    0.7500    1.2990    0.0000 C   0  0  0  0  0  0  0  0  0  0  0  0
    1.5000    2.5981    0.0000 C   0  0  0  0  0  0  0  0  0  0  0  0
    3.0000    2.5981    0.0000 N   0  0  0  0  0  4  0  0  0  0  0  0
    3.7500    3.8971    0.0000 C   0  0  0  0  0  0  0  0  0  0  0  0
    5.2500    3.8971    0.0000 C   0  0  0  0  0  0  0  0  0  0  0  0
    6.0000    5.1962    0.0000 C   0  0  0  0  0  0  0  0  0  0  0  0
    5.2500    6.4952    0.0000 C   0  0  0  0  0  0  0  0  0  0  0  0
    3.7500    6.4952    0.0000 C   0  0  0  0  0  0  0  0  0  0  0  0
    3.0000    5.1962    0.0000 N   0  0  0  0  0  0  0  0  0  0  0  0
  1  2  1  0
  2  3  2  0
  3  4  1  0
  3  5  1  0
  5  6  2  0
  6  7  1  0
  7  8  1  0
  7  9  2  0
  9 10  1  0
 10 11  2  0
 11 12  1  0
 12 13  2  0
 13 14  1  0
 14 15  2  0
 15 16  1  0
 16 17  2  0
  9  2  1  0
 17 12  1  0
M  CHG  2   1  -1  11   1
M  END
>  <Compound_ID>  (92) 
C01094636

>  <Active>  (92) 
0

>  <Smiles>  (92) 
[O-]c1c(Br)ccc(Br)c1/C=[NH+]/c1ccccn1

>  <canonical_smi>  (92) 
[O-]c1c(Br)ccc(Br)c1/C=[NH+]/c1ccccn1

>  <Set>  (92) 
G2 inactive

>  <Set_type>  (92) 
Train

>  <MW>  (92) 
356.02

>  <HBD>  (92) 
1

>  <HBA>  (92) 
2

>  <NRB>  (92) 
2

>  <NR>  (92) 
2

>  <NAR>  (92) 
2

>  <PSA>  (92) 
49.92

>  <Standard Type>  (92) 
nan

>  <Standard Relation>  (92) 
nan

>  <Standard Units>  (92) 
nan

>  <Standard Value>  (92) 
nan

>  <Assay ChEMBL ID>  (92) 
nan

>  <Assay Description>  (92) 
nan

>  <BAO Label>  (92) 
nan

>  <bits>  (92) 
<rdkit.DataStructs.cDataStructs.ExplicitBitVect object at 0x00000210F8E6B8B0>

>  <Group>  (92) 
G2

$$$$

     RDKit          2D

 25 28  0  0  0  0  0  0  0  0999 V2000
   -7.3826    7.6088    0.0000 C   0  0  0  0  0  0  0  0  0  0  0  0
   -6.6784    6.2844    0.0000 O   0  0  0  0  0  0  0  0  0  0  0  0
   -5.1793    6.2320    0.0000 C   0  0  0  0  0  0  0  0  0  0  0  0
   -5.3880    7.7174    0.0000 O   0  0  0  0  0  0  0  0  0  0  0  0
   -4.2060    8.6409    0.0000 C   0  0  0  0  0  0  0  0  0  0  0  0
   -3.7527    6.6955    0.0000 C   0  0  0  0  0  0  0  0  0  0  0  0
   -2.6380    5.6918    0.0000 C   0  0  0  0  0  0  0  0  0  0  0  0
   -2.9499    4.2246    0.0000 C   0  0  0  0  0  0  0  0  0  0  0  0
   -1.5233    4.6881    0.0000 C   0  0  0  0  0  0  0  0  0  0  0  0
   -1.8351    3.2209    0.0000 C   0  0  0  0  0  0  0  0  0  0  0  0
   -0.4086    3.6844    0.0000 C   0  0  0  0  0  0  0  0  0  0  0  0
    0.7062    2.6807    0.0000 C   0  0  0  0  0  0  0  0  0  0  0  0
    0.3943    1.2135    0.0000 C   0  0  0  0  0  0  0  0  0  0  0  0
    1.8615    1.5254    0.0000 C   0  0  0  0  0  0  0  0  0  0  0  0
    1.2760    0.0000    0.0000 C   0  0  0  0  0  0  0  0  0  0  0  0
    0.3943   -1.2135    0.0000 C   0  0  0  0  0  0  0  0  0  0  0  0
   -1.0323   -0.7500    0.0000 C   0  0  0  0  0  0  0  0  0  0  0  0
   -1.0323    0.7500    0.0000 C   0  0  0  0  0  0  0  0  0  0  0  0
   -2.4026    0.1399    0.0000 O   0  0  0  0  0  0  0  0  0  0  0  0
   -2.1470    1.7537    0.0000 C   0  0  0  0  0  0  0  0  0  0  0  0
   -3.5736    1.2902    0.0000 C   0  0  0  0  0  0  0  0  0  0  0  0
   -4.6883    2.2939    0.0000 C   0  0  0  0  0  0  0  0  0  0  0  0
   -4.3764    3.7611    0.0000 C   0  0  0  0  0  0  0  0  0  0  0  0
   -5.8030    3.2976    0.0000 C   0  0  0  0  0  0  0  0  0  0  0  0
   -5.4912    4.7648    0.0000 C   0  0  0  0  0  0  0  0  0  0  0  0
  1  2  1  0
  2  3  1  0
  3  4  1  0
  4  5  1  0
  3  6  1  0
  6  7  1  0
  7  8  1  0
  8  9  1  6
  8 10  1  0
 10 11  1  1
 11 12  1  0
 12 13  1  0
 13 14  1  6
 13 15  1  0
 15 16  1  0
 16 17  1  0
 17 18  1  0
 18 19  1  1
 18 20  1  0
 20 21  1  1
 21 22  1  0
 22 23  1  0
 23 24  1  1
 23 25  1  0
 25  3  1  0
 23  8  1  0
 20 10  1  0
 18 13  1  0
M  END
>  <Compound_ID>  (93) 
C43722440

>  <Active>  (93) 
0

>  <Smiles>  (93) 
COC1(OC)CC[C@@]2(C)[C@H]3CC[C@@]4(C)CCC[C@]4(O)[C@H]3CC[C@]2(C)C1

>  <canonical_smi>  (93) 
COC1(OC)CC[C@@]2(C)[C@H]3CC[C@@]4(C)CCC[C@]4(O)[C@H]3CC[C@]2(C)C1

>  <Set>  (93) 
G2 inactive

>  <Set_type>  (93) 
Train

>  <MW>  (93) 
350.54

>  <HBD>  (93) 
1

>  <HBA>  (93) 
3

>  <NRB>  (93) 
2

>  <NR>  (93) 
4

>  <NAR>  (93) 
0

>  <PSA>  (93) 
38.69

>  <Standard Type>  (93) 
nan

>  <Standard Relation>  (93) 
nan

>  <Standard Units>  (93) 
nan

>  <Standard Value>  (93) 
nan

>  <Assay ChEMBL ID>  (93) 
nan

>  <Assay Description>  (93) 
nan

>  <BAO Label>  (93) 
nan

>  <bits>  (93) 
<rdkit.DataStructs.cDataStructs.ExplicitBitVect object at 0x00000210F8E6A1F0>

>  <Group>  (93) 
G2

$$$$

     RDKit          2D

 25 29  0  0  0  0  0  0  0  0999 V2000
    3.7500   -6.4952    0.0000 C   0  0  0  0  0  0  0  0  0  0  0  0
    3.0000   -5.1962    0.0000 C   0  0  0  0  0  0  0  0  0  0  0  0
    1.5000   -5.1962    0.0000 C   0  0  0  0  0  0  0  0  0  0  0  0
    0.7500   -3.8971    0.0000 C   0  0  0  0  0  0  0  0  0  0  0  0
    1.5000   -2.5981    0.0000 C   0  0  0  0  0  0  0  0  0  0  0  0
    0.7500   -1.2990    0.0000 C   0  0  0  0  0  0  0  0  0  0  0  0
    1.5000    0.0000    0.0000 C   0  0  0  0  0  0  0  0  0  0  0  0
    0.7500    1.2990    0.0000 C   0  0  0  0  0  0  0  0  0  0  0  0
   -0.7500    1.2990    0.0000 C   0  0  0  0  0  0  0  0  0  0  0  0
   -1.5000    0.0000    0.0000 C   0  0  0  0  0  0  0  0  0  0  0  0
    1.7010   -0.7500    0.0000 C   0  0  0  0  0  0  0  0  0  0  0  0
    3.0000   -0.0000    0.0000 C   0  0  0  0  0  0  0  0  0  0  0  0
    4.5000   -0.0000    0.0000 C   0  0  0  0  0  0  0  0  0  0  0  0
    5.2500   -1.2990    0.0000 O   0  0  0  0  0  0  0  0  0  0  0  0
    5.2500    1.2990    0.0000 N   0  0  0  0  0  0  0  0  0  0  0  0
    6.7500    1.2990    0.0000 C   0  0  0  0  0  0  0  0  0  0  0  0
    7.6317    0.0855    0.0000 N   0  0  0  0  0  0  0  0  0  0  0  0
    9.0583    0.5490    0.0000 C   0  0  0  0  0  0  0  0  0  0  0  0
    9.0583    2.0490    0.0000 C   0  0  0  0  0  0  0  0  0  0  0  0
    7.6317    2.5126    0.0000 S   0  0  0  0  0  0  0  0  0  0  0  0
    2.2500    1.2990    0.0000 C   0  0  0  0  0  0  0  0  0  0  0  0
    2.2500   -1.2990    0.0000 C   0  0  0  0  0  0  0  0  0  0  0  0
   -0.7500   -1.2990    0.0000 C   0  0  0  0  0  0  0  0  0  0  0  0
    3.0000   -2.5981    0.0000 C   0  0  0  0  0  0  0  0  0  0  0  0
    3.7500   -3.8971    0.0000 C   0  0  0  0  0  0  0  0  0  0  0  0
  1  2  1  0
  2  3  2  0
  3  4  1  0
  4  5  2  0
  5  6  1  0
  6  7  1  0
  8  7  1  1
  8  9  1  0
 10  9  1  1
 10 11  1  0
 11 12  1  0
 12 13  1  0
 13 14  2  0
 13 15  1  0
 15 16  2  0
 16 17  1  0
 17 18  1  0
 18 19  1  0
 19 20  1  0
 12 21  1  0
 12 22  1  0
 10 23  1  0
  5 24  1  0
 24 25  2  0
 25  2  1  0
 22  6  1  0
 23  6  1  0
 21  8  1  0
 20 16  1  0
M  END
>  <Compound_ID>  (94) 
C18183006

>  <Active>  (94) 
0

>  <Smiles>  (94) 
Cc1ccc(C23C[C@@H]4C[C@@H](CC(C(=O)/N=C5\NCCS5)(C4)C2)C3)cc1

>  <canonical_smi>  (94) 
Cc1ccc(C23C[C@@H]4C[C@@H](CC(C(=O)/N=C5\NCCS5)(C4)C2)C3)cc1

>  <Set>  (94) 
G2 inactive

>  <Set_type>  (94) 
Train

>  <MW>  (94) 
354.52

>  <HBD>  (94) 
1

>  <HBA>  (94) 
3

>  <NRB>  (94) 
2

>  <NR>  (94) 
6

>  <NAR>  (94) 
1

>  <PSA>  (94) 
41.46

>  <Standard Type>  (94) 
nan

>  <Standard Relation>  (94) 
nan

>  <Standard Units>  (94) 
nan

>  <Standard Value>  (94) 
nan

>  <Assay ChEMBL ID>  (94) 
nan

>  <Assay Description>  (94) 
nan

>  <BAO Label>  (94) 
nan

>  <bits>  (94) 
<rdkit.DataStructs.cDataStructs.ExplicitBitVect object at 0x00000210F8E686D0>

>  <Group>  (94) 
G2

$$$$

     RDKit          2D

 24 26  0  0  0  0  0  0  0  0999 V2000
   -4.5000   -2.5981    0.0000 N   0  0  0  0  0  0  0  0  0  0  0  0
   -3.0000   -2.5981    0.0000 C   0  0  0  0  0  0  0  0  0  0  0  0
   -1.5000   -2.5981    0.0000 C   0  0  0  0  0  0  0  0  0  0  0  0
   -0.7500   -3.8971    0.0000 C   0  0  0  0  0  0  0  0  0  0  0  0
   -1.5000   -5.1962    0.0000 N   0  0  0  0  0  0  0  0  0  0  0  0
    0.7500   -3.8971    0.0000 C   0  0  0  0  0  0  0  0  0  0  0  0
    0.4895   -5.3743    0.0000 C   0  0  0  0  0  0  0  0  0  0  0  0
    0.2291   -6.8515    0.0000 N   0  0  0  0  0  0  0  0  0  0  0  0
    2.1595   -4.4101    0.0000 C   0  0  0  0  0  0  0  0  0  0  0  0
    3.5691   -4.9232    0.0000 N   0  0  0  0  0  0  0  0  0  0  0  0
    1.5000   -2.5981    0.0000 C   0  0  0  0  0  0  0  0  0  0  0  0
    3.0000   -2.5981    0.0000 C   0  0  0  0  0  0  0  0  0  0  0  0
    3.7500   -3.8971    0.0000 C   0  0  0  0  0  0  0  0  0  0  0  0
    5.2500   -3.8971    0.0000 C   0  0  0  0  0  0  0  0  0  0  0  0
    6.0000   -2.5981    0.0000 C   0  0  0  0  0  0  0  0  0  0  0  0
    7.5000   -2.5981    0.0000 Br  0  0  0  0  0  0  0  0  0  0  0  0
    5.2500   -1.2990    0.0000 C   0  0  0  0  0  0  0  0  0  0  0  0
    3.7500   -1.2990    0.0000 C   0  0  0  0  0  0  0  0  0  0  0  0
    0.7500   -1.2990    0.0000 C   0  0  0  0  0  0  0  0  0  0  0  0
    1.5000    0.0000    0.0000 C   0  0  0  0  0  0  0  0  0  0  0  0
    0.7500    1.2990    0.0000 C   0  0  0  0  0  0  0  0  0  0  0  0
   -0.7500    1.2990    0.0000 C   0  0  0  0  0  0  0  0  0  0  0  0
   -1.5000    0.0000    0.0000 C   0  0  0  0  0  0  0  0  0  0  0  0
   -0.7500   -1.2990    0.0000 C   0  0  0  0  0  0  0  0  0  0  0  0
  1  2  3  0
  2  3  1  0
  3  4  2  0
  4  5  1  0
  4  6  1  0
  6  7  1  0
  7  8  3  0
  6  9  1  0
  9 10  3  0
  6 11  1  0
 11 12  1  6
 12 13  2  0
 13 14  1  0
 14 15  2  0
 15 16  1  0
 15 17  1  0
 17 18  2  0
 11 19  1  0
 19 20  1  1
 20 21  1  0
 21 22  1  0
 22 23  1  0
 23 24  2  0
 24  3  1  0
 18 12  1  0
 24 19  1  0
M  END
>  <Compound_ID>  (95) 
C01085007

>  <Active>  (95) 
0

>  <Smiles>  (95) 
N#CC1=C(N)C(C#N)(C#N)[C@@H](c2ccc(Br)cc2)[C@@H]2CCCC=C12

>  <canonical_smi>  (95) 
N#CC1=C(N)C(C#N)(C#N)[C@@H](c2ccc(Br)cc2)[C@@H]2CCCC=C12

>  <Set>  (95) 
G2 inactive

>  <Set_type>  (95) 
Train

>  <MW>  (95) 
379.26

>  <HBD>  (95) 
1

>  <HBA>  (95) 
4

>  <NRB>  (95) 
1

>  <NR>  (95) 
3

>  <NAR>  (95) 
1

>  <PSA>  (95) 
97.39

>  <Standard Type>  (95) 
nan

>  <Standard Relation>  (95) 
nan

>  <Standard Units>  (95) 
nan

>  <Standard Value>  (95) 
nan

>  <Assay ChEMBL ID>  (95) 
nan

>  <Assay Description>  (95) 
nan

>  <BAO Label>  (95) 
nan

>  <bits>  (95) 
<rdkit.DataStructs.cDataStructs.ExplicitBitVect object at 0x00000210F8E68F90>

>  <Group>  (95) 
G2

$$$$

     RDKit          2D

 21 23  0  0  0  0  0  0  0  0999 V2000
   -0.7500   -6.4952    0.0000 O   0  0  0  0  0  0  0  0  0  0  0  0
   -1.5000   -5.1962    0.0000 C   0  0  0  0  0  0  0  0  0  0  0  0
   -3.0000   -5.1962    0.0000 N   0  0  0  0  0  0  0  0  0  0  0  0
   -3.7500   -6.4952    0.0000 C   0  0  0  0  0  0  0  0  0  0  0  0
   -5.2500   -6.4952    0.0000 C   0  0  0  0  0  0  0  0  0  0  0  0
   -6.0000   -7.7942    0.0000 C   0  0  0  0  0  0  0  0  0  0  0  0
   -7.5000   -7.7942    0.0000 Br  0  0  0  0  0  0  0  0  0  0  0  0
   -5.2500   -9.0933    0.0000 C   0  0  0  0  0  0  0  0  0  0  0  0
   -3.7500   -9.0933    0.0000 C   0  0  0  0  0  0  0  0  0  0  0  0
   -3.0000   -7.7942    0.0000 C   0  0  0  0  0  0  0  0  0  0  0  0
   -1.5000   -7.7942    0.0000 Br  0  0  0  0  0  0  0  0  0  0  0  0
   -0.7500   -3.8971    0.0000 C   0  0  0  0  0  0  0  0  0  0  0  0
    0.7500   -3.8971    0.0000 C   0  0  0  0  0  0  0  0  0  0  0  0
    1.5000   -2.5981    0.0000 O   0  0  0  0  0  0  0  0  0  0  0  0
    0.7500   -1.2990    0.0000 C   0  0  0  0  0  0  0  0  0  0  0  0
    1.5000    0.0000    0.0000 C   0  0  0  0  0  0  0  0  0  0  0  0
    0.7500    1.2990    0.0000 C   0  0  0  0  0  0  0  0  0  0  0  0
   -0.7500    1.2990    0.0000 C   0  0  0  0  0  0  0  0  0  0  0  0
   -1.5000    0.0000    0.0000 C   0  0  0  0  0  0  0  0  0  0  0  0
   -0.7500   -1.2990    0.0000 C   0  0  0  0  0  0  0  0  0  0  0  0
   -1.5000   -2.5981    0.0000 O   0  0  0  0  0  0  0  0  0  0  0  0
  1  2  2  0
  2  3  1  0
  3  4  1  0
  4  5  2  0
  5  6  1  0
  6  7  1  0
  6  8  2  0
  8  9  1  0
  9 10  2  0
 10 11  1  0
 12  2  1  1
 12 13  1  0
 13 14  1  0
 14 15  1  0
 15 16  2  0
 16 17  1  0
 17 18  2  0
 18 19  1  0
 19 20  2  0
 20 21  1  0
 10  4  1  0
 21 12  1  0
 20 15  1  0
M  END
>  <Compound_ID>  (96) 
C28540961

>  <Active>  (96) 
0

>  <Smiles>  (96) 
O=C(Nc1cc(Br)ccc1Br)[C@@H]1COc2ccccc2O1

>  <canonical_smi>  (96) 
O=C(Nc1cc(Br)ccc1Br)[C@@H]1COc2ccccc2O1

>  <Set>  (96) 
G2 inactive

>  <Set_type>  (96) 
Train

>  <MW>  (96) 
413.06

>  <HBD>  (96) 
1

>  <HBA>  (96) 
3

>  <NRB>  (96) 
2

>  <NR>  (96) 
3

>  <NAR>  (96) 
2

>  <PSA>  (96) 
47.56

>  <Standard Type>  (96) 
nan

>  <Standard Relation>  (96) 
nan

>  <Standard Units>  (96) 
nan

>  <Standard Value>  (96) 
nan

>  <Assay ChEMBL ID>  (96) 
nan

>  <Assay Description>  (96) 
nan

>  <BAO Label>  (96) 
nan

>  <bits>  (96) 
<rdkit.DataStructs.cDataStructs.ExplicitBitVect object at 0x00000210F8E690E0>

>  <Group>  (96) 
G2

$$$$

     RDKit          2D

 28 32  0  0  0  0  0  0  0  0999 V2000
   -1.9089  -12.2499    0.0000 C   0  0  0  0  0  0  0  0  0  0  0  0
   -0.7942  -11.2462    0.0000 N   0  0  0  0  0  0  0  0  0  0  0  0
    0.6731  -11.5581    0.0000 C   0  0  0  0  0  0  0  0  0  0  0  0
    1.4231  -10.2590    0.0000 C   0  0  0  0  0  0  0  0  0  0  0  0
    0.4194   -9.1443    0.0000 N   0  0  0  0  0  0  0  0  0  0  0  0
   -0.9510   -9.7544    0.0000 C   0  0  0  0  0  0  0  0  0  0  0  0
   -2.2500   -9.0044    0.0000 S   0  0  0  0  0  0  0  0  0  0  0  0
   -2.2500   -7.5044    0.0000 C   0  0  0  0  0  0  0  0  0  0  0  0
   -1.0365   -6.6227    0.0000 C   0  0  0  0  0  0  0  0  0  0  0  0
   -1.5000   -5.1962    0.0000 C   0  0  0  0  0  0  0  0  0  0  0  0
   -0.7500   -3.8971    0.0000 C   0  0  0  0  0  0  0  0  0  0  0  0
    0.7500   -3.8971    0.0000 C   0  0  0  0  0  0  0  0  0  0  0  0
    1.5000   -2.5981    0.0000 C   0  0  0  0  0  0  0  0  0  0  0  0
    0.7500   -1.2990    0.0000 C   0  0  0  0  0  0  0  0  0  0  0  0
    1.5000    0.0000    0.0000 C   0  0  0  0  0  0  0  0  0  0  0  0
    0.7500    1.2990    0.0000 C   0  0  0  0  0  0  0  0  0  0  0  0
    1.5000    2.5981    0.0000 O   0  0  0  0  0  0  0  0  0  0  0  0
   -0.7500    1.2990    0.0000 C   0  0  0  0  0  0  0  0  0  0  0  0
   -1.5000    0.0000    0.0000 C   0  0  0  0  0  0  0  0  0  0  0  0
   -0.7500   -1.2990    0.0000 C   0  0  0  0  0  0  0  0  0  0  0  0
   -2.2500   -1.2990    0.0000 C   0  0  0  0  0  0  0  0  0  0  0  0
   -1.5000   -2.5981    0.0000 C   0  0  0  0  0  0  0  0  0  0  0  0
   -3.0000   -2.5981    0.0000 C   0  0  0  0  0  0  0  0  0  0  0  0
   -3.7500   -3.8971    0.0000 C   0  0  0  0  0  0  0  0  0  0  0  0
   -3.0000   -5.1962    0.0000 C   0  0  0  0  0  0  0  0  0  0  0  0
   -4.4918   -5.3529    0.0000 C   0  0  0  0  0  0  0  0  0  0  0  0
   -3.4635   -6.6227    0.0000 C   0  0  0  0  0  0  0  0  0  0  0  0
   -4.8901   -7.0863    0.0000 O   0  0  0  0  0  0  0  0  0  0  0  0
  1  2  1  0
  2  3  1  0
  3  4  2  0
  4  5  1  0
  5  6  2  0
  6  7  1  0
  8  7  1  1
  8  9  1  0
 10  9  1  1
 10 11  1  0
 11 12  1  6
 12 13  1  0
 13 14  2  0
 14 15  1  0
 15 16  1  0
 16 17  1  1
 16 18  1  0
 18 19  1  0
 19 20  1  0
 20 21  1  1
 20 22  1  0
 22 23  1  6
 23 24  1  0
 24 25  1  0
 25 26  1  1
 25 27  1  0
 27 28  2  0
  6  2  1  0
 27  8  1  0
 25 10  1  0
 22 11  1  0
 20 14  1  0
M  END
>  <Compound_ID>  (97) 
C44499814

>  <Active>  (97) 
0

>  <Smiles>  (97) 
Cn1ccnc1S[C@@H]1C[C@@H]2[C@H]3CC=C4C[C@H](O)CC[C@@]4(C)[C@H]3CC[C@@]2(C)C1=O

>  <canonical_smi>  (97) 
Cn1ccnc1S[C@@H]1C[C@@H]2[C@H]3CC=C4C[C@H](O)CC[C@@]4(C)[C@H]3CC[C@@]2(C)C1=O

>  <Set>  (97) 
G2 inactive

>  <Set_type>  (97) 
Train

>  <MW>  (97) 
400.59

>  <HBD>  (97) 
1

>  <HBA>  (97) 
4

>  <NRB>  (97) 
2

>  <NR>  (97) 
5

>  <NAR>  (97) 
1

>  <PSA>  (97) 
55.12

>  <Standard Type>  (97) 
nan

>  <Standard Relation>  (97) 
nan

>  <Standard Units>  (97) 
nan

>  <Standard Value>  (97) 
nan

>  <Assay ChEMBL ID>  (97) 
nan

>  <Assay Description>  (97) 
nan

>  <BAO Label>  (97) 
nan

>  <bits>  (97) 
<rdkit.DataStructs.cDataStructs.ExplicitBitVect object at 0x00000210F8E6A030>

>  <Group>  (97) 
G2

$$$$

     RDKit          2D

 29 32  0  0  0  0  0  0  0  0999 V2000
   -3.8855   -0.1771    0.0000 H   0  0  0  0  0  0  0  0  0  0  0  0
   -3.5736    1.2902    0.0000 N   0  0  0  0  0  0  0  0  0  0  0  0
   -2.1470    1.7537    0.0000 C   0  0  0  0  0  0  0  0  0  0  0  0
   -1.8351    3.2209    0.0000 C   0  0  0  0  0  0  0  0  0  0  0  0
   -2.9499    4.2246    0.0000 C   0  0  0  0  0  0  0  0  0  0  0  0
   -4.3764    3.7611    0.0000 C   0  0  0  0  0  0  0  0  0  0  0  0
   -4.8400    2.3345    0.0000 C   0  0  0  0  0  0  0  0  0  0  0  0
   -6.3400    2.3345    0.0000 C   0  0  0  0  0  0  0  0  0  0  0  0
   -7.2216    1.1210    0.0000 C   0  0  0  0  0  0  0  0  0  0  0  0
   -6.8035    3.7611    0.0000 N   0  0  0  0  0  0  0  0  0  0  0  0
   -8.2301    4.2246    0.0000 C   0  0  0  0  0  0  0  0  0  0  0  0
   -8.5419    5.6918    0.0000 C   0  0  0  0  0  0  0  0  0  0  0  0
   -9.9685    6.1554    0.0000 C   0  0  0  0  0  0  0  0  0  0  0  0
  -11.0832    5.1517    0.0000 C   0  0  0  0  0  0  0  0  0  0  0  0
  -12.5098    5.6152    0.0000 Cl  0  0  0  0  0  0  0  0  0  0  0  0
  -10.7714    3.6844    0.0000 C   0  0  0  0  0  0  0  0  0  0  0  0
   -9.3448    3.2209    0.0000 C   0  0  0  0  0  0  0  0  0  0  0  0
   -9.0329    1.7537    0.0000 C   0  0  0  0  0  0  0  0  0  0  0  0
   -5.5900    4.6428    0.0000 C   0  0  0  0  0  0  0  0  0  0  0  0
   -5.5900    6.1428    0.0000 C   0  0  0  0  0  0  0  0  0  0  0  0
   -0.4086    3.6844    0.0000 C   0  0  0  0  0  0  0  0  0  0  0  0
   -0.0967    5.1517    0.0000 O   0  0  0  0  0  0  0  0  0  0  0  0
    0.7062    2.6807    0.0000 N   0  0  0  0  0  0  0  0  0  0  0  0
    0.3943    1.2135    0.0000 C   0  0  0  0  0  0  0  0  0  0  0  0
    1.2760    0.0000    0.0000 S   0  0  0  0  0  0  0  0  0  0  0  0
    0.3943   -1.2135    0.0000 C   0  0  0  0  0  0  0  0  0  0  0  0
    0.8578   -2.6401    0.0000 C   0  0  0  0  0  0  0  0  0  0  0  0
   -1.0323   -0.7500    0.0000 N   0  0  0  0  0  0  0  0  0  0  0  0
   -1.0323    0.7500    0.0000 N   0  0  0  0  0  0  0  0  0  0  0  0
  1  2  1  0
  2  3  2  0
  3  4  1  0
  4  5  2  0
  5  6  1  0
  6  7  1  0
  7  8  2  0
  8  9  1  0
  8 10  1  0
 10 11  1  0
 11 12  2  0
 12 13  1  0
 13 14  2  0
 14 15  1  0
 14 16  1  0
 16 17  2  0
 17 18  1  0
 10 19  1  0
 19 20  1  0
  4 21  1  0
 21 22  2  0
 21 23  1  0
 23 24  2  0
 24 25  1  0
 25 26  1  0
 26 27  1  0
 26 28  2  0
 28 29  1  0
 29  3  1  0
 19  6  2  0
 29 24  1  0
 17 11  1  0
M  END
>  <Compound_ID>  (98) 
C05516568

>  <Active>  (98) 
0

>  <Smiles>  (98) 
[H]/N=C1C(=C\c2cc(C)n(-c3ccc(Cl)cc3C)c2C)/C(=O)N=C2SC(C)=NN2/1

>  <canonical_smi>  (98) 
[H]/N=C1C(=C\c2cc(C)n(-c3ccc(Cl)cc3C)c2C)/C(=O)N=C2SC(C)=NN2/1

>  <Set>  (98) 
G2 inactive

>  <Set_type>  (98) 
Train

>  <MW>  (98) 
411.92

>  <HBD>  (98) 
1

>  <HBA>  (98) 
3

>  <NRB>  (98) 
2

>  <NR>  (98) 
4

>  <NAR>  (98) 
2

>  <PSA>  (98) 
73.81

>  <Standard Type>  (98) 
nan

>  <Standard Relation>  (98) 
nan

>  <Standard Units>  (98) 
nan

>  <Standard Value>  (98) 
nan

>  <Assay ChEMBL ID>  (98) 
nan

>  <Assay Description>  (98) 
nan

>  <BAO Label>  (98) 
nan

>  <bits>  (98) 
<rdkit.DataStructs.cDataStructs.ExplicitBitVect object at 0x00000210F8E69690>

>  <Group>  (98) 
G2

$$$$

     RDKit          2D

 27 30  0  0  0  0  0  0  0  0999 V2000
   -1.4418   -3.8810    0.0000 C   0  0  0  0  0  0  0  0  0  0  0  0
   -1.7537   -2.4138    0.0000 C   0  0  0  0  0  0  0  0  0  0  0  0
   -3.1240   -1.8037    0.0000 N   0  0  0  0  0  0  0  0  0  0  0  0
   -2.9672   -0.3119    0.0000 N   0  0  0  0  0  0  0  0  0  0  0  0
   -4.0819    0.6918    0.0000 C   0  0  0  0  0  0  0  0  0  0  0  0
   -3.7701    2.1590    0.0000 C   0  0  0  0  0  0  0  0  0  0  0  0
   -4.8848    3.1627    0.0000 C   0  0  0  0  0  0  0  0  0  0  0  0
   -6.3114    2.6992    0.0000 C   0  0  0  0  0  0  0  0  0  0  0  0
   -7.4261    3.7029    0.0000 Cl  0  0  0  0  0  0  0  0  0  0  0  0
   -6.6232    1.2320    0.0000 N   0  0  0  0  0  0  0  0  0  0  0  0
   -5.5085    0.2283    0.0000 N   0  0  0  0  0  0  0  0  0  0  0  0
   -1.5000    0.0000    0.0000 C   0  0  0  0  0  0  0  0  0  0  0  0
   -0.7500   -1.2990    0.0000 C   0  0  0  0  0  0  0  0  0  0  0  0
    0.7500   -1.2990    0.0000 C   0  0  0  0  0  0  0  0  0  0  0  0
    1.5000   -2.5981    0.0000 C   0  0  0  0  0  0  0  0  0  0  0  0
    0.7500   -3.8971    0.0000 C   0  0  0  0  0  0  0  0  0  0  0  0
    1.5000   -5.1962    0.0000 C   0  0  0  0  0  0  0  0  0  0  0  0
    3.0000   -5.1962    0.0000 C   0  0  0  0  0  0  0  0  0  0  0  0
    3.7500   -6.4952    0.0000 F   0  0  0  0  0  0  0  0  0  0  0  0
    3.7500   -3.8971    0.0000 C   0  0  0  0  0  0  0  0  0  0  0  0
    5.2500   -3.8971    0.0000 F   0  0  0  0  0  0  0  0  0  0  0  0
    3.0000   -2.5981    0.0000 C   0  0  0  0  0  0  0  0  0  0  0  0
    3.7500   -1.2990    0.0000 F   0  0  0  0  0  0  0  0  0  0  0  0
    1.5000    0.0000    0.0000 C   0  0  0  0  0  0  0  0  0  0  0  0
    0.7500    1.2990    0.0000 C   0  0  0  0  0  0  0  0  0  0  0  0
    1.5000    2.5981    0.0000 O   0  0  0  0  0  0  0  0  0  0  0  0
   -0.7500    1.2990    0.0000 N   0  0  0  0  0  0  0  0  0  0  0  0
  1  2  1  0
  2  3  2  0
  3  4  1  0
  4  5  1  0
  5  6  2  0
  6  7  1  0
  7  8  2  0
  8  9  1  0
  8 10  1  0
 10 11  2  0
  4 12  1  0
 12 13  2  0
 13 14  1  0
 14 15  1  1
 15 16  2  0
 16 17  1  0
 17 18  2  0
 18 19  1  0
 18 20  1  0
 20 21  1  0
 20 22  2  0
 22 23  1  0
 14 24  1  0
 24 25  1  0
 25 26  1  0
 25 27  2  0
 13  2  1  0
 22 15  1  0
 11  5  1  0
 27 12  1  0
M  END
>  <Compound_ID>  (99) 
C36360402

>  <Active>  (99) 
0

>  <Smiles>  (99) 
Cc1nn(-c2ccc(Cl)nn2)c2c1[C@H](c1ccc(F)c(F)c1F)CC(O)=N2

>  <canonical_smi>  (99) 
Cc1nn(-c2ccc(Cl)nn2)c2c1[C@H](c1ccc(F)c(F)c1F)CC(O)=N2

>  <Set>  (99) 
G2 inactive

>  <Set_type>  (99) 
Train

>  <MW>  (99) 
393.76

>  <HBD>  (99) 
1

>  <HBA>  (99) 
4

>  <NRB>  (99) 
2

>  <NR>  (99) 
4

>  <NAR>  (99) 
3

>  <PSA>  (99) 
76.19

>  <Standard Type>  (99) 
nan

>  <Standard Relation>  (99) 
nan

>  <Standard Units>  (99) 
nan

>  <Standard Value>  (99) 
nan

>  <Assay ChEMBL ID>  (99) 
nan

>  <Assay Description>  (99) 
nan

>  <BAO Label>  (99) 
nan

>  <bits>  (99) 
<rdkit.DataStructs.cDataStructs.ExplicitBitVect object at 0x00000210F8E6B370>

>  <Group>  (99) 
G2

$$$$

     RDKit          2D

 32 34  0  0  0  0  0  0  0  0999 V2000
    1.5000    0.0000    0.0000 C   0  0  0  0  0  0  0  0  0  0  0  0
    0.7500   -1.2990    0.0000 C   0  0  0  0  0  0  0  0  0  0  0  0
   -0.7500   -1.2990    0.0000 C   0  0  0  0  0  0  0  0  0  0  0  0
   -1.5000    0.0000    0.0000 C   0  0  0  0  0  0  0  0  0  0  0  0
   -2.5607   -1.0607    0.0000 O   0  0  0  0  0  0  0  0  0  0  0  0
   -3.8597   -1.8107    0.0000 C   0  0  0  0  0  0  0  0  0  0  0  0
   -5.3086   -2.1989    0.0000 C   0  0  0  0  0  0  0  0  0  0  0  0
   -6.8086   -2.1989    0.0000 O   0  0  0  0  0  0  0  0  0  0  0  0
   -8.2575   -1.8107    0.0000 C   0  0  0  0  0  0  0  0  0  0  0  0
   -9.5565   -1.0607    0.0000 C   0  0  0  0  0  0  0  0  0  0  0  0
  -10.6172    0.0000    0.0000 O   0  0  0  0  0  0  0  0  0  0  0  0
  -11.3672    1.2990    0.0000 C   0  0  0  0  0  0  0  0  0  0  0  0
  -11.7554    2.7479    0.0000 C   0  0  0  0  0  0  0  0  0  0  0  0
  -11.7554    4.2479    0.0000 O   0  0  0  0  0  0  0  0  0  0  0  0
  -11.3672    5.6968    0.0000 C   0  0  0  0  0  0  0  0  0  0  0  0
  -12.8672    5.6968    0.0000 C   0  0  0  0  0  0  0  0  0  0  0  0
  -13.6172    6.9959    0.0000 C   0  0  0  0  0  0  0  0  0  0  0  0
  -12.8672    8.2949    0.0000 C   0  0  0  0  0  0  0  0  0  0  0  0
  -11.3672    8.2949    0.0000 C   0  0  0  0  0  0  0  0  0  0  0  0
  -10.6172    6.9959    0.0000 C   0  0  0  0  0  0  0  0  0  0  0  0
   -9.5565    8.0565    0.0000 O   0  0  0  0  0  0  0  0  0  0  0  0
   -8.2575    8.8065    0.0000 C   0  0  0  0  0  0  0  0  0  0  0  0
   -6.8086    9.1947    0.0000 C   0  0  0  0  0  0  0  0  0  0  0  0
   -5.3086    9.1947    0.0000 O   0  0  0  0  0  0  0  0  0  0  0  0
   -3.8597    8.8065    0.0000 C   0  0  0  0  0  0  0  0  0  0  0  0
   -2.5607    8.0565    0.0000 C   0  0  0  0  0  0  0  0  0  0  0  0
   -1.5000    6.9959    0.0000 O   0  0  0  0  0  0  0  0  0  0  0  0
   -0.7500    5.6968    0.0000 C   0  0  0  0  0  0  0  0  0  0  0  0
   -0.3618    4.2479    0.0000 C   0  0  0  0  0  0  0  0  0  0  0  0
   -0.3618    2.7479    0.0000 O   0  0  0  0  0  0  0  0  0  0  0  0
   -0.7500    1.2990    0.0000 C   0  0  0  0  0  0  0  0  0  0  0  0
    0.7500    1.2990    0.0000 C   0  0  0  0  0  0  0  0  0  0  0  0
  1  2  1  0
  2  3  1  0
  4  3  1  6
  4  5  1  0
  5  6  1  0
  6  7  1  0
  7  8  1  0
  8  9  1  0
  9 10  1  0
 10 11  1  0
 11 12  1  0
 12 13  1  0
 13 14  1  0
 14 15  1  0
 15 16  1  6
 16 17  1  0
 17 18  1  0
 18 19  1  0
 20 19  1  1
 20 21  1  0
 21 22  1  0
 22 23  1  0
 23 24  1  0
 24 25  1  0
 25 26  1  0
 26 27  1  0
 27 28  1  0
 28 29  1  0
 29 30  1  0
 30 31  1  0
 31 32  1  1
 32  1  1  0
 31  4  1  0
 20 15  1  0
M  END
>  <Compound_ID>  (100) 
C12405075

>  <Active>  (100) 
0

>  <Smiles>  (100) 
C1CC[C@@H]2OCCOCCOCCO[C@@H]3CCCC[C@H]3OCCOCCOCCO[C@H]2C1

>  <canonical_smi>  (100) 
C1CC[C@@H]2OCCOCCOCCO[C@@H]3CCCC[C@H]3OCCOCCOCCO[C@H]2C1

>  <Set>  (100) 
G2 inactive

>  <Set_type>  (100) 
Train

>  <MW>  (100) 
460.61

>  <HBD>  (100) 
0

>  <HBA>  (100) 
8

>  <NRB>  (100) 
0

>  <NR>  (100) 
3

>  <NAR>  (100) 
0

>  <PSA>  (100) 
73.84

>  <Standard Type>  (100) 
nan

>  <Standard Relation>  (100) 
nan

>  <Standard Units>  (100) 
nan

>  <Standard Value>  (100) 
nan

>  <Assay ChEMBL ID>  (100) 
nan

>  <Assay Description>  (100) 
nan

>  <BAO Label>  (100) 
nan

>  <bits>  (100) 
<rdkit.DataStructs.cDataStructs.ExplicitBitVect object at 0x00000210F8E6BDF0>

>  <Group>  (100) 
G2

$$$$

     RDKit          2D

 28 31  0  0  0  0  0  0  0  0999 V2000
   -0.0000   -5.1073    0.0000 C   0  0  0  0  0  0  0  0  0  0  0  0
   -0.0000   -3.6073    0.0000 C   0  0  0  0  0  0  0  0  0  0  0  0
    1.2135   -2.7256    0.0000 S   0  0  0  0  0  0  0  0  0  0  0  0
    0.7500   -1.2990    0.0000 C   0  0  0  0  0  0  0  0  0  0  0  0
    1.5000    0.0000    0.0000 N   0  0  0  0  0  0  0  0  0  0  0  0
    0.7500    1.2990    0.0000 C   0  0  0  0  0  0  0  0  0  0  0  0
   -0.7500    1.2990    0.0000 N   0  0  0  0  0  0  0  0  0  0  0  0
   -1.5000    0.0000    0.0000 C   0  0  0  0  0  0  0  0  0  0  0  0
   -3.0000    0.0000    0.0000 N   0  0  0  0  0  0  0  0  0  0  0  0
   -3.7500    1.2990    0.0000 C   0  0  0  0  0  0  0  0  0  0  0  0
   -5.2500    1.2990    0.0000 C   0  0  0  0  0  0  0  0  0  0  0  0
   -6.0000    0.0000    0.0000 C   0  0  0  0  0  0  0  0  0  0  0  0
   -7.5000    0.0000    0.0000 C   0  0  0  0  0  0  0  0  0  0  0  0
   -8.2500   -1.2990    0.0000 O   0  0  0  0  0  0  0  0  0  0  0  0
   -8.2500    1.2990    0.0000 N   0  0  0  0  0  0  0  0  0  0  0  0
   -9.7500    1.2990    0.0000 C   0  0  0  0  0  0  0  0  0  0  0  0
   -7.5000    2.5981    0.0000 C   0  0  0  0  0  0  0  0  0  0  0  0
   -8.1101    3.9684    0.0000 C   0  0  0  0  0  0  0  0  0  0  0  0
   -6.9954    4.9721    0.0000 C   0  0  0  0  0  0  0  0  0  0  0  0
   -5.6963    4.2221    0.0000 S   0  0  0  0  0  0  0  0  0  0  0  0
   -5.0862    5.5924    0.0000 O   0  0  0  0  0  0  0  0  0  0  0  0
   -4.2698    3.7586    0.0000 O   0  0  0  0  0  0  0  0  0  0  0  0
   -6.0082    2.7549    0.0000 C   0  0  0  0  0  0  0  0  0  0  0  0
   -5.2500   -1.2990    0.0000 C   0  0  0  0  0  0  0  0  0  0  0  0
   -3.7500   -1.2990    0.0000 C   0  0  0  0  0  0  0  0  0  0  0  0
   -0.7500   -1.2990    0.0000 C   0  0  0  0  0  0  0  0  0  0  0  0
   -1.2135   -2.7256    0.0000 C   0  0  0  0  0  0  0  0  0  0  0  0
   -2.6401   -3.1891    0.0000 C   0  0  0  0  0  0  0  0  0  0  0  0
  1  2  1  0
  2  3  1  0
  3  4  1  0
  4  5  2  0
  5  6  1  0
  6  7  2  0
  7  8  1  0
  8  9  1  0
  9 10  1  0
 10 11  1  0
 11 12  1  0
 12 13  1  0
 13 14  2  0
 13 15  1  0
 15 16  1  0
 17 15  1  6
 17 18  1  0
 18 19  1  0
 19 20  1  0
 20 21  2  0
 20 22  2  0
 20 23  1  0
 12 24  1  0
 24 25  1  0
  8 26  2  0
 26 27  1  0
 27 28  1  0
 27  2  2  0
 26  4  1  0
 25  9  1  0
 23 17  1  0
M  END
>  <Compound_ID>  (101) 
C12784091

>  <Active>  (101) 
0

>  <Smiles>  (101) 
Cc1sc2ncnc(N3CCC(C(=O)N(C)[C@@H]4CCS(=O)(=O)C4)CC3)c2c1C

>  <canonical_smi>  (101) 
Cc1sc2ncnc(N3CCC(C(=O)N(C)[C@@H]4CCS(=O)(=O)C4)CC3)c2c1C

>  <Set>  (101) 
G2 inactive

>  <Set_type>  (101) 
Train

>  <MW>  (101) 
422.58

>  <HBD>  (101) 
0

>  <HBA>  (101) 
6

>  <NRB>  (101) 
3

>  <NR>  (101) 
4

>  <NAR>  (101) 
2

>  <PSA>  (101) 
83.47

>  <Standard Type>  (101) 
nan

>  <Standard Relation>  (101) 
nan

>  <Standard Units>  (101) 
nan

>  <Standard Value>  (101) 
nan

>  <Assay ChEMBL ID>  (101) 
nan

>  <Assay Description>  (101) 
nan

>  <BAO Label>  (101) 
nan

>  <bits>  (101) 
<rdkit.DataStructs.cDataStructs.ExplicitBitVect object at 0x00000210F8E69930>

>  <Group>  (101) 
G2

$$$$

     RDKit          2D

 22 27  0  0  0  0  0  0  0  0999 V2000
   -2.9414    2.5567    0.0000 O   0  0  0  0  0  0  0  0  0  0  0  0
   -2.3313    3.9271    0.0000 C   0  0  0  0  0  0  0  0  0  0  0  0
   -1.0323    3.1771    0.0000 C   0  0  0  0  0  0  0  0  0  0  0  0
   -0.4222    4.5474    0.0000 O   0  0  0  0  0  0  0  0  0  0  0  0
    0.3943    2.7135    0.0000 C   0  0  0  0  0  0  0  0  0  0  0  0
    0.3943    1.2135    0.0000 C   0  0  0  0  0  0  0  0  0  0  0  0
    1.2760    0.0000    0.0000 C   0  0  0  0  0  0  0  0  0  0  0  0
    0.3943   -1.2135    0.0000 C   0  0  0  0  0  0  0  0  0  0  0  0
   -1.0323   -0.7500    0.0000 C   0  0  0  0  0  0  0  0  0  0  0  0
   -2.5323   -0.7500    0.0000 C   0  0  0  0  0  0  0  0  0  0  0  0
   -2.9958    0.6766    0.0000 C   0  0  0  0  0  0  0  0  0  0  0  0
   -1.9140    1.9635    0.0000 C   0  0  0  0  0  0  0  0  0  0  0  0
   -1.0323    0.7500    0.0000 C   0  0  0  0  0  0  0  0  0  0  0  0
   -3.7579    4.3906    0.0000 C   0  0  0  0  0  0  0  0  0  0  0  0
   -3.7579    5.8906    0.0000 C   0  0  0  0  0  0  0  0  0  0  0  0
   -4.6396    7.1041    0.0000 C   0  0  0  0  0  0  0  0  0  0  0  0
   -3.7579    8.3176    0.0000 C   0  0  0  0  0  0  0  0  0  0  0  0
   -2.3313    7.8541    0.0000 C   0  0  0  0  0  0  0  0  0  0  0  0
   -0.8313    7.8541    0.0000 C   0  0  0  0  0  0  0  0  0  0  0  0
   -0.3678    6.4275    0.0000 C   0  0  0  0  0  0  0  0  0  0  0  0
   -1.4496    5.1406    0.0000 C   0  0  0  0  0  0  0  0  0  0  0  0
   -2.3313    6.3541    0.0000 C   0  0  0  0  0  0  0  0  0  0  0  0
  2  1  1  6
  2  3  1  0
  3  4  1  6
  3  5  1  0
  6  5  1  6
  6  7  1  0
  7  8  1  0
  9  8  1  1
  9 10  1  0
 10 11  1  0
 12 11  1  6
 12 13  1  0
  2 14  1  0
 15 14  1  6
 15 16  1  0
 16 17  1  0
 18 17  1  1
 18 19  1  0
 19 20  1  0
 21 20  1  6
 21 22  1  0
 21  2  1  0
 12  3  1  0
 22 15  1  6
 13  6  1  6
 22 18  1  0
 13  9  1  0
M  END
>  <Compound_ID>  (102) 
C43761873

>  <Active>  (102) 
0

>  <Smiles>  (102) 
O[C@]1([C@@]2(O)C[C@@H]3CC[C@H]4CC[C@H]2[C@@H]43)C[C@@H]2CC[C@H]3CC[C@H]1[C@@H]32

>  <canonical_smi>  (102) 
O[C@]1([C@@]2(O)C[C@@H]3CC[C@H]4CC[C@H]2[C@@H]43)C[C@@H]2CC[C@H]3CC[C@H]1[C@@H]32

>  <Set>  (102) 
G2 inactive

>  <Set_type>  (102) 
Train

>  <MW>  (102) 
302.46

>  <HBD>  (102) 
2

>  <HBA>  (102) 
2

>  <NRB>  (102) 
1

>  <NR>  (102) 
6

>  <NAR>  (102) 
0

>  <PSA>  (102) 
40.46

>  <Standard Type>  (102) 
nan

>  <Standard Relation>  (102) 
nan

>  <Standard Units>  (102) 
nan

>  <Standard Value>  (102) 
nan

>  <Assay ChEMBL ID>  (102) 
nan

>  <Assay Description>  (102) 
nan

>  <BAO Label>  (102) 
nan

>  <bits>  (102) 
<rdkit.DataStructs.cDataStructs.ExplicitBitVect object at 0x00000210F8E6BBC0>

>  <Group>  (102) 
G2

$$$$

     RDKit          2D

 16 17  0  0  0  0  0  0  0  0999 V2000
   -1.7455   -2.9392    0.0000 N   0  0  0  0  0  0  0  0  0  0  0  0
   -0.7418   -4.0539    0.0000 C   0  0  0  0  0  0  0  0  0  0  0  0
   -1.0537   -5.5211    0.0000 C   0  0  0  0  0  0  0  0  0  0  0  0
   -2.4240   -6.1312    0.0000 I   0  0  0  0  0  0  0  0  0  0  0  0
    0.2454   -6.2711    0.0000 C   0  0  0  0  0  0  0  0  0  0  0  0
    1.3601   -5.2674    0.0000 N   0  0  0  0  0  0  0  0  0  0  0  0
    0.7500   -3.8971    0.0000 N   0  0  0  0  0  0  0  0  0  0  0  0
    1.5000   -2.5981    0.0000 C   0  0  0  0  0  0  0  0  0  0  0  0
    0.7500   -1.2990    0.0000 C   0  0  0  0  0  0  0  0  0  0  0  0
    1.5000    0.0000    0.0000 C   0  0  0  0  0  0  0  0  0  0  0  0
    0.7500    1.2990    0.0000 C   0  0  0  0  0  0  0  0  0  0  0  0
   -0.7500    1.2990    0.0000 C   0  0  0  0  0  0  0  0  0  0  0  0
   -1.5000    2.5981    0.0000 Cl  0  0  0  0  0  0  0  0  0  0  0  0
   -1.5000    0.0000    0.0000 C   0  0  0  0  0  0  0  0  0  0  0  0
   -3.0000    0.0000    0.0000 Cl  0  0  0  0  0  0  0  0  0  0  0  0
   -0.7500   -1.2990    0.0000 C   0  0  0  0  0  0  0  0  0  0  0  0
  1  2  1  0
  2  3  2  0
  3  4  1  0
  3  5  1  0
  5  6  2  0
  6  7  1  0
  7  8  1  0
  8  9  1  0
  9 10  2  0
 10 11  1  0
 11 12  2  0
 12 13  1  0
 12 14  1  0
 14 15  1  0
 14 16  2  0
  7  2  1  0
 16  9  1  0
M  END
>  <Compound_ID>  (103) 
C43666545

>  <Active>  (103) 
0

>  <Smiles>  (103) 
Nc1c(I)cnn1Cc1ccc(Cl)c(Cl)c1

>  <canonical_smi>  (103) 
Nc1c(I)cnn1Cc1ccc(Cl)c(Cl)c1

>  <Set>  (103) 
G2 inactive

>  <Set_type>  (103) 
Train

>  <MW>  (103) 
368.0

>  <HBD>  (103) 
1

>  <HBA>  (103) 
2

>  <NRB>  (103) 
2

>  <NR>  (103) 
2

>  <NAR>  (103) 
2

>  <PSA>  (103) 
43.84

>  <Standard Type>  (103) 
nan

>  <Standard Relation>  (103) 
nan

>  <Standard Units>  (103) 
nan

>  <Standard Value>  (103) 
nan

>  <Assay ChEMBL ID>  (103) 
nan

>  <Assay Description>  (103) 
nan

>  <BAO Label>  (103) 
nan

>  <bits>  (103) 
<rdkit.DataStructs.cDataStructs.ExplicitBitVect object at 0x00000210F8E69230>

>  <Group>  (103) 
G2

$$$$

     RDKit          2D

 31 33  0  0  0  0  0  0  0  0999 V2000
   -5.0218   -4.2298    0.0000 C   0  0  0  0  0  0  0  0  0  0  0  0
   -3.8083   -3.3481    0.0000 C   0  0  0  0  0  0  0  0  0  0  0  0
   -2.3817   -3.8116    0.0000 C   0  0  0  0  0  0  0  0  0  0  0  0
   -1.9182   -5.2382    0.0000 C   0  0  0  0  0  0  0  0  0  0  0  0
   -0.4509   -5.5501    0.0000 O   0  0  0  0  0  0  0  0  0  0  0  0
   -2.9218   -6.3529    0.0000 O   0  0  0  0  0  0  0  0  0  0  0  0
   -2.4583   -7.7795    0.0000 C   0  0  0  0  0  0  0  0  0  0  0  0
   -3.8849   -8.2430    0.0000 C   0  0  0  0  0  0  0  0  0  0  0  0
   -0.9620   -7.6749    0.0000 C   0  0  0  0  0  0  0  0  0  0  0  0
   -1.9948   -9.2061    0.0000 C   0  0  0  0  0  0  0  0  0  0  0  0
   -1.5000   -2.5981    0.0000 C   0  0  0  0  0  0  0  0  0  0  0  0
   -2.3817   -1.3846    0.0000 C   0  0  0  0  0  0  0  0  0  0  0  0
   -2.2771    0.1118    0.0000 O   0  0  0  0  0  0  0  0  0  0  0  0
   -3.8083   -1.8481    0.0000 O   0  0  0  0  0  0  0  0  0  0  0  0
   -0.7500   -3.8971    0.0000 C   0  0  0  0  0  0  0  0  0  0  0  0
   -1.5000   -5.1962    0.0000 C   0  0  0  0  0  0  0  0  0  0  0  0
   -3.0000   -5.1962    0.0000 O   0  0  0  0  0  0  0  0  0  0  0  0
   -0.7500   -6.4952    0.0000 O   0  0  0  0  0  0  0  0  0  0  0  0
   -1.5000   -7.7942    0.0000 C   0  0  0  0  0  0  0  0  0  0  0  0
   -0.7500   -9.0933    0.0000 C   0  0  0  0  0  0  0  0  0  0  0  0
   -2.9554   -8.1572    0.0000 C   0  0  0  0  0  0  0  0  0  0  0  0
    0.7500   -3.8971    0.0000 C   0  0  0  0  0  0  0  0  0  0  0  0
    1.5000   -5.1962    0.0000 N   0  0  0  0  0  0  0  0  0  0  0  0
    1.5000   -2.5981    0.0000 N   0  0  0  0  0  0  0  0  0  0  0  0
    0.7500   -1.2990    0.0000 C   0  0  0  0  0  0  0  0  0  0  0  0
    1.5000    0.0000    0.0000 C   0  0  0  0  0  0  0  0  0  0  0  0
    0.7500    1.2990    0.0000 C   0  0  0  0  0  0  0  0  0  0  0  0
   -0.7500    1.2990    0.0000 C   0  0  0  0  0  0  0  0  0  0  0  0
   -1.5000    2.5981    0.0000 Br  0  0  0  0  0  0  0  0  0  0  0  0
   -1.5000    0.0000    0.0000 C   0  0  0  0  0  0  0  0  0  0  0  0
   -0.7500   -1.2990    0.0000 C   0  0  0  0  0  0  0  0  0  0  0  0
  1  2  1  0
  2  3  2  0
  3  4  1  0
  4  5  2  0
  4  6  1  0
  6  7  1  0
  7  8  1  0
  7  9  1  0
  7 10  1  0
 11  3  1  1
 11 12  1  0
 12 13  2  0
 12 14  1  0
 11 15  1  0
 15 16  1  0
 16 17  2  0
 16 18  1  0
 18 19  1  0
 19 20  1  0
 19 21  1  0
 15 22  2  0
 22 23  1  0
 22 24  1  0
 24 25  1  0
 25 26  2  0
 26 27  1  0
 27 28  2  0
 28 29  1  0
 28 30  1  0
 30 31  2  0
 14  2  1  0
 31 25  1  0
 31 11  1  0
M  END
>  <Compound_ID>  (104) 
C20568989

>  <Active>  (104) 
0

>  <Smiles>  (104) 
CC1=C(C(=O)OC(C)(C)C)[C@]2(C(=O)O1)C(C(=O)OC(C)C)=C(N)Nc1ccc(Br)cc12

>  <canonical_smi>  (104) 
CC1=C(C(=O)OC(C)(C)C)[C@]2(C(=O)O1)C(C(=O)OC(C)C)=C(N)Nc1ccc(Br)cc12

>  <Set>  (104) 
G2 inactive

>  <Set_type>  (104) 
Train

>  <MW>  (104) 
493.35

>  <HBD>  (104) 
2

>  <HBA>  (104) 
8

>  <NRB>  (104) 
3

>  <NR>  (104) 
3

>  <NAR>  (104) 
1

>  <PSA>  (104) 
116.95

>  <Standard Type>  (104) 
nan

>  <Standard Relation>  (104) 
nan

>  <Standard Units>  (104) 
nan

>  <Standard Value>  (104) 
nan

>  <Assay ChEMBL ID>  (104) 
nan

>  <Assay Description>  (104) 
nan

>  <BAO Label>  (104) 
nan

>  <bits>  (104) 
<rdkit.DataStructs.cDataStructs.ExplicitBitVect object at 0x00000210F8E6BAE0>

>  <Group>  (104) 
G2

$$$$

     RDKit          2D

 19 21  0  0  0  0  0  0  0  0999 V2000
    3.0000    0.0000    0.0000 C   0  0  0  0  0  0  0  0  0  0  0  0
    1.5000    0.0000    0.0000 C   0  0  0  0  0  0  0  0  0  0  0  0
    0.7500   -1.2990    0.0000 C   0  0  0  0  0  0  0  0  0  0  0  0
   -0.7500   -1.2990    0.0000 C   0  0  0  0  0  0  0  0  0  0  0  0
   -1.5000    0.0000    0.0000 C   0  0  0  0  0  0  0  0  0  0  0  0
   -0.7500    1.2990    0.0000 C   0  0  0  0  0  0  0  0  0  0  0  0
   -1.5000    2.5981    0.0000 S   0  0  0  0  0  1  0  0  0  0  0  0
    0.7500    1.2990    0.0000 N   0  0  0  0  0  0  0  0  0  0  0  0
   -2.9672   -0.3119    0.0000 C   0  0  0  0  0  0  0  0  0  0  0  0
   -4.0819    0.6918    0.0000 O   0  0  0  0  0  0  0  0  0  0  0  0
   -3.1240   -1.8037    0.0000 O   0  0  0  0  0  0  0  0  0  0  0  0
   -1.7537   -2.4138    0.0000 C   0  0  0  0  0  0  0  0  0  0  0  0
   -1.4418   -3.8810    0.0000 C   0  0  0  0  0  0  0  0  0  0  0  0
   -2.5565   -4.8847    0.0000 C   0  0  0  0  0  0  0  0  0  0  0  0
   -2.3998   -6.3765    0.0000 C   0  0  0  0  0  0  0  0  0  0  0  0
   -3.7701   -6.9866    0.0000 C   0  0  0  0  0  0  0  0  0  0  0  0
   -4.7738   -5.8718    0.0000 C   0  0  0  0  0  0  0  0  0  0  0  0
   -6.2655   -6.0286    0.0000 Br  0  0  0  0  0  0  0  0  0  0  0  0
   -4.0238   -4.5728    0.0000 O   0  0  0  0  0  0  0  0  0  0  0  0
  1  2  1  0
  2  3  2  0
  3  4  1  0
  4  5  2  0
  5  6  1  0
  6  7  1  0
  6  8  2  0
  5  9  1  0
  9 10  2  0
  9 11  1  0
 11 12  1  0
 12 13  2  0
 13 14  1  0
 14 15  2  0
 15 16  1  0
 16 17  2  0
 17 18  1  0
 17 19  1  0
  8  2  1  0
 19 14  1  0
 12  4  1  0
M  CHG  1   7  -1
M  END
>  <Compound_ID>  (105) 
C34132147

>  <Active>  (105) 
0

>  <Smiles>  (105) 
Cc1cc2c(c([S-])n1)C(=O)O/C2=C\c1ccc(Br)o1

>  <canonical_smi>  (105) 
Cc1cc2c(c([S-])n1)C(=O)O/C2=C\c1ccc(Br)o1

>  <Set>  (105) 
G2 inactive

>  <Set_type>  (105) 
Train

>  <MW>  (105) 
337.17

>  <HBD>  (105) 
0

>  <HBA>  (105) 
5

>  <NRB>  (105) 
1

>  <NR>  (105) 
3

>  <NAR>  (105) 
2

>  <PSA>  (105) 
52.33

>  <Standard Type>  (105) 
nan

>  <Standard Relation>  (105) 
nan

>  <Standard Units>  (105) 
nan

>  <Standard Value>  (105) 
nan

>  <Assay ChEMBL ID>  (105) 
nan

>  <Assay Description>  (105) 
nan

>  <BAO Label>  (105) 
nan

>  <bits>  (105) 
<rdkit.DataStructs.cDataStructs.ExplicitBitVect object at 0x00000210F8E6BE60>

>  <Group>  (105) 
G2

$$$$

     RDKit          2D

 19 20  0  0  0  0  0  0  0  0999 V2000
   -5.2500   -6.4952    0.0000 C   0  0  0  0  0  0  0  0  0  0  0  0
   -3.7500   -6.4952    0.0000 C   0  0  0  0  0  0  0  0  0  0  0  0
   -3.0000   -5.1962    0.0000 C   0  0  0  0  0  0  0  0  0  0  0  0
   -1.5000   -5.1962    0.0000 S   0  0  0  0  0  0  0  0  0  0  0  0
   -0.7500   -3.8971    0.0000 C   0  0  0  0  0  0  0  0  0  0  0  0
    0.7500   -3.8971    0.0000 N   0  0  0  0  0  0  0  0  0  0  0  0
    1.5000   -2.5981    0.0000 S   0  0  0  0  0  0  0  0  0  0  0  0
    2.6491   -3.5623    0.0000 O   0  0  0  0  0  0  0  0  0  0  0  0
    2.6491   -1.6339    0.0000 O   0  0  0  0  0  0  0  0  0  0  0  0
    0.7500   -1.2990    0.0000 C   0  0  0  0  0  0  0  0  0  0  0  0
    1.5000    0.0000    0.0000 C   0  0  0  0  0  0  0  0  0  0  0  0
    0.7500    1.2990    0.0000 C   0  0  0  0  0  0  0  0  0  0  0  0
    1.5000    2.5981    0.0000 C   0  0  0  0  0  0  0  0  0  0  0  0
    3.0000    2.5981    0.0000 C   0  0  0  0  0  0  0  0  0  0  0  0
    0.7500    3.8971    0.0000 C   0  0  0  0  0  0  0  0  0  0  0  0
   -0.7500    1.2990    0.0000 C   0  0  0  0  0  0  0  0  0  0  0  0
   -1.5000    0.0000    0.0000 C   0  0  0  0  0  0  0  0  0  0  0  0
   -0.7500   -1.2990    0.0000 C   0  0  0  0  0  0  0  0  0  0  0  0
   -1.5000   -2.5981    0.0000 N   0  0  0  0  0  2  0  0  0  0  0  0
  1  2  2  0
  2  3  1  0
  3  4  1  0
  4  5  1  0
  5  6  2  0
  6  7  1  0
  7  8  2  0
  7  9  2  0
  7 10  1  0
 10 11  2  0
 11 12  1  0
 12 13  1  0
 13 14  1  0
 13 15  1  0
 12 16  2  0
 16 17  1  0
 17 18  2  0
 18 19  1  0
 19  5  1  0
 18 10  1  0
M  CHG  1  19  -1
M  END
>  <Compound_ID>  (106) 
C62326404

>  <Active>  (106) 
0

>  <Smiles>  (106) 
C=CCSC1=NS(=O)(=O)c2cc(C(C)C)ccc2[N-]1

>  <canonical_smi>  (106) 
C=CCSC1=NS(=O)(=O)c2cc(C(C)C)ccc2[N-]1

>  <Set>  (106) 
G2 inactive

>  <Set_type>  (106) 
Train

>  <MW>  (106) 
295.41

>  <HBD>  (106) 
0

>  <HBA>  (106) 
3

>  <NRB>  (106) 
3

>  <NR>  (106) 
2

>  <NAR>  (106) 
1

>  <PSA>  (106) 
60.6

>  <Standard Type>  (106) 
nan

>  <Standard Relation>  (106) 
nan

>  <Standard Units>  (106) 
nan

>  <Standard Value>  (106) 
nan

>  <Assay ChEMBL ID>  (106) 
nan

>  <Assay Description>  (106) 
nan

>  <BAO Label>  (106) 
nan

>  <bits>  (106) 
<rdkit.DataStructs.cDataStructs.ExplicitBitVect object at 0x00000210F8E69CB0>

>  <Group>  (106) 
G2

$$$$

     RDKit          2D

 34 38  0  0  0  0  0  0  0  0999 V2000
    3.0000    0.0000    0.0000 C   0  0  0  0  0  0  0  0  0  0  0  0
    1.5000    0.0000    0.0000 C   0  0  0  0  0  0  0  0  0  0  0  0
    0.7500   -1.2990    0.0000 C   0  0  0  0  0  0  0  0  0  0  0  0
   -0.7500   -1.2990    0.0000 C   0  0  0  0  0  0  0  0  0  0  0  0
   -1.5000    0.0000    0.0000 C   0  0  0  0  0  0  0  0  0  0  0  0
   -0.7500    1.2990    0.0000 N   0  0  0  0  0  0  0  0  0  0  0  0
    0.7500    1.2990    0.0000 C   0  0  0  0  0  0  0  0  0  0  0  0
    1.5000    2.5981    0.0000 N   0  0  0  0  0  0  0  0  0  0  0  0
    0.7500    3.8971    0.0000 C   0  0  0  0  0  0  0  0  0  0  0  0
    1.5000    5.1962    0.0000 N   0  0  0  0  0  4  0  0  0  0  0  0
    0.7500    6.4952    0.0000 C   0  0  0  0  0  0  0  0  0  0  0  0
   -0.7500    6.4952    0.0000 N   0  0  0  0  0  0  0  0  0  0  0  0
   -1.5000    5.1962    0.0000 C   0  0  0  0  0  0  0  0  0  0  0  0
   -3.0000    5.1962    0.0000 N   0  0  0  0  0  0  0  0  0  0  0  0
   -3.7500    6.4952    0.0000 C   0  0  0  0  0  0  0  0  0  0  0  0
   -5.2500    6.4952    0.0000 C   0  0  0  0  0  0  0  0  0  0  0  0
   -6.0000    5.1962    0.0000 N   0  0  0  0  0  0  0  0  0  0  0  0
   -7.5000    5.1962    0.0000 C   0  0  0  0  0  0  0  0  0  0  0  0
   -8.2500    6.4952    0.0000 C   0  0  0  0  0  0  0  0  0  0  0  0
   -7.5000    7.7942    0.0000 C   0  0  0  0  0  0  0  0  0  0  0  0
   -8.2500    9.0933    0.0000 C   0  0  0  0  0  0  0  0  0  0  0  0
   -9.7500    9.0933    0.0000 C   0  0  0  0  0  0  0  0  0  0  0  0
  -10.5000    7.7942    0.0000 C   0  0  0  0  0  0  0  0  0  0  0  0
   -9.7500    6.4952    0.0000 C   0  0  0  0  0  0  0  0  0  0  0  0
   -8.2500    3.8971    0.0000 C   0  0  0  0  0  0  0  0  0  0  0  0
   -9.7500    3.8971    0.0000 C   0  0  0  0  0  0  0  0  0  0  0  0
  -10.5000    2.5981    0.0000 C   0  0  0  0  0  0  0  0  0  0  0  0
   -9.7500    1.2990    0.0000 C   0  0  0  0  0  0  0  0  0  0  0  0
   -8.2500    1.2990    0.0000 C   0  0  0  0  0  0  0  0  0  0  0  0
   -7.5000    2.5981    0.0000 C   0  0  0  0  0  0  0  0  0  0  0  0
   -5.2500    3.8971    0.0000 C   0  0  0  0  0  0  0  0  0  0  0  0
   -3.7500    3.8971    0.0000 C   0  0  0  0  0  0  0  0  0  0  0  0
   -0.7500    3.8971    0.0000 C   0  0  0  0  0  0  0  0  0  0  0  0
   -1.5000    2.5981    0.0000 N   0  0  0  0  0  0  0  0  0  0  0  0
  1  2  1  0
  2  3  2  0
  3  4  1  0
  4  5  2  0
  5  6  1  0
  6  7  2  0
  7  8  1  0
  8  9  1  0
  9 10  2  0
 10 11  1  0
 11 12  2  0
 12 13  1  0
 13 14  1  0
 14 15  1  0
 15 16  1  0
 16 17  1  0
 17 18  1  0
 18 19  1  0
 19 20  2  0
 20 21  1  0
 21 22  2  0
 22 23  1  0
 23 24  2  0
 18 25  1  0
 25 26  2  0
 26 27  1  0
 27 28  2  0
 28 29  1  0
 29 30  2  0
 17 31  1  0
 31 32  1  0
 13 33  2  0
 33 34  1  0
  7  2  1  0
 33  9  1  0
 32 14  1  0
 24 19  1  0
 30 25  1  0
M  CHG  1  10   1
M  END
>  <Compound_ID>  (107) 
C40729749

>  <Active>  (107) 
0

>  <Smiles>  (107) 
Cc1cccnc1Nc1[nH+]cnc(N2CCN(C(c3ccccc3)c3ccccc3)CC2)c1N

>  <canonical_smi>  (107) 
Cc1cccnc1Nc1[nH+]cnc(N2CCN(C(c3ccccc3)c3ccccc3)CC2)c1N

>  <Set>  (107) 
G2 inactive

>  <Set_type>  (107) 
Train

>  <MW>  (107) 
452.59

>  <HBD>  (107) 
2

>  <HBA>  (107) 
6

>  <NRB>  (107) 
6

>  <NR>  (107) 
5

>  <NAR>  (107) 
4

>  <PSA>  (107) 
84.45

>  <Standard Type>  (107) 
nan

>  <Standard Relation>  (107) 
nan

>  <Standard Units>  (107) 
nan

>  <Standard Value>  (107) 
nan

>  <Assay ChEMBL ID>  (107) 
nan

>  <Assay Description>  (107) 
nan

>  <BAO Label>  (107) 
nan

>  <bits>  (107) 
<rdkit.DataStructs.cDataStructs.ExplicitBitVect object at 0x00000210F8E693F0>

>  <Group>  (107) 
G2

$$$$

     RDKit          2D

 15 17  0  0  0  0  0  0  0  0999 V2000
   -4.8181    7.5646    0.0000 Cl  0  0  0  0  0  0  0  0  0  0  0  0
   -4.6613    6.0728    0.0000 C   0  0  0  0  0  0  0  0  0  0  0  0
   -3.2910    5.4627    0.0000 C   0  0  0  0  0  0  0  0  0  0  0  0
   -3.1342    3.9709    0.0000 C   0  0  0  0  0  0  0  0  0  0  0  0
   -4.2489    2.9672    0.0000 N   0  0  0  0  0  0  0  0  0  0  0  0
   -3.6388    1.5969    0.0000 O   0  0  0  0  0  0  0  0  0  0  0  0
   -2.1470    1.7537    0.0000 C   0  0  0  0  0  0  0  0  0  0  0  0
   -1.0323    0.7500    0.0000 C   0  0  0  0  0  0  0  0  0  0  0  0
    0.3943    1.2135    0.0000 C   0  0  0  0  0  0  0  0  0  0  0  0
    0.7062    2.6807    0.0000 C   0  0  0  0  0  0  0  0  0  0  0  0
   -0.4086    3.6844    0.0000 C   0  0  0  0  0  0  0  0  0  0  0  0
   -1.8351    3.2209    0.0000 C   0  0  0  0  0  0  0  0  0  0  0  0
    1.2760    0.0000    0.0000 O   0  0  0  0  0  0  0  0  0  0  0  0
    0.3943   -1.2135    0.0000 C   0  0  0  0  0  0  0  0  0  0  0  0
   -1.0323   -0.7500    0.0000 O   0  0  0  0  0  0  0  0  0  0  0  0
  1  2  1  0
  2  3  1  0
  3  4  1  0
  4  5  2  0
  5  6  1  0
  6  7  1  0
  7  8  2  0
  8  9  1  0
  9 10  2  0
 10 11  1  0
 11 12  2  0
  9 13  1  0
 13 14  1  0
 14 15  1  0
 12  4  1  0
 12  7  1  0
 15  8  1  0
M  END
>  <Compound_ID>  (108) 
C31888135

>  <Active>  (108) 
0

>  <Smiles>  (108) 
ClCCc1noc2c3c(ccc12)OCO3

>  <canonical_smi>  (108) 
ClCCc1noc2c3c(ccc12)OCO3

>  <Set>  (108) 
G2 inactive

>  <Set_type>  (108) 
Train

>  <MW>  (108) 
225.63

>  <HBD>  (108) 
0

>  <HBA>  (108) 
4

>  <NRB>  (108) 
2

>  <NR>  (108) 
3

>  <NAR>  (108) 
2

>  <PSA>  (108) 
44.49

>  <Standard Type>  (108) 
nan

>  <Standard Relation>  (108) 
nan

>  <Standard Units>  (108) 
nan

>  <Standard Value>  (108) 
nan

>  <Assay ChEMBL ID>  (108) 
nan

>  <Assay Description>  (108) 
nan

>  <BAO Label>  (108) 
nan

>  <bits>  (108) 
<rdkit.DataStructs.cDataStructs.ExplicitBitVect object at 0x00000210F8E689E0>

>  <Group>  (108) 
G2

$$$$

     RDKit          2D

 14 15  0  0  0  0  0  0  0  0999 V2000
    0.4775   -7.0740    0.0000 C   0  0  0  0  0  0  0  0  0  0  0  0
    1.8478   -6.4639    0.0000 S   0  0  0  0  0  0  0  0  0  0  0  0
    2.0046   -4.9721    0.0000 C   0  0  0  0  0  0  0  0  0  0  0  0
    3.3037   -4.2221    0.0000 N   0  0  0  0  0  0  0  0  0  0  0  0
    2.9918   -2.7549    0.0000 N   0  0  0  0  0  0  0  0  0  0  0  0
    1.5000   -2.5981    0.0000 C   0  0  0  0  0  0  0  0  0  0  0  0
    0.7500   -1.2990    0.0000 C   0  0  0  0  0  0  0  0  0  0  0  0
    1.5000    0.0000    0.0000 C   0  0  0  0  0  0  0  0  0  0  0  0
    0.7500    1.2990    0.0000 N   0  0  0  0  0  0  0  0  0  0  0  0
   -0.7500    1.2990    0.0000 C   0  0  0  0  0  0  0  0  0  0  0  0
   -1.5000    0.0000    0.0000 C   0  0  0  0  0  0  0  0  0  0  0  0
   -3.0000    0.0000    0.0000 Cl  0  0  0  0  0  0  0  0  0  0  0  0
   -0.7500   -1.2990    0.0000 N   0  0  0  0  0  0  0  0  0  0  0  0
    0.8899   -3.9684    0.0000 S   0  0  0  0  0  0  0  0  0  0  0  0
  1  2  1  0
  2  3  1  0
  3  4  2  0
  4  5  1  0
  5  6  2  0
  6  7  1  0
  7  8  2  0
  8  9  1  0
  9 10  2  0
 10 11  1  0
 11 12  1  0
 11 13  2  0
  6 14  1  0
 14  3  1  0
 13  7  1  0
M  END
>  <Compound_ID>  (109) 
C44548985

>  <Active>  (109) 
0

>  <Smiles>  (109) 
CSc1nnc(-c2cncc(Cl)n2)s1

>  <canonical_smi>  (109) 
CSc1nnc(-c2cncc(Cl)n2)s1

>  <Set>  (109) 
G2 inactive

>  <Set_type>  (109) 
Train

>  <MW>  (109) 
244.73

>  <HBD>  (109) 
0

>  <HBA>  (109) 
5

>  <NRB>  (109) 
2

>  <NR>  (109) 
2

>  <NAR>  (109) 
2

>  <PSA>  (109) 
51.56

>  <Standard Type>  (109) 
nan

>  <Standard Relation>  (109) 
nan

>  <Standard Units>  (109) 
nan

>  <Standard Value>  (109) 
nan

>  <Assay ChEMBL ID>  (109) 
nan

>  <Assay Description>  (109) 
nan

>  <BAO Label>  (109) 
nan

>  <bits>  (109) 
<rdkit.DataStructs.cDataStructs.ExplicitBitVect object at 0x00000210F8E68B30>

>  <Group>  (109) 
G2

$$$$

     RDKit          2D

 22 21  0  0  0  0  0  0  0  0999 V2000
   -9.0000   -7.7942    0.0000 C   0  0  0  0  0  0  0  0  0  0  0  0
   -9.7500   -6.4952    0.0000 C   0  0  0  0  0  0  0  0  0  0  0  0
   -9.0000   -5.1962    0.0000 C   0  0  0  0  0  0  0  0  0  0  0  0
   -7.5000   -5.1962    0.0000 C   0  0  0  0  0  0  0  0  0  0  0  0
   -6.7500   -3.8971    0.0000 C   0  0  0  0  0  0  0  0  0  0  0  0
   -5.2500   -3.8971    0.0000 C   0  0  0  0  0  0  0  0  0  0  0  0
   -4.5000   -2.5981    0.0000 C   0  0  0  0  0  0  0  0  0  0  0  0
   -3.0000   -2.5981    0.0000 C   0  0  0  0  0  0  0  0  0  0  0  0
   -2.2500   -1.2990    0.0000 C   0  0  0  0  0  0  0  0  0  0  0  0
   -0.7500   -1.2990    0.0000 C   0  0  0  0  0  0  0  0  0  0  0  0
    0.0000    0.0000    0.0000 C   0  0  0  0  0  0  0  0  0  0  0  0
   -0.7500    1.2990    0.0000 C   0  0  0  0  0  0  0  0  0  0  0  0
    1.5000    0.0000    0.0000 N   0  0  0  0  0  0  0  0  0  0  0  0
    2.2500   -1.2990    0.0000 N   0  0  0  0  0  0  0  0  0  0  0  0
    3.7500   -1.2990    0.0000 C   0  0  0  0  0  0  0  0  0  0  0  0
    4.5000   -2.5981    0.0000 N   0  0  0  0  0  0  0  0  0  0  0  0
    4.5000    0.0000    0.0000 S   0  0  0  0  0  0  0  0  0  0  0  0
  -11.2500   -6.4952    0.0000 N   0  0  0  0  0  0  0  0  0  0  0  0
  -12.0000   -5.1962    0.0000 N   0  0  0  0  0  0  0  0  0  0  0  0
  -13.5000   -5.1962    0.0000 C   0  0  0  0  0  0  0  0  0  0  0  0
  -14.2500   -3.8971    0.0000 N   0  0  0  0  0  0  0  0  0  0  0  0
  -14.2500   -6.4952    0.0000 S   0  0  0  0  0  0  0  0  0  0  0  0
  1  2  1  0
  2  3  1  0
  3  4  1  0
  4  5  1  0
  5  6  1  0
  6  7  1  0
  7  8  1  0
  8  9  1  0
  9 10  1  0
 10 11  1  0
 11 12  1  0
 11 13  2  0
 13 14  1  0
 14 15  1  0
 15 16  1  0
 15 17  2  0
  2 18  2  0
 18 19  1  0
 19 20  1  0
 20 21  1  0
 20 22  2  0
M  END
>  <Compound_ID>  (110) 
C17376146

>  <Active>  (110) 
0

>  <Smiles>  (110) 
C/C(CCCCCCCC/C(C)=N\NC(N)=S)=N/NC(N)=S

>  <canonical_smi>  (110) 
C/C(CCCCCCCC/C(C)=N\NC(N)=S)=N/NC(N)=S

>  <Set>  (110) 
G2 inactive

>  <Set_type>  (110) 
Train

>  <MW>  (110) 
344.55

>  <HBD>  (110) 
4

>  <HBA>  (110) 
6

>  <NRB>  (110) 
11

>  <NR>  (110) 
0

>  <NAR>  (110) 
0

>  <PSA>  (110) 
100.82

>  <Standard Type>  (110) 
nan

>  <Standard Relation>  (110) 
nan

>  <Standard Units>  (110) 
nan

>  <Standard Value>  (110) 
nan

>  <Assay ChEMBL ID>  (110) 
nan

>  <Assay Description>  (110) 
nan

>  <BAO Label>  (110) 
nan

>  <bits>  (110) 
<rdkit.DataStructs.cDataStructs.ExplicitBitVect object at 0x00000210F8E68F20>

>  <Group>  (110) 
G2

$$$$

     RDKit          2D

 23 24  0  0  0  0  0  0  0  0999 V2000
    7.5000   -2.5981    0.0000 C   0  0  0  0  0  0  0  0  0  0  0  0
    6.0000   -2.5981    0.0000 N   0  0  0  0  0  0  0  0  0  0  0  0
    5.2500   -1.2990    0.0000 C   0  0  0  0  0  0  0  0  0  0  0  0
    6.0000    0.0000    0.0000 N   0  0  0  0  0  0  0  0  0  0  0  0
    7.5000    0.0000    0.0000 C   0  0  0  0  0  0  0  0  0  0  0  0
    9.0000    0.0000    0.0000 N   0  0  0  0  0  0  0  0  0  0  0  0
    3.7500   -1.2990    0.0000 N   0  0  0  0  0  0  0  0  0  0  0  0
    3.0000    0.0000    0.0000 C   0  0  0  0  0  0  0  0  0  0  0  0
    1.5000    0.0000    0.0000 C   0  0  0  0  0  0  0  0  0  0  0  0
    0.7500   -1.2990    0.0000 C   0  0  0  0  0  0  0  0  0  0  0  0
   -0.7500   -1.2990    0.0000 C   0  0  0  0  0  0  0  0  0  0  0  0
   -1.5000    0.0000    0.0000 C   0  0  0  0  0  0  0  0  0  0  0  0
   -0.7500    1.2990    0.0000 C   0  0  0  0  0  0  0  0  0  0  0  0
   -1.5000    2.5981    0.0000 C   0  0  0  0  0  0  0  0  0  0  0  0
   -2.9918    2.7549    0.0000 C   0  0  0  0  0  0  0  0  0  0  0  0
   -3.3037    4.2221    0.0000 S   0  0  0  0  0  0  0  0  0  0  0  0
   -2.0046    4.9721    0.0000 C   0  0  0  0  0  0  0  0  0  0  0  0
   -1.8478    6.4639    0.0000 N   0  0  0  0  0  0  0  0  0  0  0  0
   -0.4775    7.0740    0.0000 C   0  0  0  0  0  0  0  0  0  0  0  0
   -0.3207    8.5658    0.0000 N   0  0  0  0  0  0  0  0  0  0  0  0
    0.7360    6.1923    0.0000 N   0  0  0  0  0  0  0  0  0  0  0  0
   -0.8899    3.9684    0.0000 N   0  0  0  0  0  0  0  0  0  0  0  0
    0.7500    1.2990    0.0000 N   0  0  0  0  0  0  0  0  0  0  0  0
  1  2  1  0
  2  3  2  0
  3  4  1  0
  4  5  1  0
  5  6  3  0
  3  7  1  0
  7  8  1  0
  8  9  1  0
  9 10  2  0
 10 11  1  0
 11 12  2  0
 12 13  1  0
 13 14  1  0
 14 15  2  0
 15 16  1  0
 16 17  1  0
 17 18  1  0
 18 19  2  0
 19 20  1  0
 19 21  1  0
 17 22  2  0
 13 23  2  0
 23  9  1  0
 22 14  1  0
M  END
>  <Compound_ID>  (111) 
C13600823

>  <Active>  (111) 
0

>  <Smiles>  (111) 
C/N=C(\NC#N)NCc1cccc(-c2csc(N=C(N)N)n2)n1

>  <canonical_smi>  (111) 
C/N=C(\NC#N)NCc1cccc(-c2csc(N=C(N)N)n2)n1

>  <Set>  (111) 
G2 inactive

>  <Set_type>  (111) 
Train

>  <MW>  (111) 
329.39

>  <HBD>  (111) 
4

>  <HBA>  (111) 
7

>  <NRB>  (111) 
4

>  <NR>  (111) 
2

>  <NAR>  (111) 
2

>  <PSA>  (111) 
150.39

>  <Standard Type>  (111) 
nan

>  <Standard Relation>  (111) 
nan

>  <Standard Units>  (111) 
nan

>  <Standard Value>  (111) 
nan

>  <Assay ChEMBL ID>  (111) 
nan

>  <Assay Description>  (111) 
nan

>  <BAO Label>  (111) 
nan

>  <bits>  (111) 
<rdkit.DataStructs.cDataStructs.ExplicitBitVect object at 0x00000210F8E69EE0>

>  <Group>  (111) 
G2

$$$$

     RDKit          2D

 25 25  0  0  0  0  0  0  0  0999 V2000
    6.0000   -2.5981    0.0000 C   0  0  0  0  0  0  0  0  0  0  0  0
    5.2500   -1.2990    0.0000 C   0  0  0  0  0  0  0  0  0  0  0  0
    6.0000    0.0000    0.0000 N   0  0  0  0  0  0  0  0  0  0  0  0
    7.5000   -0.0000    0.0000 C   0  0  0  0  0  0  0  0  0  0  0  0
    8.2500   -1.2990    0.0000 O   0  0  0  0  0  0  0  0  0  0  0  0
    8.2500    1.2990    0.0000 C   0  0  0  0  0  0  0  0  0  0  0  0
    9.7500    1.2990    0.0000 C   0  0  0  0  0  0  0  0  0  0  0  0
    7.5000    2.5981    0.0000 N   0  0  0  0  0  0  0  0  0  0  0  0
    8.2500    3.8971    0.0000 C   0  0  0  0  0  0  0  0  0  0  0  0
    9.7500    3.8971    0.0000 O   0  0  0  0  0  0  0  0  0  0  0  0
    7.5000    5.1962    0.0000 C   0  0  0  0  0  0  0  0  0  0  0  0
    8.2500    6.4952    0.0000 C   0  0  0  0  0  0  0  0  0  0  0  0
    6.0000    5.1962    0.0000 N   0  0  0  0  0  4  0  0  0  0  0  0
    3.7500   -1.2990    0.0000 C   0  0  0  0  0  0  0  0  0  0  0  0
    3.0000   -2.5981    0.0000 O   0  0  0  0  0  0  0  0  0  0  0  0
    3.0000    0.0000    0.0000 N   0  0  0  0  0  0  0  0  0  0  0  0
    1.5000    0.0000    0.0000 C   0  0  0  0  0  0  0  0  0  0  0  0
    0.7500   -1.2990    0.0000 C   0  0  0  0  0  0  0  0  0  0  0  0
   -0.7500   -1.2990    0.0000 C   0  0  0  0  0  0  0  0  0  0  0  0
   -1.5000    0.0000    0.0000 C   0  0  0  0  0  0  0  0  0  0  0  0
   -3.0000    0.0000    0.0000 N   0  0  0  0  0  4  0  0  0  0  0  0
   -3.7500   -1.2990    0.0000 O   0  0  0  0  0  0  0  0  0  0  0  0
   -3.7500    1.2990    0.0000 O   0  0  0  0  0  1  0  0  0  0  0  0
   -0.7500    1.2990    0.0000 C   0  0  0  0  0  0  0  0  0  0  0  0
    0.7500    1.2990    0.0000 C   0  0  0  0  0  0  0  0  0  0  0  0
  2  1  1  1
  2  3  1  0
  3  4  1  0
  4  5  2  0
  4  6  1  0
  6  7  1  6
  6  8  1  0
  8  9  1  0
  9 10  2  0
  9 11  1  0
 11 12  1  6
 11 13  1  0
  2 14  1  0
 14 15  2  0
 14 16  1  0
 16 17  1  0
 17 18  2  0
 18 19  1  0
 19 20  2  0
 20 21  1  0
 21 22  2  0
 21 23  1  0
 20 24  1  0
 24 25  2  0
 25 17  1  0
M  CHG  3  13   1  21   1  23  -1
M  END
>  <Compound_ID>  (112) 
C04533779

>  <Active>  (112) 
0

>  <Smiles>  (112) 
C[C@H](NC(=O)[C@@H](C)NC(=O)[C@@H](C)[NH3+])C(=O)Nc1ccc([N+](=O)[O-])cc1

>  <canonical_smi>  (112) 
C[C@H](NC(=O)[C@@H](C)NC(=O)[C@@H](C)[NH3+])C(=O)Nc1ccc([N+](=O)[O-])cc1

>  <Set>  (112) 
G2 inactive

>  <Set_type>  (112) 
Train

>  <MW>  (112) 
352.37

>  <HBD>  (112) 
4

>  <HBA>  (112) 
5

>  <NRB>  (112) 
7

>  <NR>  (112) 
1

>  <NAR>  (112) 
1

>  <PSA>  (112) 
158.08

>  <Standard Type>  (112) 
nan

>  <Standard Relation>  (112) 
nan

>  <Standard Units>  (112) 
nan

>  <Standard Value>  (112) 
nan

>  <Assay ChEMBL ID>  (112) 
nan

>  <Assay Description>  (112) 
nan

>  <BAO Label>  (112) 
nan

>  <bits>  (112) 
<rdkit.DataStructs.cDataStructs.ExplicitBitVect object at 0x00000210F8E6A0A0>

>  <Group>  (112) 
G2

$$$$

     RDKit          2D

 28 30  0  0  0  0  0  0  0  0999 V2000
    3.0000   -5.1962    0.0000 O   0  0  0  0  0  0  0  0  0  0  0  0
    1.5000   -5.1962    0.0000 C   0  0  0  0  0  0  0  0  0  0  0  0
    0.7500   -3.8971    0.0000 C   0  0  0  0  0  0  0  0  0  0  0  0
    1.5000   -2.5981    0.0000 N   0  0  0  0  0  4  0  0  0  0  0  0
    0.7500   -1.2990    0.0000 C   0  0  0  0  0  0  0  0  0  0  0  0
    1.5000    0.0000    0.0000 C   0  0  0  0  0  0  0  0  0  0  0  0
    0.7500    1.2990    0.0000 C   0  0  0  0  0  0  0  0  0  0  0  0
   -0.7500    1.2990    0.0000 C   0  0  0  0  0  0  0  0  0  0  0  0
   -1.5000    0.0000    0.0000 C   0  0  0  0  0  0  0  0  0  0  0  0
   -0.7500   -1.2990    0.0000 C   0  0  0  0  0  0  0  0  0  0  0  0
    0.7500   -6.4952    0.0000 C   0  0  0  0  0  0  0  0  0  0  0  0
    1.5000   -7.7942    0.0000 N   0  0  0  0  0  0  0  0  0  0  0  0
    0.7500   -9.0933    0.0000 C   0  0  0  0  0  0  0  0  0  0  0  0
    1.5000  -10.3923    0.0000 C   0  0  0  0  0  0  0  0  0  0  0  0
    3.0000  -10.3923    0.0000 N   0  0  0  0  0  0  0  0  0  0  0  0
    3.7500  -11.6913    0.0000 C   0  0  0  0  0  0  0  0  0  0  0  0
    3.0000  -12.9904    0.0000 C   0  0  0  0  0  0  0  0  0  0  0  0
    1.5000  -12.9904    0.0000 O   0  0  0  0  0  0  0  0  0  0  0  0
    3.7500  -14.2894    0.0000 C   0  0  0  0  0  0  0  0  0  0  0  0
    3.0000  -15.5885    0.0000 N   0  0  0  0  0  4  0  0  0  0  0  0
    3.7500  -16.8875    0.0000 C   0  0  0  0  0  0  0  0  0  0  0  0
    3.0000  -18.1865    0.0000 C   0  0  0  0  0  0  0  0  0  0  0  0
    3.7500  -19.4856    0.0000 C   0  0  0  0  0  0  0  0  0  0  0  0
    5.2500  -19.4856    0.0000 C   0  0  0  0  0  0  0  0  0  0  0  0
    6.0000  -18.1865    0.0000 C   0  0  0  0  0  0  0  0  0  0  0  0
    5.2500  -16.8875    0.0000 C   0  0  0  0  0  0  0  0  0  0  0  0
    3.7500   -9.0933    0.0000 C   0  0  0  0  0  0  0  0  0  0  0  0
    3.0000   -7.7942    0.0000 C   0  0  0  0  0  0  0  0  0  0  0  0
  2  1  1  1
  2  3  1  0
  3  4  1  0
  4  5  1  0
  5  6  1  0
  6  7  1  0
  7  8  1  0
  8  9  1  0
  9 10  1  0
  2 11  1  0
 11 12  1  0
 12 13  1  0
 13 14  1  0
 14 15  1  0
 15 16  1  0
 16 17  1  0
 17 18  1  1
 17 19  1  0
 19 20  1  0
 20 21  1  0
 21 22  1  0
 22 23  1  0
 23 24  1  0
 24 25  1  0
 25 26  1  0
 15 27  1  0
 27 28  1  0
 10  5  1  0
 28 12  1  0
 26 21  1  0
M  CHG  2   4   1  20   1
M  END
>  <Compound_ID>  (113) 
C20436810

>  <Active>  (113) 
0

>  <Smiles>  (113) 
O[C@H](C[NH2+]C1CCCCC1)CN1CCN(C[C@H](O)C[NH2+]C2CCCCC2)CC1

>  <canonical_smi>  (113) 
O[C@H](C[NH2+]C1CCCCC1)CN1CCN(C[C@H](O)C[NH2+]C2CCCCC2)CC1

>  <Set>  (113) 
G2 inactive

>  <Set_type>  (113) 
Train

>  <MW>  (113) 
398.64

>  <HBD>  (113) 
4

>  <HBA>  (113) 
4

>  <NRB>  (113) 
10

>  <NR>  (113) 
3

>  <NAR>  (113) 
0

>  <PSA>  (113) 
80.16

>  <Standard Type>  (113) 
nan

>  <Standard Relation>  (113) 
nan

>  <Standard Units>  (113) 
nan

>  <Standard Value>  (113) 
nan

>  <Assay ChEMBL ID>  (113) 
nan

>  <Assay Description>  (113) 
nan

>  <BAO Label>  (113) 
nan

>  <bits>  (113) 
<rdkit.DataStructs.cDataStructs.ExplicitBitVect object at 0x00000210F8E6A2D0>

>  <Group>  (113) 
G2

$$$$

     RDKit          2D

 28 30  0  0  0  0  0  0  0  0999 V2000
    2.3774    1.4529    0.0000 C   0  0  0  0  0  0  0  0  0  0  0  0
    2.3250    2.9520    0.0000 C   0  0  0  0  0  0  0  0  0  0  0  0
    0.8578    2.6401    0.0000 O   0  0  0  0  0  0  0  0  0  0  0  0
    0.3943    1.2135    0.0000 C   0  0  0  0  0  0  0  0  0  0  0  0
    1.2760    0.0000    0.0000 C   0  0  0  0  0  0  0  0  0  0  0  0
    0.3943   -1.2135    0.0000 N   0  0  0  0  0  0  0  0  0  0  0  0
   -1.0323   -0.7500    0.0000 C   0  0  0  0  0  0  0  0  0  0  0  0
   -2.3313   -1.5000    0.0000 C   0  0  0  0  0  0  0  0  0  0  0  0
   -3.6304   -0.7500    0.0000 C   0  0  0  0  0  0  0  0  0  0  0  0
   -3.6304    0.7500    0.0000 C   0  0  0  0  0  0  0  0  0  0  0  0
   -4.9294    1.5000    0.0000 Br  0  0  0  0  0  0  0  0  0  0  0  0
   -2.3313    1.5000    0.0000 C   0  0  0  0  0  0  0  0  0  0  0  0
   -2.3313    3.0000    0.0000 Cl  0  0  0  0  0  0  0  0  0  0  0  0
   -1.0323    0.7500    0.0000 C   0  0  0  0  0  0  0  0  0  0  0  0
    1.7631    4.3428    0.0000 O   0  0  0  0  0  0  0  0  0  0  0  0
    2.6866    5.5248    0.0000 C   0  0  0  0  0  0  0  0  0  0  0  0
    3.1502    6.9514    0.0000 C   0  0  0  0  0  0  0  0  0  0  0  0
    1.3622    6.2290    0.0000 C   0  0  0  0  0  0  0  0  0  0  0  0
    1.3099    7.7281    0.0000 O   0  0  0  0  0  0  0  0  0  0  0  0
    4.1720    5.3160    0.0000 C   0  0  0  0  0  0  0  0  0  0  0  0
    5.6393    5.6279    0.0000 C   0  0  0  0  0  0  0  0  0  0  0  0
    4.1197    6.8151    0.0000 O   0  0  0  0  0  0  0  0  0  0  0  0
    4.7339    3.9252    0.0000 C   0  0  0  0  0  0  0  0  0  0  0  0
    5.7376    2.8105    0.0000 C   0  0  0  0  0  0  0  0  0  0  0  0
    6.0060    4.7201    0.0000 O   0  0  0  0  0  0  0  0  0  0  0  0
    3.8104    2.7432    0.0000 C   0  0  0  0  0  0  0  0  0  0  0  0
    3.3469    1.3166    0.0000 C   0  0  0  0  0  0  0  0  0  0  0  0
    5.1349    2.0390    0.0000 O   0  0  0  0  0  0  0  0  0  0  0  0
  2  1  1  6
  2  3  1  0
  3  4  1  0
  4  5  2  0
  5  6  1  0
  6  7  1  0
  7  8  2  0
  8  9  1  0
  9 10  2  0
 10 11  1  0
 10 12  1  0
 12 13  1  0
 12 14  2  0
  2 15  1  0
 15 16  1  0
 16 17  1  6
 16 18  1  0
 18 19  1  0
 16 20  1  0
 20 21  1  1
 20 22  1  0
 20 23  1  0
 23 24  1  6
 23 25  1  0
 23 26  1  0
 26 27  1  6
 26 28  1  0
 26  2  1  0
 14  4  1  0
 14  7  1  0
M  END
>  <Compound_ID>  (114) 
C09915768

>  <Active>  (114) 
0

>  <Smiles>  (114) 
C[C@]1(Oc2c[nH]c3ccc(Br)c(Cl)c23)O[C@@](C)(CO)[C@](C)(O)[C@@](C)(O)[C@@]1(C)O

>  <canonical_smi>  (114) 
C[C@@]1(CO)O[C@](C)(Oc2c[nH]c3ccc(Br)c(Cl)c23)[C@](C)(O)[C@](C)(O)[C@@]1(C)O

>  <Set>  (114) 
G2 inactive

>  <Set_type>  (114) 
Train

>  <MW>  (114) 
478.77

>  <HBD>  (114) 
5

>  <HBA>  (114) 
6

>  <NRB>  (114) 
3

>  <NR>  (114) 
3

>  <NAR>  (114) 
2

>  <PSA>  (114) 
115.17

>  <Standard Type>  (114) 
nan

>  <Standard Relation>  (114) 
nan

>  <Standard Units>  (114) 
nan

>  <Standard Value>  (114) 
nan

>  <Assay ChEMBL ID>  (114) 
nan

>  <Assay Description>  (114) 
nan

>  <BAO Label>  (114) 
nan

>  <bits>  (114) 
<rdkit.DataStructs.cDataStructs.ExplicitBitVect object at 0x00000210F8E6A500>

>  <Group>  (114) 
G2

$$$$

     RDKit          2D

 29 30  0  0  0  0  0  0  0  0999 V2000
    2.1328    3.1443    0.0000 C   0  0  0  0  0  0  0  0  0  0  0  0
    0.7062    2.6807    0.0000 C   0  0  0  0  0  0  0  0  0  0  0  0
   -0.4086    3.6844    0.0000 C   0  0  0  0  0  0  0  0  0  0  0  0
   -0.0967    5.1517    0.0000 C   0  0  0  0  0  0  0  0  0  0  0  0
   -1.8351    3.2209    0.0000 C   0  0  0  0  0  0  0  0  0  0  0  0
   -2.9499    4.2246    0.0000 S   0  0  0  0  0  0  0  0  0  0  0  0
   -1.9462    5.3393    0.0000 O   0  0  0  0  0  0  0  0  0  0  0  0
   -3.9535    3.1099    0.0000 O   0  0  0  0  0  0  0  0  0  0  0  0
   -4.0646    5.2283    0.0000 N   0  0  0  0  0  0  0  0  0  0  0  0
   -5.4912    4.7648    0.0000 N   0  0  0  0  0  4  0  0  0  0  0  0
   -6.6059    5.7685    0.0000 C   0  0  0  0  0  0  0  0  0  0  0  0
   -8.0325    5.3050    0.0000 N   0  0  0  0  0  0  0  0  0  0  0  0
   -9.1472    6.3086    0.0000 C   0  0  0  0  0  0  0  0  0  0  0  0
  -10.5738    5.8451    0.0000 C   0  0  0  0  0  0  0  0  0  0  0  0
  -11.6885    6.8488    0.0000 C   0  0  0  0  0  0  0  0  0  0  0  0
  -13.1151    6.3853    0.0000 C   0  0  0  0  0  0  0  0  0  0  0  0
  -13.4269    4.9181    0.0000 N   0  0  0  0  0  4  0  0  0  0  0  0
  -14.2298    7.3890    0.0000 C   0  0  0  0  0  0  0  0  0  0  0  0
  -13.9179    8.8562    0.0000 O   0  0  0  0  0  0  0  0  0  0  0  0
  -15.6564    6.9255    0.0000 O   0  0  0  0  0  1  0  0  0  0  0  0
   -2.1470    1.7537    0.0000 C   0  0  0  0  0  0  0  0  0  0  0  0
   -3.5736    1.2902    0.0000 C   0  0  0  0  0  0  0  0  0  0  0  0
   -1.0323    0.7500    0.0000 C   0  0  0  0  0  0  0  0  0  0  0  0
    0.3943    1.2135    0.0000 C   0  0  0  0  0  0  0  0  0  0  0  0
    1.2760    0.0000    0.0000 O   0  0  0  0  0  0  0  0  0  0  0  0
    0.3943   -1.2135    0.0000 C   0  0  0  0  0  0  0  0  0  0  0  0
    1.6933   -1.9635    0.0000 C   0  0  0  0  0  0  0  0  0  0  0  0
   -0.2158   -2.5838    0.0000 C   0  0  0  0  0  0  0  0  0  0  0  0
   -1.0323   -0.7500    0.0000 C   0  0  0  0  0  0  0  0  0  0  0  0
  1  2  1  0
  2  3  2  0
  3  4  1  0
  3  5  1  0
  5  6  1  0
  6  7  2  0
  6  8  2  0
  6  9  1  0
  9 10  1  0
 10 11  2  0
 11 12  1  0
 12 13  1  0
 13 14  1  0
 14 15  1  0
 15 16  1  0
 16 17  1  1
 16 18  1  0
 18 19  2  0
 18 20  1  0
  5 21  2  0
 21 22  1  0
 21 23  1  0
 23 24  2  0
 24 25  1  0
 25 26  1  0
 26 27  1  0
 26 28  1  0
 26 29  1  0
 24  2  1  0
 29 23  1  0
M  CHG  3  10   1  17   1  20  -1
M  END
>  <Compound_ID>  (115) 
C55161959

>  <Active>  (115) 
0

>  <Smiles>  (115) 
Cc1c(C)c(S(=O)(=O)N/[NH+]=C/NCCC[C@@H]([NH3+])C(=O)[O-])c(C)c2c1OC(C)(C)C2

>  <canonical_smi>  (115) 
Cc1c(C)c(S(=O)(=O)N/[NH+]=C/NCCC[C@@H]([NH3+])C(=O)[O-])c(C)c2c1OC(C)(C)C2

>  <Set>  (115) 
G2 inactive

>  <Set_type>  (115) 
Train

>  <MW>  (115) 
427.55

>  <HBD>  (115) 
4

>  <HBA>  (115) 
6

>  <NRB>  (115) 
9

>  <NR>  (115) 
2

>  <NAR>  (115) 
1

>  <PSA>  (115) 
149.17

>  <Standard Type>  (115) 
nan

>  <Standard Relation>  (115) 
nan

>  <Standard Units>  (115) 
nan

>  <Standard Value>  (115) 
nan

>  <Assay ChEMBL ID>  (115) 
nan

>  <Assay Description>  (115) 
nan

>  <BAO Label>  (115) 
nan

>  <bits>  (115) 
<rdkit.DataStructs.cDataStructs.ExplicitBitVect object at 0x00000210F8E6B140>

>  <Group>  (115) 
G2

$$$$

     RDKit          2D

 32 33  0  0  0  0  0  0  0  0999 V2000
    2.6401   -3.1891    0.0000 C   0  0  0  0  0  0  0  0  0  0  0  0
    1.2135   -2.7256    0.0000 C   0  0  0  0  0  0  0  0  0  0  0  0
   -0.0000   -3.6073    0.0000 C   0  0  0  0  0  0  0  0  0  0  0  0
   -0.0000   -5.1073    0.0000 C   0  0  0  0  0  0  0  0  0  0  0  0
    1.2990   -5.8573    0.0000 O   0  0  0  0  0  0  0  0  0  0  0  0
   -1.2990   -5.8573    0.0000 N   0  0  0  0  0  0  0  0  0  0  0  0
   -1.2990   -7.3573    0.0000 N   0  0  0  0  0  0  0  0  0  0  0  0
   -2.5981   -8.1073    0.0000 C   0  0  0  0  0  0  0  0  0  0  0  0
   -1.8481   -9.4063    0.0000 C   0  0  0  0  0  0  0  0  0  0  0  0
   -3.3481   -6.8083    0.0000 C   0  0  0  0  0  0  0  0  0  0  0  0
   -3.8971   -8.8573    0.0000 C   0  0  0  0  0  0  0  0  0  0  0  0
   -1.2135   -2.7256    0.0000 O   0  0  0  0  0  0  0  0  0  0  0  0
   -0.7500   -1.2990    0.0000 C   0  0  0  0  0  0  0  0  0  0  0  0
    0.7500   -1.2990    0.0000 C   0  0  0  0  0  0  0  0  0  0  0  0
    1.5000    0.0000    0.0000 C   0  0  0  0  0  0  0  0  0  0  0  0
    3.0000    0.0000    0.0000 N   0  0  0  0  0  0  0  0  0  0  0  0
    3.7500    1.2990    0.0000 N   0  0  0  0  0  0  0  0  0  0  0  0
    5.2500    1.2990    0.0000 C   0  0  0  0  0  0  0  0  0  0  0  0
    6.0000   -0.0000    0.0000 O   0  0  0  0  0  1  0  0  0  0  0  0
    6.0000    2.5981    0.0000 C   0  0  0  0  0  0  0  0  0  0  0  0
    7.2990    1.8481    0.0000 F   0  0  0  0  0  0  0  0  0  0  0  0
    4.7010    3.3481    0.0000 F   0  0  0  0  0  0  0  0  0  0  0  0
    6.7500    3.8971    0.0000 C   0  0  0  0  0  0  0  0  0  0  0  0
    5.4510    4.6471    0.0000 F   0  0  0  0  0  0  0  0  0  0  0  0
    8.0490    3.1471    0.0000 F   0  0  0  0  0  0  0  0  0  0  0  0
    7.5000    5.1962    0.0000 C   0  0  0  0  0  0  0  0  0  0  0  0
    8.2500    6.4952    0.0000 F   0  0  0  0  0  0  0  0  0  0  0  0
    8.7990    4.4462    0.0000 F   0  0  0  0  0  0  0  0  0  0  0  0
    6.2010    5.9462    0.0000 F   0  0  0  0  0  0  0  0  0  0  0  0
    0.7500    1.2990    0.0000 C   0  0  0  0  0  0  0  0  0  0  0  0
   -0.7500    1.2990    0.0000 C   0  0  0  0  0  0  0  0  0  0  0  0
   -1.5000    0.0000    0.0000 C   0  0  0  0  0  0  0  0  0  0  0  0
  1  2  1  0
  2  3  2  0
  3  4  1  0
  4  5  2  0
  4  6  1  0
  6  7  1  0
  7  8  1  0
  8  9  1  0
  8 10  1  0
  8 11  1  0
  3 12  1  0
 12 13  1  0
 13 14  2  0
 14 15  1  0
 15 16  2  0
 16 17  1  0
 17 18  2  0
 18 19  1  0
 18 20  1  0
 20 21  1  0
 20 22  1  0
 20 23  1  0
 23 24  1  0
 23 25  1  0
 23 26  1  0
 26 27  1  0
 26 28  1  0
 26 29  1  0
 15 30  1  0
 30 31  1  0
 31 32  1  0
 14  2  1  0
 32 13  1  0
M  CHG  1  19  -1
M  END
>  <Compound_ID>  (116) 
C40823323

>  <Active>  (116) 
0

>  <Smiles>  (116) 
Cc1c(C(=O)NNC(C)(C)C)oc2c1/C(=N/N=C(\[O-])C(F)(F)C(F)(F)C(F)(F)F)CCC2

>  <canonical_smi>  (116) 
Cc1c(C(=O)NNC(C)(C)C)oc2c1/C(=N/N=C(\[O-])C(F)(F)C(F)(F)C(F)(F)F)CCC2

>  <Set>  (116) 
G2 inactive

>  <Set_type>  (116) 
Train

>  <MW>  (116) 
473.37

>  <HBD>  (116) 
2

>  <HBA>  (116) 
4

>  <NRB>  (116) 
5

>  <NR>  (116) 
2

>  <NAR>  (116) 
1

>  <PSA>  (116) 
102.05

>  <Standard Type>  (116) 
nan

>  <Standard Relation>  (116) 
nan

>  <Standard Units>  (116) 
nan

>  <Standard Value>  (116) 
nan

>  <Assay ChEMBL ID>  (116) 
nan

>  <Assay Description>  (116) 
nan

>  <BAO Label>  (116) 
nan

>  <bits>  (116) 
<rdkit.DataStructs.cDataStructs.ExplicitBitVect object at 0x00000210F8E6B290>

>  <Group>  (116) 
G2

$$$$

     RDKit          2D

 34 37  0  0  0  0  0  0  0  0999 V2000
    3.7500   -1.2990    0.0000 N   0  0  0  0  0  0  0  0  0  0  0  0
    3.0000    0.0000    0.0000 C   0  0  0  0  0  0  0  0  0  0  0  0
    3.7500    1.2990    0.0000 N   0  0  0  0  0  4  0  0  0  0  0  0
    1.5000    0.0000    0.0000 C   0  0  0  0  0  0  0  0  0  0  0  0
    0.7500   -1.2990    0.0000 C   0  0  0  0  0  0  0  0  0  0  0  0
   -0.7500   -1.2990    0.0000 C   0  0  0  0  0  0  0  0  0  0  0  0
   -1.5000    0.0000    0.0000 C   0  0  0  0  0  0  0  0  0  0  0  0
   -2.9672    0.3119    0.0000 N   0  0  0  0  0  0  0  0  0  0  0  0
   -3.1240    1.8037    0.0000 C   0  0  0  0  0  0  0  0  0  0  0  0
   -4.4231    2.5537    0.0000 C   0  0  0  0  0  0  0  0  0  0  0  0
   -4.4231    4.0537    0.0000 C   0  0  0  0  0  0  0  0  0  0  0  0
   -5.7221    4.8037    0.0000 C   0  0  0  0  0  0  0  0  0  0  0  0
   -5.7221    6.3037    0.0000 C   0  0  0  0  0  0  0  0  0  0  0  0
   -4.4231    7.0537    0.0000 C   0  0  0  0  0  0  0  0  0  0  0  0
   -4.4231    8.5537    0.0000 C   0  0  0  0  0  0  0  0  0  0  0  0
   -5.7221    9.3037    0.0000 O   0  0  0  0  0  0  0  0  0  0  0  0
   -3.1240    9.3037    0.0000 O   0  0  0  0  0  1  0  0  0  0  0  0
   -7.0211    7.0537    0.0000 C   0  0  0  0  0  0  0  0  0  0  0  0
   -8.3202    6.3037    0.0000 O   0  0  0  0  0  0  0  0  0  0  0  0
   -7.0211    8.5537    0.0000 O   0  0  0  0  0  1  0  0  0  0  0  0
   -7.0211    4.0537    0.0000 C   0  0  0  0  0  0  0  0  0  0  0  0
   -7.0211    2.5537    0.0000 C   0  0  0  0  0  0  0  0  0  0  0  0
   -8.3202    1.8037    0.0000 C   0  0  0  0  0  0  0  0  0  0  0  0
   -9.6192    2.5537    0.0000 C   0  0  0  0  0  0  0  0  0  0  0  0
  -10.9182    1.8037    0.0000 C   0  0  0  0  0  0  0  0  0  0  0  0
  -10.9182    0.3037    0.0000 C   0  0  0  0  0  0  0  0  0  0  0  0
   -9.6192   -0.4463    0.0000 C   0  0  0  0  0  0  0  0  0  0  0  0
   -8.3202    0.3037    0.0000 C   0  0  0  0  0  0  0  0  0  0  0  0
   -7.0211   -0.4463    0.0000 F   0  0  0  0  0  0  0  0  0  0  0  0
   -5.7221    1.8037    0.0000 C   0  0  0  0  0  0  0  0  0  0  0  0
   -5.7221    0.3037    0.0000 O   0  0  0  0  0  1  0  0  0  0  0  0
   -1.7537    2.4138    0.0000 N   0  0  0  0  0  4  0  0  0  0  0  0
   -0.7500    1.2990    0.0000 C   0  0  0  0  0  0  0  0  0  0  0  0
    0.7500    1.2990    0.0000 C   0  0  0  0  0  0  0  0  0  0  0  0
  1  2  1  0
  2  3  2  0
  2  4  1  0
  4  5  2  0
  5  6  1  0
  6  7  2  0
  7  8  1  0
  8  9  1  0
  9 10  1  0
 10 11  2  0
 11 12  1  0
 12 13  1  0
 13 14  1  1
 14 15  1  0
 15 16  2  0
 15 17  1  0
 13 18  1  0
 18 19  2  0
 18 20  1  0
 12 21  2  0
 21 22  1  0
 22 23  1  0
 23 24  2  0
 24 25  1  0
 25 26  2  0
 26 27  1  0
 27 28  2  0
 28 29  1  0
 22 30  2  0
 30 31  1  0
  9 32  2  0
 32 33  1  0
 33 34  2  0
 34  4  1  0
 33  7  1  0
 30 10  1  0
 28 23  1  0
M  CHG  5   3   1  17  -1  20  -1  31  -1  32   1
M  END
>  <Compound_ID>  (117) 
C12501046

>  <Active>  (117) 
0

>  <Smiles>  (117) 
NC(=[NH2+])c1ccc2[nH]c(-c3cc([C@H](CC(=O)[O-])C(=O)[O-])cc(-c4ccccc4F)c3[O-])[nH+]c2c1

>  <canonical_smi>  (117) 
NC(=[NH2+])c1ccc2[nH]c(-c3cc([C@H](CC(=O)[O-])C(=O)[O-])cc(-c4ccccc4F)c3[O-])[nH+]c2c1

>  <Set>  (117) 
G2 inactive

>  <Set_type>  (117) 
Train

>  <MW>  (117) 
461.43

>  <HBD>  (117) 
3

>  <HBA>  (117) 
6

>  <NRB>  (117) 
7

>  <NR>  (117) 
4

>  <NAR>  (117) 
4

>  <PSA>  (117) 
184.86

>  <Standard Type>  (117) 
nan

>  <Standard Relation>  (117) 
nan

>  <Standard Units>  (117) 
nan

>  <Standard Value>  (117) 
nan

>  <Assay ChEMBL ID>  (117) 
nan

>  <Assay Description>  (117) 
nan

>  <BAO Label>  (117) 
nan

>  <bits>  (117) 
<rdkit.DataStructs.cDataStructs.ExplicitBitVect object at 0x00000210F8E6B3E0>

>  <Group>  (117) 
G2

$$$$

     RDKit          2D

 21 22  0  0  0  0  0  0  0  0999 V2000
    3.7500   -1.2990    0.0000 C   0  0  0  0  0  0  0  0  0  0  0  0
    3.0000    0.0000    0.0000 O   0  0  0  0  0  0  0  0  0  0  0  0
    1.5000    0.0000    0.0000 C   0  0  0  0  0  0  0  0  0  0  0  0
    0.7500   -1.2990    0.0000 C   0  0  0  0  0  0  0  0  0  0  0  0
   -0.7500   -1.2990    0.0000 C   0  0  0  0  0  0  0  0  0  0  0  0
   -1.5000    0.0000    0.0000 C   0  0  0  0  0  0  0  0  0  0  0  0
   -3.0000    0.0000    0.0000 C   0  0  0  0  0  0  0  0  0  0  0  0
   -3.7500   -1.2990    0.0000 C   0  0  0  0  0  0  0  0  0  0  0  0
   -4.5000   -2.5981    0.0000 N   0  0  0  0  0  0  0  0  0  0  0  0
   -3.7500    1.2990    0.0000 C   0  0  0  0  0  0  0  0  0  0  0  0
   -5.2500    1.2990    0.0000 C   0  0  0  0  0  0  0  0  0  0  0  0
   -6.0000    2.5981    0.0000 C   0  0  0  0  0  0  0  0  0  0  0  0
   -5.2500    3.8971    0.0000 F   0  0  0  0  0  0  0  0  0  0  0  0
   -7.5000    2.5981    0.0000 C   0  0  0  0  0  0  0  0  0  0  0  0
   -8.2500    1.2990    0.0000 C   0  0  0  0  0  0  0  0  0  0  0  0
   -7.5000    0.0000    0.0000 C   0  0  0  0  0  0  0  0  0  0  0  0
   -6.0000    0.0000    0.0000 C   0  0  0  0  0  0  0  0  0  0  0  0
   -5.2500   -1.2990    0.0000 Cl  0  0  0  0  0  0  0  0  0  0  0  0
   -0.7500    1.2990    0.0000 C   0  0  0  0  0  0  0  0  0  0  0  0
    0.7500    1.2990    0.0000 C   0  0  0  0  0  0  0  0  0  0  0  0
    1.5000    2.5981    0.0000 F   0  0  0  0  0  0  0  0  0  0  0  0
  1  2  1  0
  2  3  1  0
  3  4  2  0
  4  5  1  0
  5  6  2  0
  6  7  1  0
  7  8  1  6
  8  9  3  0
  7 10  1  0
 10 11  1  0
 11 12  2  0
 12 13  1  0
 12 14  1  0
 14 15  2  0
 15 16  1  0
 16 17  2  0
 17 18  1  0
  6 19  1  0
 19 20  2  0
 20 21  1  0
 20  3  1  0
 17 11  1  0
M  END
>  <Compound_ID>  (118) 
C41540708

>  <Active>  (118) 
0

>  <Smiles>  (118) 
COc1ccc([C@H](C#N)Cc2c(F)cccc2Cl)cc1F

>  <canonical_smi>  (118) 
COc1ccc([C@H](C#N)Cc2c(F)cccc2Cl)cc1F

>  <Set>  (118) 
G2 inactive

>  <Set_type>  (118) 
Train

>  <MW>  (118) 
307.73

>  <HBD>  (118) 
0

>  <HBA>  (118) 
2

>  <NRB>  (118) 
4

>  <NR>  (118) 
2

>  <NAR>  (118) 
2

>  <PSA>  (118) 
33.02

>  <Standard Type>  (118) 
nan

>  <Standard Relation>  (118) 
nan

>  <Standard Units>  (118) 
nan

>  <Standard Value>  (118) 
nan

>  <Assay ChEMBL ID>  (118) 
nan

>  <Assay Description>  (118) 
nan

>  <BAO Label>  (118) 
nan

>  <bits>  (118) 
<rdkit.DataStructs.cDataStructs.ExplicitBitVect object at 0x00000210F8E6B760>

>  <Group>  (118) 
G2

$$$$

     RDKit          2D

 21 23  0  0  0  0  0  0  0  0999 V2000
   -1.2114    6.1554    0.0000 C   0  0  0  0  0  0  0  0  0  0  0  0
   -2.6380    5.6918    0.0000 C   0  0  0  0  0  0  0  0  0  0  0  0
   -3.7527    6.6955    0.0000 C   0  0  0  0  0  0  0  0  0  0  0  0
   -2.9499    4.2246    0.0000 C   0  0  0  0  0  0  0  0  0  0  0  0
   -1.8351    3.2209    0.0000 N   0  0  0  0  0  0  0  0  0  0  0  0
   -0.4086    3.6844    0.0000 C   0  0  0  0  0  0  0  0  0  0  0  0
   -0.0967    5.1517    0.0000 O   0  0  0  0  0  0  0  0  0  0  0  0
    0.7062    2.6807    0.0000 N   0  0  0  0  0  0  0  0  0  0  0  0
    0.3943    1.2135    0.0000 C   0  0  0  0  0  0  0  0  0  0  0  0
    1.2760    0.0000    0.0000 S   0  0  0  0  0  0  0  0  0  0  0  0
    0.3943   -1.2135    0.0000 C   0  0  0  0  0  0  0  0  0  0  0  0
   -1.0323   -0.7500    0.0000 C   0  0  0  0  0  0  0  0  0  0  0  0
   -1.0323    0.7500    0.0000 C   0  0  0  0  0  0  0  0  0  0  0  0
   -2.1470    1.7537    0.0000 C   0  0  0  0  0  0  0  0  0  0  0  0
   -3.5736    1.2902    0.0000 O   0  0  0  0  0  0  0  0  0  0  0  0
   -1.9140   -1.9635    0.0000 C   0  0  0  0  0  0  0  0  0  0  0  0
   -3.4140   -1.9635    0.0000 C   0  0  0  0  0  0  0  0  0  0  0  0
   -4.1640   -0.6645    0.0000 C   0  0  0  0  0  0  0  0  0  0  0  0
   -1.0323   -3.1771    0.0000 C   0  0  0  0  0  0  0  0  0  0  0  0
   -1.4958   -4.6036    0.0000 C   0  0  0  0  0  0  0  0  0  0  0  0
    0.3943   -2.7135    0.0000 C   0  0  0  0  0  0  0  0  0  0  0  0
  1  2  2  0
  2  3  1  0
  2  4  1  0
  4  5  1  0
  5  6  1  0
  6  7  2  0
  6  8  1  0
  8  9  1  0
  9 10  1  0
 10 11  1  0
 11 12  2  0
 12 13  1  0
 13 14  1  0
 14 15  2  0
 12 16  1  0
 16 17  1  0
 17 18  1  0
 16 19  2  0
 19 20  1  0
 19 21  1  0
 14  5  1  0
 13  9  2  0
 21 11  1  0
M  END
>  <Compound_ID>  (119) 
C34726704

>  <Active>  (119) 
0

>  <Smiles>  (119) 
C=C(C)Cn1c(=O)[nH]c2sc3c(c2c1=O)C(CC)=C(C)C3

>  <canonical_smi>  (119) 
C=C(C)Cn1c(=O)[nH]c2sc3c(c2c1=O)C(CC)=C(C)C3

>  <Set>  (119) 
G2 inactive

>  <Set_type>  (119) 
Train

>  <MW>  (119) 
302.4

>  <HBD>  (119) 
1

>  <HBA>  (119) 
2

>  <NRB>  (119) 
3

>  <NR>  (119) 
3

>  <NAR>  (119) 
2

>  <PSA>  (119) 
54.86

>  <Standard Type>  (119) 
nan

>  <Standard Relation>  (119) 
nan

>  <Standard Units>  (119) 
nan

>  <Standard Value>  (119) 
nan

>  <Assay ChEMBL ID>  (119) 
nan

>  <Assay Description>  (119) 
nan

>  <BAO Label>  (119) 
nan

>  <bits>  (119) 
<rdkit.DataStructs.cDataStructs.ExplicitBitVect object at 0x00000210F8E6BA00>

>  <Group>  (119) 
G2

$$$$

     RDKit          2D

 29 31  0  0  0  0  0  0  0  0999 V2000
    3.7500   -1.2990    0.0000 C   0  0  0  0  0  0  0  0  0  0  0  0
    3.0000    0.0000    0.0000 O   0  0  0  0  0  0  0  0  0  0  0  0
    1.5000    0.0000    0.0000 C   0  0  0  0  0  0  0  0  0  0  0  0
    0.7500   -1.2990    0.0000 C   0  0  0  0  0  0  0  0  0  0  0  0
    1.5000   -2.5981    0.0000 F   0  0  0  0  0  0  0  0  0  0  0  0
   -0.7500   -1.2990    0.0000 C   0  0  0  0  0  0  0  0  0  0  0  0
   -1.5000   -2.5981    0.0000 F   0  0  0  0  0  0  0  0  0  0  0  0
   -1.5000    0.0000    0.0000 C   0  0  0  0  0  0  0  0  0  0  0  0
   -3.0000    0.0000    0.0000 S   0  0  0  0  0  0  0  0  0  0  0  0
   -3.0000    1.5000    0.0000 O   0  0  0  0  0  0  0  0  0  0  0  0
   -3.0000   -1.5000    0.0000 O   0  0  0  0  0  0  0  0  0  0  0  0
   -4.5000    0.0000    0.0000 N   0  0  0  0  0  0  0  0  0  0  0  0
   -5.2500   -1.2990    0.0000 C   0  0  0  0  0  0  0  0  0  0  0  0
   -6.7500   -1.2990    0.0000 C   0  0  0  0  0  0  0  0  0  0  0  0
   -4.5000   -2.5981    0.0000 C   0  0  0  0  0  0  0  0  0  0  0  0
   -5.2500   -3.8971    0.0000 C   0  0  0  0  0  0  0  0  0  0  0  0
   -4.5000   -5.1962    0.0000 C   0  0  0  0  0  0  0  0  0  0  0  0
   -3.0000   -5.1962    0.0000 C   0  0  0  0  0  0  0  0  0  0  0  0
   -2.2500   -6.4952    0.0000 N   0  0  0  0  0  0  0  0  0  0  0  0
   -0.7582   -6.6520    0.0000 C   0  0  0  0  0  0  0  0  0  0  0  0
   -0.4463   -8.1192    0.0000 C   0  0  0  0  0  0  0  0  0  0  0  0
   -1.7454   -8.8692    0.0000 N   0  0  0  0  0  0  0  0  0  0  0  0
   -2.8601   -7.8655    0.0000 C   0  0  0  0  0  0  0  0  0  0  0  0
   -2.2500   -3.8971    0.0000 C   0  0  0  0  0  0  0  0  0  0  0  0
   -3.0000   -2.5981    0.0000 C   0  0  0  0  0  0  0  0  0  0  0  0
   -0.7500    1.2990    0.0000 C   0  0  0  0  0  0  0  0  0  0  0  0
   -1.5000    2.5981    0.0000 F   0  0  0  0  0  0  0  0  0  0  0  0
    0.7500    1.2990    0.0000 C   0  0  0  0  0  0  0  0  0  0  0  0
    1.5000    2.5981    0.0000 F   0  0  0  0  0  0  0  0  0  0  0  0
  1  2  1  0
  2  3  1  0
  3  4  2  0
  4  5  1  0
  4  6  1  0
  6  7  1  0
  6  8  2  0
  8  9  1  0
  9 10  2  0
  9 11  2  0
  9 12  1  0
 12 13  1  0
 13 14  1  1
 13 15  1  0
 15 16  2  0
 16 17  1  0
 17 18  2  0
 18 19  1  0
 19 20  1  0
 20 21  2  0
 21 22  1  0
 22 23  2  0
 18 24  1  0
 24 25  2  0
  8 26  1  0
 26 27  1  0
 26 28  2  0
 28 29  1  0
 28  3  1  0
 25 15  1  0
 23 19  1  0
M  END
>  <Compound_ID>  (120) 
C32718991

>  <Active>  (120) 
0

>  <Smiles>  (120) 
COc1c(F)c(F)c(S(=O)(=O)N[C@H](C)c2ccc(-n3ccnc3)cc2)c(F)c1F

>  <canonical_smi>  (120) 
COc1c(F)c(F)c(S(=O)(=O)N[C@H](C)c2ccc(-n3ccnc3)cc2)c(F)c1F

>  <Set>  (120) 
G2 inactive

>  <Set_type>  (120) 
Train

>  <MW>  (120) 
429.4

>  <HBD>  (120) 
1

>  <HBA>  (120) 
4

>  <NRB>  (120) 
6

>  <NR>  (120) 
3

>  <NAR>  (120) 
3

>  <PSA>  (120) 
73.22

>  <Standard Type>  (120) 
nan

>  <Standard Relation>  (120) 
nan

>  <Standard Units>  (120) 
nan

>  <Standard Value>  (120) 
nan

>  <Assay ChEMBL ID>  (120) 
nan

>  <Assay Description>  (120) 
nan

>  <BAO Label>  (120) 
nan

>  <bits>  (120) 
<rdkit.DataStructs.cDataStructs.ExplicitBitVect object at 0x00000210F8E6BC30>

>  <Group>  (120) 
G2

$$$$

     RDKit          2D

 30 33  0  0  0  0  0  0  0  0999 V2000
   -0.0000   -8.1073    0.0000 H   0  0  0  0  0  0  0  0  0  0  0  0
   -1.2990   -7.3573    0.0000 N   0  0  0  0  0  0  0  0  0  0  0  0
   -1.2990   -5.8573    0.0000 C   0  0  0  0  0  0  0  0  0  0  0  0
   -2.5981   -5.1073    0.0000 N   0  0  0  0  0  0  0  0  0  0  0  0
   -3.8971   -5.8573    0.0000 C   0  0  0  0  0  0  0  0  0  0  0  0
   -3.8971   -7.3573    0.0000 O   0  0  0  0  0  1  0  0  0  0  0  0
   -5.1962   -5.1073    0.0000 C   0  0  0  0  0  0  0  0  0  0  0  0
   -5.1962   -3.6073    0.0000 S   0  0  0  0  0  0  0  0  0  0  0  0
   -3.8971   -2.8573    0.0000 C   0  0  0  0  0  0  0  0  0  0  0  0
   -2.5981   -3.6073    0.0000 C   0  0  0  0  0  0  0  0  0  0  0  0
   -1.2990   -2.8573    0.0000 C   0  0  0  0  0  0  0  0  0  0  0  0
   -1.2990   -1.3573    0.0000 C   0  0  0  0  0  0  0  0  0  0  0  0
   -2.5981   -0.6073    0.0000 C   0  0  0  0  0  0  0  0  0  0  0  0
   -3.8971   -1.3573    0.0000 C   0  0  0  0  0  0  0  0  0  0  0  0
   -6.4952   -5.8573    0.0000 C   0  0  0  0  0  0  0  0  0  0  0  0
   -7.7942   -5.1073    0.0000 C   0  0  0  0  0  0  0  0  0  0  0  0
   -9.0933   -5.8573    0.0000 C   0  0  0  0  0  0  0  0  0  0  0  0
   -9.0933   -7.3573    0.0000 C   0  0  0  0  0  0  0  0  0  0  0  0
   -7.7942   -8.1073    0.0000 C   0  0  0  0  0  0  0  0  0  0  0  0
   -6.4952   -7.3573    0.0000 C   0  0  0  0  0  0  0  0  0  0  0  0
   -0.0000   -5.1073    0.0000 N   0  0  0  0  0  0  0  0  0  0  0  0
    1.2990   -5.8573    0.0000 C   0  0  0  0  0  0  0  0  0  0  0  0
    2.6694   -5.2472    0.0000 N   0  0  0  0  0  0  0  0  0  0  0  0
    3.6731   -6.3619    0.0000 C   0  0  0  0  0  0  0  0  0  0  0  0
    5.1731   -6.3619    0.0000 C   0  0  0  0  0  0  0  0  0  0  0  0
    5.9231   -7.6610    0.0000 C   0  0  0  0  0  0  0  0  0  0  0  0
    5.1731   -8.9600    0.0000 C   0  0  0  0  0  0  0  0  0  0  0  0
    3.6731   -8.9600    0.0000 C   0  0  0  0  0  0  0  0  0  0  0  0
    2.9231   -7.6610    0.0000 C   0  0  0  0  0  0  0  0  0  0  0  0
    1.4558   -7.3491    0.0000 O   0  0  0  0  0  0  0  0  0  0  0  0
  1  2  1  0
  2  3  2  0
  3  4  1  0
  4  5  2  0
  5  6  1  0
  5  7  1  0
  7  8  1  1
  8  9  1  0
  9 10  2  0
 10 11  1  0
 11 12  2  0
 12 13  1  0
 13 14  2  0
  7 15  1  0
 15 16  2  0
 16 17  1  0
 17 18  2  0
 18 19  1  0
 19 20  2  0
  3 21  1  0
 21 22  1  0
 22 23  2  0
 23 24  1  0
 24 25  2  0
 25 26  1  0
 26 27  2  0
 27 28  1  0
 28 29  2  0
 29 30  1  0
 14  9  1  0
 20 15  1  0
 30 22  1  0
 29 24  1  0
M  CHG  1   6  -1
M  END
>  <Compound_ID>  (121) 
C06898926

>  <Active>  (121) 
0

>  <Smiles>  (121) 
[H]/N=C(/N=C(\[O-])[C@H](Sc1ccccc1)c1ccccc1)Nc1nc2ccccc2o1

>  <canonical_smi>  (121) 
[H]/N=C(/N=C(\[O-])[C@H](Sc1ccccc1)c1ccccc1)Nc1nc2ccccc2o1

>  <Set>  (121) 
G2 inactive

>  <Set_type>  (121) 
Train

>  <MW>  (121) 
401.47

>  <HBD>  (121) 
2

>  <HBA>  (121) 
5

>  <NRB>  (121) 
5

>  <NR>  (121) 
4

>  <NAR>  (121) 
4

>  <PSA>  (121) 
97.33

>  <Standard Type>  (121) 
nan

>  <Standard Relation>  (121) 
nan

>  <Standard Units>  (121) 
nan

>  <Standard Value>  (121) 
nan

>  <Assay ChEMBL ID>  (121) 
nan

>  <Assay Description>  (121) 
nan

>  <BAO Label>  (121) 
nan

>  <bits>  (121) 
<rdkit.DataStructs.cDataStructs.ExplicitBitVect object at 0x00000210F8E6BCA0>

>  <Group>  (121) 
G2

$$$$

     RDKit          2D

 28 29  0  0  0  0  0  0  0  0999 V2000
    0.7500   -6.4952    0.0000 C   0  0  0  0  0  0  0  0  0  0  0  0
    1.5000   -5.1962    0.0000 C   0  0  0  0  0  0  0  0  0  0  0  0
    3.0000   -5.1962    0.0000 C   0  0  0  0  0  0  0  0  0  0  0  0
    0.7500   -3.8971    0.0000 C   0  0  0  0  0  0  0  0  0  0  0  0
    1.5000   -2.5981    0.0000 N   0  0  0  0  0  0  0  0  0  0  0  0
    3.0000   -2.5981    0.0000 C   0  0  0  0  0  0  0  0  0  0  0  0
    3.7500   -3.8971    0.0000 C   0  0  0  0  0  0  0  0  0  0  0  0
    5.2500   -3.8971    0.0000 C   0  0  0  0  0  0  0  0  0  0  0  0
    6.0000   -2.5981    0.0000 C   0  0  0  0  0  0  0  0  0  0  0  0
    7.5000   -2.5981    0.0000 C   0  0  0  0  0  0  0  0  0  0  0  0
    9.0000   -2.5981    0.0000 F   0  0  0  0  0  0  0  0  0  0  0  0
    7.5000   -4.0981    0.0000 F   0  0  0  0  0  0  0  0  0  0  0  0
    7.5000   -1.0981    0.0000 F   0  0  0  0  0  0  0  0  0  0  0  0
    5.2500   -1.2990    0.0000 C   0  0  0  0  0  0  0  0  0  0  0  0
    3.7500   -1.2990    0.0000 C   0  0  0  0  0  0  0  0  0  0  0  0
    3.0000    0.0000    0.0000 Cl  0  0  0  0  0  0  0  0  0  0  0  0
   -0.7500   -3.8971    0.0000 C   0  0  0  0  0  0  0  0  0  0  0  0
   -1.5000   -2.5981    0.0000 O   0  0  0  0  0  1  0  0  0  0  0  0
   -1.5000   -5.1962    0.0000 N   0  0  0  0  0  0  0  0  0  0  0  0
   -3.0000   -5.1962    0.0000 C   0  0  0  0  0  0  0  0  0  0  0  0
   -3.8817   -6.4097    0.0000 N   0  0  0  0  0  0  0  0  0  0  0  0
   -5.3083   -5.9462    0.0000 C   0  0  0  0  0  0  0  0  0  0  0  0
   -6.5218   -6.8278    0.0000 C   0  0  0  0  0  0  0  0  0  0  0  0
   -7.7353   -7.7095    0.0000 F   0  0  0  0  0  0  0  0  0  0  0  0
   -7.4035   -5.6143    0.0000 F   0  0  0  0  0  0  0  0  0  0  0  0
   -5.6401   -8.0414    0.0000 F   0  0  0  0  0  0  0  0  0  0  0  0
   -5.3083   -4.4462    0.0000 N   0  0  0  0  0  0  0  0  0  0  0  0
   -3.8817   -3.9826    0.0000 N   0  0  0  0  0  0  0  0  0  0  0  0
  1  2  1  0
  2  3  1  0
  2  4  1  0
  4  5  1  6
  5  6  1  0
  6  7  2  0
  7  8  1  0
  8  9  2  0
  9 10  1  0
 10 11  1  0
 10 12  1  0
 10 13  1  0
  9 14  1  0
 14 15  2  0
 15 16  1  0
  4 17  1  0
 17 18  1  0
 17 19  2  0
 19 20  1  0
 20 21  2  0
 21 22  1  0
 22 23  1  0
 23 24  1  0
 23 25  1  0
 23 26  1  0
 22 27  2  0
 27 28  1  0
 15  6  1  0
 28 20  1  0
M  CHG  1  18  -1
M  END
>  <Compound_ID>  (122) 
C12736728

>  <Active>  (122) 
0

>  <Smiles>  (122) 
CC(C)[C@@H](Nc1ccc(C(F)(F)F)cc1Cl)/C([O-])=N/c1nc(C(F)(F)F)n[nH]1

>  <canonical_smi>  (122) 
CC(C)[C@@H](Nc1ccc(C(F)(F)F)cc1Cl)/C([O-])=N/c1nc(C(F)(F)F)n[nH]1

>  <Set>  (122) 
G2 inactive

>  <Set_type>  (122) 
Train

>  <MW>  (122) 
428.74

>  <HBD>  (122) 
2

>  <HBA>  (122) 
4

>  <NRB>  (122) 
5

>  <NR>  (122) 
2

>  <NAR>  (122) 
2

>  <PSA>  (122) 
89.02

>  <Standard Type>  (122) 
nan

>  <Standard Relation>  (122) 
nan

>  <Standard Units>  (122) 
nan

>  <Standard Value>  (122) 
nan

>  <Assay ChEMBL ID>  (122) 
nan

>  <Assay Description>  (122) 
nan

>  <BAO Label>  (122) 
nan

>  <bits>  (122) 
<rdkit.DataStructs.cDataStructs.ExplicitBitVect object at 0x00000210F8E6ACE0>

>  <Group>  (122) 
G2

$$$$

     RDKit          2D

 24 24  0  0  0  0  0  0  0  0999 V2000
   21.5260  -11.6913    0.0000 O   0  0  0  0  0  0  0  0  0  0  0  0
   20.7760  -10.3923    0.0000 C   0  0  0  0  0  0  0  0  0  0  0  0
   19.2760  -10.3923    0.0000 C   0  0  0  0  0  0  0  0  0  0  0  0
   18.5260  -11.6913    0.0000 O   0  0  0  0  0  0  0  0  0  0  0  0
   18.5260   -9.0933    0.0000 C   0  0  0  0  0  0  0  0  0  0  0  0
   17.0260   -9.0933    0.0000 O   0  0  0  0  0  0  0  0  0  0  0  0
   16.2760   -7.7942    0.0000 C   0  0  0  0  0  0  0  0  0  0  0  0
   14.7760   -7.7942    0.0000 C   0  0  0  0  0  0  0  0  0  0  0  0
   14.0260   -6.4952    0.0000 C   0  0  0  0  0  0  0  0  0  0  0  0
   12.5260   -6.4952    0.0000 C   0  0  0  0  0  0  0  0  0  0  0  0
   11.7760   -5.1962    0.0000 C   0  0  0  0  0  0  0  0  0  0  0  0
   10.2760   -5.1962    0.0000 C   0  0  0  0  0  0  0  0  0  0  0  0
    9.5260   -3.8971    0.0000 C   0  0  0  0  0  0  0  0  0  0  0  0
    8.0260   -3.8971    0.0000 C   0  0  0  0  0  0  0  0  0  0  0  0
    7.2760   -2.5981    0.0000 C   0  0  0  0  0  0  0  0  0  0  0  0
    5.7760   -2.5981    0.0000 C   0  0  0  0  0  0  0  0  0  0  0  0
    5.0260   -1.2990    0.0000 C   0  0  0  0  0  0  0  0  0  0  0  0
    3.5260   -1.2990    0.0000 C   0  0  0  0  0  0  0  0  0  0  0  0
    2.7760    0.0000    0.0000 C   0  0  0  0  0  0  0  0  0  0  0  0
    1.2760    0.0000    0.0000 C   0  0  0  0  0  0  0  0  0  0  0  0
    0.3943    1.2135    0.0000 C   0  0  0  0  0  0  0  0  0  0  0  0
   -1.0323    0.7500    0.0000 C   0  0  0  0  0  0  0  0  0  0  0  0
   -1.0323   -0.7500    0.0000 C   0  0  0  0  0  0  0  0  0  0  0  0
    0.3943   -1.2135    0.0000 C   0  0  0  0  0  0  0  0  0  0  0  0
  1  2  1  0
  2  3  1  0
  3  4  1  6
  3  5  1  0
  5  6  1  0
  6  7  1  0
  7  8  1  0
  8  9  1  0
  9 10  1  0
 10 11  1  0
 11 12  1  0
 12 13  1  0
 13 14  1  0
 14 15  1  0
 15 16  1  0
 16 17  1  0
 17 18  1  0
 18 19  1  0
 20 19  1  6
 20 21  1  0
 21 22  2  0
 22 23  1  0
 23 24  1  0
 24 20  1  0
M  END
>  <Compound_ID>  (123) 
C05600366

>  <Active>  (123) 
0

>  <Smiles>  (123) 
OC[C@H](O)COCCCCCCCCCCCCC[C@H]1C=CCC1

>  <canonical_smi>  (123) 
OC[C@H](O)COCCCCCCCCCCCCC[C@H]1C=CCC1

>  <Set>  (123) 
G2 inactive

>  <Set_type>  (123) 
Train

>  <MW>  (123) 
340.55

>  <HBD>  (123) 
2

>  <HBA>  (123) 
3

>  <NRB>  (123) 
17

>  <NR>  (123) 
1

>  <NAR>  (123) 
0

>  <PSA>  (123) 
49.69

>  <Standard Type>  (123) 
nan

>  <Standard Relation>  (123) 
nan

>  <Standard Units>  (123) 
nan

>  <Standard Value>  (123) 
nan

>  <Assay ChEMBL ID>  (123) 
nan

>  <Assay Description>  (123) 
nan

>  <BAO Label>  (123) 
nan

>  <bits>  (123) 
<rdkit.DataStructs.cDataStructs.ExplicitBitVect object at 0x00000210F8E6A490>

>  <Group>  (123) 
G2

$$$$

     RDKit          2D

 21 20  0  0  0  0  0  0  0  0999 V2000
    0.0000    0.0000    0.0000 C   0  0  0  0  0  0  0  0  0  0  0  0
    1.2990    0.7500    0.0000 C   0  0  0  0  0  0  0  0  0  0  0  0
    2.5981   -0.0000    0.0000 C   0  0  0  0  0  0  0  0  0  0  0  0
    3.8971    0.7500    0.0000 N   0  0  0  0  0  4  0  0  0  0  0  0
    5.1962   -0.0000    0.0000 C   0  0  0  0  0  0  0  0  0  0  0  0
    6.4952    0.7500    0.0000 C   0  0  0  0  0  0  0  0  0  0  0  0
    7.7942   -0.0000    0.0000 C   0  0  0  0  0  0  0  0  0  0  0  0
    9.0933    0.7500    0.0000 N   0  0  0  0  0  0  0  0  0  0  0  0
   10.3923   -0.0000    0.0000 C   0  0  0  0  0  0  0  0  0  0  0  0
   11.6913    0.7500    0.0000 C   0  0  0  0  0  0  0  0  0  0  0  0
   12.9904   -0.0000    0.0000 C   0  0  0  0  0  0  0  0  0  0  0  0
   14.2894    0.7500    0.0000 O   0  0  0  0  0  0  0  0  0  0  0  0
   15.5885   -0.0000    0.0000 C   0  0  0  0  0  0  0  0  0  0  0  0
    9.0933    2.2500    0.0000 C   0  0  0  0  0  0  0  0  0  0  0  0
   10.3923    3.0000    0.0000 C   0  0  0  0  0  0  0  0  0  0  0  0
   10.3923    4.5000    0.0000 O   0  0  0  0  0  0  0  0  0  0  0  0
   11.6913    5.2500    0.0000 C   0  0  0  0  0  0  0  0  0  0  0  0
    5.1962   -1.5000    0.0000 C   0  0  0  0  0  0  0  0  0  0  0  0
    6.6962   -1.5000    0.0000 C   0  0  0  0  0  0  0  0  0  0  0  0
    3.6962   -1.5000    0.0000 C   0  0  0  0  0  0  0  0  0  0  0  0
    5.1962   -3.0000    0.0000 C   0  0  0  0  0  0  0  0  0  0  0  0
  1  2  1  0
  2  3  1  0
  3  4  1  0
  4  5  1  0
  5  6  1  6
  6  7  1  0
  7  8  1  0
  8  9  1  0
  9 10  1  0
 10 11  1  0
 11 12  1  0
 12 13  1  0
  8 14  1  0
 14 15  1  0
 15 16  1  0
 16 17  1  0
  5 18  1  0
 18 19  1  0
 18 20  1  0
 18 21  1  0
M  CHG  1   4   1
M  END
>  <Compound_ID>  (124) 
C54028929

>  <Active>  (124) 
0

>  <Smiles>  (124) 
CCC[NH2+][C@H](CCN(CCCOC)CCOC)C(C)(C)C

>  <canonical_smi>  (124) 
CCC[NH2+][C@H](CCN(CCCOC)CCOC)C(C)(C)C

>  <Set>  (124) 
G2 inactive

>  <Set_type>  (124) 
Train

>  <MW>  (124) 
303.51

>  <HBD>  (124) 
1

>  <HBA>  (124) 
3

>  <NRB>  (124) 
13

>  <NR>  (124) 
0

>  <NAR>  (124) 
0

>  <PSA>  (124) 
38.31

>  <Standard Type>  (124) 
nan

>  <Standard Relation>  (124) 
nan

>  <Standard Units>  (124) 
nan

>  <Standard Value>  (124) 
nan

>  <Assay ChEMBL ID>  (124) 
nan

>  <Assay Description>  (124) 
nan

>  <BAO Label>  (124) 
nan

>  <bits>  (124) 
<rdkit.DataStructs.cDataStructs.ExplicitBitVect object at 0x00000210F8E6A110>

>  <Group>  (124) 
G2

$$$$

     RDKit          2D

 24 23  0  0  0  0  0  0  0  0999 V2000
   -2.2500   -1.2990    0.0000 C   0  0  0  0  0  0  0  0  0  0  0  0
   -0.7500   -1.2990    0.0000 C   0  0  0  0  0  0  0  0  0  0  0  0
    0.0000    0.0000    0.0000 C   0  0  0  0  0  0  0  0  0  0  0  0
    1.5000    0.0000    0.0000 C   0  0  0  0  0  0  0  0  0  0  0  0
    2.2500   -1.2990    0.0000 C   0  0  0  0  0  0  0  0  0  0  0  0
    3.7500   -1.2990    0.0000 C   0  0  0  0  0  0  0  0  0  0  0  0
    4.5000   -2.5981    0.0000 C   0  0  0  0  0  0  0  0  0  0  0  0
    3.7500   -3.8971    0.0000 C   0  0  0  0  0  0  0  0  0  0  0  0
    4.5000   -5.1962    0.0000 C   0  0  0  0  0  0  0  0  0  0  0  0
    3.7500   -6.4952    0.0000 C   0  0  0  0  0  0  0  0  0  0  0  0
    2.2500   -6.4952    0.0000 C   0  0  0  0  0  0  0  0  0  0  0  0
    1.5000   -7.7942    0.0000 C   0  0  0  0  0  0  0  0  0  0  0  0
    2.2500   -9.0933    0.0000 C   0  0  0  0  0  0  0  0  0  0  0  0
    3.7500   -9.0933    0.0000 C   0  0  0  0  0  0  0  0  0  0  0  0
    4.5000  -10.3923    0.0000 C   0  0  0  0  0  0  0  0  0  0  0  0
    3.7500  -11.6913    0.0000 C   0  0  0  0  0  0  0  0  0  0  0  0
    2.2500  -11.6913    0.0000 C   0  0  0  0  0  0  0  0  0  0  0  0
    1.5000  -12.9904    0.0000 C   0  0  0  0  0  0  0  0  0  0  0  0
    2.2500  -14.2894    0.0000 C   0  0  0  0  0  0  0  0  0  0  0  0
    1.5000  -15.5885    0.0000 C   0  0  0  0  0  0  0  0  0  0  0  0
    2.2500  -16.8875    0.0000 C   0  0  0  0  0  0  0  0  0  0  0  0
    1.5000  -18.1865    0.0000 C   0  0  0  0  0  0  0  0  0  0  0  0
    0.0000  -18.1865    0.0000 O   0  0  0  0  0  0  0  0  0  0  0  0
    2.2500  -19.4856    0.0000 O   0  0  0  0  0  1  0  0  0  0  0  0
  1  2  1  0
  2  3  1  0
  3  4  2  0
  4  5  1  0
  5  6  1  0
  6  7  2  0
  7  8  1  0
  8  9  1  0
  9 10  2  0
 10 11  1  0
 11 12  1  0
 12 13  2  0
 13 14  1  0
 14 15  1  0
 15 16  2  0
 16 17  1  0
 17 18  1  0
 18 19  2  0
 19 20  1  0
 20 21  1  0
 21 22  1  0
 22 23  2  0
 22 24  1  0
M  CHG  1  24  -1
M  END
>  <Compound_ID>  (125) 
C64219887

>  <Active>  (125) 
0

>  <Smiles>  (125) 
CC/C=C\C/C=C\C/C=C\C/C=C\C/C=C\C/C=C/CCC(=O)[O-]

>  <canonical_smi>  (125) 
CC/C=C\C/C=C\C/C=C\C/C=C\C/C=C\C/C=C/CCC(=O)[O-]

>  <Set>  (125) 
G2 inactive

>  <Set_type>  (125) 
Train

>  <MW>  (125) 
327.49

>  <HBD>  (125) 
0

>  <HBA>  (125) 
2

>  <NRB>  (125) 
14

>  <NR>  (125) 
0

>  <NAR>  (125) 
0

>  <PSA>  (125) 
40.13

>  <Standard Type>  (125) 
nan

>  <Standard Relation>  (125) 
nan

>  <Standard Units>  (125) 
nan

>  <Standard Value>  (125) 
nan

>  <Assay ChEMBL ID>  (125) 
nan

>  <Assay Description>  (125) 
nan

>  <BAO Label>  (125) 
nan

>  <bits>  (125) 
<rdkit.DataStructs.cDataStructs.ExplicitBitVect object at 0x00000210F8E69E00>

>  <Group>  (125) 
G2

$$$$

     RDKit          2D

 22 24  0  0  0  0  0  0  0  0999 V2000
    1.6910   -7.9557    0.0000 N   0  0  0  0  0  0  0  0  0  0  0  0
    1.8478   -6.4639    0.0000 S   0  0  0  0  0  0  0  0  0  0  0  0
    0.3560   -6.3071    0.0000 O   0  0  0  0  0  0  0  0  0  0  0  0
    3.3396   -6.6207    0.0000 O   0  0  0  0  0  0  0  0  0  0  0  0
    2.0046   -4.9721    0.0000 C   0  0  0  0  0  0  0  0  0  0  0  0
    3.3037   -4.2221    0.0000 C   0  0  0  0  0  0  0  0  0  0  0  0
    2.9918   -2.7549    0.0000 N   0  0  0  0  0  0  0  0  0  0  0  0
    1.5000   -2.5981    0.0000 C   0  0  0  0  0  0  0  0  0  0  0  0
    0.7500   -1.2990    0.0000 N   0  0  0  0  0  0  0  0  0  0  0  0
    1.5000    0.0000    0.0000 C   0  0  0  0  0  0  0  0  0  0  0  0
    0.7500    1.2990    0.0000 C   0  0  0  0  0  0  0  0  0  0  0  0
   -0.7500    1.2990    0.0000 O   0  0  0  0  0  0  0  0  0  0  0  0
   -1.5000    0.0000    0.0000 C   0  0  0  0  0  0  0  0  0  0  0  0
   -3.0000    0.0000    0.0000 C   0  0  0  0  0  0  0  0  0  0  0  0
   -3.7500    1.2990    0.0000 C   0  0  0  0  0  0  0  0  0  0  0  0
   -5.2500    1.2990    0.0000 C   0  0  0  0  0  0  0  0  0  0  0  0
   -6.0000    0.0000    0.0000 C   0  0  0  0  0  0  0  0  0  0  0  0
   -5.2500   -1.2990    0.0000 C   0  0  0  0  0  0  0  0  0  0  0  0
   -3.7500   -1.2990    0.0000 C   0  0  0  0  0  0  0  0  0  0  0  0
   -3.0000   -2.5981    0.0000 F   0  0  0  0  0  0  0  0  0  0  0  0
   -0.7500   -1.2990    0.0000 C   0  0  0  0  0  0  0  0  0  0  0  0
    0.8899   -3.9684    0.0000 S   0  0  0  0  0  0  0  0  0  0  0  0
  1  2  1  0
  2  3  2  0
  2  4  2  0
  2  5  1  0
  5  6  2  0
  6  7  1  0
  7  8  2  0
  8  9  1  0
  9 10  1  0
 10 11  1  0
 11 12  1  0
 12 13  1  0
 13 14  1  6
 14 15  2  0
 15 16  1  0
 16 17  2  0
 17 18  1  0
 18 19  2  0
 19 20  1  0
 13 21  1  0
  8 22  1  0
 22  5  1  0
 21  9  1  0
 19 14  1  0
M  END
>  <Compound_ID>  (126) 
C66814191

>  <Active>  (126) 
0

>  <Smiles>  (126) 
NS(=O)(=O)c1cnc(N2CCO[C@@H](c3ccccc3F)C2)s1

>  <canonical_smi>  (126) 
NS(=O)(=O)c1cnc(N2CCO[C@@H](c3ccccc3F)C2)s1

>  <Set>  (126) 
G2 inactive

>  <Set_type>  (126) 
Train

>  <MW>  (126) 
343.41

>  <HBD>  (126) 
1

>  <HBA>  (126) 
5

>  <NRB>  (126) 
3

>  <NR>  (126) 
3

>  <NAR>  (126) 
2

>  <PSA>  (126) 
85.52

>  <Standard Type>  (126) 
nan

>  <Standard Relation>  (126) 
nan

>  <Standard Units>  (126) 
nan

>  <Standard Value>  (126) 
nan

>  <Assay ChEMBL ID>  (126) 
nan

>  <Assay Description>  (126) 
nan

>  <BAO Label>  (126) 
nan

>  <bits>  (126) 
<rdkit.DataStructs.cDataStructs.ExplicitBitVect object at 0x00000210F8E684A0>

>  <Group>  (126) 
G2

$$$$

     RDKit          2D

 22 25  0  0  0  0  0  0  0  0999 V2000
   -1.0409   -8.3049    0.0000 N   0  0  0  0  0  0  0  0  0  0  0  0
   -0.5773   -6.8783    0.0000 C   0  0  0  0  0  0  0  0  0  0  0  0
   -1.5810   -5.7636    0.0000 O   0  0  0  0  0  0  0  0  0  0  0  0
    0.8899   -6.5665    0.0000 C   0  0  0  0  0  0  0  0  0  0  0  0
    2.0046   -7.5702    0.0000 C   0  0  0  0  0  0  0  0  0  0  0  0
    3.3037   -6.8202    0.0000 C   0  0  0  0  0  0  0  0  0  0  0  0
    4.6740   -7.4303    0.0000 O   0  0  0  0  0  0  0  0  0  0  0  0
    2.9918   -5.3529    0.0000 C   0  0  0  0  0  0  0  0  0  0  0  0
    1.5000   -5.1962    0.0000 N   0  0  0  0  0  0  0  0  0  0  0  0
    0.7500   -3.8971    0.0000 C   0  0  0  0  0  0  0  0  0  0  0  0
   -0.7500   -3.8971    0.0000 O   0  0  0  0  0  0  0  0  0  0  0  0
    1.5000   -2.5981    0.0000 C   0  0  0  0  0  0  0  0  0  0  0  0
    0.7500   -1.2990    0.0000 C   0  0  0  0  0  0  0  0  0  0  0  0
    1.5000    0.0000    0.0000 C   0  0  0  0  0  0  0  0  0  0  0  0
    0.7500    1.2990    0.0000 C   0  0  0  0  0  0  0  0  0  0  0  0
   -0.7500    1.2990    0.0000 C   0  0  0  0  0  0  0  0  0  0  0  0
   -1.5000    0.0000    0.0000 C   0  0  0  0  0  0  0  0  0  0  0  0
    1.7010   -0.7500    0.0000 C   0  0  0  0  0  0  0  0  0  0  0  0
    3.0000   -0.0000    0.0000 C   0  0  0  0  0  0  0  0  0  0  0  0
    2.2500    1.2990    0.0000 C   0  0  0  0  0  0  0  0  0  0  0  0
    2.2500   -1.2990    0.0000 C   0  0  0  0  0  0  0  0  0  0  0  0
   -0.7500   -1.2990    0.0000 C   0  0  0  0  0  0  0  0  0  0  0  0
  1  2  1  0
  2  3  2  0
  4  2  1  6
  4  5  1  0
  5  6  1  0
  6  7  1  1
  6  8  1  0
  8  9  1  0
  9 10  1  0
 10 11  2  0
 10 12  1  0
 12 13  1  0
 13 14  1  0
 14 15  1  0
 15 16  1  0
 16 17  1  0
 17 18  1  0
 18 19  1  0
 19 20  1  0
 19 21  1  0
 17 22  1  0
  9  4  1  0
 21 13  1  0
 22 13  1  0
 20 15  1  0
M  END
>  <Compound_ID>  (127) 
C41058312

>  <Active>  (127) 
0

>  <Smiles>  (127) 
NC(=O)[C@H]1C[C@H](O)CN1C(=O)CC12CC3CC(CC(C3)C1)C2

>  <canonical_smi>  (127) 
NC(=O)[C@H]1C[C@H](O)CN1C(=O)CC12CC3CC(CC(C3)C1)C2

>  <Set>  (127) 
G2 inactive

>  <Set_type>  (127) 
Train

>  <MW>  (127) 
306.41

>  <HBD>  (127) 
2

>  <HBA>  (127) 
3

>  <NRB>  (127) 
3

>  <NR>  (127) 
5

>  <NAR>  (127) 
0

>  <PSA>  (127) 
83.63

>  <Standard Type>  (127) 
nan

>  <Standard Relation>  (127) 
nan

>  <Standard Units>  (127) 
nan

>  <Standard Value>  (127) 
nan

>  <Assay ChEMBL ID>  (127) 
nan

>  <Assay Description>  (127) 
nan

>  <BAO Label>  (127) 
nan

>  <bits>  (127) 
<rdkit.DataStructs.cDataStructs.ExplicitBitVect object at 0x00000210F8E69850>

>  <Group>  (127) 
G2

$$$$

     RDKit          2D

 34 39  0  0  0  0  0  0  0  0999 V2000
   -4.9645    8.8151    0.0000 O   0  0  0  0  0  0  0  0  0  0  0  0
   -3.4727    8.6583    0.0000 C   0  0  0  0  0  0  0  0  0  0  0  0
   -2.8626    7.2880    0.0000 C   0  0  0  0  0  0  0  0  0  0  0  0
   -3.7443    6.0745    0.0000 S   0  0  0  0  0  0  0  0  0  0  0  0
   -3.1342    4.7042    0.0000 C   0  0  0  0  0  0  0  0  0  0  0  0
   -4.0159    3.4906    0.0000 N   0  0  0  0  0  0  0  0  0  0  0  0
   -3.4057    2.1203    0.0000 C   0  0  0  0  0  0  0  0  0  0  0  0
   -4.2874    0.9068    0.0000 N   0  0  0  0  0  0  0  0  0  0  0  0
   -5.7792    1.0636    0.0000 C   0  0  0  0  0  0  0  0  0  0  0  0
   -6.6609   -0.1499    0.0000 C   0  0  0  0  0  0  0  0  0  0  0  0
   -6.0508   -1.5203    0.0000 N   0  0  0  0  0  4  0  0  0  0  0  0
   -6.9325   -2.7338    0.0000 C   0  0  0  0  0  0  0  0  0  0  0  0
   -8.4242   -2.5770    0.0000 C   0  0  0  0  0  0  0  0  0  0  0  0
   -9.0343   -1.2067    0.0000 O   0  0  0  0  0  0  0  0  0  0  0  0
   -9.3059   -3.7905    0.0000 N   0  0  0  0  0  0  0  0  0  0  0  0
   -9.4627   -5.2823    0.0000 C   0  0  0  0  0  0  0  0  0  0  0  0
  -10.6762   -4.4006    0.0000 C   0  0  0  0  0  0  0  0  0  0  0  0
   -4.5590   -1.6771    0.0000 C   0  0  0  0  0  0  0  0  0  0  0  0
   -3.6773   -0.4635    0.0000 C   0  0  0  0  0  0  0  0  0  0  0  0
   -1.9140    1.9635    0.0000 C   0  0  0  0  0  0  0  0  0  0  0  0
   -1.0323    0.7500    0.0000 C   0  0  0  0  0  0  0  0  0  0  0  0
    0.3943    1.2135    0.0000 C   0  0  0  0  0  0  0  0  0  0  0  0
    0.3943    2.7135    0.0000 S   0  0  0  0  0  0  0  0  0  0  0  0
   -1.0323    3.1771    0.0000 C   0  0  0  0  0  0  0  0  0  0  0  0
   -1.6424    4.5474    0.0000 N   0  0  0  0  0  0  0  0  0  0  0  0
    1.2760    0.0000    0.0000 C   0  0  0  0  0  0  0  0  0  0  0  0
    0.3943   -1.2135    0.0000 C   0  0  0  0  0  0  0  0  0  0  0  0
   -1.0323   -0.7500    0.0000 C   0  0  0  0  0  0  0  0  0  0  0  0
   -2.5910    9.8718    0.0000 N   0  0  0  0  0  0  0  0  0  0  0  0
   -1.0992    9.7151    0.0000 C   0  0  0  0  0  0  0  0  0  0  0  0
   -0.2176   10.9286    0.0000 C   0  0  0  0  0  0  0  0  0  0  0  0
   -0.8277   12.2989    0.0000 C   0  0  0  0  0  0  0  0  0  0  0  0
   -2.3195   12.4557    0.0000 C   0  0  0  0  0  0  0  0  0  0  0  0
   -3.2011   11.2422    0.0000 C   0  0  0  0  0  0  0  0  0  0  0  0
  1  2  2  0
  2  3  1  0
  3  4  1  0
  4  5  1  0
  5  6  2  0
  6  7  1  0
  7  8  1  0
  8  9  1  0
  9 10  1  0
 10 11  1  0
 11 12  1  0
 12 13  1  0
 13 14  2  0
 13 15  1  0
 15 16  1  0
 16 17  1  0
 11 18  1  0
 18 19  1  0
  7 20  2  0
 20 21  1  0
 21 22  2  0
 22 23  1  0
 23 24  1  0
 24 25  2  0
 22 26  1  0
 26 27  1  0
 27 28  1  0
  2 29  1  0
 29 30  1  0
 30 31  1  0
 31 32  1  0
 32 33  1  0
 33 34  1  0
 25  5  1  0
 34 29  1  0
 19  8  1  0
 24 20  1  0
 17 15  1  0
 28 21  1  0
M  CHG  1  11   1
M  END
>  <Compound_ID>  (128) 
C34757879

>  <Active>  (128) 
0

>  <Smiles>  (128) 
O=C(CSc1nc(N2CC[NH+](CC(=O)N3CC3)CC2)c2c3c(sc2n1)CCC3)N1CCCCC1

>  <canonical_smi>  (128) 
O=C(CSc1nc(N2CC[NH+](CC(=O)N3CC3)CC2)c2c3c(sc2n1)CCC3)N1CCCCC1

>  <Set>  (128) 
G2 inactive

>  <Set_type>  (128) 
Train

>  <MW>  (128) 
501.7

>  <HBD>  (128) 
1

>  <HBA>  (128) 
6

>  <NRB>  (128) 
6

>  <NR>  (128) 
6

>  <NAR>  (128) 
2

>  <PSA>  (128) 
73.85

>  <Standard Type>  (128) 
nan

>  <Standard Relation>  (128) 
nan

>  <Standard Units>  (128) 
nan

>  <Standard Value>  (128) 
nan

>  <Assay ChEMBL ID>  (128) 
nan

>  <Assay Description>  (128) 
nan

>  <BAO Label>  (128) 
nan

>  <bits>  (128) 
<rdkit.DataStructs.cDataStructs.ExplicitBitVect object at 0x00000210F8E69700>

>  <Group>  (128) 
G2

$$$$

     RDKit          2D

 27 30  0  0  0  0  0  0  0  0999 V2000
    2.1595   -1.8121    0.0000 O   0  0  0  0  0  0  0  0  0  0  0  0
    0.7500   -1.2990    0.0000 P   0  0  0  0  0  5  0  0  0  0  0  0
    0.4895   -2.7762    0.0000 S   0  0  0  0  0  0  0  0  0  0  0  0
    1.9667   -3.0367    0.0000 O   0  0  0  0  0  0  0  0  0  0  0  0
    0.2291   -4.2535    0.0000 O   0  0  0  0  0  0  0  0  0  0  0  0
   -0.9877   -2.5158    0.0000 O   0  0  0  0  0  0  0  0  0  0  0  0
   -1.9519   -3.6648    0.0000 C   0  0  0  0  0  0  0  0  0  0  0  0
   -3.4291   -3.4044    0.0000 C   0  0  0  0  0  0  0  0  0  0  0  0
   -4.3933   -4.5534    0.0000 C   0  0  0  0  0  0  0  0  0  0  0  0
   -3.8802   -5.9630    0.0000 C   0  0  0  0  0  0  0  0  0  0  0  0
   -2.4030   -6.2234    0.0000 C   0  0  0  0  0  0  0  0  0  0  0  0
   -1.4388   -5.0744    0.0000 C   0  0  0  0  0  0  0  0  0  0  0  0
    1.5000    0.0000    0.0000 N   0  0  0  0  0  0  0  0  0  0  0  0
    0.7500    1.2990    0.0000 N   0  0  0  0  0  4  0  0  0  0  0  0
    1.5000    2.5981    0.0000 C   0  0  0  0  0  0  0  0  0  0  0  0
    0.7500    3.8971    0.0000 C   0  0  0  0  0  0  0  0  0  0  0  0
    1.5000    5.1962    0.0000 C   0  0  0  0  0  0  0  0  0  0  0  0
    0.7500    6.4952    0.0000 C   0  0  0  0  0  0  0  0  0  0  0  0
    1.5000    7.7942    0.0000 Cl  0  0  0  0  0  0  0  0  0  0  0  0
   -0.7500    6.4952    0.0000 C   0  0  0  0  0  0  0  0  0  0  0  0
   -1.5000    7.7942    0.0000 Cl  0  0  0  0  0  0  0  0  0  0  0  0
   -1.5000    5.1962    0.0000 C   0  0  0  0  0  0  0  0  0  0  0  0
   -0.7500    3.8971    0.0000 C   0  0  0  0  0  0  0  0  0  0  0  0
   -1.5000    2.5981    0.0000 C   0  0  0  0  0  0  0  0  0  0  0  0
   -0.7500    1.2990    0.0000 C   0  0  0  0  0  0  0  0  0  0  0  0
   -1.5000    0.0000    0.0000 C   0  0  0  0  0  0  0  0  0  0  0  0
   -0.7500   -1.2990    0.0000 O   0  0  0  0  0  0  0  0  0  0  0  0
  1  2  2  0
  2  3  1  1
  3  4  2  0
  3  5  2  0
  3  6  1  0
  6  7  1  0
  7  8  2  0
  8  9  1  0
  9 10  2  0
 10 11  1  0
 11 12  2  0
  2 13  1  0
 13 14  1  0
 14 15  1  0
 16 15  1  1
 16 17  1  0
 17 18  2  0
 18 19  1  0
 18 20  1  0
 20 21  1  0
 20 22  2  0
 22 23  1  0
 23 24  1  1
 25 24  1  1
 25 26  1  0
 26 27  1  0
 27  2  1  0
 12  7  1  0
 25 14  1  0
 23 16  1  0
M  CHG  1  14   1
M  END
>  <Compound_ID>  (129) 
C39469744

>  <Active>  (129) 
0

>  <Smiles>  (129) 
O=[P@@]1(S(=O)(=O)Oc2ccccc2)N[NH+]2C[C@@H]3C=C(Cl)C(Cl)=C[C@@H]3C[C@@H]2CO1

>  <canonical_smi>  (129) 
O=[P@@]1(S(=O)(=O)Oc2ccccc2)N[NH+]2C[C@@H]3C=C(Cl)C(Cl)=C[C@@H]3C[C@@H]2CO1

>  <Set>  (129) 
G2 inactive

>  <Set_type>  (129) 
Train

>  <MW>  (129) 
452.28

>  <HBD>  (129) 
2

>  <HBA>  (129) 
6

>  <NRB>  (129) 
3

>  <NR>  (129) 
4

>  <NAR>  (129) 
1

>  <PSA>  (129) 
86.14

>  <Standard Type>  (129) 
nan

>  <Standard Relation>  (129) 
nan

>  <Standard Units>  (129) 
nan

>  <Standard Value>  (129) 
nan

>  <Assay ChEMBL ID>  (129) 
nan

>  <Assay Description>  (129) 
nan

>  <BAO Label>  (129) 
nan

>  <bits>  (129) 
<rdkit.DataStructs.cDataStructs.ExplicitBitVect object at 0x00000210F8E69FC0>

>  <Group>  (129) 
G2

$$$$

     RDKit          2D

 16 17  0  0  0  0  0  0  0  0999 V2000
    3.7500   -3.8971    0.0000 C   0  0  0  0  0  0  0  0  0  0  0  0
    3.0000   -2.5981    0.0000 C   0  0  0  0  0  0  0  0  0  0  0  0
    1.5000   -2.5981    0.0000 N   0  0  0  0  0  0  0  0  0  0  0  0
    0.7500   -1.2990    0.0000 C   0  0  0  0  0  0  0  0  0  0  0  0
    1.5000    0.0000    0.0000 N   0  0  0  0  0  0  0  0  0  0  0  0
    0.7500    1.2990    0.0000 C   0  0  0  0  0  0  0  0  0  0  0  0
   -0.7500    1.2990    0.0000 C   0  0  0  0  0  0  0  0  0  0  0  0
   -1.5000    2.5981    0.0000 Br  0  0  0  0  0  0  0  0  0  0  0  0
   -1.5000    0.0000    0.0000 C   0  0  0  0  0  0  0  0  0  0  0  0
   -0.7500   -1.2990    0.0000 C   0  0  0  0  0  0  0  0  0  0  0  0
   -1.5000   -2.5981    0.0000 N   0  0  0  0  0  0  0  0  0  0  0  0
    3.7500   -1.2990    0.0000 C   0  0  0  0  0  0  0  0  0  0  0  0
    3.1399    0.0713    0.0000 N   0  0  0  0  0  0  0  0  0  0  0  0
    4.2546    1.0750    0.0000 N   0  0  0  0  0  0  0  0  0  0  0  0
    5.5537    0.3250    0.0000 N   0  0  0  0  0  0  0  0  0  0  0  0
    5.2418   -1.1422    0.0000 N   0  0  0  0  0  2  0  0  0  0  0  0
  2  1  1  6
  2  3  1  0
  3  4  1  0
  4  5  2  0
  5  6  1  0
  6  7  2  0
  7  8  1  0
  7  9  1  0
  9 10  2  0
 10 11  1  0
  2 12  1  0
 12 13  2  0
 13 14  1  0
 14 15  2  0
 15 16  1  0
 10  4  1  0
 16 12  1  0
M  CHG  1  16  -1
M  END
>  <Compound_ID>  (130) 
C44925149

>  <Active>  (130) 
0

>  <Smiles>  (130) 
C[C@H](Nc1ncc(Br)cc1N)c1nnn[n-]1

>  <canonical_smi>  (130) 
C[C@H](Nc1ncc(Br)cc1N)c1nnn[n-]1

>  <Set>  (130) 
G2 inactive

>  <Set_type>  (130) 
Train

>  <MW>  (130) 
283.11

>  <HBD>  (130) 
2

>  <HBA>  (130) 
7

>  <NRB>  (130) 
3

>  <NR>  (130) 
2

>  <NAR>  (130) 
2

>  <PSA>  (130) 
103.71

>  <Standard Type>  (130) 
nan

>  <Standard Relation>  (130) 
nan

>  <Standard Units>  (130) 
nan

>  <Standard Value>  (130) 
nan

>  <Assay ChEMBL ID>  (130) 
nan

>  <Assay Description>  (130) 
nan

>  <BAO Label>  (130) 
nan

>  <bits>  (130) 
<rdkit.DataStructs.cDataStructs.ExplicitBitVect object at 0x00000210F8E68EB0>

>  <Group>  (130) 
G2

$$$$

     RDKit          2D

 25 27  0  0  0  0  0  0  0  0999 V2000
    3.0000   -2.5981    0.0000 C   0  0  0  0  0  0  0  0  0  0  0  0
    1.5000   -2.5981    0.0000 N   0  0  0  0  0  0  0  0  0  0  0  0
    0.7500   -1.2990    0.0000 C   0  0  0  0  0  0  0  0  0  0  0  0
    1.5000    0.0000    0.0000 N   0  0  0  0  0  0  0  0  0  0  0  0
    0.7500    1.2990    0.0000 C   0  0  0  0  0  0  0  0  0  0  0  0
   -0.7500    1.2990    0.0000 N   0  0  0  0  0  0  0  0  0  0  0  0
   -1.5000    0.0000    0.0000 C   0  0  0  0  0  0  0  0  0  0  0  0
   -3.0000    0.0000    0.0000 N   0  0  0  0  0  0  0  0  0  0  0  0
   -3.7500    1.2990    0.0000 C   0  0  0  0  0  0  0  0  0  0  0  0
   -3.0000    2.5981    0.0000 C   0  0  0  0  0  0  0  0  0  0  0  0
   -3.7500    3.8971    0.0000 C   0  0  0  0  0  0  0  0  0  0  0  0
   -3.0000    5.1962    0.0000 Cl  0  0  0  0  0  0  0  0  0  0  0  0
   -5.2500    3.8971    0.0000 C   0  0  0  0  0  0  0  0  0  0  0  0
   -6.0000    2.5981    0.0000 C   0  0  0  0  0  0  0  0  0  0  0  0
   -5.2500    1.2990    0.0000 C   0  0  0  0  0  0  0  0  0  0  0  0
   -6.0000    0.0000    0.0000 Cl  0  0  0  0  0  0  0  0  0  0  0  0
   -0.7500   -1.2990    0.0000 C   0  0  0  0  0  0  0  0  0  0  0  0
   -1.5000   -2.5981    0.0000 N   0  0  0  0  0  0  0  0  0  0  0  0
    0.7500   -3.8971    0.0000 C   0  0  0  0  0  0  0  0  0  0  0  0
   -0.7500   -3.8971    0.0000 C   0  0  0  0  0  0  0  0  0  0  0  0
   -1.5000   -5.1962    0.0000 C   0  0  0  0  0  0  0  0  0  0  0  0
   -0.7500   -6.4952    0.0000 N   0  0  0  0  0  4  0  0  0  0  0  0
   -1.5000   -7.7942    0.0000 C   0  0  0  0  0  0  0  0  0  0  0  0
    0.7500   -6.4952    0.0000 C   0  0  0  0  0  0  0  0  0  0  0  0
    1.5000   -5.1962    0.0000 C   0  0  0  0  0  0  0  0  0  0  0  0
  1  2  1  0
  2  3  1  0
  3  4  2  0
  4  5  1  0
  5  6  2  0
  6  7  1  0
  7  8  1  0
  8  9  1  0
  9 10  2  0
 10 11  1  0
 11 12  1  0
 11 13  2  0
 13 14  1  0
 14 15  2  0
 15 16  1  0
  7 17  2  0
 17 18  1  0
  2 19  1  0
 19 20  1  0
 20 21  1  0
 21 22  1  0
 22 23  1  0
 22 24  1  0
 24 25  1  0
 17  3  1  0
 25 19  1  0
 15  9  1  0
M  CHG  1  22   1
M  END
>  <Compound_ID>  (131) 
C40778405

>  <Active>  (131) 
0

>  <Smiles>  (131) 
CN(c1ncnc(Nc2cc(Cl)ccc2Cl)c1N)C1CC[NH+](C)CC1

>  <canonical_smi>  (131) 
CN(c1ncnc(Nc2cc(Cl)ccc2Cl)c1N)C1CC[NH+](C)CC1

>  <Set>  (131) 
G2 inactive

>  <Set_type>  (131) 
Train

>  <MW>  (131) 
382.32

>  <HBD>  (131) 
3

>  <HBA>  (131) 
5

>  <NRB>  (131) 
4

>  <NR>  (131) 
3

>  <NAR>  (131) 
2

>  <PSA>  (131) 
71.51

>  <Standard Type>  (131) 
nan

>  <Standard Relation>  (131) 
nan

>  <Standard Units>  (131) 
nan

>  <Standard Value>  (131) 
nan

>  <Assay ChEMBL ID>  (131) 
nan

>  <Assay Description>  (131) 
nan

>  <BAO Label>  (131) 
nan

>  <bits>  (131) 
<rdkit.DataStructs.cDataStructs.ExplicitBitVect object at 0x00000210F8E6B990>

>  <Group>  (131) 
G2

$$$$

     RDKit          2D

 20 21  0  0  0  0  0  0  0  0999 V2000
   -3.6161    1.0216    0.0000 C   0  0  0  0  0  0  0  0  0  0  0  0
   -2.2458    1.6317    0.0000 C   0  0  0  0  0  0  0  0  0  0  0  0
   -2.0890    3.1235    0.0000 C   0  0  0  0  0  0  0  0  0  0  0  0
   -1.0323    0.7500    0.0000 N   0  0  0  0  0  0  0  0  0  0  0  0
    0.3943    1.2135    0.0000 C   0  0  0  0  0  0  0  0  0  0  0  0
    0.8578    2.6401    0.0000 S   0  0  0  0  0  0  0  0  0  0  0  0
    2.3250    2.9520    0.0000 C   0  0  0  0  0  0  0  0  0  0  0  0
    2.7886    4.3786    0.0000 C   0  0  0  0  0  0  0  0  0  0  0  0
    4.2152    4.8421    0.0000 C   0  0  0  0  0  0  0  0  0  0  0  0
    4.2152    6.3421    0.0000 C   0  0  0  0  0  0  0  0  0  0  0  0
    2.7886    6.8056    0.0000 C   0  0  0  0  0  0  0  0  0  0  0  0
    2.3250    8.2322    0.0000 Br  0  0  0  0  0  0  0  0  0  0  0  0
    1.9069    5.5921    0.0000 S   0  0  0  0  0  0  0  0  0  0  0  0
    3.3287    1.8373    0.0000 C   0  0  0  0  0  0  0  0  0  0  0  0
    4.7960    2.1491    0.0000 C   0  0  0  0  0  0  0  0  0  0  0  0
    2.8652    0.4107    0.0000 N   0  0  0  0  0  4  0  0  0  0  0  0
    1.2760   -0.0000    0.0000 N   0  0  0  0  0  0  0  0  0  0  0  0
    0.3943   -1.2135    0.0000 N   0  0  0  0  0  0  0  0  0  0  0  0
   -1.0323   -0.7500    0.0000 C   0  0  0  0  0  0  0  0  0  0  0  0
   -2.2458   -1.6317    0.0000 O   0  0  0  0  0  0  0  0  0  0  0  0
  1  2  1  0
  2  3  1  0
  2  4  1  0
  4  5  1  0
  5  6  1  0
  7  6  1  1
  7  8  1  0
  8  9  2  0
  9 10  1  0
 10 11  2  0
 11 12  1  0
 11 13  1  0
  7 14  1  0
 14 15  1  6
 14 16  1  0
  5 17  2  0
 17 18  1  0
 18 19  1  0
 19 20  2  0
 19  4  1  0
 13  8  1  0
M  CHG  1  16   1
M  END
>  <Compound_ID>  (132) 
C61595211

>  <Active>  (132) 
0

>  <Smiles>  (132) 
CC(C)n1c(S[C@@H](c2ccc(Br)s2)[C@H](C)[NH3+])n[nH]c1=O

>  <canonical_smi>  (132) 
CC(C)n1c(S[C@@H](c2ccc(Br)s2)[C@H](C)[NH3+])n[nH]c1=O

>  <Set>  (132) 
G2 inactive

>  <Set_type>  (132) 
Train

>  <MW>  (132) 
378.34

>  <HBD>  (132) 
2

>  <HBA>  (132) 
3

>  <NRB>  (132) 
5

>  <NR>  (132) 
2

>  <NAR>  (132) 
2

>  <PSA>  (132) 
78.32

>  <Standard Type>  (132) 
nan

>  <Standard Relation>  (132) 
nan

>  <Standard Units>  (132) 
nan

>  <Standard Value>  (132) 
nan

>  <Assay ChEMBL ID>  (132) 
nan

>  <Assay Description>  (132) 
nan

>  <BAO Label>  (132) 
nan

>  <bits>  (132) 
<rdkit.DataStructs.cDataStructs.ExplicitBitVect object at 0x00000210F8E68890>

>  <Group>  (132) 
G2

$$$$

     RDKit          2D

 19 20  0  0  0  0  0  0  0  0999 V2000
    3.7500   -1.2990    0.0000 C   0  0  0  0  0  0  0  0  0  0  0  0
    3.0000    0.0000    0.0000 O   0  0  0  0  0  0  0  0  0  0  0  0
    1.5000    0.0000    0.0000 C   0  0  0  0  0  0  0  0  0  0  0  0
    0.7500   -1.2990    0.0000 C   0  0  0  0  0  0  0  0  0  0  0  0
    1.5000   -2.5981    0.0000 Br  0  0  0  0  0  0  0  0  0  0  0  0
   -0.7500   -1.2990    0.0000 C   0  0  0  0  0  0  0  0  0  0  0  0
   -1.5000    0.0000    0.0000 C   0  0  0  0  0  0  0  0  0  0  0  0
   -3.0000    0.0000    0.0000 C   0  0  0  0  0  0  0  0  0  0  0  0
   -3.7500    1.2990    0.0000 N   0  0  0  0  0  4  0  0  0  0  0  0
   -5.2500    1.2990    0.0000 C   0  0  0  0  0  0  0  0  0  0  0  0
   -6.0000    2.5981    0.0000 C   0  0  0  0  0  0  0  0  0  0  0  0
   -7.4918    2.7549    0.0000 C   0  0  0  0  0  0  0  0  0  0  0  0
   -7.8037    4.2221    0.0000 N   0  0  0  0  0  0  0  0  0  0  0  0
   -6.5046    4.9721    0.0000 N   0  0  0  0  0  0  0  0  0  0  0  0
   -5.3899    3.9684    0.0000 C   0  0  0  0  0  0  0  0  0  0  0  0
   -3.9227    4.2803    0.0000 C   0  0  0  0  0  0  0  0  0  0  0  0
   -0.7500    1.2990    0.0000 C   0  0  0  0  0  0  0  0  0  0  0  0
    0.7500    1.2990    0.0000 C   0  0  0  0  0  0  0  0  0  0  0  0
    1.5000    2.5981    0.0000 Br  0  0  0  0  0  0  0  0  0  0  0  0
  1  2  1  0
  2  3  1  0
  3  4  2  0
  4  5  1  0
  4  6  1  0
  6  7  2  0
  7  8  1  0
  8  9  1  0
  9 10  1  0
 10 11  1  0
 11 12  2  0
 12 13  1  0
 13 14  1  0
 14 15  2  0
 15 16  1  0
  7 17  1  0
 17 18  2  0
 18 19  1  0
 18  3  1  0
 15 11  1  0
M  CHG  1   9   1
M  END
>  <Compound_ID>  (133) 
C37991378

>  <Active>  (133) 
0

>  <Smiles>  (133) 
COc1c(Br)cc(C[NH2+]Cc2c[nH]nc2C)cc1Br

>  <canonical_smi>  (133) 
COc1c(Br)cc(C[NH2+]Cc2c[nH]nc2C)cc1Br

>  <Set>  (133) 
G2 inactive

>  <Set_type>  (133) 
Train

>  <MW>  (133) 
390.1

>  <HBD>  (133) 
2

>  <HBA>  (133) 
2

>  <NRB>  (133) 
5

>  <NR>  (133) 
2

>  <NAR>  (133) 
2

>  <PSA>  (133) 
54.52

>  <Standard Type>  (133) 
nan

>  <Standard Relation>  (133) 
nan

>  <Standard Units>  (133) 
nan

>  <Standard Value>  (133) 
nan

>  <Assay ChEMBL ID>  (133) 
nan

>  <Assay Description>  (133) 
nan

>  <BAO Label>  (133) 
nan

>  <bits>  (133) 
<rdkit.DataStructs.cDataStructs.ExplicitBitVect object at 0x00000210F8E68820>

>  <Group>  (133) 
G2

$$$$

     RDKit          2D

 32 35  0  0  0  0  0  0  0  0999 V2000
    0.7716    6.7511    0.0000 C   0  0  0  0  0  0  0  0  0  0  0  0
   -0.2487    5.6515    0.0000 N   0  0  0  0  0  4  0  0  0  0  0  0
    0.1935    4.2182    0.0000 C   0  0  0  0  0  0  0  0  0  0  0  0
    1.6559    3.8844    0.0000 C   0  0  0  0  0  0  0  0  0  0  0  0
    2.0980    2.4510    0.0000 C   0  0  0  0  0  0  0  0  0  0  0  0
    1.0777    1.3515    0.0000 C   0  0  0  0  0  0  0  0  0  0  0  0
    1.7286    0.0000    0.0000 C   0  0  0  0  0  0  0  0  0  0  0  0
    1.0777   -1.3515    0.0000 C   0  0  0  0  0  0  0  0  0  0  0  0
    2.0980   -2.4510    0.0000 C   0  0  0  0  0  0  0  0  0  0  0  0
    1.6559   -3.8844    0.0000 C   0  0  0  0  0  0  0  0  0  0  0  0
    0.1935   -4.2182    0.0000 C   0  0  0  0  0  0  0  0  0  0  0  0
    1.0932   -5.4184    0.0000 C   0  0  0  0  0  0  0  0  0  0  0  0
   -0.5370   -5.5283    0.0000 C   0  0  0  0  0  0  0  0  0  0  0  0
    0.0935   -6.8893    0.0000 C   0  0  0  0  0  0  0  0  0  0  0  0
   -0.7699   -8.1159    0.0000 C   0  0  0  0  0  0  0  0  0  0  0  0
    1.5875   -7.0238    0.0000 N   0  0  0  0  0  0  0  0  0  0  0  0
    2.4509   -5.7972    0.0000 C   0  0  0  0  0  0  0  0  0  0  0  0
    2.2180   -8.3848    0.0000 C   0  0  0  0  0  0  0  0  0  0  0  0
    3.7120   -8.5193    0.0000 C   0  0  0  0  0  0  0  0  0  0  0  0
    1.3546   -9.6114    0.0000 O   0  0  0  0  0  0  0  0  0  0  0  0
   -2.0087   -5.2384    0.0000 C   0  0  0  0  0  0  0  0  0  0  0  0
   -3.1083   -6.2587    0.0000 O   0  0  0  0  0  0  0  0  0  0  0  0
   -2.1878   -3.7491    0.0000 C   0  0  0  0  0  0  0  0  0  0  0  0
   -0.8268   -3.1186    0.0000 C   0  0  0  0  0  0  0  0  0  0  0  0
   -1.9564   -2.1317    0.0000 C   0  0  0  0  0  0  0  0  0  0  0  0
   -0.3846   -1.6852    0.0000 C   0  0  0  0  0  0  0  0  0  0  0  0
   -1.5574   -0.7500    0.0000 C   0  0  0  0  0  0  0  0  0  0  0  0
   -1.5574    0.7500    0.0000 C   0  0  0  0  0  0  0  0  0  0  0  0
   -0.3846    1.6852    0.0000 C   0  0  0  0  0  0  0  0  0  0  0  0
   -0.8268    3.1186    0.0000 C   0  0  0  0  0  0  0  0  0  0  0  0
   -2.1616    2.4343    0.0000 C   0  0  0  0  0  0  0  0  0  0  0  0
   -1.7325    4.3143    0.0000 C   0  0  0  0  0  0  0  0  0  0  0  0
  1  2  1  0
  3  2  1  1
  3  4  1  0
  4  5  1  0
  5  6  1  0
  6  7  2  0
  7  8  1  0
  8  9  2  0
  9 10  1  0
 10 11  1  0
 11 12  1  6
 11 13  1  0
 13 14  1  1
 14 15  1  1
 14 16  1  0
 16 17  1  0
 16 18  1  0
 18 19  1  0
 18 20  2  0
 13 21  1  0
 21 22  1  6
 21 23  1  0
 23 24  1  0
 24 25  1  1
 24 26  1  0
 26 27  1  6
 27 28  1  0
 29 28  1  1
 29 30  1  0
 30 31  1  0
 30 32  1  0
 30  3  1  0
 29  6  1  0
 26  8  1  0
 24 11  1  0
M  CHG  1   2   1
M  END
>  <Compound_ID>  (134) 
C43510589

>  <Active>  (134) 
0

>  <Smiles>  (134) 
C[NH2+][C@H]1CCC2=CC3=CC[C@@]4(C)[C@@H]([C@H](C)N(C)C(C)=O)[C@H](O)C[C@]4(C)[C@@H]3CC[C@H]2C1(C)C

>  <canonical_smi>  (134) 
C[NH2+][C@H]1CCC2=CC3=CC[C@@]4(C)[C@@H]([C@H](C)N(C)C(C)=O)[C@H](O)C[C@]4(C)[C@@H]3CC[C@H]2C1(C)C

>  <Set>  (134) 
G2 inactive

>  <Set_type>  (134) 
Train

>  <MW>  (134) 
443.7

>  <HBD>  (134) 
2

>  <HBA>  (134) 
2

>  <NRB>  (134) 
3

>  <NR>  (134) 
4

>  <NAR>  (134) 
0

>  <PSA>  (134) 
57.15

>  <Standard Type>  (134) 
nan

>  <Standard Relation>  (134) 
nan

>  <Standard Units>  (134) 
nan

>  <Standard Value>  (134) 
nan

>  <Assay ChEMBL ID>  (134) 
nan

>  <Assay Description>  (134) 
nan

>  <BAO Label>  (134) 
nan

>  <bits>  (134) 
<rdkit.DataStructs.cDataStructs.ExplicitBitVect object at 0x00000210F8E68660>

>  <Group>  (134) 
G2

$$$$

     RDKit          2D

 35 40  0  0  0  0  0  0  0  0999 V2000
    3.0000    0.0000    0.0000 F   0  0  0  0  0  0  0  0  0  0  0  0
    1.5000    0.0000    0.0000 C   0  0  0  0  0  0  0  0  0  0  0  0
    0.7500   -1.2990    0.0000 C   0  0  0  0  0  0  0  0  0  0  0  0
   -0.7500   -1.2990    0.0000 C   0  0  0  0  0  0  0  0  0  0  0  0
   -1.5000    0.0000    0.0000 C   0  0  0  0  0  0  0  0  0  0  0  0
   -2.9672    0.3119    0.0000 N   0  0  0  0  0  0  0  0  0  0  0  0
   -3.1240    1.8037    0.0000 C   0  0  0  0  0  0  0  0  0  0  0  0
   -4.4231    2.5537    0.0000 C   0  0  0  0  0  0  0  0  0  0  0  0
   -4.4231    4.0537    0.0000 C   0  0  0  0  0  0  0  0  0  0  0  0
   -5.7221    4.8037    0.0000 C   0  0  0  0  0  0  0  0  0  0  0  0
   -7.0211    4.0537    0.0000 C   0  0  0  0  0  0  0  0  0  0  0  0
   -7.0211    2.5537    0.0000 C   0  0  0  0  0  0  0  0  0  0  0  0
   -8.3202    1.8037    0.0000 C   0  0  0  0  0  0  0  0  0  0  0  0
   -9.6192    2.5537    0.0000 C   0  0  0  0  0  0  0  0  0  0  0  0
  -10.9182    1.8037    0.0000 C   0  0  0  0  0  0  0  0  0  0  0  0
  -10.9182    0.3037    0.0000 C   0  0  0  0  0  0  0  0  0  0  0  0
   -9.6192   -0.4463    0.0000 C   0  0  0  0  0  0  0  0  0  0  0  0
   -9.6192   -1.9463    0.0000 C   0  0  0  0  0  0  0  0  0  0  0  0
  -10.9182   -2.6963    0.0000 N   0  0  0  0  0  0  0  0  0  0  0  0
  -12.2173   -1.9463    0.0000 C   0  0  0  0  0  0  0  0  0  0  0  0
  -13.5163   -2.6963    0.0000 C   0  0  0  0  0  0  0  0  0  0  0  0
  -13.5163   -4.1963    0.0000 N   0  0  0  0  0  0  0  0  0  0  0  0
  -14.8154   -4.9463    0.0000 C   0  0  0  0  0  0  0  0  0  0  0  0
  -16.1144   -4.1963    0.0000 C   0  0  0  0  0  0  0  0  0  0  0  0
  -17.4134   -4.9463    0.0000 C   0  0  0  0  0  0  0  0  0  0  0  0
  -17.4134   -6.4463    0.0000 N   0  0  0  0  0  4  0  0  0  0  0  0
  -16.1144   -7.1963    0.0000 C   0  0  0  0  0  0  0  0  0  0  0  0
  -14.8154   -6.4463    0.0000 C   0  0  0  0  0  0  0  0  0  0  0  0
  -12.2173   -4.9463    0.0000 C   0  0  0  0  0  0  0  0  0  0  0  0
  -10.9182   -4.1963    0.0000 C   0  0  0  0  0  0  0  0  0  0  0  0
   -8.3202    0.3037    0.0000 C   0  0  0  0  0  0  0  0  0  0  0  0
   -5.7221    1.8037    0.0000 C   0  0  0  0  0  0  0  0  0  0  0  0
   -1.7537    2.4138    0.0000 N   0  0  0  0  0  0  0  0  0  0  0  0
   -0.7500    1.2990    0.0000 C   0  0  0  0  0  0  0  0  0  0  0  0
    0.7500    1.2990    0.0000 C   0  0  0  0  0  0  0  0  0  0  0  0
  1  2  1  0
  2  3  2  0
  3  4  1  0
  4  5  2  0
  5  6  1  0
  6  7  2  0
  7  8  1  0
  8  9  2  0
  9 10  1  0
 10 11  2  0
 11 12  1  0
 12 13  1  0
 13 14  2  0
 14 15  1  0
 15 16  2  0
 16 17  1  0
 17 18  1  0
 18 19  1  0
 19 20  1  0
 20 21  1  0
 21 22  1  0
 22 23  1  0
 23 24  2  0
 24 25  1  0
 25 26  2  0
 26 27  1  0
 27 28  2  0
 22 29  1  0
 29 30  1  0
 17 31  2  0
 12 32  2  0
  7 33  1  0
 33 34  1  0
 34 35  2  0
 35  2  1  0
 34  5  1  0
 32  8  1  0
 31 13  1  0
 30 19  1  0
 28 23  1  0
M  CHG  1  26   1
M  END
>  <Compound_ID>  (135) 
C45169041

>  <Active>  (135) 
0

>  <Smiles>  (135) 
Fc1ccc2nc(-c3cccc(-c4cccc(CN5CCN(c6cc[nH+]cc6)CC5)c4)c3)[nH]c2c1

>  <canonical_smi>  (135) 
Fc1ccc2nc(-c3cccc(-c4cccc(CN5CCN(c6cc[nH+]cc6)CC5)c4)c3)[nH]c2c1

>  <Set>  (135) 
G2 inactive

>  <Set_type>  (135) 
Train

>  <MW>  (135) 
464.57

>  <HBD>  (135) 
1

>  <HBA>  (135) 
3

>  <NRB>  (135) 
5

>  <NR>  (135) 
6

>  <NAR>  (135) 
5

>  <PSA>  (135) 
49.3

>  <Standard Type>  (135) 
nan

>  <Standard Relation>  (135) 
nan

>  <Standard Units>  (135) 
nan

>  <Standard Value>  (135) 
nan

>  <Assay ChEMBL ID>  (135) 
nan

>  <Assay Description>  (135) 
nan

>  <BAO Label>  (135) 
nan

>  <bits>  (135) 
<rdkit.DataStructs.cDataStructs.ExplicitBitVect object at 0x00000210F8E6A7A0>

>  <Group>  (135) 
G2

$$$$

     RDKit          2D

 28 31  0  0  0  0  0  0  0  0999 V2000
   -2.6401   -5.5255    0.0000 O   0  0  0  0  0  0  0  0  0  0  0  0
   -1.2135   -5.9890    0.0000 C   0  0  0  0  0  0  0  0  0  0  0  0
   -0.7500   -7.4156    0.0000 C   0  0  0  0  0  0  0  0  0  0  0  0
   -1.6317   -8.6291    0.0000 C   0  0  0  0  0  0  0  0  0  0  0  0
   -1.0216   -9.9994    0.0000 N   0  0  0  0  0  0  0  0  0  0  0  0
   -1.9033  -11.2129    0.0000 C   0  0  0  0  0  0  0  0  0  0  0  0
   -1.2931  -12.5833    0.0000 C   0  0  0  0  0  0  0  0  0  0  0  0
   -2.1748  -13.7968    0.0000 C   0  0  0  0  0  0  0  0  0  0  0  0
   -1.7113  -15.2234    0.0000 C   0  0  0  0  0  0  0  0  0  0  0  0
   -2.9248  -16.1050    0.0000 N   0  0  0  0  0  0  0  0  0  0  0  0
   -4.1383  -15.2234    0.0000 C   0  0  0  0  0  0  0  0  0  0  0  0
   -3.6748  -13.7968    0.0000 N   0  0  0  0  0  4  0  0  0  0  0  0
    0.7500   -7.4156    0.0000 C   0  0  0  0  0  0  0  0  0  0  0  0
    1.6317   -8.6291    0.0000 C   0  0  0  0  0  0  0  0  0  0  0  0
    2.5134   -9.8426    0.0000 F   0  0  0  0  0  0  0  0  0  0  0  0
    2.8452   -7.7474    0.0000 F   0  0  0  0  0  0  0  0  0  0  0  0
    0.4182   -9.5108    0.0000 F   0  0  0  0  0  0  0  0  0  0  0  0
    1.2135   -5.9890    0.0000 N   0  0  0  0  0  0  0  0  0  0  0  0
   -0.0000   -5.1073    0.0000 N   0  0  0  0  0  0  0  0  0  0  0  0
   -0.0000   -3.6073    0.0000 C   0  0  0  0  0  0  0  0  0  0  0  0
    1.2135   -2.7256    0.0000 N   0  0  0  0  0  0  0  0  0  0  0  0
    0.7500   -1.2990    0.0000 C   0  0  0  0  0  0  0  0  0  0  0  0
    1.5000    0.0000    0.0000 C   0  0  0  0  0  0  0  0  0  0  0  0
    0.7500    1.2990    0.0000 C   0  0  0  0  0  0  0  0  0  0  0  0
   -0.7500    1.2990    0.0000 C   0  0  0  0  0  0  0  0  0  0  0  0
   -1.5000    0.0000    0.0000 C   0  0  0  0  0  0  0  0  0  0  0  0
   -0.7500   -1.2990    0.0000 C   0  0  0  0  0  0  0  0  0  0  0  0
   -1.2135   -2.7256    0.0000 S   0  0  0  0  0  0  0  0  0  0  0  0
  1  2  2  0
  2  3  1  0
  3  4  2  0
  4  5  1  0
  5  6  1  0
  6  7  1  0
  7  8  1  0
  8  9  2  0
  9 10  1  0
 10 11  1  0
 11 12  2  0
  3 13  1  0
 13 14  1  0
 14 15  1  0
 14 16  1  0
 14 17  1  0
 13 18  2  0
 18 19  1  0
 20 19  1  6
 20 21  1  0
 21 22  1  0
 22 23  2  0
 23 24  1  0
 24 25  2  0
 25 26  1  0
 26 27  2  0
 27 28  1  0
 19  2  1  0
 28 20  1  0
 12  8  1  0
 27 22  1  0
M  CHG  1  12   1
M  END
>  <Compound_ID>  (136) 
C53631712

>  <Active>  (136) 
0

>  <Smiles>  (136) 
O=C1/C(=C/NCCc2c[nH]c[nH+]2)C(C(F)(F)F)=NN1[C@H]1Nc2ccccc2S1

>  <canonical_smi>  (136) 
O=C1/C(=C/NCCc2c[nH]c[nH+]2)C(C(F)(F)F)=NN1[C@H]1Nc2ccccc2S1

>  <Set>  (136) 
G2 inactive

>  <Set_type>  (136) 
Train

>  <MW>  (136) 
409.42

>  <HBD>  (136) 
3

>  <HBA>  (136) 
4

>  <NRB>  (136) 
5

>  <NR>  (136) 
4

>  <NAR>  (136) 
2

>  <PSA>  (136) 
86.66

>  <Standard Type>  (136) 
nan

>  <Standard Relation>  (136) 
nan

>  <Standard Units>  (136) 
nan

>  <Standard Value>  (136) 
nan

>  <Assay ChEMBL ID>  (136) 
nan

>  <Assay Description>  (136) 
nan

>  <BAO Label>  (136) 
nan

>  <bits>  (136) 
<rdkit.DataStructs.cDataStructs.ExplicitBitVect object at 0x00000210F8E6A6C0>

>  <Group>  (136) 
G2

$$$$

     RDKit          2D

 19 21  0  0  0  0  0  0  0  0999 V2000
    2.3886   -2.4414    0.0000 C   0  0  0  0  0  0  0  0  0  0  0  0
    2.6491   -0.9642    0.0000 O   0  0  0  0  0  0  0  0  0  0  0  0
    1.5000    0.0000    0.0000 P   0  0  0  0  0  5  0  0  0  0  0  0
    2.6491    0.9642    0.0000 O   0  0  0  0  0  0  0  0  0  0  0  0
    0.7500   -1.2990    0.0000 N   0  0  0  0  0  0  0  0  0  0  0  0
   -0.7500   -1.2990    0.0000 N   0  0  0  0  0  0  0  0  0  0  0  0
   -1.5000   -2.5981    0.0000 C   0  0  0  0  0  0  0  0  0  0  0  0
   -3.0000   -2.5981    0.0000 C   0  0  0  0  0  0  0  0  0  0  0  0
   -3.7500   -1.2990    0.0000 C   0  0  0  0  0  0  0  0  0  0  0  0
   -5.2500   -1.2990    0.0000 C   0  0  0  0  0  0  0  0  0  0  0  0
   -6.0000    0.0000    0.0000 C   0  0  0  0  0  0  0  0  0  0  0  0
   -7.5000    0.0000    0.0000 I   0  0  0  0  0  0  0  0  0  0  0  0
   -5.2500    1.2990    0.0000 C   0  0  0  0  0  0  0  0  0  0  0  0
   -6.0000    2.5981    0.0000 I   0  0  0  0  0  0  0  0  0  0  0  0
   -3.7500    1.2990    0.0000 C   0  0  0  0  0  0  0  0  0  0  0  0
   -3.0000    0.0000    0.0000 C   0  0  0  0  0  0  0  0  0  0  0  0
   -1.5000    0.0000    0.0000 C   0  0  0  0  0  0  0  0  0  0  0  0
   -0.7500    1.2990    0.0000 C   0  0  0  0  0  0  0  0  0  0  0  0
    0.7500    1.2990    0.0000 O   0  0  0  0  0  0  0  0  0  0  0  0
  1  2  1  0
  3  2  1  1
  3  4  2  0
  3  5  1  0
  5  6  1  0
  6  7  1  0
  7  8  1  0
  8  9  1  0
  9 10  2  0
 10 11  1  0
 11 12  1  0
 11 13  2  0
 13 14  1  0
 13 15  1  0
 15 16  2  0
 16 17  1  0
 17 18  1  6
 18 19  1  0
 19  3  1  0
 17  6  1  0
 16  9  1  0
M  END
>  <Compound_ID>  (137) 
C39464764

>  <Active>  (137) 
0

>  <Smiles>  (137) 
CO[P@@]1(=O)NN2CCc3cc(I)c(I)cc3[C@@H]2CO1

>  <canonical_smi>  (137) 
CO[P@@]1(=O)NN2CCc3cc(I)c(I)cc3[C@@H]2CO1

>  <Set>  (137) 
G2 inactive

>  <Set_type>  (137) 
Train

>  <MW>  (137) 
506.02

>  <HBD>  (137) 
1

>  <HBA>  (137) 
5

>  <NRB>  (137) 
1

>  <NR>  (137) 
3

>  <NAR>  (137) 
1

>  <PSA>  (137) 
50.8

>  <Standard Type>  (137) 
nan

>  <Standard Relation>  (137) 
nan

>  <Standard Units>  (137) 
nan

>  <Standard Value>  (137) 
nan

>  <Assay ChEMBL ID>  (137) 
nan

>  <Assay Description>  (137) 
nan

>  <BAO Label>  (137) 
nan

>  <bits>  (137) 
<rdkit.DataStructs.cDataStructs.ExplicitBitVect object at 0x00000210F8E68A50>

>  <Group>  (137) 
G2

$$$$

     RDKit          2D

 25 29  0  0  0  0  0  0  0  0999 V2000
   -0.2458    5.7060    0.0000 O   0  0  0  0  0  0  0  0  0  0  0  0
   -1.2495    4.5912    0.0000 C   0  0  0  0  0  0  0  0  0  0  0  0
   -0.9376    3.1240    0.0000 C   0  0  0  0  0  0  0  0  0  0  0  0
   -2.2367    2.3740    0.0000 C   0  0  0  0  0  0  0  0  0  0  0  0
   -3.3514    3.3777    0.0000 C   0  0  0  0  0  0  0  0  0  0  0  0
   -4.8186    3.0658    0.0000 O   0  0  0  0  0  0  0  0  0  0  0  0
   -2.7413    4.7480    0.0000 N   0  0  0  0  0  0  0  0  0  0  0  0
   -3.4913    6.0471    0.0000 N   0  0  0  0  0  0  0  0  0  0  0  0
   -2.7413    7.3461    0.0000 C   0  0  0  0  0  0  0  0  0  0  0  0
   -3.4913    8.6451    0.0000 C   0  0  0  0  0  0  0  0  0  0  0  0
   -2.7413    9.9442    0.0000 C   0  0  0  0  0  0  0  0  0  0  0  0
   -3.4913   11.2432    0.0000 C   0  0  0  0  0  0  0  0  0  0  0  0
   -2.7413   12.5423    0.0000 Br  0  0  0  0  0  0  0  0  0  0  0  0
   -4.9913   11.2432    0.0000 C   0  0  0  0  0  0  0  0  0  0  0  0
   -5.7413    9.9442    0.0000 C   0  0  0  0  0  0  0  0  0  0  0  0
   -7.2413    9.9442    0.0000 Br  0  0  0  0  0  0  0  0  0  0  0  0
   -4.9913    8.6451    0.0000 C   0  0  0  0  0  0  0  0  0  0  0  0
   -5.7413    7.3461    0.0000 O   0  0  0  0  0  0  0  0  0  0  0  0
   -1.9248    0.9068    0.0000 C   0  0  0  0  0  0  0  0  0  0  0  0
   -0.8101   -0.0969    0.0000 C   0  0  0  0  0  0  0  0  0  0  0  0
    0.4890    0.6531    0.0000 C   0  0  0  0  0  0  0  0  0  0  0  0
    0.1771    2.1203    0.0000 C   0  0  0  0  0  0  0  0  0  0  0  0
   -0.4330    0.7500    0.0000 C   0  0  0  0  0  0  0  0  0  0  0  0
    0.8660    0.0000    0.0000 C   0  0  0  0  0  0  0  0  0  0  0  0
   -0.4330   -0.7500    0.0000 C   0  0  0  0  0  0  0  0  0  0  0  0
  1  2  2  0
  3  2  1  1
  3  4  1  0
  4  5  1  1
  5  6  2  0
  5  7  1  0
  7  8  1  0
  8  9  2  0
  9 10  1  0
 10 11  2  0
 11 12  1  0
 12 13  1  0
 12 14  2  0
 14 15  1  0
 15 16  1  0
 15 17  2  0
 17 18  1  0
  4 19  1  0
 19 20  1  6
 20 21  2  0
 22 21  1  6
 22 23  1  0
 23 24  1  0
 24 25  1  0
  7  2  1  0
 17 10  1  0
 23 19  1  0
 22  3  1  0
 25 23  1  0
M  END
>  <Compound_ID>  (138) 
C59463240

>  <Active>  (138) 
0

>  <Smiles>  (138) 
O=C1[C@@H]2[C@H](C(=O)N1/N=C/c1cc(Br)cc(Br)c1O)[C@H]1C=C[C@@H]2C12CC2

>  <canonical_smi>  (138) 
O=C1[C@H]2[C@@H]3C=C[C@H]([C@H]2C(=O)N1/N=C/c1cc(Br)cc(Br)c1O)C31CC1

>  <Set>  (138) 
G2 inactive

>  <Set_type>  (138) 
Train

>  <MW>  (138) 
466.13

>  <HBD>  (138) 
1

>  <HBA>  (138) 
3

>  <NRB>  (138) 
2

>  <NR>  (138) 
5

>  <NAR>  (138) 
1

>  <PSA>  (138) 
69.97

>  <Standard Type>  (138) 
nan

>  <Standard Relation>  (138) 
nan

>  <Standard Units>  (138) 
nan

>  <Standard Value>  (138) 
nan

>  <Assay ChEMBL ID>  (138) 
nan

>  <Assay Description>  (138) 
nan

>  <BAO Label>  (138) 
nan

>  <bits>  (138) 
<rdkit.DataStructs.cDataStructs.ExplicitBitVect object at 0x00000210F8E6A420>

>  <Group>  (138) 
G2

$$$$

     RDKit          2D

 31 36  0  0  0  0  0  0  0  0999 V2000
    7.1385    8.1303    0.0000 C   0  0  0  0  0  0  0  0  0  0  0  0
    5.9250    7.2487    0.0000 C   0  0  0  0  0  0  0  0  0  0  0  0
    6.0818    5.7569    0.0000 C   0  0  0  0  0  0  0  0  0  0  0  0
    4.8683    4.8752    0.0000 C   0  0  0  0  0  0  0  0  0  0  0  0
    3.4979    5.4853    0.0000 C   0  0  0  0  0  0  0  0  0  0  0  0
    2.2844    4.6036    0.0000 C   0  0  0  0  0  0  0  0  0  0  0  0
    2.2844    3.1036    0.0000 C   0  0  0  0  0  0  0  0  0  0  0  0
    0.8578    2.6401    0.0000 C   0  0  0  0  0  0  0  0  0  0  0  0
    0.3943    1.2135    0.0000 C   0  0  0  0  0  0  0  0  0  0  0  0
    1.2760    0.0000    0.0000 N   0  0  0  0  0  0  0  0  0  0  0  0
    0.3943   -1.2135    0.0000 C   0  0  0  0  0  0  0  0  0  0  0  0
    0.7062   -2.6807    0.0000 C   0  0  0  0  0  0  0  0  0  0  0  0
    2.0052   -3.4307    0.0000 S   0  0  0  0  0  0  0  0  0  0  0  0
    1.6933   -4.8980    0.0000 C   0  0  0  0  0  0  0  0  0  0  0  0
    2.5750   -6.1115    0.0000 N   0  0  0  0  0  0  0  0  0  0  0  0
    1.9649   -7.4818    0.0000 C   0  0  0  0  0  0  0  0  0  0  0  0
    2.8466   -8.6953    0.0000 C   0  0  0  0  0  0  0  0  0  0  0  0
    0.4731   -7.6386    0.0000 C   0  0  0  0  0  0  0  0  0  0  0  0
   -0.4086   -6.4251    0.0000 C   0  0  0  0  0  0  0  0  0  0  0  0
   -1.9003   -6.5819    0.0000 C   0  0  0  0  0  0  0  0  0  0  0  0
    0.2016   -5.0548    0.0000 C   0  0  0  0  0  0  0  0  0  0  0  0
   -0.4086   -3.6844    0.0000 C   0  0  0  0  0  0  0  0  0  0  0  0
   -1.8351   -3.2209    0.0000 N   0  0  0  0  0  0  0  0  0  0  0  0
   -2.1470   -1.7537    0.0000 C   0  0  0  0  0  0  0  0  0  0  0  0
   -1.0323   -0.7500    0.0000 N   0  0  0  0  0  0  0  0  0  0  0  0
   -1.0323    0.7500    0.0000 N   0  0  0  0  0  0  0  0  0  0  0  0
   -0.0239    3.8536    0.0000 N   0  0  0  0  0  0  0  0  0  0  0  0
    0.8578    5.0672    0.0000 N   0  0  0  0  0  0  0  0  0  0  0  0
    3.3411    6.9771    0.0000 C   0  0  0  0  0  0  0  0  0  0  0  0
    1.9708    7.5872    0.0000 C   0  0  0  0  0  0  0  0  0  0  0  0
    4.5547    7.8588    0.0000 C   0  0  0  0  0  0  0  0  0  0  0  0
  1  2  1  0
  2  3  2  0
  3  4  1  0
  4  5  2  0
  5  6  1  0
  6  7  2  0
  7  8  1  0
  8  9  1  6
  9 10  1  0
 10 11  2  0
 11 12  1  0
 12 13  1  0
 13 14  1  0
 14 15  2  0
 15 16  1  0
 16 17  1  0
 16 18  2  0
 18 19  1  0
 19 20  1  0
 19 21  2  0
 21 22  1  0
 22 23  1  0
 23 24  2  0
 24 25  1  0
 25 26  1  0
  8 27  1  0
 27 28  2  0
  5 29  1  0
 29 30  1  0
 29 31  2  0
 31  2  1  0
 28  6  1  0
 26  9  2  0
 25 11  1  0
 22 12  2  0
 21 14  1  0
M  END
>  <Compound_ID>  (139) 
C63528803

>  <Active>  (139) 
0

>  <Smiles>  (139) 
Cc1ccc(C2=C[C@H](c3nc4c5sc6nc(C)cc(C)c6c5ncn4n3)N=N2)c(C)c1

>  <canonical_smi>  (139) 
Cc1ccc(C2=C[C@H](c3nc4c5sc6nc(C)cc(C)c6c5ncn4n3)N=N2)c(C)c1

>  <Set>  (139) 
G2 inactive

>  <Set_type>  (139) 
Train

>  <MW>  (139) 
425.52

>  <HBD>  (139) 
0

>  <HBA>  (139) 
4

>  <NRB>  (139) 
2

>  <NR>  (139) 
6

>  <NAR>  (139) 
5

>  <PSA>  (139) 
80.69

>  <Standard Type>  (139) 
nan

>  <Standard Relation>  (139) 
nan

>  <Standard Units>  (139) 
nan

>  <Standard Value>  (139) 
nan

>  <Assay ChEMBL ID>  (139) 
nan

>  <Assay Description>  (139) 
nan

>  <BAO Label>  (139) 
nan

>  <bits>  (139) 
<rdkit.DataStructs.cDataStructs.ExplicitBitVect object at 0x00000210F8E69540>

>  <Group>  (139) 
G2

$$$$

     RDKit          2D

 34 39  0  0  0  0  0  0  0  0999 V2000
   -1.6131    7.3700    0.0000 C   0  0  0  0  0  0  0  0  0  0  0  0
   -0.1459    7.6819    0.0000 C   0  0  0  0  0  0  0  0  0  0  0  0
    0.3177    9.1085    0.0000 C   0  0  0  0  0  0  0  0  0  0  0  0
    1.7849    9.4203    0.0000 C   0  0  0  0  0  0  0  0  0  0  0  0
    2.7886    8.3056    0.0000 C   0  0  0  0  0  0  0  0  0  0  0  0
    4.2558    8.6175    0.0000 N   0  0  0  0  0  4  0  0  0  0  0  0
    4.7193   10.0441    0.0000 O   0  0  0  0  0  0  0  0  0  0  0  0
    5.2595    7.5028    0.0000 O   0  0  0  0  0  1  0  0  0  0  0  0
    2.3250    6.8790    0.0000 C   0  0  0  0  0  0  0  0  0  0  0  0
    0.8578    6.5672    0.0000 C   0  0  0  0  0  0  0  0  0  0  0  0
    0.3943    5.1406    0.0000 N   0  0  0  0  0  0  0  0  0  0  0  0
    1.2760    3.9271    0.0000 C   0  0  0  0  0  0  0  0  0  0  0  0
    2.7760    3.9271    0.0000 O   0  0  0  0  0  0  0  0  0  0  0  0
    0.3943    2.7135    0.0000 C   0  0  0  0  0  0  0  0  0  0  0  0
    0.3943    1.2135    0.0000 C   0  0  0  0  0  0  0  0  0  0  0  0
    1.2760    0.0000    0.0000 C   0  0  0  0  0  0  0  0  0  0  0  0
    0.3943   -1.2135    0.0000 C   0  0  0  0  0  0  0  0  0  0  0  0
   -1.0323   -0.7500    0.0000 C   0  0  0  0  0  0  0  0  0  0  0  0
   -1.0323    0.7500    0.0000 N   0  0  0  0  0  4  0  0  0  0  0  0
   -1.9140    1.9635    0.0000 C   0  0  0  0  0  0  0  0  0  0  0  0
   -2.7956    0.7500    0.0000 C   0  0  0  0  0  0  0  0  0  0  0  0
   -2.3321   -0.6766    0.0000 O   0  0  0  0  0  0  0  0  0  0  0  0
   -4.2222    1.2135    0.0000 N   0  0  0  0  0  0  0  0  0  0  0  0
   -4.2222    2.7135    0.0000 C   0  0  0  0  0  0  0  0  0  0  0  0
   -2.7956    3.1771    0.0000 C   0  0  0  0  0  0  0  0  0  0  0  0
   -2.4838    4.6443    0.0000 C   0  0  0  0  0  0  0  0  0  0  0  0
   -3.5985    5.6480    0.0000 C   0  0  0  0  0  0  0  0  0  0  0  0
   -5.0251    5.1844    0.0000 C   0  0  0  0  0  0  0  0  0  0  0  0
   -6.1398    6.1881    0.0000 C   0  0  0  0  0  0  0  0  0  0  0  0
   -5.3369    3.7172    0.0000 C   0  0  0  0  0  0  0  0  0  0  0  0
   -6.7635    3.2537    0.0000 C   0  0  0  0  0  0  0  0  0  0  0  0
   -1.0323    3.1771    0.0000 C   0  0  0  0  0  0  0  0  0  0  0  0
   -1.0323    4.6771    0.0000 C   0  0  0  0  0  0  0  0  0  0  0  0
   -2.2458    5.5587    0.0000 O   0  0  0  0  0  0  0  0  0  0  0  0
  1  2  1  0
  2  3  2  0
  3  4  1  0
  4  5  2  0
  5  6  1  0
  6  7  2  0
  6  8  1  0
  5  9  1  0
  9 10  2  0
 10 11  1  0
 11 12  1  0
 12 13  2  0
 14 12  1  6
 14 15  1  0
 15 16  1  6
 16 17  1  0
 17 18  1  0
 18 19  1  0
 20 19  1  1
 20 21  1  0
 21 22  2  0
 21 23  1  0
 23 24  1  0
 24 25  2  0
 25 26  1  0
 26 27  2  0
 27 28  1  0
 28 29  1  0
 28 30  2  0
 30 31  1  0
 20 32  1  0
 32 33  1  1
 33 34  2  0
 10  2  1  0
 33 11  1  0
 32 14  1  0
 19 15  1  0
 25 20  1  0
 30 24  1  0
M  CHG  3   6   1   8  -1  19   1
M  END
>  <Compound_ID>  (140) 
C16000677

>  <Active>  (140) 
0

>  <Smiles>  (140) 
Cc1ccc([N+](=O)[O-])cc1N1C(=O)[C@@H]2[C@@H]3CCC[NH+]3[C@]3(C(=O)Nc4c3ccc(C)c4C)[C@H]2C1=O

>  <canonical_smi>  (140) 
Cc1ccc([N+](=O)[O-])cc1N1C(=O)[C@@H]2[C@@H]3CCC[NH+]3[C@]3(C(=O)Nc4c3ccc(C)c4C)[C@H]2C1=O

>  <Set>  (140) 
G2 inactive

>  <Set_type>  (140) 
Train

>  <MW>  (140) 
461.5

>  <HBD>  (140) 
2

>  <HBA>  (140) 
5

>  <NRB>  (140) 
2

>  <NR>  (140) 
6

>  <NAR>  (140) 
2

>  <PSA>  (140) 
114.06

>  <Standard Type>  (140) 
nan

>  <Standard Relation>  (140) 
nan

>  <Standard Units>  (140) 
nan

>  <Standard Value>  (140) 
nan

>  <Assay ChEMBL ID>  (140) 
nan

>  <Assay Description>  (140) 
nan

>  <BAO Label>  (140) 
nan

>  <bits>  (140) 
<rdkit.DataStructs.cDataStructs.ExplicitBitVect object at 0x00000210F8E69B60>

>  <Group>  (140) 
G2

$$$$

     RDKit          2D

 34 39  0  0  0  0  0  0  0  0999 V2000
   -5.2140    4.1199    0.0000 O   0  0  0  0  0  0  0  0  0  0  0  0
   -3.7516    3.7862    0.0000 C   0  0  0  0  0  0  0  0  0  0  0  0
   -2.7313    4.8857    0.0000 N   0  0  0  0  0  0  0  0  0  0  0  0
   -1.2689    4.5520    0.0000 C   0  0  0  0  0  0  0  0  0  0  0  0
   -0.2487    5.6515    0.0000 O   0  0  0  0  0  0  0  0  0  0  0  0
   -0.8268    3.1186    0.0000 C   0  0  0  0  0  0  0  0  0  0  0  0
    0.1935    4.2182    0.0000 C   0  0  0  0  0  0  0  0  0  0  0  0
    1.6559    3.8844    0.0000 C   0  0  0  0  0  0  0  0  0  0  0  0
    2.0980    2.4510    0.0000 C   0  0  0  0  0  0  0  0  0  0  0  0
    3.5604    2.1172    0.0000 N   0  0  0  0  0  4  0  0  0  0  0  0
    4.5807    3.2168    0.0000 C   0  0  0  0  0  0  0  0  0  0  0  0
    6.0430    2.8830    0.0000 C   0  0  0  0  0  0  0  0  0  0  0  0
    7.0633    3.9826    0.0000 C   0  0  0  0  0  0  0  0  0  0  0  0
    6.6212    5.4160    0.0000 C   0  0  0  0  0  0  0  0  0  0  0  0
    5.1588    5.7498    0.0000 C   0  0  0  0  0  0  0  0  0  0  0  0
    4.1385    4.6502    0.0000 N   0  0  0  0  0  0  0  0  0  0  0  0
    2.6761    4.9840    0.0000 C   0  0  0  0  0  0  0  0  0  0  0  0
    2.2340    6.4173    0.0000 O   0  0  0  0  0  0  0  0  0  0  0  0
    1.0777    1.3515    0.0000 N   0  0  0  0  0  0  0  0  0  0  0  0
    1.7286    0.0000    0.0000 C   0  0  0  0  0  0  0  0  0  0  0  0
    1.0777   -1.3515    0.0000 C   0  0  0  0  0  0  0  0  0  0  0  0
   -0.3846   -1.6852    0.0000 C   0  0  0  0  0  0  0  0  0  0  0  0
   -1.5574   -0.7500    0.0000 C   0  0  0  0  0  0  0  0  0  0  0  0
   -1.5574    0.7500    0.0000 C   0  0  0  0  0  0  0  0  0  0  0  0
   -0.3846    1.6852    0.0000 C   0  0  0  0  0  0  0  0  0  0  0  0
   -1.8470    2.0190    0.0000 C   0  0  0  0  0  0  0  0  0  0  0  0
   -1.8034    1.2231    0.0000 O   0  0  0  0  0  0  0  0  0  0  0  0
   -3.3094    2.3528    0.0000 N   0  0  0  0  0  0  0  0  0  0  0  0
   -4.3297    1.2532    0.0000 C   0  0  0  0  0  0  0  0  0  0  0  0
   -5.7921    1.5870    0.0000 C   0  0  0  0  0  0  0  0  0  0  0  0
   -6.8123    0.4874    0.0000 C   0  0  0  0  0  0  0  0  0  0  0  0
   -6.3702   -0.9459    0.0000 C   0  0  0  0  0  0  0  0  0  0  0  0
   -4.9078   -1.2797    0.0000 C   0  0  0  0  0  0  0  0  0  0  0  0
   -3.8876   -0.1801    0.0000 C   0  0  0  0  0  0  0  0  0  0  0  0
  1  2  2  0
  2  3  1  0
  3  4  1  0
  4  5  2  0
  4  6  1  0
  6  7  1  1
  7  8  1  0
  8  9  2  0
  9 10  1  0
 10 11  2  0
 11 12  1  0
 12 13  2  0
 13 14  1  0
 14 15  2  0
 15 16  1  0
 16 17  1  0
 17 18  2  0
  9 19  1  0
 19 20  1  0
 20 21  1  0
 21 22  1  0
 22 23  1  0
 23 24  1  0
 25 24  1  1
  6 26  1  0
 26 27  2  0
 26 28  1  0
 28 29  1  0
 29 30  1  0
 30 31  1  0
 31 32  1  0
 32 33  1  0
 33 34  1  0
 28  2  1  0
 34 29  1  0
 25  6  1  0
 17  8  1  0
 25 19  1  0
 16 11  1  0
M  CHG  1  10   1
M  END
>  <Compound_ID>  (141) 
C09088227

>  <Active>  (141) 
0

>  <Smiles>  (141) 
O=C1NC(=O)[C@@]2(Cc3c([nH+]c4ccccn4c3=O)N3CCCCC[C@H]32)C(=O)N1C1CCCCC1

>  <canonical_smi>  (141) 
O=C1NC(=O)[C@@]2(Cc3c([nH+]c4ccccn4c3=O)N3CCCCC[C@H]32)C(=O)N1C1CCCCC1

>  <Set>  (141) 
G2 inactive

>  <Set_type>  (141) 
Train

>  <MW>  (141) 
464.55

>  <HBD>  (141) 
1

>  <HBA>  (141) 
5

>  <NRB>  (141) 
1

>  <NR>  (141) 
6

>  <NAR>  (141) 
2

>  <PSA>  (141) 
105.34

>  <Standard Type>  (141) 
nan

>  <Standard Relation>  (141) 
nan

>  <Standard Units>  (141) 
nan

>  <Standard Value>  (141) 
nan

>  <Assay ChEMBL ID>  (141) 
nan

>  <Assay Description>  (141) 
nan

>  <BAO Label>  (141) 
nan

>  <bits>  (141) 
<rdkit.DataStructs.cDataStructs.ExplicitBitVect object at 0x00000210F8E6AFF0>

>  <Group>  (141) 
G2

$$$$

     RDKit          2D

 36 40  0  0  0  0  0  0  0  0999 V2000
   -5.7700   -2.7836    0.0000 C   0  0  0  0  0  0  0  0  0  0  0  0
   -6.9521   -3.7071    0.0000 O   0  0  0  0  0  0  0  0  0  0  0  0
   -6.7433   -5.1925    0.0000 C   0  0  0  0  0  0  0  0  0  0  0  0
   -5.3525   -5.7544    0.0000 C   0  0  0  0  0  0  0  0  0  0  0  0
   -5.1438   -7.2398    0.0000 C   0  0  0  0  0  0  0  0  0  0  0  0
   -6.3258   -8.1633    0.0000 C   0  0  0  0  0  0  0  0  0  0  0  0
   -6.1170   -9.6487    0.0000 C   0  0  0  0  0  0  0  0  0  0  0  0
   -4.6904   -9.1852    0.0000 C   0  0  0  0  0  0  0  0  0  0  0  0
   -4.3786   -7.7180    0.0000 C   0  0  0  0  0  0  0  0  0  0  0  0
   -2.9520   -7.2544    0.0000 N   0  0  0  0  0  4  0  0  0  0  0  0
   -2.6401   -5.7872    0.0000 C   0  0  0  0  0  0  0  0  0  0  0  0
   -1.2135   -5.3237    0.0000 C   0  0  0  0  0  0  0  0  0  0  0  0
   -0.0000   -6.2054    0.0000 C   0  0  0  0  0  0  0  0  0  0  0  0
    0.0000   -7.7054    0.0000 O   0  0  0  0  0  0  0  0  0  0  0  0
    1.2135   -5.3237    0.0000 O   0  0  0  0  0  0  0  0  0  0  0  0
    0.7500   -3.8971    0.0000 C   0  0  0  0  0  0  0  0  0  0  0  0
    1.5000   -2.5981    0.0000 C   0  0  0  0  0  0  0  0  0  0  0  0
    0.7500   -1.2990    0.0000 C   0  0  0  0  0  0  0  0  0  0  0  0
    2.2500   -1.2990    0.0000 C   0  0  0  0  0  0  0  0  0  0  0  0
    1.5000    0.0000    0.0000 C   0  0  0  0  0  0  0  0  0  0  0  0
    0.7500    1.2990    0.0000 C   0  0  0  0  0  0  0  0  0  0  0  0
   -0.7500    1.2990    0.0000 C   0  0  0  0  0  0  0  0  0  0  0  0
   -1.5000    0.0000    0.0000 C   0  0  0  0  0  0  0  0  0  0  0  0
   -3.0000    0.0000    0.0000 C   0  0  0  0  0  0  0  0  0  0  0  0
   -0.7500   -1.2990    0.0000 C   0  0  0  0  0  0  0  0  0  0  0  0
   -1.5000   -2.5981    0.0000 C   0  0  0  0  0  0  0  0  0  0  0  0
   -0.7500   -3.8971    0.0000 C   0  0  0  0  0  0  0  0  0  0  0  0
   -5.4128  -10.9731    0.0000 C   0  0  0  0  0  0  0  0  0  0  0  0
   -6.2077  -12.2452    0.0000 C   0  0  0  0  0  0  0  0  0  0  0  0
   -7.7068  -12.1929    0.0000 O   0  0  0  0  0  0  0  0  0  0  0  0
   -8.4110  -10.8684    0.0000 C   0  0  0  0  0  0  0  0  0  0  0  0
   -9.5257   -9.8647    0.0000 C   0  0  0  0  0  0  0  0  0  0  0  0
   -9.5930  -11.7919    0.0000 C   0  0  0  0  0  0  0  0  0  0  0  0
   -7.6161   -9.5964    0.0000 C   0  0  0  0  0  0  0  0  0  0  0  0
   -7.7166   -7.6014    0.0000 C   0  0  0  0  0  0  0  0  0  0  0  0
   -7.9253   -6.1160    0.0000 C   0  0  0  0  0  0  0  0  0  0  0  0
  1  2  1  0
  2  3  1  0
  3  4  2  0
  4  5  1  0
  5  6  2  0
  6  7  1  0
  7  8  1  1
  8  9  1  0
  9 10  1  0
 10 11  1  0
 12 11  1  6
 12 13  1  0
 13 14  2  0
 13 15  1  0
 15 16  1  0
 16 17  1  1
 17 18  1  0
 18 19  1  1
 18 20  1  0
 20 21  1  0
 21 22  1  0
 22 23  1  0
 23 24  1  0
 23 25  2  0
 25 26  1  0
 27 26  1  1
  7 28  1  0
 28 29  1  0
 29 30  1  0
 30 31  1  0
 31 32  1  0
 31 33  1  0
 31 34  1  0
  6 35  1  0
 35 36  2  0
 36  3  1  0
 34  7  1  0
 27 12  1  0
 27 16  1  0
 25 18  1  0
M  CHG  1  10   1
M  END
>  <Compound_ID>  (142) 
C09008580

>  <Active>  (142) 
0

>  <Smiles>  (142) 
COc1ccc([C@]2(CC[NH2+]C[C@H]3C(=O)O[C@@H]4C[C@@]5(C)CCCC(C)=C5C[C@@H]43)CCOC(C)(C)C2)cc1

>  <canonical_smi>  (142) 
COc1ccc([C@]2(CC[NH2+]C[C@H]3C(=O)O[C@@H]4C[C@@]5(C)CCCC(C)=C5C[C@H]34)CCOC(C)(C)C2)cc1

>  <Set>  (142) 
G2 inactive

>  <Set_type>  (142) 
Train

>  <MW>  (142) 
496.71

>  <HBD>  (142) 
1

>  <HBA>  (142) 
4

>  <NRB>  (142) 
7

>  <NR>  (142) 
5

>  <NAR>  (142) 
1

>  <PSA>  (142) 
61.37

>  <Standard Type>  (142) 
nan

>  <Standard Relation>  (142) 
nan

>  <Standard Units>  (142) 
nan

>  <Standard Value>  (142) 
nan

>  <Assay ChEMBL ID>  (142) 
nan

>  <Assay Description>  (142) 
nan

>  <BAO Label>  (142) 
nan

>  <bits>  (142) 
<rdkit.DataStructs.cDataStructs.ExplicitBitVect object at 0x00000210F8E68740>

>  <Group>  (142) 
G2

$$$$

     RDKit          2D

 31 34  0  0  0  0  0  0  0  0999 V2000
    5.2500   -1.2990    0.0000 C   0  0  0  0  0  0  0  0  0  0  0  0
    3.7500   -1.2990    0.0000 C   0  0  0  0  0  0  0  0  0  0  0  0
    3.0000    0.0000    0.0000 O   0  0  0  0  0  0  0  0  0  0  0  0
    1.5000    0.0000    0.0000 C   0  0  0  0  0  0  0  0  0  0  0  0
    0.7500   -1.2990    0.0000 C   0  0  0  0  0  0  0  0  0  0  0  0
   -0.7500   -1.2990    0.0000 C   0  0  0  0  0  0  0  0  0  0  0  0
   -1.5000    0.0000    0.0000 C   0  0  0  0  0  0  0  0  0  0  0  0
   -3.0000    0.0000    0.0000 N   0  0  0  0  0  0  0  0  0  0  0  0
   -3.8817   -1.2135    0.0000 C   0  0  0  0  0  0  0  0  0  0  0  0
   -3.4182   -2.6401    0.0000 O   0  0  0  0  0  0  0  0  0  0  0  0
   -5.3083   -0.7500    0.0000 C   0  0  0  0  0  0  0  0  0  0  0  0
   -5.3083    0.7500    0.0000 C   0  0  0  0  0  0  0  0  0  0  0  0
   -6.5218    1.6317    0.0000 N   0  0  0  0  0  4  0  0  0  0  0  0
   -6.3650    3.1235    0.0000 C   0  0  0  0  0  0  0  0  0  0  0  0
   -4.9947    3.7336    0.0000 C   0  0  0  0  0  0  0  0  0  0  0  0
   -4.8379    5.2253    0.0000 C   0  0  0  0  0  0  0  0  0  0  0  0
   -6.0514    6.1070    0.0000 N   0  0  0  0  0  0  0  0  0  0  0  0
   -5.8946    7.5988    0.0000 C   0  0  0  0  0  0  0  0  0  0  0  0
   -4.5243    8.2089    0.0000 N   0  0  0  0  0  0  0  0  0  0  0  0
   -4.3675    9.7007    0.0000 C   0  0  0  0  0  0  0  0  0  0  0  0
   -5.5810   10.5824    0.0000 C   0  0  0  0  0  0  0  0  0  0  0  0
   -5.4242   12.0742    0.0000 Cl  0  0  0  0  0  0  0  0  0  0  0  0
   -6.9514    9.9723    0.0000 C   0  0  0  0  0  0  0  0  0  0  0  0
   -7.1081    8.4805    0.0000 C   0  0  0  0  0  0  0  0  0  0  0  0
   -8.4785    7.8704    0.0000 Cl  0  0  0  0  0  0  0  0  0  0  0  0
   -7.4217    5.4969    0.0000 C   0  0  0  0  0  0  0  0  0  0  0  0
   -7.5785    4.0051    0.0000 C   0  0  0  0  0  0  0  0  0  0  0  0
   -3.8817    1.2135    0.0000 C   0  0  0  0  0  0  0  0  0  0  0  0
   -3.4182    2.6401    0.0000 O   0  0  0  0  0  0  0  0  0  0  0  0
   -0.7500    1.2990    0.0000 C   0  0  0  0  0  0  0  0  0  0  0  0
    0.7500    1.2990    0.0000 C   0  0  0  0  0  0  0  0  0  0  0  0
  1  2  1  0
  2  3  1  0
  3  4  1  0
  4  5  2  0
  5  6  1  0
  6  7  2  0
  7  8  1  0
  8  9  1  0
  9 10  2  0
  9 11  1  0
 11 12  1  0
 12 13  1  1
 13 14  1  0
 14 15  1  0
 15 16  1  0
 16 17  1  0
 17 18  1  0
 18 19  2  0
 19 20  1  0
 20 21  2  0
 21 22  1  0
 21 23  1  0
 23 24  2  0
 24 25  1  0
 17 26  1  0
 26 27  1  0
 12 28  1  0
 28 29  2  0
  7 30  1  0
 30 31  2  0
 31  4  1  0
 28  8  1  0
 27 14  1  0
 24 18  1  0
M  CHG  1  13   1
M  END
>  <Compound_ID>  (143) 
C18128541

>  <Active>  (143) 
0

>  <Smiles>  (143) 
CCOc1ccc(N2C(=O)C[C@@H]([NH2+]C3CCN(c4ncc(Cl)cc4Cl)CC3)C2=O)cc1

>  <canonical_smi>  (143) 
CCOc1ccc(N2C(=O)C[C@@H]([NH2+]C3CCN(c4ncc(Cl)cc4Cl)CC3)C2=O)cc1

>  <Set>  (143) 
G2 inactive

>  <Set_type>  (143) 
Train

>  <MW>  (143) 
464.37

>  <HBD>  (143) 
1

>  <HBA>  (143) 
5

>  <NRB>  (143) 
6

>  <NR>  (143) 
4

>  <NAR>  (143) 
2

>  <PSA>  (143) 
79.35

>  <Standard Type>  (143) 
nan

>  <Standard Relation>  (143) 
nan

>  <Standard Units>  (143) 
nan

>  <Standard Value>  (143) 
nan

>  <Assay ChEMBL ID>  (143) 
nan

>  <Assay Description>  (143) 
nan

>  <BAO Label>  (143) 
nan

>  <bits>  (143) 
<rdkit.DataStructs.cDataStructs.ExplicitBitVect object at 0x00000210F8E68580>

>  <Group>  (143) 
G2

$$$$

     RDKit          2D

 30 34  0  0  0  0  0  0  0  0999 V2000
    3.0613   -9.9436    0.0000 O   0  0  0  0  0  0  0  0  0  0  0  0
    1.8478   -9.0619    0.0000 C   0  0  0  0  0  0  0  0  0  0  0  0
    0.4775   -9.6721    0.0000 N   0  0  0  0  0  0  0  0  0  0  0  0
    0.3207  -11.1638    0.0000 C   0  0  0  0  0  0  0  0  0  0  0  0
   -1.0496  -11.7739    0.0000 C   0  0  0  0  0  0  0  0  0  0  0  0
   -1.2064  -13.2657    0.0000 C   0  0  0  0  0  0  0  0  0  0  0  0
   -0.0917  -14.2694    0.0000 C   0  0  0  0  0  0  0  0  0  0  0  0
   -0.7018  -15.6397    0.0000 C   0  0  0  0  0  0  0  0  0  0  0  0
   -2.1936  -15.4829    0.0000 C   0  0  0  0  0  0  0  0  0  0  0  0
   -2.5054  -14.0157    0.0000 O   0  0  0  0  0  0  0  0  0  0  0  0
   -2.2631  -10.8923    0.0000 N   0  0  0  0  0  4  0  0  0  0  0  0
   -3.6897  -11.3558    0.0000 C   0  0  0  0  0  0  0  0  0  0  0  0
   -4.5714  -10.1423    0.0000 C   0  0  0  0  0  0  0  0  0  0  0  0
   -3.6897   -8.9287    0.0000 C   0  0  0  0  0  0  0  0  0  0  0  0
   -2.2631   -9.3923    0.0000 C   0  0  0  0  0  0  0  0  0  0  0  0
    2.0046   -7.5702    0.0000 C   0  0  0  0  0  0  0  0  0  0  0  0
    0.8899   -6.5665    0.0000 C   0  0  0  0  0  0  0  0  0  0  0  0
    1.5000   -5.1962    0.0000 C   0  0  0  0  0  0  0  0  0  0  0  0
    0.7500   -3.8971    0.0000 C   0  0  0  0  0  0  0  0  0  0  0  0
   -0.7500   -3.8971    0.0000 C   0  0  0  0  0  0  0  0  0  0  0  0
   -1.5000   -2.5981    0.0000 C   0  0  0  0  0  0  0  0  0  0  0  0
   -0.7500   -1.2990    0.0000 C   0  0  0  0  0  0  0  0  0  0  0  0
    0.7500   -1.2990    0.0000 C   0  0  0  0  0  0  0  0  0  0  0  0
    1.5000   -2.5981    0.0000 C   0  0  0  0  0  0  0  0  0  0  0  0
    1.5000    0.0000    0.0000 C   0  0  0  0  0  0  0  0  0  0  0  0
    0.7500    1.2990    0.0000 C   0  0  0  0  0  0  0  0  0  0  0  0
   -0.7500    1.2990    0.0000 C   0  0  0  0  0  0  0  0  0  0  0  0
   -1.5000    0.0000    0.0000 C   0  0  0  0  0  0  0  0  0  0  0  0
    2.9918   -5.3529    0.0000 O   0  0  0  0  0  0  0  0  0  0  0  0
    3.3037   -6.8202    0.0000 N   0  0  0  0  0  0  0  0  0  0  0  0
  1  2  2  0
  2  3  1  0
  3  4  1  0
  5  4  1  1
  5  6  1  0
  6  7  2  0
  7  8  1  0
  8  9  2  0
  9 10  1  0
  5 11  1  0
 11 12  1  0
 12 13  1  0
 13 14  1  0
 14 15  1  0
  2 16  1  0
 16 17  1  0
 17 18  2  0
 18 19  1  0
 19 20  2  0
 20 21  1  0
 21 22  2  0
 22 23  1  0
 23 24  2  0
 23 25  1  0
 25 26  1  0
 26 27  1  0
 27 28  1  0
 18 29  1  0
 29 30  1  0
 10  6  1  0
 15 11  1  0
 30 16  2  0
 24 19  1  0
 28 22  1  0
M  CHG  1  11   1
M  END
>  <Compound_ID>  (144) 
C15859678

>  <Active>  (144) 
0

>  <Smiles>  (144) 
O=C(NC[C@@H](c1ccco1)[NH+]1CCCC1)c1cc(-c2ccc3c(c2)CCCC3)on1

>  <canonical_smi>  (144) 
O=C(NC[C@@H](c1ccco1)[NH+]1CCCC1)c1cc(-c2ccc3c(c2)CCCC3)on1

>  <Set>  (144) 
G2 inactive

>  <Set_type>  (144) 
Train

>  <MW>  (144) 
406.51

>  <HBD>  (144) 
2

>  <HBA>  (144) 
4

>  <NRB>  (144) 
6

>  <NR>  (144) 
5

>  <NAR>  (144) 
3

>  <PSA>  (144) 
72.71

>  <Standard Type>  (144) 
nan

>  <Standard Relation>  (144) 
nan

>  <Standard Units>  (144) 
nan

>  <Standard Value>  (144) 
nan

>  <Assay ChEMBL ID>  (144) 
nan

>  <Assay Description>  (144) 
nan

>  <BAO Label>  (144) 
nan

>  <bits>  (144) 
<rdkit.DataStructs.cDataStructs.ExplicitBitVect object at 0x00000210F8E68350>

>  <Group>  (144) 
G2

$$$$

     RDKit          2D

 18 19  0  0  0  0  0  0  0  0999 V2000
    3.7500   -1.2990    0.0000 C   0  0  0  0  0  0  0  0  0  0  0  0
    3.0000    0.0000    0.0000 S   0  0  0  0  0  0  0  0  0  0  0  0
    1.5000    0.0000    0.0000 C   0  0  0  0  0  0  0  0  0  0  0  0
    0.7500   -1.2990    0.0000 N   0  0  0  0  0  0  0  0  0  0  0  0
   -0.7500   -1.2990    0.0000 C   0  0  0  0  0  0  0  0  0  0  0  0
   -1.5000   -2.5981    0.0000 N   0  0  0  0  0  0  0  0  0  0  0  0
   -3.0000   -2.5981    0.0000 C   0  0  0  0  0  0  0  0  0  0  0  0
   -3.7500   -3.8971    0.0000 C   0  0  0  0  0  0  0  0  0  0  0  0
   -3.0000   -5.1962    0.0000 O   0  0  0  0  0  0  0  0  0  0  0  0
   -1.5000   -5.1962    0.0000 C   0  0  0  0  0  0  0  0  0  0  0  0
   -0.7500   -3.8971    0.0000 C   0  0  0  0  0  0  0  0  0  0  0  0
   -1.5000    0.0000    0.0000 C   0  0  0  0  0  0  0  0  0  0  0  0
   -0.7500    1.2990    0.0000 C   0  0  0  0  0  0  0  0  0  0  0  0
   -1.5000    2.5981    0.0000 C   0  0  0  0  0  0  0  0  0  0  0  0
   -2.2500    3.8971    0.0000 F   0  0  0  0  0  0  0  0  0  0  0  0
   -0.2010    3.3481    0.0000 F   0  0  0  0  0  0  0  0  0  0  0  0
   -2.7990    1.8481    0.0000 F   0  0  0  0  0  0  0  0  0  0  0  0
    0.7500    1.2990    0.0000 N   0  0  0  0  0  0  0  0  0  0  0  0
  1  2  1  0
  2  3  1  0
  3  4  2  0
  4  5  1  0
  5  6  1  0
  6  7  1  0
  7  8  1  0
  8  9  1  0
  9 10  1  0
 10 11  1  0
  5 12  2  0
 12 13  1  0
 13 14  1  0
 14 15  1  0
 14 16  1  0
 14 17  1  0
 13 18  2  0
 18  3  1  0
 11  6  1  0
M  END
>  <Compound_ID>  (145) 
C01398553

>  <Active>  (145) 
0

>  <Smiles>  (145) 
CSc1nc(N2CCOCC2)cc(C(F)(F)F)n1

>  <canonical_smi>  (145) 
CSc1nc(N2CCOCC2)cc(C(F)(F)F)n1

>  <Set>  (145) 
G2 inactive

>  <Set_type>  (145) 
Train

>  <MW>  (145) 
279.29

>  <HBD>  (145) 
0

>  <HBA>  (145) 
5

>  <NRB>  (145) 
2

>  <NR>  (145) 
2

>  <NAR>  (145) 
1

>  <PSA>  (145) 
38.25

>  <Standard Type>  (145) 
nan

>  <Standard Relation>  (145) 
nan

>  <Standard Units>  (145) 
nan

>  <Standard Value>  (145) 
nan

>  <Assay ChEMBL ID>  (145) 
nan

>  <Assay Description>  (145) 
nan

>  <BAO Label>  (145) 
nan

>  <bits>  (145) 
<rdkit.DataStructs.cDataStructs.ExplicitBitVect object at 0x00000210F8E687B0>

>  <Group>  (145) 
G2

$$$$

     RDKit          2D

 20 21  0  0  0  0  0  0  0  0999 V2000
    6.4001    1.2642    0.0000 C   0  0  0  0  0  0  0  0  0  0  0  0
    4.9483    1.6416    0.0000 C   0  0  0  0  0  0  0  0  0  0  0  0
    4.5492    3.0876    0.0000 C   0  0  0  0  0  0  0  0  0  0  0  0
    5.9952    3.4866    0.0000 C   0  0  0  0  0  0  0  0  0  0  0  0
    7.4411    3.8857    0.0000 N   0  0  0  0  0  0  0  0  0  0  0  0
    4.1502    4.5335    0.0000 C   0  0  0  0  0  0  0  0  0  0  0  0
    5.2029    5.6021    0.0000 C   0  0  0  0  0  0  0  0  0  0  0  0
    3.1033    2.6885    0.0000 N   0  0  0  0  0  0  0  0  0  0  0  0
    1.9306    3.6237    0.0000 C   0  0  0  0  0  0  0  0  0  0  0  0
    1.9978    5.1222    0.0000 O   0  0  0  0  0  0  0  0  0  0  0  0
    0.6787    2.7974    0.0000 C   0  0  0  0  0  0  0  0  0  0  0  0
    1.0777    1.3515    0.0000 C   0  0  0  0  0  0  0  0  0  0  0  0
    1.7286    0.0000    0.0000 C   0  0  0  0  0  0  0  0  0  0  0  0
    1.0777   -1.3515    0.0000 C   0  0  0  0  0  0  0  0  0  0  0  0
   -0.3846   -1.6852    0.0000 C   0  0  0  0  0  0  0  0  0  0  0  0
   -1.5574   -0.7500    0.0000 C   0  0  0  0  0  0  0  0  0  0  0  0
   -1.5574    0.7500    0.0000 C   0  0  0  0  0  0  0  0  0  0  0  0
   -0.3846    1.6852    0.0000 C   0  0  0  0  0  0  0  0  0  0  0  0
    2.5762    1.2842    0.0000 C   0  0  0  0  0  0  0  0  0  0  0  0
    3.4026    0.0323    0.0000 O   0  0  0  0  0  0  0  0  0  0  0  0
  1  2  1  0
  2  3  1  0
  3  4  1  0
  4  5  3  0
  3  6  1  0
  6  7  1  0
  3  8  1  0
  8  9  1  0
  9 10  2  0
  9 11  1  0
 11 12  1  0
 12 13  1  0
 13 14  1  0
 14 15  1  0
 15 16  1  0
 16 17  1  0
 17 18  1  0
 12 19  1  0
 19 20  2  0
 19  8  1  0
 18 12  1  0
M  END
>  <Compound_ID>  (146) 
C40366101

>  <Active>  (146) 
0

>  <Smiles>  (146) 
CCC(C#N)(CC)N1C(=O)CC2(CCCCCC2)C1=O

>  <canonical_smi>  (146) 
CCC(C#N)(CC)N1C(=O)CC2(CCCCCC2)C1=O

>  <Set>  (146) 
G2 inactive

>  <Set_type>  (146) 
Train

>  <MW>  (146) 
276.38

>  <HBD>  (146) 
0

>  <HBA>  (146) 
3

>  <NRB>  (146) 
3

>  <NR>  (146) 
2

>  <NAR>  (146) 
0

>  <PSA>  (146) 
61.17

>  <Standard Type>  (146) 
nan

>  <Standard Relation>  (146) 
nan

>  <Standard Units>  (146) 
nan

>  <Standard Value>  (146) 
nan

>  <Assay ChEMBL ID>  (146) 
nan

>  <Assay Description>  (146) 
nan

>  <BAO Label>  (146) 
nan

>  <bits>  (146) 
<rdkit.DataStructs.cDataStructs.ExplicitBitVect object at 0x00000210F8E68970>

>  <Group>  (146) 
G2

$$$$

     RDKit          2D

 19 21  0  0  0  0  0  0  0  0999 V2000
   -0.3756    9.0563    0.0000 C   0  0  0  0  0  0  0  0  0  0  0  0
   -1.8610    8.8476    0.0000 C   0  0  0  0  0  0  0  0  0  0  0  0
   -2.4229    7.4568    0.0000 C   0  0  0  0  0  0  0  0  0  0  0  0
   -3.6949    8.2517    0.0000 C   0  0  0  0  0  0  0  0  0  0  0  0
   -0.9556    7.1449    0.0000 C   0  0  0  0  0  0  0  0  0  0  0  0
   -0.4921    5.7184    0.0000 C   0  0  0  0  0  0  0  0  0  0  0  0
   -1.4958    4.6036    0.0000 N   0  0  0  0  0  0  0  0  0  0  0  0
   -1.0323    3.1771    0.0000 C   0  0  0  0  0  0  0  0  0  0  0  0
    0.3943    2.7135    0.0000 N   0  0  0  0  0  0  0  0  0  0  0  0
    0.3943    1.2135    0.0000 C   0  0  0  0  0  0  0  0  0  0  0  0
    1.2760    0.0000    0.0000 S   0  0  0  0  0  0  0  0  0  0  0  0
    0.3943   -1.2135    0.0000 C   0  0  0  0  0  0  0  0  0  0  0  0
   -1.0323   -0.7500    0.0000 C   0  0  0  0  0  0  0  0  0  0  0  0
   -1.0323    0.7500    0.0000 N   0  0  0  0  0  0  0  0  0  0  0  0
   -1.9140    1.9635    0.0000 C   0  0  0  0  0  0  0  0  0  0  0  0
   -3.4140    1.9635    0.0000 C   0  0  0  0  0  0  0  0  0  0  0  0
   -4.1640    3.2626    0.0000 O   0  0  0  0  0  0  0  0  0  0  0  0
   -2.9630    4.9155    0.0000 C   0  0  0  0  0  0  0  0  0  0  0  0
   -3.4266    6.3421    0.0000 C   0  0  0  0  0  0  0  0  0  0  0  0
  1  2  1  0
  2  3  1  0
  3  4  1  0
  3  5  1  0
  5  6  1  0
  6  7  1  0
  7  8  1  0
  8  9  1  0
  9 10  2  0
 10 11  1  0
 11 12  1  0
 12 13  2  0
 13 14  1  0
 14 15  1  0
 15 16  1  0
 16 17  2  0
  7 18  1  0
 18 19  1  0
 19  3  1  0
 15  8  2  0
 14 10  1  0
M  END
>  <Compound_ID>  (147) 
C62954530

>  <Active>  (147) 
0

>  <Smiles>  (147) 
CCC1(C)CCN(c2nc3sccn3c2C=O)CC1

>  <canonical_smi>  (147) 
CCC1(C)CCN(c2nc3sccn3c2C=O)CC1

>  <Set>  (147) 
G2 inactive

>  <Set_type>  (147) 
Train

>  <MW>  (147) 
277.39

>  <HBD>  (147) 
0

>  <HBA>  (147) 
3

>  <NRB>  (147) 
3

>  <NR>  (147) 
3

>  <NAR>  (147) 
2

>  <PSA>  (147) 
37.61

>  <Standard Type>  (147) 
nan

>  <Standard Relation>  (147) 
nan

>  <Standard Units>  (147) 
nan

>  <Standard Value>  (147) 
nan

>  <Assay ChEMBL ID>  (147) 
nan

>  <Assay Description>  (147) 
nan

>  <BAO Label>  (147) 
nan

>  <bits>  (147) 
<rdkit.DataStructs.cDataStructs.ExplicitBitVect object at 0x00000210F8E68510>

>  <Group>  (147) 
G2

$$$$

     RDKit          2D

 26 26  0  0  0  0  0  0  0  0999 V2000
    8.2500   -3.8971    0.0000 C   0  0  0  0  0  0  0  0  0  0  0  0
    7.5000   -2.5981    0.0000 C   0  0  0  0  0  0  0  0  0  0  0  0
    6.0000   -2.5981    0.0000 C   0  0  0  0  0  0  0  0  0  0  0  0
    5.2500   -1.2990    0.0000 C   0  0  0  0  0  0  0  0  0  0  0  0
    3.7500   -1.2990    0.0000 N   0  0  0  0  0  0  0  0  0  0  0  0
    3.0000    0.0000    0.0000 C   0  0  0  0  0  0  0  0  0  0  0  0
    3.7500    1.2990    0.0000 O   0  0  0  0  0  0  0  0  0  0  0  0
    1.5000    0.0000    0.0000 C   0  0  0  0  0  0  0  0  0  0  0  0
    0.7500   -1.2990    0.0000 C   0  0  0  0  0  0  0  0  0  0  0  0
   -0.7500   -1.2990    0.0000 C   0  0  0  0  0  0  0  0  0  0  0  0
   -1.5000    0.0000    0.0000 C   0  0  0  0  0  0  0  0  0  0  0  0
   -0.7500    1.2990    0.0000 N   0  0  0  0  0  4  0  0  0  0  0  0
   -1.5000    2.5981    0.0000 C   0  0  0  0  0  0  0  0  0  0  0  0
   -0.7500    3.8971    0.0000 C   0  0  0  0  0  0  0  0  0  0  0  0
   -3.0000    2.5981    0.0000 C   0  0  0  0  0  0  0  0  0  0  0  0
   -3.7500    1.2990    0.0000 O   0  0  0  0  0  0  0  0  0  0  0  0
   -3.7500    3.8971    0.0000 N   0  0  0  0  0  0  0  0  0  0  0  0
   -5.2500    3.8971    0.0000 C   0  0  0  0  0  0  0  0  0  0  0  0
   -6.0000    2.5981    0.0000 O   0  0  0  0  0  0  0  0  0  0  0  0
   -6.0000    5.1962    0.0000 N   0  0  0  0  0  0  0  0  0  0  0  0
   -7.5000    5.1962    0.0000 C   0  0  0  0  0  0  0  0  0  0  0  0
   -8.2500    6.4952    0.0000 C   0  0  0  0  0  0  0  0  0  0  0  0
   -9.0000    7.7942    0.0000 F   0  0  0  0  0  0  0  0  0  0  0  0
   -9.5490    5.7452    0.0000 F   0  0  0  0  0  0  0  0  0  0  0  0
   -6.9510    7.2452    0.0000 F   0  0  0  0  0  0  0  0  0  0  0  0
    0.7500    1.2990    0.0000 C   0  0  0  0  0  0  0  0  0  0  0  0
  1  2  1  0
  2  3  1  0
  3  4  1  0
  4  5  1  0
  5  6  1  0
  6  7  2  0
  8  6  1  6
  8  9  1  0
  9 10  1  0
 10 11  1  0
 11 12  1  0
 12 13  1  0
 13 14  1  1
 13 15  1  0
 15 16  2  0
 15 17  1  0
 17 18  1  0
 18 19  2  0
 18 20  1  0
 20 21  1  0
 21 22  1  0
 22 23  1  0
 22 24  1  0
 22 25  1  0
 12 26  1  0
 26  8  1  0
M  CHG  1  12   1
M  END
>  <Compound_ID>  (148) 
C65253373

>  <Active>  (148) 
0

>  <Smiles>  (148) 
CCCCNC(=O)[C@@H]1CCC[NH+]([C@H](C)C(=O)NC(=O)NCC(F)(F)F)C1

>  <canonical_smi>  (148) 
CCCCNC(=O)[C@@H]1CCC[NH+]([C@H](C)C(=O)NC(=O)NCC(F)(F)F)C1

>  <Set>  (148) 
G2 inactive

>  <Set_type>  (148) 
Train

>  <MW>  (148) 
381.42

>  <HBD>  (148) 
4

>  <HBA>  (148) 
3

>  <NRB>  (148) 
7

>  <NR>  (148) 
1

>  <NAR>  (148) 
0

>  <PSA>  (148) 
91.74

>  <Standard Type>  (148) 
nan

>  <Standard Relation>  (148) 
nan

>  <Standard Units>  (148) 
nan

>  <Standard Value>  (148) 
nan

>  <Assay ChEMBL ID>  (148) 
nan

>  <Assay Description>  (148) 
nan

>  <BAO Label>  (148) 
nan

>  <bits>  (148) 
<rdkit.DataStructs.cDataStructs.ExplicitBitVect object at 0x00000210F8E69380>

>  <Group>  (148) 
G2

$$$$

     RDKit          2D

 24 27  0  0  0  0  0  0  0  0999 V2000
   -0.7500   -3.8971    0.0000 O   0  0  0  0  0  0  0  0  0  0  0  0
    0.7500   -3.8971    0.0000 C   0  0  0  0  0  0  0  0  0  0  0  0
    1.5000   -2.5981    0.0000 N   0  0  0  0  0  0  0  0  0  0  0  0
    0.7500   -1.2990    0.0000 C   0  0  0  0  0  0  0  0  0  0  0  0
    1.5000    0.0000    0.0000 C   0  0  0  0  0  0  0  0  0  0  0  0
    0.7500    1.2990    0.0000 C   0  0  0  0  0  0  0  0  0  0  0  0
   -0.7500    1.2990    0.0000 N   0  0  0  0  0  0  0  0  0  0  0  0
   -1.5000    2.5981    0.0000 C   0  0  0  0  0  0  0  0  0  0  0  0
   -3.0000    2.5981    0.0000 O   0  0  0  0  0  0  0  0  0  0  0  0
   -0.7500    3.8971    0.0000 C   0  0  0  0  0  0  0  0  0  0  0  0
   -0.7500    5.3971    0.0000 C   0  0  0  0  0  0  0  0  0  0  0  0
    0.5490    4.6471    0.0000 C   0  0  0  0  0  0  0  0  0  0  0  0
   -1.5000    0.0000    0.0000 C   0  0  0  0  0  0  0  0  0  0  0  0
   -0.7500   -1.2990    0.0000 C   0  0  0  0  0  0  0  0  0  0  0  0
    1.5000   -5.1962    0.0000 N   0  0  0  0  0  0  0  0  0  0  0  0
    2.9918   -5.3529    0.0000 C   0  0  0  0  0  0  0  0  0  0  0  0
    3.3037   -6.8202    0.0000 C   0  0  0  0  0  0  0  0  0  0  0  0
    2.0046   -7.5702    0.0000 C   0  0  0  0  0  0  0  0  0  0  0  0
    1.8478   -9.0619    0.0000 N   0  0  0  0  0  4  0  0  0  0  0  0
    2.9625  -10.0656    0.0000 C   0  0  0  0  0  0  0  0  0  0  0  0
    2.3524  -11.4360    0.0000 C   0  0  0  0  0  0  0  0  0  0  0  0
    0.8606  -11.2792    0.0000 C   0  0  0  0  0  0  0  0  0  0  0  0
    0.5488   -9.8119    0.0000 C   0  0  0  0  0  0  0  0  0  0  0  0
    0.8899   -6.5665    0.0000 C   0  0  0  0  0  0  0  0  0  0  0  0
  1  2  2  0
  2  3  1  0
  3  4  1  0
  4  5  1  0
  5  6  1  0
  6  7  1  0
  7  8  1  0
  8  9  2  0
  8 10  1  0
 10 11  1  0
 11 12  1  0
  7 13  1  0
 13 14  1  0
  2 15  1  0
 15 16  1  0
 16 17  1  0
 17 18  1  0
 18 19  1  6
 19 20  1  0
 20 21  1  0
 21 22  1  0
 22 23  1  0
 18 24  1  0
 14  4  1  0
 24 15  1  0
 12 10  1  0
 23 19  1  0
M  CHG  1  19   1
M  END
>  <Compound_ID>  (149) 
C66176932

>  <Active>  (149) 
0

>  <Smiles>  (149) 
O=C(NC1CCN(C(=O)C2CC2)CC1)N1CC[C@H]([NH+]2CCCC2)C1

>  <canonical_smi>  (149) 
O=C(NC1CCN(C(=O)C2CC2)CC1)N1CC[C@H]([NH+]2CCCC2)C1

>  <Set>  (149) 
G2 inactive

>  <Set_type>  (149) 
Train

>  <MW>  (149) 
335.47

>  <HBD>  (149) 
2

>  <HBA>  (149) 
2

>  <NRB>  (149) 
3

>  <NR>  (149) 
4

>  <NAR>  (149) 
0

>  <PSA>  (149) 
57.09

>  <Standard Type>  (149) 
nan

>  <Standard Relation>  (149) 
nan

>  <Standard Units>  (149) 
nan

>  <Standard Value>  (149) 
nan

>  <Assay ChEMBL ID>  (149) 
nan

>  <Assay Description>  (149) 
nan

>  <BAO Label>  (149) 
nan

>  <bits>  (149) 
<rdkit.DataStructs.cDataStructs.ExplicitBitVect object at 0x00000210F8E6BF40>

>  <Group>  (149) 
G2

$$$$

     RDKit          2D

 25 27  0  0  0  0  0  0  0  0999 V2000
   -1.7455   -5.5373    0.0000 C   0  0  0  0  0  0  0  0  0  0  0  0
   -0.7418   -6.6520    0.0000 C   0  0  0  0  0  0  0  0  0  0  0  0
   -1.0537   -8.1192    0.0000 N   0  0  0  0  0  0  0  0  0  0  0  0
    0.2454   -8.8692    0.0000 N   0  0  0  0  0  0  0  0  0  0  0  0
    0.4022  -10.3610    0.0000 C   0  0  0  0  0  0  0  0  0  0  0  0
    1.3601   -7.8655    0.0000 C   0  0  0  0  0  0  0  0  0  0  0  0
    2.8273   -8.1774    0.0000 C   0  0  0  0  0  0  0  0  0  0  0  0
    0.7500   -6.4952    0.0000 C   0  0  0  0  0  0  0  0  0  0  0  0
    1.5000   -5.1962    0.0000 C   0  0  0  0  0  0  0  0  0  0  0  0
    0.7500   -3.8971    0.0000 N   0  0  0  0  0  0  0  0  0  0  0  0
    1.5000   -2.5981    0.0000 C   0  0  0  0  0  0  0  0  0  0  0  0
    0.7500   -1.2990    0.0000 C   0  0  0  0  0  0  0  0  0  0  0  0
    1.5000    0.0000    0.0000 C   0  0  0  0  0  0  0  0  0  0  0  0
    0.7500    1.2990    0.0000 C   0  0  0  0  0  0  0  0  0  0  0  0
   -0.7500    1.2990    0.0000 C   0  0  0  0  0  0  0  0  0  0  0  0
   -1.5000    2.5981    0.0000 N   0  0  0  0  0  0  0  0  0  0  0  0
   -0.7500    3.8971    0.0000 C   0  0  0  0  0  0  0  0  0  0  0  0
   -1.5000    5.1962    0.0000 C   0  0  0  0  0  0  0  0  0  0  0  0
   -0.7500    6.4952    0.0000 C   0  0  0  0  0  0  0  0  0  0  0  0
   -3.0000    5.1962    0.0000 O   0  0  0  0  0  0  0  0  0  0  0  0
   -3.7500    3.8971    0.0000 C   0  0  0  0  0  0  0  0  0  0  0  0
   -5.2500    3.8971    0.0000 C   0  0  0  0  0  0  0  0  0  0  0  0
   -3.0000    2.5981    0.0000 C   0  0  0  0  0  0  0  0  0  0  0  0
   -1.5000    0.0000    0.0000 N   0  0  0  0  0  4  0  0  0  0  0  0
   -0.7500   -1.2990    0.0000 C   0  0  0  0  0  0  0  0  0  0  0  0
  1  2  1  0
  2  3  2  0
  3  4  1  0
  4  5  1  0
  4  6  1  0
  6  7  1  0
  6  8  2  0
  8  9  1  0
  9 10  1  0
 10 11  1  0
 11 12  1  0
 12 13  2  0
 13 14  1  0
 14 15  2  0
 15 16  1  0
 16 17  1  0
 17 18  1  0
 18 19  1  6
 18 20  1  0
 20 21  1  0
 21 22  1  1
 21 23  1  0
 15 24  1  0
 24 25  2  0
  8  2  1  0
 25 12  1  0
 23 16  1  0
M  CHG  1  24   1
M  END
>  <Compound_ID>  (150) 
C67120815

>  <Active>  (150) 
0

>  <Smiles>  (150) 
Cc1nn(C)c(C)c1CNCc1ccc(N2C[C@@H](C)O[C@H](C)C2)[nH+]c1

>  <canonical_smi>  (150) 
Cc1nn(C)c(C)c1CNCc1ccc(N2C[C@@H](C)O[C@H](C)C2)[nH+]c1

>  <Set>  (150) 
G2 inactive

>  <Set_type>  (150) 
Train

>  <MW>  (150) 
344.48

>  <HBD>  (150) 
1

>  <HBA>  (150) 
4

>  <NRB>  (150) 
5

>  <NR>  (150) 
3

>  <NAR>  (150) 
2

>  <PSA>  (150) 
56.46

>  <Standard Type>  (150) 
nan

>  <Standard Relation>  (150) 
nan

>  <Standard Units>  (150) 
nan

>  <Standard Value>  (150) 
nan

>  <Assay ChEMBL ID>  (150) 
nan

>  <Assay Description>  (150) 
nan

>  <BAO Label>  (150) 
nan

>  <bits>  (150) 
<rdkit.DataStructs.cDataStructs.ExplicitBitVect object at 0x00000210F8E6B300>

>  <Group>  (150) 
G2

$$$$

     RDKit          2D

 31 34  0  0  0  0  0  0  0  0999 V2000
    3.0000    0.0000    0.0000 C   0  0  0  0  0  0  0  0  0  0  0  0
    1.5000    0.0000    0.0000 C   0  0  0  0  0  0  0  0  0  0  0  0
    0.7500   -1.2990    0.0000 N   0  0  0  0  0  0  0  0  0  0  0  0
   -0.7500   -1.2990    0.0000 C   0  0  0  0  0  0  0  0  0  0  0  0
   -1.5000    0.0000    0.0000 C   0  0  0  0  0  0  0  0  0  0  0  0
   -3.0000    0.0000    0.0000 C   0  0  0  0  0  0  0  0  0  0  0  0
   -3.7500   -1.2990    0.0000 O   0  0  0  0  0  0  0  0  0  0  0  0
   -0.7500    1.2990    0.0000 C   0  0  0  0  0  0  0  0  0  0  0  0
   -1.5000    2.5981    0.0000 C   0  0  0  0  0  0  0  0  0  0  0  0
   -0.7500    3.8971    0.0000 C   0  0  0  0  0  0  0  0  0  0  0  0
   -1.5000    5.1962    0.0000 C   0  0  0  0  0  0  0  0  0  0  0  0
   -0.7500    6.4952    0.0000 O   0  0  0  0  0  0  0  0  0  0  0  0
   -3.0000    5.1962    0.0000 N   0  0  0  0  0  0  0  0  0  0  0  0
   -3.7500    6.4952    0.0000 C   0  0  0  0  0  0  0  0  0  0  0  0
   -3.0000    7.7942    0.0000 C   0  0  0  0  0  0  0  0  0  0  0  0
   -3.7500    9.0933    0.0000 C   0  0  0  0  0  0  0  0  0  0  0  0
   -5.2500    9.0933    0.0000 C   0  0  0  0  0  0  0  0  0  0  0  0
   -6.0000   10.3923    0.0000 Br  0  0  0  0  0  0  0  0  0  0  0  0
   -6.0000    7.7942    0.0000 C   0  0  0  0  0  0  0  0  0  0  0  0
   -5.2500    6.4952    0.0000 C   0  0  0  0  0  0  0  0  0  0  0  0
    0.7500    3.8971    0.0000 C   0  0  0  0  0  0  0  0  0  0  0  0
    1.5000    5.1962    0.0000 N   0  0  0  0  0  4  0  0  0  0  0  0
    3.0000    5.1962    0.0000 C   0  0  0  0  0  0  0  0  0  0  0  0
    3.7500    3.8971    0.0000 C   0  0  0  0  0  0  0  0  0  0  0  0
    5.2500    3.8971    0.0000 C   0  0  0  0  0  0  0  0  0  0  0  0
    6.0000    5.1962    0.0000 C   0  0  0  0  0  0  0  0  0  0  0  0
    7.5000    5.1962    0.0000 F   0  0  0  0  0  0  0  0  0  0  0  0
    5.2500    6.4952    0.0000 C   0  0  0  0  0  0  0  0  0  0  0  0
    3.7500    6.4952    0.0000 C   0  0  0  0  0  0  0  0  0  0  0  0
    1.5000    2.5981    0.0000 O   0  0  0  0  0  0  0  0  0  0  0  0
    0.7500    1.2990    0.0000 C   0  0  0  0  0  0  0  0  0  0  0  0
  1  2  1  0
  2  3  2  0
  3  4  1  0
  4  5  2  0
  5  6  1  0
  6  7  1  0
  5  8  1  0
  8  9  1  0
  9 10  2  0
 10 11  1  0
 11 12  2  0
 11 13  1  0
 13 14  1  0
 14 15  2  0
 15 16  1  0
 16 17  2  0
 17 18  1  0
 17 19  1  0
 19 20  2  0
 10 21  1  0
 21 22  2  0
 22 23  1  0
 23 24  2  0
 24 25  1  0
 25 26  2  0
 26 27  1  0
 26 28  1  0
 28 29  2  0
 21 30  1  0
 30 31  1  0
 31  2  1  0
 31  8  2  0
 20 14  1  0
 29 23  1  0
M  CHG  1  22   1
M  END
>  <Compound_ID>  (151) 
C20617556

>  <Active>  (151) 
0

>  <Smiles>  (151) 
Cc1ncc(CO)c2cc(C(=O)Nc3ccc(Br)cc3)/c(=[NH+]/c3ccc(F)cc3)oc12

>  <canonical_smi>  (151) 
Cc1ncc(CO)c2cc(C(=O)Nc3ccc(Br)cc3)/c(=[NH+]/c3ccc(F)cc3)oc12

>  <Set>  (151) 
G2 inactive

>  <Set_type>  (151) 
Test

>  <MW>  (151) 
483.32

>  <HBD>  (151) 
3

>  <HBA>  (151) 
4

>  <NRB>  (151) 
4

>  <NR>  (151) 
4

>  <NAR>  (151) 
4

>  <PSA>  (151) 
89.33

>  <Standard Type>  (151) 
nan

>  <Standard Relation>  (151) 
nan

>  <Standard Units>  (151) 
nan

>  <Standard Value>  (151) 
nan

>  <Assay ChEMBL ID>  (151) 
nan

>  <Assay Description>  (151) 
nan

>  <BAO Label>  (151) 
nan

>  <bits>  (151) 
<rdkit.DataStructs.cDataStructs.ExplicitBitVect object at 0x00000210F8E69F50>

>  <Group>  (151) 
G2

$$$$

     RDKit          2D

 22 22  0  0  0  0  0  0  0  0999 V2000
    8.2500   -3.8971    0.0000 N   0  0  0  0  0  0  0  0  0  0  0  0
    7.5000   -2.5981    0.0000 C   0  0  0  0  0  0  0  0  0  0  0  0
    8.2500   -1.2990    0.0000 O   0  0  0  0  0  0  0  0  0  0  0  0
    6.0000   -2.5981    0.0000 N   0  0  0  0  0  0  0  0  0  0  0  0
    5.2500   -1.2990    0.0000 N   0  0  0  0  0  0  0  0  0  0  0  0
    3.7500   -1.2990    0.0000 C   0  0  0  0  0  0  0  0  0  0  0  0
    3.0000    0.0000    0.0000 C   0  0  0  0  0  0  0  0  0  0  0  0
    3.7500    1.2990    0.0000 O   0  0  0  0  0  0  0  0  0  0  0  0
    1.5000    0.0000    0.0000 C   0  0  0  0  0  0  0  0  0  0  0  0
    0.7500   -1.2990    0.0000 C   0  0  0  0  0  0  0  0  0  0  0  0
   -0.7500   -1.2990    0.0000 C   0  0  0  0  0  0  0  0  0  0  0  0
   -1.5000    0.0000    0.0000 C   0  0  0  0  0  0  0  0  0  0  0  0
   -3.0000    0.0000    0.0000 C   0  0  0  0  0  0  0  0  0  0  0  0
   -3.7500   -1.2990    0.0000 O   0  0  0  0  0  0  0  0  0  0  0  0
   -3.7500    1.2990    0.0000 C   0  0  0  0  0  0  0  0  0  0  0  0
   -5.2500    1.2990    0.0000 N   0  0  0  0  0  0  0  0  0  0  0  0
   -6.0000    2.5981    0.0000 N   0  0  0  0  0  0  0  0  0  0  0  0
   -7.5000    2.5981    0.0000 C   0  0  0  0  0  0  0  0  0  0  0  0
   -8.2500    3.8971    0.0000 N   0  0  0  0  0  0  0  0  0  0  0  0
   -8.2500    1.2990    0.0000 O   0  0  0  0  0  0  0  0  0  0  0  0
   -0.7500    1.2990    0.0000 C   0  0  0  0  0  0  0  0  0  0  0  0
    0.7500    1.2990    0.0000 C   0  0  0  0  0  0  0  0  0  0  0  0
  1  2  1  0
  2  3  2  0
  2  4  1  0
  4  5  1  0
  5  6  2  0
  6  7  1  0
  7  8  2  0
  7  9  1  0
  9 10  2  0
 10 11  1  0
 11 12  2  0
 12 13  1  0
 13 14  2  0
 13 15  1  0
 15 16  2  0
 16 17  1  0
 17 18  1  0
 18 19  1  0
 18 20  2  0
 12 21  1  0
 21 22  2  0
 22  9  1  0
M  END
>  <Compound_ID>  (152) 
C13402906

>  <Active>  (152) 
0

>  <Smiles>  (152) 
NC(=O)N/N=C/C(=O)c1ccc(C(=O)/C=N/NC(N)=O)cc1

>  <canonical_smi>  (152) 
NC(=O)N/N=C/C(=O)c1ccc(C(=O)/C=N/NC(N)=O)cc1

>  <Set>  (152) 
G2 inactive

>  <Set_type>  (152) 
Test

>  <MW>  (152) 
304.27

>  <HBD>  (152) 
4

>  <HBA>  (152) 
4

>  <NRB>  (152) 
6

>  <NR>  (152) 
1

>  <NAR>  (152) 
1

>  <PSA>  (152) 
169.1

>  <Standard Type>  (152) 
nan

>  <Standard Relation>  (152) 
nan

>  <Standard Units>  (152) 
nan

>  <Standard Value>  (152) 
nan

>  <Assay ChEMBL ID>  (152) 
nan

>  <Assay Description>  (152) 
nan

>  <BAO Label>  (152) 
nan

>  <bits>  (152) 
<rdkit.DataStructs.cDataStructs.ExplicitBitVect object at 0x00000210F8E69000>

>  <Group>  (152) 
G2

$$$$

     RDKit          2D

 33 34  0  0  0  0  0  0  0  0999 V2000
    2.6491    0.9642    0.0000 C   0  0  0  0  0  0  0  0  0  0  0  0
    1.5000    0.0000    0.0000 C   0  0  0  0  0  0  0  0  0  0  0  0
    2.6491   -0.9642    0.0000 C   0  0  0  0  0  0  0  0  0  0  0  0
    4.0586   -0.4512    0.0000 O   0  0  0  0  0  0  0  0  0  0  0  0
    2.3886   -2.4414    0.0000 N   0  0  0  0  0  0  0  0  0  0  0  0
    3.5377   -3.4056    0.0000 N   0  0  0  0  0  0  0  0  0  0  0  0
    0.7500   -1.2990    0.0000 C   0  0  0  0  0  0  0  0  0  0  0  0
   -0.7500   -1.2990    0.0000 C   0  0  0  0  0  0  0  0  0  0  0  0
   -1.5000    0.0000    0.0000 C   0  0  0  0  0  0  0  0  0  0  0  0
   -0.7500    1.2990    0.0000 C   0  0  0  0  0  0  0  0  0  0  0  0
    0.7500    1.2990    0.0000 C   0  0  0  0  0  0  0  0  0  0  0  0
    1.5000    2.5981    0.0000 C   0  0  0  0  0  0  0  0  0  0  0  0
    3.0000    2.5981    0.0000 S   0  0  0  0  0  0  0  0  0  0  0  0
    0.7500    3.8971    0.0000 O   0  0  0  0  0  0  0  0  0  0  0  0
    1.5000    5.1962    0.0000 C   0  0  0  0  0  0  0  0  0  0  0  0
    3.0000    5.1962    0.0000 O   0  0  0  0  0  0  0  0  0  0  0  0
    0.7500    6.4952    0.0000 C   0  0  0  0  0  0  0  0  0  0  0  0
    1.5000    7.7942    0.0000 C   0  0  0  0  0  0  0  0  0  0  0  0
    3.0000    7.7942    0.0000 O   0  0  0  0  0  1  0  0  0  0  0  0
    0.7500    9.0933    0.0000 O   0  0  0  0  0  0  0  0  0  0  0  0
    1.5000   10.3923    0.0000 C   0  0  0  0  0  0  0  0  0  0  0  0
    3.0000   10.3923    0.0000 S   0  0  0  0  0  0  0  0  0  0  0  0
    0.7500   11.6913    0.0000 C   0  0  0  0  0  0  0  0  0  0  0  0
    1.5000   12.9904    0.0000 C   0  0  0  0  0  0  0  0  0  0  0  0
    0.7500   14.2894    0.0000 C   0  0  0  0  0  0  0  0  0  0  0  0
   -0.7500   14.2894    0.0000 C   0  0  0  0  0  0  0  0  0  0  0  0
   -1.5000   12.9904    0.0000 C   0  0  0  0  0  0  0  0  0  0  0  0
   -0.7500   11.6913    0.0000 C   0  0  0  0  0  0  0  0  0  0  0  0
   -0.4895   10.2141    0.0000 C   0  0  0  0  0  0  0  0  0  0  0  0
   -2.1595   11.1783    0.0000 C   0  0  0  0  0  0  0  0  0  0  0  0
   -2.4200    9.7011    0.0000 O   0  0  0  0  0  0  0  0  0  0  0  0
   -3.3086   12.1425    0.0000 N   0  0  0  0  0  0  0  0  0  0  0  0
   -4.7181   11.6295    0.0000 N   0  0  0  0  0  0  0  0  0  0  0  0
  2  1  1  1
  2  3  1  0
  3  4  2  0
  3  5  1  0
  5  6  1  0
  2  7  1  0
  7  8  1  0
  8  9  2  0
  9 10  1  0
 10 11  2  0
 11 12  1  0
 12 13  2  0
 12 14  1  0
 14 15  1  0
 15 16  2  0
 15 17  1  0
 17 18  2  0
 18 19  1  0
 18 20  1  0
 20 21  1  0
 21 22  2  0
 21 23  1  0
 23 24  2  0
 24 25  1  0
 25 26  2  0
 26 27  1  0
 27 28  1  0
 28 29  1  1
 28 30  1  0
 30 31  2  0
 30 32  1  0
 32 33  1  0
 11  2  1  0
 28 23  1  0
M  CHG  1  19  -1
M  END
>  <Compound_ID>  (153) 
C66331740

>  <Active>  (153) 
0

>  <Smiles>  (153) 
C[C@@]1(C(=O)NN)CC=CC=C1C(=S)OC(=O)/C=C(\[O-])OC(=S)C1=CC=CC[C@@]1(C)C(=O)NN

>  <canonical_smi>  (153) 
C[C@@]1(C(=O)NN)CC=CC=C1C(=S)OC(=O)/C=C(\[O-])OC(=S)C1=CC=CC[C@@]1(C)C(=O)NN

>  <Set>  (153) 
G2 inactive

>  <Set_type>  (153) 
Test

>  <MW>  (153) 
491.57

>  <HBD>  (153) 
4

>  <HBA>  (153) 
10

>  <NRB>  (153) 
6

>  <NR>  (153) 
2

>  <NAR>  (153) 
0

>  <PSA>  (153) 
168.83

>  <Standard Type>  (153) 
nan

>  <Standard Relation>  (153) 
nan

>  <Standard Units>  (153) 
nan

>  <Standard Value>  (153) 
nan

>  <Assay ChEMBL ID>  (153) 
nan

>  <Assay Description>  (153) 
nan

>  <BAO Label>  (153) 
nan

>  <bits>  (153) 
<rdkit.DataStructs.cDataStructs.ExplicitBitVect object at 0x00000210F8E6A730>

>  <Group>  (153) 
G2

$$$$

     RDKit          2D

 35 38  0  0  0  0  0  0  0  0999 V2000
   -5.2020   -8.5535    0.0000 C   0  0  0  0  0  0  0  0  0  0  0  0
   -4.8901   -7.0863    0.0000 C   0  0  0  0  0  0  0  0  0  0  0  0
   -6.0048   -6.0826    0.0000 C   0  0  0  0  0  0  0  0  0  0  0  0
   -7.4314   -6.5461    0.0000 C   0  0  0  0  0  0  0  0  0  0  0  0
   -8.5461   -5.5424    0.0000 C   0  0  0  0  0  0  0  0  0  0  0  0
   -8.2343   -4.0752    0.0000 O   0  0  0  0  0  0  0  0  0  0  0  0
   -9.9727   -6.0059    0.0000 O   0  0  0  0  0  1  0  0  0  0  0  0
   -3.4635   -6.6227    0.0000 C   0  0  0  0  0  0  0  0  0  0  0  0
   -2.2500   -7.5044    0.0000 C   0  0  0  0  0  0  0  0  0  0  0  0
   -1.0365   -6.6227    0.0000 C   0  0  0  0  0  0  0  0  0  0  0  0
   -1.5000   -5.1962    0.0000 C   0  0  0  0  0  0  0  0  0  0  0  0
   -0.7500   -3.8971    0.0000 C   0  0  0  0  0  0  0  0  0  0  0  0
    0.7500   -3.8971    0.0000 C   0  0  0  0  0  0  0  0  0  0  0  0
    1.5000   -2.5981    0.0000 C   0  0  0  0  0  0  0  0  0  0  0  0
    0.7500   -1.2990    0.0000 C   0  0  0  0  0  0  0  0  0  0  0  0
    1.5000    0.0000    0.0000 C   0  0  0  0  0  0  0  0  0  0  0  0
    0.7500    1.2990    0.0000 C   0  0  0  0  0  0  0  0  0  0  0  0
    1.5000    2.5981    0.0000 O   0  0  0  0  0  0  0  0  0  0  0  0
    3.0000    2.5981    0.0000 C   0  0  0  0  0  0  0  0  0  0  0  0
    3.7500    1.2990    0.0000 O   0  0  0  0  0  0  0  0  0  0  0  0
    3.7500    3.8971    0.0000 C   0  0  0  0  0  0  0  0  0  0  0  0
    5.2500    3.8971    0.0000 C   0  0  0  0  0  0  0  0  0  0  0  0
    6.0000    5.1962    0.0000 C   0  0  0  0  0  0  0  0  0  0  0  0
    5.2500    6.4952    0.0000 O   0  0  0  0  0  0  0  0  0  0  0  0
    7.5000    5.1962    0.0000 O   0  0  0  0  0  1  0  0  0  0  0  0
   -0.7500    1.2990    0.0000 C   0  0  0  0  0  0  0  0  0  0  0  0
   -1.5000    0.0000    0.0000 C   0  0  0  0  0  0  0  0  0  0  0  0
   -0.7500   -1.2990    0.0000 C   0  0  0  0  0  0  0  0  0  0  0  0
   -2.2500   -1.2990    0.0000 C   0  0  0  0  0  0  0  0  0  0  0  0
   -1.5000   -2.5981    0.0000 C   0  0  0  0  0  0  0  0  0  0  0  0
   -3.0000   -2.5981    0.0000 C   0  0  0  0  0  0  0  0  0  0  0  0
   -3.7500   -3.8971    0.0000 C   0  0  0  0  0  0  0  0  0  0  0  0
   -5.2500   -3.8971    0.0000 O   0  0  0  0  0  0  0  0  0  0  0  0
   -3.0000   -5.1962    0.0000 C   0  0  0  0  0  0  0  0  0  0  0  0
   -4.4918   -5.3529    0.0000 C   0  0  0  0  0  0  0  0  0  0  0  0
  2  1  1  6
  2  3  1  0
  3  4  1  0
  4  5  1  0
  5  6  2  0
  5  7  1  0
  2  8  1  0
  8  9  1  1
  9 10  1  0
 11 10  1  6
 11 12  1  0
 12 13  1  6
 13 14  1  0
 15 14  1  6
 15 16  1  0
 16 17  1  0
 17 18  1  1
 18 19  1  0
 19 20  2  0
 19 21  1  0
 21 22  1  0
 22 23  1  0
 23 24  2  0
 23 25  1  0
 17 26  1  0
 26 27  1  0
 27 28  1  0
 28 29  1  6
 28 30  1  0
 30 31  1  1
 31 32  1  0
 32 33  1  6
 32 34  1  0
 34 35  1  6
 34  8  1  0
 34 11  1  0
 30 12  1  0
 28 15  1  0
M  CHG  2   7  -1  25  -1
M  END
>  <Compound_ID>  (154) 
C37245946

>  <Active>  (154) 
0

>  <Smiles>  (154) 
C[C@H](CCC(=O)[O-])[C@@H]1CC[C@H]2[C@H]3CC[C@H]4C[C@H](OC(=O)CCC(=O)[O-])CC[C@]4(C)[C@@H]3C[C@@H](O)[C@@]21C

>  <canonical_smi>  (154) 
C[C@H](CCC(=O)[O-])[C@@H]1CC[C@H]2[C@H]3CC[C@H]4C[C@H](OC(=O)CCC(=O)[O-])CC[C@]4(C)[C@@H]3C[C@@H](O)[C@@]21C

>  <Set>  (154) 
G2 inactive

>  <Set_type>  (154) 
Test

>  <MW>  (154) 
490.64

>  <HBD>  (154) 
1

>  <HBA>  (154) 
7

>  <NRB>  (154) 
8

>  <NR>  (154) 
4

>  <NAR>  (154) 
0

>  <PSA>  (154) 
126.79

>  <Standard Type>  (154) 
nan

>  <Standard Relation>  (154) 
nan

>  <Standard Units>  (154) 
nan

>  <Standard Value>  (154) 
nan

>  <Assay ChEMBL ID>  (154) 
nan

>  <Assay Description>  (154) 
nan

>  <BAO Label>  (154) 
nan

>  <bits>  (154) 
<rdkit.DataStructs.cDataStructs.ExplicitBitVect object at 0x00000210F8E69D20>

>  <Group>  (154) 
G2

$$$$

     RDKit          2D

 31 36  0  0  0  0  0  0  0  0999 V2000
    4.7779    9.2179    0.0000 C   0  0  0  0  0  0  0  0  0  0  0  0
    4.1678   10.5882    0.0000 C   0  0  0  0  0  0  0  0  0  0  0  0
    2.8687    9.8382    0.0000 C   0  0  0  0  0  0  0  0  0  0  0  0
    1.4984   10.4483    0.0000 C   0  0  0  0  0  0  0  0  0  0  0  0
    0.4947    9.3336    0.0000 C   0  0  0  0  0  0  0  0  0  0  0  0
    1.2447    8.0346    0.0000 C   0  0  0  0  0  0  0  0  0  0  0  0
    0.7812    6.6080    0.0000 C   0  0  0  0  0  0  0  0  0  0  0  0
   -0.6860    6.2961    0.0000 C   0  0  0  0  0  0  0  0  0  0  0  0
   -1.1496    4.8695    0.0000 C   0  0  0  0  0  0  0  0  0  0  0  0
   -0.1459    3.7548    0.0000 C   0  0  0  0  0  0  0  0  0  0  0  0
   -0.6094    2.3282    0.0000 C   0  0  0  0  0  0  0  0  0  0  0  0
    0.3943    1.2135    0.0000 C   0  0  0  0  0  0  0  0  0  0  0  0
    1.8615    1.5254    0.0000 C   0  0  0  0  0  0  0  0  0  0  0  0
    2.3250    2.9520    0.0000 C   0  0  0  0  0  0  0  0  0  0  0  0
    1.3213    4.0667    0.0000 C   0  0  0  0  0  0  0  0  0  0  0  0
    2.7886    4.3786    0.0000 C   0  0  0  0  0  0  0  0  0  0  0  0
    1.7849    5.4933    0.0000 C   0  0  0  0  0  0  0  0  0  0  0  0
    3.2521    5.8051    0.0000 C   0  0  0  0  0  0  0  0  0  0  0  0
    4.2558    4.6904    0.0000 O   0  0  0  0  0  0  0  0  0  0  0  0
    3.7156    7.2317    0.0000 C   0  0  0  0  0  0  0  0  0  0  0  0
    2.7119    8.3464    0.0000 C   0  0  0  0  0  0  0  0  0  0  0  0
    4.1385    8.8100    0.0000 C   0  0  0  0  0  0  0  0  0  0  0  0
    5.2532    7.8063    0.0000 O   0  0  0  0  0  0  0  0  0  0  0  0
    1.2760    0.0000    0.0000 O   0  0  0  0  0  0  0  0  0  0  0  0
    0.3943   -1.2135    0.0000 C   0  0  0  0  0  0  0  0  0  0  0  0
   -1.0323   -0.7500    0.0000 C   0  0  0  0  0  0  0  0  0  0  0  0
   -1.0323    0.7500    0.0000 O   0  0  0  0  0  0  0  0  0  0  0  0
    5.5943   11.0518    0.0000 O   0  0  0  0  0  0  0  0  0  0  0  0
    5.5943   12.5518    0.0000 C   0  0  0  0  0  0  0  0  0  0  0  0
    4.1678   13.0153    0.0000 C   0  0  0  0  0  0  0  0  0  0  0  0
    3.2861   11.8018    0.0000 O   0  0  0  0  0  0  0  0  0  0  0  0
  1  2  1  0
  3  2  1  1
  3  4  1  0
  4  5  1  0
  6  5  1  6
  6  7  1  0
  7  8  1  1
  8  9  1  0
 10  9  1  1
 10 11  1  0
 11 12  1  0
 12 13  1  0
 13 14  1  0
 14 15  1  0
 15 16  1  1
 15 17  1  0
 17 18  1  1
 18 19  1  6
 18 20  1  0
 20 21  1  0
 21 22  1  6
 22 23  1  0
 12 24  1  0
 24 25  1  0
 25 26  1  0
 26 27  1  0
  2 28  1  0
 28 29  1  0
 29 30  1  0
 30 31  1  0
 31  2  1  0
 21  3  1  0
 21  6  1  0
 17  7  1  0
 15 10  1  0
 27 12  1  0
M  END
>  <Compound_ID>  (155) 
C16031025

>  <Active>  (155) 
0

>  <Smiles>  (155) 
CC1([C@@H]2CC[C@H]3[C@@H]4CC[C@@H]5CC6(CC[C@@]5(C)[C@@H]4[C@@H](O)C[C@@]32CO)OCCO6)OCCO1

>  <canonical_smi>  (155) 
CC1([C@@H]2CC[C@H]3[C@@H]4CC[C@@H]5CC6(CC[C@@]5(C)[C@@H]4[C@@H](O)C[C@@]32CO)OCCO6)OCCO1

>  <Set>  (155) 
G2 inactive

>  <Set_type>  (155) 
Test

>  <MW>  (155) 
436.59

>  <HBD>  (155) 
2

>  <HBA>  (155) 
6

>  <NRB>  (155) 
2

>  <NR>  (155) 
6

>  <NAR>  (155) 
0

>  <PSA>  (155) 
77.38

>  <Standard Type>  (155) 
nan

>  <Standard Relation>  (155) 
nan

>  <Standard Units>  (155) 
nan

>  <Standard Value>  (155) 
nan

>  <Assay ChEMBL ID>  (155) 
nan

>  <Assay Description>  (155) 
nan

>  <BAO Label>  (155) 
nan

>  <bits>  (155) 
<rdkit.DataStructs.cDataStructs.ExplicitBitVect object at 0x00000210F8E6B7D0>

>  <Group>  (155) 
G2

$$$$

     RDKit          2D

 21 23  0  0  0  0  0  0  0  0999 V2000
   -7.9140    1.9635    0.0000 O   0  0  0  0  0  0  0  0  0  0  0  0
   -7.9140    0.4635    0.0000 S   0  0  0  0  0  0  0  0  0  0  0  0
   -7.9140   -1.0365    0.0000 O   0  0  0  0  0  0  0  0  0  0  0  0
   -9.4140    0.4635    0.0000 O   0  0  0  0  0  0  0  0  0  0  0  0
  -10.1640   -0.8355    0.0000 C   0  0  0  0  0  0  0  0  0  0  0  0
  -10.9140   -2.1346    0.0000 F   0  0  0  0  0  0  0  0  0  0  0  0
  -11.4630   -0.0855    0.0000 F   0  0  0  0  0  0  0  0  0  0  0  0
   -8.8649   -1.5855    0.0000 F   0  0  0  0  0  0  0  0  0  0  0  0
   -6.4140    0.4635    0.0000 C   0  0  0  0  0  0  0  0  0  0  0  0
   -5.6640    1.7626    0.0000 C   0  0  0  0  0  0  0  0  0  0  0  0
   -4.1640    1.7626    0.0000 C   0  0  0  0  0  0  0  0  0  0  0  0
   -3.4140    0.4635    0.0000 C   0  0  0  0  0  0  0  0  0  0  0  0
   -1.9140    0.4635    0.0000 C   0  0  0  0  0  0  0  0  0  0  0  0
   -1.0323    1.6771    0.0000 C   0  0  0  0  0  0  0  0  0  0  0  0
    0.3943    1.2135    0.0000 C   0  0  0  0  0  0  0  0  0  0  0  0
    1.2760    0.0000    0.0000 C   0  0  0  0  0  0  0  0  0  0  0  0
    0.3943   -1.2135    0.0000 C   0  0  0  0  0  0  0  0  0  0  0  0
   -1.0323   -0.7500    0.0000 C   0  0  0  0  0  0  0  0  0  0  0  0
   -1.0323    0.7500    0.0000 N   0  0  0  0  0  4  0  0  0  0  0  0
   -4.1640   -0.8355    0.0000 C   0  0  0  0  0  0  0  0  0  0  0  0
   -5.6640   -0.8355    0.0000 N   0  0  0  0  0  4  0  0  0  0  0  0
  1  2  2  0
  2  3  2  0
  2  4  1  0
  4  5  1  0
  5  6  1  0
  5  7  1  0
  5  8  1  0
  2  9  1  0
  9 10  2  0
 10 11  1  0
 11 12  2  0
 13 12  1  1
 13 14  1  0
 15 14  1  1
 15 16  1  0
 16 17  1  0
 18 17  1  1
 18 19  1  0
 12 20  1  0
 20 21  2  0
 21  9  1  0
 18 13  1  0
 19 15  1  0
M  CHG  2  19   1  21   1
M  END
>  <Compound_ID>  (156) 
C29554064

>  <Active>  (156) 
0

>  <Smiles>  (156) 
O=S(=O)(OC(F)(F)F)c1ccc([C@H]2C[C@H]3CC[C@@H]2[NH2+]3)c[nH+]1

>  <canonical_smi>  (156) 
O=S(=O)(OC(F)(F)F)c1ccc([C@H]2C[C@H]3CC[C@@H]2[NH2+]3)c[nH+]1

>  <Set>  (156) 
G2 inactive

>  <Set_type>  (156) 
Test

>  <MW>  (156) 
324.32

>  <HBD>  (156) 
1

>  <HBA>  (156) 
3

>  <NRB>  (156) 
3

>  <NR>  (156) 
3

>  <NAR>  (156) 
1

>  <PSA>  (156) 
74.12

>  <Standard Type>  (156) 
nan

>  <Standard Relation>  (156) 
nan

>  <Standard Units>  (156) 
nan

>  <Standard Value>  (156) 
nan

>  <Assay ChEMBL ID>  (156) 
nan

>  <Assay Description>  (156) 
nan

>  <BAO Label>  (156) 
nan

>  <bits>  (156) 
<rdkit.DataStructs.cDataStructs.ExplicitBitVect object at 0x00000210F8E6AF80>

>  <Group>  (156) 
G2

$$$$

     RDKit          2D

 28 31  0  0  0  0  0  0  0  0999 V2000
    3.0000    0.0000    0.0000 C   0  0  0  0  0  0  0  0  0  0  0  0
    1.5000    0.0000    0.0000 C   0  0  0  0  0  0  0  0  0  0  0  0
    0.7500   -1.2990    0.0000 C   0  0  0  0  0  0  0  0  0  0  0  0
   -0.7500   -1.2990    0.0000 C   0  0  0  0  0  0  0  0  0  0  0  0
   -1.5000    0.0000    0.0000 C   0  0  0  0  0  0  0  0  0  0  0  0
   -3.0000    0.0000    0.0000 C   0  0  0  0  0  0  0  0  0  0  0  0
   -2.7395   -1.4772    0.0000 C   0  0  0  0  0  0  0  0  0  0  0  0
   -3.8886   -2.4414    0.0000 N   0  0  0  0  0  4  0  0  0  0  0  0
   -5.2981   -1.9284    0.0000 C   0  0  0  0  0  0  0  0  0  0  0  0
   -6.4472   -2.8925    0.0000 C   0  0  0  0  0  0  0  0  0  0  0  0
   -6.1867   -4.3698    0.0000 C   0  0  0  0  0  0  0  0  0  0  0  0
   -4.7772   -4.8828    0.0000 C   0  0  0  0  0  0  0  0  0  0  0  0
   -4.5167   -6.3600    0.0000 C   0  0  0  0  0  0  0  0  0  0  0  0
   -3.1685   -7.0176    0.0000 N   0  0  0  0  0  0  0  0  0  0  0  0
   -3.3773   -8.5030    0.0000 C   0  0  0  0  0  0  0  0  0  0  0  0
   -2.2983   -9.5449    0.0000 C   0  0  0  0  0  0  0  0  0  0  0  0
   -2.6612  -11.0004    0.0000 C   0  0  0  0  0  0  0  0  0  0  0  0
   -0.8564   -9.1315    0.0000 C   0  0  0  0  0  0  0  0  0  0  0  0
   -4.8545   -8.7634    0.0000 N   0  0  0  0  0  0  0  0  0  0  0  0
   -5.5587   -7.4390    0.0000 O   0  0  0  0  0  0  0  0  0  0  0  0
   -3.6281   -3.9186    0.0000 C   0  0  0  0  0  0  0  0  0  0  0  0
   -2.7395    1.4772    0.0000 C   0  0  0  0  0  0  0  0  0  0  0  0
   -3.8886    2.4414    0.0000 C   0  0  0  0  0  0  0  0  0  0  0  0
   -5.2981    1.9284    0.0000 N   0  0  0  0  0  4  0  0  0  0  0  0
   -5.5586    0.4512    0.0000 C   0  0  0  0  0  0  0  0  0  0  0  0
   -4.4095   -0.5130    0.0000 C   0  0  0  0  0  0  0  0  0  0  0  0
   -0.7500    1.2990    0.0000 N   0  0  0  0  0  0  0  0  0  0  0  0
    0.7500    1.2990    0.0000 C   0  0  0  0  0  0  0  0  0  0  0  0
  1  2  1  0
  2  3  2  0
  3  4  1  0
  4  5  2  0
  5  6  1  0
  6  7  1  0
  7  8  1  0
  8  9  1  0
  9 10  1  0
 10 11  1  0
 11 12  1  0
 12 13  1  6
 13 14  2  0
 14 15  1  0
 15 16  1  0
 16 17  1  0
 16 18  1  0
 15 19  2  0
 19 20  1  0
 12 21  1  0
  6 22  1  0
 22 23  1  0
 23 24  1  0
 24 25  1  0
 25 26  1  0
  5 27  1  0
 27 28  2  0
 28  2  1  0
 26  6  1  0
 21  8  1  0
 20 13  1  0
M  CHG  2   8   1  24   1
M  END
>  <Compound_ID>  (157) 
C65525851

>  <Active>  (157) 
0

>  <Smiles>  (157) 
Cc1ccc(C2(C[NH+]3CCC[C@@H](c4nc(C(C)C)no4)C3)CC[NH2+]CC2)nc1

>  <canonical_smi>  (157) 
Cc1ccc(C2(C[NH+]3CCC[C@@H](c4nc(C(C)C)no4)C3)CC[NH2+]CC2)nc1

>  <Set>  (157) 
G2 inactive

>  <Set_type>  (157) 
Test

>  <MW>  (157) 
385.56

>  <HBD>  (157) 
2

>  <HBA>  (157) 
4

>  <NRB>  (157) 
5

>  <NR>  (157) 
4

>  <NAR>  (157) 
2

>  <PSA>  (157) 
72.86

>  <Standard Type>  (157) 
nan

>  <Standard Relation>  (157) 
nan

>  <Standard Units>  (157) 
nan

>  <Standard Value>  (157) 
nan

>  <Assay ChEMBL ID>  (157) 
nan

>  <Assay Description>  (157) 
nan

>  <BAO Label>  (157) 
nan

>  <bits>  (157) 
<rdkit.DataStructs.cDataStructs.ExplicitBitVect object at 0x00000210F8E6BD10>

>  <Group>  (157) 
G2

$$$$

     RDKit          2D

 29 32  0  0  0  0  0  0  0  0999 V2000
    3.7500   -1.2990    0.0000 C   0  0  0  0  0  0  0  0  0  0  0  0
    3.0000    0.0000    0.0000 C   0  0  0  0  0  0  0  0  0  0  0  0
    3.7500    1.2990    0.0000 O   0  0  0  0  0  0  0  0  0  0  0  0
    1.5000    0.0000    0.0000 N   0  0  0  0  0  0  0  0  0  0  0  0
    0.7500   -1.2990    0.0000 C   0  0  0  0  0  0  0  0  0  0  0  0
   -0.7500   -1.2990    0.0000 C   0  0  0  0  0  0  0  0  0  0  0  0
   -1.5000    0.0000    0.0000 C   0  0  0  0  0  0  0  0  0  0  0  0
   -3.0000    0.0000    0.0000 O   0  0  0  0  0  0  0  0  0  0  0  0
   -3.7500   -1.2990    0.0000 C   0  0  0  0  0  0  0  0  0  0  0  0
   -5.2500   -1.2990    0.0000 N   0  0  0  0  0  0  0  0  0  0  0  0
   -3.0000   -2.5981    0.0000 C   0  0  0  0  0  0  0  0  0  0  0  0
   -3.7500   -3.8971    0.0000 C   0  0  0  0  0  0  0  0  0  0  0  0
   -4.5000   -5.1962    0.0000 N   0  0  0  0  0  0  0  0  0  0  0  0
   -1.5000   -2.5981    0.0000 C   0  0  0  0  0  0  0  0  0  0  0  0
   -0.7500   -3.8971    0.0000 C   0  0  0  0  0  0  0  0  0  0  0  0
   -1.5000   -5.1962    0.0000 C   0  0  0  0  0  0  0  0  0  0  0  0
   -0.7500   -6.4952    0.0000 C   0  0  0  0  0  0  0  0  0  0  0  0
    0.7500   -6.4952    0.0000 C   0  0  0  0  0  0  0  0  0  0  0  0
    1.5000   -5.1962    0.0000 C   0  0  0  0  0  0  0  0  0  0  0  0
    0.7500   -3.8971    0.0000 C   0  0  0  0  0  0  0  0  0  0  0  0
   -0.7500    1.2990    0.0000 C   0  0  0  0  0  0  0  0  0  0  0  0
   -1.5000    2.5981    0.0000 C   0  0  0  0  0  0  0  0  0  0  0  0
   -0.7500    3.8971    0.0000 C   0  0  0  0  0  0  0  0  0  0  0  0
    0.7500    3.8971    0.0000 C   0  0  0  0  0  0  0  0  0  0  0  0
    1.5000    5.1962    0.0000 C   0  0  0  0  0  0  0  0  0  0  0  0
    0.7500    6.4952    0.0000 C   0  0  0  0  0  0  0  0  0  0  0  0
   -0.7500    6.4952    0.0000 C   0  0  0  0  0  0  0  0  0  0  0  0
   -1.5000    5.1962    0.0000 C   0  0  0  0  0  0  0  0  0  0  0  0
    0.7500    1.2990    0.0000 C   0  0  0  0  0  0  0  0  0  0  0  0
  1  2  1  0
  2  3  2  0
  2  4  1  0
  4  5  1  0
  5  6  1  0
  6  7  2  0
  7  8  1  0
  8  9  1  0
  9 10  1  0
  9 11  2  0
 11 12  1  0
 12 13  3  0
 11 14  1  0
 14 15  1  1
 15 16  2  0
 16 17  1  0
 17 18  2  0
 18 19  1  0
 19 20  2  0
  7 21  1  0
 21 22  2  0
 22 23  1  0
 23 24  2  0
 24 25  1  0
 25 26  2  0
 26 27  1  0
 27 28  2  0
 21 29  1  0
 29  4  1  0
 14  6  1  0
 20 15  1  0
 28 23  1  0
M  END
>  <Compound_ID>  (158) 
C39324550

>  <Active>  (158) 
0

>  <Smiles>  (158) 
CC(=O)N1CC2=C(OC(N)=C(C#N)[C@@H]2c2ccccc2)/C(=C/c2ccccc2)C1

>  <canonical_smi>  (158) 
CC(=O)N1CC2=C(OC(N)=C(C#N)[C@@H]2c2ccccc2)/C(=C/c2ccccc2)C1

>  <Set>  (158) 
G2 inactive

>  <Set_type>  (158) 
Test

>  <MW>  (158) 
383.45

>  <HBD>  (158) 
1

>  <HBA>  (158) 
4

>  <NRB>  (158) 
2

>  <NR>  (158) 
4

>  <NAR>  (158) 
2

>  <PSA>  (158) 
79.35

>  <Standard Type>  (158) 
nan

>  <Standard Relation>  (158) 
nan

>  <Standard Units>  (158) 
nan

>  <Standard Value>  (158) 
nan

>  <Assay ChEMBL ID>  (158) 
nan

>  <Assay Description>  (158) 
nan

>  <BAO Label>  (158) 
nan

>  <bits>  (158) 
<rdkit.DataStructs.cDataStructs.ExplicitBitVect object at 0x00000210F8E6A180>

>  <Group>  (158) 
G2

$$$$

     RDKit          2D

 27 30  0  0  0  0  0  0  0  0999 V2000
   -7.8533   -0.1004    0.0000 C   0  0  0  0  0  0  0  0  0  0  0  0
   -6.4268    0.3631    0.0000 C   0  0  0  0  0  0  0  0  0  0  0  0
   -6.1149    1.8303    0.0000 C   0  0  0  0  0  0  0  0  0  0  0  0
   -4.6883    2.2939    0.0000 C   0  0  0  0  0  0  0  0  0  0  0  0
   -4.3764    3.7611    0.0000 C   0  0  0  0  0  0  0  0  0  0  0  0
   -3.5736    1.2902    0.0000 C   0  0  0  0  0  0  0  0  0  0  0  0
   -2.1470    1.7537    0.0000 C   0  0  0  0  0  0  0  0  0  0  0  0
   -1.8351    3.2209    0.0000 N   0  0  0  0  0  0  0  0  0  0  0  0
   -0.4086    3.6844    0.0000 C   0  0  0  0  0  0  0  0  0  0  0  0
   -0.0967    5.1517    0.0000 C   0  0  0  0  0  0  0  0  0  0  0  0
    1.3299    5.6152    0.0000 C   0  0  0  0  0  0  0  0  0  0  0  0
    2.4446    4.6115    0.0000 C   0  0  0  0  0  0  0  0  0  0  0  0
    3.8712    5.0750    0.0000 C   0  0  0  0  0  0  0  0  0  0  0  0
    4.1831    6.5422    0.0000 O   0  0  0  0  0  0  0  0  0  0  0  0
    4.9859    4.0713    0.0000 N   0  0  0  0  0  0  0  0  0  0  0  0
    6.4125    4.5348    0.0000 C   0  0  0  0  0  0  0  0  0  0  0  0
    4.6741    2.6041    0.0000 C   0  0  0  0  0  0  0  0  0  0  0  0
    2.1328    3.1443    0.0000 C   0  0  0  0  0  0  0  0  0  0  0  0
    0.7062    2.6807    0.0000 C   0  0  0  0  0  0  0  0  0  0  0  0
    0.3943    1.2135    0.0000 C   0  0  0  0  0  0  0  0  0  0  0  0
    1.2760    0.0000    0.0000 C   0  0  0  0  0  0  0  0  0  0  0  0
    0.3943   -1.2135    0.0000 C   0  0  0  0  0  0  0  0  0  0  0  0
   -1.0323   -0.7500    0.0000 C   0  0  0  0  0  0  0  0  0  0  0  0
   -1.0323    0.7500    0.0000 C   0  0  0  0  0  0  0  0  0  0  0  0
   -3.8855   -0.1771    0.0000 C   0  0  0  0  0  0  0  0  0  0  0  0
   -2.7707   -1.1807    0.0000 C   0  0  0  0  0  0  0  0  0  0  0  0
   -5.3120   -0.6406    0.0000 C   0  0  0  0  0  0  0  0  0  0  0  0
  1  2  1  0
  2  3  2  0
  3  4  1  0
  4  5  1  0
  4  6  2  0
  7  6  1  1
  7  8  1  0
  8  9  1  0
  9 10  2  0
 10 11  1  0
 11 12  2  0
 12 13  1  0
 13 14  2  0
 13 15  1  0
 15 16  1  0
 15 17  1  0
 12 18  1  0
 18 19  2  0
 19 20  1  0
 20 21  1  1
 21 22  2  0
 22 23  1  0
 24 23  1  1
  6 25  1  0
 25 26  1  0
 25 27  2  0
 27  2  1  0
 24  7  1  0
 19  9  1  0
 24 20  1  0
M  END
>  <Compound_ID>  (159) 
C14458200

>  <Active>  (159) 
0

>  <Smiles>  (159) 
Cc1cc(C)c([C@H]2Nc3ccc(C(=O)N(C)C)cc3[C@H]3C=CC[C@H]32)c(C)c1

>  <canonical_smi>  (159) 
Cc1cc(C)c([C@H]2Nc3ccc(C(=O)N(C)C)cc3[C@H]3C=CC[C@H]32)c(C)c1

>  <Set>  (159) 
G2 inactive

>  <Set_type>  (159) 
Test

>  <MW>  (159) 
360.5

>  <HBD>  (159) 
1

>  <HBA>  (159) 
2

>  <NRB>  (159) 
2

>  <NR>  (159) 
4

>  <NAR>  (159) 
2

>  <PSA>  (159) 
32.34

>  <Standard Type>  (159) 
nan

>  <Standard Relation>  (159) 
nan

>  <Standard Units>  (159) 
nan

>  <Standard Value>  (159) 
nan

>  <Assay ChEMBL ID>  (159) 
nan

>  <Assay Description>  (159) 
nan

>  <BAO Label>  (159) 
nan

>  <bits>  (159) 
<rdkit.DataStructs.cDataStructs.ExplicitBitVect object at 0x00000210F8E685F0>

>  <Group>  (159) 
G2

$$$$

     RDKit          2D

 21 23  0  0  0  0  0  0  0  0999 V2000
    3.0000    0.0000    0.0000 N   0  0  0  0  0  0  0  0  0  0  0  0
    1.5000    0.0000    0.0000 C   0  0  0  0  0  0  0  0  0  0  0  0
    0.7500   -1.2990    0.0000 C   0  0  0  0  0  0  0  0  0  0  0  0
   -0.7500   -1.2990    0.0000 C   0  0  0  0  0  0  0  0  0  0  0  0
   -1.5000   -2.5981    0.0000 Br  0  0  0  0  0  0  0  0  0  0  0  0
   -1.5000    0.0000    0.0000 C   0  0  0  0  0  0  0  0  0  0  0  0
   -0.7500    1.2990    0.0000 C   0  0  0  0  0  0  0  0  0  0  0  0
    0.7500    1.2990    0.0000 C   0  0  0  0  0  0  0  0  0  0  0  0
    1.5000    2.5981    0.0000 C   0  0  0  0  0  0  0  0  0  0  0  0
    0.8899    3.9684    0.0000 N   0  0  0  0  0  0  0  0  0  0  0  0
    2.0046    4.9721    0.0000 C   0  0  0  0  0  0  0  0  0  0  0  0
    1.8478    6.4639    0.0000 C   0  0  0  0  0  0  0  0  0  0  0  0
    3.0613    7.3456    0.0000 C   0  0  0  0  0  0  0  0  0  0  0  0
    2.9046    8.8373    0.0000 C   0  0  0  0  0  0  0  0  0  0  0  0
    1.5342    9.4474    0.0000 C   0  0  0  0  0  0  0  0  0  0  0  0
    1.3774   10.9392    0.0000 F   0  0  0  0  0  0  0  0  0  0  0  0
    0.3207    8.5658    0.0000 C   0  0  0  0  0  0  0  0  0  0  0  0
   -1.0496    9.1759    0.0000 Cl  0  0  0  0  0  0  0  0  0  0  0  0
    0.4775    7.0740    0.0000 C   0  0  0  0  0  0  0  0  0  0  0  0
    3.3037    4.2221    0.0000 N   0  0  0  0  0  0  0  0  0  0  0  0
    2.9918    2.7549    0.0000 O   0  0  0  0  0  0  0  0  0  0  0  0
  1  2  1  0
  2  3  2  0
  3  4  1  0
  4  5  1  0
  4  6  2  0
  6  7  1  0
  7  8  2  0
  8  9  1  0
  9 10  2  0
 10 11  1  0
 11 12  1  0
 12 13  2  0
 13 14  1  0
 14 15  2  0
 15 16  1  0
 15 17  1  0
 17 18  1  0
 17 19  2  0
 11 20  2  0
 20 21  1  0
  8  2  1  0
 21  9  1  0
 19 12  1  0
M  END
>  <Compound_ID>  (160) 
C62790820

>  <Active>  (160) 
0

>  <Smiles>  (160) 
Nc1cc(Br)ccc1-c1nc(-c2ccc(F)c(Cl)c2)no1

>  <canonical_smi>  (160) 
Nc1cc(Br)ccc1-c1nc(-c2ccc(F)c(Cl)c2)no1

>  <Set>  (160) 
G2 inactive

>  <Set_type>  (160) 
Test

>  <MW>  (160) 
368.59

>  <HBD>  (160) 
1

>  <HBA>  (160) 
4

>  <NRB>  (160) 
2

>  <NR>  (160) 
3

>  <NAR>  (160) 
3

>  <PSA>  (160) 
64.94

>  <Standard Type>  (160) 
nan

>  <Standard Relation>  (160) 
nan

>  <Standard Units>  (160) 
nan

>  <Standard Value>  (160) 
nan

>  <Assay ChEMBL ID>  (160) 
nan

>  <Assay Description>  (160) 
nan

>  <BAO Label>  (160) 
nan

>  <bits>  (160) 
<rdkit.DataStructs.cDataStructs.ExplicitBitVect object at 0x00000210F8E5D150>

>  <Group>  (160) 
G2

$$$$

     RDKit          2D

 34 40  0  0  0  0  0  0  0  0999 V2000
    3.0000   -2.5981    0.0000 C   0  0  0  0  0  0  0  0  0  0  0  0
    3.7500   -3.8971    0.0000 N   0  0  0  0  0  0  0  0  0  0  0  0
    5.2500   -3.8971    0.0000 N   0  0  0  0  0  0  0  0  0  0  0  0
    6.0000   -5.1962    0.0000 C   0  0  0  0  0  0  0  0  0  0  0  0
    5.2500   -6.4952    0.0000 C   0  0  0  0  0  0  0  0  0  0  0  0
    3.7500   -6.4952    0.0000 C   0  0  0  0  0  0  0  0  0  0  0  0
    3.0000   -7.7942    0.0000 C   0  0  0  0  0  0  0  0  0  0  0  0
    3.7500   -9.0933    0.0000 C   0  0  0  0  0  0  0  0  0  0  0  0
    5.2500   -9.0933    0.0000 C   0  0  0  0  0  0  0  0  0  0  0  0
    6.0000   -7.7942    0.0000 C   0  0  0  0  0  0  0  0  0  0  0  0
    7.5000   -5.1962    0.0000 C   0  0  0  0  0  0  0  0  0  0  0  0
    8.2500   -3.8971    0.0000 C   0  0  0  0  0  0  0  0  0  0  0  0
    9.7500   -3.8971    0.0000 N   0  0  0  0  0  0  0  0  0  0  0  0
   10.5000   -5.1962    0.0000 C   0  0  0  0  0  0  0  0  0  0  0  0
    9.7500   -6.4952    0.0000 N   0  0  0  0  0  0  0  0  0  0  0  0
    7.5000   -4.0981    0.0000 C   0  0  0  0  0  0  0  0  0  0  0  0
    7.5000   -2.5981    0.0000 N   0  0  0  0  0  4  0  0  0  0  0  0
    9.0000   -2.5981    0.0000 C   0  0  0  0  0  0  0  0  0  0  0  0
    6.7500   -3.8971    0.0000 C   0  0  0  0  0  0  0  0  0  0  0  0
    8.2500   -6.4952    0.0000 C   0  0  0  0  0  0  0  0  0  0  0  0
    1.5000   -2.5981    0.0000 C   0  0  0  0  0  0  0  0  0  0  0  0
    0.7500   -1.2990    0.0000 C   0  0  0  0  0  0  0  0  0  0  0  0
    1.5000    0.0000    0.0000 C   0  0  0  0  0  0  0  0  0  0  0  0
    0.7500    1.2990    0.0000 C   0  0  0  0  0  0  0  0  0  0  0  0
   -0.7500    1.2990    0.0000 C   0  0  0  0  0  0  0  0  0  0  0  0
   -1.5000    0.0000    0.0000 C   0  0  0  0  0  0  0  0  0  0  0  0
   -0.7500   -1.2990    0.0000 C   0  0  0  0  0  0  0  0  0  0  0  0
   -1.5000   -2.5981    0.0000 C   0  0  0  0  0  0  0  0  0  0  0  0
   -0.7500   -3.8971    0.0000 C   0  0  0  0  0  0  0  0  0  0  0  0
   -1.5000   -5.1962    0.0000 C   0  0  0  0  0  0  0  0  0  0  0  0
   -0.7500   -6.4952    0.0000 C   0  0  0  0  0  0  0  0  0  0  0  0
    0.7500   -6.4952    0.0000 C   0  0  0  0  0  0  0  0  0  0  0  0
    1.5000   -5.1962    0.0000 C   0  0  0  0  0  0  0  0  0  0  0  0
    0.7500   -3.8971    0.0000 C   0  0  0  0  0  0  0  0  0  0  0  0
  1  2  2  0
  2  3  1  0
  3  4  2  0
  4  5  1  0
  5  6  2  0
  6  7  1  0
  7  8  2  0
  8  9  1  0
  9 10  2  0
  4 11  1  0
 11 12  1  0
 12 13  1  0
 13 14  1  0
 14 15  1  0
 15 16  1  0
 16 17  1  0
 17 18  1  0
 17 19  1  0
 15 20  1  0
  1 21  1  0
 21 22  1  0
 22 23  2  0
 23 24  1  0
 24 25  2  0
 25 26  1  0
 26 27  2  0
 27 28  1  0
 28 29  2  0
 29 30  1  0
 30 31  2  0
 31 32  1  0
 32 33  2  0
 33 34  1  0
 10  5  1  0
 19 11  1  0
 34 21  2  0
 20 11  1  0
 27 22  1  0
 34 29  1  0
 18 13  1  0
M  CHG  1  17   1
M  END
>  <Compound_ID>  (161) 
C19333544

>  <Active>  (161) 
0

>  <Smiles>  (161) 
C(=N/N=C(\c1ccccc1)C12CN3CN(C[NH+](C3)C1)C2)\c1c2ccccc2cc2ccccc12

>  <canonical_smi>  (161) 
C(=N/N=C(\c1ccccc1)C12CN3CN(C[NH+](C3)C1)C2)\c1c2ccccc2cc2ccccc12

>  <Set>  (161) 
G2 inactive

>  <Set_type>  (161) 
Test

>  <MW>  (161) 
446.58

>  <HBD>  (161) 
1

>  <HBA>  (161) 
2

>  <NRB>  (161) 
4

>  <NR>  (161) 
8

>  <NAR>  (161) 
4

>  <PSA>  (161) 
35.64

>  <Standard Type>  (161) 
nan

>  <Standard Relation>  (161) 
nan

>  <Standard Units>  (161) 
nan

>  <Standard Value>  (161) 
nan

>  <Assay ChEMBL ID>  (161) 
nan

>  <Assay Description>  (161) 
nan

>  <BAO Label>  (161) 
nan

>  <bits>  (161) 
<rdkit.DataStructs.cDataStructs.ExplicitBitVect object at 0x00000210F8E5D770>

>  <Group>  (161) 
G2

$$$$

     RDKit          2D

 37 42  0  0  0  0  0  0  0  0999 V2000
    8.2500   -9.0933    0.0000 C   0  0  0  0  0  0  0  0  0  0  0  0
    7.5000   -7.7942    0.0000 N   0  0  0  0  0  0  0  0  0  0  0  0
    8.2500   -6.4952    0.0000 C   0  0  0  0  0  0  0  0  0  0  0  0
    6.0000   -7.7942    0.0000 C   0  0  0  0  0  0  0  0  0  0  0  0
    5.2500   -9.0933    0.0000 N   0  0  0  0  0  0  0  0  0  0  0  0
    3.7500   -9.0933    0.0000 C   0  0  0  0  0  0  0  0  0  0  0  0
    3.0000  -10.3923    0.0000 N   0  0  0  0  0  0  0  0  0  0  0  0
    1.5000  -10.3923    0.0000 C   0  0  0  0  0  0  0  0  0  0  0  0
    0.7500   -9.0933    0.0000 C   0  0  0  0  0  0  0  0  0  0  0  0
   -0.7500   -9.0933    0.0000 C   0  0  0  0  0  0  0  0  0  0  0  0
   -1.5000  -10.3923    0.0000 C   0  0  0  0  0  0  0  0  0  0  0  0
   -3.0000  -10.3923    0.0000 O   0  0  0  0  0  0  0  0  0  0  0  0
   -3.7500   -9.0933    0.0000 C   0  0  0  0  0  0  0  0  0  0  0  0
   -4.5000   -7.7942    0.0000 F   0  0  0  0  0  0  0  0  0  0  0  0
   -5.0490   -9.8433    0.0000 F   0  0  0  0  0  0  0  0  0  0  0  0
   -2.4510   -8.3433    0.0000 F   0  0  0  0  0  0  0  0  0  0  0  0
   -0.7500  -11.6913    0.0000 C   0  0  0  0  0  0  0  0  0  0  0  0
    0.7500  -11.6913    0.0000 C   0  0  0  0  0  0  0  0  0  0  0  0
    3.0000   -7.7942    0.0000 N   0  0  0  0  0  0  0  0  0  0  0  0
    3.7500   -6.4952    0.0000 C   0  0  0  0  0  0  0  0  0  0  0  0
    3.0000   -5.1962    0.0000 N   0  0  0  0  0  0  0  0  0  0  0  0
    3.7500   -3.8971    0.0000 C   0  0  0  0  0  0  0  0  0  0  0  0
    3.0000   -2.5981    0.0000 C   0  0  0  0  0  0  0  0  0  0  0  0
    1.5000   -2.5981    0.0000 N   0  0  0  0  0  4  0  0  0  0  0  0
    0.7500   -1.2990    0.0000 C   0  0  0  0  0  0  0  0  0  0  0  0
    1.5000    0.0000    0.0000 C   0  0  0  0  0  0  0  0  0  0  0  0
    0.7500    1.2990    0.0000 C   0  0  0  0  0  0  0  0  0  0  0  0
   -0.7500    1.2990    0.0000 C   0  0  0  0  0  0  0  0  0  0  0  0
   -1.5000    0.0000    0.0000 C   0  0  0  0  0  0  0  0  0  0  0  0
    1.7010   -0.7500    0.0000 C   0  0  0  0  0  0  0  0  0  0  0  0
    3.0000   -0.0000    0.0000 C   0  0  0  0  0  0  0  0  0  0  0  0
    2.2500    1.2990    0.0000 C   0  0  0  0  0  0  0  0  0  0  0  0
    2.2500   -1.2990    0.0000 C   0  0  0  0  0  0  0  0  0  0  0  0
   -0.7500   -1.2990    0.0000 C   0  0  0  0  0  0  0  0  0  0  0  0
    0.7500   -3.8971    0.0000 C   0  0  0  0  0  0  0  0  0  0  0  0
    1.5000   -5.1962    0.0000 C   0  0  0  0  0  0  0  0  0  0  0  0
    5.2500   -6.4952    0.0000 N   0  0  0  0  0  0  0  0  0  0  0  0
  1  2  1  0
  2  3  1  0
  2  4  1  0
  4  5  2  0
  5  6  1  0
  6  7  1  0
  7  8  1  0
  8  9  2  0
  9 10  1  0
 10 11  2  0
 11 12  1  0
 12 13  1  0
 13 14  1  0
 13 15  1  0
 13 16  1  0
 11 17  1  0
 17 18  2  0
  6 19  2  0
 19 20  1  0
 20 21  1  0
 21 22  1  0
 22 23  1  0
 23 24  1  0
 24 25  1  0
 25 26  1  0
 26 27  1  0
 27 28  1  0
 28 29  1  0
 29 30  1  0
 30 31  1  0
 31 32  1  0
 31 33  1  0
 29 34  1  0
 24 35  1  0
 35 36  1  0
 20 37  2  0
 37  4  1  0
 18  8  1  0
 36 21  1  0
 33 25  1  0
 34 25  1  0
 32 27  1  0
M  CHG  1  24   1
M  END
>  <Compound_ID>  (162) 
C08925974

>  <Active>  (162) 
0

>  <Smiles>  (162) 
CN(C)c1nc(Nc2ccc(OC(F)(F)F)cc2)nc(N2CC[NH+](C34CC5CC(CC(C5)C3)C4)CC2)n1

>  <canonical_smi>  (162) 
CN(C)c1nc(Nc2ccc(OC(F)(F)F)cc2)nc(N2CC[NH+](C34CC5CC(CC(C5)C3)C4)CC2)n1

>  <Set>  (162) 
G2 inactive

>  <Set_type>  (162) 
Test

>  <MW>  (162) 
518.61

>  <HBD>  (162) 
2

>  <HBA>  (162) 
7

>  <NRB>  (162) 
6

>  <NR>  (162) 
7

>  <NAR>  (162) 
2

>  <PSA>  (162) 
70.85

>  <Standard Type>  (162) 
nan

>  <Standard Relation>  (162) 
nan

>  <Standard Units>  (162) 
nan

>  <Standard Value>  (162) 
nan

>  <Assay ChEMBL ID>  (162) 
nan

>  <Assay Description>  (162) 
nan

>  <BAO Label>  (162) 
nan

>  <bits>  (162) 
<rdkit.DataStructs.cDataStructs.ExplicitBitVect object at 0x00000210F8E5F3E0>

>  <Group>  (162) 
G2

$$$$

     RDKit          2D

 36 40  0  0  0  0  0  0  0  0999 V2000
    5.2500    1.2990    0.0000 C   0  0  0  0  0  0  0  0  0  0  0  0
    4.5000    0.0000    0.0000 C   0  0  0  0  0  0  0  0  0  0  0  0
    3.0000    0.0000    0.0000 C   0  0  0  0  0  0  0  0  0  0  0  0
    3.0000   -1.5000    0.0000 C   0  0  0  0  0  0  0  0  0  0  0  0
    3.0000    1.5000    0.0000 C   0  0  0  0  0  0  0  0  0  0  0  0
    1.5000    0.0000    0.0000 C   0  0  0  0  0  0  0  0  0  0  0  0
    0.7500   -1.2990    0.0000 C   0  0  0  0  0  0  0  0  0  0  0  0
   -0.7500   -1.2990    0.0000 C   0  0  0  0  0  0  0  0  0  0  0  0
   -1.5000    0.0000    0.0000 C   0  0  0  0  0  0  0  0  0  0  0  0
   -0.7500    1.2990    0.0000 C   0  0  0  0  0  0  0  0  0  0  0  0
   -1.7537    2.4138    0.0000 S   0  0  0  0  0  0  0  0  0  0  0  0
   -3.1240    1.8037    0.0000 C   0  0  0  0  0  0  0  0  0  0  0  0
   -4.4231    2.5537    0.0000 N   0  0  0  0  0  0  0  0  0  0  0  0
   -4.4231    4.0537    0.0000 C   0  0  0  0  0  0  0  0  0  0  0  0
   -3.1240    4.8037    0.0000 O   0  0  0  0  0  0  0  0  0  0  0  0
   -5.7221    4.8037    0.0000 C   0  0  0  0  0  0  0  0  0  0  0  0
   -5.7221    6.3037    0.0000 S   0  0  0  0  0  0  0  0  0  0  0  0
   -7.0211    7.0537    0.0000 C   0  0  0  0  0  0  0  0  0  0  0  0
   -8.3914    6.4435    0.0000 N   0  0  0  0  0  0  0  0  0  0  0  0
   -9.3951    7.5583    0.0000 N   0  0  0  0  0  0  0  0  0  0  0  0
   -8.6451    8.8573    0.0000 C   0  0  0  0  0  0  0  0  0  0  0  0
   -9.2552   10.2276    0.0000 C   0  0  0  0  0  0  0  0  0  0  0  0
   -8.3736   11.4411    0.0000 C   0  0  0  0  0  0  0  0  0  0  0  0
   -8.9837   12.8115    0.0000 C   0  0  0  0  0  0  0  0  0  0  0  0
  -10.4755   12.9683    0.0000 C   0  0  0  0  0  0  0  0  0  0  0  0
  -11.3571   11.7547    0.0000 C   0  0  0  0  0  0  0  0  0  0  0  0
  -10.7470   10.3844    0.0000 C   0  0  0  0  0  0  0  0  0  0  0  0
  -12.7837   12.2183    0.0000 O   0  0  0  0  0  0  0  0  0  0  0  0
  -12.7837   13.7183    0.0000 C   0  0  0  0  0  0  0  0  0  0  0  0
  -11.3571   14.1818    0.0000 O   0  0  0  0  0  0  0  0  0  0  0  0
   -7.1779    8.5454    0.0000 N   0  0  0  0  0  0  0  0  0  0  0  0
   -6.0632    9.5491    0.0000 C   0  0  0  0  0  0  0  0  0  0  0  0
   -2.9672    0.3119    0.0000 C   0  0  0  0  0  0  0  0  0  0  0  0
   -4.0819   -0.6918    0.0000 C   0  0  0  0  0  0  0  0  0  0  0  0
   -5.1967   -1.6955    0.0000 N   0  0  0  0  0  0  0  0  0  0  0  0
    0.7500    1.2990    0.0000 C   0  0  0  0  0  0  0  0  0  0  0  0
  1  2  1  0
  2  3  1  0
  3  4  1  0
  3  5  1  0
  6  3  1  6
  6  7  1  0
  7  8  1  0
  8  9  1  0
  9 10  2  0
 10 11  1  0
 11 12  1  0
 12 13  1  0
 13 14  1  0
 14 15  2  0
 14 16  1  0
 16 17  1  0
 17 18  1  0
 18 19  2  0
 19 20  1  0
 20 21  2  0
 21 22  1  0
 22 23  2  0
 23 24  1  0
 24 25  2  0
 25 26  1  0
 26 27  2  0
 26 28  1  0
 28 29  1  0
 29 30  1  0
 21 31  1  0
 31 32  1  0
 12 33  2  0
 33 34  1  0
 34 35  3  0
 10 36  1  0
 36  6  1  0
 33  9  1  0
 31 18  1  0
 27 22  1  0
 30 25  1  0
M  END
>  <Compound_ID>  (163) 
C39965416

>  <Active>  (163) 
0

>  <Smiles>  (163) 
CCC(C)(C)[C@@H]1CCc2c(sc(NC(=O)CSc3nnc(-c4ccc5c(c4)OCO5)n3C)c2C#N)C1

>  <canonical_smi>  (163) 
CCC(C)(C)[C@@H]1CCc2c(sc(NC(=O)CSc3nnc(-c4ccc5c(c4)OCO5)n3C)c2C#N)C1

>  <Set>  (163) 
G2 inactive

>  <Set_type>  (163) 
Test

>  <MW>  (163) 
523.68

>  <HBD>  (163) 
1

>  <HBA>  (163) 
7

>  <NRB>  (163) 
7

>  <NR>  (163) 
5

>  <NAR>  (163) 
3

>  <PSA>  (163) 
102.06

>  <Standard Type>  (163) 
nan

>  <Standard Relation>  (163) 
nan

>  <Standard Units>  (163) 
nan

>  <Standard Value>  (163) 
nan

>  <Assay ChEMBL ID>  (163) 
nan

>  <Assay Description>  (163) 
nan

>  <BAO Label>  (163) 
nan

>  <bits>  (163) 
<rdkit.DataStructs.cDataStructs.ExplicitBitVect object at 0x00000210F8E5FDF0>

>  <Group>  (163) 
G2

$$$$

     RDKit          2D

 30 32  0  0  0  0  0  0  0  0999 V2000
   11.2817   -3.1126    0.0000 C   0  0  0  0  0  0  0  0  0  0  0  0
   10.2780   -1.9979    0.0000 C   0  0  0  0  0  0  0  0  0  0  0  0
    8.8107   -2.3097    0.0000 C   0  0  0  0  0  0  0  0  0  0  0  0
    7.8071   -1.1950    0.0000 C   0  0  0  0  0  0  0  0  0  0  0  0
    6.3398   -1.5069    0.0000 C   0  0  0  0  0  0  0  0  0  0  0  0
    5.8763   -2.9335    0.0000 C   0  0  0  0  0  0  0  0  0  0  0  0
    6.8800   -4.0482    0.0000 C   0  0  0  0  0  0  0  0  0  0  0  0
    5.3361   -0.3922    0.0000 C   0  0  0  0  0  0  0  0  0  0  0  0
    3.8689   -0.7040    0.0000 O   0  0  0  0  0  0  0  0  0  0  0  0
    5.7997    1.0344    0.0000 N   0  0  0  0  0  0  0  0  0  0  0  0
    4.7960    2.1491    0.0000 C   0  0  0  0  0  0  0  0  0  0  0  0
    3.3287    1.8373    0.0000 C   0  0  0  0  0  0  0  0  0  0  0  0
    2.8652    0.4107    0.0000 O   0  0  0  0  0  0  0  0  0  0  0  0
    2.3250    2.9520    0.0000 N   0  0  0  0  0  0  0  0  0  0  0  0
    0.8578    2.6401    0.0000 C   0  0  0  0  0  0  0  0  0  0  0  0
    0.3943    1.2135    0.0000 C   0  0  0  0  0  0  0  0  0  0  0  0
    1.2760    0.0000    0.0000 C   0  0  0  0  0  0  0  0  0  0  0  0
    0.3943   -1.2135    0.0000 C   0  0  0  0  0  0  0  0  0  0  0  0
   -1.0323   -0.7500    0.0000 C   0  0  0  0  0  0  0  0  0  0  0  0
   -1.0323    0.7500    0.0000 O   0  0  0  0  0  0  0  0  0  0  0  0
    2.7886    4.3786    0.0000 C   0  0  0  0  0  0  0  0  0  0  0  0
    4.2558    4.6904    0.0000 C   0  0  0  0  0  0  0  0  0  0  0  0
    5.3705    3.6867    0.0000 C   0  0  0  0  0  0  0  0  0  0  0  0
    6.6695    4.4367    0.0000 C   0  0  0  0  0  0  0  0  0  0  0  0
    6.3577    5.9040    0.0000 C   0  0  0  0  0  0  0  0  0  0  0  0
    4.8659    6.0607    0.0000 N   0  0  0  0  0  0  0  0  0  0  0  0
    4.1159    7.3598    0.0000 C   0  0  0  0  0  0  0  0  0  0  0  0
    7.2669    1.3463    0.0000 C   0  0  0  0  0  0  0  0  0  0  0  0
    8.3816    2.3500    0.0000 C   0  0  0  0  0  0  0  0  0  0  0  0
    8.6935    0.8828    0.0000 C   0  0  0  0  0  0  0  0  0  0  0  0
  1  2  1  0
  2  3  1  0
  3  4  1  0
  5  4  1  6
  5  6  1  0
  6  7  1  0
  5  8  1  0
  8  9  2  0
  8 10  1  0
 10 11  1  0
 11 12  1  0
 12 13  2  0
 12 14  1  0
 14 15  1  0
 15 16  1  0
 16 17  2  0
 17 18  1  0
 18 19  2  0
 19 20  1  0
 14 21  1  0
 21 22  1  0
 22 23  2  0
 23 24  1  0
 24 25  2  0
 25 26  1  0
 26 27  1  0
 10 28  1  0
 28 29  1  0
 29 30  1  0
 20 16  1  0
 26 22  1  0
 30 28  1  0
M  END
>  <Compound_ID>  (164) 
C04345821

>  <Active>  (164) 
0

>  <Smiles>  (164) 
CCCC[C@H](CC)C(=O)N(CC(=O)N(Cc1ccco1)Cc1cccn1C)C1CC1

>  <canonical_smi>  (164) 
CCCC[C@H](CC)C(=O)N(CC(=O)N(Cc1ccco1)Cc1cccn1C)C1CC1

>  <Set>  (164) 
G2 inactive

>  <Set_type>  (164) 
Test

>  <MW>  (164) 
413.56

>  <HBD>  (164) 
0

>  <HBA>  (164) 
3

>  <NRB>  (164) 
12

>  <NR>  (164) 
3

>  <NAR>  (164) 
2

>  <PSA>  (164) 
58.69

>  <Standard Type>  (164) 
nan

>  <Standard Relation>  (164) 
nan

>  <Standard Units>  (164) 
nan

>  <Standard Value>  (164) 
nan

>  <Assay ChEMBL ID>  (164) 
nan

>  <Assay Description>  (164) 
nan

>  <BAO Label>  (164) 
nan

>  <bits>  (164) 
<rdkit.DataStructs.cDataStructs.ExplicitBitVect object at 0x00000210F8E5CAC0>

>  <Group>  (164) 
G2

$$$$

     RDKit          2D

 26 25  0  0  0  0  0  0  0  0999 V2000
    0.0000    0.0000    0.0000 C   0  0  0  0  0  0  0  0  0  0  0  0
    1.2990    0.7500    0.0000 C   0  0  0  0  0  0  0  0  0  0  0  0
    2.5981   -0.0000    0.0000 C   0  0  0  0  0  0  0  0  0  0  0  0
    3.8971    0.7500    0.0000 C   0  0  0  0  0  0  0  0  0  0  0  0
    3.8971    2.2500    0.0000 O   0  0  0  0  0  0  0  0  0  0  0  0
    5.1962   -0.0000    0.0000 N   0  0  0  0  0  0  0  0  0  0  0  0
    6.4952    0.7500    0.0000 C   0  0  0  0  0  0  0  0  0  0  0  0
    7.7942   -0.0000    0.0000 C   0  0  0  0  0  0  0  0  0  0  0  0
    9.0933    0.7500    0.0000 C   0  0  0  0  0  0  0  0  0  0  0  0
    5.1962   -1.5000    0.0000 C   0  0  0  0  0  0  0  0  0  0  0  0
    3.8971   -2.2500    0.0000 C   0  0  0  0  0  0  0  0  0  0  0  0
    2.5981   -1.5000    0.0000 O   0  0  0  0  0  0  0  0  0  0  0  0
    3.8971   -3.7500    0.0000 N   0  0  0  0  0  0  0  0  0  0  0  0
    2.5981   -4.5000    0.0000 C   0  0  0  0  0  0  0  0  0  0  0  0
    3.3481   -5.7990    0.0000 C   0  0  0  0  0  0  0  0  0  0  0  0
    1.8481   -3.2010    0.0000 C   0  0  0  0  0  0  0  0  0  0  0  0
    1.2990   -5.2500    0.0000 C   0  0  0  0  0  0  0  0  0  0  0  0
    0.0000   -4.5000    0.0000 C   0  0  0  0  0  0  0  0  0  0  0  0
   -0.7500   -5.7990    0.0000 C   0  0  0  0  0  0  0  0  0  0  0  0
    0.7500   -3.2010    0.0000 C   0  0  0  0  0  0  0  0  0  0  0  0
   -1.2990   -3.7500    0.0000 C   0  0  0  0  0  0  0  0  0  0  0  0
    6.4952   -2.2500    0.0000 C   0  0  0  0  0  0  0  0  0  0  0  0
    6.4952   -3.7500    0.0000 C   0  0  0  0  0  0  0  0  0  0  0  0
    7.7942   -4.5000    0.0000 C   0  0  0  0  0  0  0  0  0  0  0  0
    7.7942   -1.5000    0.0000 C   0  0  0  0  0  0  0  0  0  0  0  0
    9.0933   -2.2500    0.0000 C   0  0  0  0  0  0  0  0  0  0  0  0
  1  2  1  0
  2  3  1  0
  3  4  1  0
  4  5  2  0
  4  6  1  0
  6  7  1  0
  7  8  1  0
  8  9  1  0
  6 10  1  0
 10 11  1  0
 11 12  2  0
 11 13  1  0
 13 14  1  0
 14 15  1  0
 14 16  1  0
 14 17  1  0
 17 18  1  0
 18 19  1  0
 18 20  1  0
 18 21  1  0
 10 22  1  6
 22 23  1  0
 23 24  1  0
 22 25  1  0
 25 26  1  0
M  END
>  <Compound_ID>  (165) 
C36573993

>  <Active>  (165) 
0

>  <Smiles>  (165) 
CCCC(=O)N(CCC)[C@@H](C(=O)NC(C)(C)CC(C)(C)C)C(CC)CC

>  <canonical_smi>  (165) 
CCCC(=O)N(CCC)[C@@H](C(=O)NC(C)(C)CC(C)(C)C)C(CC)CC

>  <Set>  (165) 
G2 inactive

>  <Set_type>  (165) 
Test

>  <MW>  (165) 
368.61

>  <HBD>  (165) 
1

>  <HBA>  (165) 
2

>  <NRB>  (165) 
11

>  <NR>  (165) 
0

>  <NAR>  (165) 
0

>  <PSA>  (165) 
49.41

>  <Standard Type>  (165) 
nan

>  <Standard Relation>  (165) 
nan

>  <Standard Units>  (165) 
nan

>  <Standard Value>  (165) 
nan

>  <Assay ChEMBL ID>  (165) 
nan

>  <Assay Description>  (165) 
nan

>  <BAO Label>  (165) 
nan

>  <bits>  (165) 
<rdkit.DataStructs.cDataStructs.ExplicitBitVect object at 0x00000210F8E5D4D0>

>  <Group>  (165) 
G2

$$$$

     RDKit          2D

 31 32  0  0  0  0  0  0  0  0999 V2000
    5.2500   -1.2990    0.0000 C   0  0  0  0  0  0  0  0  0  0  0  0
    3.7500   -1.2990    0.0000 C   0  0  0  0  0  0  0  0  0  0  0  0
    3.0000    0.0000    0.0000 O   0  0  0  0  0  0  0  0  0  0  0  0
    1.5000    0.0000    0.0000 C   0  0  0  0  0  0  0  0  0  0  0  0
    0.7500   -1.2990    0.0000 C   0  0  0  0  0  0  0  0  0  0  0  0
   -0.7500   -1.2990    0.0000 C   0  0  0  0  0  0  0  0  0  0  0  0
   -1.5000   -2.5981    0.0000 C   0  0  0  0  0  0  0  0  0  0  0  0
   -0.7500   -3.8971    0.0000 O   0  0  0  0  0  0  0  0  0  0  0  0
   -3.0000   -2.5981    0.0000 O   0  0  0  0  0  0  0  0  0  0  0  0
   -3.7500   -3.8971    0.0000 C   0  0  0  0  0  0  0  0  0  0  0  0
   -5.2500   -3.8971    0.0000 C   0  0  0  0  0  0  0  0  0  0  0  0
   -3.0000   -5.1962    0.0000 C   0  0  0  0  0  0  0  0  0  0  0  0
   -1.5000   -5.1962    0.0000 O   0  0  0  0  0  0  0  0  0  0  0  0
   -3.7500   -6.4952    0.0000 N   0  0  0  0  0  0  0  0  0  0  0  0
   -3.0000   -7.7942    0.0000 C   0  0  0  0  0  0  0  0  0  0  0  0
   -3.7500   -9.0933    0.0000 C   0  0  0  0  0  0  0  0  0  0  0  0
   -3.0000  -10.3923    0.0000 C   0  0  0  0  0  0  0  0  0  0  0  0
   -5.2500   -9.0933    0.0000 C   0  0  0  0  0  0  0  0  0  0  0  0
   -1.5000    0.0000    0.0000 C   0  0  0  0  0  0  0  0  0  0  0  0
   -0.7500    1.2990    0.0000 C   0  0  0  0  0  0  0  0  0  0  0  0
    0.7500    1.2990    0.0000 C   0  0  0  0  0  0  0  0  0  0  0  0
    1.5000    2.5981    0.0000 O   0  0  0  0  0  0  0  0  0  0  0  0
    3.0000    2.5981    0.0000 C   0  0  0  0  0  0  0  0  0  0  0  0
    3.7500    3.8971    0.0000 C   0  0  0  0  0  0  0  0  0  0  0  0
    5.2500    3.8971    0.0000 O   0  0  0  0  0  0  0  0  0  0  0  0
    6.0000    5.1962    0.0000 C   0  0  0  0  0  0  0  0  0  0  0  0
    7.5000    5.1962    0.0000 C   0  0  0  0  0  0  0  0  0  0  0  0
    8.2500    6.4952    0.0000 C   0  0  0  0  0  0  0  0  0  0  0  0
    7.5000    7.7942    0.0000 C   0  0  0  0  0  0  0  0  0  0  0  0
    6.0000    7.7942    0.0000 C   0  0  0  0  0  0  0  0  0  0  0  0
    5.2500    6.4952    0.0000 C   0  0  0  0  0  0  0  0  0  0  0  0
  1  2  1  0
  2  3  1  0
  3  4  1  0
  4  5  2  0
  5  6  1  0
  6  7  1  0
  7  8  2  0
  7  9  1  0
  9 10  1  0
 10 11  1  6
 10 12  1  0
 12 13  2  0
 12 14  1  0
 14 15  1  0
 15 16  1  0
 16 17  1  0
 16 18  1  0
  6 19  2  0
 19 20  1  0
 20 21  2  0
 21 22  1  0
 22 23  1  0
 23 24  1  0
 24 25  1  0
 25 26  1  0
 26 27  2  0
 27 28  1  0
 28 29  2  0
 29 30  1  0
 30 31  2  0
 21  4  1  0
 31 26  1  0
M  END
>  <Compound_ID>  (166) 
C24068193

>  <Active>  (166) 
0

>  <Smiles>  (166) 
CCOc1cc(C(=O)O[C@@H](C)C(=O)NCC(C)C)ccc1OCCOc1ccccc1

>  <canonical_smi>  (166) 
CCOc1cc(C(=O)O[C@@H](C)C(=O)NCC(C)C)ccc1OCCOc1ccccc1

>  <Set>  (166) 
G2 inactive

>  <Set_type>  (166) 
Test

>  <MW>  (166) 
429.51

>  <HBD>  (166) 
1

>  <HBA>  (166) 
6

>  <NRB>  (166) 
12

>  <NR>  (166) 
2

>  <NAR>  (166) 
2

>  <PSA>  (166) 
83.09

>  <Standard Type>  (166) 
nan

>  <Standard Relation>  (166) 
nan

>  <Standard Units>  (166) 
nan

>  <Standard Value>  (166) 
nan

>  <Assay ChEMBL ID>  (166) 
nan

>  <Assay Description>  (166) 
nan

>  <BAO Label>  (166) 
nan

>  <bits>  (166) 
<rdkit.DataStructs.cDataStructs.ExplicitBitVect object at 0x00000210F8E5E5E0>

>  <Group>  (166) 
G2

$$$$

     RDKit          2D

 20 21  0  0  0  0  0  0  0  0999 V2000
   -4.2718   -4.8635    0.0000 C   0  0  0  0  0  0  0  0  0  0  0  0
   -3.0583   -5.7452    0.0000 C   0  0  0  0  0  0  0  0  0  0  0  0
   -3.0583   -7.2452    0.0000 N   0  0  0  0  0  0  0  0  0  0  0  0
   -1.6317   -7.7087    0.0000 C   0  0  0  0  0  0  0  0  0  0  0  0
   -1.1682   -9.1353    0.0000 C   0  0  0  0  0  0  0  0  0  0  0  0
   -0.7500   -6.4952    0.0000 C   0  0  0  0  0  0  0  0  0  0  0  0
    0.7500   -6.4952    0.0000 C   0  0  0  0  0  0  0  0  0  0  0  0
    1.5000   -7.7942    0.0000 C   0  0  0  0  0  0  0  0  0  0  0  0
    1.5000   -5.1962    0.0000 N   0  0  0  0  0  0  0  0  0  0  0  0
    0.7500   -3.8971    0.0000 C   0  0  0  0  0  0  0  0  0  0  0  0
   -0.7500   -3.8971    0.0000 O   0  0  0  0  0  0  0  0  0  0  0  0
    1.5000   -2.5981    0.0000 N   0  0  0  0  0  0  0  0  0  0  0  0
    0.7500   -1.2990    0.0000 C   0  0  0  0  0  0  0  0  0  0  0  0
    1.5000    0.0000    0.0000 C   0  0  0  0  0  0  0  0  0  0  0  0
    0.7500    1.2990    0.0000 C   0  0  0  0  0  0  0  0  0  0  0  0
   -0.7500    1.2990    0.0000 C   0  0  0  0  0  0  0  0  0  0  0  0
   -1.5000    2.5981    0.0000 O   0  0  0  0  0  0  0  0  0  0  0  0
   -1.5000    0.0000    0.0000 C   0  0  0  0  0  0  0  0  0  0  0  0
   -0.7500   -1.2990    0.0000 C   0  0  0  0  0  0  0  0  0  0  0  0
   -1.6317   -5.2817    0.0000 S   0  0  0  0  0  0  0  0  0  0  0  0
  1  2  1  0
  2  3  2  0
  3  4  1  0
  4  5  1  0
  4  6  2  0
  6  7  1  0
  7  8  1  6
  7  9  1  0
  9 10  1  0
 10 11  2  0
 10 12  1  0
 12 13  1  0
 13 14  1  0
 14 15  1  0
 15 16  1  0
 16 17  1  0
 16 18  1  0
 18 19  1  0
  6 20  1  0
 20  2  1  0
 19 13  1  0
M  END
>  <Compound_ID>  (167) 
C48888661

>  <Active>  (167) 
0

>  <Smiles>  (167) 
Cc1nc(C)c([C@@H](C)NC(=O)NC2CCC(O)CC2)s1

>  <canonical_smi>  (167) 
Cc1nc(C)c([C@@H](C)NC(=O)NC2CCC(O)CC2)s1

>  <Set>  (167) 
G2 inactive

>  <Set_type>  (167) 
Test

>  <MW>  (167) 
297.42

>  <HBD>  (167) 
3

>  <HBA>  (167) 
3

>  <NRB>  (167) 
3

>  <NR>  (167) 
2

>  <NAR>  (167) 
1

>  <PSA>  (167) 
74.25

>  <Standard Type>  (167) 
nan

>  <Standard Relation>  (167) 
nan

>  <Standard Units>  (167) 
nan

>  <Standard Value>  (167) 
nan

>  <Assay ChEMBL ID>  (167) 
nan

>  <Assay Description>  (167) 
nan

>  <BAO Label>  (167) 
nan

>  <bits>  (167) 
<rdkit.DataStructs.cDataStructs.ExplicitBitVect object at 0x00000210F8E5EAB0>

>  <Group>  (167) 
G2

$$$$

     RDKit          2D

 28 30  0  0  0  0  0  0  0  0999 V2000
    3.0000    0.0000    0.0000 C   0  0  0  0  0  0  0  0  0  0  0  0
    1.5000    0.0000    0.0000 C   0  0  0  0  0  0  0  0  0  0  0  0
    0.7500   -1.2990    0.0000 C   0  0  0  0  0  0  0  0  0  0  0  0
   -0.7500   -1.2990    0.0000 C   0  0  0  0  0  0  0  0  0  0  0  0
   -1.5000    0.0000    0.0000 C   0  0  0  0  0  0  0  0  0  0  0  0
   -3.0000    0.0000    0.0000 N   0  0  0  0  0  0  0  0  0  0  0  0
   -3.7500    1.2990    0.0000 C   0  0  0  0  0  0  0  0  0  0  0  0
   -3.0000    2.5981    0.0000 O   0  0  0  0  0  0  0  0  0  0  0  0
   -5.2500    1.2990    0.0000 C   0  0  0  0  0  0  0  0  0  0  0  0
   -6.0000    2.5981    0.0000 N   0  0  0  0  0  4  0  0  0  0  0  0
   -5.2500    3.8971    0.0000 C   0  0  0  0  0  0  0  0  0  0  0  0
   -6.0000    5.1962    0.0000 C   0  0  0  0  0  0  0  0  0  0  0  0
   -7.5000    5.1962    0.0000 N   0  0  0  0  0  0  0  0  0  0  0  0
   -8.2500    6.4952    0.0000 S   0  0  0  0  0  0  0  0  0  0  0  0
   -9.5490    5.7452    0.0000 O   0  0  0  0  0  0  0  0  0  0  0  0
   -6.9510    7.2452    0.0000 O   0  0  0  0  0  0  0  0  0  0  0  0
   -9.0000    7.7942    0.0000 C   0  0  0  0  0  0  0  0  0  0  0  0
   -8.2500    9.0933    0.0000 C   0  0  0  0  0  0  0  0  0  0  0  0
   -9.0000   10.3923    0.0000 C   0  0  0  0  0  0  0  0  0  0  0  0
  -10.5000   10.3923    0.0000 C   0  0  0  0  0  0  0  0  0  0  0  0
  -11.2500    9.0933    0.0000 C   0  0  0  0  0  0  0  0  0  0  0  0
  -10.5000    7.7942    0.0000 C   0  0  0  0  0  0  0  0  0  0  0  0
  -11.2500    6.4952    0.0000 Cl  0  0  0  0  0  0  0  0  0  0  0  0
   -8.2500    3.8971    0.0000 C   0  0  0  0  0  0  0  0  0  0  0  0
   -7.5000    2.5981    0.0000 C   0  0  0  0  0  0  0  0  0  0  0  0
   -0.7500    1.2990    0.0000 C   0  0  0  0  0  0  0  0  0  0  0  0
    0.7500    1.2990    0.0000 C   0  0  0  0  0  0  0  0  0  0  0  0
    1.5000    2.5981    0.0000 Cl  0  0  0  0  0  0  0  0  0  0  0  0
  1  2  1  0
  2  3  2  0
  3  4  1  0
  4  5  2  0
  5  6  1  0
  6  7  1  0
  7  8  2  0
  7  9  1  0
  9 10  1  0
 10 11  1  0
 11 12  1  0
 12 13  1  0
 13 14  1  0
 14 15  2  0
 14 16  2  0
 14 17  1  0
 17 18  2  0
 18 19  1  0
 19 20  2  0
 20 21  1  0
 21 22  2  0
 22 23  1  0
 13 24  1  0
 24 25  1  0
  5 26  1  0
 26 27  2  0
 27 28  1  0
 27  2  1  0
 25 10  1  0
 22 17  1  0
M  CHG  1  10   1
M  END
>  <Compound_ID>  (168) 
C25408288

>  <Active>  (168) 
0

>  <Smiles>  (168) 
Cc1ccc(NC(=O)C[NH+]2CCN(S(=O)(=O)c3ccccc3Cl)CC2)cc1Cl

>  <canonical_smi>  (168) 
Cc1ccc(NC(=O)C[NH+]2CCN(S(=O)(=O)c3ccccc3Cl)CC2)cc1Cl

>  <Set>  (168) 
G2 inactive

>  <Set_type>  (168) 
Test

>  <MW>  (168) 
443.38

>  <HBD>  (168) 
2

>  <HBA>  (168) 
3

>  <NRB>  (168) 
5

>  <NR>  (168) 
3

>  <NAR>  (168) 
2

>  <PSA>  (168) 
70.92

>  <Standard Type>  (168) 
nan

>  <Standard Relation>  (168) 
nan

>  <Standard Units>  (168) 
nan

>  <Standard Value>  (168) 
nan

>  <Assay ChEMBL ID>  (168) 
nan

>  <Assay Description>  (168) 
nan

>  <BAO Label>  (168) 
nan

>  <bits>  (168) 
<rdkit.DataStructs.cDataStructs.ExplicitBitVect object at 0x00000210F8E5D9A0>

>  <Group>  (168) 
G2

$$$$
