
     RDKit          2D

 34 38  0  0  0  0  0  0  0  0999 V2000
    3.8536   -9.4071    0.0000 N   0  0  0  0  0  0  0  0  0  0  0  0
    3.8536   -7.9071    0.0000 C   0  0  0  0  0  0  0  0  0  0  0  0
    3.8536   -6.4071    0.0000 C   0  0  0  0  0  0  0  0  0  0  0  0
    2.6401   -5.5255    0.0000 C   0  0  0  0  0  0  0  0  0  0  0  0
    1.2135   -5.9890    0.0000 C   0  0  0  0  0  0  0  0  0  0  0  0
   -0.0000   -5.1073    0.0000 C   0  0  0  0  0  0  0  0  0  0  0  0
   -0.0000   -3.6073    0.0000 C   0  0  0  0  0  0  0  0  0  0  0  0
   -1.2135   -2.7256    0.0000 C   0  0  0  0  0  0  0  0  0  0  0  0
   -0.7500   -1.2990    0.0000 C   0  0  0  0  0  0  0  0  0  0  0  0
   -1.5000    0.0000    0.0000 C   0  0  0  0  0  0  0  0  0  0  0  0
   -0.7500    1.2990    0.0000 C   0  0  0  0  0  0  0  0  0  0  0  0
    0.7500    1.2990    0.0000 C   0  0  0  0  0  0  0  0  0  0  0  0
    1.5000    0.0000    0.0000 C   0  0  0  0  0  0  0  0  0  0  0  0
    0.7500   -1.2990    0.0000 C   0  0  0  0  0  0  0  0  0  0  0  0
    1.2135   -2.7256    0.0000 S   0  0  0  0  0  0  0  0  0  0  0  0
   -1.2135   -5.9890    0.0000 N   0  0  0  0  0  0  0  0  0  0  0  0
   -2.6401   -5.5255    0.0000 C   0  0  0  0  0  0  0  0  0  0  0  0
   -3.7548   -6.5291    0.0000 C   0  0  0  0  0  0  0  0  0  0  0  0
   -5.1814   -6.0656    0.0000 C   0  0  0  0  0  0  0  0  0  0  0  0
   -6.2961   -7.0693    0.0000 S   0  0  0  0  0  0  0  0  0  0  0  0
   -7.7227   -6.6058    0.0000 C   0  0  0  0  0  0  0  0  0  0  0  0
   -8.0346   -5.1386    0.0000 N   0  0  0  0  0  0  0  0  0  0  0  0
   -8.8374   -7.6095    0.0000 N   0  0  0  0  0  0  0  0  0  0  0  0
   -0.7500   -7.4156    0.0000 C   0  0  0  0  0  0  0  0  0  0  0  0
   -1.5000   -8.7146    0.0000 C   0  0  0  0  0  0  0  0  0  0  0  0
   -0.7500  -10.0136    0.0000 C   0  0  0  0  0  0  0  0  0  0  0  0
    0.7500  -10.0136    0.0000 C   0  0  0  0  0  0  0  0  0  0  0  0
    1.5000   -8.7146    0.0000 C   0  0  0  0  0  0  0  0  0  0  0  0
    0.7500   -7.4156    0.0000 C   0  0  0  0  0  0  0  0  0  0  0  0
    3.1036   -4.0989    0.0000 C   0  0  0  0  0  0  0  0  0  0  0  0
    2.2220   -2.8853    0.0000 O   0  0  0  0  0  0  0  0  0  0  0  0
    4.6036   -4.0989    0.0000 N   0  0  0  0  0  0  0  0  0  0  0  0
    5.0672   -5.5255    0.0000 C   0  0  0  0  0  0  0  0  0  0  0  0
    6.4937   -5.9890    0.0000 O   0  0  0  0  0  0  0  0  0  0  0  0
  1  2  3  0
  2  3  1  0
  3  4  2  0
  4  5  1  0
  5  6  2  0
  6  7  1  0
  7  8  2  0
  8  9  1  0
  9 10  2  0
 10 11  1  0
 11 12  2  0
 12 13  1  0
 13 14  2  0
 14 15  1  0
  6 16  1  0
 16 17  1  0
 17 18  1  0
 18 19  1  0
 19 20  1  0
 20 21  1  0
 21 22  2  0
 21 23  1  0
 16 24  1  0
 24 25  2  0
 25 26  1  0
 26 27  2  0
 27 28  1  0
 28 29  2  0
  4 30  1  0
 30 31  2  0
 30 32  1  0
 32 33  1  0
 33 34  2  0
 33  3  1  0
 29  5  1  0
 15  7  1  0
 29 24  1  0
 14  9  1  0
M  END
>  <Compound_ID>  (1) 
CHEMBL162621

>  <Active>  (1) 
1.0

>  <Smiles>  (1) 
N#CC1=C(c2c(-c3cc4ccccc4s3)n(CCCSC(=N)N)c3ccccc23)C(=O)NC1=O

>  <canonical_smi>  (1) 
N#CC1=C(c2c(-c3cc4ccccc4s3)n(CCCSC(=N)N)c3ccccc23)C(=O)NC1=O

>  <Set>  (1) 
G1 active

>  <Set_type>  (1) 
G1

>  <MW>  (1) 
485.59

>  <HBD>  (1) 
3

>  <HBA>  (1) 
5

>  <NRB>  (1) 
6

>  <NR>  (1) 
5

>  <NAR>  (1) 
4

>  <PSA>  (1) 
124.76

>  <Standard Type>  (1) 
nan

>  <Standard Relation>  (1) 
nan

>  <Standard Units>  (1) 
nan

>  <Standard Value>  (1) 
nan

>  <Assay ChEMBL ID>  (1) 
nan

>  <Assay Description>  (1) 
nan

>  <BAO Label>  (1) 
nan

$$$$

     RDKit          2D

 30 33  0  0  0  0  0  0  0  0999 V2000
   -7.2317   -6.0469    0.0000 N   0  0  0  0  0  0  0  0  0  0  0  0
   -6.1170   -7.0506    0.0000 C   0  0  0  0  0  0  0  0  0  0  0  0
   -6.4289   -8.5179    0.0000 N   0  0  0  0  0  0  0  0  0  0  0  0
   -4.6904   -6.5871    0.0000 S   0  0  0  0  0  0  0  0  0  0  0  0
   -4.3786   -5.1199    0.0000 C   0  0  0  0  0  0  0  0  0  0  0  0
   -2.9520   -4.6564    0.0000 C   0  0  0  0  0  0  0  0  0  0  0  0
   -2.6401   -3.1891    0.0000 C   0  0  0  0  0  0  0  0  0  0  0  0
   -1.2135   -2.7256    0.0000 N   0  0  0  0  0  0  0  0  0  0  0  0
   -0.0000   -3.6073    0.0000 C   0  0  0  0  0  0  0  0  0  0  0  0
    1.2135   -2.7256    0.0000 C   0  0  0  0  0  0  0  0  0  0  0  0
    2.6401   -3.1891    0.0000 C   0  0  0  0  0  0  0  0  0  0  0  0
    3.8536   -2.3075    0.0000 C   0  0  0  0  0  0  0  0  0  0  0  0
    3.8536   -0.8075    0.0000 N   0  0  0  0  0  0  0  0  0  0  0  0
    5.1527   -0.0575    0.0000 C   0  0  0  0  0  0  0  0  0  0  0  0
    6.4517   -0.8075    0.0000 C   0  0  0  0  0  0  0  0  0  0  0  0
    7.7508   -0.0575    0.0000 C   0  0  0  0  0  0  0  0  0  0  0  0
    7.7508    1.4425    0.0000 C   0  0  0  0  0  0  0  0  0  0  0  0
    6.4517    2.1925    0.0000 C   0  0  0  0  0  0  0  0  0  0  0  0
    5.1527    1.4425    0.0000 C   0  0  0  0  0  0  0  0  0  0  0  0
    5.0672   -3.1891    0.0000 C   0  0  0  0  0  0  0  0  0  0  0  0
    6.4937   -2.7256    0.0000 O   0  0  0  0  0  0  0  0  0  0  0  0
    4.6036   -4.6157    0.0000 N   0  0  0  0  0  0  0  0  0  0  0  0
    3.1036   -4.6157    0.0000 C   0  0  0  0  0  0  0  0  0  0  0  0
    2.2220   -5.8293    0.0000 O   0  0  0  0  0  0  0  0  0  0  0  0
    0.7500   -1.2990    0.0000 C   0  0  0  0  0  0  0  0  0  0  0  0
    1.5000    0.0000    0.0000 C   0  0  0  0  0  0  0  0  0  0  0  0
    0.7500    1.2990    0.0000 C   0  0  0  0  0  0  0  0  0  0  0  0
   -0.7500    1.2990    0.0000 C   0  0  0  0  0  0  0  0  0  0  0  0
   -1.5000    0.0000    0.0000 C   0  0  0  0  0  0  0  0  0  0  0  0
   -0.7500   -1.2990    0.0000 C   0  0  0  0  0  0  0  0  0  0  0  0
  1  2  2  0
  2  3  1  0
  2  4  1  0
  4  5  1  0
  5  6  1  0
  6  7  1  0
  7  8  1  0
  8  9  1  0
  9 10  2  0
 10 11  1  0
 11 12  2  0
 12 13  1  0
 13 14  1  0
 14 15  2  0
 15 16  1  0
 16 17  2  0
 17 18  1  0
 18 19  2  0
 12 20  1  0
 20 21  2  0
 20 22  1  0
 22 23  1  0
 23 24  2  0
 10 25  1  0
 25 26  2  0
 26 27  1  0
 27 28  2  0
 28 29  1  0
 29 30  2  0
 30  8  1  0
 23 11  1  0
 30 25  1  0
 19 14  1  0
M  END
>  <Compound_ID>  (2) 
CHEMBL540357

>  <Active>  (2) 
1.0

>  <Smiles>  (2) 
N=C(N)SCCCn1cc(C2=C(Nc3ccccc3)C(=O)NC2=O)c2ccccc21

>  <canonical_smi>  (2) 
N=C(N)SCCCn1cc(C2=C(Nc3ccccc3)C(=O)NC2=O)c2ccccc21

>  <Set>  (2) 
G1 active

>  <Set_type>  (2) 
G1

>  <MW>  (2) 
419.51

>  <HBD>  (2) 
4

>  <HBA>  (2) 
5

>  <NRB>  (2) 
7

>  <NR>  (2) 
4

>  <NAR>  (2) 
3

>  <PSA>  (2) 
113.0

>  <Standard Type>  (2) 
nan

>  <Standard Relation>  (2) 
nan

>  <Standard Units>  (2) 
nan

>  <Standard Value>  (2) 
nan

>  <Assay ChEMBL ID>  (2) 
nan

>  <Assay Description>  (2) 
nan

>  <BAO Label>  (2) 
nan

$$$$

     RDKit          2D

 32 37  0  0  0  0  0  0  0  0999 V2000
    2.4507  -12.2836    0.0000 C   0  0  0  0  0  0  0  0  0  0  0  0
    2.9142  -10.8570    0.0000 O   0  0  0  0  0  0  0  0  0  0  0  0
    1.9105   -9.7423    0.0000 C   0  0  0  0  0  0  0  0  0  0  0  0
    0.4433  -10.0541    0.0000 C   0  0  0  0  0  0  0  0  0  0  0  0
   -0.5604   -8.9394    0.0000 C   0  0  0  0  0  0  0  0  0  0  0  0
   -0.0969   -7.5128    0.0000 C   0  0  0  0  0  0  0  0  0  0  0  0
    1.3703   -7.2010    0.0000 C   0  0  0  0  0  0  0  0  0  0  0  0
    2.3740   -8.3157    0.0000 C   0  0  0  0  0  0  0  0  0  0  0  0
    1.5271   -5.7092    0.0000 C   0  0  0  0  0  0  0  0  0  0  0  0
    2.7406   -4.8275    0.0000 C   0  0  0  0  0  0  0  0  0  0  0  0
    2.5838   -3.3357    0.0000 C   0  0  0  0  0  0  0  0  0  0  0  0
    1.2135   -2.7256    0.0000 C   0  0  0  0  0  0  0  0  0  0  0  0
    0.7500   -1.2990    0.0000 C   0  0  0  0  0  0  0  0  0  0  0  0
    1.5000    0.0000    0.0000 C   0  0  0  0  0  0  0  0  0  0  0  0
    0.7500    1.2990    0.0000 C   0  0  0  0  0  0  0  0  0  0  0  0
   -0.7500    1.2990    0.0000 C   0  0  0  0  0  0  0  0  0  0  0  0
   -1.5000    0.0000    0.0000 C   0  0  0  0  0  0  0  0  0  0  0  0
   -0.7500   -1.2990    0.0000 C   0  0  0  0  0  0  0  0  0  0  0  0
   -1.2135   -2.7256    0.0000 N   0  0  0  0  0  0  0  0  0  0  0  0
   -2.6401   -3.1891    0.0000 C   0  0  0  0  0  0  0  0  0  0  0  0
    0.0000   -3.6073    0.0000 C   0  0  0  0  0  0  0  0  0  0  0  0
    0.1568   -5.0991    0.0000 C   0  0  0  0  0  0  0  0  0  0  0  0
   -0.8469   -6.2138    0.0000 N   0  0  0  0  0  0  0  0  0  0  0  0
   -2.3387   -6.0570    0.0000 C   0  0  0  0  0  0  0  0  0  0  0  0
   -3.2204   -7.2705    0.0000 C   0  0  0  0  0  0  0  0  0  0  0  0
   -4.7121   -7.1137    0.0000 C   0  0  0  0  0  0  0  0  0  0  0  0
   -6.2039   -6.9569    0.0000 N   0  0  0  0  0  0  0  0  0  0  0  0
    3.9542   -2.7256    0.0000 C   0  0  0  0  0  0  0  0  0  0  0  0
    4.2660   -1.2584    0.0000 O   0  0  0  0  0  0  0  0  0  0  0  0
    4.9579   -3.8403    0.0000 N   0  0  0  0  0  0  0  0  0  0  0  0
    4.2079   -5.1394    0.0000 C   0  0  0  0  0  0  0  0  0  0  0  0
    4.8180   -6.5097    0.0000 O   0  0  0  0  0  0  0  0  0  0  0  0
  1  2  1  0
  2  3  1  0
  3  4  2  0
  4  5  1  0
  5  6  2  0
  6  7  1  0
  7  8  2  0
  7  9  1  0
  9 10  2  0
 10 11  1  0
 11 12  2  0
 12 13  1  0
 13 14  2  0
 14 15  1  0
 15 16  2  0
 16 17  1  0
 17 18  2  0
 18 19  1  0
 19 20  1  0
 19 21  1  0
 21 22  2  0
 22 23  1  0
 23 24  1  0
 24 25  1  0
 25 26  1  0
 26 27  3  0
 11 28  1  0
 28 29  2  0
 28 30  1  0
 30 31  1  0
 31 32  2  0
  8  3  1  0
 22  9  1  0
 23  6  1  0
 31 10  1  0
 21 12  1  0
 18 13  1  0
M  END
>  <Compound_ID>  (3) 
CHEMBL345593

>  <Active>  (3) 
1.0

>  <Smiles>  (3) 
COc1ccc2c(c1)c1c3c(c4c5ccccc5n(C)c4c1n2CCC#N)C(=O)NC3=O

>  <canonical_smi>  (3) 
COc1ccc2c(c1)c1c3c(c4c5ccccc5n(C)c4c1n2CCC#N)C(=O)NC3=O

>  <Set>  (3) 
G1 active

>  <Set_type>  (3) 
G1

>  <MW>  (3) 
422.44

>  <HBD>  (3) 
1

>  <HBA>  (3) 
4

>  <NRB>  (3) 
3

>  <NR>  (3) 
6

>  <NAR>  (3) 
5

>  <PSA>  (3) 
89.05

>  <Standard Type>  (3) 
nan

>  <Standard Relation>  (3) 
nan

>  <Standard Units>  (3) 
nan

>  <Standard Value>  (3) 
nan

>  <Assay ChEMBL ID>  (3) 
nan

>  <Assay Description>  (3) 
nan

>  <BAO Label>  (3) 
nan

$$$$

     RDKit          2D

 34 39  0  0  0  0  0  0  0  0999 V2000
   -8.0346   -3.5760    0.0000 C   0  0  0  0  0  0  0  0  0  0  0  0
   -6.9199   -4.5797    0.0000 C   0  0  0  0  0  0  0  0  0  0  0  0
   -5.4933   -4.1162    0.0000 N   0  0  0  0  0  0  0  0  0  0  0  0
   -5.1814   -2.6490    0.0000 C   0  0  0  0  0  0  0  0  0  0  0  0
   -3.7548   -2.1855    0.0000 C   0  0  0  0  0  0  0  0  0  0  0  0
   -2.6401   -3.1891    0.0000 C   0  0  0  0  0  0  0  0  0  0  0  0
   -1.2135   -2.7256    0.0000 N   0  0  0  0  0  0  0  0  0  0  0  0
   -0.0000   -3.6073    0.0000 C   0  0  0  0  0  0  0  0  0  0  0  0
    1.2135   -2.7256    0.0000 C   0  0  0  0  0  0  0  0  0  0  0  0
    2.6401   -3.1891    0.0000 C   0  0  0  0  0  0  0  0  0  0  0  0
    3.8536   -2.3075    0.0000 C   0  0  0  0  0  0  0  0  0  0  0  0
    3.8536   -0.8075    0.0000 C   0  0  0  0  0  0  0  0  0  0  0  0
    2.6401    0.0742    0.0000 C   0  0  0  0  0  0  0  0  0  0  0  0
    3.1036    1.5008    0.0000 N   0  0  0  0  0  0  0  0  0  0  0  0
    2.2220    2.7143    0.0000 C   0  0  0  0  0  0  0  0  0  0  0  0
    4.6036    1.5008    0.0000 C   0  0  0  0  0  0  0  0  0  0  0  0
    5.6073    2.6155    0.0000 C   0  0  0  0  0  0  0  0  0  0  0  0
    7.0746    2.3036    0.0000 C   0  0  0  0  0  0  0  0  0  0  0  0
    7.5381    0.8771    0.0000 C   0  0  0  0  0  0  0  0  0  0  0  0
    6.5344   -0.2377    0.0000 C   0  0  0  0  0  0  0  0  0  0  0  0
    5.0672    0.0742    0.0000 C   0  0  0  0  0  0  0  0  0  0  0  0
    5.0672   -3.1891    0.0000 C   0  0  0  0  0  0  0  0  0  0  0  0
    6.4937   -2.7256    0.0000 O   0  0  0  0  0  0  0  0  0  0  0  0
    4.6036   -4.6157    0.0000 N   0  0  0  0  0  0  0  0  0  0  0  0
    3.1036   -4.6157    0.0000 C   0  0  0  0  0  0  0  0  0  0  0  0
    2.2220   -5.8293    0.0000 O   0  0  0  0  0  0  0  0  0  0  0  0
    0.7500   -1.2990    0.0000 C   0  0  0  0  0  0  0  0  0  0  0  0
    1.5000    0.0000    0.0000 C   0  0  0  0  0  0  0  0  0  0  0  0
    0.7500    1.2990    0.0000 C   0  0  0  0  0  0  0  0  0  0  0  0
   -0.7500    1.2990    0.0000 C   0  0  0  0  0  0  0  0  0  0  0  0
   -1.5000    0.0000    0.0000 C   0  0  0  0  0  0  0  0  0  0  0  0
   -0.7500   -1.2990    0.0000 C   0  0  0  0  0  0  0  0  0  0  0  0
   -2.9520   -4.6564    0.0000 C   0  0  0  0  0  0  0  0  0  0  0  0
   -4.3786   -5.1199    0.0000 C   0  0  0  0  0  0  0  0  0  0  0  0
  1  2  1  0
  2  3  1  0
  3  4  1  0
  4  5  1  0
  5  6  1  0
  6  7  1  0
  7  8  1  0
  8  9  2  0
  9 10  1  0
 10 11  2  0
 11 12  1  0
 12 13  2  0
 13 14  1  0
 14 15  1  0
 14 16  1  0
 16 17  2  0
 17 18  1  0
 18 19  2  0
 19 20  1  0
 20 21  2  0
 11 22  1  0
 22 23  2  0
 22 24  1  0
 24 25  1  0
 25 26  2  0
  9 27  1  0
 27 28  2  0
 28 29  1  0
 29 30  2  0
 30 31  1  0
 31 32  2  0
  6 33  1  0
 33 34  1  0
 34  3  1  0
 32  7  1  0
 25 10  1  0
 32 27  1  0
 21 12  1  0
 21 16  1  0
M  END
>  <Compound_ID>  (4) 
CHEMBL54382

>  <Active>  (4) 
1.0

>  <Smiles>  (4) 
CCN1CCC(n2cc(C3=C(c4cn(C)c5ccccc45)C(=O)NC3=O)c3ccccc32)CC1

>  <canonical_smi>  (4) 
CCN1CCC(n2cc(C3=C(c4cn(C)c5ccccc45)C(=O)NC3=O)c3ccccc32)CC1

>  <Set>  (4) 
G1 active

>  <Set_type>  (4) 
G1

>  <MW>  (4) 
452.56

>  <HBD>  (4) 
1

>  <HBA>  (4) 
3

>  <NRB>  (4) 
4

>  <NR>  (4) 
6

>  <NAR>  (4) 
4

>  <PSA>  (4) 
59.27

>  <Standard Type>  (4) 
nan

>  <Standard Relation>  (4) 
nan

>  <Standard Units>  (4) 
nan

>  <Standard Value>  (4) 
nan

>  <Assay ChEMBL ID>  (4) 
nan

>  <Assay Description>  (4) 
nan

>  <BAO Label>  (4) 
nan

$$$$

     RDKit          2D

 29 35  0  0  0  0  0  0  0  0999 V2000
    4.2660   -1.2584    0.0000 O   0  0  0  0  0  0  0  0  0  0  0  0
    3.9542   -2.7256    0.0000 C   0  0  0  0  0  0  0  0  0  0  0  0
    4.9579   -3.8403    0.0000 N   0  0  0  0  0  0  0  0  0  0  0  0
    4.2079   -5.1394    0.0000 C   0  0  0  0  0  0  0  0  0  0  0  0
    2.7406   -4.8275    0.0000 C   0  0  0  0  0  0  0  0  0  0  0  0
    2.5838   -3.3357    0.0000 C   0  0  0  0  0  0  0  0  0  0  0  0
    1.2135   -2.7256    0.0000 C   0  0  0  0  0  0  0  0  0  0  0  0
    0.7500   -1.2990    0.0000 C   0  0  0  0  0  0  0  0  0  0  0  0
    1.5000    0.0000    0.0000 C   0  0  0  0  0  0  0  0  0  0  0  0
    0.7500    1.2990    0.0000 C   0  0  0  0  0  0  0  0  0  0  0  0
   -0.7500    1.2990    0.0000 C   0  0  0  0  0  0  0  0  0  0  0  0
   -1.5000    0.0000    0.0000 C   0  0  0  0  0  0  0  0  0  0  0  0
   -0.7500   -1.2990    0.0000 C   0  0  0  0  0  0  0  0  0  0  0  0
   -1.2135   -2.7256    0.0000 N   0  0  0  0  0  0  0  0  0  0  0  0
    0.0000   -3.6073    0.0000 C   0  0  0  0  0  0  0  0  0  0  0  0
    0.1568   -5.0991    0.0000 C   0  0  0  0  0  0  0  0  0  0  0  0
    1.5271   -5.7092    0.0000 C   0  0  0  0  0  0  0  0  0  0  0  0
    1.3703   -7.2010    0.0000 C   0  0  0  0  0  0  0  0  0  0  0  0
    2.3740   -8.3157    0.0000 C   0  0  0  0  0  0  0  0  0  0  0  0
    1.9105   -9.7423    0.0000 C   0  0  0  0  0  0  0  0  0  0  0  0
    0.4433  -10.0541    0.0000 C   0  0  0  0  0  0  0  0  0  0  0  0
   -0.5604   -8.9394    0.0000 C   0  0  0  0  0  0  0  0  0  0  0  0
   -0.0969   -7.5128    0.0000 C   0  0  0  0  0  0  0  0  0  0  0  0
   -0.8469   -6.2138    0.0000 N   0  0  0  0  0  0  0  0  0  0  0  0
   -2.3362   -6.0347    0.0000 C   0  0  0  0  0  0  0  0  0  0  0  0
   -3.1247   -4.7587    0.0000 S   0  0  0  0  0  0  0  0  0  0  0  0
   -4.1933   -5.8114    0.0000 O   0  0  0  0  0  0  0  0  0  0  0  0
   -4.3888   -3.9512    0.0000 O   0  0  0  0  0  0  0  0  0  0  0  0
   -2.6187   -3.3466    0.0000 C   0  0  0  0  0  0  0  0  0  0  0  0
  1  2  2  0
  2  3  1  0
  3  4  1  0
  4  5  1  0
  5  6  2  0
  6  7  1  0
  7  8  1  0
  8  9  2  0
  9 10  1  0
 10 11  2  0
 11 12  1  0
 12 13  2  0
 13 14  1  0
 14 15  1  0
 15 16  1  0
 16 17  2  0
 17 18  1  0
 18 19  2  0
 19 20  1  0
 20 21  2  0
 21 22  1  0
 22 23  2  0
 23 24  1  0
 24 25  1  0
 25 26  1  0
 26 27  2  0
 26 28  2  0
 26 29  1  0
  6  2  1  0
 15  7  2  0
 24 16  1  0
 17  5  1  0
 23 18  1  0
 13  8  1  0
 29 14  1  0
M  END
>  <Compound_ID>  (5) 
CHEMBL281448

>  <Active>  (5) 
1.0

>  <Smiles>  (5) 
O=C1NCc2c1c1c3ccccc3n3c1c1c2c2ccccc2n1CS(=O)(=O)C3

>  <canonical_smi>  (5) 
O=C1NCc2c1c1c3ccccc3n3c1c1c2c2ccccc2n1CS(=O)(=O)C3

>  <Set>  (5) 
G1 active

>  <Set_type>  (5) 
G1

>  <MW>  (5) 
401.45

>  <HBD>  (5) 
1

>  <HBA>  (5) 
3

>  <NRB>  (5) 
0

>  <NR>  (5) 
7

>  <NAR>  (5) 
5

>  <PSA>  (5) 
73.1

>  <Standard Type>  (5) 
nan

>  <Standard Relation>  (5) 
nan

>  <Standard Units>  (5) 
nan

>  <Standard Value>  (5) 
nan

>  <Assay ChEMBL ID>  (5) 
nan

>  <Assay Description>  (5) 
nan

>  <BAO Label>  (5) 
nan

$$$$

     RDKit          2D

 37 42  0  0  0  0  0  0  0  0999 V2000
   -6.1170   -7.0506    0.0000 C   0  0  0  0  0  0  0  0  0  0  0  0
   -4.6904   -6.5871    0.0000 N   0  0  0  0  0  0  0  0  0  0  0  0
   -3.5757   -7.5908    0.0000 C   0  0  0  0  0  0  0  0  0  0  0  0
   -4.3786   -5.1199    0.0000 C   0  0  0  0  0  0  0  0  0  0  0  0
   -2.9520   -4.6564    0.0000 C   0  0  0  0  0  0  0  0  0  0  0  0
   -2.6401   -3.1891    0.0000 C   0  0  0  0  0  0  0  0  0  0  0  0
   -1.2135   -2.7256    0.0000 N   0  0  0  0  0  0  0  0  0  0  0  0
   -0.0000   -3.6073    0.0000 N   0  0  0  0  0  0  0  0  0  0  0  0
    1.2135   -2.7256    0.0000 C   0  0  0  0  0  0  0  0  0  0  0  0
    2.6401   -3.1891    0.0000 C   0  0  0  0  0  0  0  0  0  0  0  0
    3.8536   -2.3075    0.0000 C   0  0  0  0  0  0  0  0  0  0  0  0
    3.8536   -0.8075    0.0000 C   0  0  0  0  0  0  0  0  0  0  0  0
    2.6401    0.0742    0.0000 C   0  0  0  0  0  0  0  0  0  0  0  0
    3.1036    1.5008    0.0000 N   0  0  0  0  0  0  0  0  0  0  0  0
    2.2220    2.7143    0.0000 C   0  0  0  0  0  0  0  0  0  0  0  0
    2.8321    4.0846    0.0000 C   0  0  0  0  0  0  0  0  0  0  0  0
    1.9504    5.2982    0.0000 C   0  0  0  0  0  0  0  0  0  0  0  0
    0.4586    5.1414    0.0000 C   0  0  0  0  0  0  0  0  0  0  0  0
   -0.1515    3.7711    0.0000 N   0  0  0  0  0  0  0  0  0  0  0  0
    0.7302    2.5575    0.0000 C   0  0  0  0  0  0  0  0  0  0  0  0
    4.6036    1.5008    0.0000 C   0  0  0  0  0  0  0  0  0  0  0  0
    5.6073    2.6155    0.0000 C   0  0  0  0  0  0  0  0  0  0  0  0
    7.0746    2.3036    0.0000 C   0  0  0  0  0  0  0  0  0  0  0  0
    7.5381    0.8771    0.0000 C   0  0  0  0  0  0  0  0  0  0  0  0
    6.5344   -0.2377    0.0000 C   0  0  0  0  0  0  0  0  0  0  0  0
    5.0672    0.0742    0.0000 C   0  0  0  0  0  0  0  0  0  0  0  0
    5.0672   -3.1891    0.0000 C   0  0  0  0  0  0  0  0  0  0  0  0
    6.4937   -2.7256    0.0000 O   0  0  0  0  0  0  0  0  0  0  0  0
    4.6036   -4.6157    0.0000 N   0  0  0  0  0  0  0  0  0  0  0  0
    3.1036   -4.6157    0.0000 C   0  0  0  0  0  0  0  0  0  0  0  0
    2.2220   -5.8293    0.0000 O   0  0  0  0  0  0  0  0  0  0  0  0
    0.7500   -1.2990    0.0000 C   0  0  0  0  0  0  0  0  0  0  0  0
    1.5000    0.0000    0.0000 C   0  0  0  0  0  0  0  0  0  0  0  0
    0.7500    1.2990    0.0000 C   0  0  0  0  0  0  0  0  0  0  0  0
   -0.7500    1.2990    0.0000 C   0  0  0  0  0  0  0  0  0  0  0  0
   -1.5000    0.0000    0.0000 C   0  0  0  0  0  0  0  0  0  0  0  0
   -0.7500   -1.2990    0.0000 C   0  0  0  0  0  0  0  0  0  0  0  0
  1  2  1  0
  2  3  1  0
  2  4  1  0
  4  5  1  0
  5  6  1  0
  6  7  1  0
  7  8  1  0
  8  9  2  0
  9 10  1  0
 10 11  2  0
 11 12  1  0
 12 13  2  0
 13 14  1  0
 14 15  1  0
 15 16  2  0
 16 17  1  0
 17 18  2  0
 18 19  1  0
 19 20  2  0
 14 21  1  0
 21 22  2  0
 22 23  1  0
 23 24  2  0
 24 25  1  0
 25 26  2  0
 11 27  1  0
 27 28  2  0
 27 29  1  0
 29 30  1  0
 30 31  2  0
  9 32  1  0
 32 33  2  0
 33 34  1  0
 34 35  2  0
 35 36  1  0
 36 37  2  0
 37  7  1  0
 30 10  1  0
 37 32  1  0
 26 12  1  0
 20 15  1  0
 26 21  1  0
M  END
>  <Compound_ID>  (6) 
CHEMBL368416

>  <Active>  (6) 
1.0

>  <Smiles>  (6) 
CN(C)CCCn1nc(C2=C(c3cn(-c4cccnc4)c4ccccc34)C(=O)NC2=O)c2ccccc21

>  <canonical_smi>  (6) 
CN(C)CCCn1nc(C2=C(c3cn(-c4cccnc4)c4ccccc34)C(=O)NC2=O)c2ccccc21

>  <Set>  (6) 
G1 active

>  <Set_type>  (6) 
G1

>  <MW>  (6) 
490.57

>  <HBD>  (6) 
1

>  <HBA>  (6) 
5

>  <NRB>  (6) 
7

>  <NR>  (6) 
6

>  <NAR>  (6) 
5

>  <PSA>  (6) 
85.05

>  <Standard Type>  (6) 
nan

>  <Standard Relation>  (6) 
nan

>  <Standard Units>  (6) 
nan

>  <Standard Value>  (6) 
nan

>  <Assay ChEMBL ID>  (6) 
nan

>  <Assay Description>  (6) 
nan

>  <BAO Label>  (6) 
nan

$$$$

     RDKit          2D

 25 29  0  0  0  0  0  0  0  0999 V2000
   -6.4937   -2.7256    0.0000 O   0  0  0  0  0  0  0  0  0  0  0  0
   -5.0672   -3.1891    0.0000 C   0  0  0  0  0  0  0  0  0  0  0  0
   -4.6036   -4.6157    0.0000 N   0  0  0  0  0  0  0  0  0  0  0  0
   -3.1036   -4.6157    0.0000 C   0  0  0  0  0  0  0  0  0  0  0  0
   -2.2220   -5.8293    0.0000 O   0  0  0  0  0  0  0  0  0  0  0  0
   -2.6401   -3.1891    0.0000 C   0  0  0  0  0  0  0  0  0  0  0  0
   -1.2135   -2.7256    0.0000 N   0  0  0  0  0  0  0  0  0  0  0  0
   -0.0000   -3.6073    0.0000 C   0  0  0  0  0  0  0  0  0  0  0  0
    1.2135   -2.7256    0.0000 C   0  0  0  0  0  0  0  0  0  0  0  0
    0.7500   -1.2990    0.0000 C   0  0  0  0  0  0  0  0  0  0  0  0
    1.5000    0.0000    0.0000 C   0  0  0  0  0  0  0  0  0  0  0  0
    0.7500    1.2990    0.0000 C   0  0  0  0  0  0  0  0  0  0  0  0
   -0.7500    1.2990    0.0000 C   0  0  0  0  0  0  0  0  0  0  0  0
   -1.5000    0.0000    0.0000 C   0  0  0  0  0  0  0  0  0  0  0  0
   -0.7500   -1.2990    0.0000 C   0  0  0  0  0  0  0  0  0  0  0  0
   -3.8536   -2.3075    0.0000 C   0  0  0  0  0  0  0  0  0  0  0  0
   -3.8536   -0.8075    0.0000 N   0  0  0  0  0  0  0  0  0  0  0  0
   -2.6401    0.0742    0.0000 C   0  0  0  0  0  0  0  0  0  0  0  0
   -3.1036    1.5008    0.0000 C   0  0  0  0  0  0  0  0  0  0  0  0
   -4.6036    1.5008    0.0000 C   0  0  0  0  0  0  0  0  0  0  0  0
   -5.6073    2.6155    0.0000 C   0  0  0  0  0  0  0  0  0  0  0  0
   -7.0746    2.3036    0.0000 C   0  0  0  0  0  0  0  0  0  0  0  0
   -7.5381    0.8771    0.0000 C   0  0  0  0  0  0  0  0  0  0  0  0
   -6.5344   -0.2377    0.0000 C   0  0  0  0  0  0  0  0  0  0  0  0
   -5.0672    0.0742    0.0000 C   0  0  0  0  0  0  0  0  0  0  0  0
  1  2  2  0
  2  3  1  0
  3  4  1  0
  4  5  2  0
  4  6  1  0
  6  7  1  0
  7  8  1  0
  8  9  2  0
  9 10  1  0
 10 11  2  0
 11 12  1  0
 12 13  2  0
 13 14  1  0
 14 15  2  0
  6 16  2  0
 16 17  1  0
 17 18  1  0
 18 19  2  0
 19 20  1  0
 20 21  2  0
 21 22  1  0
 22 23  2  0
 23 24  1  0
 24 25  2  0
 16  2  1  0
 25 17  1  0
 15  7  1  0
 25 20  1  0
 15 10  1  0
M  END
>  <Compound_ID>  (7) 
CHEMBL329274

>  <Active>  (7) 
1.0

>  <Smiles>  (7) 
O=C1NC(=O)C(n2ccc3ccccc32)=C1n1ccc2ccccc21

>  <canonical_smi>  (7) 
O=C1NC(=O)C(n2ccc3ccccc32)=C1n1ccc2ccccc21

>  <Set>  (7) 
G1 active

>  <Set_type>  (7) 
G1

>  <MW>  (7) 
327.34

>  <HBD>  (7) 
1

>  <HBA>  (7) 
2

>  <NRB>  (7) 
2

>  <NR>  (7) 
5

>  <NAR>  (7) 
4

>  <PSA>  (7) 
56.03

>  <Standard Type>  (7) 
nan

>  <Standard Relation>  (7) 
nan

>  <Standard Units>  (7) 
nan

>  <Standard Value>  (7) 
nan

>  <Assay ChEMBL ID>  (7) 
nan

>  <Assay Description>  (7) 
nan

>  <BAO Label>  (7) 
nan

$$$$

     RDKit          2D

 28 34  0  0  0  0  0  0  0  0999 V2000
    4.2660   -1.2584    0.0000 O   0  0  0  0  0  0  0  0  0  0  0  0
    3.9542   -2.7256    0.0000 C   0  0  0  0  0  0  0  0  0  0  0  0
    4.9579   -3.8403    0.0000 N   0  0  0  0  0  0  0  0  0  0  0  0
    4.2079   -5.1394    0.0000 C   0  0  0  0  0  0  0  0  0  0  0  0
    4.8180   -6.5097    0.0000 O   0  0  0  0  0  0  0  0  0  0  0  0
    2.7406   -4.8275    0.0000 C   0  0  0  0  0  0  0  0  0  0  0  0
    2.5838   -3.3357    0.0000 C   0  0  0  0  0  0  0  0  0  0  0  0
    1.2135   -2.7256    0.0000 C   0  0  0  0  0  0  0  0  0  0  0  0
    0.7500   -1.2990    0.0000 C   0  0  0  0  0  0  0  0  0  0  0  0
    1.5000    0.0000    0.0000 C   0  0  0  0  0  0  0  0  0  0  0  0
    0.7500    1.2990    0.0000 C   0  0  0  0  0  0  0  0  0  0  0  0
   -0.7500    1.2990    0.0000 C   0  0  0  0  0  0  0  0  0  0  0  0
   -1.5000    0.0000    0.0000 C   0  0  0  0  0  0  0  0  0  0  0  0
   -0.7500   -1.2990    0.0000 C   0  0  0  0  0  0  0  0  0  0  0  0
   -1.2135   -2.7256    0.0000 N   0  0  0  0  0  0  0  0  0  0  0  0
    0.0000   -3.6073    0.0000 C   0  0  0  0  0  0  0  0  0  0  0  0
    0.1568   -5.0991    0.0000 C   0  0  0  0  0  0  0  0  0  0  0  0
    1.5271   -5.7092    0.0000 C   0  0  0  0  0  0  0  0  0  0  0  0
    1.3703   -7.2010    0.0000 C   0  0  0  0  0  0  0  0  0  0  0  0
    2.3740   -8.3157    0.0000 C   0  0  0  0  0  0  0  0  0  0  0  0
    1.9105   -9.7423    0.0000 C   0  0  0  0  0  0  0  0  0  0  0  0
    0.4433  -10.0541    0.0000 C   0  0  0  0  0  0  0  0  0  0  0  0
   -0.5604   -8.9394    0.0000 C   0  0  0  0  0  0  0  0  0  0  0  0
   -0.0969   -7.5128    0.0000 C   0  0  0  0  0  0  0  0  0  0  0  0
   -0.8469   -6.2138    0.0000 N   0  0  0  0  0  0  0  0  0  0  0  0
   -2.3362   -6.0347    0.0000 C   0  0  0  0  0  0  0  0  0  0  0  0
   -3.1247   -4.7587    0.0000 S   0  0  0  0  0  0  0  0  0  0  0  0
   -2.6187   -3.3466    0.0000 C   0  0  0  0  0  0  0  0  0  0  0  0
  1  2  2  0
  2  3  1  0
  3  4  1  0
  4  5  2  0
  4  6  1  0
  6  7  2  0
  7  8  1  0
  8  9  1  0
  9 10  2  0
 10 11  1  0
 11 12  2  0
 12 13  1  0
 13 14  2  0
 14 15  1  0
 15 16  1  0
 16 17  1  0
 17 18  2  0
 18 19  1  0
 19 20  2  0
 20 21  1  0
 21 22  2  0
 22 23  1  0
 23 24  2  0
 24 25  1  0
 25 26  1  0
 26 27  1  0
 27 28  1  0
  7  2  1  0
 16  8  2  0
 25 17  1  0
 18  6  1  0
 24 19  1  0
 14  9  1  0
 28 15  1  0
M  END
>  <Compound_ID>  (8) 
CHEMBL283903

>  <Active>  (8) 
1.0

>  <Smiles>  (8) 
O=C1NC(=O)c2c1c1c3ccccc3n3c1c1c2c2ccccc2n1CSC3

>  <canonical_smi>  (8) 
O=C1NC(=O)c2c1c1c3ccccc3n3c1c1c2c2ccccc2n1CSC3

>  <Set>  (8) 
G1 active

>  <Set_type>  (8) 
G1

>  <MW>  (8) 
383.43

>  <HBD>  (8) 
1

>  <HBA>  (8) 
3

>  <NRB>  (8) 
0

>  <NR>  (8) 
7

>  <NAR>  (8) 
5

>  <PSA>  (8) 
56.03

>  <Standard Type>  (8) 
nan

>  <Standard Relation>  (8) 
nan

>  <Standard Units>  (8) 
nan

>  <Standard Value>  (8) 
nan

>  <Assay ChEMBL ID>  (8) 
nan

>  <Assay Description>  (8) 
nan

>  <BAO Label>  (8) 
nan

$$$$

     RDKit          2D

 26 29  0  0  0  0  0  0  0  0999 V2000
    3.7500   -1.2990    0.0000 C   0  0  0  0  0  0  0  0  0  0  0  0
    3.0000    0.0000    0.0000 O   0  0  0  0  0  0  0  0  0  0  0  0
    1.5000    0.0000    0.0000 C   0  0  0  0  0  0  0  0  0  0  0  0
    0.7500   -1.2990    0.0000 N   0  0  0  0  0  0  0  0  0  0  0  0
   -0.7500   -1.2990    0.0000 C   0  0  0  0  0  0  0  0  0  0  0  0
   -1.5000    0.0000    0.0000 C   0  0  0  0  0  0  0  0  0  0  0  0
   -0.7500    1.2990    0.0000 C   0  0  0  0  0  0  0  0  0  0  0  0
   -1.5000    2.5981    0.0000 C   0  0  0  0  0  0  0  0  0  0  0  0
   -2.9918    2.7549    0.0000 C   0  0  0  0  0  0  0  0  0  0  0  0
   -3.9955    1.6402    0.0000 C   0  0  0  0  0  0  0  0  0  0  0  0
   -5.4627    1.9520    0.0000 C   0  0  0  0  0  0  0  0  0  0  0  0
   -6.4664    0.8373    0.0000 C   0  0  0  0  0  0  0  0  0  0  0  0
   -6.0029   -0.5893    0.0000 C   0  0  0  0  0  0  0  0  0  0  0  0
   -7.0066   -1.7040    0.0000 F   0  0  0  0  0  0  0  0  0  0  0  0
   -4.5356   -0.9012    0.0000 C   0  0  0  0  0  0  0  0  0  0  0  0
   -3.5320    0.2136    0.0000 C   0  0  0  0  0  0  0  0  0  0  0  0
   -3.3037    4.2221    0.0000 N   0  0  0  0  0  0  0  0  0  0  0  0
   -2.0046    4.9721    0.0000 C   0  0  0  0  0  0  0  0  0  0  0  0
   -0.8899    3.9684    0.0000 N   0  0  0  0  0  0  0  0  0  0  0  0
    0.5773    4.2803    0.0000 C   0  0  0  0  0  0  0  0  0  0  0  0
    1.5810    3.1655    0.0000 C   0  0  0  0  0  0  0  0  0  0  0  0
    3.0482    3.4774    0.0000 C   0  0  0  0  0  0  0  0  0  0  0  0
    3.5118    4.9040    0.0000 N   0  0  0  0  0  0  0  0  0  0  0  0
    2.5081    6.0187    0.0000 C   0  0  0  0  0  0  0  0  0  0  0  0
    1.0409    5.7068    0.0000 C   0  0  0  0  0  0  0  0  0  0  0  0
    0.7500    1.2990    0.0000 N   0  0  0  0  0  0  0  0  0  0  0  0
  1  2  1  0
  2  3  1  0
  3  4  2  0
  4  5  1  0
  5  6  2  0
  6  7  1  0
  7  8  1  0
  8  9  2  0
  9 10  1  0
 10 11  2  0
 11 12  1  0
 12 13  2  0
 13 14  1  0
 13 15  1  0
 15 16  2  0
  9 17  1  0
 17 18  2  0
 18 19  1  0
 19 20  1  0
 20 21  1  0
 21 22  1  0
 22 23  1  0
 23 24  1  0
 24 25  1  0
  7 26  2  0
 26  3  1  0
 19  8  1  0
 25 20  1  0
 16 10  1  0
M  END
>  <Compound_ID>  (9) 
CHEMBL95692

>  <Active>  (9) 
1.0

>  <Smiles>  (9) 
COc1nccc(-c2c(-c3ccc(F)cc3)ncn2C2CCNCC2)n1

>  <canonical_smi>  (9) 
COc1nccc(-c2c(-c3ccc(F)cc3)ncn2C2CCNCC2)n1

>  <Set>  (9) 
G1 active

>  <Set_type>  (9) 
G1

>  <MW>  (9) 
353.4

>  <HBD>  (9) 
1

>  <HBA>  (9) 
5

>  <NRB>  (9) 
4

>  <NR>  (9) 
4

>  <NAR>  (9) 
3

>  <PSA>  (9) 
64.86

>  <Standard Type>  (9) 
nan

>  <Standard Relation>  (9) 
nan

>  <Standard Units>  (9) 
nan

>  <Standard Value>  (9) 
nan

>  <Assay ChEMBL ID>  (9) 
nan

>  <Assay Description>  (9) 
nan

>  <BAO Label>  (9) 
nan

$$$$

     RDKit          2D

 29 30  0  0  0  0  0  0  0  0999 V2000
   13.5000   -5.1962    0.0000 C   0  0  0  0  0  0  0  0  0  0  0  0
   12.7500   -3.8971    0.0000 C   0  0  0  0  0  0  0  0  0  0  0  0
   11.2500   -3.8971    0.0000 C   0  0  0  0  0  0  0  0  0  0  0  0
   10.5000   -2.5981    0.0000 C   0  0  0  0  0  0  0  0  0  0  0  0
    9.0000   -2.5981    0.0000 C   0  0  0  0  0  0  0  0  0  0  0  0
    8.2500   -1.2990    0.0000 C   0  0  0  0  0  0  0  0  0  0  0  0
    6.7500   -1.2990    0.0000 C   0  0  0  0  0  0  0  0  0  0  0  0
    6.0000    0.0000    0.0000 C   0  0  0  0  0  0  0  0  0  0  0  0
    4.5000    0.0000    0.0000 C   0  0  0  0  0  0  0  0  0  0  0  0
    3.0000    0.0000    0.0000 C   0  0  0  0  0  0  0  0  0  0  0  0
    1.5000    0.0000    0.0000 C   0  0  0  0  0  0  0  0  0  0  0  0
    0.7500   -1.2990    0.0000 C   0  0  0  0  0  0  0  0  0  0  0  0
   -0.7500   -1.2990    0.0000 C   0  0  0  0  0  0  0  0  0  0  0  0
   -1.5000    0.0000    0.0000 C   0  0  0  0  0  0  0  0  0  0  0  0
   -0.7500    1.2990    0.0000 C   0  0  0  0  0  0  0  0  0  0  0  0
    0.7500    1.2990    0.0000 C   0  0  0  0  0  0  0  0  0  0  0  0
   -1.1382    2.7479    0.0000 C   0  0  0  0  0  0  0  0  0  0  0  0
   -2.4373    3.4979    0.0000 C   0  0  0  0  0  0  0  0  0  0  0  0
   -2.2415    4.9851    0.0000 C   0  0  0  0  0  0  0  0  0  0  0  0
   -0.8557    5.5591    0.0000 O   0  0  0  0  0  0  0  0  0  0  0  0
   -3.8862    3.1097    0.0000 N   0  0  0  0  0  0  0  0  0  0  0  0
   -4.6362    1.8107    0.0000 C   0  0  0  0  0  0  0  0  0  0  0  0
   -6.1233    2.0064    0.0000 O   0  0  0  0  0  0  0  0  0  0  0  0
   -4.2479    0.3618    0.0000 C   0  0  0  0  0  0  0  0  0  0  0  0
   -5.4380   -0.5514    0.0000 C   0  0  0  0  0  0  0  0  0  0  0  0
   -6.8238    0.0227    0.0000 C   0  0  0  0  0  0  0  0  0  0  0  0
   -5.2422   -2.0385    0.0000 C   0  0  0  0  0  0  0  0  0  0  0  0
   -2.9489   -0.3882    0.0000 N   0  0  0  0  0  0  0  0  0  0  0  0
   -3.1447   -1.8754    0.0000 C   0  0  0  0  0  0  0  0  0  0  0  0
  1  2  1  0
  2  3  1  0
  3  4  1  0
  4  5  1  0
  5  6  1  0
  6  7  1  0
  7  8  1  0
  8  9  1  0
  9 10  3  0
 10 11  1  0
 11 12  2  0
 12 13  1  0
 13 14  2  0
 14 15  1  0
 15 16  2  0
 15 17  1  0
 17 18  1  0
 18 19  1  6
 19 20  1  0
 18 21  1  0
 21 22  1  0
 22 23  2  0
 22 24  1  0
 24 25  1  1
 25 26  1  0
 25 27  1  0
 24 28  1  0
 28 29  1  0
 16 11  1  0
 28 14  1  0
M  END
>  <Compound_ID>  (10) 
CHEMBL6453

>  <Active>  (10) 
1.0

>  <Smiles>  (10) 
CCCCCCCCC#Cc1ccc2c(c1)C[C@@H](CO)NC(=O)[C@H](C(C)C)N2C

>  <canonical_smi>  (10) 
CCCCCCCCC#Cc1ccc2c(c1)C[C@@H](CO)NC(=O)[C@H](C(C)C)N2C

>  <Set>  (10) 
G1 active

>  <Set_type>  (10) 
G1

>  <MW>  (10) 
398.59

>  <HBD>  (10) 
2

>  <HBA>  (10) 
3

>  <NRB>  (10) 
8

>  <NR>  (10) 
2

>  <NAR>  (10) 
1

>  <PSA>  (10) 
52.57

>  <Standard Type>  (10) 
nan

>  <Standard Relation>  (10) 
nan

>  <Standard Units>  (10) 
nan

>  <Standard Value>  (10) 
nan

>  <Assay ChEMBL ID>  (10) 
nan

>  <Assay Description>  (10) 
nan

>  <BAO Label>  (10) 
nan

$$$$

     RDKit          2D

 31 34  0  0  0  0  0  0  0  0999 V2000
   -3.7548   -2.1855    0.0000 C   0  0  0  0  0  0  0  0  0  0  0  0
   -2.6401   -3.1891    0.0000 C   0  0  0  0  0  0  0  0  0  0  0  0
   -1.2135   -2.7256    0.0000 N   0  0  0  0  0  0  0  0  0  0  0  0
   -0.0000   -3.6073    0.0000 C   0  0  0  0  0  0  0  0  0  0  0  0
   -0.0000   -5.1073    0.0000 C   0  0  0  0  0  0  0  0  0  0  0  0
    1.2135   -5.9890    0.0000 N   0  0  0  0  0  0  0  0  0  0  0  0
    0.7500   -7.4156    0.0000 O   0  0  0  0  0  0  0  0  0  0  0  0
   -0.7500   -7.4156    0.0000 N   0  0  0  0  0  0  0  0  0  0  0  0
   -1.2135   -5.9890    0.0000 C   0  0  0  0  0  0  0  0  0  0  0  0
   -2.6401   -5.5255    0.0000 N   0  0  0  0  0  0  0  0  0  0  0  0
    1.2135   -2.7256    0.0000 N   0  0  0  0  0  0  0  0  0  0  0  0
    0.7500   -1.2990    0.0000 C   0  0  0  0  0  0  0  0  0  0  0  0
    1.5000    0.0000    0.0000 C   0  0  0  0  0  0  0  0  0  0  0  0
    3.0000    0.0000    0.0000 C   0  0  0  0  0  0  0  0  0  0  0  0
    4.5000    0.0000    0.0000 C   0  0  0  0  0  0  0  0  0  0  0  0
    6.0000    0.0000    0.0000 C   0  0  0  0  0  0  0  0  0  0  0  0
    6.0000   -1.5000    0.0000 C   0  0  0  0  0  0  0  0  0  0  0  0
    6.0000    1.5000    0.0000 C   0  0  0  0  0  0  0  0  0  0  0  0
    7.5000    0.0000    0.0000 O   0  0  0  0  0  0  0  0  0  0  0  0
    0.7500    1.2990    0.0000 N   0  0  0  0  0  0  0  0  0  0  0  0
   -0.7500    1.2990    0.0000 C   0  0  0  0  0  0  0  0  0  0  0  0
   -1.5000    0.0000    0.0000 C   0  0  0  0  0  0  0  0  0  0  0  0
   -3.0000    0.0000    0.0000 O   0  0  0  0  0  0  0  0  0  0  0  0
   -3.7500    1.2990    0.0000 C   0  0  0  0  0  0  0  0  0  0  0  0
   -5.2500    1.2990    0.0000 C   0  0  0  0  0  0  0  0  0  0  0  0
   -6.0000    2.5981    0.0000 C   0  0  0  0  0  0  0  0  0  0  0  0
   -7.5000    2.5981    0.0000 C   0  0  0  0  0  0  0  0  0  0  0  0
   -8.2500    1.2990    0.0000 C   0  0  0  0  0  0  0  0  0  0  0  0
   -7.5000    0.0000    0.0000 N   0  0  0  0  0  0  0  0  0  0  0  0
   -6.0000    0.0000    0.0000 C   0  0  0  0  0  0  0  0  0  0  0  0
   -0.7500   -1.2990    0.0000 C   0  0  0  0  0  0  0  0  0  0  0  0
  1  2  1  0
  2  3  1  0
  3  4  1  0
  4  5  1  0
  5  6  2  0
  6  7  1  0
  7  8  1  0
  8  9  2  0
  9 10  1  0
  4 11  2  0
 11 12  1  0
 12 13  2  0
 13 14  1  0
 14 15  3  0
 15 16  1  0
 16 17  1  0
 16 18  1  0
 16 19  1  0
 13 20  1  0
 20 21  2  0
 21 22  1  0
 22 23  1  0
 23 24  1  0
 25 24  1  6
 25 26  1  0
 26 27  1  0
 27 28  1  0
 28 29  1  0
 29 30  1  0
 22 31  2  0
 31  3  1  0
  9  5  1  0
 31 12  1  0
 30 25  1  0
M  END
>  <Compound_ID>  (11) 
CHEMBL494089

>  <Active>  (11) 
1.0

>  <Smiles>  (11) 
CCn1c(-c2nonc2N)nc2c(C#CC(C)(C)O)ncc(OC[C@H]3CCCNC3)c21

>  <canonical_smi>  (11) 
CCn1c(-c2nonc2N)nc2c(C#CC(C)(C)O)ncc(OC[C@H]3CCCNC3)c21

>  <Set>  (11) 
G1 active

>  <Set_type>  (11) 
G1

>  <MW>  (11) 
425.49

>  <HBD>  (11) 
3

>  <HBA>  (11) 
9

>  <NRB>  (11) 
5

>  <NR>  (11) 
4

>  <NAR>  (11) 
3

>  <PSA>  (11) 
137.14

>  <Standard Type>  (11) 
nan

>  <Standard Relation>  (11) 
nan

>  <Standard Units>  (11) 
nan

>  <Standard Value>  (11) 
nan

>  <Assay ChEMBL ID>  (11) 
nan

>  <Assay Description>  (11) 
nan

>  <BAO Label>  (11) 
nan

$$$$

     RDKit          2D

 33 40  0  0  0  0  0  0  0  0999 V2000
    4.2660   -1.2584    0.0000 O   0  0  0  0  0  0  0  0  0  0  0  0
    3.9542   -2.7256    0.0000 C   0  0  0  0  0  0  0  0  0  0  0  0
    4.9579   -3.8403    0.0000 N   0  0  0  0  0  0  0  0  0  0  0  0
    4.2079   -5.1394    0.0000 C   0  0  0  0  0  0  0  0  0  0  0  0
    4.8180   -6.5097    0.0000 O   0  0  0  0  0  0  0  0  0  0  0  0
    2.7406   -4.8275    0.0000 C   0  0  0  0  0  0  0  0  0  0  0  0
    2.5838   -3.3357    0.0000 C   0  0  0  0  0  0  0  0  0  0  0  0
    1.2135   -2.7256    0.0000 C   0  0  0  0  0  0  0  0  0  0  0  0
    0.7500   -1.2990    0.0000 C   0  0  0  0  0  0  0  0  0  0  0  0
    1.5000    0.0000    0.0000 C   0  0  0  0  0  0  0  0  0  0  0  0
    0.7500    1.2990    0.0000 C   0  0  0  0  0  0  0  0  0  0  0  0
   -0.7500    1.2990    0.0000 C   0  0  0  0  0  0  0  0  0  0  0  0
   -1.5000    0.0000    0.0000 C   0  0  0  0  0  0  0  0  0  0  0  0
   -0.7500   -1.2990    0.0000 C   0  0  0  0  0  0  0  0  0  0  0  0
   -1.2135   -2.7256    0.0000 N   0  0  0  0  0  0  0  0  0  0  0  0
    0.0000   -3.6073    0.0000 C   0  0  0  0  0  0  0  0  0  0  0  0
    0.1568   -5.0991    0.0000 C   0  0  0  0  0  0  0  0  0  0  0  0
    1.5271   -5.7092    0.0000 C   0  0  0  0  0  0  0  0  0  0  0  0
    1.3703   -7.2010    0.0000 C   0  0  0  0  0  0  0  0  0  0  0  0
    2.3740   -8.3157    0.0000 C   0  0  0  0  0  0  0  0  0  0  0  0
    1.9105   -9.7423    0.0000 C   0  0  0  0  0  0  0  0  0  0  0  0
    0.4433  -10.0541    0.0000 C   0  0  0  0  0  0  0  0  0  0  0  0
   -0.5604   -8.9394    0.0000 C   0  0  0  0  0  0  0  0  0  0  0  0
   -0.0969   -7.5128    0.0000 C   0  0  0  0  0  0  0  0  0  0  0  0
   -0.8469   -6.2138    0.0000 N   0  0  0  0  0  0  0  0  0  0  0  0
   -2.3505   -5.8985    0.0000 C   0  0  0  0  0  0  0  0  0  0  0  0
   -3.8532   -5.9511    0.0000 C   0  0  0  0  0  0  0  0  0  0  0  0
   -4.7349   -4.7375    0.0000 O   0  0  0  0  0  0  0  0  0  0  0  0
   -4.1248   -3.3672    0.0000 C   0  0  0  0  0  0  0  0  0  0  0  0
   -2.6330   -3.2104    0.0000 C   0  0  0  0  0  0  0  0  0  0  0  0
   -3.1390   -4.6225    0.0000 S   0  0  0  0  0  0  0  0  0  0  0  0
   -3.8947   -4.3687    0.0000 O   0  0  0  0  0  0  0  0  0  0  0  0
   -4.4305   -5.3854    0.0000 O   0  0  0  0  0  0  0  0  0  0  0  0
  1  2  2  0
  2  3  1  0
  3  4  1  0
  4  5  2  0
  4  6  1  0
  6  7  2  0
  7  8  1  0
  8  9  1  0
  9 10  2  0
 10 11  1  0
 11 12  2  0
 12 13  1  0
 13 14  2  0
 14 15  1  0
 15 16  1  0
 16 17  1  0
 17 18  2  0
 18 19  1  0
 19 20  2  0
 20 21  1  0
 21 22  2  0
 22 23  1  0
 23 24  2  0
 24 25  1  0
 25 26  1  0
 26 27  1  0
 27 28  1  0
 28 29  1  0
 29 30  1  0
 30 31  1  0
 31 32  2  0
 31 33  2  0
  7  2  1  0
 16  8  2  0
 25 17  1  0
 31 26  1  0
 18  6  1  0
 24 19  1  0
 14  9  1  0
 30 15  1  0
M  END
>  <Compound_ID>  (12) 
CHEMBL283399

>  <Active>  (12) 
1.0

>  <Smiles>  (12) 
O=C1NC(=O)c2c1c1c3ccccc3n3c1c1c2c2ccccc2n1C1COCC3S1(=O)=O

>  <canonical_smi>  (12) 
O=C1NC(=O)c2c1c1c3ccccc3n3c1c1c2c2ccccc2n1C1COCC3S1(=O)=O

>  <Set>  (12) 
G1 active

>  <Set_type>  (12) 
G1

>  <MW>  (12) 
457.47

>  <HBD>  (12) 
1

>  <HBA>  (12) 
5

>  <NRB>  (12) 
0

>  <NR>  (12) 
8

>  <NAR>  (12) 
5

>  <PSA>  (12) 
99.4

>  <Standard Type>  (12) 
nan

>  <Standard Relation>  (12) 
nan

>  <Standard Units>  (12) 
nan

>  <Standard Value>  (12) 
nan

>  <Assay ChEMBL ID>  (12) 
nan

>  <Assay Description>  (12) 
nan

>  <BAO Label>  (12) 
nan

$$$$

     RDKit          2D

 28 34  0  0  0  0  0  0  0  0999 V2000
    4.2660   -1.2584    0.0000 N   0  0  0  0  0  0  0  0  0  0  0  0
    3.9542   -2.7256    0.0000 C   0  0  0  0  0  0  0  0  0  0  0  0
    4.9579   -3.8403    0.0000 N   0  0  0  0  0  0  0  0  0  0  0  0
    4.2079   -5.1394    0.0000 C   0  0  0  0  0  0  0  0  0  0  0  0
    4.8180   -6.5097    0.0000 O   0  0  0  0  0  0  0  0  0  0  0  0
    2.7406   -4.8275    0.0000 C   0  0  0  0  0  0  0  0  0  0  0  0
    2.5838   -3.3357    0.0000 C   0  0  0  0  0  0  0  0  0  0  0  0
    1.2135   -2.7256    0.0000 C   0  0  0  0  0  0  0  0  0  0  0  0
    0.7500   -1.2990    0.0000 C   0  0  0  0  0  0  0  0  0  0  0  0
    1.5000    0.0000    0.0000 C   0  0  0  0  0  0  0  0  0  0  0  0
    0.7500    1.2990    0.0000 C   0  0  0  0  0  0  0  0  0  0  0  0
   -0.7500    1.2990    0.0000 C   0  0  0  0  0  0  0  0  0  0  0  0
   -1.5000    0.0000    0.0000 C   0  0  0  0  0  0  0  0  0  0  0  0
   -0.7500   -1.2990    0.0000 C   0  0  0  0  0  0  0  0  0  0  0  0
   -1.2135   -2.7256    0.0000 N   0  0  0  0  0  0  0  0  0  0  0  0
    0.0000   -3.6073    0.0000 C   0  0  0  0  0  0  0  0  0  0  0  0
    0.1568   -5.0991    0.0000 C   0  0  0  0  0  0  0  0  0  0  0  0
    1.5271   -5.7092    0.0000 C   0  0  0  0  0  0  0  0  0  0  0  0
    1.3703   -7.2010    0.0000 C   0  0  0  0  0  0  0  0  0  0  0  0
    2.3740   -8.3157    0.0000 C   0  0  0  0  0  0  0  0  0  0  0  0
    1.9105   -9.7423    0.0000 C   0  0  0  0  0  0  0  0  0  0  0  0
    0.4433  -10.0541    0.0000 C   0  0  0  0  0  0  0  0  0  0  0  0
   -0.5604   -8.9394    0.0000 C   0  0  0  0  0  0  0  0  0  0  0  0
   -0.0969   -7.5128    0.0000 C   0  0  0  0  0  0  0  0  0  0  0  0
   -0.8469   -6.2138    0.0000 N   0  0  0  0  0  0  0  0  0  0  0  0
   -2.3362   -6.0347    0.0000 C   0  0  0  0  0  0  0  0  0  0  0  0
   -3.1247   -4.7587    0.0000 O   0  0  0  0  0  0  0  0  0  0  0  0
   -2.6187   -3.3466    0.0000 C   0  0  0  0  0  0  0  0  0  0  0  0
  1  2  1  0
  2  3  2  0
  3  4  1  0
  4  5  2  0
  4  6  1  0
  6  7  2  0
  7  8  1  0
  8  9  1  0
  9 10  2  0
 10 11  1  0
 11 12  2  0
 12 13  1  0
 13 14  2  0
 14 15  1  0
 15 16  1  0
 16 17  1  0
 17 18  2  0
 18 19  1  0
 19 20  2  0
 20 21  1  0
 21 22  2  0
 22 23  1  0
 23 24  2  0
 24 25  1  0
 25 26  1  0
 26 27  1  0
 27 28  1  0
  7  2  1  0
 16  8  2  0
 25 17  1  0
 18  6  1  0
 24 19  1  0
 14  9  1  0
 28 15  1  0
M  END
>  <Compound_ID>  (13) 
CHEMBL283930

>  <Active>  (13) 
1.0

>  <Smiles>  (13) 
NC1=NC(=O)c2c1c1c3ccccc3n3c1c1c2c2ccccc2n1COC3

>  <canonical_smi>  (13) 
NC1=NC(=O)c2c1c1c3ccccc3n3c1c1c2c2ccccc2n1COC3

>  <Set>  (13) 
G1 active

>  <Set_type>  (13) 
G1

>  <MW>  (13) 
366.38

>  <HBD>  (13) 
1

>  <HBA>  (13) 
3

>  <NRB>  (13) 
0

>  <NR>  (13) 
7

>  <NAR>  (13) 
5

>  <PSA>  (13) 
74.54

>  <Standard Type>  (13) 
nan

>  <Standard Relation>  (13) 
nan

>  <Standard Units>  (13) 
nan

>  <Standard Value>  (13) 
nan

>  <Assay ChEMBL ID>  (13) 
nan

>  <Assay Description>  (13) 
nan

>  <BAO Label>  (13) 
nan

$$$$

     RDKit          2D

 34 39  0  0  0  0  0  0  0  0999 V2000
    5.4853   -2.8853    0.0000 O   0  0  0  0  0  0  0  0  0  0  0  0
    4.6036   -4.0989    0.0000 C   0  0  0  0  0  0  0  0  0  0  0  0
    3.1036   -4.0989    0.0000 C   0  0  0  0  0  0  0  0  0  0  0  0
    2.6401   -5.5255    0.0000 C   0  0  0  0  0  0  0  0  0  0  0  0
    1.2135   -5.9890    0.0000 C   0  0  0  0  0  0  0  0  0  0  0  0
   -0.0000   -5.1073    0.0000 C   0  0  0  0  0  0  0  0  0  0  0  0
   -0.0000   -3.6073    0.0000 C   0  0  0  0  0  0  0  0  0  0  0  0
    1.2135   -2.7256    0.0000 C   0  0  0  0  0  0  0  0  0  0  0  0
    0.7500   -1.2990    0.0000 C   0  0  0  0  0  0  0  0  0  0  0  0
    1.5000    0.0000    0.0000 C   0  0  0  0  0  0  0  0  0  0  0  0
    0.7500    1.2990    0.0000 C   0  0  0  0  0  0  0  0  0  0  0  0
   -0.7500    1.2990    0.0000 C   0  0  0  0  0  0  0  0  0  0  0  0
   -1.5000    0.0000    0.0000 C   0  0  0  0  0  0  0  0  0  0  0  0
   -0.7500   -1.2990    0.0000 C   0  0  0  0  0  0  0  0  0  0  0  0
   -1.2135   -2.7256    0.0000 S   0  0  0  0  0  0  0  0  0  0  0  0
   -1.2135   -5.9890    0.0000 N   0  0  0  0  0  0  0  0  0  0  0  0
   -2.6401   -5.5255    0.0000 C   0  0  0  0  0  0  0  0  0  0  0  0
   -3.7548   -6.5291    0.0000 C   0  0  0  0  0  0  0  0  0  0  0  0
   -5.1814   -6.0656    0.0000 C   0  0  0  0  0  0  0  0  0  0  0  0
   -6.2961   -7.0693    0.0000 N   0  0  0  0  0  0  0  0  0  0  0  0
   -7.7227   -6.6058    0.0000 C   0  0  0  0  0  0  0  0  0  0  0  0
   -8.9362   -7.4875    0.0000 N   0  0  0  0  0  0  0  0  0  0  0  0
  -10.1498   -6.6058    0.0000 C   0  0  0  0  0  0  0  0  0  0  0  0
   -9.6862   -5.1792    0.0000 C   0  0  0  0  0  0  0  0  0  0  0  0
   -8.1862   -5.1792    0.0000 N   0  0  0  0  0  0  0  0  0  0  0  0
   -0.7500   -7.4156    0.0000 C   0  0  0  0  0  0  0  0  0  0  0  0
   -1.5000   -8.7146    0.0000 C   0  0  0  0  0  0  0  0  0  0  0  0
   -0.7500  -10.0136    0.0000 C   0  0  0  0  0  0  0  0  0  0  0  0
    0.7500  -10.0136    0.0000 C   0  0  0  0  0  0  0  0  0  0  0  0
    1.5000   -8.7146    0.0000 C   0  0  0  0  0  0  0  0  0  0  0  0
    0.7500   -7.4156    0.0000 C   0  0  0  0  0  0  0  0  0  0  0  0
    3.8536   -6.4071    0.0000 C   0  0  0  0  0  0  0  0  0  0  0  0
    3.8536   -7.9071    0.0000 O   0  0  0  0  0  0  0  0  0  0  0  0
    5.0672   -5.5255    0.0000 N   0  0  0  0  0  0  0  0  0  0  0  0
  1  2  2  0
  2  3  1  0
  3  4  2  0
  4  5  1  0
  5  6  2  0
  6  7  1  0
  7  8  2  0
  8  9  1  0
  9 10  2  0
 10 11  1  0
 11 12  2  0
 12 13  1  0
 13 14  2  0
 14 15  1  0
  6 16  1  0
 16 17  1  0
 17 18  1  0
 18 19  1  0
 19 20  1  0
 20 21  1  0
 21 22  2  0
 22 23  1  0
 23 24  1  0
 24 25  1  0
 16 26  1  0
 26 27  2  0
 27 28  1  0
 28 29  2  0
 29 30  1  0
 30 31  2  0
  4 32  1  0
 32 33  2  0
 32 34  1  0
 34  2  1  0
 31  5  1  0
 15  7  1  0
 25 21  1  0
 31 26  1  0
 14  9  1  0
M  END
>  <Compound_ID>  (14) 
CHEMBL349382

>  <Active>  (14) 
1.0

>  <Smiles>  (14) 
O=C1C=C(c2c(-c3cc4ccccc4s3)n(CCCNC3=NCCN3)c3ccccc23)C(=O)N1

>  <canonical_smi>  (14) 
O=C1C=C(c2c(-c3cc4ccccc4s3)n(CCCNC3=NCCN3)c3ccccc23)C(=O)N1

>  <Set>  (14) 
G1 active

>  <Set_type>  (14) 
G1

>  <MW>  (14) 
469.57

>  <HBD>  (14) 
3

>  <HBA>  (14) 
4

>  <NRB>  (14) 
6

>  <NR>  (14) 
6

>  <NAR>  (14) 
4

>  <PSA>  (14) 
87.52

>  <Standard Type>  (14) 
nan

>  <Standard Relation>  (14) 
nan

>  <Standard Units>  (14) 
nan

>  <Standard Value>  (14) 
nan

>  <Assay ChEMBL ID>  (14) 
nan

>  <Assay Description>  (14) 
nan

>  <BAO Label>  (14) 
nan

$$$$

     RDKit          2D

 38 44  0  0  0  0  0  0  0  0999 V2000
   -3.2691   -1.1378    0.0000 O   0  0  0  0  0  0  0  0  0  0  0  0
   -3.4705   -2.6243    0.0000 C   0  0  0  0  0  0  0  0  0  0  0  0
   -4.7914   -3.3351    0.0000 N   0  0  0  0  0  0  0  0  0  0  0  0
   -4.5235   -4.8110    0.0000 C   0  0  0  0  0  0  0  0  0  0  0  0
   -5.5601   -5.8952    0.0000 O   0  0  0  0  0  0  0  0  0  0  0  0
   -3.0371   -5.0123    0.0000 C   0  0  0  0  0  0  0  0  0  0  0  0
   -2.3863   -3.6609    0.0000 C   0  0  0  0  0  0  0  0  0  0  0  0
   -1.2135   -2.7256    0.0000 C   0  0  0  0  0  0  0  0  0  0  0  0
   -0.0000   -3.6073    0.0000 C   0  0  0  0  0  0  0  0  0  0  0  0
    1.2135   -2.7256    0.0000 N   0  0  0  0  0  0  0  0  0  0  0  0
    0.7500   -1.2990    0.0000 C   0  0  0  0  0  0  0  0  0  0  0  0
    1.5000    0.0000    0.0000 C   0  0  0  0  0  0  0  0  0  0  0  0
    0.7500    1.2990    0.0000 C   0  0  0  0  0  0  0  0  0  0  0  0
   -0.7500    1.2990    0.0000 C   0  0  0  0  0  0  0  0  0  0  0  0
   -1.5000    0.0000    0.0000 C   0  0  0  0  0  0  0  0  0  0  0  0
   -0.7500   -1.2990    0.0000 C   0  0  0  0  0  0  0  0  0  0  0  0
    2.8840   -3.6609    0.0000 C   0  0  0  0  0  0  0  0  0  0  0  0
    3.5348   -5.0123    0.0000 C   0  0  0  0  0  0  0  0  0  0  0  0
    3.5348   -6.5123    0.0000 O   0  0  0  0  0  0  0  0  0  0  0  0
    2.8840   -7.8638    0.0000 C   0  0  0  0  0  0  0  0  0  0  0  0
    4.0568   -8.7990    0.0000 C   0  0  0  0  0  0  0  0  0  0  0  0
    3.8332  -10.2822    0.0000 N   0  0  0  0  0  0  0  0  0  0  0  0
    2.4369  -10.8303    0.0000 C   0  0  0  0  0  0  0  0  0  0  0  0
    2.2133  -12.3135    0.0000 C   0  0  0  0  0  0  0  0  0  0  0  0
    3.3861  -13.2487    0.0000 O   0  0  0  0  0  0  0  0  0  0  0  0
    4.7824  -12.7007    0.0000 C   0  0  0  0  0  0  0  0  0  0  0  0
    5.0059  -11.2175    0.0000 C   0  0  0  0  0  0  0  0  0  0  0  0
    1.7113   -8.7990    0.0000 C   0  0  0  0  0  0  0  0  0  0  0  0
    0.2489   -9.1328    0.0000 C   0  0  0  0  0  0  0  0  0  0  0  0
   -1.2135   -8.7990    0.0000 N   0  0  0  0  0  0  0  0  0  0  0  0
   -2.3863   -7.8638    0.0000 C   0  0  0  0  0  0  0  0  0  0  0  0
   -3.0371   -6.5123    0.0000 C   0  0  0  0  0  0  0  0  0  0  0  0
   -3.8634   -7.7642    0.0000 C   0  0  0  0  0  0  0  0  0  0  0  0
   -5.3467   -7.9877    0.0000 C   0  0  0  0  0  0  0  0  0  0  0  0
   -5.8947   -9.3840    0.0000 C   0  0  0  0  0  0  0  0  0  0  0  0
   -4.9595  -10.5568    0.0000 C   0  0  0  0  0  0  0  0  0  0  0  0
   -3.4762  -10.3332    0.0000 C   0  0  0  0  0  0  0  0  0  0  0  0
   -2.9282   -8.9369    0.0000 C   0  0  0  0  0  0  0  0  0  0  0  0
  1  2  2  0
  2  3  1  0
  3  4  1  0
  4  5  2  0
  4  6  1  0
  6  7  2  0
  7  8  1  0
  8  9  2  0
  9 10  1  0
 10 11  1  0
 11 12  2  0
 12 13  1  0
 13 14  2  0
 14 15  1  0
 15 16  2  0
 10 17  1  0
 17 18  1  0
 18 19  1  0
 19 20  1  0
 20 21  1  6
 21 22  1  0
 22 23  1  0
 23 24  1  0
 24 25  1  0
 25 26  1  0
 26 27  1  0
 20 28  1  0
 28 29  1  0
 29 30  1  0
 30 31  1  0
 31 32  2  0
 32 33  1  0
 33 34  2  0
 34 35  1  0
 35 36  2  0
 36 37  1  0
 37 38  2  0
  7  2  1  0
 16  8  1  0
 27 22  1  0
 38 30  1  0
 32  6  1  0
 38 33  1  0
 16 11  1  0
M  END
>  <Compound_ID>  (15) 
CHEMBL315357

>  <Active>  (15) 
1.0

>  <Smiles>  (15) 
O=C1NC(=O)C2=C1c1cn(c3ccccc13)CCO[C@H](CN1CCOCC1)CCn1cc2c2ccccc21

>  <canonical_smi>  (15) 
O=C1NC(=O)C2=C1c1cn(c3ccccc13)CCO[C@H](CN1CCOCC1)CCn1cc2c2ccccc21

>  <Set>  (15) 
G1 active

>  <Set_type>  (15) 
G1

>  <MW>  (15) 
510.59

>  <HBD>  (15) 
1

>  <HBA>  (15) 
5

>  <NRB>  (15) 
2

>  <NR>  (15) 
7

>  <NAR>  (15) 
4

>  <PSA>  (15) 
77.73

>  <Standard Type>  (15) 
nan

>  <Standard Relation>  (15) 
nan

>  <Standard Units>  (15) 
nan

>  <Standard Value>  (15) 
nan

>  <Assay ChEMBL ID>  (15) 
nan

>  <Assay Description>  (15) 
nan

>  <BAO Label>  (15) 
nan

$$$$

     RDKit          2D

 32 34  0  0  0  0  0  0  0  0999 V2000
   -1.6056  -13.0341    0.0000 C   0  0  0  0  0  0  0  0  0  0  0  0
   -0.1138  -12.8773    0.0000 C   0  0  0  0  0  0  0  0  0  0  0  0
    0.7679  -14.0909    0.0000 C   0  0  0  0  0  0  0  0  0  0  0  0
    0.4963  -11.5070    0.0000 C   0  0  0  0  0  0  0  0  0  0  0  0
   -0.2537  -10.2080    0.0000 C   0  0  0  0  0  0  0  0  0  0  0  0
    0.7500   -9.0933    0.0000 C   0  0  0  0  0  0  0  0  0  0  0  0
   -0.4635   -8.2116    0.0000 C   0  0  0  0  0  0  0  0  0  0  0  0
   -1.8338   -8.8217    0.0000 O   0  0  0  0  0  0  0  0  0  0  0  0
    1.5000   -7.7942    0.0000 C   0  0  0  0  0  0  0  0  0  0  0  0
    0.7500   -6.4952    0.0000 O   0  0  0  0  0  0  0  0  0  0  0  0
    1.5000   -5.1962    0.0000 C   0  0  0  0  0  0  0  0  0  0  0  0
    3.0000   -5.1962    0.0000 O   0  0  0  0  0  0  0  0  0  0  0  0
    0.7500   -3.8971    0.0000 C   0  0  0  0  0  0  0  0  0  0  0  0
    1.5000   -2.5981    0.0000 O   0  0  0  0  0  0  0  0  0  0  0  0
    0.7500   -1.2990    0.0000 C   0  0  0  0  0  0  0  0  0  0  0  0
    1.5000    0.0000    0.0000 C   0  0  0  0  0  0  0  0  0  0  0  0
    0.7500    1.2990    0.0000 C   0  0  0  0  0  0  0  0  0  0  0  0
   -0.7500    1.2990    0.0000 C   0  0  0  0  0  0  0  0  0  0  0  0
   -1.5000    2.5981    0.0000 C   0  0  0  0  0  0  0  0  0  0  0  0
   -2.2500    3.8971    0.0000 C   0  0  0  0  0  0  0  0  0  0  0  0
   -3.0000    5.1962    0.0000 C   0  0  0  0  0  0  0  0  0  0  0  0
   -2.2500    6.4952    0.0000 C   0  0  0  0  0  0  0  0  0  0  0  0
   -3.0000    7.7942    0.0000 C   0  0  0  0  0  0  0  0  0  0  0  0
   -4.5000    7.7942    0.0000 C   0  0  0  0  0  0  0  0  0  0  0  0
   -5.2500    9.0933    0.0000 C   0  0  0  0  0  0  0  0  0  0  0  0
   -5.2500    6.4952    0.0000 C   0  0  0  0  0  0  0  0  0  0  0  0
   -4.5000    5.1962    0.0000 C   0  0  0  0  0  0  0  0  0  0  0  0
   -1.5000    0.0000    0.0000 C   0  0  0  0  0  0  0  0  0  0  0  0
   -0.7500   -1.2990    0.0000 C   0  0  0  0  0  0  0  0  0  0  0  0
    2.1203   -9.7034    0.0000 O   0  0  0  0  0  0  0  0  0  0  0  0
    1.9635  -11.1952    0.0000 C   0  0  0  0  0  0  0  0  0  0  0  0
    3.0782  -12.1989    0.0000 O   0  0  0  0  0  0  0  0  0  0  0  0
  1  2  1  0
  2  3  1  0
  2  4  2  0
  4  5  1  0
  5  6  1  0
  6  7  1  0
  7  8  1  0
  6  9  1  0
  9 10  1  0
 10 11  1  0
 11 12  2  0
 11 13  1  0
 13 14  1  0
 14 15  1  0
 15 16  2  0
 16 17  1  0
 17 18  2  0
 18 19  1  0
 19 20  3  0
 20 21  1  0
 21 22  2  0
 22 23  1  0
 23 24  2  0
 24 25  1  0
 24 26  1  0
 26 27  2  0
 18 28  1  0
 28 29  2  0
  6 30  1  0
 30 31  1  0
 31 32  2  0
 31  4  1  0
 29 15  1  0
 27 21  1  0
M  END
>  <Compound_ID>  (16) 
CHEMBL523155

>  <Active>  (16) 
1.0

>  <Smiles>  (16) 
CC(C)=C1CC(CO)(COC(=O)COc2ccc(C#Cc3ccc(C)cc3)cc2)OC1=O

>  <canonical_smi>  (16) 
CC(C)=C1CC(CO)(COC(=O)COc2ccc(C#Cc3ccc(C)cc3)cc2)OC1=O

>  <Set>  (16) 
G1 active

>  <Set_type>  (16) 
G1

>  <MW>  (16) 
434.49

>  <HBD>  (16) 
1

>  <HBA>  (16) 
6

>  <NRB>  (16) 
6

>  <NR>  (16) 
3

>  <NAR>  (16) 
2

>  <PSA>  (16) 
82.06

>  <Standard Type>  (16) 
nan

>  <Standard Relation>  (16) 
nan

>  <Standard Units>  (16) 
nan

>  <Standard Value>  (16) 
nan

>  <Assay ChEMBL ID>  (16) 
nan

>  <Assay Description>  (16) 
nan

>  <BAO Label>  (16) 
nan

$$$$

     RDKit          2D

 34 40  0  0  0  0  0  0  0  0999 V2000
    5.8172   -1.8901    0.0000 C   0  0  0  0  0  0  0  0  0  0  0  0
    5.0672   -3.1891    0.0000 C   0  0  0  0  0  0  0  0  0  0  0  0
    6.4375   -3.7993    0.0000 C   0  0  0  0  0  0  0  0  0  0  0  0
    3.8536   -2.3075    0.0000 O   0  0  0  0  0  0  0  0  0  0  0  0
    2.6401   -3.1891    0.0000 C   0  0  0  0  0  0  0  0  0  0  0  0
    1.2135   -2.7256    0.0000 N   0  0  0  0  0  0  0  0  0  0  0  0
    0.7500   -1.2990    0.0000 C   0  0  0  0  0  0  0  0  0  0  0  0
    1.5000    0.0000    0.0000 C   0  0  0  0  0  0  0  0  0  0  0  0
    0.7500    1.2990    0.0000 C   0  0  0  0  0  0  0  0  0  0  0  0
   -0.7500    1.2990    0.0000 C   0  0  0  0  0  0  0  0  0  0  0  0
   -1.5000    0.0000    0.0000 C   0  0  0  0  0  0  0  0  0  0  0  0
   -0.7500   -1.2990    0.0000 C   0  0  0  0  0  0  0  0  0  0  0  0
   -1.2135   -2.7256    0.0000 C   0  0  0  0  0  0  0  0  0  0  0  0
   -2.5838   -3.3357    0.0000 C   0  0  0  0  0  0  0  0  0  0  0  0
   -2.7406   -4.8275    0.0000 C   0  0  0  0  0  0  0  0  0  0  0  0
   -1.5271   -5.7092    0.0000 C   0  0  0  0  0  0  0  0  0  0  0  0
   -1.3703   -7.2010    0.0000 C   0  0  0  0  0  0  0  0  0  0  0  0
   -2.3740   -8.3157    0.0000 C   0  0  0  0  0  0  0  0  0  0  0  0
   -1.9105   -9.7423    0.0000 C   0  0  0  0  0  0  0  0  0  0  0  0
   -0.4433  -10.0541    0.0000 C   0  0  0  0  0  0  0  0  0  0  0  0
    0.5604   -8.9394    0.0000 C   0  0  0  0  0  0  0  0  0  0  0  0
    0.0969   -7.5128    0.0000 C   0  0  0  0  0  0  0  0  0  0  0  0
    0.8469   -6.2138    0.0000 N   0  0  0  0  0  0  0  0  0  0  0  0
   -0.1568   -5.0991    0.0000 C   0  0  0  0  0  0  0  0  0  0  0  0
   -0.0000   -3.6073    0.0000 C   0  0  0  0  0  0  0  0  0  0  0  0
   -4.2079   -5.1394    0.0000 C   0  0  0  0  0  0  0  0  0  0  0  0
   -4.9579   -3.8403    0.0000 N   0  0  0  0  0  0  0  0  0  0  0  0
   -3.9542   -2.7256    0.0000 C   0  0  0  0  0  0  0  0  0  0  0  0
   -4.2660   -1.2584    0.0000 O   0  0  0  0  0  0  0  0  0  0  0  0
    3.1036   -4.6157    0.0000 C   0  0  0  0  0  0  0  0  0  0  0  0
    4.6036   -4.6157    0.0000 C   0  0  0  0  0  0  0  0  0  0  0  0
    4.4468   -6.1075    0.0000 O   0  0  0  0  0  0  0  0  0  0  0  0
    6.0709   -4.9276    0.0000 C   0  0  0  0  0  0  0  0  0  0  0  0
    6.5344   -6.3542    0.0000 O   0  0  0  0  0  0  0  0  0  0  0  0
  1  2  1  0
  2  3  1  0
  2  4  1  0
  4  5  1  0
  5  6  1  6
  6  7  1  0
  7  8  2  0
  8  9  1  0
  9 10  2  0
 10 11  1  0
 11 12  2  0
 12 13  1  0
 13 14  2  0
 14 15  1  0
 15 16  2  0
 16 17  1  0
 17 18  2  0
 18 19  1  0
 19 20  2  0
 20 21  1  0
 21 22  2  0
 22 23  1  0
 23 24  1  0
 24 25  2  0
 15 26  1  0
 26 27  1  0
 27 28  1  0
 28 29  2  0
  5 30  1  0
 30 31  1  0
 31 32  1  1
 31 33  1  0
 33 34  1  0
 31  2  1  0
 25  6  1  0
 12  7  1  0
 25 13  1  0
 28 14  1  0
 24 16  1  0
 22 17  1  0
M  END
>  <Compound_ID>  (17) 
CHEMBL370493

>  <Active>  (17) 
1.0

>  <Smiles>  (17) 
CC1(C)O[C@@H](n2c3ccccc3c3c4c(c5c6ccccc6[nH]c5c32)CNC4=O)C[C@@]1(O)CO

>  <canonical_smi>  (17) 
CC1(C)O[C@@H](n2c3ccccc3c3c4c(c5c6ccccc6[nH]c5c32)CNC4=O)C[C@@]1(O)CO

>  <Set>  (17) 
G1 active

>  <Set_type>  (17) 
G1

>  <MW>  (17) 
455.51

>  <HBD>  (17) 
4

>  <HBA>  (17) 
4

>  <NRB>  (17) 
2

>  <NR>  (17) 
7

>  <NAR>  (17) 
5

>  <PSA>  (17) 
99.51

>  <Standard Type>  (17) 
nan

>  <Standard Relation>  (17) 
nan

>  <Standard Units>  (17) 
nan

>  <Standard Value>  (17) 
nan

>  <Assay ChEMBL ID>  (17) 
nan

>  <Assay Description>  (17) 
nan

>  <BAO Label>  (17) 
nan

$$$$

     RDKit          2D

 24 27  0  0  0  0  0  0  0  0999 V2000
   -7.6628    4.7674    0.0000 C   0  0  0  0  0  0  0  0  0  0  0  0
   -6.8241    3.5239    0.0000 C   0  0  0  0  0  0  0  0  0  0  0  0
   -7.4816    2.1757    0.0000 C   0  0  0  0  0  0  0  0  0  0  0  0
   -5.3277    3.6285    0.0000 C   0  0  0  0  0  0  0  0  0  0  0  0
   -4.9142    5.0704    0.0000 C   0  0  0  0  0  0  0  0  0  0  0  0
   -6.1278    5.9521    0.0000 O   0  0  0  0  0  0  0  0  0  0  0  0
   -3.6707    5.9092    0.0000 N   0  0  0  0  0  0  0  0  0  0  0  0
   -2.1789    5.7524    0.0000 C   0  0  0  0  0  0  0  0  0  0  0  0
   -1.5214    7.1006    0.0000 C   0  0  0  0  0  0  0  0  0  0  0  0
   -0.0250    7.2052    0.0000 O   0  0  0  0  0  0  0  0  0  0  0  0
   -1.1369    4.6734    0.0000 C   0  0  0  0  0  0  0  0  0  0  0  0
   -1.0323    3.1771    0.0000 C   0  0  0  0  0  0  0  0  0  0  0  0
    0.3943    2.7135    0.0000 C   0  0  0  0  0  0  0  0  0  0  0  0
    0.3943    1.2135    0.0000 N   0  0  0  0  0  0  0  0  0  0  0  0
    1.2760    0.0000    0.0000 N   0  0  0  0  0  0  0  0  0  0  0  0
    0.3943   -1.2135    0.0000 C   0  0  0  0  0  0  0  0  0  0  0  0
   -1.0323   -0.7500    0.0000 C   0  0  0  0  0  0  0  0  0  0  0  0
   -2.7042   -0.9108    0.0000 C   0  0  0  0  0  0  0  0  0  0  0  0
   -3.7618    0.1529    0.0000 C   0  0  0  0  0  0  0  0  0  0  0  0
   -3.3694    1.6006    0.0000 C   0  0  0  0  0  0  0  0  0  0  0  0
   -1.9140    1.9635    0.0000 C   0  0  0  0  0  0  0  0  0  0  0  0
   -1.0323    0.7500    0.0000 C   0  0  0  0  0  0  0  0  0  0  0  0
   -4.7176    2.2582    0.0000 N   0  0  0  0  0  0  0  0  0  0  0  0
   -5.7966    1.2162    0.0000 C   0  0  0  0  0  0  0  0  0  0  0  0
  1  2  1  0
  2  3  1  0
  4  2  1  1
  4  5  1  0
  5  6  2  0
  5  7  1  0
  7  8  1  0
  8  9  1  6
  9 10  1  0
  8 11  1  0
 11 12  1  0
 12 13  2  0
 13 14  1  0
 14 15  1  0
 15 16  2  0
 16 17  1  0
 17 18  1  0
 18 19  2  0
 19 20  1  0
 20 21  2  0
 21 22  1  0
 20 23  1  0
 23 24  1  0
 23  4  1  0
 21 12  1  0
 22 14  1  0
 22 17  2  0
M  END
>  <Compound_ID>  (18) 
CHEMBL271403

>  <Active>  (18) 
1.0

>  <Smiles>  (18) 
CC(C)[C@H]1C(=O)N[C@H](CO)Cc2cn3ncc4ccc(c2c43)N1C

>  <canonical_smi>  (18) 
CC(C)[C@H]1C(=O)N[C@H](CO)Cc2cn3ncc4ccc(c2c43)N1C

>  <Set>  (18) 
G1 active

>  <Set_type>  (18) 
G1

>  <MW>  (18) 
326.4

>  <HBD>  (18) 
2

>  <HBA>  (18) 
4

>  <NRB>  (18) 
2

>  <NR>  (18) 
4

>  <NAR>  (18) 
3

>  <PSA>  (18) 
69.87

>  <Standard Type>  (18) 
nan

>  <Standard Relation>  (18) 
nan

>  <Standard Units>  (18) 
nan

>  <Standard Value>  (18) 
nan

>  <Assay ChEMBL ID>  (18) 
nan

>  <Assay Description>  (18) 
nan

>  <BAO Label>  (18) 
nan

$$$$

     RDKit          2D

 29 32  0  0  0  0  0  0  0  0999 V2000
   -8.0346   -3.5760    0.0000 N   0  0  0  0  0  0  0  0  0  0  0  0
   -7.7227   -2.1088    0.0000 C   0  0  0  0  0  0  0  0  0  0  0  0
   -8.8374   -1.1051    0.0000 N   0  0  0  0  0  0  0  0  0  0  0  0
   -6.2961   -1.6453    0.0000 S   0  0  0  0  0  0  0  0  0  0  0  0
   -5.1814   -2.6490    0.0000 C   0  0  0  0  0  0  0  0  0  0  0  0
   -3.7548   -2.1855    0.0000 C   0  0  0  0  0  0  0  0  0  0  0  0
   -2.6401   -3.1891    0.0000 C   0  0  0  0  0  0  0  0  0  0  0  0
   -1.2135   -2.7256    0.0000 N   0  0  0  0  0  0  0  0  0  0  0  0
   -0.0000   -3.6073    0.0000 C   0  0  0  0  0  0  0  0  0  0  0  0
   -0.0000   -5.1073    0.0000 C   0  0  0  0  0  0  0  0  0  0  0  0
   -1.2990   -5.8573    0.0000 C   0  0  0  0  0  0  0  0  0  0  0  0
   -1.2990   -7.3573    0.0000 C   0  0  0  0  0  0  0  0  0  0  0  0
   -0.0000   -8.1073    0.0000 C   0  0  0  0  0  0  0  0  0  0  0  0
    1.2990   -7.3573    0.0000 C   0  0  0  0  0  0  0  0  0  0  0  0
    1.2990   -5.8573    0.0000 C   0  0  0  0  0  0  0  0  0  0  0  0
    1.2135   -2.7256    0.0000 C   0  0  0  0  0  0  0  0  0  0  0  0
    2.6401   -3.1891    0.0000 C   0  0  0  0  0  0  0  0  0  0  0  0
    3.8536   -2.3075    0.0000 C   0  0  0  0  0  0  0  0  0  0  0  0
    5.0672   -3.1891    0.0000 C   0  0  0  0  0  0  0  0  0  0  0  0
    6.4937   -2.7256    0.0000 O   0  0  0  0  0  0  0  0  0  0  0  0
    4.6036   -4.6157    0.0000 N   0  0  0  0  0  0  0  0  0  0  0  0
    3.1036   -4.6157    0.0000 C   0  0  0  0  0  0  0  0  0  0  0  0
    2.2220   -5.8293    0.0000 O   0  0  0  0  0  0  0  0  0  0  0  0
    0.7500   -1.2990    0.0000 C   0  0  0  0  0  0  0  0  0  0  0  0
    1.5000    0.0000    0.0000 C   0  0  0  0  0  0  0  0  0  0  0  0
    0.7500    1.2990    0.0000 C   0  0  0  0  0  0  0  0  0  0  0  0
   -0.7500    1.2990    0.0000 C   0  0  0  0  0  0  0  0  0  0  0  0
   -1.5000    0.0000    0.0000 C   0  0  0  0  0  0  0  0  0  0  0  0
   -0.7500   -1.2990    0.0000 C   0  0  0  0  0  0  0  0  0  0  0  0
  1  2  2  0
  2  3  1  0
  2  4  1  0
  4  5  1  0
  5  6  1  0
  6  7  1  0
  7  8  1  0
  8  9  1  0
  9 10  1  0
 10 11  2  0
 11 12  1  0
 12 13  2  0
 13 14  1  0
 14 15  2  0
  9 16  2  0
 16 17  1  0
 17 18  2  0
 18 19  1  0
 19 20  2  0
 19 21  1  0
 21 22  1  0
 22 23  2  0
 16 24  1  0
 24 25  2  0
 25 26  1  0
 26 27  2  0
 27 28  1  0
 28 29  2  0
 29  8  1  0
 15 10  1  0
 22 17  1  0
 29 24  1  0
M  END
>  <Compound_ID>  (19) 
CHEMBL161832

>  <Active>  (19) 
1.0

>  <Smiles>  (19) 
N=C(N)SCCCn1c(-c2ccccc2)c(C2=CC(=O)NC2=O)c2ccccc21

>  <canonical_smi>  (19) 
N=C(N)SCCCn1c(-c2ccccc2)c(C2=CC(=O)NC2=O)c2ccccc21

>  <Set>  (19) 
G1 active

>  <Set_type>  (19) 
G1

>  <MW>  (19) 
404.5

>  <HBD>  (19) 
3

>  <HBA>  (19) 
4

>  <NRB>  (19) 
6

>  <NR>  (19) 
4

>  <NAR>  (19) 
3

>  <PSA>  (19) 
100.97

>  <Standard Type>  (19) 
nan

>  <Standard Relation>  (19) 
nan

>  <Standard Units>  (19) 
nan

>  <Standard Value>  (19) 
nan

>  <Assay ChEMBL ID>  (19) 
nan

>  <Assay Description>  (19) 
nan

>  <BAO Label>  (19) 
nan

$$$$

     RDKit          2D

 36 42  0  0  0  0  0  0  0  0999 V2000
    6.4964  -10.3250    0.0000 C   0  0  0  0  0  0  0  0  0  0  0  0
    5.7464   -9.0260    0.0000 N   0  0  0  0  0  0  0  0  0  0  0  0
    6.3565   -7.6557    0.0000 C   0  0  0  0  0  0  0  0  0  0  0  0
    5.2418   -6.6520    0.0000 C   0  0  0  0  0  0  0  0  0  0  0  0
    3.9427   -7.4020    0.0000 C   0  0  0  0  0  0  0  0  0  0  0  0
    4.2546   -8.8692    0.0000 C   0  0  0  0  0  0  0  0  0  0  0  0
    3.1399   -7.8655    0.0000 C   0  0  0  0  0  0  0  0  0  0  0  0
    3.7500   -6.4952    0.0000 N   0  0  0  0  0  0  0  0  0  0  0  0
    3.0000   -5.1962    0.0000 C   0  0  0  0  0  0  0  0  0  0  0  0
    3.7500   -3.8971    0.0000 C   0  0  0  0  0  0  0  0  0  0  0  0
    3.0000   -2.5981    0.0000 C   0  0  0  0  0  0  0  0  0  0  0  0
    1.5000   -2.5981    0.0000 C   0  0  0  0  0  0  0  0  0  0  0  0
    0.7500   -1.2990    0.0000 C   0  0  0  0  0  0  0  0  0  0  0  0
    1.5000    0.0000    0.0000 C   0  0  0  0  0  0  0  0  0  0  0  0
    0.7500    1.2990    0.0000 C   0  0  0  0  0  0  0  0  0  0  0  0
   -0.7500    1.2990    0.0000 N   0  0  0  0  0  0  0  0  0  0  0  0
   -1.5000    0.0000    0.0000 C   0  0  0  0  0  0  0  0  0  0  0  0
   -2.9672   -0.3119    0.0000 C   0  0  0  0  0  0  0  0  0  0  0  0
   -4.0819    0.6918    0.0000 C   0  0  0  0  0  0  0  0  0  0  0  0
   -3.7701    2.1590    0.0000 C   0  0  0  0  0  0  0  0  0  0  0  0
   -4.8848    3.1627    0.0000 C   0  0  0  0  0  0  0  0  0  0  0  0
   -6.3114    2.6992    0.0000 C   0  0  0  0  0  0  0  0  0  0  0  0
   -6.6232    1.2320    0.0000 C   0  0  0  0  0  0  0  0  0  0  0  0
   -8.0498    0.7685    0.0000 O   0  0  0  0  0  0  0  0  0  0  0  0
   -5.5085    0.2283    0.0000 C   0  0  0  0  0  0  0  0  0  0  0  0
   -3.1240   -1.8037    0.0000 C   0  0  0  0  0  0  0  0  0  0  0  0
   -4.4231   -2.5537    0.0000 C   0  0  0  0  0  0  0  0  0  0  0  0
   -5.7221   -1.8037    0.0000 C   0  0  0  0  0  0  0  0  0  0  0  0
   -7.0211   -2.5537    0.0000 C   0  0  0  0  0  0  0  0  0  0  0  0
   -7.0211   -4.0537    0.0000 N   0  0  0  0  0  0  0  0  0  0  0  0
   -5.7221   -4.8037    0.0000 C   0  0  0  0  0  0  0  0  0  0  0  0
   -4.4231   -4.0537    0.0000 C   0  0  0  0  0  0  0  0  0  0  0  0
   -1.7537   -2.4138    0.0000 N   0  0  0  0  0  0  0  0  0  0  0  0
   -0.7500   -1.2990    0.0000 N   0  0  0  0  0  0  0  0  0  0  0  0
    0.7500   -3.8971    0.0000 C   0  0  0  0  0  0  0  0  0  0  0  0
    1.5000   -5.1962    0.0000 C   0  0  0  0  0  0  0  0  0  0  0  0
  1  2  1  0
  2  3  1  0
  4  3  1  6
  4  5  1  0
  5  6  1  0
  6  7  1  6
  7  8  1  0
  8  9  1  0
  9 10  2  0
 10 11  1  0
 11 12  2  0
 12 13  1  0
 13 14  2  0
 14 15  1  0
 15 16  2  0
 16 17  1  0
 17 18  2  0
 18 19  1  0
 19 20  2  0
 20 21  1  0
 21 22  2  0
 22 23  1  0
 23 24  1  0
 23 25  2  0
 18 26  1  0
 26 27  1  0
 27 28  2  0
 28 29  1  0
 29 30  2  0
 30 31  1  0
 31 32  2  0
 26 33  2  0
 33 34  1  0
 12 35  1  0
 35 36  2  0
  6  2  1  0
 36  9  1  0
  8  4  1  0
 34 13  1  0
 34 17  1  0
 25 19  1  0
 32 27  1  0
M  END
>  <Compound_ID>  (20) 
CHEMBL1087650

>  <Active>  (20) 
1.0

>  <Smiles>  (20) 
CN1C[C@@H]2C[C@H]1CN2c1ccc(-c2ccnc3c(-c4cccc(O)c4)c(-c4ccncc4)nn23)cc1

>  <canonical_smi>  (20) 
CN1C[C@@H]2C[C@H]1CN2c1ccc(-c2ccnc3c(-c4cccc(O)c4)c(-c4ccncc4)nn23)cc1

>  <Set>  (20) 
G1 active

>  <Set_type>  (20) 
G1

>  <MW>  (20) 
474.57

>  <HBD>  (20) 
1

>  <HBA>  (20) 
6

>  <NRB>  (20) 
4

>  <NR>  (20) 
7

>  <NAR>  (20) 
5

>  <PSA>  (20) 
69.79

>  <Standard Type>  (20) 
nan

>  <Standard Relation>  (20) 
nan

>  <Standard Units>  (20) 
nan

>  <Standard Value>  (20) 
nan

>  <Assay ChEMBL ID>  (20) 
nan

>  <Assay Description>  (20) 
nan

>  <BAO Label>  (20) 
nan

$$$$

     RDKit          2D

 22 24  0  0  0  0  0  0  0  0999 V2000
   -4.7702    2.5586    0.0000 C   0  0  0  0  0  0  0  0  0  0  0  0
   -5.2833    1.1491    0.0000 C   0  0  0  0  0  0  0  0  0  0  0  0
   -6.7605    0.8886    0.0000 C   0  0  0  0  0  0  0  0  0  0  0  0
   -4.3191    0.0000    0.0000 C   0  0  0  0  0  0  0  0  0  0  0  0
   -5.0691   -1.2990    0.0000 C   0  0  0  0  0  0  0  0  0  0  0  0
   -6.5463   -1.0386    0.0000 O   0  0  0  0  0  0  0  0  0  0  0  0
   -4.8086   -2.7762    0.0000 N   0  0  0  0  0  0  0  0  0  0  0  0
   -3.6595   -3.7404    0.0000 C   0  0  0  0  0  0  0  0  0  0  0  0
   -4.1726   -5.1500    0.0000 C   0  0  0  0  0  0  0  0  0  0  0  0
   -5.6498   -5.4104    0.0000 O   0  0  0  0  0  0  0  0  0  0  0  0
   -2.1595   -3.7404    0.0000 C   0  0  0  0  0  0  0  0  0  0  0  0
   -1.0105   -2.7762    0.0000 C   0  0  0  0  0  0  0  0  0  0  0  0
    0.2616   -3.5711    0.0000 C   0  0  0  0  0  0  0  0  0  0  0  0
    1.4107   -2.6069    0.0000 N   0  0  0  0  0  0  0  0  0  0  0  0
    0.7500   -1.2990    0.0000 C   0  0  0  0  0  0  0  0  0  0  0  0
    1.5000    0.0000    0.0000 C   0  0  0  0  0  0  0  0  0  0  0  0
    0.7500    1.2990    0.0000 C   0  0  0  0  0  0  0  0  0  0  0  0
   -0.7500    1.2990    0.0000 C   0  0  0  0  0  0  0  0  0  0  0  0
   -1.5000    0.0000    0.0000 C   0  0  0  0  0  0  0  0  0  0  0  0
   -0.7500   -1.2990    0.0000 C   0  0  0  0  0  0  0  0  0  0  0  0
   -2.9095    0.5130    0.0000 N   0  0  0  0  0  0  0  0  0  0  0  0
   -2.9095    2.0130    0.0000 C   0  0  0  0  0  0  0  0  0  0  0  0
  1  2  1  0
  2  3  1  0
  4  2  1  6
  4  5  1  0
  5  6  2  0
  5  7  1  0
  7  8  1  0
  8  9  1  1
  9 10  1  0
  8 11  1  0
 11 12  1  0
 12 13  1  0
 13 14  1  0
 14 15  1  0
 15 16  2  0
 16 17  1  0
 17 18  2  0
 18 19  1  0
 19 20  2  0
 19 21  1  0
 21 22  1  0
 21  4  1  0
 20 12  1  0
 20 15  1  0
M  END
>  <Compound_ID>  (21) 
CHEMBL120645

>  <Active>  (21) 
1.0

>  <Smiles>  (21) 
CC(C)[C@H]1C(=O)N[C@H](CO)CC2CNc3cccc(c32)N1C

>  <canonical_smi>  (21) 
CC(C)[C@H]1C(=O)N[C@H](CO)CC2CNc3cccc(c32)N1C

>  <Set>  (21) 
G1 active

>  <Set_type>  (21) 
G1

>  <MW>  (21) 
303.41

>  <HBD>  (21) 
3

>  <HBA>  (21) 
4

>  <NRB>  (21) 
2

>  <NR>  (21) 
3

>  <NAR>  (21) 
1

>  <PSA>  (21) 
64.6

>  <Standard Type>  (21) 
nan

>  <Standard Relation>  (21) 
nan

>  <Standard Units>  (21) 
nan

>  <Standard Value>  (21) 
nan

>  <Assay ChEMBL ID>  (21) 
nan

>  <Assay Description>  (21) 
nan

>  <BAO Label>  (21) 
nan

$$$$

     RDKit          2D

 29 31  0  0  0  0  0  0  0  0999 V2000
    3.7500   -1.2990    0.0000 C   0  0  0  0  0  0  0  0  0  0  0  0
    3.0000    0.0000    0.0000 O   0  0  0  0  0  0  0  0  0  0  0  0
    1.5000    0.0000    0.0000 C   0  0  0  0  0  0  0  0  0  0  0  0
    0.7500   -1.2990    0.0000 C   0  0  0  0  0  0  0  0  0  0  0  0
   -0.7500   -1.2990    0.0000 C   0  0  0  0  0  0  0  0  0  0  0  0
   -1.5000   -2.5981    0.0000 N   0  0  0  0  0  0  0  0  0  0  0  0
   -3.0000   -2.5981    0.0000 C   0  0  0  0  0  0  0  0  0  0  0  0
   -3.7500   -1.2990    0.0000 N   0  0  0  0  0  0  0  0  0  0  0  0
   -5.2500   -1.2990    0.0000 C   0  0  0  0  0  0  0  0  0  0  0  0
   -6.0000   -2.5981    0.0000 C   0  0  0  0  0  0  0  0  0  0  0  0
   -5.2500   -3.8971    0.0000 C   0  0  0  0  0  0  0  0  0  0  0  0
   -6.0000   -5.1962    0.0000 C   0  0  0  0  0  0  0  0  0  0  0  0
   -7.5000   -5.1962    0.0000 C   0  0  0  0  0  0  0  0  0  0  0  0
   -8.2500   -6.4952    0.0000 C   0  0  0  0  0  0  0  0  0  0  0  0
   -7.5000   -7.7942    0.0000 C   0  0  0  0  0  0  0  0  0  0  0  0
   -8.2500   -9.0933    0.0000 N   0  0  0  0  0  0  0  0  0  0  0  0
   -9.7500   -9.0933    0.0000 C   0  0  0  0  0  0  0  0  0  0  0  0
  -10.5000  -10.3923    0.0000 C   0  0  0  0  0  0  0  0  0  0  0  0
  -12.0000  -10.3923    0.0000 N   0  0  0  0  0  0  0  0  0  0  0  0
   -6.0000   -7.7942    0.0000 N   0  0  0  0  0  0  0  0  0  0  0  0
   -5.2500   -6.4952    0.0000 C   0  0  0  0  0  0  0  0  0  0  0  0
   -3.7500   -3.8971    0.0000 N   0  0  0  0  0  0  0  0  0  0  0  0
   -1.5000    0.0000    0.0000 C   0  0  0  0  0  0  0  0  0  0  0  0
   -0.7500    1.2990    0.0000 C   0  0  0  0  0  0  0  0  0  0  0  0
   -1.5000    2.5981    0.0000 O   0  0  0  0  0  0  0  0  0  0  0  0
   -0.7500    3.8971    0.0000 C   0  0  0  0  0  0  0  0  0  0  0  0
    0.7500    1.2990    0.0000 C   0  0  0  0  0  0  0  0  0  0  0  0
    1.5000    2.5981    0.0000 O   0  0  0  0  0  0  0  0  0  0  0  0
    3.0000    2.5981    0.0000 C   0  0  0  0  0  0  0  0  0  0  0  0
  1  2  1  0
  2  3  1  0
  3  4  2  0
  4  5  1  0
  5  6  1  0
  6  7  1  0
  7  8  2  0
  8  9  1  0
  9 10  2  0
 10 11  1  0
 11 12  1  0
 12 13  2  0
 13 14  1  0
 14 15  2  0
 15 16  1  0
 16 17  1  0
 17 18  1  0
 18 19  1  0
 15 20  1  0
 20 21  2  0
 11 22  2  0
  5 23  2  0
 23 24  1  0
 24 25  1  0
 25 26  1  0
 24 27  2  0
 27 28  1  0
 28 29  1  0
 27  3  1  0
 22  7  1  0
 21 12  1  0
M  END
>  <Compound_ID>  (22) 
CHEMBL113185

>  <Active>  (22) 
1.0

>  <Smiles>  (22) 
COc1cc(Nc2nccc(-c3ccc(NCCN)nc3)n2)cc(OC)c1OC

>  <canonical_smi>  (22) 
COc1cc(Nc2nccc(-c3ccc(NCCN)nc3)n2)cc(OC)c1OC

>  <Set>  (22) 
G1 active

>  <Set_type>  (22) 
G1

>  <MW>  (22) 
396.45

>  <HBD>  (22) 
3

>  <HBA>  (22) 
9

>  <NRB>  (22) 
9

>  <NR>  (22) 
3

>  <NAR>  (22) 
3

>  <PSA>  (22) 
116.44

>  <Standard Type>  (22) 
nan

>  <Standard Relation>  (22) 
nan

>  <Standard Units>  (22) 
nan

>  <Standard Value>  (22) 
nan

>  <Assay ChEMBL ID>  (22) 
nan

>  <Assay Description>  (22) 
nan

>  <BAO Label>  (22) 
nan

$$$$

     RDKit          2D

 22 24  0  0  0  0  0  0  0  0999 V2000
   -4.7702    2.5586    0.0000 C   0  0  0  0  0  0  0  0  0  0  0  0
   -5.2833    1.1491    0.0000 C   0  0  0  0  0  0  0  0  0  0  0  0
   -6.7605    0.8886    0.0000 C   0  0  0  0  0  0  0  0  0  0  0  0
   -4.3191    0.0000    0.0000 C   0  0  0  0  0  0  0  0  0  0  0  0
   -5.0691   -1.2990    0.0000 C   0  0  0  0  0  0  0  0  0  0  0  0
   -6.5463   -1.0386    0.0000 S   0  0  0  0  0  0  0  0  0  0  0  0
   -4.8086   -2.7762    0.0000 N   0  0  0  0  0  0  0  0  0  0  0  0
   -3.6595   -3.7404    0.0000 C   0  0  0  0  0  0  0  0  0  0  0  0
   -4.1726   -5.1500    0.0000 C   0  0  0  0  0  0  0  0  0  0  0  0
   -5.6498   -5.4104    0.0000 O   0  0  0  0  0  0  0  0  0  0  0  0
   -2.1595   -3.7404    0.0000 C   0  0  0  0  0  0  0  0  0  0  0  0
   -1.0105   -2.7762    0.0000 C   0  0  0  0  0  0  0  0  0  0  0  0
    0.2616   -3.5711    0.0000 C   0  0  0  0  0  0  0  0  0  0  0  0
    1.4107   -2.6069    0.0000 N   0  0  0  0  0  0  0  0  0  0  0  0
    0.7500   -1.2990    0.0000 C   0  0  0  0  0  0  0  0  0  0  0  0
    1.5000    0.0000    0.0000 C   0  0  0  0  0  0  0  0  0  0  0  0
    0.7500    1.2990    0.0000 C   0  0  0  0  0  0  0  0  0  0  0  0
   -0.7500    1.2990    0.0000 C   0  0  0  0  0  0  0  0  0  0  0  0
   -1.5000    0.0000    0.0000 C   0  0  0  0  0  0  0  0  0  0  0  0
   -0.7500   -1.2990    0.0000 C   0  0  0  0  0  0  0  0  0  0  0  0
   -2.9095    0.5130    0.0000 N   0  0  0  0  0  0  0  0  0  0  0  0
   -2.9095    2.0130    0.0000 C   0  0  0  0  0  0  0  0  0  0  0  0
  1  2  1  0
  2  3  1  0
  4  2  1  6
  4  5  1  0
  5  6  1  0
  5  7  2  0
  7  8  1  0
  8  9  1  1
  9 10  1  0
  8 11  1  0
 11 12  1  0
 12 13  2  0
 13 14  1  0
 14 15  1  0
 15 16  2  0
 16 17  1  0
 17 18  2  0
 18 19  1  0
 19 20  2  0
 19 21  1  0
 21 22  1  0
 21  4  1  0
 20 12  1  0
 20 15  1  0
M  END
>  <Compound_ID>  (23) 
CHEMBL63262

>  <Active>  (23) 
1.0

>  <Smiles>  (23) 
CC(C)[C@H]1/C(S)=N/[C@H](CO)Cc2c[nH]c3cccc(c23)N1C

>  <canonical_smi>  (23) 
CC(C)[C@H]1/C(S)=N/[C@H](CO)Cc2c[nH]c3cccc(c23)N1C

>  <Set>  (23) 
G1 active

>  <Set_type>  (23) 
G1

>  <MW>  (23) 
317.46

>  <HBD>  (23) 
3

>  <HBA>  (23) 
2

>  <NRB>  (23) 
2

>  <NR>  (23) 
3

>  <NAR>  (23) 
2

>  <PSA>  (23) 
51.62

>  <Standard Type>  (23) 
nan

>  <Standard Relation>  (23) 
nan

>  <Standard Units>  (23) 
nan

>  <Standard Value>  (23) 
nan

>  <Assay ChEMBL ID>  (23) 
nan

>  <Assay Description>  (23) 
nan

>  <BAO Label>  (23) 
nan

$$$$

     RDKit          2D

 26 26  0  0  0  0  0  0  0  0999 V2000
   17.0260    9.0933    0.0000 C   0  0  0  0  0  0  0  0  0  0  0  0
   16.2760    7.7942    0.0000 C   0  0  0  0  0  0  0  0  0  0  0  0
   14.7760    7.7942    0.0000 C   0  0  0  0  0  0  0  0  0  0  0  0
   14.0260    6.4952    0.0000 C   0  0  0  0  0  0  0  0  0  0  0  0
   12.5260    6.4952    0.0000 C   0  0  0  0  0  0  0  0  0  0  0  0
   11.7760    5.1962    0.0000 C   0  0  0  0  0  0  0  0  0  0  0  0
   10.2760    5.1962    0.0000 C   0  0  0  0  0  0  0  0  0  0  0  0
    9.5260    3.8971    0.0000 C   0  0  0  0  0  0  0  0  0  0  0  0
    8.0260    3.8971    0.0000 C   0  0  0  0  0  0  0  0  0  0  0  0
    7.2760    2.5981    0.0000 C   0  0  0  0  0  0  0  0  0  0  0  0
    5.7760    2.5981    0.0000 C   0  0  0  0  0  0  0  0  0  0  0  0
    5.0260    1.2990    0.0000 C   0  0  0  0  0  0  0  0  0  0  0  0
    3.5260    1.2990    0.0000 C   0  0  0  0  0  0  0  0  0  0  0  0
    2.7760    0.0000    0.0000 C   0  0  0  0  0  0  0  0  0  0  0  0
    1.2760    0.0000    0.0000 C   0  0  0  0  0  0  0  0  0  0  0  0
    0.3943    1.2135    0.0000 C   0  0  0  0  0  0  0  0  0  0  0  0
    0.8578    2.6401    0.0000 O   0  0  0  0  0  0  0  0  0  0  0  0
   -1.0323    0.7500    0.0000 O   0  0  0  0  0  0  0  0  0  0  0  0
   -1.0323   -0.7500    0.0000 C   0  0  0  0  0  0  0  0  0  0  0  0
   -2.2458   -1.6317    0.0000 C   0  0  0  0  0  0  0  0  0  0  0  0
   -3.6161   -1.0216    0.0000 O   0  0  0  0  0  0  0  0  0  0  0  0
    0.3943   -1.2135    0.0000 C   0  0  0  0  0  0  0  0  0  0  0  0
    0.8578   -2.6401    0.0000 O   0  0  0  0  0  0  0  0  0  0  0  0
   -0.1459   -3.7548    0.0000 C   0  0  0  0  0  0  0  0  0  0  0  0
    0.3177   -5.1814    0.0000 C   0  0  0  0  0  0  0  0  0  0  0  0
   -1.6131   -3.4430    0.0000 O   0  0  0  0  0  0  0  0  0  0  0  0
  1  2  1  0
  2  3  1  0
  3  4  1  0
  4  5  1  0
  5  6  1  0
  6  7  1  0
  7  8  1  0
  8  9  1  0
  9 10  1  0
 10 11  1  0
 11 12  1  0
 12 13  1  0
 13 14  1  0
 14 15  2  0
 15 16  1  0
 16 17  2  0
 16 18  1  0
 18 19  1  0
 19 20  1  6
 20 21  1  0
 19 22  1  0
 22 23  1  1
 23 24  1  0
 24 25  1  0
 24 26  2  0
 22 15  1  0
M  END
>  <Compound_ID>  (24) 
CHEMBL422215

>  <Active>  (24) 
1.0

>  <Smiles>  (24) 
CCCCCCCCCCCCC/C=C1\C(=O)O[C@@H](CO)[C@@H]1OC(C)=O

>  <canonical_smi>  (24) 
CCCCCCCCCCCCC/C=C1\C(=O)O[C@@H](CO)[C@@H]1OC(C)=O

>  <Set>  (24) 
G1 active

>  <Set_type>  (24) 
G1

>  <MW>  (24) 
368.51

>  <HBD>  (24) 
1

>  <HBA>  (24) 
5

>  <NRB>  (24) 
14

>  <NR>  (24) 
1

>  <NAR>  (24) 
0

>  <PSA>  (24) 
72.83

>  <Standard Type>  (24) 
nan

>  <Standard Relation>  (24) 
nan

>  <Standard Units>  (24) 
nan

>  <Standard Value>  (24) 
nan

>  <Assay ChEMBL ID>  (24) 
nan

>  <Assay Description>  (24) 
nan

>  <BAO Label>  (24) 
nan

$$$$

     RDKit          2D

 25 30  0  0  0  0  0  0  0  0999 V2000
   -4.2660   -1.2584    0.0000 O   0  0  0  0  0  0  0  0  0  0  0  0
   -3.9542   -2.7256    0.0000 C   0  0  0  0  0  0  0  0  0  0  0  0
   -4.9579   -3.8403    0.0000 N   0  0  0  0  0  0  0  0  0  0  0  0
   -4.2079   -5.1394    0.0000 C   0  0  0  0  0  0  0  0  0  0  0  0
   -2.7406   -4.8275    0.0000 C   0  0  0  0  0  0  0  0  0  0  0  0
   -1.5271   -5.7092    0.0000 C   0  0  0  0  0  0  0  0  0  0  0  0
   -0.1568   -5.0991    0.0000 C   0  0  0  0  0  0  0  0  0  0  0  0
   -0.0000   -3.6073    0.0000 C   0  0  0  0  0  0  0  0  0  0  0  0
    1.2135   -2.7256    0.0000 N   0  0  0  0  0  0  0  0  0  0  0  0
    0.7500   -1.2990    0.0000 C   0  0  0  0  0  0  0  0  0  0  0  0
    1.5000    0.0000    0.0000 C   0  0  0  0  0  0  0  0  0  0  0  0
    0.7500    1.2990    0.0000 C   0  0  0  0  0  0  0  0  0  0  0  0
   -0.7500    1.2990    0.0000 C   0  0  0  0  0  0  0  0  0  0  0  0
   -1.5000    0.0000    0.0000 C   0  0  0  0  0  0  0  0  0  0  0  0
   -0.7500   -1.2990    0.0000 C   0  0  0  0  0  0  0  0  0  0  0  0
   -1.2135   -2.7256    0.0000 C   0  0  0  0  0  0  0  0  0  0  0  0
   -2.5838   -3.3357    0.0000 C   0  0  0  0  0  0  0  0  0  0  0  0
    1.0567   -5.9808    0.0000 C   0  0  0  0  0  0  0  0  0  0  0  0
    0.8999   -7.4725    0.0000 C   0  0  0  0  0  0  0  0  0  0  0  0
   -0.4704   -8.0826    0.0000 C   0  0  0  0  0  0  0  0  0  0  0  0
   -0.6272   -9.5744    0.0000 C   0  0  0  0  0  0  0  0  0  0  0  0
   -1.9975  -10.1845    0.0000 C   0  0  0  0  0  0  0  0  0  0  0  0
   -3.2110   -9.3029    0.0000 C   0  0  0  0  0  0  0  0  0  0  0  0
   -3.0542   -7.8111    0.0000 C   0  0  0  0  0  0  0  0  0  0  0  0
   -1.6839   -7.2010    0.0000 C   0  0  0  0  0  0  0  0  0  0  0  0
  1  2  2  0
  2  3  1  0
  3  4  1  0
  4  5  1  0
  5  6  2  0
  6  7  1  0
  7  8  2  0
  8  9  1  0
  9 10  1  0
 10 11  2  0
 11 12  1  0
 12 13  2  0
 13 14  1  0
 14 15  2  0
 15 16  1  0
 16 17  2  0
  7 18  1  0
 18 19  1  0
 19 20  1  0
 20 21  2  0
 21 22  1  0
 22 23  2  0
 23 24  1  0
 24 25  2  0
 17  2  1  0
 25 20  1  0
 17  5  1  0
 25  6  1  0
 16  8  1  0
 15 10  1  0
M  END
>  <Compound_ID>  (25) 
CHEMBL374581

>  <Active>  (25) 
1.0

>  <Smiles>  (25) 
O=C1NCc2c3c(c4[nH]c5ccccc5c4c21)CCc1ccccc1-3

>  <canonical_smi>  (25) 
O=C1NCc2c3c(c4[nH]c5ccccc5c4c21)CCc1ccccc1-3

>  <Set>  (25) 
G1 active

>  <Set_type>  (25) 
G1

>  <MW>  (25) 
324.38

>  <HBD>  (25) 
2

>  <HBA>  (25) 
1

>  <NRB>  (25) 
0

>  <NR>  (25) 
6

>  <NAR>  (25) 
4

>  <PSA>  (25) 
44.89

>  <Standard Type>  (25) 
nan

>  <Standard Relation>  (25) 
nan

>  <Standard Units>  (25) 
nan

>  <Standard Value>  (25) 
nan

>  <Assay ChEMBL ID>  (25) 
nan

>  <Assay Description>  (25) 
nan

>  <BAO Label>  (25) 
nan

$$$$

     RDKit          2D

 40 43  0  0  0  0  0  0  0  0999 V2000
    4.0442    0.9043    0.0000 O   0  0  0  0  0  0  0  0  0  0  0  0
    3.4962    2.3006    0.0000 C   0  0  0  0  0  0  0  0  0  0  0  0
    2.0130    2.5242    0.0000 N   0  0  0  0  0  0  0  0  0  0  0  0
    1.0777    1.3515    0.0000 C   0  0  0  0  0  0  0  0  0  0  0  0
    1.7286    0.0000    0.0000 C   0  0  0  0  0  0  0  0  0  0  0  0
    1.0777   -1.3515    0.0000 C   0  0  0  0  0  0  0  0  0  0  0  0
   -0.3846   -1.6852    0.0000 C   0  0  0  0  0  0  0  0  0  0  0  0
   -1.5574   -0.7500    0.0000 C   0  0  0  0  0  0  0  0  0  0  0  0
   -1.5574    0.7500    0.0000 C   0  0  0  0  0  0  0  0  0  0  0  0
   -0.3846    1.6852    0.0000 C   0  0  0  0  0  0  0  0  0  0  0  0
   -0.7184    3.1476    0.0000 O   0  0  0  0  0  0  0  0  0  0  0  0
   -2.1518    3.5898    0.0000 C   0  0  0  0  0  0  0  0  0  0  0  0
   -3.2514    2.5695    0.0000 O   0  0  0  0  0  0  0  0  0  0  0  0
   -2.4856    5.0522    0.0000 C   0  0  0  0  0  0  0  0  0  0  0  0
   -1.3860    6.0724    0.0000 C   0  0  0  0  0  0  0  0  0  0  0  0
   -1.7198    7.5348    0.0000 C   0  0  0  0  0  0  0  0  0  0  0  0
   -0.6202    8.5551    0.0000 O   0  0  0  0  0  0  0  0  0  0  0  0
   -3.1531    7.9769    0.0000 C   0  0  0  0  0  0  0  0  0  0  0  0
   -3.4869    9.4393    0.0000 C   0  0  0  0  0  0  0  0  0  0  0  0
   -2.3873   10.4596    0.0000 O   0  0  0  0  0  0  0  0  0  0  0  0
   -4.9203    9.8815    0.0000 C   0  0  0  0  0  0  0  0  0  0  0  0
   -6.0198    8.8612    0.0000 C   0  0  0  0  0  0  0  0  0  0  0  0
   -5.9194    7.8822    0.0000 O   0  0  0  0  0  0  0  0  0  0  0  0
   -7.4532    9.3033    0.0000 C   0  0  0  0  0  0  0  0  0  0  0  0
   -7.7870   10.7657    0.0000 C   0  0  0  0  0  0  0  0  0  0  0  0
   -6.6874   11.7860    0.0000 C   0  0  0  0  0  0  0  0  0  0  0  0
   -5.2541   11.3439    0.0000 C   0  0  0  0  0  0  0  0  0  0  0  0
   -4.1545   12.3641    0.0000 C   0  0  0  0  0  0  0  0  0  0  0  0
   -2.7211   11.9220    0.0000 O   0  0  0  0  0  0  0  0  0  0  0  0
   -4.4883   13.8265    0.0000 O   0  0  0  0  0  0  0  0  0  0  0  0
   -4.2527    6.9567    0.0000 C   0  0  0  0  0  0  0  0  0  0  0  0
   -5.2215    7.1300    0.0000 O   0  0  0  0  0  0  0  0  0  0  0  0
   -3.9189    5.4943    0.0000 C   0  0  0  0  0  0  0  0  0  0  0  0
    4.4315    3.4734    0.0000 C   0  0  0  0  0  0  0  0  0  0  0  0
    5.9147    3.2498    0.0000 C   0  0  0  0  0  0  0  0  0  0  0  0
    6.8499    4.4226    0.0000 C   0  0  0  0  0  0  0  0  0  0  0  0
    6.3019    5.8189    0.0000 C   0  0  0  0  0  0  0  0  0  0  0  0
    7.2372    6.9916    0.0000 O   0  0  0  0  0  0  0  0  0  0  0  0
    4.8187    6.0424    0.0000 C   0  0  0  0  0  0  0  0  0  0  0  0
    3.8835    4.8697    0.0000 C   0  0  0  0  0  0  0  0  0  0  0  0
  1  2  2  0
  2  3  1  0
  4  3  1  6
  4  5  1  0
  5  6  1  0
  6  7  1  0
  7  8  1  0
  8  9  1  0
  9 10  1  0
 10 11  1  1
 11 12  1  0
 12 13  2  0
 12 14  1  0
 14 15  2  0
 15 16  1  0
 16 17  1  0
 16 18  2  0
 18 19  1  0
 19 20  2  0
 19 21  1  0
 21 22  2  0
 22 23  1  0
 22 24  1  0
 24 25  2  0
 25 26  1  0
 26 27  2  0
 27 28  1  0
 28 29  2  0
 28 30  1  0
 18 31  1  0
 31 32  1  0
 31 33  2  0
  2 34  1  0
 34 35  2  0
 35 36  1  0
 36 37  2  0
 37 38  1  0
 37 39  1  0
 39 40  2  0
 10  4  1  0
 33 14  1  0
 40 34  1  0
 27 21  1  0
M  END
>  <Compound_ID>  (26) 
CHEMBL304549

>  <Active>  (26) 
1.0

>  <Smiles>  (26) 
O=C(N[C@@H]1CCCCC[C@H]1OC(=O)c1cc(O)c(C(=O)c2c(O)cccc2C(=O)O)c(O)c1)c1ccc(O)cc1

>  <canonical_smi>  (26) 
O=C(N[C@@H]1CCCCC[C@H]1OC(=O)c1cc(O)c(C(=O)c2c(O)cccc2C(=O)O)c(O)c1)c1ccc(O)cc1

>  <Set>  (26) 
G1 active

>  <Set_type>  (26) 
G1

>  <MW>  (26) 
549.53

>  <HBD>  (26) 
6

>  <HBA>  (26) 
10

>  <NRB>  (26) 
7

>  <NR>  (26) 
4

>  <NAR>  (26) 
3

>  <PSA>  (26) 
190.69

>  <Standard Type>  (26) 
nan

>  <Standard Relation>  (26) 
nan

>  <Standard Units>  (26) 
nan

>  <Standard Value>  (26) 
nan

>  <Assay ChEMBL ID>  (26) 
nan

>  <Assay Description>  (26) 
nan

>  <BAO Label>  (26) 
nan

$$$$

     RDKit          2D

 37 44  0  0  0  0  0  0  0  0999 V2000
    7.0384   -5.9220    0.0000 C   0  0  0  0  0  0  0  0  0  0  0  0
    6.3474   -4.5907    0.0000 N   0  0  0  0  0  0  0  0  0  0  0  0
    4.8489   -4.5234    0.0000 C   0  0  0  0  0  0  0  0  0  0  0  0
    4.0414   -5.7874    0.0000 C   0  0  0  0  0  0  0  0  0  0  0  0
    2.5382   -5.8249    0.0000 C   0  0  0  0  0  0  0  0  0  0  0  0
    3.2490   -4.5040    0.0000 O   0  0  0  0  0  0  0  0  0  0  0  0
    2.6595   -3.1247    0.0000 C   0  0  0  0  0  0  0  0  0  0  0  0
    3.6464   -1.9951    0.0000 C   0  0  0  0  0  0  0  0  0  0  0  0
    4.1580   -3.1920    0.0000 C   0  0  0  0  0  0  0  0  0  0  0  0
    4.9655   -1.9279    0.0000 O   0  0  0  0  0  0  0  0  0  0  0  0
    6.4640   -1.9952    0.0000 C   0  0  0  0  0  0  0  0  0  0  0  0
    1.2135   -2.7256    0.0000 N   0  0  0  0  0  0  0  0  0  0  0  0
    0.7500   -1.2990    0.0000 C   0  0  0  0  0  0  0  0  0  0  0  0
    1.5000    0.0000    0.0000 C   0  0  0  0  0  0  0  0  0  0  0  0
    0.7500    1.2990    0.0000 C   0  0  0  0  0  0  0  0  0  0  0  0
   -0.7500    1.2990    0.0000 C   0  0  0  0  0  0  0  0  0  0  0  0
   -1.5000    2.5981    0.0000 O   0  0  0  0  0  0  0  0  0  0  0  0
   -1.5000    0.0000    0.0000 C   0  0  0  0  0  0  0  0  0  0  0  0
   -0.7500   -1.2990    0.0000 C   0  0  0  0  0  0  0  0  0  0  0  0
   -1.2135   -2.7256    0.0000 C   0  0  0  0  0  0  0  0  0  0  0  0
   -2.5518   -3.5691    0.0000 C   0  0  0  0  0  0  0  0  0  0  0  0
   -2.6191   -5.0676    0.0000 C   0  0  0  0  0  0  0  0  0  0  0  0
   -1.3550   -5.8751    0.0000 C   0  0  0  0  0  0  0  0  0  0  0  0
   -1.0212   -7.3375    0.0000 C   0  0  0  0  0  0  0  0  0  0  0  0
   -1.8846   -8.5641    0.0000 C   0  0  0  0  0  0  0  0  0  0  0  0
   -1.2541   -9.9251    0.0000 C   0  0  0  0  0  0  0  0  0  0  0  0
   -2.1175  -11.1517    0.0000 O   0  0  0  0  0  0  0  0  0  0  0  0
    0.2399  -10.0596    0.0000 C   0  0  0  0  0  0  0  0  0  0  0  0
    1.1033   -8.8330    0.0000 C   0  0  0  0  0  0  0  0  0  0  0  0
    0.4728   -7.4720    0.0000 C   0  0  0  0  0  0  0  0  0  0  0  0
    1.0623   -6.0927    0.0000 N   0  0  0  0  0  0  0  0  0  0  0  0
   -0.0673   -5.1058    0.0000 C   0  0  0  0  0  0  0  0  0  0  0  0
   -0.0000   -3.6073    0.0000 C   0  0  0  0  0  0  0  0  0  0  0  0
   -4.0650   -5.4667    0.0000 C   0  0  0  0  0  0  0  0  0  0  0  0
   -4.5921   -6.8710    0.0000 O   0  0  0  0  0  0  0  0  0  0  0  0
   -4.8913   -4.2148    0.0000 O   0  0  0  0  0  0  0  0  0  0  0  0
   -3.9561   -3.0421    0.0000 C   0  0  0  0  0  0  0  0  0  0  0  0
  1  2  1  0
  3  2  1  6
  3  4  1  0
  4  5  1  0
  5  6  1  0
  6  7  1  0
  7  8  1  1
  7  9  1  0
  9 10  1  6
 10 11  1  0
  7 12  1  0
 12 13  1  0
 13 14  2  0
 14 15  1  0
 15 16  2  0
 16 17  1  0
 16 18  1  0
 18 19  2  0
 19 20  1  0
 20 21  2  0
 21 22  1  0
 22 23  2  0
 23 24  1  0
 24 25  2  0
 25 26  1  0
 26 27  1  0
 26 28  2  0
 28 29  1  0
 29 30  2  0
 30 31  1  0
 31 32  1  0
 32 33  2  0
 22 34  1  0
 34 35  2  0
 34 36  1  0
 36 37  1  0
  9  3  1  0
 33 12  1  0
 31  5  1  0
 19 13  1  0
 33 20  1  0
 37 21  1  0
 32 23  1  0
 30 24  1  0
M  END
>  <Compound_ID>  (27) 
CHEMBL55382

>  <Active>  (27) 
1.0

>  <Smiles>  (27) 
CN[C@@H]1CC2O[C@@](C)([C@@H]1OC)n1c3ccc(O)cc3c3c4c(c5c6cc(O)ccc6n2c5c31)C(=O)OC4

>  <canonical_smi>  (27) 
CN[C@@H]1CC2O[C@@](C)([C@@H]1OC)n1c3ccc(O)cc3c3c4c(c5c6cc(O)ccc6n2c5c31)C(=O)OC4

>  <Set>  (27) 
G1 active

>  <Set_type>  (27) 
G1

>  <MW>  (27) 
499.52

>  <HBD>  (27) 
3

>  <HBA>  (27) 
7

>  <NRB>  (27) 
2

>  <NR>  (27) 
8

>  <NAR>  (27) 
5

>  <PSA>  (27) 
107.11

>  <Standard Type>  (27) 
nan

>  <Standard Relation>  (27) 
nan

>  <Standard Units>  (27) 
nan

>  <Standard Value>  (27) 
nan

>  <Assay ChEMBL ID>  (27) 
nan

>  <Assay Description>  (27) 
nan

>  <BAO Label>  (27) 
nan

$$$$

     RDKit          2D

 40 44  0  0  0  0  0  0  0  0999 V2000
    5.9262   -5.9767    0.0000 O   0  0  0  0  0  0  0  0  0  0  0  0
    5.4627   -4.5501    0.0000 C   0  0  0  0  0  0  0  0  0  0  0  0
    3.9955   -4.2382    0.0000 N   0  0  0  0  0  0  0  0  0  0  0  0
    2.9918   -5.3529    0.0000 C   0  0  0  0  0  0  0  0  0  0  0  0
    3.3037   -6.8202    0.0000 C   0  0  0  0  0  0  0  0  0  0  0  0
    2.0046   -7.5702    0.0000 C   0  0  0  0  0  0  0  0  0  0  0  0
    0.8899   -6.5665    0.0000 C   0  0  0  0  0  0  0  0  0  0  0  0
    1.5000   -5.1962    0.0000 C   0  0  0  0  0  0  0  0  0  0  0  0
    0.7500   -3.8971    0.0000 O   0  0  0  0  0  0  0  0  0  0  0  0
    1.5000   -2.5981    0.0000 C   0  0  0  0  0  0  0  0  0  0  0  0
    3.0000   -2.5981    0.0000 O   0  0  0  0  0  0  0  0  0  0  0  0
    0.7500   -1.2990    0.0000 C   0  0  0  0  0  0  0  0  0  0  0  0
    1.5000    0.0000    0.0000 C   0  0  0  0  0  0  0  0  0  0  0  0
    0.7500    1.2990    0.0000 C   0  0  0  0  0  0  0  0  0  0  0  0
    1.5000    2.5981    0.0000 O   0  0  0  0  0  0  0  0  0  0  0  0
   -0.7500    1.2990    0.0000 C   0  0  0  0  0  0  0  0  0  0  0  0
   -1.5000    2.5981    0.0000 C   0  0  0  0  0  0  0  0  0  0  0  0
   -0.7500    3.8971    0.0000 O   0  0  0  0  0  0  0  0  0  0  0  0
   -3.0000    2.5981    0.0000 C   0  0  0  0  0  0  0  0  0  0  0  0
   -3.7500    1.2990    0.0000 C   0  0  0  0  0  0  0  0  0  0  0  0
   -3.3655    0.3931    0.0000 O   0  0  0  0  0  0  0  0  0  0  0  0
   -5.2500    1.2990    0.0000 C   0  0  0  0  0  0  0  0  0  0  0  0
   -6.0000    2.5981    0.0000 C   0  0  0  0  0  0  0  0  0  0  0  0
   -5.2500    3.8971    0.0000 C   0  0  0  0  0  0  0  0  0  0  0  0
   -3.7500    3.8971    0.0000 C   0  0  0  0  0  0  0  0  0  0  0  0
   -3.0000    5.1962    0.0000 C   0  0  0  0  0  0  0  0  0  0  0  0
   -1.5082    5.3529    0.0000 N   0  0  0  0  0  0  0  0  0  0  0  0
   -1.1963    6.8202    0.0000 N   0  0  0  0  0  0  0  0  0  0  0  0
   -2.4954    7.5702    0.0000 N   0  0  0  0  0  0  0  0  0  0  0  0
   -3.6101    6.5665    0.0000 N   0  0  0  0  0  0  0  0  0  0  0  0
   -1.5000    0.0000    0.0000 C   0  0  0  0  0  0  0  0  0  0  0  0
   -2.4768   -0.1200    0.0000 O   0  0  0  0  0  0  0  0  0  0  0  0
   -0.7500   -1.2990    0.0000 C   0  0  0  0  0  0  0  0  0  0  0  0
    6.4664   -3.4354    0.0000 C   0  0  0  0  0  0  0  0  0  0  0  0
    7.9336   -3.7472    0.0000 C   0  0  0  0  0  0  0  0  0  0  0  0
    8.9373   -2.6325    0.0000 C   0  0  0  0  0  0  0  0  0  0  0  0
    8.4738   -1.2059    0.0000 C   0  0  0  0  0  0  0  0  0  0  0  0
    9.4775   -0.0912    0.0000 O   0  0  0  0  0  0  0  0  0  0  0  0
    7.0066   -0.8941    0.0000 C   0  0  0  0  0  0  0  0  0  0  0  0
    6.0029   -2.0088    0.0000 C   0  0  0  0  0  0  0  0  0  0  0  0
  1  2  2  0
  2  3  1  0
  3  4  1  0
  4  5  1  0
  5  6  1  0
  6  7  1  0
  7  8  1  0
  8  9  1  0
  9 10  1  0
 10 11  2  0
 10 12  1  0
 12 13  2  0
 13 14  1  0
 14 15  1  0
 14 16  2  0
 16 17  1  0
 17 18  2  0
 17 19  1  0
 19 20  2  0
 20 21  1  0
 20 22  1  0
 22 23  2  0
 23 24  1  0
 24 25  2  0
 25 26  1  0
 26 27  1  0
 27 28  2  0
 28 29  1  0
 29 30  1  0
 16 31  1  0
 31 32  1  0
 31 33  2  0
  2 34  1  0
 34 35  2  0
 35 36  1  0
 36 37  2  0
 37 38  1  0
 37 39  1  0
 39 40  2  0
  8  4  1  0
 33 12  1  0
 40 34  1  0
 25 19  1  0
 30 26  2  0
M  END
>  <Compound_ID>  (28) 
CHEMBL89384

>  <Active>  (28) 
1.0

>  <Smiles>  (28) 
O=C(NC1CCCC1OC(=O)c1cc(O)c(C(=O)c2c(O)cccc2-c2nn[nH]n2)c(O)c1)c1ccc(O)cc1

>  <canonical_smi>  (28) 
O=C(NC1CCCC1OC(=O)c1cc(O)c(C(=O)c2c(O)cccc2-c2nn[nH]n2)c(O)c1)c1ccc(O)cc1

>  <Set>  (28) 
G1 active

>  <Set_type>  (28) 
G1

>  <MW>  (28) 
545.51

>  <HBD>  (28) 
6

>  <HBA>  (28) 
11

>  <NRB>  (28) 
7

>  <NR>  (28) 
5

>  <NAR>  (28) 
4

>  <PSA>  (28) 
207.85

>  <Standard Type>  (28) 
nan

>  <Standard Relation>  (28) 
nan

>  <Standard Units>  (28) 
nan

>  <Standard Value>  (28) 
nan

>  <Assay ChEMBL ID>  (28) 
nan

>  <Assay Description>  (28) 
nan

>  <BAO Label>  (28) 
nan

$$$$

     RDKit          2D

 39 43  0  0  0  0  0  0  0  0999 V2000
   10.4262  -11.1728    0.0000 O   0  0  0  0  0  0  0  0  0  0  0  0
    9.9627   -9.7462    0.0000 C   0  0  0  0  0  0  0  0  0  0  0  0
    8.4955   -9.4344    0.0000 N   0  0  0  0  0  0  0  0  0  0  0  0
    7.4918  -10.5491    0.0000 C   0  0  0  0  0  0  0  0  0  0  0  0
    7.8037  -12.0163    0.0000 C   0  0  0  0  0  0  0  0  0  0  0  0
    6.5046  -12.7663    0.0000 N   0  0  0  0  0  0  0  0  0  0  0  0
    5.3899  -11.7626    0.0000 C   0  0  0  0  0  0  0  0  0  0  0  0
    6.0000  -10.3923    0.0000 C   0  0  0  0  0  0  0  0  0  0  0  0
    5.2500   -9.0933    0.0000 O   0  0  0  0  0  0  0  0  0  0  0  0
    6.0000   -7.7942    0.0000 C   0  0  0  0  0  0  0  0  0  0  0  0
    7.5000   -7.7942    0.0000 O   0  0  0  0  0  0  0  0  0  0  0  0
    5.2500   -6.4952    0.0000 C   0  0  0  0  0  0  0  0  0  0  0  0
    6.0000   -5.1962    0.0000 C   0  0  0  0  0  0  0  0  0  0  0  0
    5.2500   -3.8971    0.0000 C   0  0  0  0  0  0  0  0  0  0  0  0
    6.0000   -2.5981    0.0000 O   0  0  0  0  0  0  0  0  0  0  0  0
    3.7500   -3.8971    0.0000 C   0  0  0  0  0  0  0  0  0  0  0  0
    3.0000   -2.5981    0.0000 C   0  0  0  0  0  0  0  0  0  0  0  0
    3.7500   -1.2990    0.0000 O   0  0  0  0  0  0  0  0  0  0  0  0
    1.5000   -2.5981    0.0000 C   0  0  0  0  0  0  0  0  0  0  0  0
    0.7500   -3.8971    0.0000 C   0  0  0  0  0  0  0  0  0  0  0  0
    1.1345   -4.8030    0.0000 O   0  0  0  0  0  0  0  0  0  0  0  0
   -0.7500   -3.8971    0.0000 C   0  0  0  0  0  0  0  0  0  0  0  0
   -1.5000   -2.5981    0.0000 C   0  0  0  0  0  0  0  0  0  0  0  0
   -0.7500   -1.2990    0.0000 C   0  0  0  0  0  0  0  0  0  0  0  0
    0.7500   -1.2990    0.0000 C   0  0  0  0  0  0  0  0  0  0  0  0
    1.5000   -0.0000    0.0000 C   0  0  0  0  0  0  0  0  0  0  0  0
    0.7500    1.2990    0.0000 C   0  0  0  0  0  0  0  0  0  0  0  0
   -0.7500    1.2990    0.0000 C   0  0  0  0  0  0  0  0  0  0  0  0
   -1.5000   -0.0000    0.0000 C   0  0  0  0  0  0  0  0  0  0  0  0
    3.0000   -5.1962    0.0000 C   0  0  0  0  0  0  0  0  0  0  0  0
    2.0232   -5.3161    0.0000 O   0  0  0  0  0  0  0  0  0  0  0  0
    3.7500   -6.4952    0.0000 C   0  0  0  0  0  0  0  0  0  0  0  0
   10.9664   -8.6315    0.0000 C   0  0  0  0  0  0  0  0  0  0  0  0
   12.4336   -8.9434    0.0000 C   0  0  0  0  0  0  0  0  0  0  0  0
   13.4373   -7.8287    0.0000 C   0  0  0  0  0  0  0  0  0  0  0  0
   12.9738   -6.4021    0.0000 C   0  0  0  0  0  0  0  0  0  0  0  0
   13.9775   -5.2874    0.0000 O   0  0  0  0  0  0  0  0  0  0  0  0
   11.5066   -6.0902    0.0000 C   0  0  0  0  0  0  0  0  0  0  0  0
   10.5029   -7.2049    0.0000 C   0  0  0  0  0  0  0  0  0  0  0  0
  1  2  2  0
  2  3  1  0
  3  4  1  0
  4  5  1  0
  5  6  1  0
  6  7  1  0
  7  8  1  0
  8  9  1  0
  9 10  1  0
 10 11  2  0
 10 12  1  0
 12 13  2  0
 13 14  1  0
 14 15  1  0
 14 16  2  0
 16 17  1  0
 17 18  2  0
 17 19  1  0
 19 20  2  0
 20 21  1  0
 20 22  1  0
 22 23  2  0
 23 24  1  0
 24 25  2  0
 25 26  1  0
 26 27  1  0
 27 28  1  0
 28 29  1  0
 16 30  1  0
 30 31  1  0
 30 32  2  0
  2 33  1  0
 33 34  2  0
 34 35  1  0
 35 36  2  0
 36 37  1  0
 36 38  1  0
 38 39  2  0
  8  4  1  0
 32 12  1  0
 39 33  1  0
 25 19  1  0
 29 24  1  0
M  END
>  <Compound_ID>  (29) 
CHEMBL91126

>  <Active>  (29) 
1.0

>  <Smiles>  (29) 
O=C(NC1CNCC1OC(=O)c1cc(O)c(C(=O)c2c(O)ccc3c2CCCC3)c(O)c1)c1ccc(O)cc1

>  <canonical_smi>  (29) 
O=C(NC1CNCC1OC(=O)c1cc(O)c(C(=O)c2c(O)ccc3c2CCCC3)c(O)c1)c1ccc(O)cc1

>  <Set>  (29) 
G1 active

>  <Set_type>  (29) 
G1

>  <MW>  (29) 
532.55

>  <HBD>  (29) 
6

>  <HBA>  (29) 
9

>  <NRB>  (29) 
6

>  <NR>  (29) 
5

>  <NAR>  (29) 
3

>  <PSA>  (29) 
165.42

>  <Standard Type>  (29) 
nan

>  <Standard Relation>  (29) 
nan

>  <Standard Units>  (29) 
nan

>  <Standard Value>  (29) 
nan

>  <Assay ChEMBL ID>  (29) 
nan

>  <Assay Description>  (29) 
nan

>  <BAO Label>  (29) 
nan

$$$$

     RDKit          2D

 29 30  0  0  0  0  0  0  0  0999 V2000
  -11.6291   -2.3259    0.0000 N   0  0  0  0  0  0  0  0  0  0  0  0
  -10.6255   -3.4406    0.0000 C   0  0  0  0  0  0  0  0  0  0  0  0
  -11.0890   -4.8672    0.0000 N   0  0  0  0  0  0  0  0  0  0  0  0
   -9.1582   -3.1287    0.0000 N   0  0  0  0  0  0  0  0  0  0  0  0
   -8.1545   -4.2434    0.0000 C   0  0  0  0  0  0  0  0  0  0  0  0
   -6.6873   -3.9316    0.0000 C   0  0  0  0  0  0  0  0  0  0  0  0
   -5.6836   -5.0463    0.0000 C   0  0  0  0  0  0  0  0  0  0  0  0
   -4.2164   -4.7344    0.0000 C   0  0  0  0  0  0  0  0  0  0  0  0
   -3.7529   -3.3078    0.0000 C   0  0  0  0  0  0  0  0  0  0  0  0
   -4.7566   -2.1931    0.0000 Cl  0  0  0  0  0  0  0  0  0  0  0  0
   -3.2127   -5.8491    0.0000 N   0  0  0  0  0  0  0  0  0  0  0  0
   -1.7455   -5.5373    0.0000 C   0  0  0  0  0  0  0  0  0  0  0  0
   -1.2820   -4.1107    0.0000 O   0  0  0  0  0  0  0  0  0  0  0  0
   -0.7418   -6.6520    0.0000 C   0  0  0  0  0  0  0  0  0  0  0  0
   -1.0537   -8.1192    0.0000 C   0  0  0  0  0  0  0  0  0  0  0  0
    0.2454   -8.8692    0.0000 C   0  0  0  0  0  0  0  0  0  0  0  0
    1.3601   -7.8655    0.0000 C   0  0  0  0  0  0  0  0  0  0  0  0
    0.7500   -6.4952    0.0000 N   0  0  0  0  0  0  0  0  0  0  0  0
    1.5000   -5.1962    0.0000 C   0  0  0  0  0  0  0  0  0  0  0  0
    0.7500   -3.8971    0.0000 O   0  0  0  0  0  0  0  0  0  0  0  0
    3.0000   -5.1962    0.0000 C   0  0  0  0  0  0  0  0  0  0  0  0
    3.7500   -6.4952    0.0000 N   0  0  0  0  0  0  0  0  0  0  0  0
    3.7500   -3.8971    0.0000 C   0  0  0  0  0  0  0  0  0  0  0  0
    5.2500   -3.8971    0.0000 C   0  0  0  0  0  0  0  0  0  0  0  0
    6.0000   -2.5981    0.0000 C   0  0  0  0  0  0  0  0  0  0  0  0
    7.5000   -2.5981    0.0000 C   0  0  0  0  0  0  0  0  0  0  0  0
    8.2500   -3.8971    0.0000 C   0  0  0  0  0  0  0  0  0  0  0  0
    7.5000   -5.1962    0.0000 C   0  0  0  0  0  0  0  0  0  0  0  0
    6.0000   -5.1962    0.0000 C   0  0  0  0  0  0  0  0  0  0  0  0
  1  2  1  0
  2  3  1  0
  2  4  2  0
  4  5  1  0
  5  6  1  0
  6  7  1  0
  8  7  1  1
  8  9  1  0
  9 10  1  0
  8 11  1  0
 11 12  1  0
 12 13  2  0
 14 12  1  1
 14 15  1  0
 15 16  1  0
 16 17  1  0
 17 18  1  0
 18 19  1  0
 19 20  2  0
 19 21  1  0
 21 22  1  1
 21 23  1  0
 23 24  1  0
 24 25  2  0
 25 26  1  0
 26 27  2  0
 27 28  1  0
 28 29  2  0
 18 14  1  0
 29 24  1  0
M  END
>  <Compound_ID>  (30) 
CHEMBL265315

>  <Active>  (30) 
1.0

>  <Smiles>  (30) 
NC(N)=NCCC[C@@H](CCl)NC(=O)[C@@H]1CCCN1C(=O)[C@H](N)Cc1ccccc1

>  <canonical_smi>  (30) 
NC(N)=NCCC[C@@H](CCl)NC(=O)[C@@H]1CCCN1C(=O)[C@H](N)Cc1ccccc1

>  <Set>  (30) 
G1 active

>  <Set_type>  (30) 
G1

>  <MW>  (30) 
422.96

>  <HBD>  (30) 
4

>  <HBA>  (30) 
5

>  <NRB>  (30) 
10

>  <NR>  (30) 
2

>  <NAR>  (30) 
1

>  <PSA>  (30) 
139.83

>  <Standard Type>  (30) 
nan

>  <Standard Relation>  (30) 
nan

>  <Standard Units>  (30) 
nan

>  <Standard Value>  (30) 
nan

>  <Assay ChEMBL ID>  (30) 
nan

>  <Assay Description>  (30) 
nan

>  <BAO Label>  (30) 
nan

$$$$

     RDKit          2D

 19 21  0  0  0  0  0  0  0  0999 V2000
    3.5260   -1.2990    0.0000 O   0  0  0  0  0  0  0  0  0  0  0  0
    2.7760    0.0000    0.0000 C   0  0  0  0  0  0  0  0  0  0  0  0
    1.2760    0.0000    0.0000 C   0  0  0  0  0  0  0  0  0  0  0  0
    0.3943    1.2135    0.0000 C   0  0  0  0  0  0  0  0  0  0  0  0
   -1.0323    0.7500    0.0000 C   0  0  0  0  0  0  0  0  0  0  0  0
   -1.0323   -0.7500    0.0000 C   0  0  0  0  0  0  0  0  0  0  0  0
   -2.2458   -1.6317    0.0000 C   0  0  0  0  0  0  0  0  0  0  0  0
   -2.2458   -3.1317    0.0000 C   0  0  0  0  0  0  0  0  0  0  0  0
   -3.6724   -3.5952    0.0000 C   0  0  0  0  0  0  0  0  0  0  0  0
   -4.5541   -2.3817    0.0000 C   0  0  0  0  0  0  0  0  0  0  0  0
   -6.0541   -2.3817    0.0000 C   0  0  0  0  0  0  0  0  0  0  0  0
   -6.9358   -3.5952    0.0000 C   0  0  0  0  0  0  0  0  0  0  0  0
   -8.3623   -3.1317    0.0000 C   0  0  0  0  0  0  0  0  0  0  0  0
   -8.3623   -1.6317    0.0000 C   0  0  0  0  0  0  0  0  0  0  0  0
   -9.5759   -0.7500    0.0000 C   0  0  0  0  0  0  0  0  0  0  0  0
   -9.4191    0.7418    0.0000 O   0  0  0  0  0  0  0  0  0  0  0  0
   -6.9358   -1.1682    0.0000 S   0  0  0  0  0  0  0  0  0  0  0  0
   -3.6724   -1.1682    0.0000 S   0  0  0  0  0  0  0  0  0  0  0  0
    0.3943   -1.2135    0.0000 S   0  0  0  0  0  0  0  0  0  0  0  0
  1  2  2  0
  2  3  1  0
  3  4  2  0
  4  5  1  0
  5  6  2  0
  6  7  1  0
  7  8  2  0
  8  9  1  0
  9 10  2  0
 10 11  1  0
 11 12  2  0
 12 13  1  0
 13 14  2  0
 14 15  1  0
 15 16  2  0
 14 17  1  0
 10 18  1  0
  6 19  1  0
 19  3  1  0
 18  7  1  0
 17 11  1  0
M  END
>  <Compound_ID>  (31) 
CHEMBL90598

>  <Active>  (31) 
1.0

>  <Smiles>  (31) 
O=Cc1ccc(-c2ccc(-c3ccc(C=O)s3)s2)s1

>  <canonical_smi>  (31) 
O=Cc1ccc(-c2ccc(-c3ccc(C=O)s3)s2)s1

>  <Set>  (31) 
G1 active

>  <Set_type>  (31) 
G1

>  <MW>  (31) 
304.42

>  <HBD>  (31) 
0

>  <HBA>  (31) 
2

>  <NRB>  (31) 
4

>  <NR>  (31) 
3

>  <NAR>  (31) 
3

>  <PSA>  (31) 
34.14

>  <Standard Type>  (31) 
nan

>  <Standard Relation>  (31) 
nan

>  <Standard Units>  (31) 
nan

>  <Standard Value>  (31) 
nan

>  <Assay ChEMBL ID>  (31) 
nan

>  <Assay Description>  (31) 
nan

>  <BAO Label>  (31) 
nan

$$$$

     RDKit          2D

 24 26  0  0  0  0  0  0  0  0999 V2000
   -2.6380    5.6918    0.0000 C   0  0  0  0  0  0  0  0  0  0  0  0
   -2.9499    4.2246    0.0000 C   0  0  0  0  0  0  0  0  0  0  0  0
   -4.3764    3.7611    0.0000 O   0  0  0  0  0  0  0  0  0  0  0  0
   -1.8351    3.2209    0.0000 C   0  0  0  0  0  0  0  0  0  0  0  0
   -0.4086    3.6844    0.0000 C   0  0  0  0  0  0  0  0  0  0  0  0
   -0.0967    5.1517    0.0000 O   0  0  0  0  0  0  0  0  0  0  0  0
    0.7062    2.6807    0.0000 C   0  0  0  0  0  0  0  0  0  0  0  0
    0.3943    1.2135    0.0000 C   0  0  0  0  0  0  0  0  0  0  0  0
    1.2760    0.0000    0.0000 O   0  0  0  0  0  0  0  0  0  0  0  0
    0.3943   -1.2135    0.0000 C   0  0  0  0  0  0  0  0  0  0  0  0
    0.7062   -2.6807    0.0000 C   0  0  0  0  0  0  0  0  0  0  0  0
    2.1328   -3.1443    0.0000 C   0  0  0  0  0  0  0  0  0  0  0  0
    2.4446   -4.6115    0.0000 N   0  0  0  0  0  0  0  0  0  0  0  0
    3.2475   -2.1406    0.0000 O   0  0  0  0  0  0  0  0  0  0  0  0
   -0.4086   -3.6844    0.0000 C   0  0  0  0  0  0  0  0  0  0  0  0
   -0.0967   -5.1517    0.0000 O   0  0  0  0  0  0  0  0  0  0  0  0
   -1.8351   -3.2209    0.0000 C   0  0  0  0  0  0  0  0  0  0  0  0
   -2.1470   -1.7537    0.0000 C   0  0  0  0  0  0  0  0  0  0  0  0
   -3.5736   -1.2902    0.0000 O   0  0  0  0  0  0  0  0  0  0  0  0
   -1.0323   -0.7500    0.0000 C   0  0  0  0  0  0  0  0  0  0  0  0
   -1.0323    0.7500    0.0000 C   0  0  0  0  0  0  0  0  0  0  0  0
   -2.4026    0.1399    0.0000 C   0  0  0  0  0  0  0  0  0  0  0  0
   -2.1470    1.7537    0.0000 C   0  0  0  0  0  0  0  0  0  0  0  0
   -3.5736    1.2902    0.0000 O   0  0  0  0  0  0  0  0  0  0  0  0
  1  2  1  0
  2  3  2  0
  2  4  1  0
  4  5  2  0
  5  6  1  0
  5  7  1  0
  7  8  2  0
  8  9  1  0
  9 10  1  0
 10 11  2  0
 11 12  1  0
 12 13  1  0
 12 14  2  0
 11 15  1  0
 15 16  1  0
 15 17  2  0
 17 18  1  0
 18 19  1  0
 18 20  2  0
 20 21  1  0
 21 22  1  1
 21 23  1  0
 23 24  2  0
 23  4  1  0
 21  8  1  0
 20 10  1  0
M  END
>  <Compound_ID>  (32) 
CHEMBL475816

>  <Active>  (32) 
1.0

>  <Smiles>  (32) 
CC(=O)C1=C(O)C=C2Oc3c(C(N)=O)c(O)cc(O)c3[C@]2(C)C1=O

>  <canonical_smi>  (32) 
CC(=O)C1=C(O)C=C2Oc3c(C(N)=O)c(O)cc(O)c3[C@]2(C)C1=O

>  <Set>  (32) 
G1 active

>  <Set_type>  (32) 
G1

>  <MW>  (32) 
331.28

>  <HBD>  (32) 
4

>  <HBA>  (32) 
7

>  <NRB>  (32) 
2

>  <NR>  (32) 
3

>  <NAR>  (32) 
1

>  <PSA>  (32) 
147.15

>  <Standard Type>  (32) 
nan

>  <Standard Relation>  (32) 
nan

>  <Standard Units>  (32) 
nan

>  <Standard Value>  (32) 
nan

>  <Assay ChEMBL ID>  (32) 
nan

>  <Assay Description>  (32) 
nan

>  <BAO Label>  (32) 
nan

$$$$

     RDKit          2D

 34 36  0  0  0  0  0  0  0  0999 V2000
   -0.7500   -9.0933    0.0000 O   0  0  0  0  0  0  0  0  0  0  0  0
    0.7500   -9.0933    0.0000 C   0  0  0  0  0  0  0  0  0  0  0  0
    1.5000   -7.7942    0.0000 O   0  0  0  0  0  0  0  0  0  0  0  0
    0.7500   -6.4952    0.0000 C   0  0  0  0  0  0  0  0  0  0  0  0
    1.5000   -5.1962    0.0000 C   0  0  0  0  0  0  0  0  0  0  0  0
    0.7500   -3.8971    0.0000 C   0  0  0  0  0  0  0  0  0  0  0  0
    1.5000   -2.5981    0.0000 C   0  0  0  0  0  0  0  0  0  0  0  0
    0.7500   -1.2990    0.0000 C   0  0  0  0  0  0  0  0  0  0  0  0
    1.5000    0.0000    0.0000 C   0  0  0  0  0  0  0  0  0  0  0  0
    0.7500    1.2990    0.0000 C   0  0  0  0  0  0  0  0  0  0  0  0
   -0.7500    1.2990    0.0000 C   0  0  0  0  0  0  0  0  0  0  0  0
   -1.5000    2.5981    0.0000 O   0  0  0  0  0  0  0  0  0  0  0  0
   -1.5000    0.0000    0.0000 C   0  0  0  0  0  0  0  0  0  0  0  0
   -0.7500   -1.2990    0.0000 C   0  0  0  0  0  0  0  0  0  0  0  0
    1.5000  -10.3923    0.0000 C   0  0  0  0  0  0  0  0  0  0  0  0
    0.7500  -11.6913    0.0000 C   0  0  0  0  0  0  0  0  0  0  0  0
    1.5000  -12.9904    0.0000 C   0  0  0  0  0  0  0  0  0  0  0  0
    0.9077  -13.7763    0.0000 O   0  0  0  0  0  0  0  0  0  0  0  0
    3.0000  -12.9904    0.0000 C   0  0  0  0  0  0  0  0  0  0  0  0
    3.7500  -14.2894    0.0000 C   0  0  0  0  0  0  0  0  0  0  0  0
    5.2500  -14.2894    0.0000 O   0  0  0  0  0  0  0  0  0  0  0  0
    3.0000  -15.5885    0.0000 C   0  0  0  0  0  0  0  0  0  0  0  0
    1.5000  -15.5885    0.0000 C   0  0  0  0  0  0  0  0  0  0  0  0
    0.9077  -14.8025    0.0000 O   0  0  0  0  0  0  0  0  0  0  0  0
    0.7500  -16.8875    0.0000 C   0  0  0  0  0  0  0  0  0  0  0  0
    1.5000  -18.1865    0.0000 C   0  0  0  0  0  0  0  0  0  0  0  0
    3.0000  -18.1865    0.0000 C   0  0  0  0  0  0  0  0  0  0  0  0
    3.7500  -16.8875    0.0000 C   0  0  0  0  0  0  0  0  0  0  0  0
    5.2500  -16.8875    0.0000 C   0  0  0  0  0  0  0  0  0  0  0  0
    6.0000  -15.5885    0.0000 O   0  0  0  0  0  0  0  0  0  0  0  0
    6.0000  -18.1865    0.0000 O   0  0  0  0  0  0  0  0  0  0  0  0
    3.7500  -11.6913    0.0000 C   0  0  0  0  0  0  0  0  0  0  0  0
    5.2500  -11.6913    0.0000 O   0  0  0  0  0  0  0  0  0  0  0  0
    3.0000  -10.3923    0.0000 C   0  0  0  0  0  0  0  0  0  0  0  0
  1  2  2  0
  2  3  1  0
  3  4  1  0
  4  5  1  0
  5  6  1  0
  6  7  1  0
  7  8  1  0
  8  9  2  0
  9 10  1  0
 10 11  2  0
 11 12  1  0
 11 13  1  0
 13 14  2  0
  2 15  1  0
 15 16  2  0
 16 17  1  0
 17 18  1  0
 17 19  2  0
 19 20  1  0
 20 21  2  0
 20 22  1  0
 22 23  2  0
 23 24  1  0
 23 25  1  0
 25 26  2  0
 26 27  1  0
 27 28  2  0
 28 29  1  0
 29 30  2  0
 29 31  1  0
 19 32  1  0
 32 33  1  0
 32 34  2  0
 14  8  1  0
 34 15  1  0
 28 22  1  0
M  END
>  <Compound_ID>  (33) 
CHEMBL439996

>  <Active>  (33) 
1.0

>  <Smiles>  (33) 
O=C(OCCCCc1ccc(O)cc1)c1cc(O)c(C(=O)c2c(O)cccc2C(=O)O)c(O)c1

>  <canonical_smi>  (33) 
O=C(OCCCCc1ccc(O)cc1)c1cc(O)c(C(=O)c2c(O)cccc2C(=O)O)c(O)c1

>  <Set>  (33) 
G1 active

>  <Set_type>  (33) 
G1

>  <MW>  (33) 
466.44

>  <HBD>  (33) 
5

>  <HBA>  (33) 
9

>  <NRB>  (33) 
9

>  <NR>  (33) 
3

>  <NAR>  (33) 
3

>  <PSA>  (33) 
161.59

>  <Standard Type>  (33) 
nan

>  <Standard Relation>  (33) 
nan

>  <Standard Units>  (33) 
nan

>  <Standard Value>  (33) 
nan

>  <Assay ChEMBL ID>  (33) 
nan

>  <Assay Description>  (33) 
nan

>  <BAO Label>  (33) 
nan

$$$$

     RDKit          2D

 29 32  0  0  0  0  0  0  0  0999 V2000
   -7.3313    1.8607    0.0000 C   0  0  0  0  0  0  0  0  0  0  0  0
   -5.9218    2.3737    0.0000 C   0  0  0  0  0  0  0  0  0  0  0  0
   -5.6613    3.8509    0.0000 C   0  0  0  0  0  0  0  0  0  0  0  0
   -4.7727    1.4095    0.0000 C   0  0  0  0  0  0  0  0  0  0  0  0
   -3.4737    2.1595    0.0000 N   0  0  0  0  0  0  0  0  0  0  0  0
   -1.9965    1.8991    0.0000 C   0  0  0  0  0  0  0  0  0  0  0  0
   -1.6897    3.3715    0.0000 C   0  0  0  0  0  0  0  0  0  0  0  0
   -0.2342    3.7344    0.0000 C   0  0  0  0  0  0  0  0  0  0  0  0
    0.8078    2.6554    0.0000 C   0  0  0  0  0  0  0  0  0  0  0  0
    0.3943    1.2135    0.0000 C   0  0  0  0  0  0  0  0  0  0  0  0
    1.2760    0.0000    0.0000 N   0  0  0  0  0  0  0  0  0  0  0  0
    0.3943   -1.2135    0.0000 C   0  0  0  0  0  0  0  0  0  0  0  0
   -1.0323   -0.7500    0.0000 C   0  0  0  0  0  0  0  0  0  0  0  0
   -1.0323    0.7500    0.0000 C   0  0  0  0  0  0  0  0  0  0  0  0
   -1.9965   -1.8991    0.0000 C   0  0  0  0  0  0  0  0  0  0  0  0
   -3.4737   -2.1595    0.0000 C   0  0  0  0  0  0  0  0  0  0  0  0
   -3.7342   -3.6368    0.0000 C   0  0  0  0  0  0  0  0  0  0  0  0
   -5.1437   -4.1498    0.0000 O   0  0  0  0  0  0  0  0  0  0  0  0
   -4.7727   -1.4095    0.0000 N   0  0  0  0  0  0  0  0  0  0  0  0
   -5.2857    0.0000    0.0000 C   0  0  0  0  0  0  0  0  0  0  0  0
   -6.7857    0.0000    0.0000 O   0  0  0  0  0  0  0  0  0  0  0  0
    0.1792    5.1763    0.0000 C   0  0  0  0  0  0  0  0  0  0  0  0
    1.0609    6.3898    0.0000 C   0  0  0  0  0  0  0  0  0  0  0  0
    1.5274    4.5188    0.0000 C   0  0  0  0  0  0  0  0  0  0  0  0
   -0.8628    6.2553    0.0000 C   0  0  0  0  0  0  0  0  0  0  0  0
   -2.3182    5.8924    0.0000 C   0  0  0  0  0  0  0  0  0  0  0  0
   -2.7317    4.4506    0.0000 C   0  0  0  0  0  0  0  0  0  0  0  0
   -3.6133    3.2370    0.0000 C   0  0  0  0  0  0  0  0  0  0  0  0
   -4.0799    5.1081    0.0000 C   0  0  0  0  0  0  0  0  0  0  0  0
  1  2  1  0
  2  3  1  0
  4  2  1  6
  4  5  1  0
  5  6  1  0
  6  7  2  0
  7  8  1  0
  8  9  2  0
  9 10  1  0
 10 11  1  0
 11 12  1  0
 12 13  2  0
 13 14  1  0
 13 15  1  0
 15 16  1  0
 16 17  1  1
 17 18  1  0
 16 19  1  0
 19 20  1  0
 20 21  2  0
  8 22  1  0
 22 23  1  0
 22 24  1  0
 22 25  1  0
 25 26  1  0
 26 27  1  0
 27 28  1  0
 27 29  1  0
 20  4  1  0
 14  6  1  0
 27  7  1  0
 14 10  2  0
M  END
>  <Compound_ID>  (34) 
CHEMBL143453

>  <Active>  (34) 
1.0

>  <Smiles>  (34) 
CC(C)[C@@H]1Nc2c3c(cc4[nH]cc(c24)C[C@@H](CO)NC1=O)C(C)(C)CCC3(C)C

>  <canonical_smi>  (34) 
CC(C)[C@@H]1Nc2c3c(cc4[nH]cc(c24)C[C@@H](CO)NC1=O)C(C)(C)CCC3(C)C

>  <Set>  (34) 
G1 active

>  <Set_type>  (34) 
G1

>  <MW>  (34) 
397.56

>  <HBD>  (34) 
4

>  <HBA>  (34) 
3

>  <NRB>  (34) 
2

>  <NR>  (34) 
4

>  <NAR>  (34) 
2

>  <PSA>  (34) 
77.15

>  <Standard Type>  (34) 
nan

>  <Standard Relation>  (34) 
nan

>  <Standard Units>  (34) 
nan

>  <Standard Value>  (34) 
nan

>  <Assay ChEMBL ID>  (34) 
nan

>  <Assay Description>  (34) 
nan

>  <BAO Label>  (34) 
nan

$$$$

     RDKit          2D

 29 31  0  0  0  0  0  0  0  0999 V2000
  -10.5911    1.3086    0.0000 C   0  0  0  0  0  0  0  0  0  0  0  0
   -9.1645    1.7722    0.0000 C   0  0  0  0  0  0  0  0  0  0  0  0
   -8.0498    0.7685    0.0000 C   0  0  0  0  0  0  0  0  0  0  0  0
   -6.6232    1.2320    0.0000 C   0  0  0  0  0  0  0  0  0  0  0  0
   -5.5085    0.2283    0.0000 C   0  0  0  0  0  0  0  0  0  0  0  0
   -4.0819    0.6918    0.0000 C   0  0  0  0  0  0  0  0  0  0  0  0
   -2.9672   -0.3119    0.0000 N   0  0  0  0  0  0  0  0  0  0  0  0
   -3.1240   -1.8037    0.0000 C   0  0  0  0  0  0  0  0  0  0  0  0
   -1.7537   -2.4138    0.0000 C   0  0  0  0  0  0  0  0  0  0  0  0
   -0.7500   -1.2990    0.0000 C   0  0  0  0  0  0  0  0  0  0  0  0
    0.7500   -1.2990    0.0000 C   0  0  0  0  0  0  0  0  0  0  0  0
    1.5000    0.0000    0.0000 C   0  0  0  0  0  0  0  0  0  0  0  0
    0.7500    1.2990    0.0000 C   0  0  0  0  0  0  0  0  0  0  0  0
   -0.7500    1.2990    0.0000 C   0  0  0  0  0  0  0  0  0  0  0  0
   -1.5000    0.0000    0.0000 C   0  0  0  0  0  0  0  0  0  0  0  0
    2.1518   -2.0033    0.0000 N   0  0  0  0  0  0  0  0  0  0  0  0
    3.2666   -0.9996    0.0000 C   0  0  0  0  0  0  0  0  0  0  0  0
    2.7619   -3.3736    0.0000 C   0  0  0  0  0  0  0  0  0  0  0  0
    4.2537   -3.2168    0.0000 C   0  0  0  0  0  0  0  0  0  0  0  0
    5.1354   -4.4303    0.0000 C   0  0  0  0  0  0  0  0  0  0  0  0
    4.8638   -1.8465    0.0000 C   0  0  0  0  0  0  0  0  0  0  0  0
    2.4501   -4.8408    0.0000 C   0  0  0  0  0  0  0  0  0  0  0  0
    3.7491   -5.5908    0.0000 O   0  0  0  0  0  0  0  0  0  0  0  0
    1.3354   -5.8445    0.0000 N   0  0  0  0  0  0  0  0  0  0  0  0
   -0.1564   -6.0013    0.0000 C   0  0  0  0  0  0  0  0  0  0  0  0
   -0.4683   -7.4685    0.0000 C   0  0  0  0  0  0  0  0  0  0  0  0
   -1.8949   -7.9320    0.0000 O   0  0  0  0  0  0  0  0  0  0  0  0
   -1.4555   -5.2513    0.0000 C   0  0  0  0  0  0  0  0  0  0  0  0
   -2.0656   -3.8810    0.0000 C   0  0  0  0  0  0  0  0  0  0  0  0
  1  2  1  0
  2  3  1  0
  3  4  1  0
  4  5  1  0
  5  6  1  0
  6  7  1  0
  7  8  1  0
  8  9  2  0
  9 10  1  0
 10 11  2  0
 11 12  1  0
 12 13  2  0
 13 14  1  0
 14 15  2  0
 11 16  1  0
 16 17  1  0
 16 18  1  0
 18 19  1  1
 19 20  1  0
 19 21  1  0
 18 22  1  0
 22 23  2  0
 22 24  1  0
 24 25  1  0
 25 26  1  6
 26 27  1  0
 25 28  1  0
 28 29  1  0
 15  7  1  0
 29  9  1  0
 15 10  1  0
M  END
>  <Compound_ID>  (35) 
CHEMBL401369

>  <Active>  (35) 
1.0

>  <Smiles>  (35) 
CCCCCCn1cc2c3c(cccc31)N(C)[C@@H](C(C)C)C(=O)N[C@H](CO)CC2

>  <canonical_smi>  (35) 
CCCCCCn1cc2c3c(cccc31)N(C)[C@@H](C(C)C)C(=O)N[C@H](CO)CC2

>  <Set>  (35) 
G1 active

>  <Set_type>  (35) 
G1

>  <MW>  (35) 
399.58

>  <HBD>  (35) 
2

>  <HBA>  (35) 
3

>  <NRB>  (35) 
7

>  <NR>  (35) 
3

>  <NAR>  (35) 
2

>  <PSA>  (35) 
57.5

>  <Standard Type>  (35) 
nan

>  <Standard Relation>  (35) 
nan

>  <Standard Units>  (35) 
nan

>  <Standard Value>  (35) 
nan

>  <Assay ChEMBL ID>  (35) 
nan

>  <Assay Description>  (35) 
nan

>  <BAO Label>  (35) 
nan

$$$$

     RDKit          2D

 24 23  0  0  0  0  0  0  0  0999 V2000
    0.0000    0.0000    0.0000 C   0  0  0  0  0  0  0  0  0  0  0  0
    1.2990    0.7500    0.0000 C   0  0  0  0  0  0  0  0  0  0  0  0
    2.5981   -0.0000    0.0000 C   0  0  0  0  0  0  0  0  0  0  0  0
    3.8971    0.7500    0.0000 C   0  0  0  0  0  0  0  0  0  0  0  0
    5.1962   -0.0000    0.0000 C   0  0  0  0  0  0  0  0  0  0  0  0
    6.4952    0.7500    0.0000 C   0  0  0  0  0  0  0  0  0  0  0  0
    7.7942   -0.0000    0.0000 C   0  0  0  0  0  0  0  0  0  0  0  0
    9.0933    0.7500    0.0000 C   0  0  0  0  0  0  0  0  0  0  0  0
   10.3923   -0.0000    0.0000 C   0  0  0  0  0  0  0  0  0  0  0  0
   11.6913    0.7500    0.0000 C   0  0  0  0  0  0  0  0  0  0  0  0
   12.9904   -0.0000    0.0000 C   0  0  0  0  0  0  0  0  0  0  0  0
   14.2894    0.7500    0.0000 C   0  0  0  0  0  0  0  0  0  0  0  0
   15.5885   -0.0000    0.0000 C   0  0  0  0  0  0  0  0  0  0  0  0
   16.8875    0.7500    0.0000 C   0  0  0  0  0  0  0  0  0  0  0  0
   16.8875    2.2500    0.0000 O   0  0  0  0  0  0  0  0  0  0  0  0
   18.1865   -0.0000    0.0000 O   0  0  0  0  0  0  0  0  0  0  0  0
   19.4856    0.7500    0.0000 C   0  0  0  0  0  0  0  0  0  0  0  0
   20.7846   -0.0000    0.0000 C   0  0  0  0  0  0  0  0  0  0  0  0
   22.0836    0.7500    0.0000 C   0  0  0  0  0  0  0  0  0  0  0  0
   23.3827   -0.0000    0.0000 O   0  0  0  0  0  0  0  0  0  0  0  0
   20.7846   -1.5000    0.0000 O   0  0  0  0  0  0  0  0  0  0  0  0
   22.0836   -2.2500    0.0000 C   0  0  0  0  0  0  0  0  0  0  0  0
   22.0836   -3.7500    0.0000 C   0  0  0  0  0  0  0  0  0  0  0  0
   23.3827   -1.5000    0.0000 O   0  0  0  0  0  0  0  0  0  0  0  0
  1  2  1  0
  2  3  1  0
  3  4  1  0
  4  5  1  0
  5  6  1  0
  6  7  1  0
  7  8  1  0
  8  9  1  0
  9 10  1  0
 10 11  1  0
 11 12  1  0
 12 13  1  0
 13 14  1  0
 14 15  2  0
 14 16  1  0
 16 17  1  0
 18 17  1  6
 18 19  1  0
 19 20  1  0
 18 21  1  0
 21 22  1  0
 22 23  1  0
 22 24  2  0
M  END
>  <Compound_ID>  (36) 
CHEMBL13259

>  <Active>  (36) 
1.0

>  <Smiles>  (36) 
CCCCCCCCCCCCCC(=O)OC[C@H](CO)OC(C)=O

>  <canonical_smi>  (36) 
CCCCCCCCCCCCCC(=O)OC[C@H](CO)OC(C)=O

>  <Set>  (36) 
G1 active

>  <Set_type>  (36) 
G1

>  <MW>  (36) 
344.49

>  <HBD>  (36) 
1

>  <HBA>  (36) 
5

>  <NRB>  (36) 
16

>  <NR>  (36) 
0

>  <NAR>  (36) 
0

>  <PSA>  (36) 
72.83

>  <Standard Type>  (36) 
nan

>  <Standard Relation>  (36) 
nan

>  <Standard Units>  (36) 
nan

>  <Standard Value>  (36) 
nan

>  <Assay ChEMBL ID>  (36) 
nan

>  <Assay Description>  (36) 
nan

>  <BAO Label>  (36) 
nan

$$$$

     RDKit          2D

 30 32  0  0  0  0  0  0  0  0999 V2000
   -7.0526  -11.4523    0.0000 N   0  0  0  0  0  0  0  0  0  0  0  0
   -8.1673  -10.4486    0.0000 C   0  0  0  0  0  0  0  0  0  0  0  0
   -9.5939  -10.9121    0.0000 N   0  0  0  0  0  0  0  0  0  0  0  0
   -7.8555   -8.9814    0.0000 N   0  0  0  0  0  0  0  0  0  0  0  0
   -6.4289   -8.5179    0.0000 C   0  0  0  0  0  0  0  0  0  0  0  0
   -6.1170   -7.0506    0.0000 C   0  0  0  0  0  0  0  0  0  0  0  0
   -4.6904   -6.5871    0.0000 C   0  0  0  0  0  0  0  0  0  0  0  0
   -4.3786   -5.1199    0.0000 C   0  0  0  0  0  0  0  0  0  0  0  0
   -5.4933   -4.1162    0.0000 C   0  0  0  0  0  0  0  0  0  0  0  0
   -6.9199   -4.5797    0.0000 Cl  0  0  0  0  0  0  0  0  0  0  0  0
   -2.9520   -4.6564    0.0000 N   0  0  0  0  0  0  0  0  0  0  0  0
   -2.6401   -3.1891    0.0000 C   0  0  0  0  0  0  0  0  0  0  0  0
   -3.7548   -2.1855    0.0000 O   0  0  0  0  0  0  0  0  0  0  0  0
   -1.2135   -2.7256    0.0000 C   0  0  0  0  0  0  0  0  0  0  0  0
   -0.0000   -3.6073    0.0000 C   0  0  0  0  0  0  0  0  0  0  0  0
    1.2135   -2.7256    0.0000 C   0  0  0  0  0  0  0  0  0  0  0  0
    0.7500   -1.2990    0.0000 N   0  0  0  0  0  0  0  0  0  0  0  0
    1.5000    0.0000    0.0000 C   0  0  0  0  0  0  0  0  0  0  0  0
    0.7500    1.2990    0.0000 C   0  0  0  0  0  0  0  0  0  0  0  0
   -0.7500    1.2990    0.0000 C   0  0  0  0  0  0  0  0  0  0  0  0
   -0.4895    2.7762    0.0000 N   0  0  0  0  0  0  0  0  0  0  0  0
   -2.1595    1.8121    0.0000 C   0  0  0  0  0  0  0  0  0  0  0  0
   -2.4200    3.2893    0.0000 C   0  0  0  0  0  0  0  0  0  0  0  0
   -1.2709    4.2535    0.0000 C   0  0  0  0  0  0  0  0  0  0  0  0
   -1.5314    5.7307    0.0000 C   0  0  0  0  0  0  0  0  0  0  0  0
   -2.9410    6.2437    0.0000 C   0  0  0  0  0  0  0  0  0  0  0  0
   -4.0900    5.2795    0.0000 C   0  0  0  0  0  0  0  0  0  0  0  0
   -3.8296    3.8023    0.0000 C   0  0  0  0  0  0  0  0  0  0  0  0
   -1.5000    0.0000    0.0000 C   0  0  0  0  0  0  0  0  0  0  0  0
   -0.7500   -1.2990    0.0000 N   0  0  0  0  0  0  0  0  0  0  0  0
  1  2  2  0
  2  3  1  0
  2  4  1  0
  4  5  1  0
  5  6  1  0
  6  7  1  0
  8  7  1  1
  8  9  1  0
  9 10  1  0
  8 11  1  0
 11 12  1  0
 12 13  2  0
 14 12  1  1
 14 15  1  0
 15 16  1  0
 16 17  1  0
 17 18  1  0
 18 19  1  0
 19 20  1  0
 20 21  1  1
 20 22  1  0
 22 23  1  0
 23 24  2  0
 24 25  1  0
 25 26  2  0
 26 27  1  0
 27 28  2  0
 20 29  1  0
 29 30  1  0
 30 14  1  0
 30 17  1  0
 28 23  1  0
M  END
>  <Compound_ID>  (37) 
CHEMBL284436

>  <Active>  (37) 
1.0

>  <Smiles>  (37) 
N=C(N)NCCC[C@@H](CCl)NC(=O)[C@@H]1CCN2CC[C@@](N)(Cc3ccccc3)CN12

>  <canonical_smi>  (37) 
N=C(N)NCCC[C@@H](CCl)NC(=O)[C@@H]1CCN2CC[C@@](N)(Cc3ccccc3)CN12

>  <Set>  (37) 
G1 active

>  <Set_type>  (37) 
G1

>  <MW>  (37) 
436.0

>  <HBD>  (37) 
5

>  <HBA>  (37) 
6

>  <NRB>  (37) 
9

>  <NR>  (37) 
3

>  <NAR>  (37) 
1

>  <PSA>  (37) 
123.5

>  <Standard Type>  (37) 
nan

>  <Standard Relation>  (37) 
nan

>  <Standard Units>  (37) 
nan

>  <Standard Value>  (37) 
nan

>  <Assay ChEMBL ID>  (37) 
nan

>  <Assay Description>  (37) 
nan

>  <BAO Label>  (37) 
nan

$$$$

     RDKit          2D

 29 30  0  0  0  0  0  0  0  0999 V2000
   12.7500   -6.4952    0.0000 C   0  0  0  0  0  0  0  0  0  0  0  0
   12.0000   -5.1962    0.0000 C   0  0  0  0  0  0  0  0  0  0  0  0
   10.5000   -5.1962    0.0000 C   0  0  0  0  0  0  0  0  0  0  0  0
    9.7500   -3.8971    0.0000 C   0  0  0  0  0  0  0  0  0  0  0  0
    8.2500   -3.8971    0.0000 C   0  0  0  0  0  0  0  0  0  0  0  0
    7.5000   -2.5981    0.0000 C   0  0  0  0  0  0  0  0  0  0  0  0
    6.0000   -2.5981    0.0000 C   0  0  0  0  0  0  0  0  0  0  0  0
    5.2500   -1.2990    0.0000 C   0  0  0  0  0  0  0  0  0  0  0  0
    3.7500   -1.2990    0.0000 C   0  0  0  0  0  0  0  0  0  0  0  0
    3.0000    0.0000    0.0000 C   0  0  0  0  0  0  0  0  0  0  0  0
    1.5000    0.0000    0.0000 C   0  0  0  0  0  0  0  0  0  0  0  0
    0.7500   -1.2990    0.0000 C   0  0  0  0  0  0  0  0  0  0  0  0
   -0.7500   -1.2990    0.0000 C   0  0  0  0  0  0  0  0  0  0  0  0
   -1.5000    0.0000    0.0000 C   0  0  0  0  0  0  0  0  0  0  0  0
   -0.7500    1.2990    0.0000 C   0  0  0  0  0  0  0  0  0  0  0  0
    0.7500    1.2990    0.0000 C   0  0  0  0  0  0  0  0  0  0  0  0
    1.8107    2.3597    0.0000 C   0  0  0  0  0  0  0  0  0  0  0  0
    1.8107    3.8597    0.0000 C   0  0  0  0  0  0  0  0  0  0  0  0
    3.1965    4.4337    0.0000 C   0  0  0  0  0  0  0  0  0  0  0  0
    4.3865    3.5206    0.0000 O   0  0  0  0  0  0  0  0  0  0  0  0
    0.7500    4.9204    0.0000 O   0  0  0  0  0  0  0  0  0  0  0  0
   -0.7500    4.9204    0.0000 C   0  0  0  0  0  0  0  0  0  0  0  0
   -1.3240    6.3062    0.0000 O   0  0  0  0  0  0  0  0  0  0  0  0
   -1.8107    3.8597    0.0000 C   0  0  0  0  0  0  0  0  0  0  0  0
   -3.1965    4.4337    0.0000 C   0  0  0  0  0  0  0  0  0  0  0  0
   -3.3923    5.9209    0.0000 C   0  0  0  0  0  0  0  0  0  0  0  0
   -4.3865    3.5206    0.0000 C   0  0  0  0  0  0  0  0  0  0  0  0
   -1.8107    2.3597    0.0000 N   0  0  0  0  0  0  0  0  0  0  0  0
   -3.1965    1.7857    0.0000 C   0  0  0  0  0  0  0  0  0  0  0  0
  1  2  1  0
  2  3  1  0
  3  4  1  0
  4  5  1  0
  5  6  1  0
  6  7  1  0
  7  8  1  0
  8  9  1  0
  9 10  1  0
 10 11  1  0
 11 12  2  0
 12 13  1  0
 13 14  2  0
 14 15  1  0
 15 16  2  0
 16 17  1  0
 17 18  1  0
 18 19  1  6
 19 20  1  0
 18 21  1  0
 21 22  1  0
 22 23  2  0
 22 24  1  0
 24 25  1  1
 25 26  1  0
 25 27  1  0
 24 28  1  0
 28 29  1  0
 16 11  1  0
 28 15  1  0
M  END
>  <Compound_ID>  (38) 
CHEMBL103091

>  <Active>  (38) 
1.0

>  <Smiles>  (38) 
CCCCCCCCCCc1cccc2c1C[C@@H](CO)OC(=O)[C@H](C(C)C)N2C

>  <canonical_smi>  (38) 
CCCCCCCCCCc1cccc2c1C[C@@H](CO)OC(=O)[C@H](C(C)C)N2C

>  <Set>  (38) 
G1 active

>  <Set_type>  (38) 
G1

>  <MW>  (38) 
403.61

>  <HBD>  (38) 
1

>  <HBA>  (38) 
4

>  <NRB>  (38) 
11

>  <NR>  (38) 
2

>  <NAR>  (38) 
1

>  <PSA>  (38) 
49.77

>  <Standard Type>  (38) 
nan

>  <Standard Relation>  (38) 
nan

>  <Standard Units>  (38) 
nan

>  <Standard Value>  (38) 
nan

>  <Assay ChEMBL ID>  (38) 
nan

>  <Assay Description>  (38) 
nan

>  <BAO Label>  (38) 
nan

$$$$

     RDKit          2D

 30 35  0  0  0  0  0  0  0  0999 V2000
   -2.2220    2.7143    0.0000 C   0  0  0  0  0  0  0  0  0  0  0  0
   -3.1036    1.5008    0.0000 N   0  0  0  0  0  0  0  0  0  0  0  0
   -2.6401    0.0742    0.0000 C   0  0  0  0  0  0  0  0  0  0  0  0
   -3.8536   -0.8075    0.0000 C   0  0  0  0  0  0  0  0  0  0  0  0
   -3.8536   -2.3075    0.0000 C   0  0  0  0  0  0  0  0  0  0  0  0
   -2.6401   -3.1891    0.0000 C   0  0  0  0  0  0  0  0  0  0  0  0
   -1.2135   -2.7256    0.0000 C   0  0  0  0  0  0  0  0  0  0  0  0
   -0.0000   -3.6073    0.0000 C   0  0  0  0  0  0  0  0  0  0  0  0
    1.2135   -2.7256    0.0000 N   0  0  0  0  0  0  0  0  0  0  0  0
    0.7500   -1.2990    0.0000 C   0  0  0  0  0  0  0  0  0  0  0  0
    1.5000    0.0000    0.0000 C   0  0  0  0  0  0  0  0  0  0  0  0
    0.7500    1.2990    0.0000 C   0  0  0  0  0  0  0  0  0  0  0  0
   -0.7500    1.2990    0.0000 C   0  0  0  0  0  0  0  0  0  0  0  0
   -1.5000    0.0000    0.0000 C   0  0  0  0  0  0  0  0  0  0  0  0
   -0.7500   -1.2990    0.0000 C   0  0  0  0  0  0  0  0  0  0  0  0
    2.5838   -3.3357    0.0000 C   0  0  0  0  0  0  0  0  0  0  0  0
    2.7406   -4.8275    0.0000 C   0  0  0  0  0  0  0  0  0  0  0  0
    1.5271   -5.7092    0.0000 N   0  0  0  0  0  0  0  0  0  0  0  0
    0.1568   -5.0991    0.0000 C   0  0  0  0  0  0  0  0  0  0  0  0
   -3.1036   -4.6157    0.0000 C   0  0  0  0  0  0  0  0  0  0  0  0
   -2.2220   -5.8293    0.0000 O   0  0  0  0  0  0  0  0  0  0  0  0
   -4.6036   -4.6157    0.0000 N   0  0  0  0  0  0  0  0  0  0  0  0
   -5.0672   -3.1891    0.0000 C   0  0  0  0  0  0  0  0  0  0  0  0
   -6.4937   -2.7256    0.0000 O   0  0  0  0  0  0  0  0  0  0  0  0
   -5.0672    0.0742    0.0000 C   0  0  0  0  0  0  0  0  0  0  0  0
   -6.5344   -0.2377    0.0000 C   0  0  0  0  0  0  0  0  0  0  0  0
   -7.5381    0.8771    0.0000 C   0  0  0  0  0  0  0  0  0  0  0  0
   -7.0746    2.3036    0.0000 C   0  0  0  0  0  0  0  0  0  0  0  0
   -5.6073    2.6155    0.0000 C   0  0  0  0  0  0  0  0  0  0  0  0
   -4.6036    1.5008    0.0000 C   0  0  0  0  0  0  0  0  0  0  0  0
  1  2  1  0
  2  3  1  0
  3  4  2  0
  4  5  1  0
  5  6  2  0
  6  7  1  0
  7  8  2  0
  8  9  1  0
  9 10  1  0
 10 11  2  0
 11 12  1  0
 12 13  2  0
 13 14  1  0
 14 15  2  0
  9 16  1  0
 16 17  1  0
 17 18  1  0
 18 19  1  0
  6 20  1  0
 20 21  2  0
 20 22  1  0
 22 23  1  0
 23 24  2  0
  4 25  1  0
 25 26  2  0
 26 27  1  0
 27 28  2  0
 28 29  1  0
 29 30  2  0
 30  2  1  0
 23  5  1  0
 30 25  1  0
 15  7  1  0
 19  8  1  0
 15 10  1  0
M  END
>  <Compound_ID>  (39) 
CHEMBL100084

>  <Active>  (39) 
1.0

>  <Smiles>  (39) 
Cn1cc(C2=C(c3c4n(c5ccccc35)CCNC4)C(=O)NC2=O)c2ccccc21

>  <canonical_smi>  (39) 
Cn1cc(C2=C(c3c4n(c5ccccc35)CCNC4)C(=O)NC2=O)c2ccccc21

>  <Set>  (39) 
G1 active

>  <Set_type>  (39) 
G1

>  <MW>  (39) 
396.45

>  <HBD>  (39) 
2

>  <HBA>  (39) 
3

>  <NRB>  (39) 
2

>  <NR>  (39) 
6

>  <NAR>  (39) 
4

>  <PSA>  (39) 
68.06

>  <Standard Type>  (39) 
nan

>  <Standard Relation>  (39) 
nan

>  <Standard Units>  (39) 
nan

>  <Standard Value>  (39) 
nan

>  <Assay ChEMBL ID>  (39) 
nan

>  <Assay Description>  (39) 
nan

>  <BAO Label>  (39) 
nan

$$$$

     RDKit          2D

 33 35  0  0  0  0  0  0  0  0999 V2000
   16.5000   -7.7942    0.0000 C   0  0  0  0  0  0  0  0  0  0  0  0
   15.0000   -7.7942    0.0000 C   0  0  0  0  0  0  0  0  0  0  0  0
   14.2500   -6.4952    0.0000 C   0  0  0  0  0  0  0  0  0  0  0  0
   12.7500   -6.4952    0.0000 C   0  0  0  0  0  0  0  0  0  0  0  0
   12.0000   -5.1962    0.0000 C   0  0  0  0  0  0  0  0  0  0  0  0
   10.5000   -5.1962    0.0000 C   0  0  0  0  0  0  0  0  0  0  0  0
    9.7500   -3.8971    0.0000 C   0  0  0  0  0  0  0  0  0  0  0  0
    8.2500   -3.8971    0.0000 C   0  0  0  0  0  0  0  0  0  0  0  0
    7.5000   -2.5981    0.0000 C   0  0  0  0  0  0  0  0  0  0  0  0
    6.0000   -2.5981    0.0000 C   0  0  0  0  0  0  0  0  0  0  0  0
    5.2500   -1.2990    0.0000 C   0  0  0  0  0  0  0  0  0  0  0  0
    3.7500   -1.2990    0.0000 C   0  0  0  0  0  0  0  0  0  0  0  0
    3.0000   -2.5981    0.0000 O   0  0  0  0  0  0  0  0  0  0  0  0
    3.0000    0.0000    0.0000 O   0  0  0  0  0  0  0  0  0  0  0  0
    1.5000    0.0000    0.0000 C   0  0  0  0  0  0  0  0  0  0  0  0
    0.7500   -1.2990    0.0000 C   0  0  0  0  0  0  0  0  0  0  0  0
   -0.7500   -1.2990    0.0000 C   0  0  0  0  0  0  0  0  0  0  0  0
   -1.5000    0.0000    0.0000 C   0  0  0  0  0  0  0  0  0  0  0  0
   -0.7500    1.2990    0.0000 C   0  0  0  0  0  0  0  0  0  0  0  0
    0.7500    1.2990    0.0000 C   0  0  0  0  0  0  0  0  0  0  0  0
   -1.7537    2.4138    0.0000 C   0  0  0  0  0  0  0  0  0  0  0  0
   -0.5402    3.2954    0.0000 C   0  0  0  0  0  0  0  0  0  0  0  0
   -2.5037    3.7128    0.0000 C   0  0  0  0  0  0  0  0  0  0  0  0
   -1.7537    5.0118    0.0000 C   0  0  0  0  0  0  0  0  0  0  0  0
   -4.0037    3.7128    0.0000 C   0  0  0  0  0  0  0  0  0  0  0  0
   -3.1240    1.8037    0.0000 C   0  0  0  0  0  0  0  0  0  0  0  0
   -4.5912    2.1155    0.0000 C   0  0  0  0  0  0  0  0  0  0  0  0
   -5.2013    3.4858    0.0000 O   0  0  0  0  0  0  0  0  0  0  0  0
   -5.3412    0.8165    0.0000 N   0  0  0  0  0  0  0  0  0  0  0  0
   -4.3375   -0.2982    0.0000 C   0  0  0  0  0  0  0  0  0  0  0  0
   -4.6494   -1.7655    0.0000 C   0  0  0  0  0  0  0  0  0  0  0  0
   -6.0760   -2.2290    0.0000 O   0  0  0  0  0  0  0  0  0  0  0  0
   -2.9672    0.3119    0.0000 C   0  0  0  0  0  0  0  0  0  0  0  0
  1  2  1  0
  2  3  1  0
  3  4  1  0
  4  5  1  0
  5  6  1  0
  6  7  1  0
  7  8  1  0
  8  9  1  0
  9 10  1  0
 10 11  1  0
 11 12  1  0
 12 13  2  0
 12 14  1  0
 14 15  1  0
 15 16  2  0
 16 17  1  0
 17 18  2  0
 18 19  1  0
 19 20  2  0
 19 21  1  0
 21 22  1  6
 21 23  1  0
 23 24  1  0
 23 25  1  0
 21 26  1  0
 26 27  1  6
 27 28  2  0
 27 29  1  0
 29 30  1  0
 30 31  1  1
 31 32  1  0
 30 33  1  0
 20 15  1  0
 33 26  1  0
 33 18  1  6
M  END
>  <Compound_ID>  (40) 
CHEMBL368720

>  <Active>  (40) 
1.0

>  <Smiles>  (40) 
CCCCCCCCCCCC(=O)Oc1ccc2c(c1)[C@](C)(C(C)C)[C@H]1C(=O)N[C@H](CO)[C@@H]21

>  <canonical_smi>  (40) 
CCCCCCCCCCCC(=O)Oc1ccc2c(c1)[C@](C)(C(C)C)[C@H]1C(=O)N[C@H](CO)[C@@H]21

>  <Set>  (40) 
G1 active

>  <Set_type>  (40) 
G1

>  <MW>  (40) 
457.66

>  <HBD>  (40) 
2

>  <HBA>  (40) 
4

>  <NRB>  (40) 
13

>  <NR>  (40) 
3

>  <NAR>  (40) 
1

>  <PSA>  (40) 
75.63

>  <Standard Type>  (40) 
nan

>  <Standard Relation>  (40) 
nan

>  <Standard Units>  (40) 
nan

>  <Standard Value>  (40) 
nan

>  <Assay ChEMBL ID>  (40) 
nan

>  <Assay Description>  (40) 
nan

>  <BAO Label>  (40) 
nan

$$$$

     RDKit          2D

 26 26  0  0  0  0  0  0  0  0999 V2000
   17.0260   -9.0933    0.0000 C   0  0  0  0  0  0  0  0  0  0  0  0
   16.2760   -7.7942    0.0000 C   0  0  0  0  0  0  0  0  0  0  0  0
   14.7760   -7.7942    0.0000 C   0  0  0  0  0  0  0  0  0  0  0  0
   14.0260   -6.4952    0.0000 C   0  0  0  0  0  0  0  0  0  0  0  0
   12.5260   -6.4952    0.0000 C   0  0  0  0  0  0  0  0  0  0  0  0
   11.7760   -5.1962    0.0000 C   0  0  0  0  0  0  0  0  0  0  0  0
   10.2760   -5.1962    0.0000 C   0  0  0  0  0  0  0  0  0  0  0  0
    9.5260   -3.8971    0.0000 C   0  0  0  0  0  0  0  0  0  0  0  0
    8.0260   -3.8971    0.0000 C   0  0  0  0  0  0  0  0  0  0  0  0
    7.2760   -2.5981    0.0000 C   0  0  0  0  0  0  0  0  0  0  0  0
    5.7760   -2.5981    0.0000 C   0  0  0  0  0  0  0  0  0  0  0  0
    5.0260   -1.2990    0.0000 C   0  0  0  0  0  0  0  0  0  0  0  0
    3.5260   -1.2990    0.0000 C   0  0  0  0  0  0  0  0  0  0  0  0
    2.7760    0.0000    0.0000 C   0  0  0  0  0  0  0  0  0  0  0  0
    1.2760    0.0000    0.0000 C   0  0  0  0  0  0  0  0  0  0  0  0
    0.3943    1.2135    0.0000 C   0  0  0  0  0  0  0  0  0  0  0  0
    0.8578    2.6401    0.0000 O   0  0  0  0  0  0  0  0  0  0  0  0
   -1.0323    0.7500    0.0000 O   0  0  0  0  0  0  0  0  0  0  0  0
   -1.0323   -0.7500    0.0000 C   0  0  0  0  0  0  0  0  0  0  0  0
   -2.2458   -1.6317    0.0000 C   0  0  0  0  0  0  0  0  0  0  0  0
   -3.6161   -1.0216    0.0000 O   0  0  0  0  0  0  0  0  0  0  0  0
    0.3943   -1.2135    0.0000 C   0  0  0  0  0  0  0  0  0  0  0  0
    0.8578   -2.6401    0.0000 O   0  0  0  0  0  0  0  0  0  0  0  0
   -0.1459   -3.7548    0.0000 C   0  0  0  0  0  0  0  0  0  0  0  0
    0.3177   -5.1814    0.0000 C   0  0  0  0  0  0  0  0  0  0  0  0
   -1.6131   -3.4430    0.0000 O   0  0  0  0  0  0  0  0  0  0  0  0
  1  2  1  0
  2  3  1  0
  3  4  1  0
  4  5  1  0
  5  6  1  0
  6  7  1  0
  7  8  1  0
  8  9  1  0
  9 10  1  0
 10 11  1  0
 11 12  1  0
 12 13  1  0
 13 14  1  0
 15 14  1  6
 15 16  1  0
 16 17  2  0
 16 18  1  0
 18 19  1  0
 19 20  1  6
 20 21  1  0
 19 22  1  0
 22 23  1  1
 23 24  1  0
 24 25  1  0
 24 26  2  0
 22 15  1  0
M  END
>  <Compound_ID>  (41) 
CHEMBL12988

>  <Active>  (41) 
1.0

>  <Smiles>  (41) 
CCCCCCCCCCCCCC[C@H]1C(=O)O[C@@H](CO)[C@@H]1OC(C)=O

>  <canonical_smi>  (41) 
CCCCCCCCCCCCCC[C@H]1C(=O)O[C@@H](CO)[C@@H]1OC(C)=O

>  <Set>  (41) 
G1 active

>  <Set_type>  (41) 
G1

>  <MW>  (41) 
370.53

>  <HBD>  (41) 
1

>  <HBA>  (41) 
5

>  <NRB>  (41) 
15

>  <NR>  (41) 
1

>  <NAR>  (41) 
0

>  <PSA>  (41) 
72.83

>  <Standard Type>  (41) 
nan

>  <Standard Relation>  (41) 
nan

>  <Standard Units>  (41) 
nan

>  <Standard Value>  (41) 
nan

>  <Assay ChEMBL ID>  (41) 
nan

>  <Assay Description>  (41) 
nan

>  <BAO Label>  (41) 
nan

$$$$

     RDKit          2D

 31 34  0  0  0  0  0  0  0  0999 V2000
    0.8389    9.5533    0.0000 C   0  0  0  0  0  0  0  0  0  0  0  0
    0.5271    8.0861    0.0000 O   0  0  0  0  0  0  0  0  0  0  0  0
   -0.8995    7.6226    0.0000 C   0  0  0  0  0  0  0  0  0  0  0  0
   -1.2114    6.1554    0.0000 C   0  0  0  0  0  0  0  0  0  0  0  0
   -2.6380    5.6918    0.0000 C   0  0  0  0  0  0  0  0  0  0  0  0
   -2.9499    4.2246    0.0000 N   0  0  0  0  0  0  0  0  0  0  0  0
   -1.8351    3.2209    0.0000 C   0  0  0  0  0  0  0  0  0  0  0  0
   -0.4086    3.6844    0.0000 N   0  0  0  0  0  0  0  0  0  0  0  0
    0.7062    2.6807    0.0000 C   0  0  0  0  0  0  0  0  0  0  0  0
    2.1328    3.1443    0.0000 N   0  0  0  0  0  0  0  0  0  0  0  0
    2.4446    4.6115    0.0000 C   0  0  0  0  0  0  0  0  0  0  0  0
    3.8712    5.0750    0.0000 C   0  0  0  0  0  0  0  0  0  0  0  0
    4.1831    6.5422    0.0000 C   0  0  0  0  0  0  0  0  0  0  0  0
    3.0684    7.5459    0.0000 C   0  0  0  0  0  0  0  0  0  0  0  0
    1.6418    7.0824    0.0000 C   0  0  0  0  0  0  0  0  0  0  0  0
    1.3299    5.6152    0.0000 C   0  0  0  0  0  0  0  0  0  0  0  0
   -0.0967    5.1517    0.0000 N   0  0  0  0  0  0  0  0  0  0  0  0
    0.3943    1.2135    0.0000 N   0  0  0  0  0  0  0  0  0  0  0  0
    1.2760    0.0000    0.0000 C   0  0  0  0  0  0  0  0  0  0  0  0
    0.3943   -1.2135    0.0000 N   0  0  0  0  0  0  0  0  0  0  0  0
   -1.0323   -0.7500    0.0000 N   0  0  0  0  0  0  0  0  0  0  0  0
   -1.0323    0.7500    0.0000 C   0  0  0  0  0  0  0  0  0  0  0  0
   -2.1470    1.7537    0.0000 C   0  0  0  0  0  0  0  0  0  0  0  0
   -3.5736    1.2902    0.0000 C   0  0  0  0  0  0  0  0  0  0  0  0
   -4.6883    2.2939    0.0000 N   0  0  0  0  0  0  0  0  0  0  0  0
   -3.8855   -0.1771    0.0000 O   0  0  0  0  0  0  0  0  0  0  0  0
   -3.7527    6.6955    0.0000 C   0  0  0  0  0  0  0  0  0  0  0  0
   -3.4408    8.1628    0.0000 C   0  0  0  0  0  0  0  0  0  0  0  0
   -4.5556    9.1664    0.0000 O   0  0  0  0  0  0  0  0  0  0  0  0
   -4.2437   10.6337    0.0000 C   0  0  0  0  0  0  0  0  0  0  0  0
   -2.0143    8.6263    0.0000 C   0  0  0  0  0  0  0  0  0  0  0  0
  1  2  1  0
  2  3  1  0
  3  4  2  0
  4  5  1  0
  5  6  1  0
  6  7  1  0
  7  8  1  0
  8  9  2  0
  9 10  1  0
 11 10  1  6
 11 12  1  0
 12 13  1  0
 13 14  1  0
 14 15  1  0
 15 16  1  0
 16 17  1  6
  9 18  1  0
 18 19  1  0
 19 20  2  0
 20 21  1  0
 21 22  2  0
 22 23  1  0
 23 24  1  0
 24 25  1  0
 24 26  2  0
  5 27  2  0
 27 28  1  0
 28 29  1  0
 29 30  1  0
 28 31  2  0
 31  3  1  0
 23  7  2  0
 16 11  1  0
 22 18  1  0
M  END
>  <Compound_ID>  (42) 
CHEMBL475609

>  <Active>  (42) 
1.0

>  <Smiles>  (42) 
COc1cc(Nc2nc(N[C@H]3CCCC[C@H]3N)n3cnnc3c2C(N)=O)cc(OC)c1

>  <canonical_smi>  (42) 
COc1cc(Nc2nc(N[C@H]3CCCC[C@H]3N)n3cnnc3c2C(N)=O)cc(OC)c1

>  <Set>  (42) 
G1 active

>  <Set_type>  (42) 
G1

>  <MW>  (42) 
426.48

>  <HBD>  (42) 
4

>  <HBA>  (42) 
9

>  <NRB>  (42) 
7

>  <NR>  (42) 
4

>  <NAR>  (42) 
3

>  <PSA>  (42) 
154.71

>  <Standard Type>  (42) 
nan

>  <Standard Relation>  (42) 
nan

>  <Standard Units>  (42) 
nan

>  <Standard Value>  (42) 
nan

>  <Assay ChEMBL ID>  (42) 
nan

>  <Assay Description>  (42) 
nan

>  <BAO Label>  (42) 
nan

$$$$

     RDKit          2D

 20 22  0  0  0  0  0  0  0  0999 V2000
    3.7500   -1.2990    0.0000 C   0  0  0  0  0  0  0  0  0  0  0  0
    3.0000    0.0000    0.0000 O   0  0  0  0  0  0  0  0  0  0  0  0
    1.5000    0.0000    0.0000 C   0  0  0  0  0  0  0  0  0  0  0  0
    0.7500   -1.2990    0.0000 C   0  0  0  0  0  0  0  0  0  0  0  0
   -0.7500   -1.2990    0.0000 C   0  0  0  0  0  0  0  0  0  0  0  0
   -1.5000    0.0000    0.0000 C   0  0  0  0  0  0  0  0  0  0  0  0
   -3.0000    0.0000    0.0000 C   0  0  0  0  0  0  0  0  0  0  0  0
   -3.8817   -1.2135    0.0000 N   0  0  0  0  0  0  0  0  0  0  0  0
   -5.3083   -0.7500    0.0000 O   0  0  0  0  0  0  0  0  0  0  0  0
   -5.3083    0.7500    0.0000 C   0  0  0  0  0  0  0  0  0  0  0  0
   -6.5218    1.6317    0.0000 O   0  0  0  0  0  0  0  0  0  0  0  0
   -3.8817    1.2135    0.0000 C   0  0  0  0  0  0  0  0  0  0  0  0
   -3.4182    2.6401    0.0000 C   0  0  0  0  0  0  0  0  0  0  0  0
   -4.4218    3.7548    0.0000 C   0  0  0  0  0  0  0  0  0  0  0  0
   -5.9136    3.5980    0.0000 C   0  0  0  0  0  0  0  0  0  0  0  0
   -6.5237    4.9684    0.0000 C   0  0  0  0  0  0  0  0  0  0  0  0
   -5.4090    5.9720    0.0000 C   0  0  0  0  0  0  0  0  0  0  0  0
   -4.1100    5.2220    0.0000 S   0  0  0  0  0  0  0  0  0  0  0  0
   -0.7500    1.2990    0.0000 C   0  0  0  0  0  0  0  0  0  0  0  0
    0.7500    1.2990    0.0000 C   0  0  0  0  0  0  0  0  0  0  0  0
  1  2  1  0
  2  3  1  0
  3  4  2  0
  4  5  1  0
  5  6  2  0
  6  7  1  0
  7  8  2  0
  8  9  1  0
  9 10  1  0
 10 11  2  0
 10 12  1  0
 12 13  2  0
 13 14  1  0
 14 15  2  0
 15 16  1  0
 16 17  2  0
 17 18  1  0
  6 19  1  0
 19 20  2  0
 20  3  1  0
 12  7  1  0
 18 14  1  0
M  END
>  <Compound_ID>  (43) 
CHEMBL81130

>  <Active>  (43) 
1.0

>  <Smiles>  (43) 
COc1ccc(C2=NOC(=O)/C2=C\c2cccs2)cc1

>  <canonical_smi>  (43) 
COc1ccc(C2=NOC(=O)/C2=C\c2cccs2)cc1

>  <Set>  (43) 
G1 active

>  <Set_type>  (43) 
G1

>  <MW>  (43) 
285.32

>  <HBD>  (43) 
0

>  <HBA>  (43) 
3

>  <NRB>  (43) 
3

>  <NR>  (43) 
3

>  <NAR>  (43) 
2

>  <PSA>  (43) 
47.89

>  <Standard Type>  (43) 
nan

>  <Standard Relation>  (43) 
nan

>  <Standard Units>  (43) 
nan

>  <Standard Value>  (43) 
nan

>  <Assay ChEMBL ID>  (43) 
nan

>  <Assay Description>  (43) 
nan

>  <BAO Label>  (43) 
nan

$$$$

     RDKit          2D

 42 50  0  0  0  0  0  0  0  0999 V2000
    6.4640   -1.9952    0.0000 C   0  0  0  0  0  0  0  0  0  0  0  0
    4.9655   -1.9279    0.0000 O   0  0  0  0  0  0  0  0  0  0  0  0
    4.1580   -3.1920    0.0000 C   0  0  0  0  0  0  0  0  0  0  0  0
    4.8489   -4.5234    0.0000 C   0  0  0  0  0  0  0  0  0  0  0  0
    6.3474   -4.5907    0.0000 N   0  0  0  0  0  0  0  0  0  0  0  0
    7.0384   -5.9220    0.0000 C   0  0  0  0  0  0  0  0  0  0  0  0
    7.1549   -3.3266    0.0000 C   0  0  0  0  0  0  0  0  0  0  0  0
    8.6534   -3.3939    0.0000 C   0  0  0  0  0  0  0  0  0  0  0  0
    9.3444   -4.7252    0.0000 C   0  0  0  0  0  0  0  0  0  0  0  0
   10.8429   -4.7925    0.0000 C   0  0  0  0  0  0  0  0  0  0  0  0
   11.6504   -3.5285    0.0000 C   0  0  0  0  0  0  0  0  0  0  0  0
   10.9594   -2.1971    0.0000 C   0  0  0  0  0  0  0  0  0  0  0  0
    9.4610   -2.1298    0.0000 C   0  0  0  0  0  0  0  0  0  0  0  0
    4.0414   -5.7874    0.0000 C   0  0  0  0  0  0  0  0  0  0  0  0
    2.5382   -5.8249    0.0000 C   0  0  0  0  0  0  0  0  0  0  0  0
    3.2490   -4.5040    0.0000 O   0  0  0  0  0  0  0  0  0  0  0  0
    2.6595   -3.1247    0.0000 C   0  0  0  0  0  0  0  0  0  0  0  0
    3.6464   -1.9951    0.0000 C   0  0  0  0  0  0  0  0  0  0  0  0
    1.2135   -2.7256    0.0000 N   0  0  0  0  0  0  0  0  0  0  0  0
    0.7500   -1.2990    0.0000 C   0  0  0  0  0  0  0  0  0  0  0  0
    1.5000    0.0000    0.0000 C   0  0  0  0  0  0  0  0  0  0  0  0
    0.7500    1.2990    0.0000 C   0  0  0  0  0  0  0  0  0  0  0  0
   -0.7500    1.2990    0.0000 C   0  0  0  0  0  0  0  0  0  0  0  0
   -1.5000    0.0000    0.0000 C   0  0  0  0  0  0  0  0  0  0  0  0
   -0.7500   -1.2990    0.0000 C   0  0  0  0  0  0  0  0  0  0  0  0
   -1.2135   -2.7256    0.0000 C   0  0  0  0  0  0  0  0  0  0  0  0
   -2.5518   -3.5691    0.0000 C   0  0  0  0  0  0  0  0  0  0  0  0
   -2.6191   -5.0676    0.0000 C   0  0  0  0  0  0  0  0  0  0  0  0
   -1.3550   -5.8751    0.0000 C   0  0  0  0  0  0  0  0  0  0  0  0
   -1.0212   -7.3375    0.0000 C   0  0  0  0  0  0  0  0  0  0  0  0
   -1.8846   -8.5641    0.0000 C   0  0  0  0  0  0  0  0  0  0  0  0
   -1.2541   -9.9251    0.0000 C   0  0  0  0  0  0  0  0  0  0  0  0
    0.2399  -10.0596    0.0000 C   0  0  0  0  0  0  0  0  0  0  0  0
    1.1033   -8.8330    0.0000 C   0  0  0  0  0  0  0  0  0  0  0  0
    0.4728   -7.4720    0.0000 C   0  0  0  0  0  0  0  0  0  0  0  0
    1.0623   -6.0927    0.0000 N   0  0  0  0  0  0  0  0  0  0  0  0
   -0.0673   -5.1058    0.0000 C   0  0  0  0  0  0  0  0  0  0  0  0
   -0.0000   -3.6073    0.0000 C   0  0  0  0  0  0  0  0  0  0  0  0
   -4.0650   -5.4667    0.0000 C   0  0  0  0  0  0  0  0  0  0  0  0
   -4.5921   -6.8710    0.0000 O   0  0  0  0  0  0  0  0  0  0  0  0
   -4.8913   -4.2148    0.0000 N   0  0  0  0  0  0  0  0  0  0  0  0
   -3.9561   -3.0421    0.0000 C   0  0  0  0  0  0  0  0  0  0  0  0
  1  2  1  0
  3  2  1  1
  3  4  1  0
  4  5  1  1
  5  6  1  0
  5  7  1  0
  7  8  1  0
  8  9  2  0
  9 10  1  0
 10 11  2  0
 11 12  1  0
 12 13  2  0
  4 14  1  0
 15 14  1  1
 15 16  1  0
 16 17  1  0
 17 18  1  6
 17 19  1  0
 19 20  1  0
 20 21  2  0
 21 22  1  0
 22 23  2  0
 23 24  1  0
 24 25  2  0
 25 26  1  0
 26 27  2  0
 27 28  1  0
 28 29  2  0
 29 30  1  0
 30 31  2  0
 31 32  1  0
 32 33  2  0
 33 34  1  0
 34 35  2  0
 35 36  1  0
 36 37  1  0
 37 38  2  0
 28 39  1  0
 39 40  2  0
 39 41  1  0
 41 42  1  0
 17  3  1  0
 38 19  1  0
 13  8  1  0
 36 15  1  0
 25 20  1  0
 38 26  1  0
 42 27  1  0
 37 29  1  0
 35 30  1  0
M  END
>  <Compound_ID>  (44) 
CHEMBL131193

>  <Active>  (44) 
1.0

>  <Smiles>  (44) 
CO[C@H]1[C@@H](N(C)Cc2ccccc2)C[C@@H]2O[C@@]1(C)n1c3ccccc3c3c4c(c5c6ccccc6n2c5c31)C(=O)NC4

>  <canonical_smi>  (44) 
CO[C@H]1[C@@H](N(C)Cc2ccccc2)C[C@@H]2O[C@@]1(C)n1c3ccccc3c3c4c(c5c6ccccc6n2c5c31)C(=O)NC4

>  <Set>  (44) 
G1 active

>  <Set_type>  (44) 
G1

>  <MW>  (44) 
556.67

>  <HBD>  (44) 
1

>  <HBA>  (44) 
4

>  <NRB>  (44) 
4

>  <NR>  (44) 
9

>  <NAR>  (44) 
6

>  <PSA>  (44) 
60.66

>  <Standard Type>  (44) 
nan

>  <Standard Relation>  (44) 
nan

>  <Standard Units>  (44) 
nan

>  <Standard Value>  (44) 
nan

>  <Assay ChEMBL ID>  (44) 
nan

>  <Assay Description>  (44) 
nan

>  <BAO Label>  (44) 
nan

$$$$

     RDKit          2D

 27 30  0  0  0  0  0  0  0  0999 V2000
   -6.4937   -2.7256    0.0000 O   0  0  0  0  0  0  0  0  0  0  0  0
   -5.0672   -3.1891    0.0000 C   0  0  0  0  0  0  0  0  0  0  0  0
   -4.6036   -4.6157    0.0000 N   0  0  0  0  0  0  0  0  0  0  0  0
   -3.1036   -4.6157    0.0000 C   0  0  0  0  0  0  0  0  0  0  0  0
   -2.2220   -5.8293    0.0000 O   0  0  0  0  0  0  0  0  0  0  0  0
   -2.6401   -3.1891    0.0000 C   0  0  0  0  0  0  0  0  0  0  0  0
   -1.2135   -2.7256    0.0000 C   0  0  0  0  0  0  0  0  0  0  0  0
   -0.0000   -3.6073    0.0000 C   0  0  0  0  0  0  0  0  0  0  0  0
    1.2135   -2.7256    0.0000 N   0  0  0  0  0  0  0  0  0  0  0  0
    2.6401   -3.1891    0.0000 C   0  0  0  0  0  0  0  0  0  0  0  0
    2.9520   -4.6564    0.0000 C   0  0  0  0  0  0  0  0  0  0  0  0
    4.3786   -5.1199    0.0000 C   0  0  0  0  0  0  0  0  0  0  0  0
    4.6904   -6.5871    0.0000 O   0  0  0  0  0  0  0  0  0  0  0  0
    0.7500   -1.2990    0.0000 C   0  0  0  0  0  0  0  0  0  0  0  0
    1.5000    0.0000    0.0000 N   0  0  0  0  0  0  0  0  0  0  0  0
    0.7500    1.2990    0.0000 C   0  0  0  0  0  0  0  0  0  0  0  0
   -0.7500    1.2990    0.0000 C   0  0  0  0  0  0  0  0  0  0  0  0
   -1.5000    0.0000    0.0000 C   0  0  0  0  0  0  0  0  0  0  0  0
   -0.7500   -1.2990    0.0000 C   0  0  0  0  0  0  0  0  0  0  0  0
   -3.8536   -2.3075    0.0000 C   0  0  0  0  0  0  0  0  0  0  0  0
   -3.8536   -0.8075    0.0000 C   0  0  0  0  0  0  0  0  0  0  0  0
   -2.5546   -0.0575    0.0000 C   0  0  0  0  0  0  0  0  0  0  0  0
   -2.5546    1.4425    0.0000 C   0  0  0  0  0  0  0  0  0  0  0  0
   -3.8536    2.1925    0.0000 C   0  0  0  0  0  0  0  0  0  0  0  0
   -5.1527    1.4425    0.0000 C   0  0  0  0  0  0  0  0  0  0  0  0
   -5.1527   -0.0575    0.0000 C   0  0  0  0  0  0  0  0  0  0  0  0
   -6.4517   -0.8075    0.0000 Cl  0  0  0  0  0  0  0  0  0  0  0  0
  1  2  2  0
  2  3  1  0
  3  4  1  0
  4  5  2  0
  4  6  1  0
  6  7  1  0
  7  8  2  0
  8  9  1  0
  9 10  1  0
 10 11  1  0
 11 12  1  0
 12 13  1  0
  9 14  1  0
 14 15  2  0
 15 16  1  0
 16 17  2  0
 17 18  1  0
 18 19  2  0
  6 20  2  0
 20 21  1  0
 21 22  2  0
 22 23  1  0
 23 24  2  0
 24 25  1  0
 25 26  2  0
 26 27  1  0
 20  2  1  0
 26 21  1  0
 19  7  1  0
 19 14  1  0
M  END
>  <Compound_ID>  (45) 
CHEMBL326971

>  <Active>  (45) 
1.0

>  <Smiles>  (45) 
O=C1NC(=O)C(c2cn(CCCO)c3ncccc23)=C1c1ccccc1Cl

>  <canonical_smi>  (45) 
O=C1NC(=O)C(c2cn(CCCO)c3ncccc23)=C1c1ccccc1Cl

>  <Set>  (45) 
G1 active

>  <Set_type>  (45) 
G1

>  <MW>  (45) 
381.82

>  <HBD>  (45) 
2

>  <HBA>  (45) 
4

>  <NRB>  (45) 
5

>  <NR>  (45) 
4

>  <NAR>  (45) 
3

>  <PSA>  (45) 
84.22

>  <Standard Type>  (45) 
nan

>  <Standard Relation>  (45) 
nan

>  <Standard Units>  (45) 
nan

>  <Standard Value>  (45) 
nan

>  <Assay ChEMBL ID>  (45) 
nan

>  <Assay Description>  (45) 
nan

>  <BAO Label>  (45) 
nan

$$$$

     RDKit          2D

 35 40  0  0  0  0  0  0  0  0999 V2000
   -7.3226    3.2658    0.0000 C   0  0  0  0  0  0  0  0  0  0  0  0
   -7.0990    1.7826    0.0000 C   0  0  0  0  0  0  0  0  0  0  0  0
   -8.2718    0.8473    0.0000 C   0  0  0  0  0  0  0  0  0  0  0  0
   -5.7027    1.2346    0.0000 O   0  0  0  0  0  0  0  0  0  0  0  0
   -5.4791   -0.2487    0.0000 C   0  0  0  0  0  0  0  0  0  0  0  0
   -6.6519   -1.1839    0.0000 O   0  0  0  0  0  0  0  0  0  0  0  0
   -4.0828   -0.7967    0.0000 N   0  0  0  0  0  0  0  0  0  0  0  0
   -3.9707   -2.2925    0.0000 C   0  0  0  0  0  0  0  0  0  0  0  0
   -2.7314   -3.1375    0.0000 C   0  0  0  0  0  0  0  0  0  0  0  0
   -1.2980   -2.6953    0.0000 N   0  0  0  0  0  0  0  0  0  0  0  0
   -0.1114   -3.6129    0.0000 C   0  0  0  0  0  0  0  0  0  0  0  0
    1.1280   -2.7680    0.0000 C   0  0  0  0  0  0  0  0  0  0  0  0
    2.5400   -3.2740    0.0000 C   0  0  0  0  0  0  0  0  0  0  0  0
    3.7794   -2.4290    0.0000 C   0  0  0  0  0  0  0  0  0  0  0  0
    3.8243   -0.9296    0.0000 C   0  0  0  0  0  0  0  0  0  0  0  0
    2.6377   -0.0121    0.0000 C   0  0  0  0  0  0  0  0  0  0  0  0
    3.1437    1.4000    0.0000 N   0  0  0  0  0  0  0  0  0  0  0  0
    4.6430    1.3552    0.0000 C   0  0  0  0  0  0  0  0  0  0  0  0
    5.6796    2.4393    0.0000 C   0  0  0  0  0  0  0  0  0  0  0  0
    7.1368    2.0837    0.0000 C   0  0  0  0  0  0  0  0  0  0  0  0
    7.5575    0.6439    0.0000 C   0  0  0  0  0  0  0  0  0  0  0  0
    6.5209   -0.4403    0.0000 C   0  0  0  0  0  0  0  0  0  0  0  0
    5.0636   -0.0847    0.0000 N   0  0  0  0  0  0  0  0  0  0  0  0
    4.9660   -3.3466    0.0000 C   0  0  0  0  0  0  0  0  0  0  0  0
    6.4058   -2.9259    0.0000 O   0  0  0  0  0  0  0  0  0  0  0  0
    4.4600   -4.7586    0.0000 N   0  0  0  0  0  0  0  0  0  0  0  0
    2.9607   -4.7138    0.0000 C   0  0  0  0  0  0  0  0  0  0  0  0
    2.0431   -5.9004    0.0000 O   0  0  0  0  0  0  0  0  0  0  0  0
    0.7500   -1.2990    0.0000 C   0  0  0  0  0  0  0  0  0  0  0  0
    1.5000    0.0000    0.0000 C   0  0  0  0  0  0  0  0  0  0  0  0
    0.7500    1.2990    0.0000 C   0  0  0  0  0  0  0  0  0  0  0  0
   -0.7500    1.2990    0.0000 C   0  0  0  0  0  0  0  0  0  0  0  0
   -1.5000    0.0000    0.0000 C   0  0  0  0  0  0  0  0  0  0  0  0
   -0.7500   -1.2990    0.0000 C   0  0  0  0  0  0  0  0  0  0  0  0
   -2.9832    0.2236    0.0000 C   0  0  0  0  0  0  0  0  0  0  0  0
  1  2  1  0
  2  3  1  0
  2  4  1  0
  4  5  1  0
  5  6  2  0
  5  7  1  0
  7  8  1  0
  8  9  1  0
  9 10  1  0
 10 11  1  0
 11 12  2  0
 12 13  1  0
 13 14  2  0
 14 15  1  0
 15 16  2  0
 16 17  1  0
 17 18  2  0
 18 19  1  0
 19 20  2  0
 20 21  1  0
 21 22  2  0
 22 23  1  0
 14 24  1  0
 24 25  2  0
 24 26  1  0
 26 27  1  0
 27 28  2  0
 12 29  1  0
 29 30  2  0
 30 31  1  0
 31 32  2  0
 32 33  1  0
 33 34  2  0
 33 35  1  0
 35  7  1  0
 34 10  1  0
 27 13  1  0
 34 29  1  0
 23 15  1  0
 23 18  1  0
M  END
>  <Compound_ID>  (46) 
CHEMBL363058

>  <Active>  (46) 
1.0

>  <Smiles>  (46) 
CC(C)OC(=O)N1CCn2cc(C3=C(c4cnc5ccccn45)C(=O)NC3=O)c3cccc(c32)C1

>  <canonical_smi>  (46) 
CC(C)OC(=O)N1CCn2cc(C3=C(c4cnc5ccccn45)C(=O)NC3=O)c3cccc(c32)C1

>  <Set>  (46) 
G1 active

>  <Set_type>  (46) 
G1

>  <MW>  (46) 
469.5

>  <HBD>  (46) 
1

>  <HBA>  (46) 
5

>  <NRB>  (46) 
3

>  <NR>  (46) 
6

>  <NAR>  (46) 
4

>  <PSA>  (46) 
97.94

>  <Standard Type>  (46) 
nan

>  <Standard Relation>  (46) 
nan

>  <Standard Units>  (46) 
nan

>  <Standard Value>  (46) 
nan

>  <Assay ChEMBL ID>  (46) 
nan

>  <Assay Description>  (46) 
nan

>  <BAO Label>  (46) 
nan

$$$$

     RDKit          2D

 39 43  0  0  0  0  0  0  0  0999 V2000
   -9.8419   -8.5206    0.0000 O   0  0  0  0  0  0  0  0  0  0  0  0
   -8.5004   -7.8496    0.0000 C   0  0  0  0  0  0  0  0  0  0  0  0
   -8.4107   -6.3523    0.0000 N   0  0  0  0  0  0  0  0  0  0  0  0
   -9.6625   -5.5260    0.0000 C   0  0  0  0  0  0  0  0  0  0  0  0
  -10.9502   -6.2953    0.0000 C   0  0  0  0  0  0  0  0  0  0  0  0
  -12.3545   -5.7683    0.0000 N   0  0  0  0  0  0  0  0  0  0  0  0
  -12.8181   -4.3417    0.0000 C   0  0  0  0  0  0  0  0  0  0  0  0
  -11.9917   -3.0898    0.0000 C   0  0  0  0  0  0  0  0  0  0  0  0
  -10.4978   -2.9554    0.0000 C   0  0  0  0  0  0  0  0  0  0  0  0
   -9.4612   -4.0396    0.0000 C   0  0  0  0  0  0  0  0  0  0  0  0
   -8.0346   -3.5760    0.0000 O   0  0  0  0  0  0  0  0  0  0  0  0
   -6.9199   -4.5797    0.0000 C   0  0  0  0  0  0  0  0  0  0  0  0
   -7.2317   -6.0469    0.0000 O   0  0  0  0  0  0  0  0  0  0  0  0
   -5.4933   -4.1162    0.0000 C   0  0  0  0  0  0  0  0  0  0  0  0
   -4.3786   -5.1199    0.0000 C   0  0  0  0  0  0  0  0  0  0  0  0
   -2.9520   -4.6564    0.0000 C   0  0  0  0  0  0  0  0  0  0  0  0
   -1.8373   -5.6601    0.0000 O   0  0  0  0  0  0  0  0  0  0  0  0
   -2.6401   -3.1891    0.0000 C   0  0  0  0  0  0  0  0  0  0  0  0
   -1.2135   -2.7256    0.0000 C   0  0  0  0  0  0  0  0  0  0  0  0
   -0.0000   -3.6073    0.0000 O   0  0  0  0  0  0  0  0  0  0  0  0
    1.2135   -2.7256    0.0000 C   0  0  0  0  0  0  0  0  0  0  0  0
    2.6401   -3.1891    0.0000 O   0  0  0  0  0  0  0  0  0  0  0  0
    0.7500   -1.2990    0.0000 C   0  0  0  0  0  0  0  0  0  0  0  0
    1.5000    0.0000    0.0000 C   0  0  0  0  0  0  0  0  0  0  0  0
    0.7500    1.2990    0.0000 C   0  0  0  0  0  0  0  0  0  0  0  0
   -0.7500    1.2990    0.0000 C   0  0  0  0  0  0  0  0  0  0  0  0
   -1.5000   -0.0000    0.0000 C   0  0  0  0  0  0  0  0  0  0  0  0
   -2.9888    0.1828    0.0000 O   0  0  0  0  0  0  0  0  0  0  0  0
   -0.7500   -1.2990    0.0000 C   0  0  0  0  0  0  0  0  0  0  0  0
   -3.7548   -2.1855    0.0000 C   0  0  0  0  0  0  0  0  0  0  0  0
   -3.6241   -0.6912    0.0000 O   0  0  0  0  0  0  0  0  0  0  0  0
   -5.1814   -2.6490    0.0000 C   0  0  0  0  0  0  0  0  0  0  0  0
   -7.2485   -8.6760    0.0000 C   0  0  0  0  0  0  0  0  0  0  0  0
   -7.3382  -10.1733    0.0000 C   0  0  0  0  0  0  0  0  0  0  0  0
   -6.0863  -10.9996    0.0000 C   0  0  0  0  0  0  0  0  0  0  0  0
   -4.7448  -10.3287    0.0000 C   0  0  0  0  0  0  0  0  0  0  0  0
   -3.4929  -11.1550    0.0000 O   0  0  0  0  0  0  0  0  0  0  0  0
   -4.6551   -8.8314    0.0000 C   0  0  0  0  0  0  0  0  0  0  0  0
   -5.9069   -8.0050    0.0000 C   0  0  0  0  0  0  0  0  0  0  0  0
  1  2  2  0
  2  3  1  0
  3  4  1  0
  4  5  1  0
  5  6  1  0
  6  7  1  0
  7  8  1  0
  8  9  1  0
  9 10  1  0
 10 11  1  1
 11 12  1  0
 12 13  2  0
 12 14  1  0
 14 15  2  0
 15 16  1  0
 16 17  1  0
 16 18  2  0
 18 19  1  0
 19 20  1  0
 20 21  1  0
 21 22  2  0
 21 23  1  0
 23 24  2  0
 24 25  1  0
 25 26  2  0
 26 27  1  0
 27 28  1  0
 27 29  2  0
 18 30  1  0
 30 31  1  0
 30 32  2  0
  2 33  1  0
 33 34  2  0
 34 35  1  0
 35 36  2  0
 36 37  1  0
 36 38  1  0
 38 39  2  0
 10  4  1  0
 32 14  1  0
 39 33  1  0
 29 19  1  0
 29 23  1  0
M  END
>  <Compound_ID>  (47) 
CHEMBL86680

>  <Active>  (47) 
1.0

>  <Smiles>  (47) 
O=C(NC1CNCCC[C@H]1OC(=O)c1cc(O)c(C2OC(=O)c3cccc(O)c32)c(O)c1)c1ccc(O)cc1

>  <canonical_smi>  (47) 
O=C(NC1CNCCC[C@H]1OC(=O)c1cc(O)c(C2OC(=O)c3cccc(O)c32)c(O)c1)c1ccc(O)cc1

>  <Set>  (47) 
G1 active

>  <Set_type>  (47) 
G1

>  <MW>  (47) 
534.52

>  <HBD>  (47) 
6

>  <HBA>  (47) 
10

>  <NRB>  (47) 
5

>  <NR>  (47) 
5

>  <NAR>  (47) 
3

>  <PSA>  (47) 
174.65

>  <Standard Type>  (47) 
nan

>  <Standard Relation>  (47) 
nan

>  <Standard Units>  (47) 
nan

>  <Standard Value>  (47) 
nan

>  <Assay ChEMBL ID>  (47) 
nan

>  <Assay Description>  (47) 
nan

>  <BAO Label>  (47) 
nan

$$$$

     RDKit          2D

 36 41  0  0  0  0  0  0  0  0999 V2000
   -3.5736    1.2902    0.0000 C   0  0  0  0  0  0  0  0  0  0  0  0
   -2.1470    1.7537    0.0000 C   0  0  0  0  0  0  0  0  0  0  0  0
   -1.8351    3.2209    0.0000 C   0  0  0  0  0  0  0  0  0  0  0  0
   -2.9499    4.2246    0.0000 N   0  0  0  0  0  0  0  0  0  0  0  0
   -2.6380    5.6918    0.0000 C   0  0  0  0  0  0  0  0  0  0  0  0
   -1.2114    6.1554    0.0000 C   0  0  0  0  0  0  0  0  0  0  0  0
   -0.0967    5.1517    0.0000 C   0  0  0  0  0  0  0  0  0  0  0  0
    1.0180    4.1480    0.0000 N   0  0  0  0  0  0  0  0  0  0  0  0
   -0.8995    7.6226    0.0000 C   0  0  0  0  0  0  0  0  0  0  0  0
   -2.0143    8.6263    0.0000 N   0  0  0  0  0  0  0  0  0  0  0  0
   -3.4408    8.1628    0.0000 C   0  0  0  0  0  0  0  0  0  0  0  0
   -3.7527    6.6955    0.0000 C   0  0  0  0  0  0  0  0  0  0  0  0
   -5.1793    6.2320    0.0000 C   0  0  0  0  0  0  0  0  0  0  0  0
   -6.3928    7.1137    0.0000 C   0  0  0  0  0  0  0  0  0  0  0  0
   -7.6063    6.2320    0.0000 C   0  0  0  0  0  0  0  0  0  0  0  0
   -9.0736    6.5439    0.0000 C   0  0  0  0  0  0  0  0  0  0  0  0
  -10.0773    5.4292    0.0000 C   0  0  0  0  0  0  0  0  0  0  0  0
  -11.5445    5.7410    0.0000 C   0  0  0  0  0  0  0  0  0  0  0  0
  -12.0080    7.1676    0.0000 N   0  0  0  0  0  0  0  0  0  0  0  0
  -11.0043    8.2823    0.0000 C   0  0  0  0  0  0  0  0  0  0  0  0
  -11.4678    9.7089    0.0000 C   0  0  0  0  0  0  0  0  0  0  0  0
  -12.9351   10.0208    0.0000 N   0  0  0  0  0  0  0  0  0  0  0  0
  -13.3986   11.4474    0.0000 C   0  0  0  0  0  0  0  0  0  0  0  0
  -13.9387    8.9061    0.0000 C   0  0  0  0  0  0  0  0  0  0  0  0
  -13.4752    7.4795    0.0000 C   0  0  0  0  0  0  0  0  0  0  0  0
   -9.6137    4.0026    0.0000 C   0  0  0  0  0  0  0  0  0  0  0  0
   -8.1465    3.6907    0.0000 C   0  0  0  0  0  0  0  0  0  0  0  0
   -7.1428    4.8054    0.0000 C   0  0  0  0  0  0  0  0  0  0  0  0
   -5.6428    4.8054    0.0000 O   0  0  0  0  0  0  0  0  0  0  0  0
   -0.4086    3.6844    0.0000 C   0  0  0  0  0  0  0  0  0  0  0  0
    0.7062    2.6807    0.0000 C   0  0  0  0  0  0  0  0  0  0  0  0
    0.3943    1.2135    0.0000 C   0  0  0  0  0  0  0  0  0  0  0  0
    1.2760    0.0000    0.0000 N   0  0  0  0  0  0  0  0  0  0  0  0
    0.3943   -1.2135    0.0000 C   0  0  0  0  0  0  0  0  0  0  0  0
   -1.0323   -0.7500    0.0000 C   0  0  0  0  0  0  0  0  0  0  0  0
   -1.0323    0.7500    0.0000 C   0  0  0  0  0  0  0  0  0  0  0  0
  1  2  1  0
  2  3  2  0
  3  4  1  0
  4  5  1  0
  5  6  2  0
  6  7  1  0
  7  8  3  0
  6  9  1  0
  9 10  2  0
 10 11  1  0
 11 12  2  0
 12 13  1  0
 13 14  2  0
 14 15  1  0
 15 16  2  0
 16 17  1  0
 17 18  1  0
 18 19  1  0
 19 20  1  0
 20 21  1  0
 21 22  1  0
 22 23  1  0
 22 24  1  0
 24 25  1  0
 17 26  2  0
 26 27  1  0
 27 28  2  0
 28 29  1  0
  3 30  1  0
 30 31  2  0
 31 32  1  0
 32 33  1  0
 33 34  1  0
 34 35  2  0
 35 36  1  0
 36  2  1  0
 12  5  1  0
 29 13  1  0
 36 32  2  0
 28 15  1  0
 25 19  1  0
M  END
>  <Compound_ID>  (48) 
CHEMBL571581

>  <Active>  (48) 
1.0

>  <Smiles>  (48) 
Cc1c(Nc2c(C#N)cncc2-c2cc3cc(CN4CCN(C)CC4)ccc3o2)ccc2[nH]ccc12

>  <canonical_smi>  (48) 
Cc1c(Nc2c(C#N)cncc2-c2cc3cc(CN4CCN(C)CC4)ccc3o2)ccc2[nH]ccc12

>  <Set>  (48) 
G1 active

>  <Set_type>  (48) 
G1

>  <MW>  (48) 
476.58

>  <HBD>  (48) 
2

>  <HBA>  (48) 
6

>  <NRB>  (48) 
5

>  <NR>  (48) 
6

>  <NAR>  (48) 
5

>  <PSA>  (48) 
84.12

>  <Standard Type>  (48) 
nan

>  <Standard Relation>  (48) 
nan

>  <Standard Units>  (48) 
nan

>  <Standard Value>  (48) 
nan

>  <Assay ChEMBL ID>  (48) 
nan

>  <Assay Description>  (48) 
nan

>  <BAO Label>  (48) 
nan

$$$$

     RDKit          2D

 37 43  0  0  0  0  0  0  0  0999 V2000
    5.4933   -4.1162    0.0000 O   0  0  0  0  0  0  0  0  0  0  0  0
    5.1814   -2.6490    0.0000 C   0  0  0  0  0  0  0  0  0  0  0  0
    3.7548   -2.1855    0.0000 C   0  0  0  0  0  0  0  0  0  0  0  0
    2.6401   -3.1891    0.0000 C   0  0  0  0  0  0  0  0  0  0  0  0
    1.2135   -2.7256    0.0000 N   0  0  0  0  0  0  0  0  0  0  0  0
    0.7500   -1.2990    0.0000 C   0  0  0  0  0  0  0  0  0  0  0  0
    1.5000    0.0000    0.0000 C   0  0  0  0  0  0  0  0  0  0  0  0
    0.7500    1.2990    0.0000 C   0  0  0  0  0  0  0  0  0  0  0  0
   -0.7500    1.2990    0.0000 C   0  0  0  0  0  0  0  0  0  0  0  0
   -1.5000    0.0000    0.0000 C   0  0  0  0  0  0  0  0  0  0  0  0
   -0.7500   -1.2990    0.0000 C   0  0  0  0  0  0  0  0  0  0  0  0
   -1.2135   -2.7256    0.0000 C   0  0  0  0  0  0  0  0  0  0  0  0
   -2.5838   -3.3357    0.0000 C   0  0  0  0  0  0  0  0  0  0  0  0
   -2.7406   -4.8275    0.0000 C   0  0  0  0  0  0  0  0  0  0  0  0
   -1.5271   -5.7092    0.0000 C   0  0  0  0  0  0  0  0  0  0  0  0
   -1.3703   -7.2010    0.0000 C   0  0  0  0  0  0  0  0  0  0  0  0
   -2.3740   -8.3157    0.0000 C   0  0  0  0  0  0  0  0  0  0  0  0
   -1.9105   -9.7423    0.0000 C   0  0  0  0  0  0  0  0  0  0  0  0
   -0.4433  -10.0541    0.0000 C   0  0  0  0  0  0  0  0  0  0  0  0
    0.5604   -8.9394    0.0000 C   0  0  0  0  0  0  0  0  0  0  0  0
    0.0969   -7.5128    0.0000 C   0  0  0  0  0  0  0  0  0  0  0  0
    0.8469   -6.2138    0.0000 N   0  0  0  0  0  0  0  0  0  0  0  0
   -0.1568   -5.0991    0.0000 C   0  0  0  0  0  0  0  0  0  0  0  0
   -0.0000   -3.6073    0.0000 C   0  0  0  0  0  0  0  0  0  0  0  0
   -4.2079   -5.1394    0.0000 C   0  0  0  0  0  0  0  0  0  0  0  0
   -4.8180   -6.5097    0.0000 O   0  0  0  0  0  0  0  0  0  0  0  0
   -4.9579   -3.8403    0.0000 N   0  0  0  0  0  0  0  0  0  0  0  0
   -3.9542   -2.7256    0.0000 C   0  0  0  0  0  0  0  0  0  0  0  0
    6.2961   -1.6453    0.0000 N   0  0  0  0  0  0  0  0  0  0  0  0
    7.7227   -2.1088    0.0000 C   0  0  0  0  0  0  0  0  0  0  0  0
    8.8374   -1.1051    0.0000 C   0  0  0  0  0  0  0  0  0  0  0  0
   10.2640   -1.5686    0.0000 N   0  0  0  0  0  0  0  0  0  0  0  0
   10.5759   -3.0359    0.0000 C   0  0  0  0  0  0  0  0  0  0  0  0
   12.0025   -3.4994    0.0000 C   0  0  0  0  0  0  0  0  0  0  0  0
   13.1172   -2.4957    0.0000 O   0  0  0  0  0  0  0  0  0  0  0  0
   12.8053   -1.0285    0.0000 C   0  0  0  0  0  0  0  0  0  0  0  0
   11.3787   -0.5649    0.0000 C   0  0  0  0  0  0  0  0  0  0  0  0
  1  2  2  0
  2  3  1  0
  3  4  1  0
  4  5  1  0
  5  6  1  0
  6  7  2  0
  7  8  1  0
  8  9  2  0
  9 10  1  0
 10 11  2  0
 11 12  1  0
 12 13  2  0
 13 14  1  0
 14 15  2  0
 15 16  1  0
 16 17  2  0
 17 18  1  0
 18 19  2  0
 19 20  1  0
 20 21  2  0
 21 22  1  0
 22 23  1  0
 23 24  2  0
 14 25  1  0
 25 26  2  0
 25 27  1  0
 27 28  1  0
  2 29  1  0
 29 30  1  0
 30 31  1  0
 31 32  1  0
 32 33  1  0
 33 34  1  0
 34 35  1  0
 35 36  1  0
 36 37  1  0
 24  5  1  0
 37 32  1  0
 11  6  1  0
 24 12  1  0
 28 13  1  0
 23 15  1  0
 21 16  1  0
M  END
>  <Compound_ID>  (49) 
CHEMBL318272

>  <Active>  (49) 
1.0

>  <Smiles>  (49) 
O=C(CCn1c2ccccc2c2c3c(c4c5ccccc5[nH]c4c21)C(=O)NC3)NCCN1CCOCC1

>  <canonical_smi>  (49) 
O=C(CCn1c2ccccc2c2c3c(c4c5ccccc5[nH]c4c21)C(=O)NC3)NCCN1CCOCC1

>  <Set>  (49) 
G1 active

>  <Set_type>  (49) 
G1

>  <MW>  (49) 
495.58

>  <HBD>  (49) 
3

>  <HBA>  (49) 
4

>  <NRB>  (49) 
6

>  <NR>  (49) 
7

>  <NAR>  (49) 
5

>  <PSA>  (49) 
91.39

>  <Standard Type>  (49) 
nan

>  <Standard Relation>  (49) 
nan

>  <Standard Units>  (49) 
nan

>  <Standard Value>  (49) 
nan

>  <Assay ChEMBL ID>  (49) 
nan

>  <Assay Description>  (49) 
nan

>  <BAO Label>  (49) 
nan

$$$$

     RDKit          2D

 18 20  0  0  0  0  0  0  0  0999 V2000
    1.8478   -6.4639    0.0000 O   0  0  0  0  0  0  0  0  0  0  0  0
    2.0046   -4.9721    0.0000 C   0  0  0  0  0  0  0  0  0  0  0  0
    3.3037   -4.2221    0.0000 O   0  0  0  0  0  0  0  0  0  0  0  0
    2.9918   -2.7549    0.0000 N   0  0  0  0  0  0  0  0  0  0  0  0
    1.5000   -2.5981    0.0000 C   0  0  0  0  0  0  0  0  0  0  0  0
    0.7500   -1.2990    0.0000 C   0  0  0  0  0  0  0  0  0  0  0  0
    1.5000    0.0000    0.0000 C   0  0  0  0  0  0  0  0  0  0  0  0
    0.7500    1.2990    0.0000 C   0  0  0  0  0  0  0  0  0  0  0  0
   -0.7500    1.2990    0.0000 C   0  0  0  0  0  0  0  0  0  0  0  0
   -1.5000    0.0000    0.0000 C   0  0  0  0  0  0  0  0  0  0  0  0
   -0.7500   -1.2990    0.0000 C   0  0  0  0  0  0  0  0  0  0  0  0
    0.8899   -3.9684    0.0000 C   0  0  0  0  0  0  0  0  0  0  0  0
   -0.5773   -4.2803    0.0000 C   0  0  0  0  0  0  0  0  0  0  0  0
   -1.0409   -5.7068    0.0000 C   0  0  0  0  0  0  0  0  0  0  0  0
   -0.1592   -6.9204    0.0000 C   0  0  0  0  0  0  0  0  0  0  0  0
   -1.0409   -8.1339    0.0000 C   0  0  0  0  0  0  0  0  0  0  0  0
   -2.4674   -7.6704    0.0000 C   0  0  0  0  0  0  0  0  0  0  0  0
   -2.4674   -6.1704    0.0000 O   0  0  0  0  0  0  0  0  0  0  0  0
  1  2  2  0
  2  3  1  0
  3  4  1  0
  4  5  2  0
  5  6  1  0
  6  7  2  0
  7  8  1  0
  8  9  2  0
  9 10  1  0
 10 11  2  0
  5 12  1  0
 12 13  2  0
 13 14  1  0
 14 15  2  0
 15 16  1  0
 16 17  2  0
 17 18  1  0
 12  2  1  0
 18 14  1  0
 11  6  1  0
M  END
>  <Compound_ID>  (50) 
CHEMBL80658

>  <Active>  (50) 
1.0

>  <Smiles>  (50) 
O=C1ON=C(c2ccccc2)/C1=C/c1ccco1

>  <canonical_smi>  (50) 
O=C1ON=C(c2ccccc2)/C1=C/c1ccco1

>  <Set>  (50) 
G1 active

>  <Set_type>  (50) 
G1

>  <MW>  (50) 
239.23

>  <HBD>  (50) 
0

>  <HBA>  (50) 
3

>  <NRB>  (50) 
2

>  <NR>  (50) 
3

>  <NAR>  (50) 
2

>  <PSA>  (50) 
51.8

>  <Standard Type>  (50) 
nan

>  <Standard Relation>  (50) 
nan

>  <Standard Units>  (50) 
nan

>  <Standard Value>  (50) 
nan

>  <Assay ChEMBL ID>  (50) 
nan

>  <Assay Description>  (50) 
nan

>  <BAO Label>  (50) 
nan

$$$$

     RDKit          2D

 35 42  0  0  0  0  0  0  0  0999 V2000
    7.0384   -5.9220    0.0000 C   0  0  0  0  0  0  0  0  0  0  0  0
    6.3474   -4.5907    0.0000 N   0  0  0  0  0  0  0  0  0  0  0  0
    4.8489   -4.5234    0.0000 C   0  0  0  0  0  0  0  0  0  0  0  0
    4.0414   -5.7874    0.0000 C   0  0  0  0  0  0  0  0  0  0  0  0
    2.5382   -5.8249    0.0000 C   0  0  0  0  0  0  0  0  0  0  0  0
    3.2490   -4.5040    0.0000 O   0  0  0  0  0  0  0  0  0  0  0  0
    2.6595   -3.1247    0.0000 C   0  0  0  0  0  0  0  0  0  0  0  0
    3.6464   -1.9951    0.0000 C   0  0  0  0  0  0  0  0  0  0  0  0
    4.1580   -3.1920    0.0000 C   0  0  0  0  0  0  0  0  0  0  0  0
    4.9655   -1.9279    0.0000 O   0  0  0  0  0  0  0  0  0  0  0  0
    6.4640   -1.9952    0.0000 C   0  0  0  0  0  0  0  0  0  0  0  0
    1.2135   -2.7256    0.0000 N   0  0  0  0  0  0  0  0  0  0  0  0
    0.7500   -1.2990    0.0000 C   0  0  0  0  0  0  0  0  0  0  0  0
    1.5000    0.0000    0.0000 C   0  0  0  0  0  0  0  0  0  0  0  0
    0.7500    1.2990    0.0000 C   0  0  0  0  0  0  0  0  0  0  0  0
   -0.7500    1.2990    0.0000 C   0  0  0  0  0  0  0  0  0  0  0  0
   -1.5000    0.0000    0.0000 C   0  0  0  0  0  0  0  0  0  0  0  0
   -0.7500   -1.2990    0.0000 C   0  0  0  0  0  0  0  0  0  0  0  0
   -1.2135   -2.7256    0.0000 C   0  0  0  0  0  0  0  0  0  0  0  0
   -2.5518   -3.5691    0.0000 C   0  0  0  0  0  0  0  0  0  0  0  0
   -2.6191   -5.0676    0.0000 C   0  0  0  0  0  0  0  0  0  0  0  0
   -1.3550   -5.8751    0.0000 C   0  0  0  0  0  0  0  0  0  0  0  0
   -1.0212   -7.3375    0.0000 C   0  0  0  0  0  0  0  0  0  0  0  0
   -1.8846   -8.5641    0.0000 C   0  0  0  0  0  0  0  0  0  0  0  0
   -1.2541   -9.9251    0.0000 C   0  0  0  0  0  0  0  0  0  0  0  0
    0.2399  -10.0596    0.0000 C   0  0  0  0  0  0  0  0  0  0  0  0
    1.1033   -8.8330    0.0000 C   0  0  0  0  0  0  0  0  0  0  0  0
    0.4728   -7.4720    0.0000 C   0  0  0  0  0  0  0  0  0  0  0  0
    1.0623   -6.0927    0.0000 N   0  0  0  0  0  0  0  0  0  0  0  0
   -0.0673   -5.1058    0.0000 C   0  0  0  0  0  0  0  0  0  0  0  0
   -0.0000   -3.6073    0.0000 C   0  0  0  0  0  0  0  0  0  0  0  0
   -4.0650   -5.4667    0.0000 C   0  0  0  0  0  0  0  0  0  0  0  0
   -4.5921   -6.8710    0.0000 O   0  0  0  0  0  0  0  0  0  0  0  0
   -4.8913   -4.2148    0.0000 N   0  0  0  0  0  0  0  0  0  0  0  0
   -3.9561   -3.0421    0.0000 C   0  0  0  0  0  0  0  0  0  0  0  0
  1  2  1  0
  3  2  1  6
  3  4  1  0
  4  5  1  0
  5  6  1  0
  6  7  1  0
  7  8  1  1
  7  9  1  0
  9 10  1  6
 10 11  1  0
  7 12  1  0
 12 13  1  0
 13 14  2  0
 14 15  1  0
 15 16  2  0
 16 17  1  0
 17 18  2  0
 18 19  1  0
 19 20  2  0
 20 21  1  0
 21 22  2  0
 22 23  1  0
 23 24  2  0
 24 25  1  0
 25 26  2  0
 26 27  1  0
 27 28  2  0
 28 29  1  0
 29 30  1  0
 30 31  2  0
 21 32  1  0
 32 33  2  0
 32 34  1  0
 34 35  1  0
  9  3  1  0
 31 12  1  0
 29  5  1  0
 18 13  1  0
 31 19  1  0
 35 20  1  0
 30 22  1  0
 28 23  1  0
M  END
>  <Compound_ID>  (51) 
CHEMBL162

>  <Active>  (51) 
1.0

>  <Smiles>  (51) 
CN[C@@H]1CC2O[C@@](C)([C@@H]1OC)n1c3ccccc3c3c4c(c5c6ccccc6n2c5c31)C(=O)NC4

>  <canonical_smi>  (51) 
CN[C@@H]1CC2O[C@@](C)([C@@H]1OC)n1c3ccccc3c3c4c(c5c6ccccc6n2c5c31)C(=O)NC4

>  <Set>  (51) 
G2 active

>  <Set_type>  (51) 
Train

>  <MW>  (51) 
466.54

>  <HBD>  (51) 
2

>  <HBA>  (51) 
4

>  <NRB>  (51) 
2

>  <NR>  (51) 
8

>  <NAR>  (51) 
5

>  <PSA>  (51) 
69.45

>  <Standard Type>  (51) 
nan

>  <Standard Relation>  (51) 
nan

>  <Standard Units>  (51) 
nan

>  <Standard Value>  (51) 
nan

>  <Assay ChEMBL ID>  (51) 
nan

>  <Assay Description>  (51) 
nan

>  <BAO Label>  (51) 
nan

$$$$

     RDKit          2D

 30 32  0  0  0  0  0  0  0  0999 V2000
   -7.5275  -10.5000    0.0000 C   0  0  0  0  0  0  0  0  0  0  0  0
   -6.2284   -9.7500    0.0000 C   0  0  0  0  0  0  0  0  0  0  0  0
   -6.2284   -8.2500    0.0000 C   0  0  0  0  0  0  0  0  0  0  0  0
   -4.9294   -7.5000    0.0000 C   0  0  0  0  0  0  0  0  0  0  0  0
   -4.9294   -6.0000    0.0000 C   0  0  0  0  0  0  0  0  0  0  0  0
   -3.6304   -5.2500    0.0000 C   0  0  0  0  0  0  0  0  0  0  0  0
   -3.6304   -3.7500    0.0000 C   0  0  0  0  0  0  0  0  0  0  0  0
   -2.3313   -3.0000    0.0000 C   0  0  0  0  0  0  0  0  0  0  0  0
   -2.3313   -1.5000    0.0000 C   0  0  0  0  0  0  0  0  0  0  0  0
   -3.6304   -0.7500    0.0000 C   0  0  0  0  0  0  0  0  0  0  0  0
   -3.6304    0.7500    0.0000 C   0  0  0  0  0  0  0  0  0  0  0  0
   -2.3313    1.5000    0.0000 C   0  0  0  0  0  0  0  0  0  0  0  0
   -1.0323    0.7500    0.0000 C   0  0  0  0  0  0  0  0  0  0  0  0
    0.3943    1.2135    0.0000 C   0  0  0  0  0  0  0  0  0  0  0  0
    1.2760    0.0000    0.0000 C   0  0  0  0  0  0  0  0  0  0  0  0
    0.3943   -1.2135    0.0000 N   0  0  0  0  0  0  0  0  0  0  0  0
   -1.0323   -0.7500    0.0000 C   0  0  0  0  0  0  0  0  0  0  0  0
    1.2760    2.4271    0.0000 C   0  0  0  0  0  0  0  0  0  0  0  0
    1.1713    3.9234    0.0000 C   0  0  0  0  0  0  0  0  0  0  0  0
    2.5417    4.5335    0.0000 C   0  0  0  0  0  0  0  0  0  0  0  0
    3.7552    3.6518    0.0000 O   0  0  0  0  0  0  0  0  0  0  0  0
    0.1294    5.0024    0.0000 N   0  0  0  0  0  0  0  0  0  0  0  0
   -1.3624    5.1592    0.0000 C   0  0  0  0  0  0  0  0  0  0  0  0
   -1.7253    6.6146    0.0000 O   0  0  0  0  0  0  0  0  0  0  0  0
   -2.6060    4.3204    0.0000 C   0  0  0  0  0  0  0  0  0  0  0  0
   -3.8195    5.2021    0.0000 C   0  0  0  0  0  0  0  0  0  0  0  0
   -3.6627    6.6939    0.0000 C   0  0  0  0  0  0  0  0  0  0  0  0
   -5.1898    4.5920    0.0000 C   0  0  0  0  0  0  0  0  0  0  0  0
   -3.0194    2.8785    0.0000 N   0  0  0  0  0  0  0  0  0  0  0  0
   -4.5158    2.7739    0.0000 C   0  0  0  0  0  0  0  0  0  0  0  0
  1  2  1  0
  2  3  1  0
  3  4  1  0
  4  5  1  0
  5  6  1  0
  6  7  1  0
  7  8  1  0
  8  9  1  0
  9 10  2  0
 10 11  1  0
 11 12  2  0
 12 13  1  0
 13 14  1  0
 14 15  2  0
 15 16  1  0
 16 17  1  0
 14 18  1  0
 18 19  1  0
 19 20  1  6
 20 21  1  0
 19 22  1  0
 22 23  1  0
 23 24  2  0
 23 25  1  0
 25 26  1  1
 26 27  1  0
 26 28  1  0
 25 29  1  0
 29 30  1  0
 17  9  1  0
 29 12  1  0
 17 13  2  0
M  END
>  <Compound_ID>  (52) 
CHEMBL285801

>  <Active>  (52) 
1.0

>  <Smiles>  (52) 
CCCCCCCCc1ccc2c3c(c[nH]c13)C[C@@H](CO)NC(=O)[C@H](C(C)C)N2C

>  <canonical_smi>  (52) 
CCCCCCCCc1ccc2c3c(c[nH]c13)C[C@@H](CO)NC(=O)[C@H](C(C)C)N2C

>  <Set>  (52) 
G2 active

>  <Set_type>  (52) 
Train

>  <MW>  (52) 
413.61

>  <HBD>  (52) 
3

>  <HBA>  (52) 
3

>  <NRB>  (52) 
9

>  <NR>  (52) 
3

>  <NAR>  (52) 
2

>  <PSA>  (52) 
68.36

>  <Standard Type>  (52) 
nan

>  <Standard Relation>  (52) 
nan

>  <Standard Units>  (52) 
nan

>  <Standard Value>  (52) 
nan

>  <Assay ChEMBL ID>  (52) 
nan

>  <Assay Description>  (52) 
nan

>  <BAO Label>  (52) 
nan

$$$$

     RDKit          2D

 32 39  0  0  0  0  0  0  0  0999 V2000
    4.2660   -1.2584    0.0000 O   0  0  0  0  0  0  0  0  0  0  0  0
    3.9542   -2.7256    0.0000 C   0  0  0  0  0  0  0  0  0  0  0  0
    4.9579   -3.8403    0.0000 N   0  0  0  0  0  0  0  0  0  0  0  0
    4.2079   -5.1394    0.0000 C   0  0  0  0  0  0  0  0  0  0  0  0
    4.8180   -6.5097    0.0000 O   0  0  0  0  0  0  0  0  0  0  0  0
    2.7406   -4.8275    0.0000 C   0  0  0  0  0  0  0  0  0  0  0  0
    2.5838   -3.3357    0.0000 C   0  0  0  0  0  0  0  0  0  0  0  0
    1.2135   -2.7256    0.0000 C   0  0  0  0  0  0  0  0  0  0  0  0
    0.7500   -1.2990    0.0000 C   0  0  0  0  0  0  0  0  0  0  0  0
    1.5000    0.0000    0.0000 C   0  0  0  0  0  0  0  0  0  0  0  0
    0.7500    1.2990    0.0000 C   0  0  0  0  0  0  0  0  0  0  0  0
   -0.7500    1.2990    0.0000 C   0  0  0  0  0  0  0  0  0  0  0  0
   -1.5000    0.0000    0.0000 C   0  0  0  0  0  0  0  0  0  0  0  0
   -0.7500   -1.2990    0.0000 C   0  0  0  0  0  0  0  0  0  0  0  0
   -1.2135   -2.7256    0.0000 N   0  0  0  0  0  0  0  0  0  0  0  0
    0.0000   -3.6073    0.0000 C   0  0  0  0  0  0  0  0  0  0  0  0
    0.1568   -5.0991    0.0000 C   0  0  0  0  0  0  0  0  0  0  0  0
    1.5271   -5.7092    0.0000 C   0  0  0  0  0  0  0  0  0  0  0  0
    1.3703   -7.2010    0.0000 C   0  0  0  0  0  0  0  0  0  0  0  0
    2.3740   -8.3157    0.0000 C   0  0  0  0  0  0  0  0  0  0  0  0
    1.9105   -9.7423    0.0000 C   0  0  0  0  0  0  0  0  0  0  0  0
    0.4433  -10.0541    0.0000 C   0  0  0  0  0  0  0  0  0  0  0  0
   -0.5604   -8.9394    0.0000 C   0  0  0  0  0  0  0  0  0  0  0  0
   -0.0969   -7.5128    0.0000 C   0  0  0  0  0  0  0  0  0  0  0  0
   -0.8469   -6.2138    0.0000 N   0  0  0  0  0  0  0  0  0  0  0  0
   -2.3362   -6.0347    0.0000 C   0  0  0  0  0  0  0  0  0  0  0  0
   -3.1247   -4.7587    0.0000 O   0  0  0  0  0  0  0  0  0  0  0  0
   -2.6187   -3.3466    0.0000 C   0  0  0  0  0  0  0  0  0  0  0  0
   -3.9890   -3.9567    0.0000 C   0  0  0  0  0  0  0  0  0  0  0  0
   -3.8322   -5.4485    0.0000 C   0  0  0  0  0  0  0  0  0  0  0  0
   -4.9469   -6.4522    0.0000 C   0  0  0  0  0  0  0  0  0  0  0  0
   -6.3735   -5.9887    0.0000 O   0  0  0  0  0  0  0  0  0  0  0  0
  1  2  2  0
  2  3  1  0
  3  4  1  0
  4  5  2  0
  4  6  1  0
  6  7  2  0
  7  8  1  0
  8  9  1  0
  9 10  2  0
 10 11  1  0
 11 12  2  0
 12 13  1  0
 13 14  2  0
 14 15  1  0
 15 16  1  0
 16 17  1  0
 17 18  2  0
 18 19  1  0
 19 20  2  0
 20 21  1  0
 21 22  2  0
 22 23  1  0
 23 24  2  0
 24 25  1  0
 26 25  1  1
 26 27  1  0
 27 28  1  0
 28 29  1  1
 29 30  1  0
 30 31  1  1
 31 32  1  0
  7  2  1  0
 16  8  2  0
 25 17  1  0
 30 26  1  0
 18  6  1  0
 24 19  1  0
 14  9  1  0
 28 15  1  0
M  END
>  <Compound_ID>  (53) 
CHEMBL291126

>  <Active>  (53) 
1.0

>  <Smiles>  (53) 
O=C1NC(=O)c2c1c1c3ccccc3n3c1c1c2c2ccccc2n1[C@@H]1O[C@H]3C[C@@H]1CO

>  <canonical_smi>  (53) 
O=C1NC(=O)c2c1c1c3ccccc3n3c1c1c2c2ccccc2n1[C@@H]1O[C@H]3C[C@@H]1CO

>  <Set>  (53) 
G2 active

>  <Set_type>  (53) 
Train

>  <MW>  (53) 
423.43

>  <HBD>  (53) 
2

>  <HBA>  (53) 
4

>  <NRB>  (53) 
1

>  <NR>  (53) 
8

>  <NAR>  (53) 
5

>  <PSA>  (53) 
85.49

>  <Standard Type>  (53) 
nan

>  <Standard Relation>  (53) 
nan

>  <Standard Units>  (53) 
nan

>  <Standard Value>  (53) 
nan

>  <Assay ChEMBL ID>  (53) 
nan

>  <Assay Description>  (53) 
nan

>  <BAO Label>  (53) 
nan

$$$$

     RDKit          2D

 39 42  0  0  0  0  0  0  0  0999 V2000
    4.6740   -7.4303    0.0000 N   0  0  0  0  0  0  0  0  0  0  0  0
    3.3037   -6.8202    0.0000 C   0  0  0  0  0  0  0  0  0  0  0  0
    2.9918   -5.3529    0.0000 C   0  0  0  0  0  0  0  0  0  0  0  0
    1.5000   -5.1962    0.0000 C   0  0  0  0  0  0  0  0  0  0  0  0
    0.7500   -3.8971    0.0000 N   0  0  0  0  0  0  0  0  0  0  0  0
    1.5000   -2.5981    0.0000 C   0  0  0  0  0  0  0  0  0  0  0  0
    3.0000   -2.5981    0.0000 O   0  0  0  0  0  0  0  0  0  0  0  0
    0.7500   -1.2990    0.0000 C   0  0  0  0  0  0  0  0  0  0  0  0
    1.5000    0.0000    0.0000 C   0  0  0  0  0  0  0  0  0  0  0  0
    0.7500    1.2990    0.0000 C   0  0  0  0  0  0  0  0  0  0  0  0
   -0.7500    1.2990    0.0000 C   0  0  0  0  0  0  0  0  0  0  0  0
   -1.5000    2.5981    0.0000 O   0  0  0  0  0  0  0  0  0  0  0  0
   -1.5000    0.0000    0.0000 C   0  0  0  0  0  0  0  0  0  0  0  0
   -0.7500   -1.2990    0.0000 C   0  0  0  0  0  0  0  0  0  0  0  0
    0.8899   -6.5665    0.0000 C   0  0  0  0  0  0  0  0  0  0  0  0
   -0.5773   -6.8783    0.0000 O   0  0  0  0  0  0  0  0  0  0  0  0
   -1.0409   -8.3049    0.0000 C   0  0  0  0  0  0  0  0  0  0  0  0
   -0.0372   -9.4196    0.0000 O   0  0  0  0  0  0  0  0  0  0  0  0
   -2.5081   -8.6168    0.0000 C   0  0  0  0  0  0  0  0  0  0  0  0
   -3.5118   -7.5021    0.0000 C   0  0  0  0  0  0  0  0  0  0  0  0
   -4.9790   -7.8139    0.0000 C   0  0  0  0  0  0  0  0  0  0  0  0
   -5.9827   -6.6992    0.0000 O   0  0  0  0  0  0  0  0  0  0  0  0
   -5.4425   -9.2405    0.0000 C   0  0  0  0  0  0  0  0  0  0  0  0
   -6.9097   -9.5524    0.0000 C   0  0  0  0  0  0  0  0  0  0  0  0
   -7.9134   -8.4377    0.0000 O   0  0  0  0  0  0  0  0  0  0  0  0
   -7.3733  -10.9790    0.0000 C   0  0  0  0  0  0  0  0  0  0  0  0
   -6.3696  -12.0937    0.0000 C   0  0  0  0  0  0  0  0  0  0  0  0
   -5.3892  -12.0079    0.0000 O   0  0  0  0  0  0  0  0  0  0  0  0
   -6.8331  -13.5203    0.0000 C   0  0  0  0  0  0  0  0  0  0  0  0
   -8.3003  -13.8321    0.0000 C   0  0  0  0  0  0  0  0  0  0  0  0
   -9.3040  -12.7174    0.0000 C   0  0  0  0  0  0  0  0  0  0  0  0
   -8.8405  -11.2908    0.0000 C   0  0  0  0  0  0  0  0  0  0  0  0
   -9.8442  -10.1761    0.0000 C   0  0  0  0  0  0  0  0  0  0  0  0
   -9.3807   -8.7495    0.0000 O   0  0  0  0  0  0  0  0  0  0  0  0
  -11.3114  -10.4880    0.0000 O   0  0  0  0  0  0  0  0  0  0  0  0
   -4.4388  -10.3552    0.0000 C   0  0  0  0  0  0  0  0  0  0  0  0
   -4.6266  -11.3213    0.0000 O   0  0  0  0  0  0  0  0  0  0  0  0
   -2.9716  -10.0434    0.0000 C   0  0  0  0  0  0  0  0  0  0  0  0
    2.0046   -7.5702    0.0000 C   0  0  0  0  0  0  0  0  0  0  0  0
  2  1  1  1
  2  3  1  0
  3  4  1  0
  4  5  1  6
  5  6  1  0
  6  7  2  0
  6  8  1  0
  8  9  2  0
  9 10  1  0
 10 11  2  0
 11 12  1  0
 11 13  1  0
 13 14  2  0
  4 15  1  0
 15 16  1  1
 16 17  1  0
 17 18  2  0
 17 19  1  0
 19 20  2  0
 20 21  1  0
 21 22  1  0
 21 23  2  0
 23 24  1  0
 24 25  2  0
 24 26  1  0
 26 27  2  0
 27 28  1  0
 27 29  1  0
 29 30  2  0
 30 31  1  0
 31 32  2  0
 32 33  1  0
 33 34  2  0
 33 35  1  0
 23 36  1  0
 36 37  1  0
 36 38  2  0
 15 39  1  0
 39  2  1  0
 14  8  1  0
 38 19  1  0
 32 26  1  0
M  END
>  <Compound_ID>  (54) 
CHEMBL432168

>  <Active>  (54) 
1.0

>  <Smiles>  (54) 
N[C@@H]1C[C@@H](NC(=O)c2ccc(O)cc2)[C@H](OC(=O)c2cc(O)c(C(=O)c3c(O)cccc3C(=O)O)c(O)c2)C1

>  <canonical_smi>  (54) 
N[C@@H]1C[C@@H](NC(=O)c2ccc(O)cc2)[C@H](OC(=O)c2cc(O)c(C(=O)c3c(O)cccc3C(=O)O)c(O)c2)C1

>  <Set>  (54) 
G2 active

>  <Set_type>  (54) 
Train

>  <MW>  (54) 
536.49

>  <HBD>  (54) 
7

>  <HBA>  (54) 
11

>  <NRB>  (54) 
7

>  <NR>  (54) 
4

>  <NAR>  (54) 
3

>  <PSA>  (54) 
216.71

>  <Standard Type>  (54) 
nan

>  <Standard Relation>  (54) 
nan

>  <Standard Units>  (54) 
nan

>  <Standard Value>  (54) 
nan

>  <Assay ChEMBL ID>  (54) 
nan

>  <Assay Description>  (54) 
nan

>  <BAO Label>  (54) 
nan

$$$$

     RDKit          2D

 29 34  0  0  0  0  0  0  0  0999 V2000
    2.6401   -3.1891    0.0000 C   0  0  0  0  0  0  0  0  0  0  0  0
    1.2135   -2.7256    0.0000 N   0  0  0  0  0  0  0  0  0  0  0  0
    0.7500   -1.2990    0.0000 C   0  0  0  0  0  0  0  0  0  0  0  0
    1.5000    0.0000    0.0000 C   0  0  0  0  0  0  0  0  0  0  0  0
    0.7500    1.2990    0.0000 C   0  0  0  0  0  0  0  0  0  0  0  0
   -0.7500    1.2990    0.0000 C   0  0  0  0  0  0  0  0  0  0  0  0
   -1.5000    0.0000    0.0000 C   0  0  0  0  0  0  0  0  0  0  0  0
   -0.7500   -1.2990    0.0000 C   0  0  0  0  0  0  0  0  0  0  0  0
   -1.2135   -2.7256    0.0000 C   0  0  0  0  0  0  0  0  0  0  0  0
   -2.5838   -3.3357    0.0000 C   0  0  0  0  0  0  0  0  0  0  0  0
   -2.7406   -4.8275    0.0000 C   0  0  0  0  0  0  0  0  0  0  0  0
   -1.5271   -5.7092    0.0000 C   0  0  0  0  0  0  0  0  0  0  0  0
   -1.3703   -7.2010    0.0000 C   0  0  0  0  0  0  0  0  0  0  0  0
   -2.3740   -8.3157    0.0000 C   0  0  0  0  0  0  0  0  0  0  0  0
   -1.9105   -9.7423    0.0000 C   0  0  0  0  0  0  0  0  0  0  0  0
   -0.4433  -10.0541    0.0000 C   0  0  0  0  0  0  0  0  0  0  0  0
    0.5604   -8.9394    0.0000 C   0  0  0  0  0  0  0  0  0  0  0  0
    0.0969   -7.5128    0.0000 C   0  0  0  0  0  0  0  0  0  0  0  0
    0.8469   -6.2138    0.0000 N   0  0  0  0  0  0  0  0  0  0  0  0
    2.3387   -6.0570    0.0000 C   0  0  0  0  0  0  0  0  0  0  0  0
    3.2204   -7.2705    0.0000 C   0  0  0  0  0  0  0  0  0  0  0  0
    4.7121   -7.1137    0.0000 C   0  0  0  0  0  0  0  0  0  0  0  0
    6.2039   -6.9569    0.0000 N   0  0  0  0  0  0  0  0  0  0  0  0
   -0.1568   -5.0991    0.0000 C   0  0  0  0  0  0  0  0  0  0  0  0
   -0.0000   -3.6073    0.0000 C   0  0  0  0  0  0  0  0  0  0  0  0
   -4.2079   -5.1394    0.0000 C   0  0  0  0  0  0  0  0  0  0  0  0
   -4.9579   -3.8403    0.0000 N   0  0  0  0  0  0  0  0  0  0  0  0
   -3.9542   -2.7256    0.0000 C   0  0  0  0  0  0  0  0  0  0  0  0
   -4.2660   -1.2584    0.0000 O   0  0  0  0  0  0  0  0  0  0  0  0
  1  2  1  0
  2  3  1  0
  3  4  2  0
  4  5  1  0
  5  6  2  0
  6  7  1  0
  7  8  2  0
  8  9  1  0
  9 10  2  0
 10 11  1  0
 11 12  2  0
 12 13  1  0
 13 14  2  0
 14 15  1  0
 15 16  2  0
 16 17  1  0
 17 18  2  0
 18 19  1  0
 19 20  1  0
 20 21  1  0
 21 22  1  0
 22 23  3  0
 19 24  1  0
 24 25  2  0
 11 26  1  0
 26 27  1  0
 27 28  1  0
 28 29  2  0
 25  2  1  0
  8  3  1  0
 25  9  1  0
 28 10  1  0
 24 12  1  0
 18 13  1  0
M  END
>  <Compound_ID>  (55) 
CHEMBL302449

>  <Active>  (55) 
1.0

>  <Smiles>  (55) 
Cn1c2ccccc2c2c3c(c4c5ccccc5n(CCC#N)c4c21)CNC3=O

>  <canonical_smi>  (55) 
Cn1c2ccccc2c2c3c(c4c5ccccc5n(CCC#N)c4c21)CNC3=O

>  <Set>  (55) 
G2 active

>  <Set_type>  (55) 
Train

>  <MW>  (55) 
378.44

>  <HBD>  (55) 
1

>  <HBA>  (55) 
2

>  <NRB>  (55) 
2

>  <NR>  (55) 
6

>  <NAR>  (55) 
5

>  <PSA>  (55) 
62.75

>  <Standard Type>  (55) 
nan

>  <Standard Relation>  (55) 
nan

>  <Standard Units>  (55) 
nan

>  <Standard Value>  (55) 
nan

>  <Assay ChEMBL ID>  (55) 
nan

>  <Assay Description>  (55) 
nan

>  <BAO Label>  (55) 
nan

$$$$

     RDKit          2D

 30 36  0  0  0  0  0  0  0  0999 V2000
    4.2660   -1.2584    0.0000 O   0  0  0  0  0  0  0  0  0  0  0  0
    3.9542   -2.7256    0.0000 C   0  0  0  0  0  0  0  0  0  0  0  0
    4.9579   -3.8403    0.0000 N   0  0  0  0  0  0  0  0  0  0  0  0
    4.2079   -5.1394    0.0000 C   0  0  0  0  0  0  0  0  0  0  0  0
    4.8180   -6.5097    0.0000 O   0  0  0  0  0  0  0  0  0  0  0  0
    2.7406   -4.8275    0.0000 C   0  0  0  0  0  0  0  0  0  0  0  0
    2.5838   -3.3357    0.0000 C   0  0  0  0  0  0  0  0  0  0  0  0
    1.2135   -2.7256    0.0000 C   0  0  0  0  0  0  0  0  0  0  0  0
    0.7500   -1.2990    0.0000 C   0  0  0  0  0  0  0  0  0  0  0  0
    1.5000    0.0000    0.0000 C   0  0  0  0  0  0  0  0  0  0  0  0
    0.7500    1.2990    0.0000 C   0  0  0  0  0  0  0  0  0  0  0  0
   -0.7500    1.2990    0.0000 C   0  0  0  0  0  0  0  0  0  0  0  0
   -1.5000    0.0000    0.0000 C   0  0  0  0  0  0  0  0  0  0  0  0
   -0.7500   -1.2990    0.0000 C   0  0  0  0  0  0  0  0  0  0  0  0
   -1.2135   -2.7256    0.0000 N   0  0  0  0  0  0  0  0  0  0  0  0
    0.0000   -3.6073    0.0000 C   0  0  0  0  0  0  0  0  0  0  0  0
    0.1568   -5.0991    0.0000 C   0  0  0  0  0  0  0  0  0  0  0  0
    1.5271   -5.7092    0.0000 C   0  0  0  0  0  0  0  0  0  0  0  0
    1.3703   -7.2010    0.0000 C   0  0  0  0  0  0  0  0  0  0  0  0
    2.3740   -8.3157    0.0000 C   0  0  0  0  0  0  0  0  0  0  0  0
    1.9105   -9.7423    0.0000 C   0  0  0  0  0  0  0  0  0  0  0  0
    0.4433  -10.0541    0.0000 C   0  0  0  0  0  0  0  0  0  0  0  0
   -0.5604   -8.9394    0.0000 C   0  0  0  0  0  0  0  0  0  0  0  0
   -0.0969   -7.5128    0.0000 C   0  0  0  0  0  0  0  0  0  0  0  0
   -0.8469   -6.2138    0.0000 N   0  0  0  0  0  0  0  0  0  0  0  0
   -2.3362   -6.0347    0.0000 C   0  0  0  0  0  0  0  0  0  0  0  0
   -3.1247   -4.7587    0.0000 S   0  0  0  0  0  0  0  0  0  0  0  0
   -4.1933   -5.8114    0.0000 O   0  0  0  0  0  0  0  0  0  0  0  0
   -4.3888   -3.9512    0.0000 O   0  0  0  0  0  0  0  0  0  0  0  0
   -2.6187   -3.3466    0.0000 C   0  0  0  0  0  0  0  0  0  0  0  0
  1  2  2  0
  2  3  1  0
  3  4  1  0
  4  5  2  0
  4  6  1  0
  6  7  2  0
  7  8  1  0
  8  9  1  0
  9 10  2  0
 10 11  1  0
 11 12  2  0
 12 13  1  0
 13 14  2  0
 14 15  1  0
 15 16  1  0
 16 17  1  0
 17 18  2  0
 18 19  1  0
 19 20  2  0
 20 21  1  0
 21 22  2  0
 22 23  1  0
 23 24  2  0
 24 25  1  0
 25 26  1  0
 26 27  1  0
 27 28  2  0
 27 29  2  0
 27 30  1  0
  7  2  1  0
 16  8  2  0
 25 17  1  0
 18  6  1  0
 24 19  1  0
 14  9  1  0
 30 15  1  0
M  END
>  <Compound_ID>  (56) 
CHEMBL283259

>  <Active>  (56) 
1.0

>  <Smiles>  (56) 
O=C1NC(=O)c2c1c1c3ccccc3n3c1c1c2c2ccccc2n1CS(=O)(=O)C3

>  <canonical_smi>  (56) 
O=C1NC(=O)c2c1c1c3ccccc3n3c1c1c2c2ccccc2n1CS(=O)(=O)C3

>  <Set>  (56) 
G2 active

>  <Set_type>  (56) 
Train

>  <MW>  (56) 
415.43

>  <HBD>  (56) 
1

>  <HBA>  (56) 
4

>  <NRB>  (56) 
0

>  <NR>  (56) 
7

>  <NAR>  (56) 
5

>  <PSA>  (56) 
90.17

>  <Standard Type>  (56) 
nan

>  <Standard Relation>  (56) 
nan

>  <Standard Units>  (56) 
nan

>  <Standard Value>  (56) 
nan

>  <Assay ChEMBL ID>  (56) 
nan

>  <Assay Description>  (56) 
nan

>  <BAO Label>  (56) 
nan

$$$$

     RDKit          2D

 36 39  0  0  0  0  0  0  0  0999 V2000
    2.2872   -8.1206    0.0000 O   0  0  0  0  0  0  0  0  0  0  0  0
    3.2909   -7.0059    0.0000 C   0  0  0  0  0  0  0  0  0  0  0  0
    2.8273   -5.5793    0.0000 O   0  0  0  0  0  0  0  0  0  0  0  0
    1.3601   -5.2674    0.0000 C   0  0  0  0  0  0  0  0  0  0  0  0
    0.2454   -6.2711    0.0000 C   0  0  0  0  0  0  0  0  0  0  0  0
   -1.0537   -5.5211    0.0000 C   0  0  0  0  0  0  0  0  0  0  0  0
   -0.7418   -4.0539    0.0000 C   0  0  0  0  0  0  0  0  0  0  0  0
    0.7500   -3.8971    0.0000 C   0  0  0  0  0  0  0  0  0  0  0  0
    1.5000   -2.5981    0.0000 C   0  0  0  0  0  0  0  0  0  0  0  0
    0.7500   -1.2990    0.0000 C   0  0  0  0  0  0  0  0  0  0  0  0
    1.5000    0.0000    0.0000 C   0  0  0  0  0  0  0  0  0  0  0  0
    0.7500    1.2990    0.0000 C   0  0  0  0  0  0  0  0  0  0  0  0
   -0.7500    1.2990    0.0000 C   0  0  0  0  0  0  0  0  0  0  0  0
   -1.5000    2.5981    0.0000 O   0  0  0  0  0  0  0  0  0  0  0  0
   -1.5000    0.0000    0.0000 C   0  0  0  0  0  0  0  0  0  0  0  0
   -0.7500   -1.2990    0.0000 C   0  0  0  0  0  0  0  0  0  0  0  0
    4.7581   -7.3178    0.0000 C   0  0  0  0  0  0  0  0  0  0  0  0
    5.2216   -8.7443    0.0000 C   0  0  0  0  0  0  0  0  0  0  0  0
    6.6888   -9.0562    0.0000 C   0  0  0  0  0  0  0  0  0  0  0  0
    6.8766  -10.0223    0.0000 O   0  0  0  0  0  0  0  0  0  0  0  0
    7.6925   -7.9415    0.0000 C   0  0  0  0  0  0  0  0  0  0  0  0
    9.1597   -8.2534    0.0000 C   0  0  0  0  0  0  0  0  0  0  0  0
   10.1634   -7.1386    0.0000 O   0  0  0  0  0  0  0  0  0  0  0  0
    9.6233   -9.6799    0.0000 C   0  0  0  0  0  0  0  0  0  0  0  0
    8.6196  -10.7947    0.0000 C   0  0  0  0  0  0  0  0  0  0  0  0
    7.6392  -10.7089    0.0000 O   0  0  0  0  0  0  0  0  0  0  0  0
    9.0831  -12.2212    0.0000 C   0  0  0  0  0  0  0  0  0  0  0  0
   10.5503  -12.5331    0.0000 C   0  0  0  0  0  0  0  0  0  0  0  0
   11.5540  -11.4184    0.0000 C   0  0  0  0  0  0  0  0  0  0  0  0
   11.0905   -9.9918    0.0000 C   0  0  0  0  0  0  0  0  0  0  0  0
   12.0942   -8.8771    0.0000 C   0  0  0  0  0  0  0  0  0  0  0  0
   11.6307   -7.4505    0.0000 O   0  0  0  0  0  0  0  0  0  0  0  0
   13.5614   -9.1890    0.0000 O   0  0  0  0  0  0  0  0  0  0  0  0
    7.2290   -6.5149    0.0000 C   0  0  0  0  0  0  0  0  0  0  0  0
    8.2327   -5.4002    0.0000 O   0  0  0  0  0  0  0  0  0  0  0  0
    5.7618   -6.2030    0.0000 C   0  0  0  0  0  0  0  0  0  0  0  0
  1  2  2  0
  2  3  1  0
  3  4  1  0
  4  5  1  0
  5  6  1  0
  6  7  1  0
  7  8  1  0
  8  9  1  0
  9 10  1  0
 10 11  2  0
 11 12  1  0
 12 13  2  0
 13 14  1  0
 13 15  1  0
 15 16  2  0
  2 17  1  0
 17 18  2  0
 18 19  1  0
 19 20  1  0
 19 21  2  0
 21 22  1  0
 22 23  2  0
 22 24  1  0
 24 25  2  0
 25 26  1  0
 25 27  1  0
 27 28  2  0
 28 29  1  0
 29 30  2  0
 30 31  1  0
 31 32  2  0
 31 33  1  0
 21 34  1  0
 34 35  1  0
 34 36  2  0
  8  4  1  0
 16 10  1  0
 36 17  1  0
 30 24  1  0
M  END
>  <Compound_ID>  (57) 
CHEMBL295806

>  <Active>  (57) 
1.0

>  <Smiles>  (57) 
O=C(OC1CCCC1Cc1ccc(O)cc1)c1cc(O)c(C(=O)c2c(O)cccc2C(=O)O)c(O)c1

>  <canonical_smi>  (57) 
O=C(OC1CCCC1Cc1ccc(O)cc1)c1cc(O)c(C(=O)c2c(O)cccc2C(=O)O)c(O)c1

>  <Set>  (57) 
G2 active

>  <Set_type>  (57) 
Train

>  <MW>  (57) 
492.48

>  <HBD>  (57) 
5

>  <HBA>  (57) 
9

>  <NRB>  (57) 
7

>  <NR>  (57) 
4

>  <NAR>  (57) 
3

>  <PSA>  (57) 
161.59

>  <Standard Type>  (57) 
nan

>  <Standard Relation>  (57) 
nan

>  <Standard Units>  (57) 
nan

>  <Standard Value>  (57) 
nan

>  <Assay ChEMBL ID>  (57) 
nan

>  <Assay Description>  (57) 
nan

>  <BAO Label>  (57) 
nan

$$$$

     RDKit          2D

 41 47  0  0  0  0  0  0  0  0999 V2000
   -0.3752    1.0826    0.0000 C   0  0  0  0  0  0  0  0  0  0  0  0
   -1.1252   -0.2164    0.0000 N   0  0  0  0  0  0  0  0  0  0  0  0
   -0.3752   -1.5154    0.0000 C   0  0  0  0  0  0  0  0  0  0  0  0
   -2.6252   -0.2164    0.0000 C   0  0  0  0  0  0  0  0  0  0  0  0
   -3.3752   -1.5154    0.0000 C   0  0  0  0  0  0  0  0  0  0  0  0
   -4.8752   -1.5154    0.0000 C   0  0  0  0  0  0  0  0  0  0  0  0
   -5.6252   -2.8145    0.0000 N   0  0  0  0  0  0  0  0  0  0  0  0
   -5.0151   -4.1848    0.0000 N   0  0  0  0  0  0  0  0  0  0  0  0
   -6.1298   -5.1885    0.0000 C   0  0  0  0  0  0  0  0  0  0  0  0
   -5.9730   -6.6803    0.0000 C   0  0  0  0  0  0  0  0  0  0  0  0
   -4.6740   -7.4303    0.0000 C   0  0  0  0  0  0  0  0  0  0  0  0
   -3.3037   -6.8202    0.0000 C   0  0  0  0  0  0  0  0  0  0  0  0
   -2.0046   -7.5702    0.0000 C   0  0  0  0  0  0  0  0  0  0  0  0
   -0.8899   -6.5665    0.0000 N   0  0  0  0  0  0  0  0  0  0  0  0
    0.5773   -6.8783    0.0000 C   0  0  0  0  0  0  0  0  0  0  0  0
    1.0409   -8.3049    0.0000 C   0  0  0  0  0  0  0  0  0  0  0  0
    2.5081   -8.6168    0.0000 N   0  0  0  0  0  0  0  0  0  0  0  0
    3.5118   -7.5021    0.0000 C   0  0  0  0  0  0  0  0  0  0  0  0
    4.9790   -7.8139    0.0000 C   0  0  0  0  0  0  0  0  0  0  0  0
    5.9827   -6.6992    0.0000 C   0  0  0  0  0  0  0  0  0  0  0  0
    5.5192   -5.2726    0.0000 C   0  0  0  0  0  0  0  0  0  0  0  0
    4.0519   -4.9608    0.0000 C   0  0  0  0  0  0  0  0  0  0  0  0
    3.0482   -6.0755    0.0000 C   0  0  0  0  0  0  0  0  0  0  0  0
    1.5810   -5.7636    0.0000 C   0  0  0  0  0  0  0  0  0  0  0  0
   -1.5000   -5.1962    0.0000 C   0  0  0  0  0  0  0  0  0  0  0  0
   -0.8899   -3.8258    0.0000 C   0  0  0  0  0  0  0  0  0  0  0  0
   -1.7716   -2.6123    0.0000 C   0  0  0  0  0  0  0  0  0  0  0  0
   -3.2634   -2.7691    0.0000 C   0  0  0  0  0  0  0  0  0  0  0  0
   -3.8735   -4.1394    0.0000 C   0  0  0  0  0  0  0  0  0  0  0  0
   -2.9918   -5.3529    0.0000 C   0  0  0  0  0  0  0  0  0  0  0  0
   -4.9858   -8.8975    0.0000 C   0  0  0  0  0  0  0  0  0  0  0  0
   -3.9821  -10.0122    0.0000 O   0  0  0  0  0  0  0  0  0  0  0  0
   -6.4776   -9.0543    0.0000 N   0  0  0  0  0  0  0  0  0  0  0  0
   -7.0877   -7.6840    0.0000 C   0  0  0  0  0  0  0  0  0  0  0  0
   -8.5549   -7.3721    0.0000 O   0  0  0  0  0  0  0  0  0  0  0  0
   -7.4288   -4.4385    0.0000 C   0  0  0  0  0  0  0  0  0  0  0  0
   -8.8554   -4.9020    0.0000 C   0  0  0  0  0  0  0  0  0  0  0  0
   -9.9701   -3.8983    0.0000 C   0  0  0  0  0  0  0  0  0  0  0  0
   -9.6583   -2.4311    0.0000 C   0  0  0  0  0  0  0  0  0  0  0  0
   -8.2317   -1.9676    0.0000 C   0  0  0  0  0  0  0  0  0  0  0  0
   -7.1170   -2.9713    0.0000 C   0  0  0  0  0  0  0  0  0  0  0  0
  1  2  1  0
  2  3  1  0
  2  4  1  0
  4  5  1  0
  5  6  1  0
  6  7  1  0
  7  8  1  0
  8  9  2  0
  9 10  1  0
 10 11  2  0
 11 12  1  0
 12 13  2  0
 13 14  1  0
 14 15  1  0
 15 16  2  0
 16 17  1  0
 17 18  2  0
 18 19  1  0
 19 20  2  0
 20 21  1  0
 21 22  2  0
 22 23  1  0
 23 24  2  0
 14 25  1  0
 25 26  2  0
 26 27  1  0
 27 28  2  0
 28 29  1  0
 29 30  2  0
 11 31  1  0
 31 32  2  0
 31 33  1  0
 33 34  1  0
 34 35  2  0
  9 36  1  0
 36 37  2  0
 37 38  1  0
 38 39  2  0
 39 40  1  0
 40 41  2  0
 41  7  1  0
 34 10  1  0
 41 36  1  0
 30 12  1  0
 24 15  1  0
 30 25  1  0
 23 18  1  0
M  END
>  <Compound_ID>  (58) 
CHEMBL359486

>  <Active>  (58) 
1.0

>  <Smiles>  (58) 
CN(C)CCCn1nc(C2=C(c3cn(-c4cnc5ccccc5c4)c4ccccc34)C(=O)NC2=O)c2ccccc21

>  <canonical_smi>  (58) 
CN(C)CCCn1nc(C2=C(c3cn(-c4cnc5ccccc5c4)c4ccccc34)C(=O)NC2=O)c2ccccc21

>  <Set>  (58) 
G2 active

>  <Set_type>  (58) 
Train

>  <MW>  (58) 
540.63

>  <HBD>  (58) 
1

>  <HBA>  (58) 
5

>  <NRB>  (58) 
7

>  <NR>  (58) 
7

>  <NAR>  (58) 
6

>  <PSA>  (58) 
85.05

>  <Standard Type>  (58) 
nan

>  <Standard Relation>  (58) 
nan

>  <Standard Units>  (58) 
nan

>  <Standard Value>  (58) 
nan

>  <Assay ChEMBL ID>  (58) 
nan

>  <Assay Description>  (58) 
nan

>  <BAO Label>  (58) 
nan

$$$$

     RDKit          2D

 30 32  0  0  0  0  0  0  0  0999 V2000
   -1.6056  -10.4361    0.0000 C   0  0  0  0  0  0  0  0  0  0  0  0
   -0.1138  -10.2793    0.0000 C   0  0  0  0  0  0  0  0  0  0  0  0
    0.7679  -11.4928    0.0000 C   0  0  0  0  0  0  0  0  0  0  0  0
    0.4963   -8.9089    0.0000 C   0  0  0  0  0  0  0  0  0  0  0  0
   -0.2537   -7.6099    0.0000 C   0  0  0  0  0  0  0  0  0  0  0  0
    0.7500   -6.4952    0.0000 C   0  0  0  0  0  0  0  0  0  0  0  0
   -0.4635   -5.6135    0.0000 C   0  0  0  0  0  0  0  0  0  0  0  0
   -1.8338   -6.2236    0.0000 O   0  0  0  0  0  0  0  0  0  0  0  0
    1.5000   -5.1962    0.0000 C   0  0  0  0  0  0  0  0  0  0  0  0
    0.7500   -3.8971    0.0000 O   0  0  0  0  0  0  0  0  0  0  0  0
    1.5000   -2.5981    0.0000 C   0  0  0  0  0  0  0  0  0  0  0  0
    3.0000   -2.5981    0.0000 O   0  0  0  0  0  0  0  0  0  0  0  0
    0.7500   -1.2990    0.0000 C   0  0  0  0  0  0  0  0  0  0  0  0
    1.5000    0.0000    0.0000 C   0  0  0  0  0  0  0  0  0  0  0  0
    0.7500    1.2990    0.0000 C   0  0  0  0  0  0  0  0  0  0  0  0
   -0.7500    1.2990    0.0000 C   0  0  0  0  0  0  0  0  0  0  0  0
   -1.5000    2.5981    0.0000 C   0  0  0  0  0  0  0  0  0  0  0  0
   -2.2500    3.8971    0.0000 C   0  0  0  0  0  0  0  0  0  0  0  0
   -3.0000    5.1962    0.0000 C   0  0  0  0  0  0  0  0  0  0  0  0
   -2.2500    6.4952    0.0000 C   0  0  0  0  0  0  0  0  0  0  0  0
   -3.0000    7.7942    0.0000 C   0  0  0  0  0  0  0  0  0  0  0  0
   -4.5000    7.7942    0.0000 C   0  0  0  0  0  0  0  0  0  0  0  0
   -5.2500    9.0933    0.0000 C   0  0  0  0  0  0  0  0  0  0  0  0
   -5.2500    6.4952    0.0000 C   0  0  0  0  0  0  0  0  0  0  0  0
   -4.5000    5.1962    0.0000 C   0  0  0  0  0  0  0  0  0  0  0  0
   -1.5000    0.0000    0.0000 C   0  0  0  0  0  0  0  0  0  0  0  0
   -0.7500   -1.2990    0.0000 C   0  0  0  0  0  0  0  0  0  0  0  0
    2.1203   -7.1053    0.0000 O   0  0  0  0  0  0  0  0  0  0  0  0
    1.9635   -8.5971    0.0000 C   0  0  0  0  0  0  0  0  0  0  0  0
    3.0782   -9.6008    0.0000 O   0  0  0  0  0  0  0  0  0  0  0  0
  1  2  1  0
  2  3  1  0
  2  4  2  0
  4  5  1  0
  5  6  1  0
  6  7  1  0
  7  8  1  0
  6  9  1  0
  9 10  1  0
 10 11  1  0
 11 12  2  0
 11 13  1  0
 13 14  2  0
 14 15  1  0
 15 16  2  0
 16 17  1  0
 17 18  3  0
 18 19  1  0
 19 20  2  0
 20 21  1  0
 21 22  2  0
 22 23  1  0
 22 24  1  0
 24 25  2  0
 16 26  1  0
 26 27  2  0
  6 28  1  0
 28 29  1  0
 29 30  2  0
 29  4  1  0
 27 13  1  0
 25 19  1  0
M  END
>  <Compound_ID>  (59) 
CHEMBL522428

>  <Active>  (59) 
1.0

>  <Smiles>  (59) 
CC(C)=C1CC(CO)(COC(=O)c2ccc(C#Cc3ccc(C)cc3)cc2)OC1=O

>  <canonical_smi>  (59) 
CC(C)=C1CC(CO)(COC(=O)c2ccc(C#Cc3ccc(C)cc3)cc2)OC1=O

>  <Set>  (59) 
G2 active

>  <Set_type>  (59) 
Train

>  <MW>  (59) 
404.46

>  <HBD>  (59) 
1

>  <HBA>  (59) 
5

>  <NRB>  (59) 
4

>  <NR>  (59) 
3

>  <NAR>  (59) 
2

>  <PSA>  (59) 
72.83

>  <Standard Type>  (59) 
nan

>  <Standard Relation>  (59) 
nan

>  <Standard Units>  (59) 
nan

>  <Standard Value>  (59) 
nan

>  <Assay ChEMBL ID>  (59) 
nan

>  <Assay Description>  (59) 
nan

>  <BAO Label>  (59) 
nan

$$$$

     RDKit          2D

 35 40  0  0  0  0  0  0  0  0999 V2000
   -7.4799   -6.0803    0.0000 C   0  0  0  0  0  0  0  0  0  0  0  0
   -6.0175   -5.7465    0.0000 N   0  0  0  0  0  0  0  0  0  0  0  0
   -5.5753   -4.3132    0.0000 C   0  0  0  0  0  0  0  0  0  0  0  0
   -4.9972   -6.8461    0.0000 C   0  0  0  0  0  0  0  0  0  0  0  0
   -3.5348   -6.5123    0.0000 C   0  0  0  0  0  0  0  0  0  0  0  0
   -3.5348   -5.0123    0.0000 C   0  0  0  0  0  0  0  0  0  0  0  0
   -2.8840   -3.6609    0.0000 C   0  0  0  0  0  0  0  0  0  0  0  0
   -1.2135   -2.7256    0.0000 N   0  0  0  0  0  0  0  0  0  0  0  0
   -0.0000   -3.6073    0.0000 C   0  0  0  0  0  0  0  0  0  0  0  0
    1.2135   -2.7256    0.0000 C   0  0  0  0  0  0  0  0  0  0  0  0
    0.7500   -1.2990    0.0000 C   0  0  0  0  0  0  0  0  0  0  0  0
    1.5000    0.0000    0.0000 C   0  0  0  0  0  0  0  0  0  0  0  0
    0.7500    1.2990    0.0000 C   0  0  0  0  0  0  0  0  0  0  0  0
   -0.7500    1.2990    0.0000 C   0  0  0  0  0  0  0  0  0  0  0  0
   -1.5000    0.0000    0.0000 C   0  0  0  0  0  0  0  0  0  0  0  0
   -0.7500   -1.2990    0.0000 C   0  0  0  0  0  0  0  0  0  0  0  0
    2.3863   -3.6609    0.0000 C   0  0  0  0  0  0  0  0  0  0  0  0
    3.0371   -5.0123    0.0000 C   0  0  0  0  0  0  0  0  0  0  0  0
    4.5235   -4.8110    0.0000 C   0  0  0  0  0  0  0  0  0  0  0  0
    5.5601   -5.8952    0.0000 O   0  0  0  0  0  0  0  0  0  0  0  0
    4.7914   -3.3351    0.0000 N   0  0  0  0  0  0  0  0  0  0  0  0
    3.4705   -2.6243    0.0000 C   0  0  0  0  0  0  0  0  0  0  0  0
    3.2691   -1.1378    0.0000 O   0  0  0  0  0  0  0  0  0  0  0  0
    3.0371   -6.5123    0.0000 C   0  0  0  0  0  0  0  0  0  0  0  0
    2.3863   -7.8638    0.0000 C   0  0  0  0  0  0  0  0  0  0  0  0
    1.2135   -8.7990    0.0000 N   0  0  0  0  0  0  0  0  0  0  0  0
    2.6179   -9.3261    0.0000 C   0  0  0  0  0  0  0  0  0  0  0  0
    3.1659  -10.7224    0.0000 C   0  0  0  0  0  0  0  0  0  0  0  0
    4.6491  -10.9459    0.0000 C   0  0  0  0  0  0  0  0  0  0  0  0
    5.5844   -9.7732    0.0000 C   0  0  0  0  0  0  0  0  0  0  0  0
    5.0364   -8.3769    0.0000 C   0  0  0  0  0  0  0  0  0  0  0  0
    3.5531   -8.1533    0.0000 C   0  0  0  0  0  0  0  0  0  0  0  0
   -0.2489   -9.1328    0.0000 C   0  0  0  0  0  0  0  0  0  0  0  0
   -1.7113   -8.7990    0.0000 C   0  0  0  0  0  0  0  0  0  0  0  0
   -2.8840   -7.8638    0.0000 O   0  0  0  0  0  0  0  0  0  0  0  0
  1  2  1  0
  2  3  1  0
  2  4  1  0
  5  4  1  6
  5  6  1  0
  6  7  1  0
  7  8  1  0
  8  9  1  0
  9 10  2  0
 10 11  1  0
 11 12  2  0
 12 13  1  0
 13 14  2  0
 14 15  1  0
 15 16  2  0
 10 17  1  0
 17 18  2  0
 18 19  1  0
 19 20  2  0
 19 21  1  0
 21 22  1  0
 22 23  2  0
 18 24  1  0
 24 25  2  0
 25 26  1  0
 26 27  1  0
 27 28  2  0
 28 29  1  0
 29 30  2  0
 30 31  1  0
 31 32  2  0
 26 33  1  0
 33 34  1  0
 34 35  1  0
 35  5  1  0
 16  8  1  0
 22 17  1  0
 32 24  1  0
 16 11  1  0
 32 27  1  0
M  END
>  <Compound_ID>  (60) 
CHEMBL91829

>  <Active>  (60) 
1.0

>  <Smiles>  (60) 
CN(C)C[C@@H]1CCn2cc(c3ccccc32)C2=C(C(=O)NC2=O)c2cn(c3ccccc23)CCO1

>  <canonical_smi>  (60) 
CN(C)C[C@@H]1CCn2cc(c3ccccc32)C2=C(C(=O)NC2=O)c2cn(c3ccccc23)CCO1

>  <Set>  (60) 
G2 active

>  <Set_type>  (60) 
Train

>  <MW>  (60) 
468.56

>  <HBD>  (60) 
1

>  <HBA>  (60) 
4

>  <NRB>  (60) 
2

>  <NR>  (60) 
6

>  <NAR>  (60) 
4

>  <PSA>  (60) 
68.5

>  <Standard Type>  (60) 
nan

>  <Standard Relation>  (60) 
nan

>  <Standard Units>  (60) 
nan

>  <Standard Value>  (60) 
nan

>  <Assay ChEMBL ID>  (60) 
nan

>  <Assay Description>  (60) 
nan

>  <BAO Label>  (60) 
nan

$$$$

     RDKit          2D

 34 40  0  0  0  0  0  0  0  0999 V2000
   -4.3723   -8.3493    0.0000 C   0  0  0  0  0  0  0  0  0  0  0  0
   -3.4906   -7.1358    0.0000 N   0  0  0  0  0  0  0  0  0  0  0  0
   -3.9542   -5.7092    0.0000 C   0  0  0  0  0  0  0  0  0  0  0  0
   -2.7406   -4.8275    0.0000 C   0  0  0  0  0  0  0  0  0  0  0  0
   -2.5838   -3.3357    0.0000 C   0  0  0  0  0  0  0  0  0  0  0  0
   -1.2135   -2.7256    0.0000 N   0  0  0  0  0  0  0  0  0  0  0  0
   -0.0000   -3.6073    0.0000 C   0  0  0  0  0  0  0  0  0  0  0  0
    1.2135   -2.7256    0.0000 C   0  0  0  0  0  0  0  0  0  0  0  0
    2.6401   -3.1891    0.0000 C   0  0  0  0  0  0  0  0  0  0  0  0
    3.8536   -2.3075    0.0000 C   0  0  0  0  0  0  0  0  0  0  0  0
    3.8536   -0.8075    0.0000 C   0  0  0  0  0  0  0  0  0  0  0  0
    2.6401    0.0742    0.0000 C   0  0  0  0  0  0  0  0  0  0  0  0
    3.1036    1.5008    0.0000 N   0  0  0  0  0  0  0  0  0  0  0  0
    2.2220    2.7143    0.0000 C   0  0  0  0  0  0  0  0  0  0  0  0
    4.6036    1.5008    0.0000 C   0  0  0  0  0  0  0  0  0  0  0  0
    5.6073    2.6155    0.0000 C   0  0  0  0  0  0  0  0  0  0  0  0
    7.0746    2.3036    0.0000 C   0  0  0  0  0  0  0  0  0  0  0  0
    7.5381    0.8771    0.0000 C   0  0  0  0  0  0  0  0  0  0  0  0
    6.5344   -0.2377    0.0000 C   0  0  0  0  0  0  0  0  0  0  0  0
    5.0672    0.0742    0.0000 C   0  0  0  0  0  0  0  0  0  0  0  0
    5.0672   -3.1891    0.0000 C   0  0  0  0  0  0  0  0  0  0  0  0
    6.4937   -2.7256    0.0000 O   0  0  0  0  0  0  0  0  0  0  0  0
    4.6036   -4.6157    0.0000 N   0  0  0  0  0  0  0  0  0  0  0  0
    3.1036   -4.6157    0.0000 C   0  0  0  0  0  0  0  0  0  0  0  0
    2.2220   -5.8293    0.0000 O   0  0  0  0  0  0  0  0  0  0  0  0
    0.7500   -1.2990    0.0000 C   0  0  0  0  0  0  0  0  0  0  0  0
    1.5000    0.0000    0.0000 C   0  0  0  0  0  0  0  0  0  0  0  0
    0.7500    1.2990    0.0000 C   0  0  0  0  0  0  0  0  0  0  0  0
   -0.7500    1.2990    0.0000 C   0  0  0  0  0  0  0  0  0  0  0  0
   -1.5000    0.0000    0.0000 C   0  0  0  0  0  0  0  0  0  0  0  0
   -0.7500   -1.2990    0.0000 C   0  0  0  0  0  0  0  0  0  0  0  0
   -0.1568   -5.0991    0.0000 C   0  0  0  0  0  0  0  0  0  0  0  0
   -1.5271   -5.7092    0.0000 C   0  0  0  0  0  0  0  0  0  0  0  0
   -1.9906   -7.1358    0.0000 C   0  0  0  0  0  0  0  0  0  0  0  0
  1  2  1  0
  2  3  1  0
  4  3  1  6
  4  5  1  0
  5  6  1  0
  6  7  1  0
  7  8  2  0
  8  9  1  0
  9 10  2  0
 10 11  1  0
 11 12  2  0
 12 13  1  0
 13 14  1  0
 13 15  1  0
 15 16  2  0
 16 17  1  0
 17 18  2  0
 18 19  1  0
 19 20  2  0
 10 21  1  0
 21 22  2  0
 21 23  1  0
 23 24  1  0
 24 25  2  0
  8 26  1  0
 26 27  2  0
 27 28  1  0
 28 29  2  0
 29 30  1  0
 30 31  2  0
  7 32  1  0
 33 32  1  1
 33 34  1  0
 34  2  1  0
 33  4  1  0
 31  6  1  0
 24  9  1  0
 31 26  1  0
 20 11  1  0
 20 15  1  0
M  END
>  <Compound_ID>  (61) 
CHEMBL538718

>  <Active>  (61) 
1.0

>  <Smiles>  (61) 
CN1C[C@@H]2Cn3c(c(C4=C(c5cn(C)c6ccccc56)C(=O)NC4=O)c4ccccc43)C[C@H]2C1

>  <canonical_smi>  (61) 
CN1C[C@@H]2Cc3c(C4=C(c5cn(C)c6ccccc56)C(=O)NC4=O)c4ccccc4n3C[C@H]2C1

>  <Set>  (61) 
G2 active

>  <Set_type>  (61) 
Train

>  <MW>  (61) 
450.54

>  <HBD>  (61) 
1

>  <HBA>  (61) 
3

>  <NRB>  (61) 
2

>  <NR>  (61) 
7

>  <NAR>  (61) 
4

>  <PSA>  (61) 
59.27

>  <Standard Type>  (61) 
nan

>  <Standard Relation>  (61) 
nan

>  <Standard Units>  (61) 
nan

>  <Standard Value>  (61) 
nan

>  <Assay ChEMBL ID>  (61) 
nan

>  <Assay Description>  (61) 
nan

>  <BAO Label>  (61) 
nan

$$$$

     RDKit          2D

 31 35  0  0  0  0  0  0  0  0999 V2000
   -6.4937   -2.7256    0.0000 O   0  0  0  0  0  0  0  0  0  0  0  0
   -5.0672   -3.1891    0.0000 C   0  0  0  0  0  0  0  0  0  0  0  0
   -4.6036   -4.6157    0.0000 N   0  0  0  0  0  0  0  0  0  0  0  0
   -3.1036   -4.6157    0.0000 C   0  0  0  0  0  0  0  0  0  0  0  0
   -2.2220   -5.8293    0.0000 O   0  0  0  0  0  0  0  0  0  0  0  0
   -2.6401   -3.1891    0.0000 C   0  0  0  0  0  0  0  0  0  0  0  0
   -1.2135   -2.7256    0.0000 C   0  0  0  0  0  0  0  0  0  0  0  0
   -0.0000   -3.6073    0.0000 C   0  0  0  0  0  0  0  0  0  0  0  0
    1.2135   -2.7256    0.0000 N   0  0  0  0  0  0  0  0  0  0  0  0
    2.6401   -3.1891    0.0000 C   0  0  0  0  0  0  0  0  0  0  0  0
    2.9520   -4.6564    0.0000 C   0  0  0  0  0  0  0  0  0  0  0  0
    4.3786   -5.1199    0.0000 C   0  0  0  0  0  0  0  0  0  0  0  0
    4.6904   -6.5871    0.0000 N   0  0  0  0  0  0  0  0  0  0  0  0
    6.0607   -7.1972    0.0000 C   0  0  0  0  0  0  0  0  0  0  0  0
    5.9040   -8.6890    0.0000 C   0  0  0  0  0  0  0  0  0  0  0  0
    4.4367   -9.0009    0.0000 N   0  0  0  0  0  0  0  0  0  0  0  0
    3.6867   -7.7018    0.0000 C   0  0  0  0  0  0  0  0  0  0  0  0
    0.7500   -1.2990    0.0000 C   0  0  0  0  0  0  0  0  0  0  0  0
    1.5000    0.0000    0.0000 C   0  0  0  0  0  0  0  0  0  0  0  0
    0.7500    1.2990    0.0000 C   0  0  0  0  0  0  0  0  0  0  0  0
   -0.7500    1.2990    0.0000 C   0  0  0  0  0  0  0  0  0  0  0  0
   -1.5000    0.0000    0.0000 C   0  0  0  0  0  0  0  0  0  0  0  0
   -0.7500   -1.2990    0.0000 C   0  0  0  0  0  0  0  0  0  0  0  0
   -3.8536   -2.3075    0.0000 C   0  0  0  0  0  0  0  0  0  0  0  0
   -3.8536   -0.8075    0.0000 N   0  0  0  0  0  0  0  0  0  0  0  0
   -5.1527   -0.0575    0.0000 C   0  0  0  0  0  0  0  0  0  0  0  0
   -5.1527    1.4425    0.0000 C   0  0  0  0  0  0  0  0  0  0  0  0
   -6.4517    2.1925    0.0000 C   0  0  0  0  0  0  0  0  0  0  0  0
   -7.7508    1.4425    0.0000 C   0  0  0  0  0  0  0  0  0  0  0  0
   -7.7508   -0.0575    0.0000 C   0  0  0  0  0  0  0  0  0  0  0  0
   -6.4517   -0.8075    0.0000 C   0  0  0  0  0  0  0  0  0  0  0  0
  1  2  2  0
  2  3  1  0
  3  4  1  0
  4  5  2  0
  4  6  1  0
  6  7  1  0
  7  8  2  0
  8  9  1  0
  9 10  1  0
 10 11  1  0
 11 12  1  0
 12 13  1  0
 13 14  1  0
 14 15  2  0
 15 16  1  0
 16 17  2  0
  9 18  1  0
 18 19  2  0
 19 20  1  0
 20 21  2  0
 21 22  1  0
 22 23  2  0
  6 24  2  0
 24 25  1  0
 25 26  1  0
 26 27  2  0
 27 28  1  0
 28 29  2  0
 29 30  1  0
 30 31  2  0
 24  2  1  0
 31 26  1  0
 23  7  1  0
 17 13  1  0
 23 18  1  0
M  END
>  <Compound_ID>  (62) 
CHEMBL366266

>  <Active>  (62) 
1.0

>  <Smiles>  (62) 
O=C1NC(=O)C(c2cn(CCCn3ccnc3)c3ccccc23)=C1Nc1ccccc1

>  <canonical_smi>  (62) 
O=C1NC(=O)C(c2cn(CCCn3ccnc3)c3ccccc23)=C1Nc1ccccc1

>  <Set>  (62) 
G2 active

>  <Set_type>  (62) 
Train

>  <MW>  (62) 
411.47

>  <HBD>  (62) 
2

>  <HBA>  (62) 
4

>  <NRB>  (62) 
7

>  <NR>  (62) 
5

>  <NAR>  (62) 
4

>  <PSA>  (62) 
80.95

>  <Standard Type>  (62) 
nan

>  <Standard Relation>  (62) 
nan

>  <Standard Units>  (62) 
nan

>  <Standard Value>  (62) 
nan

>  <Assay ChEMBL ID>  (62) 
nan

>  <Assay Description>  (62) 
nan

>  <BAO Label>  (62) 
nan

$$$$

     RDKit          2D

 27 33  0  0  0  0  0  0  0  0999 V2000
    4.2660   -1.2584    0.0000 O   0  0  0  0  0  0  0  0  0  0  0  0
    3.9542   -2.7256    0.0000 C   0  0  0  0  0  0  0  0  0  0  0  0
    4.9579   -3.8403    0.0000 N   0  0  0  0  0  0  0  0  0  0  0  0
    4.2079   -5.1394    0.0000 C   0  0  0  0  0  0  0  0  0  0  0  0
    2.7406   -4.8275    0.0000 C   0  0  0  0  0  0  0  0  0  0  0  0
    2.5838   -3.3357    0.0000 C   0  0  0  0  0  0  0  0  0  0  0  0
    1.2135   -2.7256    0.0000 C   0  0  0  0  0  0  0  0  0  0  0  0
    0.7500   -1.2990    0.0000 C   0  0  0  0  0  0  0  0  0  0  0  0
    1.5000    0.0000    0.0000 C   0  0  0  0  0  0  0  0  0  0  0  0
    0.7500    1.2990    0.0000 C   0  0  0  0  0  0  0  0  0  0  0  0
   -0.7500    1.2990    0.0000 C   0  0  0  0  0  0  0  0  0  0  0  0
   -1.5000    0.0000    0.0000 C   0  0  0  0  0  0  0  0  0  0  0  0
   -0.7500   -1.2990    0.0000 C   0  0  0  0  0  0  0  0  0  0  0  0
   -1.2135   -2.7256    0.0000 N   0  0  0  0  0  0  0  0  0  0  0  0
    0.0000   -3.6073    0.0000 C   0  0  0  0  0  0  0  0  0  0  0  0
    0.1568   -5.0991    0.0000 C   0  0  0  0  0  0  0  0  0  0  0  0
    1.5271   -5.7092    0.0000 C   0  0  0  0  0  0  0  0  0  0  0  0
    1.3703   -7.2010    0.0000 C   0  0  0  0  0  0  0  0  0  0  0  0
    2.3740   -8.3157    0.0000 C   0  0  0  0  0  0  0  0  0  0  0  0
    1.9105   -9.7423    0.0000 C   0  0  0  0  0  0  0  0  0  0  0  0
    0.4433  -10.0541    0.0000 C   0  0  0  0  0  0  0  0  0  0  0  0
   -0.5604   -8.9394    0.0000 C   0  0  0  0  0  0  0  0  0  0  0  0
   -0.0969   -7.5128    0.0000 C   0  0  0  0  0  0  0  0  0  0  0  0
   -0.8469   -6.2138    0.0000 N   0  0  0  0  0  0  0  0  0  0  0  0
   -2.3362   -6.0347    0.0000 C   0  0  0  0  0  0  0  0  0  0  0  0
   -3.1247   -4.7587    0.0000 S   0  0  0  0  0  0  0  0  0  0  0  0
   -2.6187   -3.3466    0.0000 C   0  0  0  0  0  0  0  0  0  0  0  0
  1  2  2  0
  2  3  1  0
  3  4  1  0
  4  5  1  0
  5  6  2  0
  6  7  1  0
  7  8  1  0
  8  9  2  0
  9 10  1  0
 10 11  2  0
 11 12  1  0
 12 13  2  0
 13 14  1  0
 14 15  1  0
 15 16  1  0
 16 17  2  0
 17 18  1  0
 18 19  2  0
 19 20  1  0
 20 21  2  0
 21 22  1  0
 22 23  2  0
 23 24  1  0
 24 25  1  0
 25 26  1  0
 26 27  1  0
  6  2  1  0
 15  7  2  0
 24 16  1  0
 17  5  1  0
 23 18  1  0
 13  8  1  0
 27 14  1  0
M  END
>  <Compound_ID>  (63) 
CHEMBL26872

>  <Active>  (63) 
1.0

>  <Smiles>  (63) 
O=C1NCc2c1c1c3ccccc3n3c1c1c2c2ccccc2n1CSC3

>  <canonical_smi>  (63) 
O=C1NCc2c1c1c3ccccc3n3c1c1c2c2ccccc2n1CSC3

>  <Set>  (63) 
G2 active

>  <Set_type>  (63) 
Train

>  <MW>  (63) 
369.45

>  <HBD>  (63) 
1

>  <HBA>  (63) 
2

>  <NRB>  (63) 
0

>  <NR>  (63) 
7

>  <NAR>  (63) 
5

>  <PSA>  (63) 
38.96

>  <Standard Type>  (63) 
nan

>  <Standard Relation>  (63) 
nan

>  <Standard Units>  (63) 
nan

>  <Standard Value>  (63) 
nan

>  <Assay ChEMBL ID>  (63) 
nan

>  <Assay Description>  (63) 
nan

>  <BAO Label>  (63) 
nan

$$$$

     RDKit          2D

 36 43  0  0  0  0  0  0  0  0999 V2000
    7.0384   -5.9220    0.0000 C   0  0  0  0  0  0  0  0  0  0  0  0
    6.3474   -4.5907    0.0000 N   0  0  0  0  0  0  0  0  0  0  0  0
    4.8489   -4.5234    0.0000 C   0  0  0  0  0  0  0  0  0  0  0  0
    4.0414   -5.7874    0.0000 C   0  0  0  0  0  0  0  0  0  0  0  0
    2.5382   -5.8249    0.0000 C   0  0  0  0  0  0  0  0  0  0  0  0
    3.2490   -4.5040    0.0000 O   0  0  0  0  0  0  0  0  0  0  0  0
    2.6595   -3.1247    0.0000 C   0  0  0  0  0  0  0  0  0  0  0  0
    3.6464   -1.9951    0.0000 C   0  0  0  0  0  0  0  0  0  0  0  0
    4.1580   -3.1920    0.0000 C   0  0  0  0  0  0  0  0  0  0  0  0
    4.9655   -1.9279    0.0000 O   0  0  0  0  0  0  0  0  0  0  0  0
    6.4640   -1.9952    0.0000 C   0  0  0  0  0  0  0  0  0  0  0  0
    1.2135   -2.7256    0.0000 N   0  0  0  0  0  0  0  0  0  0  0  0
    0.7500   -1.2990    0.0000 C   0  0  0  0  0  0  0  0  0  0  0  0
    1.5000    0.0000    0.0000 C   0  0  0  0  0  0  0  0  0  0  0  0
    0.7500    1.2990    0.0000 C   0  0  0  0  0  0  0  0  0  0  0  0
   -0.7500    1.2990    0.0000 C   0  0  0  0  0  0  0  0  0  0  0  0
   -1.5000    0.0000    0.0000 C   0  0  0  0  0  0  0  0  0  0  0  0
   -0.7500   -1.2990    0.0000 C   0  0  0  0  0  0  0  0  0  0  0  0
   -1.2135   -2.7256    0.0000 C   0  0  0  0  0  0  0  0  0  0  0  0
   -2.5518   -3.5691    0.0000 C   0  0  0  0  0  0  0  0  0  0  0  0
   -2.6191   -5.0676    0.0000 C   0  0  0  0  0  0  0  0  0  0  0  0
   -1.3550   -5.8751    0.0000 C   0  0  0  0  0  0  0  0  0  0  0  0
   -1.0212   -7.3375    0.0000 C   0  0  0  0  0  0  0  0  0  0  0  0
   -1.8846   -8.5641    0.0000 C   0  0  0  0  0  0  0  0  0  0  0  0
   -1.2541   -9.9251    0.0000 C   0  0  0  0  0  0  0  0  0  0  0  0
    0.2399  -10.0596    0.0000 C   0  0  0  0  0  0  0  0  0  0  0  0
    1.1033   -8.8330    0.0000 C   0  0  0  0  0  0  0  0  0  0  0  0
    0.4728   -7.4720    0.0000 C   0  0  0  0  0  0  0  0  0  0  0  0
    1.0623   -6.0927    0.0000 N   0  0  0  0  0  0  0  0  0  0  0  0
   -0.0673   -5.1058    0.0000 C   0  0  0  0  0  0  0  0  0  0  0  0
   -0.0000   -3.6073    0.0000 C   0  0  0  0  0  0  0  0  0  0  0  0
   -4.0650   -5.4667    0.0000 C   0  0  0  0  0  0  0  0  0  0  0  0
   -4.5921   -6.8710    0.0000 O   0  0  0  0  0  0  0  0  0  0  0  0
   -4.8913   -4.2148    0.0000 N   0  0  0  0  0  0  0  0  0  0  0  0
   -3.9561   -3.0421    0.0000 C   0  0  0  0  0  0  0  0  0  0  0  0
   -4.3552   -1.5961    0.0000 O   0  0  0  0  0  0  0  0  0  0  0  0
  1  2  1  0
  3  2  1  1
  3  4  1  0
  5  4  1  1
  5  6  1  0
  6  7  1  0
  7  8  1  6
  7  9  1  0
  9 10  1  1
 10 11  1  0
  7 12  1  0
 12 13  1  0
 13 14  2  0
 14 15  1  0
 15 16  2  0
 16 17  1  0
 17 18  2  0
 18 19  1  0
 19 20  2  0
 20 21  1  0
 21 22  2  0
 22 23  1  0
 23 24  2  0
 24 25  1  0
 25 26  2  0
 26 27  1  0
 27 28  2  0
 28 29  1  0
 29 30  1  0
 30 31  2  0
 21 32  1  0
 32 33  2  0
 32 34  1  0
 34 35  1  0
 35 36  2  0
  9  3  1  0
 31 12  1  0
 29  5  1  0
 18 13  1  0
 31 19  1  0
 35 20  1  0
 30 22  1  0
 28 23  1  0
M  END
>  <Compound_ID>  (64) 
CHEMBL337026

>  <Active>  (64) 
1.0

>  <Smiles>  (64) 
CN[C@H]1C[C@@H]2O[C@](C)([C@H]1OC)n1c3ccccc3c3c4c(c5c6ccccc6n2c5c31)C(=O)NC4=O

>  <canonical_smi>  (64) 
CN[C@H]1C[C@@H]2O[C@](C)([C@H]1OC)n1c3ccccc3c3c4c(c5c6ccccc6n2c5c31)C(=O)NC4=O

>  <Set>  (64) 
G2 active

>  <Set_type>  (64) 
Train

>  <MW>  (64) 
480.52

>  <HBD>  (64) 
2

>  <HBA>  (64) 
5

>  <NRB>  (64) 
2

>  <NR>  (64) 
8

>  <NAR>  (64) 
5

>  <PSA>  (64) 
86.52

>  <Standard Type>  (64) 
nan

>  <Standard Relation>  (64) 
nan

>  <Standard Units>  (64) 
nan

>  <Standard Value>  (64) 
nan

>  <Assay ChEMBL ID>  (64) 
nan

>  <Assay Description>  (64) 
nan

>  <BAO Label>  (64) 
nan

$$$$

     RDKit          2D

 33 37  0  0  0  0  0  0  0  0999 V2000
    5.4425   -9.2405    0.0000 N   0  0  0  0  0  0  0  0  0  0  0  0
    4.4388  -10.3552    0.0000 C   0  0  0  0  0  0  0  0  0  0  0  0
    4.9023  -11.7818    0.0000 N   0  0  0  0  0  0  0  0  0  0  0  0
    2.9716  -10.0434    0.0000 S   0  0  0  0  0  0  0  0  0  0  0  0
    2.5081   -8.6168    0.0000 C   0  0  0  0  0  0  0  0  0  0  0  0
    1.0409   -8.3049    0.0000 C   0  0  0  0  0  0  0  0  0  0  0  0
    0.5773   -6.8783    0.0000 C   0  0  0  0  0  0  0  0  0  0  0  0
   -0.8899   -6.5665    0.0000 N   0  0  0  0  0  0  0  0  0  0  0  0
   -1.5000   -5.1962    0.0000 C   0  0  0  0  0  0  0  0  0  0  0  0
   -0.7500   -3.8971    0.0000 C   0  0  0  0  0  0  0  0  0  0  0  0
    0.7500   -3.8971    0.0000 C   0  0  0  0  0  0  0  0  0  0  0  0
    1.5000   -2.5981    0.0000 C   0  0  0  0  0  0  0  0  0  0  0  0
    0.7500   -1.2990    0.0000 C   0  0  0  0  0  0  0  0  0  0  0  0
    1.5000    0.0000    0.0000 C   0  0  0  0  0  0  0  0  0  0  0  0
    0.7500    1.2990    0.0000 C   0  0  0  0  0  0  0  0  0  0  0  0
   -0.7500    1.2990    0.0000 C   0  0  0  0  0  0  0  0  0  0  0  0
   -1.5000    0.0000    0.0000 C   0  0  0  0  0  0  0  0  0  0  0  0
   -0.7500   -1.2990    0.0000 C   0  0  0  0  0  0  0  0  0  0  0  0
   -1.5000   -2.5981    0.0000 C   0  0  0  0  0  0  0  0  0  0  0  0
   -2.9918   -5.3529    0.0000 C   0  0  0  0  0  0  0  0  0  0  0  0
   -3.9955   -4.2382    0.0000 C   0  0  0  0  0  0  0  0  0  0  0  0
   -5.4873   -4.3950    0.0000 C   0  0  0  0  0  0  0  0  0  0  0  0
   -6.0974   -3.0247    0.0000 C   0  0  0  0  0  0  0  0  0  0  0  0
   -7.5646   -2.7128    0.0000 O   0  0  0  0  0  0  0  0  0  0  0  0
   -4.9826   -2.0210    0.0000 N   0  0  0  0  0  0  0  0  0  0  0  0
   -3.6836   -2.7710    0.0000 C   0  0  0  0  0  0  0  0  0  0  0  0
   -2.3133   -2.1609    0.0000 O   0  0  0  0  0  0  0  0  0  0  0  0
   -3.3037   -6.8202    0.0000 C   0  0  0  0  0  0  0  0  0  0  0  0
   -4.6027   -7.5702    0.0000 C   0  0  0  0  0  0  0  0  0  0  0  0
   -4.6027   -9.0702    0.0000 C   0  0  0  0  0  0  0  0  0  0  0  0
   -3.3037   -9.8202    0.0000 C   0  0  0  0  0  0  0  0  0  0  0  0
   -2.0046   -9.0702    0.0000 C   0  0  0  0  0  0  0  0  0  0  0  0
   -2.0046   -7.5702    0.0000 C   0  0  0  0  0  0  0  0  0  0  0  0
  1  2  2  0
  2  3  1  0
  2  4  1  0
  4  5  1  0
  5  6  1  0
  6  7  1  0
  7  8  1  0
  8  9  1  0
  9 10  1  0
 10 11  2  0
 11 12  1  0
 12 13  2  0
 13 14  1  0
 14 15  2  0
 15 16  1  0
 16 17  2  0
 17 18  1  0
 18 19  2  0
  9 20  2  0
 20 21  1  0
 21 22  2  0
 22 23  1  0
 23 24  2  0
 23 25  1  0
 25 26  1  0
 26 27  2  0
 20 28  1  0
 28 29  2  0
 29 30  1  0
 30 31  2  0
 31 32  1  0
 32 33  2  0
 33  8  1  0
 19 10  1  0
 26 21  1  0
 33 28  1  0
 18 13  1  0
M  END
>  <Compound_ID>  (65) 
CHEMBL444864

>  <Active>  (65) 
1.0

>  <Smiles>  (65) 
N=C(N)SCCCn1c(-c2ccc3ccccc3c2)c(C2=CC(=O)NC2=O)c2ccccc21

>  <canonical_smi>  (65) 
N=C(N)SCCCn1c(-c2ccc3ccccc3c2)c(C2=CC(=O)NC2=O)c2ccccc21

>  <Set>  (65) 
G2 active

>  <Set_type>  (65) 
Train

>  <MW>  (65) 
454.56

>  <HBD>  (65) 
3

>  <HBA>  (65) 
4

>  <NRB>  (65) 
6

>  <NR>  (65) 
5

>  <NAR>  (65) 
4

>  <PSA>  (65) 
100.97

>  <Standard Type>  (65) 
nan

>  <Standard Relation>  (65) 
nan

>  <Standard Units>  (65) 
nan

>  <Standard Value>  (65) 
nan

>  <Assay ChEMBL ID>  (65) 
nan

>  <Assay Description>  (65) 
nan

>  <BAO Label>  (65) 
nan

$$$$

     RDKit          2D

 33 37  0  0  0  0  0  0  0  0999 V2000
   -2.6401   -3.1891    0.0000 C   0  0  0  0  0  0  0  0  0  0  0  0
   -1.2135   -2.7256    0.0000 N   0  0  0  0  0  0  0  0  0  0  0  0
   -0.0000   -3.6073    0.0000 C   0  0  0  0  0  0  0  0  0  0  0  0
    1.2135   -2.7256    0.0000 C   0  0  0  0  0  0  0  0  0  0  0  0
    2.6401   -3.1891    0.0000 C   0  0  0  0  0  0  0  0  0  0  0  0
    3.8536   -2.3075    0.0000 C   0  0  0  0  0  0  0  0  0  0  0  0
    3.8536   -0.8075    0.0000 C   0  0  0  0  0  0  0  0  0  0  0  0
    2.6401    0.0742    0.0000 C   0  0  0  0  0  0  0  0  0  0  0  0
    3.1036    1.5008    0.0000 N   0  0  0  0  0  0  0  0  0  0  0  0
    2.2220    2.7143    0.0000 C   0  0  0  0  0  0  0  0  0  0  0  0
    2.8321    4.0846    0.0000 C   0  0  0  0  0  0  0  0  0  0  0  0
    1.9504    5.2982    0.0000 C   0  0  0  0  0  0  0  0  0  0  0  0
    2.5605    6.6685    0.0000 S   0  0  0  0  0  0  0  0  0  0  0  0
    1.6788    7.8820    0.0000 C   0  0  0  0  0  0  0  0  0  0  0  0
    0.1870    7.7252    0.0000 N   0  0  0  0  0  0  0  0  0  0  0  0
    2.2889    9.2523    0.0000 N   0  0  0  0  0  0  0  0  0  0  0  0
    4.6036    1.5008    0.0000 C   0  0  0  0  0  0  0  0  0  0  0  0
    5.6073    2.6155    0.0000 C   0  0  0  0  0  0  0  0  0  0  0  0
    7.0746    2.3036    0.0000 C   0  0  0  0  0  0  0  0  0  0  0  0
    7.5381    0.8771    0.0000 C   0  0  0  0  0  0  0  0  0  0  0  0
    6.5344   -0.2377    0.0000 C   0  0  0  0  0  0  0  0  0  0  0  0
    5.0672    0.0742    0.0000 C   0  0  0  0  0  0  0  0  0  0  0  0
    5.0672   -3.1891    0.0000 C   0  0  0  0  0  0  0  0  0  0  0  0
    6.4937   -2.7256    0.0000 O   0  0  0  0  0  0  0  0  0  0  0  0
    4.6036   -4.6157    0.0000 N   0  0  0  0  0  0  0  0  0  0  0  0
    3.1036   -4.6157    0.0000 C   0  0  0  0  0  0  0  0  0  0  0  0
    2.2220   -5.8293    0.0000 O   0  0  0  0  0  0  0  0  0  0  0  0
    0.7500   -1.2990    0.0000 C   0  0  0  0  0  0  0  0  0  0  0  0
    1.5000    0.0000    0.0000 C   0  0  0  0  0  0  0  0  0  0  0  0
    0.7500    1.2990    0.0000 C   0  0  0  0  0  0  0  0  0  0  0  0
   -0.7500    1.2990    0.0000 C   0  0  0  0  0  0  0  0  0  0  0  0
   -1.5000    0.0000    0.0000 C   0  0  0  0  0  0  0  0  0  0  0  0
   -0.7500   -1.2990    0.0000 C   0  0  0  0  0  0  0  0  0  0  0  0
  1  2  1  0
  2  3  1  0
  3  4  2  0
  4  5  1  0
  5  6  2  0
  6  7  1  0
  7  8  2  0
  8  9  1  0
  9 10  1  0
 10 11  1  0
 11 12  1  0
 12 13  1  0
 13 14  1  0
 14 15  2  0
 14 16  1  0
  9 17  1  0
 17 18  2  0
 18 19  1  0
 19 20  2  0
 20 21  1  0
 21 22  2  0
  6 23  1  0
 23 24  2  0
 23 25  1  0
 25 26  1  0
 26 27  2  0
  4 28  1  0
 28 29  2  0
 29 30  1  0
 30 31  2  0
 31 32  1  0
 32 33  2  0
 33  2  1  0
 26  5  1  0
 33 28  1  0
 22  7  1  0
 22 17  1  0
M  END
>  <Compound_ID>  (66) 
CHEMBL6291

>  <Active>  (66) 
1.0

>  <Smiles>  (66) 
Cn1cc(C2=C(c3cn(CCCSC(=N)N)c4ccccc34)C(=O)NC2=O)c2ccccc21

>  <canonical_smi>  (66) 
Cn1cc(C2=C(c3cn(CCCSC(=N)N)c4ccccc34)C(=O)NC2=O)c2ccccc21

>  <Set>  (66) 
G2 active

>  <Set_type>  (66) 
Train

>  <MW>  (66) 
457.56

>  <HBD>  (66) 
3

>  <HBA>  (66) 
4

>  <NRB>  (66) 
6

>  <NR>  (66) 
5

>  <NAR>  (66) 
4

>  <PSA>  (66) 
105.9

>  <Standard Type>  (66) 
nan

>  <Standard Relation>  (66) 
nan

>  <Standard Units>  (66) 
nan

>  <Standard Value>  (66) 
nan

>  <Assay ChEMBL ID>  (66) 
nan

>  <Assay Description>  (66) 
nan

>  <BAO Label>  (66) 
nan

$$$$

     RDKit          2D

 33 37  0  0  0  0  0  0  0  0999 V2000
    2.7057    7.0241    0.0000 N   0  0  0  0  0  0  0  0  0  0  0  0
    1.3354    7.6342    0.0000 C   0  0  0  0  0  0  0  0  0  0  0  0
    1.1786    9.1259    0.0000 N   0  0  0  0  0  0  0  0  0  0  0  0
    0.1219    6.7525    0.0000 S   0  0  0  0  0  0  0  0  0  0  0  0
    0.2787    5.2607    0.0000 C   0  0  0  0  0  0  0  0  0  0  0  0
   -0.9348    4.3790    0.0000 C   0  0  0  0  0  0  0  0  0  0  0  0
   -0.7780    2.8872    0.0000 C   0  0  0  0  0  0  0  0  0  0  0  0
   -1.9916    2.0056    0.0000 N   0  0  0  0  0  0  0  0  0  0  0  0
   -1.9916    0.5056    0.0000 C   0  0  0  0  0  0  0  0  0  0  0  0
   -3.4182    0.0420    0.0000 C   0  0  0  0  0  0  0  0  0  0  0  0
   -3.8817   -1.3846    0.0000 C   0  0  0  0  0  0  0  0  0  0  0  0
   -3.0000   -2.5981    0.0000 C   0  0  0  0  0  0  0  0  0  0  0  0
   -1.5000   -2.5981    0.0000 C   0  0  0  0  0  0  0  0  0  0  0  0
   -0.7500   -3.8971    0.0000 C   0  0  0  0  0  0  0  0  0  0  0  0
    0.7500   -3.8971    0.0000 C   0  0  0  0  0  0  0  0  0  0  0  0
    1.5000   -2.5981    0.0000 C   0  0  0  0  0  0  0  0  0  0  0  0
    0.7500   -1.2990    0.0000 C   0  0  0  0  0  0  0  0  0  0  0  0
    1.5000    0.0000    0.0000 C   0  0  0  0  0  0  0  0  0  0  0  0
    0.7500    1.2990    0.0000 C   0  0  0  0  0  0  0  0  0  0  0  0
   -0.7500    1.2990    0.0000 C   0  0  0  0  0  0  0  0  0  0  0  0
   -1.5000    0.0000    0.0000 C   0  0  0  0  0  0  0  0  0  0  0  0
   -0.7500   -1.2990    0.0000 C   0  0  0  0  0  0  0  0  0  0  0  0
   -3.8817   -3.8116    0.0000 C   0  0  0  0  0  0  0  0  0  0  0  0
   -3.4182   -5.2382    0.0000 O   0  0  0  0  0  0  0  0  0  0  0  0
   -5.3083   -3.3481    0.0000 N   0  0  0  0  0  0  0  0  0  0  0  0
   -5.3083   -1.8481    0.0000 C   0  0  0  0  0  0  0  0  0  0  0  0
   -6.5218   -0.9664    0.0000 O   0  0  0  0  0  0  0  0  0  0  0  0
   -4.2998    1.2556    0.0000 C   0  0  0  0  0  0  0  0  0  0  0  0
   -5.7916    1.4124    0.0000 C   0  0  0  0  0  0  0  0  0  0  0  0
   -6.4017    2.7827    0.0000 C   0  0  0  0  0  0  0  0  0  0  0  0
   -5.5200    3.9962    0.0000 C   0  0  0  0  0  0  0  0  0  0  0  0
   -4.0283    3.8394    0.0000 C   0  0  0  0  0  0  0  0  0  0  0  0
   -3.4182    2.4691    0.0000 C   0  0  0  0  0  0  0  0  0  0  0  0
  1  2  2  0
  2  3  1  0
  2  4  1  0
  4  5  1  0
  5  6  1  0
  6  7  1  0
  7  8  1  0
  8  9  1  0
  9 10  2  0
 10 11  1  0
 11 12  2  0
 12 13  1  0
 13 14  2  0
 14 15  1  0
 15 16  2  0
 16 17  1  0
 17 18  2  0
 18 19  1  0
 19 20  2  0
 20 21  1  0
 21 22  2  0
 12 23  1  0
 23 24  2  0
 23 25  1  0
 25 26  1  0
 26 27  2  0
 10 28  1  0
 28 29  2  0
 29 30  1  0
 30 31  2  0
 31 32  1  0
 32 33  2  0
 33  8  1  0
 26 11  1  0
 33 28  1  0
 22 13  1  0
 22 17  1  0
M  END
>  <Compound_ID>  (67) 
CHEMBL163269

>  <Active>  (67) 
1.0

>  <Smiles>  (67) 
N=C(N)SCCCn1cc(C2=C(c3cccc4ccccc34)C(=O)NC2=O)c2ccccc21

>  <canonical_smi>  (67) 
N=C(N)SCCCn1cc(C2=C(c3cccc4ccccc34)C(=O)NC2=O)c2ccccc21

>  <Set>  (67) 
G2 active

>  <Set_type>  (67) 
Train

>  <MW>  (67) 
454.56

>  <HBD>  (67) 
3

>  <HBA>  (67) 
4

>  <NRB>  (67) 
6

>  <NR>  (67) 
5

>  <NAR>  (67) 
4

>  <PSA>  (67) 
100.97

>  <Standard Type>  (67) 
nan

>  <Standard Relation>  (67) 
nan

>  <Standard Units>  (67) 
nan

>  <Standard Value>  (67) 
nan

>  <Assay ChEMBL ID>  (67) 
nan

>  <Assay Description>  (67) 
nan

>  <BAO Label>  (67) 
nan

$$$$

     RDKit          2D

 36 41  0  0  0  0  0  0  0  0999 V2000
   -6.1170   -7.0506    0.0000 C   0  0  0  0  0  0  0  0  0  0  0  0
   -4.6904   -6.5871    0.0000 N   0  0  0  0  0  0  0  0  0  0  0  0
   -3.5757   -7.5908    0.0000 C   0  0  0  0  0  0  0  0  0  0  0  0
   -4.3786   -5.1199    0.0000 C   0  0  0  0  0  0  0  0  0  0  0  0
   -2.9520   -4.6564    0.0000 C   0  0  0  0  0  0  0  0  0  0  0  0
   -2.6401   -3.1891    0.0000 C   0  0  0  0  0  0  0  0  0  0  0  0
   -1.2135   -2.7256    0.0000 N   0  0  0  0  0  0  0  0  0  0  0  0
   -0.0000   -3.6073    0.0000 N   0  0  0  0  0  0  0  0  0  0  0  0
    1.2135   -2.7256    0.0000 C   0  0  0  0  0  0  0  0  0  0  0  0
    2.6401   -3.1891    0.0000 C   0  0  0  0  0  0  0  0  0  0  0  0
    3.8536   -2.3075    0.0000 C   0  0  0  0  0  0  0  0  0  0  0  0
    3.8536   -0.8075    0.0000 C   0  0  0  0  0  0  0  0  0  0  0  0
    2.6401    0.0742    0.0000 C   0  0  0  0  0  0  0  0  0  0  0  0
    3.1036    1.5008    0.0000 N   0  0  0  0  0  0  0  0  0  0  0  0
    2.2220    2.7143    0.0000 C   0  0  0  0  0  0  0  0  0  0  0  0
    0.7220    2.7143    0.0000 C   0  0  0  0  0  0  0  0  0  0  0  0
    0.2584    4.1409    0.0000 C   0  0  0  0  0  0  0  0  0  0  0  0
    1.4720    5.0226    0.0000 C   0  0  0  0  0  0  0  0  0  0  0  0
    2.6855    4.1409    0.0000 S   0  0  0  0  0  0  0  0  0  0  0  0
    4.6036    1.5008    0.0000 C   0  0  0  0  0  0  0  0  0  0  0  0
    5.6073    2.6155    0.0000 C   0  0  0  0  0  0  0  0  0  0  0  0
    7.0746    2.3036    0.0000 C   0  0  0  0  0  0  0  0  0  0  0  0
    7.5381    0.8771    0.0000 C   0  0  0  0  0  0  0  0  0  0  0  0
    6.5344   -0.2377    0.0000 C   0  0  0  0  0  0  0  0  0  0  0  0
    5.0672    0.0742    0.0000 C   0  0  0  0  0  0  0  0  0  0  0  0
    5.0672   -3.1891    0.0000 C   0  0  0  0  0  0  0  0  0  0  0  0
    6.4937   -2.7256    0.0000 O   0  0  0  0  0  0  0  0  0  0  0  0
    4.6036   -4.6157    0.0000 N   0  0  0  0  0  0  0  0  0  0  0  0
    3.1036   -4.6157    0.0000 C   0  0  0  0  0  0  0  0  0  0  0  0
    2.2220   -5.8293    0.0000 O   0  0  0  0  0  0  0  0  0  0  0  0
    0.7500   -1.2990    0.0000 C   0  0  0  0  0  0  0  0  0  0  0  0
    1.5000    0.0000    0.0000 C   0  0  0  0  0  0  0  0  0  0  0  0
    0.7500    1.2990    0.0000 C   0  0  0  0  0  0  0  0  0  0  0  0
   -0.7500    1.2990    0.0000 C   0  0  0  0  0  0  0  0  0  0  0  0
   -1.5000    0.0000    0.0000 C   0  0  0  0  0  0  0  0  0  0  0  0
   -0.7500   -1.2990    0.0000 C   0  0  0  0  0  0  0  0  0  0  0  0
  1  2  1  0
  2  3  1  0
  2  4  1  0
  4  5  1  0
  5  6  1  0
  6  7  1  0
  7  8  1  0
  8  9  2  0
  9 10  1  0
 10 11  2  0
 11 12  1  0
 12 13  2  0
 13 14  1  0
 14 15  1  0
 15 16  2  0
 16 17  1  0
 17 18  2  0
 18 19  1  0
 14 20  1  0
 20 21  2  0
 21 22  1  0
 22 23  2  0
 23 24  1  0
 24 25  2  0
 11 26  1  0
 26 27  2  0
 26 28  1  0
 28 29  1  0
 29 30  2  0
  9 31  1  0
 31 32  2  0
 32 33  1  0
 33 34  2  0
 34 35  1  0
 35 36  2  0
 36  7  1  0
 29 10  1  0
 36 31  1  0
 25 12  1  0
 19 15  1  0
 25 20  1  0
M  END
>  <Compound_ID>  (68) 
CHEMBL178945

>  <Active>  (68) 
1.0

>  <Smiles>  (68) 
CN(C)CCCn1nc(C2=C(c3cn(-c4cccs4)c4ccccc34)C(=O)NC2=O)c2ccccc21

>  <canonical_smi>  (68) 
CN(C)CCCn1nc(C2=C(c3cn(-c4cccs4)c4ccccc34)C(=O)NC2=O)c2ccccc21

>  <Set>  (68) 
G2 active

>  <Set_type>  (68) 
Train

>  <MW>  (68) 
495.61

>  <HBD>  (68) 
1

>  <HBA>  (68) 
4

>  <NRB>  (68) 
7

>  <NR>  (68) 
6

>  <NAR>  (68) 
5

>  <PSA>  (68) 
72.16

>  <Standard Type>  (68) 
nan

>  <Standard Relation>  (68) 
nan

>  <Standard Units>  (68) 
nan

>  <Standard Value>  (68) 
nan

>  <Assay ChEMBL ID>  (68) 
nan

>  <Assay Description>  (68) 
nan

>  <BAO Label>  (68) 
nan

$$$$

     RDKit          2D

 36 39  0  0  0  0  0  0  0  0999 V2000
    2.2872   -8.1206    0.0000 O   0  0  0  0  0  0  0  0  0  0  0  0
    3.2909   -7.0059    0.0000 C   0  0  0  0  0  0  0  0  0  0  0  0
    2.8273   -5.5793    0.0000 O   0  0  0  0  0  0  0  0  0  0  0  0
    1.3601   -5.2674    0.0000 C   0  0  0  0  0  0  0  0  0  0  0  0
    0.2454   -6.2711    0.0000 C   0  0  0  0  0  0  0  0  0  0  0  0
   -1.0537   -5.5211    0.0000 N   0  0  0  0  0  0  0  0  0  0  0  0
   -0.7418   -4.0539    0.0000 C   0  0  0  0  0  0  0  0  0  0  0  0
    0.7500   -3.8971    0.0000 C   0  0  0  0  0  0  0  0  0  0  0  0
    1.5000   -2.5981    0.0000 C   0  0  0  0  0  0  0  0  0  0  0  0
    0.7500   -1.2990    0.0000 C   0  0  0  0  0  0  0  0  0  0  0  0
    1.5000    0.0000    0.0000 C   0  0  0  0  0  0  0  0  0  0  0  0
    0.7500    1.2990    0.0000 C   0  0  0  0  0  0  0  0  0  0  0  0
   -0.7500    1.2990    0.0000 C   0  0  0  0  0  0  0  0  0  0  0  0
   -1.5000    2.5981    0.0000 O   0  0  0  0  0  0  0  0  0  0  0  0
   -1.5000    0.0000    0.0000 C   0  0  0  0  0  0  0  0  0  0  0  0
   -0.7500   -1.2990    0.0000 C   0  0  0  0  0  0  0  0  0  0  0  0
    4.7581   -7.3178    0.0000 C   0  0  0  0  0  0  0  0  0  0  0  0
    5.2216   -8.7443    0.0000 C   0  0  0  0  0  0  0  0  0  0  0  0
    6.6888   -9.0562    0.0000 C   0  0  0  0  0  0  0  0  0  0  0  0
    6.8766  -10.0223    0.0000 O   0  0  0  0  0  0  0  0  0  0  0  0
    7.6925   -7.9415    0.0000 C   0  0  0  0  0  0  0  0  0  0  0  0
    9.1597   -8.2534    0.0000 C   0  0  0  0  0  0  0  0  0  0  0  0
   10.1634   -7.1386    0.0000 O   0  0  0  0  0  0  0  0  0  0  0  0
    9.6233   -9.6799    0.0000 C   0  0  0  0  0  0  0  0  0  0  0  0
    8.6196  -10.7947    0.0000 C   0  0  0  0  0  0  0  0  0  0  0  0
    7.6392  -10.7089    0.0000 O   0  0  0  0  0  0  0  0  0  0  0  0
    9.0831  -12.2212    0.0000 C   0  0  0  0  0  0  0  0  0  0  0  0
   10.5503  -12.5331    0.0000 C   0  0  0  0  0  0  0  0  0  0  0  0
   11.5540  -11.4184    0.0000 C   0  0  0  0  0  0  0  0  0  0  0  0
   11.0905   -9.9918    0.0000 C   0  0  0  0  0  0  0  0  0  0  0  0
   12.0942   -8.8771    0.0000 C   0  0  0  0  0  0  0  0  0  0  0  0
   11.6307   -7.4505    0.0000 O   0  0  0  0  0  0  0  0  0  0  0  0
   13.5614   -9.1890    0.0000 O   0  0  0  0  0  0  0  0  0  0  0  0
    7.2290   -6.5149    0.0000 C   0  0  0  0  0  0  0  0  0  0  0  0
    8.2327   -5.4002    0.0000 O   0  0  0  0  0  0  0  0  0  0  0  0
    5.7618   -6.2030    0.0000 C   0  0  0  0  0  0  0  0  0  0  0  0
  1  2  2  0
  2  3  1  0
  3  4  1  0
  4  5  1  0
  5  6  1  0
  6  7  1  0
  7  8  1  0
  8  9  1  0
  9 10  1  0
 10 11  2  0
 11 12  1  0
 12 13  2  0
 13 14  1  0
 13 15  1  0
 15 16  2  0
  2 17  1  0
 17 18  2  0
 18 19  1  0
 19 20  1  0
 19 21  2  0
 21 22  1  0
 22 23  2  0
 22 24  1  0
 24 25  2  0
 25 26  1  0
 25 27  1  0
 27 28  2  0
 28 29  1  0
 29 30  2  0
 30 31  1  0
 31 32  2  0
 31 33  1  0
 21 34  1  0
 34 35  1  0
 34 36  2  0
  8  4  1  0
 16 10  1  0
 36 17  1  0
 30 24  1  0
M  END
>  <Compound_ID>  (69) 
CHEMBL300422

>  <Active>  (69) 
1.0

>  <Smiles>  (69) 
O=C(OC1CNCC1Cc1ccc(O)cc1)c1cc(O)c(C(=O)c2c(O)cccc2C(=O)O)c(O)c1

>  <canonical_smi>  (69) 
O=C(OC1CNCC1Cc1ccc(O)cc1)c1cc(O)c(C(=O)c2c(O)cccc2C(=O)O)c(O)c1

>  <Set>  (69) 
G2 active

>  <Set_type>  (69) 
Train

>  <MW>  (69) 
493.47

>  <HBD>  (69) 
6

>  <HBA>  (69) 
10

>  <NRB>  (69) 
7

>  <NR>  (69) 
4

>  <NAR>  (69) 
3

>  <PSA>  (69) 
173.62

>  <Standard Type>  (69) 
nan

>  <Standard Relation>  (69) 
nan

>  <Standard Units>  (69) 
nan

>  <Standard Value>  (69) 
nan

>  <Assay ChEMBL ID>  (69) 
nan

>  <Assay Description>  (69) 
nan

>  <BAO Label>  (69) 
nan

$$$$

     RDKit          2D

 36 42  0  0  0  0  0  0  0  0999 V2000
   -2.6401   -3.1891    0.0000 C   0  0  0  0  0  0  0  0  0  0  0  0
   -1.2135   -2.7256    0.0000 N   0  0  0  0  0  0  0  0  0  0  0  0
   -0.0000   -3.6073    0.0000 C   0  0  0  0  0  0  0  0  0  0  0  0
    1.2135   -2.7256    0.0000 C   0  0  0  0  0  0  0  0  0  0  0  0
    2.6401   -3.1891    0.0000 C   0  0  0  0  0  0  0  0  0  0  0  0
    3.8536   -2.3075    0.0000 C   0  0  0  0  0  0  0  0  0  0  0  0
    3.8536   -0.8075    0.0000 C   0  0  0  0  0  0  0  0  0  0  0  0
    2.6401    0.0742    0.0000 C   0  0  0  0  0  0  0  0  0  0  0  0
    3.1036    1.5008    0.0000 N   0  0  0  0  0  0  0  0  0  0  0  0
    2.2220    2.7143    0.0000 C   0  0  0  0  0  0  0  0  0  0  0  0
    2.8321    4.0846    0.0000 C   0  0  0  0  0  0  0  0  0  0  0  0
    1.9504    5.2982    0.0000 C   0  0  0  0  0  0  0  0  0  0  0  0
    0.4586    5.1414    0.0000 N   0  0  0  0  0  0  0  0  0  0  0  0
   -0.4231    6.3549    0.0000 C   0  0  0  0  0  0  0  0  0  0  0  0
    0.1870    7.7252    0.0000 C   0  0  0  0  0  0  0  0  0  0  0  0
    0.0302    9.2170    0.0000 C   0  0  0  0  0  0  0  0  0  0  0  0
    1.4006    8.6069    0.0000 C   0  0  0  0  0  0  0  0  0  0  0  0
   -0.1515    3.7711    0.0000 C   0  0  0  0  0  0  0  0  0  0  0  0
    0.7302    2.5575    0.0000 C   0  0  0  0  0  0  0  0  0  0  0  0
    4.6036    1.5008    0.0000 C   0  0  0  0  0  0  0  0  0  0  0  0
    5.6073    2.6155    0.0000 C   0  0  0  0  0  0  0  0  0  0  0  0
    7.0746    2.3036    0.0000 C   0  0  0  0  0  0  0  0  0  0  0  0
    7.5381    0.8771    0.0000 C   0  0  0  0  0  0  0  0  0  0  0  0
    6.5344   -0.2377    0.0000 C   0  0  0  0  0  0  0  0  0  0  0  0
    5.0672    0.0742    0.0000 C   0  0  0  0  0  0  0  0  0  0  0  0
    5.0672   -3.1891    0.0000 C   0  0  0  0  0  0  0  0  0  0  0  0
    6.4937   -2.7256    0.0000 O   0  0  0  0  0  0  0  0  0  0  0  0
    4.6036   -4.6157    0.0000 N   0  0  0  0  0  0  0  0  0  0  0  0
    3.1036   -4.6157    0.0000 C   0  0  0  0  0  0  0  0  0  0  0  0
    2.2220   -5.8293    0.0000 O   0  0  0  0  0  0  0  0  0  0  0  0
    0.7500   -1.2990    0.0000 C   0  0  0  0  0  0  0  0  0  0  0  0
    1.5000    0.0000    0.0000 C   0  0  0  0  0  0  0  0  0  0  0  0
    0.7500    1.2990    0.0000 C   0  0  0  0  0  0  0  0  0  0  0  0
   -0.7500    1.2990    0.0000 C   0  0  0  0  0  0  0  0  0  0  0  0
   -1.5000    0.0000    0.0000 C   0  0  0  0  0  0  0  0  0  0  0  0
   -0.7500   -1.2990    0.0000 C   0  0  0  0  0  0  0  0  0  0  0  0
  1  2  1  0
  2  3  1  0
  3  4  2  0
  4  5  1  0
  5  6  2  0
  6  7  1  0
  7  8  2  0
  8  9  1  0
  9 10  1  0
 10 11  1  0
 11 12  1  0
 12 13  1  0
 13 14  1  0
 14 15  1  0
 15 16  1  0
 16 17  1  0
 13 18  1  0
 18 19  1  0
  9 20  1  0
 20 21  2  0
 21 22  1  0
 22 23  2  0
 23 24  1  0
 24 25  2  0
  6 26  1  0
 26 27  2  0
 26 28  1  0
 28 29  1  0
 29 30  2  0
  4 31  1  0
 31 32  2  0
 32 33  1  0
 33 34  2  0
 34 35  1  0
 35 36  2  0
 36  2  1  0
 29  5  1  0
 36 31  1  0
 25  7  1  0
 19 10  1  0
 25 20  1  0
 17 15  1  0
M  END
>  <Compound_ID>  (70) 
CHEMBL55394

>  <Active>  (70) 
1.0

>  <Smiles>  (70) 
Cn1cc(C2=C(c3cn(C4CCN(CC5CC5)CC4)c4ccccc34)C(=O)NC2=O)c2ccccc21

>  <canonical_smi>  (70) 
Cn1cc(C2=C(c3cn(C4CCN(CC5CC5)CC4)c4ccccc34)C(=O)NC2=O)c2ccccc21

>  <Set>  (70) 
G2 active

>  <Set_type>  (70) 
Train

>  <MW>  (70) 
478.6

>  <HBD>  (70) 
1

>  <HBA>  (70) 
3

>  <NRB>  (70) 
5

>  <NR>  (70) 
7

>  <NAR>  (70) 
4

>  <PSA>  (70) 
59.27

>  <Standard Type>  (70) 
nan

>  <Standard Relation>  (70) 
nan

>  <Standard Units>  (70) 
nan

>  <Standard Value>  (70) 
nan

>  <Assay ChEMBL ID>  (70) 
nan

>  <Assay Description>  (70) 
nan

>  <BAO Label>  (70) 
nan

$$$$

     RDKit          2D

 33 39  0  0  0  0  0  0  0  0999 V2000
    4.2660   -1.2584    0.0000 O   0  0  0  0  0  0  0  0  0  0  0  0
    3.9542   -2.7256    0.0000 C   0  0  0  0  0  0  0  0  0  0  0  0
    4.9579   -3.8403    0.0000 N   0  0  0  0  0  0  0  0  0  0  0  0
    4.2079   -5.1394    0.0000 C   0  0  0  0  0  0  0  0  0  0  0  0
    4.8180   -6.5097    0.0000 O   0  0  0  0  0  0  0  0  0  0  0  0
    2.7406   -4.8275    0.0000 C   0  0  0  0  0  0  0  0  0  0  0  0
    2.5838   -3.3357    0.0000 C   0  0  0  0  0  0  0  0  0  0  0  0
    1.2135   -2.7256    0.0000 C   0  0  0  0  0  0  0  0  0  0  0  0
    0.7500   -1.2990    0.0000 C   0  0  0  0  0  0  0  0  0  0  0  0
    1.5000    0.0000    0.0000 C   0  0  0  0  0  0  0  0  0  0  0  0
    0.7500    1.2990    0.0000 C   0  0  0  0  0  0  0  0  0  0  0  0
   -0.7500    1.2990    0.0000 C   0  0  0  0  0  0  0  0  0  0  0  0
   -1.5000    0.0000    0.0000 C   0  0  0  0  0  0  0  0  0  0  0  0
   -0.7500   -1.2990    0.0000 C   0  0  0  0  0  0  0  0  0  0  0  0
   -1.2135   -2.7256    0.0000 N   0  0  0  0  0  0  0  0  0  0  0  0
    0.0000   -3.6073    0.0000 C   0  0  0  0  0  0  0  0  0  0  0  0
    0.1568   -5.0991    0.0000 C   0  0  0  0  0  0  0  0  0  0  0  0
    1.5271   -5.7092    0.0000 C   0  0  0  0  0  0  0  0  0  0  0  0
    1.3703   -7.2010    0.0000 C   0  0  0  0  0  0  0  0  0  0  0  0
    2.3740   -8.3157    0.0000 C   0  0  0  0  0  0  0  0  0  0  0  0
    1.9105   -9.7423    0.0000 C   0  0  0  0  0  0  0  0  0  0  0  0
    0.4433  -10.0541    0.0000 C   0  0  0  0  0  0  0  0  0  0  0  0
   -0.5604   -8.9394    0.0000 C   0  0  0  0  0  0  0  0  0  0  0  0
   -0.0969   -7.5128    0.0000 C   0  0  0  0  0  0  0  0  0  0  0  0
   -0.8469   -6.2138    0.0000 N   0  0  0  0  0  0  0  0  0  0  0  0
   -2.3362   -6.0347    0.0000 C   0  0  0  0  0  0  0  0  0  0  0  0
   -3.1247   -4.7587    0.0000 N   0  0  0  0  0  0  0  0  0  0  0  0
   -4.6165   -4.9155    0.0000 C   0  0  0  0  0  0  0  0  0  0  0  0
   -5.4982   -3.7020    0.0000 C   0  0  0  0  0  0  0  0  0  0  0  0
   -6.9899   -3.8587    0.0000 O   0  0  0  0  0  0  0  0  0  0  0  0
   -5.2266   -6.2858    0.0000 C   0  0  0  0  0  0  0  0  0  0  0  0
   -6.7184   -6.4426    0.0000 O   0  0  0  0  0  0  0  0  0  0  0  0
   -2.6187   -3.3466    0.0000 C   0  0  0  0  0  0  0  0  0  0  0  0
  1  2  2  0
  2  3  1  0
  3  4  1  0
  4  5  2  0
  4  6  1  0
  6  7  2  0
  7  8  1  0
  8  9  1  0
  9 10  2  0
 10 11  1  0
 11 12  2  0
 12 13  1  0
 13 14  2  0
 14 15  1  0
 15 16  1  0
 16 17  1  0
 17 18  2  0
 18 19  1  0
 19 20  2  0
 20 21  1  0
 21 22  2  0
 22 23  1  0
 23 24  2  0
 24 25  1  0
 25 26  1  0
 26 27  1  0
 27 28  1  0
 28 29  1  0
 29 30  1  0
 28 31  1  0
 31 32  1  0
 27 33  1  0
  7  2  1  0
 16  8  2  0
 25 17  1  0
 18  6  1  0
 24 19  1  0
 14  9  1  0
 33 15  1  0
M  END
>  <Compound_ID>  (71) 
CHEMBL285613

>  <Active>  (71) 
1.0

>  <Smiles>  (71) 
O=C1NC(=O)c2c1c1c3ccccc3n3c1c1c2c2ccccc2n1CN(C(CO)CO)C3

>  <canonical_smi>  (71) 
O=C1NC(=O)c2c1c1c3ccccc3n3c1c1c2c2ccccc2n1CN(C(CO)CO)C3

>  <Set>  (71) 
G2 active

>  <Set_type>  (71) 
Train

>  <MW>  (71) 
440.46

>  <HBD>  (71) 
3

>  <HBA>  (71) 
5

>  <NRB>  (71) 
3

>  <NR>  (71) 
7

>  <NAR>  (71) 
5

>  <PSA>  (71) 
99.73

>  <Standard Type>  (71) 
nan

>  <Standard Relation>  (71) 
nan

>  <Standard Units>  (71) 
nan

>  <Standard Value>  (71) 
nan

>  <Assay ChEMBL ID>  (71) 
nan

>  <Assay Description>  (71) 
nan

>  <BAO Label>  (71) 
nan

$$$$

     RDKit          2D

 28 34  0  0  0  0  0  0  0  0999 V2000
    4.2660   -1.2584    0.0000 O   0  0  0  0  0  0  0  0  0  0  0  0
    3.9542   -2.7256    0.0000 C   0  0  0  0  0  0  0  0  0  0  0  0
    4.9579   -3.8403    0.0000 N   0  0  0  0  0  0  0  0  0  0  0  0
    4.2079   -5.1394    0.0000 C   0  0  0  0  0  0  0  0  0  0  0  0
    4.8180   -6.5097    0.0000 O   0  0  0  0  0  0  0  0  0  0  0  0
    2.7406   -4.8275    0.0000 C   0  0  0  0  0  0  0  0  0  0  0  0
    2.5838   -3.3357    0.0000 C   0  0  0  0  0  0  0  0  0  0  0  0
    1.2135   -2.7256    0.0000 C   0  0  0  0  0  0  0  0  0  0  0  0
    0.7500   -1.2990    0.0000 C   0  0  0  0  0  0  0  0  0  0  0  0
    1.5000    0.0000    0.0000 C   0  0  0  0  0  0  0  0  0  0  0  0
    0.7500    1.2990    0.0000 C   0  0  0  0  0  0  0  0  0  0  0  0
   -0.7500    1.2990    0.0000 C   0  0  0  0  0  0  0  0  0  0  0  0
   -1.5000    0.0000    0.0000 C   0  0  0  0  0  0  0  0  0  0  0  0
   -0.7500   -1.2990    0.0000 C   0  0  0  0  0  0  0  0  0  0  0  0
   -1.2135   -2.7256    0.0000 N   0  0  0  0  0  0  0  0  0  0  0  0
    0.0000   -3.6073    0.0000 C   0  0  0  0  0  0  0  0  0  0  0  0
    0.1568   -5.0991    0.0000 C   0  0  0  0  0  0  0  0  0  0  0  0
    1.5271   -5.7092    0.0000 C   0  0  0  0  0  0  0  0  0  0  0  0
    1.3703   -7.2010    0.0000 C   0  0  0  0  0  0  0  0  0  0  0  0
    2.3740   -8.3157    0.0000 C   0  0  0  0  0  0  0  0  0  0  0  0
    1.9105   -9.7423    0.0000 C   0  0  0  0  0  0  0  0  0  0  0  0
    0.4433  -10.0541    0.0000 C   0  0  0  0  0  0  0  0  0  0  0  0
   -0.5604   -8.9394    0.0000 C   0  0  0  0  0  0  0  0  0  0  0  0
   -0.0969   -7.5128    0.0000 C   0  0  0  0  0  0  0  0  0  0  0  0
   -0.8469   -6.2138    0.0000 N   0  0  0  0  0  0  0  0  0  0  0  0
   -2.3362   -6.0347    0.0000 C   0  0  0  0  0  0  0  0  0  0  0  0
   -3.1247   -4.7587    0.0000 O   0  0  0  0  0  0  0  0  0  0  0  0
   -2.6187   -3.3466    0.0000 C   0  0  0  0  0  0  0  0  0  0  0  0
  1  2  2  0
  2  3  1  0
  3  4  1  0
  4  5  2  0
  4  6  1  0
  6  7  2  0
  7  8  1  0
  8  9  1  0
  9 10  2  0
 10 11  1  0
 11 12  2  0
 12 13  1  0
 13 14  2  0
 14 15  1  0
 15 16  1  0
 16 17  1  0
 17 18  2  0
 18 19  1  0
 19 20  2  0
 20 21  1  0
 21 22  2  0
 22 23  1  0
 23 24  2  0
 24 25  1  0
 25 26  1  0
 26 27  1  0
 27 28  1  0
  7  2  1  0
 16  8  2  0
 25 17  1  0
 18  6  1  0
 24 19  1  0
 14  9  1  0
 28 15  1  0
M  END
>  <Compound_ID>  (72) 
CHEMBL284632

>  <Active>  (72) 
1.0

>  <Smiles>  (72) 
O=C1NC(=O)c2c1c1c3ccccc3n3c1c1c2c2ccccc2n1COC3

>  <canonical_smi>  (72) 
O=C1NC(=O)c2c1c1c3ccccc3n3c1c1c2c2ccccc2n1COC3

>  <Set>  (72) 
G2 active

>  <Set_type>  (72) 
Train

>  <MW>  (72) 
367.36

>  <HBD>  (72) 
1

>  <HBA>  (72) 
3

>  <NRB>  (72) 
0

>  <NR>  (72) 
7

>  <NAR>  (72) 
5

>  <PSA>  (72) 
65.26

>  <Standard Type>  (72) 
nan

>  <Standard Relation>  (72) 
nan

>  <Standard Units>  (72) 
nan

>  <Standard Value>  (72) 
nan

>  <Assay ChEMBL ID>  (72) 
nan

>  <Assay Description>  (72) 
nan

>  <BAO Label>  (72) 
nan

$$$$

     RDKit          2D

 37 42  0  0  0  0  0  0  0  0999 V2000
   -6.1170   -7.0506    0.0000 C   0  0  0  0  0  0  0  0  0  0  0  0
   -4.6904   -6.5871    0.0000 N   0  0  0  0  0  0  0  0  0  0  0  0
   -3.5757   -7.5908    0.0000 C   0  0  0  0  0  0  0  0  0  0  0  0
   -4.3786   -5.1199    0.0000 C   0  0  0  0  0  0  0  0  0  0  0  0
   -2.9520   -4.6564    0.0000 C   0  0  0  0  0  0  0  0  0  0  0  0
   -2.6401   -3.1891    0.0000 C   0  0  0  0  0  0  0  0  0  0  0  0
   -1.2135   -2.7256    0.0000 N   0  0  0  0  0  0  0  0  0  0  0  0
   -0.0000   -3.6073    0.0000 N   0  0  0  0  0  0  0  0  0  0  0  0
    1.2135   -2.7256    0.0000 C   0  0  0  0  0  0  0  0  0  0  0  0
    2.6401   -3.1891    0.0000 C   0  0  0  0  0  0  0  0  0  0  0  0
    3.8536   -2.3075    0.0000 C   0  0  0  0  0  0  0  0  0  0  0  0
    3.8536   -0.8075    0.0000 C   0  0  0  0  0  0  0  0  0  0  0  0
    2.6401    0.0742    0.0000 C   0  0  0  0  0  0  0  0  0  0  0  0
    3.1036    1.5008    0.0000 N   0  0  0  0  0  0  0  0  0  0  0  0
    2.2220    2.7143    0.0000 C   0  0  0  0  0  0  0  0  0  0  0  0
    2.8321    4.0846    0.0000 C   0  0  0  0  0  0  0  0  0  0  0  0
    1.9504    5.2982    0.0000 C   0  0  0  0  0  0  0  0  0  0  0  0
    0.4586    5.1414    0.0000 C   0  0  0  0  0  0  0  0  0  0  0  0
   -0.1515    3.7711    0.0000 C   0  0  0  0  0  0  0  0  0  0  0  0
    0.7302    2.5575    0.0000 C   0  0  0  0  0  0  0  0  0  0  0  0
    4.6036    1.5008    0.0000 C   0  0  0  0  0  0  0  0  0  0  0  0
    5.6073    2.6155    0.0000 C   0  0  0  0  0  0  0  0  0  0  0  0
    7.0746    2.3036    0.0000 C   0  0  0  0  0  0  0  0  0  0  0  0
    7.5381    0.8771    0.0000 C   0  0  0  0  0  0  0  0  0  0  0  0
    6.5344   -0.2377    0.0000 C   0  0  0  0  0  0  0  0  0  0  0  0
    5.0672    0.0742    0.0000 C   0  0  0  0  0  0  0  0  0  0  0  0
    5.0672   -3.1891    0.0000 C   0  0  0  0  0  0  0  0  0  0  0  0
    6.4937   -2.7256    0.0000 O   0  0  0  0  0  0  0  0  0  0  0  0
    4.6036   -4.6157    0.0000 N   0  0  0  0  0  0  0  0  0  0  0  0
    3.1036   -4.6157    0.0000 C   0  0  0  0  0  0  0  0  0  0  0  0
    2.2220   -5.8293    0.0000 O   0  0  0  0  0  0  0  0  0  0  0  0
    0.7500   -1.2990    0.0000 C   0  0  0  0  0  0  0  0  0  0  0  0
    1.5000    0.0000    0.0000 C   0  0  0  0  0  0  0  0  0  0  0  0
    0.7500    1.2990    0.0000 C   0  0  0  0  0  0  0  0  0  0  0  0
   -0.7500    1.2990    0.0000 C   0  0  0  0  0  0  0  0  0  0  0  0
   -1.5000    0.0000    0.0000 C   0  0  0  0  0  0  0  0  0  0  0  0
   -0.7500   -1.2990    0.0000 C   0  0  0  0  0  0  0  0  0  0  0  0
  1  2  1  0
  2  3  1  0
  2  4  1  0
  4  5  1  0
  5  6  1  0
  6  7  1  0
  7  8  1  0
  8  9  2  0
  9 10  1  0
 10 11  2  0
 11 12  1  0
 12 13  2  0
 13 14  1  0
 14 15  1  0
 15 16  2  0
 16 17  1  0
 17 18  2  0
 18 19  1  0
 19 20  2  0
 14 21  1  0
 21 22  2  0
 22 23  1  0
 23 24  2  0
 24 25  1  0
 25 26  2  0
 11 27  1  0
 27 28  2  0
 27 29  1  0
 29 30  1  0
 30 31  2  0
  9 32  1  0
 32 33  2  0
 33 34  1  0
 34 35  2  0
 35 36  1  0
 36 37  2  0
 37  7  1  0
 30 10  1  0
 37 32  1  0
 26 12  1  0
 20 15  1  0
 26 21  1  0
M  END
>  <Compound_ID>  (73) 
CHEMBL366668

>  <Active>  (73) 
1.0

>  <Smiles>  (73) 
CN(C)CCCn1nc(C2=C(c3cn(-c4ccccc4)c4ccccc34)C(=O)NC2=O)c2ccccc21

>  <canonical_smi>  (73) 
CN(C)CCCn1nc(C2=C(c3cn(-c4ccccc4)c4ccccc34)C(=O)NC2=O)c2ccccc21

>  <Set>  (73) 
G2 active

>  <Set_type>  (73) 
Train

>  <MW>  (73) 
489.58

>  <HBD>  (73) 
1

>  <HBA>  (73) 
4

>  <NRB>  (73) 
7

>  <NR>  (73) 
6

>  <NAR>  (73) 
5

>  <PSA>  (73) 
72.16

>  <Standard Type>  (73) 
nan

>  <Standard Relation>  (73) 
nan

>  <Standard Units>  (73) 
nan

>  <Standard Value>  (73) 
nan

>  <Assay ChEMBL ID>  (73) 
nan

>  <Assay Description>  (73) 
nan

>  <BAO Label>  (73) 
nan

$$$$

     RDKit          2D

 31 36  0  0  0  0  0  0  0  0999 V2000
   -2.2220    2.7143    0.0000 C   0  0  0  0  0  0  0  0  0  0  0  0
   -3.1036    1.5008    0.0000 N   0  0  0  0  0  0  0  0  0  0  0  0
   -2.6401    0.0742    0.0000 C   0  0  0  0  0  0  0  0  0  0  0  0
   -3.8536   -0.8075    0.0000 C   0  0  0  0  0  0  0  0  0  0  0  0
   -3.8536   -2.3075    0.0000 C   0  0  0  0  0  0  0  0  0  0  0  0
   -2.6401   -3.1891    0.0000 C   0  0  0  0  0  0  0  0  0  0  0  0
   -1.2135   -2.7256    0.0000 C   0  0  0  0  0  0  0  0  0  0  0  0
   -0.0000   -3.6073    0.0000 C   0  0  0  0  0  0  0  0  0  0  0  0
    1.2135   -2.7256    0.0000 N   0  0  0  0  0  0  0  0  0  0  0  0
    0.7500   -1.2990    0.0000 C   0  0  0  0  0  0  0  0  0  0  0  0
    1.5000    0.0000    0.0000 C   0  0  0  0  0  0  0  0  0  0  0  0
    0.7500    1.2990    0.0000 C   0  0  0  0  0  0  0  0  0  0  0  0
   -0.7500    1.2990    0.0000 C   0  0  0  0  0  0  0  0  0  0  0  0
   -1.5000    0.0000    0.0000 C   0  0  0  0  0  0  0  0  0  0  0  0
   -0.7500   -1.2990    0.0000 C   0  0  0  0  0  0  0  0  0  0  0  0
    2.4271   -3.6073    0.0000 C   0  0  0  0  0  0  0  0  0  0  0  0
    1.9635   -5.0339    0.0000 C   0  0  0  0  0  0  0  0  0  0  0  0
    2.8452   -6.2474    0.0000 C   0  0  0  0  0  0  0  0  0  0  0  0
    2.2351   -7.6177    0.0000 N   0  0  0  0  0  0  0  0  0  0  0  0
    0.4635   -5.0339    0.0000 C   0  0  0  0  0  0  0  0  0  0  0  0
   -3.1036   -4.6157    0.0000 C   0  0  0  0  0  0  0  0  0  0  0  0
   -2.2220   -5.8293    0.0000 O   0  0  0  0  0  0  0  0  0  0  0  0
   -4.6036   -4.6157    0.0000 N   0  0  0  0  0  0  0  0  0  0  0  0
   -5.0672   -3.1891    0.0000 C   0  0  0  0  0  0  0  0  0  0  0  0
   -6.4937   -2.7256    0.0000 O   0  0  0  0  0  0  0  0  0  0  0  0
   -5.0672    0.0742    0.0000 C   0  0  0  0  0  0  0  0  0  0  0  0
   -6.5344   -0.2377    0.0000 C   0  0  0  0  0  0  0  0  0  0  0  0
   -7.5381    0.8771    0.0000 C   0  0  0  0  0  0  0  0  0  0  0  0
   -7.0746    2.3036    0.0000 C   0  0  0  0  0  0  0  0  0  0  0  0
   -5.6073    2.6155    0.0000 C   0  0  0  0  0  0  0  0  0  0  0  0
   -4.6036    1.5008    0.0000 C   0  0  0  0  0  0  0  0  0  0  0  0
  1  2  1  0
  2  3  1  0
  3  4  2  0
  4  5  1  0
  5  6  2  0
  6  7  1  0
  7  8  2  0
  8  9  1  0
  9 10  1  0
 10 11  2  0
 11 12  1  0
 12 13  2  0
 13 14  1  0
 14 15  2  0
  9 16  1  0
 16 17  1  0
 17 18  1  0
 18 19  1  0
 17 20  1  0
  6 21  1  0
 21 22  2  0
 21 23  1  0
 23 24  1  0
 24 25  2  0
  4 26  1  0
 26 27  2  0
 27 28  1  0
 28 29  2  0
 29 30  1  0
 30 31  2  0
 31  2  1  0
 24  5  1  0
 31 26  1  0
 15  7  1  0
 20  8  1  0
 15 10  1  0
M  END
>  <Compound_ID>  (74) 
CHEMBL316918

>  <Active>  (74) 
1.0

>  <Smiles>  (74) 
Cn1cc(C2=C(c3c4n(c5ccccc35)CC(CN)C4)C(=O)NC2=O)c2ccccc21

>  <canonical_smi>  (74) 
Cn1cc(C2=C(c3c4n(c5ccccc35)CC(CN)C4)C(=O)NC2=O)c2ccccc21

>  <Set>  (74) 
G2 active

>  <Set_type>  (74) 
Train

>  <MW>  (74) 
410.48

>  <HBD>  (74) 
2

>  <HBA>  (74) 
3

>  <NRB>  (74) 
3

>  <NR>  (74) 
6

>  <NAR>  (74) 
4

>  <PSA>  (74) 
82.05

>  <Standard Type>  (74) 
nan

>  <Standard Relation>  (74) 
nan

>  <Standard Units>  (74) 
nan

>  <Standard Value>  (74) 
nan

>  <Assay ChEMBL ID>  (74) 
nan

>  <Assay Description>  (74) 
nan

>  <BAO Label>  (74) 
nan

$$$$

     RDKit          2D

 41 47  0  0  0  0  0  0  0  0999 V2000
    3.0000    4.7634    0.0000 C   0  0  0  0  0  0  0  0  0  0  0  0
    1.5000    4.7634    0.0000 N   0  0  0  0  0  0  0  0  0  0  0  0
    0.7500    6.0624    0.0000 C   0  0  0  0  0  0  0  0  0  0  0  0
    0.7500    3.4643    0.0000 C   0  0  0  0  0  0  0  0  0  0  0  0
   -0.7500    3.4643    0.0000 C   0  0  0  0  0  0  0  0  0  0  0  0
   -1.5000    2.1653    0.0000 C   0  0  0  0  0  0  0  0  0  0  0  0
   -3.0000    2.1653    0.0000 N   0  0  0  0  0  0  0  0  0  0  0  0
   -3.8817    0.9518    0.0000 N   0  0  0  0  0  0  0  0  0  0  0  0
   -5.3083    1.4153    0.0000 C   0  0  0  0  0  0  0  0  0  0  0  0
   -6.5218    0.5336    0.0000 C   0  0  0  0  0  0  0  0  0  0  0  0
   -6.5218   -0.9664    0.0000 C   0  0  0  0  0  0  0  0  0  0  0  0
   -5.3083   -1.8481    0.0000 C   0  0  0  0  0  0  0  0  0  0  0  0
   -3.8817   -1.3846    0.0000 C   0  0  0  0  0  0  0  0  0  0  0  0
   -3.0000   -2.5981    0.0000 N   0  0  0  0  0  0  0  0  0  0  0  0
   -1.5000   -2.5981    0.0000 C   0  0  0  0  0  0  0  0  0  0  0  0
   -0.7500   -3.8971    0.0000 C   0  0  0  0  0  0  0  0  0  0  0  0
    0.7500   -3.8971    0.0000 N   0  0  0  0  0  0  0  0  0  0  0  0
    1.5000   -2.5981    0.0000 C   0  0  0  0  0  0  0  0  0  0  0  0
    0.7500   -1.2990    0.0000 C   0  0  0  0  0  0  0  0  0  0  0  0
    1.5000    0.0000    0.0000 C   0  0  0  0  0  0  0  0  0  0  0  0
    0.7500    1.2990    0.0000 C   0  0  0  0  0  0  0  0  0  0  0  0
   -0.7500    1.2990    0.0000 C   0  0  0  0  0  0  0  0  0  0  0  0
   -1.5000    0.0000    0.0000 C   0  0  0  0  0  0  0  0  0  0  0  0
   -0.7500   -1.2990    0.0000 C   0  0  0  0  0  0  0  0  0  0  0  0
   -3.8817   -3.8116    0.0000 C   0  0  0  0  0  0  0  0  0  0  0  0
   -3.5698   -5.2788    0.0000 C   0  0  0  0  0  0  0  0  0  0  0  0
   -4.6845   -6.2825    0.0000 C   0  0  0  0  0  0  0  0  0  0  0  0
   -6.1111   -5.8190    0.0000 C   0  0  0  0  0  0  0  0  0  0  0  0
   -6.4230   -4.3518    0.0000 C   0  0  0  0  0  0  0  0  0  0  0  0
   -5.3083   -3.3481    0.0000 C   0  0  0  0  0  0  0  0  0  0  0  0
   -7.9484   -1.4299    0.0000 C   0  0  0  0  0  0  0  0  0  0  0  0
   -8.4119   -2.8565    0.0000 O   0  0  0  0  0  0  0  0  0  0  0  0
   -8.8301   -0.2164    0.0000 N   0  0  0  0  0  0  0  0  0  0  0  0
   -7.9484    0.9971    0.0000 C   0  0  0  0  0  0  0  0  0  0  0  0
   -8.4119    2.4237    0.0000 O   0  0  0  0  0  0  0  0  0  0  0  0
   -5.3083    2.9153    0.0000 C   0  0  0  0  0  0  0  0  0  0  0  0
   -6.4230    3.9190    0.0000 C   0  0  0  0  0  0  0  0  0  0  0  0
   -6.1111    5.3862    0.0000 C   0  0  0  0  0  0  0  0  0  0  0  0
   -4.6845    5.8497    0.0000 C   0  0  0  0  0  0  0  0  0  0  0  0
   -3.5698    4.8460    0.0000 C   0  0  0  0  0  0  0  0  0  0  0  0
   -3.8817    3.3788    0.0000 C   0  0  0  0  0  0  0  0  0  0  0  0
  1  2  1  0
  2  3  1  0
  2  4  1  0
  4  5  1  0
  5  6  1  0
  6  7  1  0
  7  8  1  0
  8  9  2  0
  9 10  1  0
 10 11  2  0
 11 12  1  0
 12 13  2  0
 13 14  1  0
 14 15  1  0
 15 16  2  0
 16 17  1  0
 17 18  2  0
 18 19  1  0
 19 20  2  0
 20 21  1  0
 21 22  2  0
 22 23  1  0
 23 24  2  0
 14 25  1  0
 25 26  2  0
 26 27  1  0
 27 28  2  0
 28 29  1  0
 29 30  2  0
 11 31  1  0
 31 32  2  0
 31 33  1  0
 33 34  1  0
 34 35  2  0
  9 36  1  0
 36 37  2  0
 37 38  1  0
 38 39  2  0
 39 40  1  0
 40 41  2  0
 41  7  1  0
 34 10  1  0
 41 36  1  0
 30 12  1  0
 24 15  1  0
 30 25  1  0
 24 19  1  0
M  END
>  <Compound_ID>  (75) 
CHEMBL359808

>  <Active>  (75) 
1.0

>  <Smiles>  (75) 
CN(C)CCCn1nc(C2=C(c3cn(-c4cncc5ccccc45)c4ccccc34)C(=O)NC2=O)c2ccccc21

>  <canonical_smi>  (75) 
CN(C)CCCn1nc(C2=C(c3cn(-c4cncc5ccccc45)c4ccccc34)C(=O)NC2=O)c2ccccc21

>  <Set>  (75) 
G2 active

>  <Set_type>  (75) 
Train

>  <MW>  (75) 
540.63

>  <HBD>  (75) 
1

>  <HBA>  (75) 
5

>  <NRB>  (75) 
7

>  <NR>  (75) 
7

>  <NAR>  (75) 
6

>  <PSA>  (75) 
85.05

>  <Standard Type>  (75) 
nan

>  <Standard Relation>  (75) 
nan

>  <Standard Units>  (75) 
nan

>  <Standard Value>  (75) 
nan

>  <Assay ChEMBL ID>  (75) 
nan

>  <Assay Description>  (75) 
nan

>  <BAO Label>  (75) 
nan

$$$$

     RDKit          2D

 30 36  0  0  0  0  0  0  0  0999 V2000
    4.2660   -1.2584    0.0000 O   0  0  0  0  0  0  0  0  0  0  0  0
    3.9542   -2.7256    0.0000 C   0  0  0  0  0  0  0  0  0  0  0  0
    4.9579   -3.8403    0.0000 N   0  0  0  0  0  0  0  0  0  0  0  0
    4.2079   -5.1394    0.0000 C   0  0  0  0  0  0  0  0  0  0  0  0
    2.7406   -4.8275    0.0000 C   0  0  0  0  0  0  0  0  0  0  0  0
    2.5838   -3.3357    0.0000 C   0  0  0  0  0  0  0  0  0  0  0  0
    1.2135   -2.7256    0.0000 C   0  0  0  0  0  0  0  0  0  0  0  0
    0.7500   -1.2990    0.0000 C   0  0  0  0  0  0  0  0  0  0  0  0
    1.5000    0.0000    0.0000 C   0  0  0  0  0  0  0  0  0  0  0  0
    0.7500    1.2990    0.0000 C   0  0  0  0  0  0  0  0  0  0  0  0
   -0.7500    1.2990    0.0000 C   0  0  0  0  0  0  0  0  0  0  0  0
   -1.5000    0.0000    0.0000 C   0  0  0  0  0  0  0  0  0  0  0  0
   -0.7500   -1.2990    0.0000 C   0  0  0  0  0  0  0  0  0  0  0  0
   -1.2135   -2.7256    0.0000 N   0  0  0  0  0  0  0  0  0  0  0  0
    0.0000   -3.6073    0.0000 C   0  0  0  0  0  0  0  0  0  0  0  0
    0.1568   -5.0991    0.0000 C   0  0  0  0  0  0  0  0  0  0  0  0
    1.5271   -5.7092    0.0000 C   0  0  0  0  0  0  0  0  0  0  0  0
    1.3703   -7.2010    0.0000 C   0  0  0  0  0  0  0  0  0  0  0  0
    2.3740   -8.3157    0.0000 C   0  0  0  0  0  0  0  0  0  0  0  0
    1.9105   -9.7423    0.0000 C   0  0  0  0  0  0  0  0  0  0  0  0
    0.4433  -10.0541    0.0000 C   0  0  0  0  0  0  0  0  0  0  0  0
   -0.5604   -8.9394    0.0000 C   0  0  0  0  0  0  0  0  0  0  0  0
   -0.0969   -7.5128    0.0000 C   0  0  0  0  0  0  0  0  0  0  0  0
   -0.8469   -6.2138    0.0000 N   0  0  0  0  0  0  0  0  0  0  0  0
   -2.3362   -6.0347    0.0000 C   0  0  0  0  0  0  0  0  0  0  0  0
   -3.1247   -4.7587    0.0000 N   0  0  0  0  0  0  0  0  0  0  0  0
   -4.6165   -4.9155    0.0000 C   0  0  0  0  0  0  0  0  0  0  0  0
   -5.4982   -3.7020    0.0000 C   0  0  0  0  0  0  0  0  0  0  0  0
   -6.9899   -3.8587    0.0000 O   0  0  0  0  0  0  0  0  0  0  0  0
   -2.6187   -3.3466    0.0000 C   0  0  0  0  0  0  0  0  0  0  0  0
  1  2  2  0
  2  3  1  0
  3  4  1  0
  4  5  1  0
  5  6  2  0
  6  7  1  0
  7  8  1  0
  8  9  2  0
  9 10  1  0
 10 11  2  0
 11 12  1  0
 12 13  2  0
 13 14  1  0
 14 15  1  0
 15 16  1  0
 16 17  2  0
 17 18  1  0
 18 19  2  0
 19 20  1  0
 20 21  2  0
 21 22  1  0
 22 23  2  0
 23 24  1  0
 24 25  1  0
 25 26  1  0
 26 27  1  0
 27 28  1  0
 28 29  1  0
 26 30  1  0
  6  2  1  0
 15  7  2  0
 24 16  1  0
 17  5  1  0
 23 18  1  0
 13  8  1  0
 30 14  1  0
M  END
>  <Compound_ID>  (76) 
CHEMBL26817

>  <Active>  (76) 
1.0

>  <Smiles>  (76) 
O=C1NCc2c1c1c3ccccc3n3c1c1c2c2ccccc2n1CN(CCO)C3

>  <canonical_smi>  (76) 
O=C1NCc2c1c1c3ccccc3n3c1c1c2c2ccccc2n1CN(CCO)C3

>  <Set>  (76) 
G2 active

>  <Set_type>  (76) 
Train

>  <MW>  (76) 
396.45

>  <HBD>  (76) 
2

>  <HBA>  (76) 
3

>  <NRB>  (76) 
2

>  <NR>  (76) 
7

>  <NAR>  (76) 
5

>  <PSA>  (76) 
62.43

>  <Standard Type>  (76) 
nan

>  <Standard Relation>  (76) 
nan

>  <Standard Units>  (76) 
nan

>  <Standard Value>  (76) 
nan

>  <Assay ChEMBL ID>  (76) 
nan

>  <Assay Description>  (76) 
nan

>  <BAO Label>  (76) 
nan

$$$$

     RDKit          2D

 33 38  0  0  0  0  0  0  0  0999 V2000
   -2.2220    2.7143    0.0000 C   0  0  0  0  0  0  0  0  0  0  0  0
   -3.1036    1.5008    0.0000 N   0  0  0  0  0  0  0  0  0  0  0  0
   -2.6401    0.0742    0.0000 C   0  0  0  0  0  0  0  0  0  0  0  0
   -3.8536   -0.8075    0.0000 C   0  0  0  0  0  0  0  0  0  0  0  0
   -3.8536   -2.3075    0.0000 C   0  0  0  0  0  0  0  0  0  0  0  0
   -2.6401   -3.1891    0.0000 C   0  0  0  0  0  0  0  0  0  0  0  0
   -1.2135   -2.7256    0.0000 C   0  0  0  0  0  0  0  0  0  0  0  0
   -0.0000   -3.6073    0.0000 C   0  0  0  0  0  0  0  0  0  0  0  0
    1.2135   -2.7256    0.0000 N   0  0  0  0  0  0  0  0  0  0  0  0
    0.7500   -1.2990    0.0000 C   0  0  0  0  0  0  0  0  0  0  0  0
    1.5000    0.0000    0.0000 C   0  0  0  0  0  0  0  0  0  0  0  0
    0.7500    1.2990    0.0000 C   0  0  0  0  0  0  0  0  0  0  0  0
   -0.7500    1.2990    0.0000 C   0  0  0  0  0  0  0  0  0  0  0  0
   -1.5000    0.0000    0.0000 C   0  0  0  0  0  0  0  0  0  0  0  0
   -0.7500   -1.2990    0.0000 C   0  0  0  0  0  0  0  0  0  0  0  0
    2.6595   -3.1247    0.0000 C   0  0  0  0  0  0  0  0  0  0  0  0
    3.2490   -4.5040    0.0000 C   0  0  0  0  0  0  0  0  0  0  0  0
    2.5382   -5.8249    0.0000 C   0  0  0  0  0  0  0  0  0  0  0  0
    3.4199   -7.0384    0.0000 C   0  0  0  0  0  0  0  0  0  0  0  0
    2.8098   -8.4087    0.0000 N   0  0  0  0  0  0  0  0  0  0  0  0
    1.0623   -6.0927    0.0000 C   0  0  0  0  0  0  0  0  0  0  0  0
   -0.0673   -5.1058    0.0000 C   0  0  0  0  0  0  0  0  0  0  0  0
   -3.1036   -4.6157    0.0000 C   0  0  0  0  0  0  0  0  0  0  0  0
   -2.2220   -5.8293    0.0000 O   0  0  0  0  0  0  0  0  0  0  0  0
   -4.6036   -4.6157    0.0000 N   0  0  0  0  0  0  0  0  0  0  0  0
   -5.0672   -3.1891    0.0000 C   0  0  0  0  0  0  0  0  0  0  0  0
   -6.4937   -2.7256    0.0000 O   0  0  0  0  0  0  0  0  0  0  0  0
   -5.0672    0.0742    0.0000 C   0  0  0  0  0  0  0  0  0  0  0  0
   -6.5344   -0.2377    0.0000 C   0  0  0  0  0  0  0  0  0  0  0  0
   -7.5381    0.8771    0.0000 C   0  0  0  0  0  0  0  0  0  0  0  0
   -7.0746    2.3036    0.0000 C   0  0  0  0  0  0  0  0  0  0  0  0
   -5.6073    2.6155    0.0000 C   0  0  0  0  0  0  0  0  0  0  0  0
   -4.6036    1.5008    0.0000 C   0  0  0  0  0  0  0  0  0  0  0  0
  1  2  1  0
  2  3  1  0
  3  4  2  0
  4  5  1  0
  5  6  2  0
  6  7  1  0
  7  8  2  0
  8  9  1  0
  9 10  1  0
 10 11  2  0
 11 12  1  0
 12 13  2  0
 13 14  1  0
 14 15  2  0
  9 16  1  0
 16 17  1  0
 17 18  1  0
 18 19  1  0
 19 20  1  0
 18 21  1  0
 21 22  1  0
  6 23  1  0
 23 24  2  0
 23 25  1  0
 25 26  1  0
 26 27  2  0
  4 28  1  0
 28 29  2  0
 29 30  1  0
 30 31  2  0
 31 32  1  0
 32 33  2  0
 33  2  1  0
 26  5  1  0
 33 28  1  0
 15  7  1  0
 22  8  1  0
 15 10  1  0
M  END
>  <Compound_ID>  (77) 
CHEMBL327723

>  <Active>  (77) 
1.0

>  <Smiles>  (77) 
Cn1cc(C2=C(c3c4n(c5ccccc35)CCC(CN)CC4)C(=O)NC2=O)c2ccccc21

>  <canonical_smi>  (77) 
Cn1cc(C2=C(c3c4n(c5ccccc35)CCC(CN)CC4)C(=O)NC2=O)c2ccccc21

>  <Set>  (77) 
G2 active

>  <Set_type>  (77) 
Train

>  <MW>  (77) 
438.53

>  <HBD>  (77) 
2

>  <HBA>  (77) 
3

>  <NRB>  (77) 
3

>  <NR>  (77) 
6

>  <NAR>  (77) 
4

>  <PSA>  (77) 
82.05

>  <Standard Type>  (77) 
nan

>  <Standard Relation>  (77) 
nan

>  <Standard Units>  (77) 
nan

>  <Standard Value>  (77) 
nan

>  <Assay ChEMBL ID>  (77) 
nan

>  <Assay Description>  (77) 
nan

>  <BAO Label>  (77) 
nan

$$$$

     RDKit          2D

 38 43  0  0  0  0  0  0  0  0999 V2000
    0.1050  -13.9630    0.0000 C   0  0  0  0  0  0  0  0  0  0  0  0
    1.2629  -13.0094    0.0000 C   0  0  0  0  0  0  0  0  0  0  0  0
    1.0160  -11.5299    0.0000 N   0  0  0  0  0  0  0  0  0  0  0  0
   -0.4840  -11.5299    0.0000 C   0  0  0  0  0  0  0  0  0  0  0  0
   -1.9027  -11.0428    0.0000 C   0  0  0  0  0  0  0  0  0  0  0  0
   -3.0864  -10.1215    0.0000 O   0  0  0  0  0  0  0  0  0  0  0  0
   -3.9068   -8.8658    0.0000 C   0  0  0  0  0  0  0  0  0  0  0  0
   -4.2751   -7.4117    0.0000 C   0  0  0  0  0  0  0  0  0  0  0  0
   -4.1512   -5.9168    0.0000 O   0  0  0  0  0  0  0  0  0  0  0  0
   -3.5487   -4.5431    0.0000 C   0  0  0  0  0  0  0  0  0  0  0  0
   -2.5327   -3.4395    0.0000 C   0  0  0  0  0  0  0  0  0  0  0  0
   -1.2135   -2.7256    0.0000 N   0  0  0  0  0  0  0  0  0  0  0  0
   -0.0000   -3.6073    0.0000 C   0  0  0  0  0  0  0  0  0  0  0  0
    1.2135   -2.7256    0.0000 C   0  0  0  0  0  0  0  0  0  0  0  0
    0.7500   -1.2990    0.0000 C   0  0  0  0  0  0  0  0  0  0  0  0
    1.5000    0.0000    0.0000 C   0  0  0  0  0  0  0  0  0  0  0  0
    0.7500    1.2990    0.0000 C   0  0  0  0  0  0  0  0  0  0  0  0
   -0.7500    1.2990    0.0000 C   0  0  0  0  0  0  0  0  0  0  0  0
   -1.5000    0.0000    0.0000 C   0  0  0  0  0  0  0  0  0  0  0  0
   -0.7500   -1.2990    0.0000 C   0  0  0  0  0  0  0  0  0  0  0  0
    3.0648   -3.4395    0.0000 C   0  0  0  0  0  0  0  0  0  0  0  0
    4.0807   -4.5431    0.0000 C   0  0  0  0  0  0  0  0  0  0  0  0
    5.4442   -3.9180    0.0000 C   0  0  0  0  0  0  0  0  0  0  0  0
    6.7514   -4.6536    0.0000 O   0  0  0  0  0  0  0  0  0  0  0  0
    5.2710   -2.4280    0.0000 N   0  0  0  0  0  0  0  0  0  0  0  0
    3.8004   -2.1323    0.0000 C   0  0  0  0  0  0  0  0  0  0  0  0
    3.1752   -0.7688    0.0000 O   0  0  0  0  0  0  0  0  0  0  0  0
    4.6832   -5.9168    0.0000 C   0  0  0  0  0  0  0  0  0  0  0  0
    4.8071   -7.4117    0.0000 C   0  0  0  0  0  0  0  0  0  0  0  0
    4.4389   -8.8658    0.0000 N   0  0  0  0  0  0  0  0  0  0  0  0
    5.8989   -8.5216    0.0000 C   0  0  0  0  0  0  0  0  0  0  0  0
    7.1315   -9.3763    0.0000 C   0  0  0  0  0  0  0  0  0  0  0  0
    8.4881   -8.7362    0.0000 C   0  0  0  0  0  0  0  0  0  0  0  0
    8.6119   -7.2413    0.0000 C   0  0  0  0  0  0  0  0  0  0  0  0
    7.3793   -6.3866    0.0000 C   0  0  0  0  0  0  0  0  0  0  0  0
    6.0227   -7.0268    0.0000 C   0  0  0  0  0  0  0  0  0  0  0  0
    3.6185  -10.1215    0.0000 C   0  0  0  0  0  0  0  0  0  0  0  0
    2.4347  -11.0428    0.0000 C   0  0  0  0  0  0  0  0  0  0  0  0
  1  2  1  0
  2  3  1  0
  3  4  1  0
  4  5  1  0
  5  6  1  0
  6  7  1  0
  7  8  1  0
  8  9  1  0
  9 10  1  0
 10 11  1  0
 11 12  1  0
 12 13  1  0
 13 14  2  0
 14 15  1  0
 15 16  2  0
 16 17  1  0
 17 18  2  0
 18 19  1  0
 19 20  2  0
 14 21  1  0
 21 22  2  0
 22 23  1  0
 23 24  2  0
 23 25  1  0
 25 26  1  0
 26 27  2  0
 22 28  1  0
 28 29  2  0
 29 30  1  0
 30 31  1  0
 31 32  2  0
 32 33  1  0
 33 34  2  0
 34 35  1  0
 35 36  2  0
 30 37  1  0
 37 38  1  0
 38  3  1  0
 20 12  1  0
 26 21  1  0
 36 28  1  0
 20 15  1  0
 36 31  1  0
M  END
>  <Compound_ID>  (78) 
CHEMBL103506

>  <Active>  (78) 
1.0

>  <Smiles>  (78) 
CCN1CCOCCOCCn2cc(c3ccccc32)C2=C(C(=O)NC2=O)c2cn(c3ccccc23)CC1

>  <canonical_smi>  (78) 
CCN1CCOCCOCCn2cc(c3ccccc32)C2=C(C(=O)NC2=O)c2cn(c3ccccc23)CC1

>  <Set>  (78) 
G2 active

>  <Set_type>  (78) 
Train

>  <MW>  (78) 
512.61

>  <HBD>  (78) 
1

>  <HBA>  (78) 
5

>  <NRB>  (78) 
1

>  <NR>  (78) 
6

>  <NAR>  (78) 
4

>  <PSA>  (78) 
77.73

>  <Standard Type>  (78) 
nan

>  <Standard Relation>  (78) 
nan

>  <Standard Units>  (78) 
nan

>  <Standard Value>  (78) 
nan

>  <Assay ChEMBL ID>  (78) 
nan

>  <Assay Description>  (78) 
nan

>  <BAO Label>  (78) 
nan

$$$$

     RDKit          2D

 29 35  0  0  0  0  0  0  0  0999 V2000
    4.2660   -1.2584    0.0000 O   0  0  0  0  0  0  0  0  0  0  0  0
    3.9542   -2.7256    0.0000 C   0  0  0  0  0  0  0  0  0  0  0  0
    4.9579   -3.8403    0.0000 N   0  0  0  0  0  0  0  0  0  0  0  0
    4.2079   -5.1394    0.0000 C   0  0  0  0  0  0  0  0  0  0  0  0
    4.8180   -6.5097    0.0000 O   0  0  0  0  0  0  0  0  0  0  0  0
    2.7406   -4.8275    0.0000 C   0  0  0  0  0  0  0  0  0  0  0  0
    2.5838   -3.3357    0.0000 C   0  0  0  0  0  0  0  0  0  0  0  0
    1.2135   -2.7256    0.0000 C   0  0  0  0  0  0  0  0  0  0  0  0
    0.7500   -1.2990    0.0000 C   0  0  0  0  0  0  0  0  0  0  0  0
    1.5000    0.0000    0.0000 C   0  0  0  0  0  0  0  0  0  0  0  0
    0.7500    1.2990    0.0000 C   0  0  0  0  0  0  0  0  0  0  0  0
   -0.7500    1.2990    0.0000 C   0  0  0  0  0  0  0  0  0  0  0  0
   -1.5000    0.0000    0.0000 C   0  0  0  0  0  0  0  0  0  0  0  0
   -0.7500   -1.2990    0.0000 C   0  0  0  0  0  0  0  0  0  0  0  0
   -1.2135   -2.7256    0.0000 N   0  0  0  0  0  0  0  0  0  0  0  0
    0.0000   -3.6073    0.0000 C   0  0  0  0  0  0  0  0  0  0  0  0
    0.1568   -5.0991    0.0000 C   0  0  0  0  0  0  0  0  0  0  0  0
    1.5271   -5.7092    0.0000 C   0  0  0  0  0  0  0  0  0  0  0  0
    1.3703   -7.2010    0.0000 C   0  0  0  0  0  0  0  0  0  0  0  0
    2.3740   -8.3157    0.0000 C   0  0  0  0  0  0  0  0  0  0  0  0
    1.9105   -9.7423    0.0000 C   0  0  0  0  0  0  0  0  0  0  0  0
    0.4433  -10.0541    0.0000 C   0  0  0  0  0  0  0  0  0  0  0  0
   -0.5604   -8.9394    0.0000 C   0  0  0  0  0  0  0  0  0  0  0  0
   -0.0969   -7.5128    0.0000 C   0  0  0  0  0  0  0  0  0  0  0  0
   -0.8469   -6.2138    0.0000 N   0  0  0  0  0  0  0  0  0  0  0  0
   -2.3362   -6.0347    0.0000 C   0  0  0  0  0  0  0  0  0  0  0  0
   -3.1247   -4.7587    0.0000 S   0  0  0  0  0  0  0  0  0  0  0  0
   -4.6165   -4.9155    0.0000 O   0  0  0  0  0  0  0  0  0  0  0  0
   -2.6187   -3.3466    0.0000 C   0  0  0  0  0  0  0  0  0  0  0  0
  1  2  2  0
  2  3  1  0
  3  4  1  0
  4  5  2  0
  4  6  1  0
  6  7  2  0
  7  8  1  0
  8  9  1  0
  9 10  2  0
 10 11  1  0
 11 12  2  0
 12 13  1  0
 13 14  2  0
 14 15  1  0
 15 16  1  0
 16 17  1  0
 17 18  2  0
 18 19  1  0
 19 20  2  0
 20 21  1  0
 21 22  2  0
 22 23  1  0
 23 24  2  0
 24 25  1  0
 25 26  1  0
 26 27  1  0
 27 28  2  0
 27 29  1  0
  7  2  1  0
 16  8  2  0
 25 17  1  0
 18  6  1  0
 24 19  1  0
 14  9  1  0
 29 15  1  0
M  END
>  <Compound_ID>  (79) 
CHEMBL27387

>  <Active>  (79) 
1.0

>  <Smiles>  (79) 
O=C1NC(=O)c2c1c1c3ccccc3n3c1c1c2c2ccccc2n1CS(=O)C3

>  <canonical_smi>  (79) 
O=C1NC(=O)c2c1c1c3ccccc3n3c1c1c2c2ccccc2n1CS(=O)C3

>  <Set>  (79) 
G2 active

>  <Set_type>  (79) 
Train

>  <MW>  (79) 
399.43

>  <HBD>  (79) 
1

>  <HBA>  (79) 
3

>  <NRB>  (79) 
0

>  <NR>  (79) 
7

>  <NAR>  (79) 
5

>  <PSA>  (79) 
73.1

>  <Standard Type>  (79) 
nan

>  <Standard Relation>  (79) 
nan

>  <Standard Units>  (79) 
nan

>  <Standard Value>  (79) 
nan

>  <Assay ChEMBL ID>  (79) 
nan

>  <Assay Description>  (79) 
nan

>  <BAO Label>  (79) 
nan

$$$$

     RDKit          2D

 32 36  0  0  0  0  0  0  0  0999 V2000
   -8.0346   -3.5760    0.0000 N   0  0  0  0  0  0  0  0  0  0  0  0
   -7.7227   -2.1088    0.0000 C   0  0  0  0  0  0  0  0  0  0  0  0
   -8.8374   -1.1051    0.0000 N   0  0  0  0  0  0  0  0  0  0  0  0
   -6.2961   -1.6453    0.0000 S   0  0  0  0  0  0  0  0  0  0  0  0
   -5.1814   -2.6490    0.0000 C   0  0  0  0  0  0  0  0  0  0  0  0
   -3.7548   -2.1855    0.0000 C   0  0  0  0  0  0  0  0  0  0  0  0
   -2.6401   -3.1891    0.0000 C   0  0  0  0  0  0  0  0  0  0  0  0
   -1.2135   -2.7256    0.0000 N   0  0  0  0  0  0  0  0  0  0  0  0
   -0.0000   -3.6073    0.0000 C   0  0  0  0  0  0  0  0  0  0  0  0
   -0.0000   -5.1073    0.0000 C   0  0  0  0  0  0  0  0  0  0  0  0
   -1.2135   -5.9890    0.0000 C   0  0  0  0  0  0  0  0  0  0  0  0
   -0.7500   -7.4156    0.0000 C   0  0  0  0  0  0  0  0  0  0  0  0
   -1.5000   -8.7146    0.0000 C   0  0  0  0  0  0  0  0  0  0  0  0
   -0.7500  -10.0136    0.0000 C   0  0  0  0  0  0  0  0  0  0  0  0
    0.7500  -10.0136    0.0000 C   0  0  0  0  0  0  0  0  0  0  0  0
    1.5000   -8.7146    0.0000 C   0  0  0  0  0  0  0  0  0  0  0  0
    0.7500   -7.4156    0.0000 C   0  0  0  0  0  0  0  0  0  0  0  0
    1.2135   -5.9890    0.0000 O   0  0  0  0  0  0  0  0  0  0  0  0
    1.2135   -2.7256    0.0000 C   0  0  0  0  0  0  0  0  0  0  0  0
    2.6401   -3.1891    0.0000 C   0  0  0  0  0  0  0  0  0  0  0  0
    3.8536   -2.3075    0.0000 C   0  0  0  0  0  0  0  0  0  0  0  0
    5.0672   -3.1891    0.0000 C   0  0  0  0  0  0  0  0  0  0  0  0
    6.4937   -2.7256    0.0000 O   0  0  0  0  0  0  0  0  0  0  0  0
    4.6036   -4.6157    0.0000 N   0  0  0  0  0  0  0  0  0  0  0  0
    3.1036   -4.6157    0.0000 C   0  0  0  0  0  0  0  0  0  0  0  0
    2.2220   -5.8293    0.0000 O   0  0  0  0  0  0  0  0  0  0  0  0
    0.7500   -1.2990    0.0000 C   0  0  0  0  0  0  0  0  0  0  0  0
    1.5000    0.0000    0.0000 C   0  0  0  0  0  0  0  0  0  0  0  0
    0.7500    1.2990    0.0000 C   0  0  0  0  0  0  0  0  0  0  0  0
   -0.7500    1.2990    0.0000 C   0  0  0  0  0  0  0  0  0  0  0  0
   -1.5000    0.0000    0.0000 C   0  0  0  0  0  0  0  0  0  0  0  0
   -0.7500   -1.2990    0.0000 C   0  0  0  0  0  0  0  0  0  0  0  0
  1  2  2  0
  2  3  1  0
  2  4  1  0
  4  5  1  0
  5  6  1  0
  6  7  1  0
  7  8  1  0
  8  9  1  0
  9 10  1  0
 10 11  2  0
 11 12  1  0
 12 13  2  0
 13 14  1  0
 14 15  2  0
 15 16  1  0
 16 17  2  0
 17 18  1  0
  9 19  2  0
 19 20  1  0
 20 21  2  0
 21 22  1  0
 22 23  2  0
 22 24  1  0
 24 25  1  0
 25 26  2  0
 19 27  1  0
 27 28  2  0
 28 29  1  0
 29 30  2  0
 30 31  1  0
 31 32  2  0
 32  8  1  0
 18 10  1  0
 25 20  1  0
 32 27  1  0
 17 12  1  0
M  END
>  <Compound_ID>  (80) 
CHEMBL435868

>  <Active>  (80) 
1.0

>  <Smiles>  (80) 
N=C(N)SCCCn1c(-c2cc3ccccc3o2)c(C2=CC(=O)NC2=O)c2ccccc21

>  <canonical_smi>  (80) 
N=C(N)SCCCn1c(-c2cc3ccccc3o2)c(C2=CC(=O)NC2=O)c2ccccc21

>  <Set>  (80) 
G2 active

>  <Set_type>  (80) 
Train

>  <MW>  (80) 
444.52

>  <HBD>  (80) 
3

>  <HBA>  (80) 
5

>  <NRB>  (80) 
6

>  <NR>  (80) 
5

>  <NAR>  (80) 
4

>  <PSA>  (80) 
114.11

>  <Standard Type>  (80) 
nan

>  <Standard Relation>  (80) 
nan

>  <Standard Units>  (80) 
nan

>  <Standard Value>  (80) 
nan

>  <Assay ChEMBL ID>  (80) 
nan

>  <Assay Description>  (80) 
nan

>  <BAO Label>  (80) 
nan

$$$$

     RDKit          2D

 36 39  0  0  0  0  0  0  0  0999 V2000
    2.2872   -8.1206    0.0000 O   0  0  0  0  0  0  0  0  0  0  0  0
    3.2909   -7.0059    0.0000 C   0  0  0  0  0  0  0  0  0  0  0  0
    2.8273   -5.5793    0.0000 O   0  0  0  0  0  0  0  0  0  0  0  0
    1.3601   -5.2674    0.0000 C   0  0  0  0  0  0  0  0  0  0  0  0
    0.2454   -6.2711    0.0000 C   0  0  0  0  0  0  0  0  0  0  0  0
   -1.0537   -5.5211    0.0000 C   0  0  0  0  0  0  0  0  0  0  0  0
   -0.7418   -4.0539    0.0000 C   0  0  0  0  0  0  0  0  0  0  0  0
    0.7500   -3.8971    0.0000 C   0  0  0  0  0  0  0  0  0  0  0  0
    1.5000   -2.5981    0.0000 O   0  0  0  0  0  0  0  0  0  0  0  0
    0.7500   -1.2990    0.0000 C   0  0  0  0  0  0  0  0  0  0  0  0
    1.5000    0.0000    0.0000 C   0  0  0  0  0  0  0  0  0  0  0  0
    0.7500    1.2990    0.0000 C   0  0  0  0  0  0  0  0  0  0  0  0
   -0.7500    1.2990    0.0000 C   0  0  0  0  0  0  0  0  0  0  0  0
   -1.5000    2.5981    0.0000 O   0  0  0  0  0  0  0  0  0  0  0  0
   -1.5000    0.0000    0.0000 C   0  0  0  0  0  0  0  0  0  0  0  0
   -0.7500   -1.2990    0.0000 C   0  0  0  0  0  0  0  0  0  0  0  0
    4.7581   -7.3178    0.0000 C   0  0  0  0  0  0  0  0  0  0  0  0
    5.2216   -8.7443    0.0000 C   0  0  0  0  0  0  0  0  0  0  0  0
    6.6888   -9.0562    0.0000 C   0  0  0  0  0  0  0  0  0  0  0  0
    6.8766  -10.0223    0.0000 O   0  0  0  0  0  0  0  0  0  0  0  0
    7.6925   -7.9415    0.0000 C   0  0  0  0  0  0  0  0  0  0  0  0
    9.1597   -8.2534    0.0000 C   0  0  0  0  0  0  0  0  0  0  0  0
   10.1634   -7.1386    0.0000 O   0  0  0  0  0  0  0  0  0  0  0  0
    9.6233   -9.6799    0.0000 C   0  0  0  0  0  0  0  0  0  0  0  0
    8.6196  -10.7947    0.0000 C   0  0  0  0  0  0  0  0  0  0  0  0
    7.6392  -10.7089    0.0000 O   0  0  0  0  0  0  0  0  0  0  0  0
    9.0831  -12.2212    0.0000 C   0  0  0  0  0  0  0  0  0  0  0  0
   10.5503  -12.5331    0.0000 C   0  0  0  0  0  0  0  0  0  0  0  0
   11.5540  -11.4184    0.0000 C   0  0  0  0  0  0  0  0  0  0  0  0
   11.0905   -9.9918    0.0000 C   0  0  0  0  0  0  0  0  0  0  0  0
   12.0942   -8.8771    0.0000 C   0  0  0  0  0  0  0  0  0  0  0  0
   11.6307   -7.4505    0.0000 O   0  0  0  0  0  0  0  0  0  0  0  0
   13.5614   -9.1890    0.0000 O   0  0  0  0  0  0  0  0  0  0  0  0
    7.2290   -6.5149    0.0000 C   0  0  0  0  0  0  0  0  0  0  0  0
    8.2327   -5.4002    0.0000 O   0  0  0  0  0  0  0  0  0  0  0  0
    5.7618   -6.2030    0.0000 C   0  0  0  0  0  0  0  0  0  0  0  0
  1  2  2  0
  2  3  1  0
  3  4  1  0
  4  5  1  0
  5  6  1  0
  6  7  1  0
  7  8  1  0
  8  9  1  0
  9 10  1  0
 10 11  2  0
 11 12  1  0
 12 13  2  0
 13 14  1  0
 13 15  1  0
 15 16  2  0
  2 17  1  0
 17 18  2  0
 18 19  1  0
 19 20  1  0
 19 21  2  0
 21 22  1  0
 22 23  2  0
 22 24  1  0
 24 25  2  0
 25 26  1  0
 25 27  1  0
 27 28  2  0
 28 29  1  0
 29 30  2  0
 30 31  1  0
 31 32  2  0
 31 33  1  0
 21 34  1  0
 34 35  1  0
 34 36  2  0
  8  4  1  0
 16 10  1  0
 36 17  1  0
 30 24  1  0
M  END
>  <Compound_ID>  (81) 
CHEMBL48988

>  <Active>  (81) 
1.0

>  <Smiles>  (81) 
O=C(OC1CCCC1Oc1ccc(O)cc1)c1cc(O)c(C(=O)c2c(O)cccc2C(=O)O)c(O)c1

>  <canonical_smi>  (81) 
O=C(OC1CCCC1Oc1ccc(O)cc1)c1cc(O)c(C(=O)c2c(O)cccc2C(=O)O)c(O)c1

>  <Set>  (81) 
G2 active

>  <Set_type>  (81) 
Train

>  <MW>  (81) 
494.45

>  <HBD>  (81) 
5

>  <HBA>  (81) 
10

>  <NRB>  (81) 
7

>  <NR>  (81) 
4

>  <NAR>  (81) 
3

>  <PSA>  (81) 
170.82

>  <Standard Type>  (81) 
nan

>  <Standard Relation>  (81) 
nan

>  <Standard Units>  (81) 
nan

>  <Standard Value>  (81) 
nan

>  <Assay ChEMBL ID>  (81) 
nan

>  <Assay Description>  (81) 
nan

>  <BAO Label>  (81) 
nan

$$$$

     RDKit          2D

 33 37  0  0  0  0  0  0  0  0999 V2000
   -2.9520   -4.6564    0.0000 C   0  0  0  0  0  0  0  0  0  0  0  0
   -2.6401   -3.1891    0.0000 C   0  0  0  0  0  0  0  0  0  0  0  0
   -1.2135   -2.7256    0.0000 N   0  0  0  0  0  0  0  0  0  0  0  0
   -0.0000   -3.6073    0.0000 C   0  0  0  0  0  0  0  0  0  0  0  0
    1.2135   -2.7256    0.0000 C   0  0  0  0  0  0  0  0  0  0  0  0
    2.6401   -3.1891    0.0000 C   0  0  0  0  0  0  0  0  0  0  0  0
    3.8536   -2.3075    0.0000 C   0  0  0  0  0  0  0  0  0  0  0  0
    3.8536   -0.8075    0.0000 C   0  0  0  0  0  0  0  0  0  0  0  0
    2.6401    0.0742    0.0000 N   0  0  0  0  0  0  0  0  0  0  0  0
    3.1036    1.5008    0.0000 N   0  0  0  0  0  0  0  0  0  0  0  0
    2.2220    2.7143    0.0000 C   0  0  0  0  0  0  0  0  0  0  0  0
    2.8321    4.0846    0.0000 C   0  0  0  0  0  0  0  0  0  0  0  0
    1.9504    5.2982    0.0000 C   0  0  0  0  0  0  0  0  0  0  0  0
    2.5605    6.6685    0.0000 N   0  0  0  0  0  0  0  0  0  0  0  0
    1.6788    7.8820    0.0000 C   0  0  0  0  0  0  0  0  0  0  0  0
    4.0523    6.8253    0.0000 C   0  0  0  0  0  0  0  0  0  0  0  0
    4.6036    1.5008    0.0000 C   0  0  0  0  0  0  0  0  0  0  0  0
    5.6073    2.6155    0.0000 C   0  0  0  0  0  0  0  0  0  0  0  0
    7.0746    2.3036    0.0000 C   0  0  0  0  0  0  0  0  0  0  0  0
    7.5381    0.8771    0.0000 C   0  0  0  0  0  0  0  0  0  0  0  0
    6.5344   -0.2377    0.0000 C   0  0  0  0  0  0  0  0  0  0  0  0
    5.0672    0.0742    0.0000 C   0  0  0  0  0  0  0  0  0  0  0  0
    5.0672   -3.1891    0.0000 C   0  0  0  0  0  0  0  0  0  0  0  0
    6.4937   -2.7256    0.0000 O   0  0  0  0  0  0  0  0  0  0  0  0
    4.6036   -4.6157    0.0000 N   0  0  0  0  0  0  0  0  0  0  0  0
    3.1036   -4.6157    0.0000 C   0  0  0  0  0  0  0  0  0  0  0  0
    2.2220   -5.8293    0.0000 O   0  0  0  0  0  0  0  0  0  0  0  0
    0.7500   -1.2990    0.0000 C   0  0  0  0  0  0  0  0  0  0  0  0
    1.5000    0.0000    0.0000 C   0  0  0  0  0  0  0  0  0  0  0  0
    0.7500    1.2990    0.0000 C   0  0  0  0  0  0  0  0  0  0  0  0
   -0.7500    1.2990    0.0000 C   0  0  0  0  0  0  0  0  0  0  0  0
   -1.5000    0.0000    0.0000 C   0  0  0  0  0  0  0  0  0  0  0  0
   -0.7500   -1.2990    0.0000 C   0  0  0  0  0  0  0  0  0  0  0  0
  1  2  2  0
  2  3  1  0
  3  4  1  0
  4  5  2  0
  5  6  1  0
  6  7  2  0
  7  8  1  0
  8  9  2  0
  9 10  1  0
 10 11  1  0
 11 12  1  0
 12 13  1  0
 13 14  1  0
 14 15  1  0
 14 16  1  0
 10 17  1  0
 17 18  2  0
 18 19  1  0
 19 20  2  0
 20 21  1  0
 21 22  2  0
  7 23  1  0
 23 24  2  0
 23 25  1  0
 25 26  1  0
 26 27  2  0
  5 28  1  0
 28 29  2  0
 29 30  1  0
 30 31  2  0
 31 32  1  0
 32 33  2  0
 33  3  1  0
 26  6  1  0
 33 28  1  0
 22  8  1  0
 22 17  1  0
M  END
>  <Compound_ID>  (82) 
CHEMBL368193

>  <Active>  (82) 
1.0

>  <Smiles>  (82) 
C=Cn1cc(C2=C(c3nn(CCCN(C)C)c4ccccc34)C(=O)NC2=O)c2ccccc21

>  <canonical_smi>  (82) 
C=Cn1cc(C2=C(c3nn(CCCN(C)C)c4ccccc34)C(=O)NC2=O)c2ccccc21

>  <Set>  (82) 
G2 active

>  <Set_type>  (82) 
Train

>  <MW>  (82) 
439.52

>  <HBD>  (82) 
1

>  <HBA>  (82) 
4

>  <NRB>  (82) 
7

>  <NR>  (82) 
5

>  <NAR>  (82) 
4

>  <PSA>  (82) 
72.16

>  <Standard Type>  (82) 
nan

>  <Standard Relation>  (82) 
nan

>  <Standard Units>  (82) 
nan

>  <Standard Value>  (82) 
nan

>  <Assay ChEMBL ID>  (82) 
nan

>  <Assay Description>  (82) 
nan

>  <BAO Label>  (82) 
nan

$$$$

     RDKit          2D

 33 37  0  0  0  0  0  0  0  0999 V2000
   -5.6260  -10.9888    0.0000 C   0  0  0  0  0  0  0  0  0  0  0  0
   -5.3142   -9.5216    0.0000 N   0  0  0  0  0  0  0  0  0  0  0  0
   -6.4289   -8.5179    0.0000 C   0  0  0  0  0  0  0  0  0  0  0  0
   -6.1170   -7.0506    0.0000 C   0  0  0  0  0  0  0  0  0  0  0  0
   -4.6904   -6.5871    0.0000 N   0  0  0  0  0  0  0  0  0  0  0  0
   -4.3786   -5.1199    0.0000 C   0  0  0  0  0  0  0  0  0  0  0  0
   -2.9520   -4.6564    0.0000 C   0  0  0  0  0  0  0  0  0  0  0  0
   -2.6401   -3.1891    0.0000 C   0  0  0  0  0  0  0  0  0  0  0  0
   -1.2135   -2.7256    0.0000 N   0  0  0  0  0  0  0  0  0  0  0  0
   -0.0000   -3.6073    0.0000 C   0  0  0  0  0  0  0  0  0  0  0  0
    1.2135   -2.7256    0.0000 C   0  0  0  0  0  0  0  0  0  0  0  0
    2.6401   -3.1891    0.0000 C   0  0  0  0  0  0  0  0  0  0  0  0
    3.8536   -2.3075    0.0000 C   0  0  0  0  0  0  0  0  0  0  0  0
    3.8536   -0.8075    0.0000 N   0  0  0  0  0  0  0  0  0  0  0  0
    5.1527   -0.0575    0.0000 C   0  0  0  0  0  0  0  0  0  0  0  0
    6.4517   -0.8075    0.0000 C   0  0  0  0  0  0  0  0  0  0  0  0
    7.7508   -0.0575    0.0000 C   0  0  0  0  0  0  0  0  0  0  0  0
    7.7508    1.4425    0.0000 C   0  0  0  0  0  0  0  0  0  0  0  0
    6.4517    2.1925    0.0000 C   0  0  0  0  0  0  0  0  0  0  0  0
    5.1527    1.4425    0.0000 C   0  0  0  0  0  0  0  0  0  0  0  0
    5.0672   -3.1891    0.0000 C   0  0  0  0  0  0  0  0  0  0  0  0
    6.4937   -2.7256    0.0000 O   0  0  0  0  0  0  0  0  0  0  0  0
    4.6036   -4.6157    0.0000 N   0  0  0  0  0  0  0  0  0  0  0  0
    3.1036   -4.6157    0.0000 C   0  0  0  0  0  0  0  0  0  0  0  0
    2.2220   -5.8293    0.0000 O   0  0  0  0  0  0  0  0  0  0  0  0
    0.7500   -1.2990    0.0000 C   0  0  0  0  0  0  0  0  0  0  0  0
    1.5000    0.0000    0.0000 C   0  0  0  0  0  0  0  0  0  0  0  0
    0.7500    1.2990    0.0000 C   0  0  0  0  0  0  0  0  0  0  0  0
   -0.7500    1.2990    0.0000 C   0  0  0  0  0  0  0  0  0  0  0  0
   -1.5000    0.0000    0.0000 C   0  0  0  0  0  0  0  0  0  0  0  0
   -0.7500   -1.2990    0.0000 C   0  0  0  0  0  0  0  0  0  0  0  0
   -3.5757   -7.5908    0.0000 C   0  0  0  0  0  0  0  0  0  0  0  0
   -3.8876   -9.0580    0.0000 C   0  0  0  0  0  0  0  0  0  0  0  0
  1  2  1  0
  2  3  1  0
  3  4  1  0
  4  5  1  0
  5  6  1  0
  6  7  1  0
  7  8  1  0
  8  9  1  0
  9 10  1  0
 10 11  2  0
 11 12  1  0
 12 13  2  0
 13 14  1  0
 14 15  1  0
 15 16  2  0
 16 17  1  0
 17 18  2  0
 18 19  1  0
 19 20  2  0
 13 21  1  0
 21 22  2  0
 21 23  1  0
 23 24  1  0
 24 25  2  0
 11 26  1  0
 26 27  2  0
 27 28  1  0
 28 29  2  0
 29 30  1  0
 30 31  2  0
  5 32  1  0
 32 33  1  0
 33  2  1  0
 31  9  1  0
 24 12  1  0
 31 26  1  0
 20 15  1  0
M  END
>  <Compound_ID>  (83) 
CHEMBL184146

>  <Active>  (83) 
1.0

>  <Smiles>  (83) 
CN1CCN(CCCn2cc(C3=C(Nc4ccccc4)C(=O)NC3=O)c3ccccc32)CC1

>  <canonical_smi>  (83) 
CN1CCN(CCCn2cc(C3=C(Nc4ccccc4)C(=O)NC3=O)c3ccccc32)CC1

>  <Set>  (83) 
G2 active

>  <Set_type>  (83) 
Train

>  <MW>  (83) 
443.55

>  <HBD>  (83) 
2

>  <HBA>  (83) 
5

>  <NRB>  (83) 
7

>  <NR>  (83) 
5

>  <NAR>  (83) 
3

>  <PSA>  (83) 
69.61

>  <Standard Type>  (83) 
nan

>  <Standard Relation>  (83) 
nan

>  <Standard Units>  (83) 
nan

>  <Standard Value>  (83) 
nan

>  <Assay ChEMBL ID>  (83) 
nan

>  <Assay Description>  (83) 
nan

>  <BAO Label>  (83) 
nan

$$$$

     RDKit          2D

 28 34  0  0  0  0  0  0  0  0999 V2000
    4.2660   -1.2584    0.0000 N   0  0  0  0  0  0  0  0  0  0  0  0
    3.9542   -2.7256    0.0000 C   0  0  0  0  0  0  0  0  0  0  0  0
    4.9579   -3.8403    0.0000 N   0  0  0  0  0  0  0  0  0  0  0  0
    4.2079   -5.1394    0.0000 C   0  0  0  0  0  0  0  0  0  0  0  0
    4.8180   -6.5097    0.0000 O   0  0  0  0  0  0  0  0  0  0  0  0
    2.7406   -4.8275    0.0000 C   0  0  0  0  0  0  0  0  0  0  0  0
    2.5838   -3.3357    0.0000 C   0  0  0  0  0  0  0  0  0  0  0  0
    1.2135   -2.7256    0.0000 C   0  0  0  0  0  0  0  0  0  0  0  0
    0.7500   -1.2990    0.0000 C   0  0  0  0  0  0  0  0  0  0  0  0
    1.5000    0.0000    0.0000 C   0  0  0  0  0  0  0  0  0  0  0  0
    0.7500    1.2990    0.0000 C   0  0  0  0  0  0  0  0  0  0  0  0
   -0.7500    1.2990    0.0000 C   0  0  0  0  0  0  0  0  0  0  0  0
   -1.5000    0.0000    0.0000 C   0  0  0  0  0  0  0  0  0  0  0  0
   -0.7500   -1.2990    0.0000 C   0  0  0  0  0  0  0  0  0  0  0  0
   -1.2135   -2.7256    0.0000 N   0  0  0  0  0  0  0  0  0  0  0  0
    0.0000   -3.6073    0.0000 C   0  0  0  0  0  0  0  0  0  0  0  0
    0.1568   -5.0991    0.0000 C   0  0  0  0  0  0  0  0  0  0  0  0
    1.5271   -5.7092    0.0000 C   0  0  0  0  0  0  0  0  0  0  0  0
    1.3703   -7.2010    0.0000 C   0  0  0  0  0  0  0  0  0  0  0  0
    2.3740   -8.3157    0.0000 C   0  0  0  0  0  0  0  0  0  0  0  0
    1.9105   -9.7423    0.0000 C   0  0  0  0  0  0  0  0  0  0  0  0
    0.4433  -10.0541    0.0000 C   0  0  0  0  0  0  0  0  0  0  0  0
   -0.5604   -8.9394    0.0000 C   0  0  0  0  0  0  0  0  0  0  0  0
   -0.0969   -7.5128    0.0000 C   0  0  0  0  0  0  0  0  0  0  0  0
   -0.8469   -6.2138    0.0000 N   0  0  0  0  0  0  0  0  0  0  0  0
   -2.3362   -6.0347    0.0000 C   0  0  0  0  0  0  0  0  0  0  0  0
   -3.1247   -4.7587    0.0000 S   0  0  0  0  0  0  0  0  0  0  0  0
   -2.6187   -3.3466    0.0000 C   0  0  0  0  0  0  0  0  0  0  0  0
  1  2  1  0
  2  3  2  0
  3  4  1  0
  4  5  2  0
  4  6  1  0
  6  7  2  0
  7  8  1  0
  8  9  1  0
  9 10  2  0
 10 11  1  0
 11 12  2  0
 12 13  1  0
 13 14  2  0
 14 15  1  0
 15 16  1  0
 16 17  1  0
 17 18  2  0
 18 19  1  0
 19 20  2  0
 20 21  1  0
 21 22  2  0
 22 23  1  0
 23 24  2  0
 24 25  1  0
 25 26  1  0
 26 27  1  0
 27 28  1  0
  7  2  1  0
 16  8  2  0
 25 17  1  0
 18  6  1  0
 24 19  1  0
 14  9  1  0
 28 15  1  0
M  END
>  <Compound_ID>  (84) 
CHEMBL282612

>  <Active>  (84) 
1.0

>  <Smiles>  (84) 
NC1=NC(=O)c2c1c1c3ccccc3n3c1c1c2c2ccccc2n1CSC3

>  <canonical_smi>  (84) 
NC1=NC(=O)c2c1c1c3ccccc3n3c1c1c2c2ccccc2n1CSC3

>  <Set>  (84) 
G2 active

>  <Set_type>  (84) 
Train

>  <MW>  (84) 
382.45

>  <HBD>  (84) 
1

>  <HBA>  (84) 
3

>  <NRB>  (84) 
0

>  <NR>  (84) 
7

>  <NAR>  (84) 
5

>  <PSA>  (84) 
65.31

>  <Standard Type>  (84) 
nan

>  <Standard Relation>  (84) 
nan

>  <Standard Units>  (84) 
nan

>  <Standard Value>  (84) 
nan

>  <Assay ChEMBL ID>  (84) 
nan

>  <Assay Description>  (84) 
nan

>  <BAO Label>  (84) 
nan

$$$$

     RDKit          2D

 42 46  0  0  0  0  0  0  0  0999 V2000
   -2.5981   -5.1073    0.0000 O   0  0  0  0  0  0  0  0  0  0  0  0
   -1.2990   -5.8573    0.0000 C   0  0  0  0  0  0  0  0  0  0  0  0
   -0.0000   -5.1073    0.0000 N   0  0  0  0  0  0  0  0  0  0  0  0
   -0.0000   -3.6073    0.0000 C   0  0  0  0  0  0  0  0  0  0  0  0
    1.2135   -2.7256    0.0000 C   0  0  0  0  0  0  0  0  0  0  0  0
    0.7500   -1.2990    0.0000 C   0  0  0  0  0  0  0  0  0  0  0  0
    1.5000    0.0000    0.0000 C   0  0  0  0  0  0  0  0  0  0  0  0
    0.7500    1.2990    0.0000 C   0  0  0  0  0  0  0  0  0  0  0  0
   -0.7500    1.2990    0.0000 C   0  0  0  0  0  0  0  0  0  0  0  0
   -1.5000    0.0000    0.0000 C   0  0  0  0  0  0  0  0  0  0  0  0
   -0.7500   -1.2990    0.0000 C   0  0  0  0  0  0  0  0  0  0  0  0
   -1.2135   -2.7256    0.0000 C   0  0  0  0  0  0  0  0  0  0  0  0
   -2.6401   -3.1891    0.0000 O   0  0  0  0  0  0  0  0  0  0  0  0
   -3.7548   -2.1855    0.0000 C   0  0  0  0  0  0  0  0  0  0  0  0
   -3.4430   -0.7182    0.0000 O   0  0  0  0  0  0  0  0  0  0  0  0
   -5.1814   -2.6490    0.0000 C   0  0  0  0  0  0  0  0  0  0  0  0
   -6.2961   -1.6453    0.0000 C   0  0  0  0  0  0  0  0  0  0  0  0
   -7.7227   -2.1088    0.0000 C   0  0  0  0  0  0  0  0  0  0  0  0
   -8.3684   -1.3660    0.0000 O   0  0  0  0  0  0  0  0  0  0  0  0
   -8.0346   -3.5760    0.0000 C   0  0  0  0  0  0  0  0  0  0  0  0
   -9.4612   -4.0396    0.0000 C   0  0  0  0  0  0  0  0  0  0  0  0
   -9.7730   -5.5068    0.0000 O   0  0  0  0  0  0  0  0  0  0  0  0
  -10.5759   -3.0359    0.0000 C   0  0  0  0  0  0  0  0  0  0  0  0
  -10.2640   -1.5686    0.0000 C   0  0  0  0  0  0  0  0  0  0  0  0
   -9.3721   -1.1527    0.0000 O   0  0  0  0  0  0  0  0  0  0  0  0
  -11.3787   -0.5649    0.0000 C   0  0  0  0  0  0  0  0  0  0  0  0
  -12.8053   -1.0285    0.0000 C   0  0  0  0  0  0  0  0  0  0  0  0
  -13.1172   -2.4957    0.0000 C   0  0  0  0  0  0  0  0  0  0  0  0
  -12.0025   -3.4994    0.0000 C   0  0  0  0  0  0  0  0  0  0  0  0
  -12.3143   -4.9666    0.0000 C   0  0  0  0  0  0  0  0  0  0  0  0
  -11.1996   -5.9703    0.0000 O   0  0  0  0  0  0  0  0  0  0  0  0
  -13.7409   -5.4301    0.0000 O   0  0  0  0  0  0  0  0  0  0  0  0
   -6.9199   -4.5797    0.0000 C   0  0  0  0  0  0  0  0  0  0  0  0
   -7.2317   -6.0469    0.0000 O   0  0  0  0  0  0  0  0  0  0  0  0
   -5.4933   -4.1162    0.0000 C   0  0  0  0  0  0  0  0  0  0  0  0
   -1.2990   -7.3573    0.0000 C   0  0  0  0  0  0  0  0  0  0  0  0
   -2.5981   -8.1073    0.0000 C   0  0  0  0  0  0  0  0  0  0  0  0
   -2.5981   -9.6073    0.0000 C   0  0  0  0  0  0  0  0  0  0  0  0
   -1.2990  -10.3573    0.0000 C   0  0  0  0  0  0  0  0  0  0  0  0
   -1.2990  -11.8573    0.0000 O   0  0  0  0  0  0  0  0  0  0  0  0
    0.0000   -9.6073    0.0000 C   0  0  0  0  0  0  0  0  0  0  0  0
    0.0000   -8.1073    0.0000 C   0  0  0  0  0  0  0  0  0  0  0  0
  1  2  2  0
  2  3  1  0
  4  3  1  1
  4  5  1  0
  5  6  1  0
  6  7  2  0
  7  8  1  0
  8  9  2  0
  9 10  1  0
 10 11  2  0
 11 12  1  0
 12 13  1  0
 13 14  1  0
 14 15  2  0
 14 16  1  0
 16 17  2  0
 17 18  1  0
 18 19  1  0
 18 20  2  0
 20 21  1  0
 21 22  2  0
 21 23  1  0
 23 24  2  0
 24 25  1  0
 24 26  1  0
 26 27  2  0
 27 28  1  0
 28 29  2  0
 29 30  1  0
 30 31  2  0
 30 32  1  0
 20 33  1  0
 33 34  1  0
 33 35  2  0
  2 36  1  0
 36 37  2  0
 37 38  1  0
 38 39  2  0
 39 40  1  0
 39 41  1  0
 41 42  2  0
 12  4  1  0
 35 16  1  0
 42 36  1  0
 11  6  1  0
 29 23  1  0
M  END
>  <Compound_ID>  (85) 
CHEMBL367162

>  <Active>  (85) 
1.0

>  <Smiles>  (85) 
O=C(N[C@@H]1Cc2ccccc2C1OC(=O)c1cc(O)c(C(=O)c2c(O)cccc2C(=O)O)c(O)c1)c1ccc(O)cc1

>  <canonical_smi>  (85) 
O=C(N[C@@H]1Cc2ccccc2C1OC(=O)c1cc(O)c(C(=O)c2c(O)cccc2C(=O)O)c(O)c1)c1ccc(O)cc1

>  <Set>  (85) 
G2 active

>  <Set_type>  (85) 
Train

>  <MW>  (85) 
569.52

>  <HBD>  (85) 
6

>  <HBA>  (85) 
10

>  <NRB>  (85) 
7

>  <NR>  (85) 
5

>  <NAR>  (85) 
4

>  <PSA>  (85) 
190.69

>  <Standard Type>  (85) 
nan

>  <Standard Relation>  (85) 
nan

>  <Standard Units>  (85) 
nan

>  <Standard Value>  (85) 
nan

>  <Assay ChEMBL ID>  (85) 
nan

>  <Assay Description>  (85) 
nan

>  <BAO Label>  (85) 
nan

$$$$

     RDKit          2D

 31 38  0  0  0  0  0  0  0  0999 V2000
   -6.2685   -5.4722    0.0000 O   0  0  0  0  0  0  0  0  0  0  0  0
   -4.8012   -5.7841    0.0000 C   0  0  0  0  0  0  0  0  0  0  0  0
   -4.1911   -7.1544    0.0000 N   0  0  0  0  0  0  0  0  0  0  0  0
   -2.6993   -6.9976    0.0000 C   0  0  0  0  0  0  0  0  0  0  0  0
   -1.6957   -8.1123    0.0000 O   0  0  0  0  0  0  0  0  0  0  0  0
   -2.3875   -5.5304    0.0000 C   0  0  0  0  0  0  0  0  0  0  0  0
   -3.6865   -4.7804    0.0000 C   0  0  0  0  0  0  0  0  0  0  0  0
   -3.6865   -3.2804    0.0000 C   0  0  0  0  0  0  0  0  0  0  0  0
   -4.7707   -2.2438    0.0000 C   0  0  0  0  0  0  0  0  0  0  0  0
   -6.2665   -2.3559    0.0000 C   0  0  0  0  0  0  0  0  0  0  0  0
   -7.1115   -1.1166    0.0000 C   0  0  0  0  0  0  0  0  0  0  0  0
   -6.4607    0.2349    0.0000 C   0  0  0  0  0  0  0  0  0  0  0  0
   -4.9649    0.3470    0.0000 C   0  0  0  0  0  0  0  0  0  0  0  0
   -4.1199   -0.8924    0.0000 C   0  0  0  0  0  0  0  0  0  0  0  0
   -2.6110   -1.0472    0.0000 N   0  0  0  0  0  0  0  0  0  0  0  0
   -2.3875   -2.5304    0.0000 C   0  0  0  0  0  0  0  0  0  0  0  0
   -1.0884   -3.2804    0.0000 C   0  0  0  0  0  0  0  0  0  0  0  0
   -1.0884   -4.7804    0.0000 C   0  0  0  0  0  0  0  0  0  0  0  0
    0.3514   -5.2010    0.0000 C   0  0  0  0  0  0  0  0  0  0  0  0
    1.0022   -6.5525    0.0000 C   0  0  0  0  0  0  0  0  0  0  0  0
    2.4980   -6.6646    0.0000 C   0  0  0  0  0  0  0  0  0  0  0  0
    3.3430   -5.4252    0.0000 C   0  0  0  0  0  0  0  0  0  0  0  0
    2.6922   -4.0738    0.0000 C   0  0  0  0  0  0  0  0  0  0  0  0
    1.1963   -3.9617    0.0000 C   0  0  0  0  0  0  0  0  0  0  0  0
    0.3079   -2.7324    0.0000 N   0  0  0  0  0  0  0  0  0  0  0  0
    0.7500   -1.2990    0.0000 C   0  0  0  0  0  0  0  0  0  0  0  0
    1.5000    0.0000    0.0000 C   0  0  0  0  0  0  0  0  0  0  0  0
    0.7500    1.2990    0.0000 C   0  0  0  0  0  0  0  0  0  0  0  0
   -0.7500    1.2990    0.0000 C   0  0  0  0  0  0  0  0  0  0  0  0
   -1.5000    0.0000    0.0000 C   0  0  0  0  0  0  0  0  0  0  0  0
   -0.7500   -1.2990    0.0000 N   0  0  0  0  0  0  0  0  0  0  0  0
  1  2  2  0
  2  3  1  0
  3  4  1  0
  4  5  2  0
  4  6  1  0
  6  7  2  0
  7  8  1  0
  8  9  1  0
  9 10  2  0
 10 11  1  0
 11 12  2  0
 12 13  1  0
 13 14  2  0
 14 15  1  0
 15 16  1  0
 16 17  1  0
 17 18  2  0
 18 19  1  0
 19 20  2  0
 20 21  1  0
 21 22  2  0
 22 23  1  0
 23 24  2  0
 24 25  1  0
 25 26  1  0
 26 27  1  6
 27 28  1  0
 28 29  1  0
 30 29  1  6
 30 31  1  0
  7  2  1  0
 16  8  2  0
 25 17  1  0
 31 26  1  0
 18  6  1  0
 24 19  1  0
 14  9  1  0
 30 15  1  0
M  END
>  <Compound_ID>  (86) 
CHEMBL147986

>  <Active>  (86) 
1.0

>  <Smiles>  (86) 
O=C1NC(=O)c2c1c1c3ccccc3n3c1c1c2c2ccccc2n1[C@H]1CCC[C@@H]3N1

>  <canonical_smi>  (86) 
O=C1NC(=O)c2c1c1c3ccccc3n3c1c1c2c2ccccc2n1[C@@H]1CCC[C@H]3N1

>  <Set>  (86) 
G2 active

>  <Set_type>  (86) 
Train

>  <MW>  (86) 
406.45

>  <HBD>  (86) 
2

>  <HBA>  (86) 
3

>  <NRB>  (86) 
0

>  <NR>  (86) 
8

>  <NAR>  (86) 
5

>  <PSA>  (86) 
68.06

>  <Standard Type>  (86) 
nan

>  <Standard Relation>  (86) 
nan

>  <Standard Units>  (86) 
nan

>  <Standard Value>  (86) 
nan

>  <Assay ChEMBL ID>  (86) 
nan

>  <Assay Description>  (86) 
nan

>  <BAO Label>  (86) 
nan

$$$$

     RDKit          2D

 41 47  0  0  0  0  0  0  0  0999 V2000
    3.0000    4.7634    0.0000 C   0  0  0  0  0  0  0  0  0  0  0  0
    1.5000    4.7634    0.0000 N   0  0  0  0  0  0  0  0  0  0  0  0
    0.7500    6.0624    0.0000 C   0  0  0  0  0  0  0  0  0  0  0  0
    0.7500    3.4643    0.0000 C   0  0  0  0  0  0  0  0  0  0  0  0
   -0.7500    3.4643    0.0000 C   0  0  0  0  0  0  0  0  0  0  0  0
   -1.5000    2.1653    0.0000 C   0  0  0  0  0  0  0  0  0  0  0  0
   -3.0000    2.1653    0.0000 N   0  0  0  0  0  0  0  0  0  0  0  0
   -3.8817    0.9518    0.0000 N   0  0  0  0  0  0  0  0  0  0  0  0
   -5.3083    1.4153    0.0000 C   0  0  0  0  0  0  0  0  0  0  0  0
   -6.5218    0.5336    0.0000 C   0  0  0  0  0  0  0  0  0  0  0  0
   -6.5218   -0.9664    0.0000 C   0  0  0  0  0  0  0  0  0  0  0  0
   -5.3083   -1.8481    0.0000 C   0  0  0  0  0  0  0  0  0  0  0  0
   -3.8817   -1.3846    0.0000 C   0  0  0  0  0  0  0  0  0  0  0  0
   -3.0000   -2.5981    0.0000 N   0  0  0  0  0  0  0  0  0  0  0  0
   -1.5000   -2.5981    0.0000 C   0  0  0  0  0  0  0  0  0  0  0  0
   -0.7500   -3.8971    0.0000 C   0  0  0  0  0  0  0  0  0  0  0  0
    0.7500   -3.8971    0.0000 C   0  0  0  0  0  0  0  0  0  0  0  0
    1.5000   -2.5981    0.0000 C   0  0  0  0  0  0  0  0  0  0  0  0
    0.7500   -1.2990    0.0000 C   0  0  0  0  0  0  0  0  0  0  0  0
    1.5000    0.0000    0.0000 C   0  0  0  0  0  0  0  0  0  0  0  0
    0.7500    1.2990    0.0000 C   0  0  0  0  0  0  0  0  0  0  0  0
   -0.7500    1.2990    0.0000 C   0  0  0  0  0  0  0  0  0  0  0  0
   -1.5000    0.0000    0.0000 C   0  0  0  0  0  0  0  0  0  0  0  0
   -0.7500   -1.2990    0.0000 C   0  0  0  0  0  0  0  0  0  0  0  0
   -3.8817   -3.8116    0.0000 C   0  0  0  0  0  0  0  0  0  0  0  0
   -3.5698   -5.2788    0.0000 C   0  0  0  0  0  0  0  0  0  0  0  0
   -4.6845   -6.2825    0.0000 C   0  0  0  0  0  0  0  0  0  0  0  0
   -6.1111   -5.8190    0.0000 C   0  0  0  0  0  0  0  0  0  0  0  0
   -6.4230   -4.3518    0.0000 C   0  0  0  0  0  0  0  0  0  0  0  0
   -5.3083   -3.3481    0.0000 C   0  0  0  0  0  0  0  0  0  0  0  0
   -7.9484   -1.4299    0.0000 C   0  0  0  0  0  0  0  0  0  0  0  0
   -8.4119   -2.8565    0.0000 O   0  0  0  0  0  0  0  0  0  0  0  0
   -8.8301   -0.2164    0.0000 N   0  0  0  0  0  0  0  0  0  0  0  0
   -7.9484    0.9971    0.0000 C   0  0  0  0  0  0  0  0  0  0  0  0
   -8.4119    2.4237    0.0000 O   0  0  0  0  0  0  0  0  0  0  0  0
   -5.3083    2.9153    0.0000 C   0  0  0  0  0  0  0  0  0  0  0  0
   -6.4230    3.9190    0.0000 C   0  0  0  0  0  0  0  0  0  0  0  0
   -6.1111    5.3862    0.0000 C   0  0  0  0  0  0  0  0  0  0  0  0
   -4.6845    5.8497    0.0000 C   0  0  0  0  0  0  0  0  0  0  0  0
   -3.5698    4.8460    0.0000 C   0  0  0  0  0  0  0  0  0  0  0  0
   -3.8817    3.3788    0.0000 C   0  0  0  0  0  0  0  0  0  0  0  0
  1  2  1  0
  2  3  1  0
  2  4  1  0
  4  5  1  0
  5  6  1  0
  6  7  1  0
  7  8  1  0
  8  9  2  0
  9 10  1  0
 10 11  2  0
 11 12  1  0
 12 13  2  0
 13 14  1  0
 14 15  1  0
 15 16  2  0
 16 17  1  0
 17 18  2  0
 18 19  1  0
 19 20  2  0
 20 21  1  0
 21 22  2  0
 22 23  1  0
 23 24  2  0
 14 25  1  0
 25 26  2  0
 26 27  1  0
 27 28  2  0
 28 29  1  0
 29 30  2  0
 11 31  1  0
 31 32  2  0
 31 33  1  0
 33 34  1  0
 34 35  2  0
  9 36  1  0
 36 37  2  0
 37 38  1  0
 38 39  2  0
 39 40  1  0
 40 41  2  0
 41  7  1  0
 34 10  1  0
 41 36  1  0
 30 12  1  0
 24 15  1  0
 30 25  1  0
 24 19  1  0
M  END
>  <Compound_ID>  (87) 
CHEMBL360304

>  <Active>  (87) 
1.0

>  <Smiles>  (87) 
CN(C)CCCn1nc(C2=C(c3cn(-c4cccc5ccccc45)c4ccccc34)C(=O)NC2=O)c2ccccc21

>  <canonical_smi>  (87) 
CN(C)CCCn1nc(C2=C(c3cn(-c4cccc5ccccc45)c4ccccc34)C(=O)NC2=O)c2ccccc21

>  <Set>  (87) 
G2 active

>  <Set_type>  (87) 
Train

>  <MW>  (87) 
539.64

>  <HBD>  (87) 
1

>  <HBA>  (87) 
4

>  <NRB>  (87) 
7

>  <NR>  (87) 
7

>  <NAR>  (87) 
6

>  <PSA>  (87) 
72.16

>  <Standard Type>  (87) 
nan

>  <Standard Relation>  (87) 
nan

>  <Standard Units>  (87) 
nan

>  <Standard Value>  (87) 
nan

>  <Assay ChEMBL ID>  (87) 
nan

>  <Assay Description>  (87) 
nan

>  <BAO Label>  (87) 
nan

$$$$

     RDKit          2D

 34 36  0  0  0  0  0  0  0  0999 V2000
    0.7500   -6.4952    0.0000 C   0  0  0  0  0  0  0  0  0  0  0  0
    1.5000   -5.1962    0.0000 C   0  0  0  0  0  0  0  0  0  0  0  0
    0.7500   -3.8971    0.0000 C   0  0  0  0  0  0  0  0  0  0  0  0
    1.5000   -2.5981    0.0000 C   0  0  0  0  0  0  0  0  0  0  0  0
    0.7500   -1.2990    0.0000 C   0  0  0  0  0  0  0  0  0  0  0  0
    1.5000    0.0000    0.0000 C   0  0  0  0  0  0  0  0  0  0  0  0
    0.7500    1.2990    0.0000 C   0  0  0  0  0  0  0  0  0  0  0  0
   -0.7500    1.2990    0.0000 C   0  0  0  0  0  0  0  0  0  0  0  0
   -1.5000    2.5981    0.0000 O   0  0  0  0  0  0  0  0  0  0  0  0
   -1.5000    0.0000    0.0000 C   0  0  0  0  0  0  0  0  0  0  0  0
   -0.7500   -1.2990    0.0000 C   0  0  0  0  0  0  0  0  0  0  0  0
    3.0000   -5.1962    0.0000 O   0  0  0  0  0  0  0  0  0  0  0  0
    3.7500   -6.4952    0.0000 C   0  0  0  0  0  0  0  0  0  0  0  0
    3.0000   -7.7942    0.0000 O   0  0  0  0  0  0  0  0  0  0  0  0
    5.2500   -6.4952    0.0000 C   0  0  0  0  0  0  0  0  0  0  0  0
    6.0000   -7.7942    0.0000 C   0  0  0  0  0  0  0  0  0  0  0  0
    7.5000   -7.7942    0.0000 C   0  0  0  0  0  0  0  0  0  0  0  0
    7.8845   -8.7002    0.0000 O   0  0  0  0  0  0  0  0  0  0  0  0
    8.2500   -6.4952    0.0000 C   0  0  0  0  0  0  0  0  0  0  0  0
    9.7500   -6.4952    0.0000 C   0  0  0  0  0  0  0  0  0  0  0  0
   10.5000   -5.1962    0.0000 O   0  0  0  0  0  0  0  0  0  0  0  0
   10.5000   -7.7942    0.0000 C   0  0  0  0  0  0  0  0  0  0  0  0
    9.7500   -9.0933    0.0000 C   0  0  0  0  0  0  0  0  0  0  0  0
    8.7732   -9.2132    0.0000 O   0  0  0  0  0  0  0  0  0  0  0  0
   10.5000  -10.3923    0.0000 C   0  0  0  0  0  0  0  0  0  0  0  0
   12.0000  -10.3923    0.0000 C   0  0  0  0  0  0  0  0  0  0  0  0
   12.7500   -9.0933    0.0000 C   0  0  0  0  0  0  0  0  0  0  0  0
   12.0000   -7.7942    0.0000 C   0  0  0  0  0  0  0  0  0  0  0  0
   12.7500   -6.4952    0.0000 C   0  0  0  0  0  0  0  0  0  0  0  0
   12.0000   -5.1962    0.0000 O   0  0  0  0  0  0  0  0  0  0  0  0
   14.2500   -6.4952    0.0000 O   0  0  0  0  0  0  0  0  0  0  0  0
    7.5000   -5.1962    0.0000 C   0  0  0  0  0  0  0  0  0  0  0  0
    8.2500   -3.8971    0.0000 O   0  0  0  0  0  0  0  0  0  0  0  0
    6.0000   -5.1962    0.0000 C   0  0  0  0  0  0  0  0  0  0  0  0
  1  2  1  0
  2  3  1  0
  3  4  1  0
  4  5  1  0
  5  6  2  0
  6  7  1  0
  7  8  2  0
  8  9  1  0
  8 10  1  0
 10 11  2  0
  2 12  1  0
 12 13  1  0
 13 14  2  0
 13 15  1  0
 15 16  2  0
 16 17  1  0
 17 18  1  0
 17 19  2  0
 19 20  1  0
 20 21  2  0
 20 22  1  0
 22 23  2  0
 23 24  1  0
 23 25  1  0
 25 26  2  0
 26 27  1  0
 27 28  2  0
 28 29  1  0
 29 30  2  0
 29 31  1  0
 19 32  1  0
 32 33  1  0
 32 34  2  0
 11  5  1  0
 34 15  1  0
 28 22  1  0
M  END
>  <Compound_ID>  (88) 
CHEMBL148745

>  <Active>  (88) 
1.0

>  <Smiles>  (88) 
CC(CCc1ccc(O)cc1)OC(=O)c1cc(O)c(C(=O)c2c(O)cccc2C(=O)O)c(O)c1

>  <canonical_smi>  (88) 
CC(CCc1ccc(O)cc1)OC(=O)c1cc(O)c(C(=O)c2c(O)cccc2C(=O)O)c(O)c1

>  <Set>  (88) 
G2 active

>  <Set_type>  (88) 
Train

>  <MW>  (88) 
466.44

>  <HBD>  (88) 
5

>  <HBA>  (88) 
9

>  <NRB>  (88) 
8

>  <NR>  (88) 
3

>  <NAR>  (88) 
3

>  <PSA>  (88) 
161.59

>  <Standard Type>  (88) 
nan

>  <Standard Relation>  (88) 
nan

>  <Standard Units>  (88) 
nan

>  <Standard Value>  (88) 
nan

>  <Assay ChEMBL ID>  (88) 
nan

>  <Assay Description>  (88) 
nan

>  <BAO Label>  (88) 
nan

$$$$

     RDKit          2D

 43 48  0  0  0  0  0  0  0  0999 V2000
   -1.6004    6.4471    0.0000 O   0  0  0  0  0  0  0  0  0  0  0  0
   -2.9707    5.8370    0.0000 C   0  0  0  0  0  0  0  0  0  0  0  0
   -3.1275    4.3452    0.0000 N   0  0  0  0  0  0  0  0  0  0  0  0
   -1.9140    3.4635    0.0000 C   0  0  0  0  0  0  0  0  0  0  0  0
   -1.9140    1.9635    0.0000 C   0  0  0  0  0  0  0  0  0  0  0  0
   -1.0323    3.1771    0.0000 C   0  0  0  0  0  0  0  0  0  0  0  0
    0.3943    2.7135    0.0000 C   0  0  0  0  0  0  0  0  0  0  0  0
    0.3943    1.2135    0.0000 C   0  0  0  0  0  0  0  0  0  0  0  0
    1.2760    0.0000    0.0000 C   0  0  0  0  0  0  0  0  0  0  0  0
    0.3943   -1.2135    0.0000 C   0  0  0  0  0  0  0  0  0  0  0  0
   -1.0323   -0.7500    0.0000 C   0  0  0  0  0  0  0  0  0  0  0  0
   -1.0323    0.7500    0.0000 C   0  0  0  0  0  0  0  0  0  0  0  0
   -0.4874    3.9271    0.0000 C   0  0  0  0  0  0  0  0  0  0  0  0
   -0.0239    5.3536    0.0000 O   0  0  0  0  0  0  0  0  0  0  0  0
    1.4434    5.6655    0.0000 C   0  0  0  0  0  0  0  0  0  0  0  0
    2.4471    4.5508    0.0000 O   0  0  0  0  0  0  0  0  0  0  0  0
    1.9069    7.0921    0.0000 C   0  0  0  0  0  0  0  0  0  0  0  0
    3.3741    7.4040    0.0000 C   0  0  0  0  0  0  0  0  0  0  0  0
    3.8376    8.8305    0.0000 C   0  0  0  0  0  0  0  0  0  0  0  0
    4.8180    8.9163    0.0000 O   0  0  0  0  0  0  0  0  0  0  0  0
    2.8339    9.9453    0.0000 C   0  0  0  0  0  0  0  0  0  0  0  0
    3.2975   11.3718    0.0000 C   0  0  0  0  0  0  0  0  0  0  0  0
    2.2938   12.4866    0.0000 O   0  0  0  0  0  0  0  0  0  0  0  0
    4.7647   11.6837    0.0000 C   0  0  0  0  0  0  0  0  0  0  0  0
    5.7684   10.5690    0.0000 C   0  0  0  0  0  0  0  0  0  0  0  0
    5.5806    9.6029    0.0000 O   0  0  0  0  0  0  0  0  0  0  0  0
    7.2356   10.8809    0.0000 C   0  0  0  0  0  0  0  0  0  0  0  0
    7.6991   12.3074    0.0000 C   0  0  0  0  0  0  0  0  0  0  0  0
    6.6954   13.4222    0.0000 C   0  0  0  0  0  0  0  0  0  0  0  0
    5.2282   13.1103    0.0000 C   0  0  0  0  0  0  0  0  0  0  0  0
    4.2245   14.2250    0.0000 C   0  0  0  0  0  0  0  0  0  0  0  0
    2.7573   13.9131    0.0000 O   0  0  0  0  0  0  0  0  0  0  0  0
    4.6880   15.6516    0.0000 O   0  0  0  0  0  0  0  0  0  0  0  0
    1.3667    9.6334    0.0000 C   0  0  0  0  0  0  0  0  0  0  0  0
    0.3630   10.7481    0.0000 O   0  0  0  0  0  0  0  0  0  0  0  0
    0.9032    8.2068    0.0000 C   0  0  0  0  0  0  0  0  0  0  0  0
   -4.1842    6.7187    0.0000 C   0  0  0  0  0  0  0  0  0  0  0  0
   -4.0274    8.2104    0.0000 C   0  0  0  0  0  0  0  0  0  0  0  0
   -5.2410    9.0921    0.0000 C   0  0  0  0  0  0  0  0  0  0  0  0
   -6.6113    8.4820    0.0000 C   0  0  0  0  0  0  0  0  0  0  0  0
   -7.8248    9.3637    0.0000 O   0  0  0  0  0  0  0  0  0  0  0  0
   -6.7681    6.9902    0.0000 C   0  0  0  0  0  0  0  0  0  0  0  0
   -5.5545    6.1086    0.0000 C   0  0  0  0  0  0  0  0  0  0  0  0
  1  2  2  0
  2  3  1  0
  4  3  1  1
  4  5  1  0
  5  6  1  0
  6  7  1  0
  7  8  1  0
  8  9  1  0
  9 10  1  0
 10 11  1  0
 11 12  1  0
  7 13  1  0
 13 14  1  6
 14 15  1  0
 15 16  2  0
 15 17  1  0
 17 18  2  0
 18 19  1  0
 19 20  1  0
 19 21  2  0
 21 22  1  0
 22 23  2  0
 22 24  1  0
 24 25  2  0
 25 26  1  0
 25 27  1  0
 27 28  2  0
 28 29  1  0
 29 30  2  0
 30 31  1  0
 31 32  2  0
 31 33  1  0
 21 34  1  0
 34 35  1  0
 34 36  2  0
  2 37  1  0
 37 38  2  0
 38 39  1  0
 39 40  2  0
 40 41  1  0
 40 42  1  0
 42 43  2  0
 13  4  1  0
 36 17  1  0
 43 37  1  0
 12  5  1  0
 30 24  1  0
 12  8  1  0
M  END
>  <Compound_ID>  (89) 
CHEMBL263910

>  <Active>  (89) 
1.0

>  <Smiles>  (89) 
O=C(N[C@@H]1C2CC(C3CCCC32)[C@H]1OC(=O)c1cc(O)c(C(=O)c2c(O)cccc2C(=O)O)c(O)c1)c1ccc(O)cc1

>  <canonical_smi>  (89) 
O=C(N[C@@H]1C2CC(C3CCCC32)[C@H]1OC(=O)c1cc(O)c(C(=O)c2c(O)cccc2C(=O)O)c(O)c1)c1ccc(O)cc1

>  <Set>  (89) 
G2 active

>  <Set_type>  (89) 
Train

>  <MW>  (89) 
587.58

>  <HBD>  (89) 
6

>  <HBA>  (89) 
10

>  <NRB>  (89) 
7

>  <NR>  (89) 
6

>  <NAR>  (89) 
3

>  <PSA>  (89) 
190.69

>  <Standard Type>  (89) 
nan

>  <Standard Relation>  (89) 
nan

>  <Standard Units>  (89) 
nan

>  <Standard Value>  (89) 
nan

>  <Assay ChEMBL ID>  (89) 
nan

>  <Assay Description>  (89) 
nan

>  <BAO Label>  (89) 
nan

$$$$

     RDKit          2D

 39 42  0  0  0  0  0  0  0  0999 V2000
    2.2872  -10.7187    0.0000 O   0  0  0  0  0  0  0  0  0  0  0  0
    3.2909   -9.6040    0.0000 C   0  0  0  0  0  0  0  0  0  0  0  0
    2.8273   -8.1774    0.0000 N   0  0  0  0  0  0  0  0  0  0  0  0
    1.3601   -7.8655    0.0000 C   0  0  0  0  0  0  0  0  0  0  0  0
    0.2454   -8.8692    0.0000 C   0  0  0  0  0  0  0  0  0  0  0  0
   -1.0537   -8.1192    0.0000 C   0  0  0  0  0  0  0  0  0  0  0  0
   -0.7418   -6.6520    0.0000 C   0  0  0  0  0  0  0  0  0  0  0  0
    0.7500   -6.4952    0.0000 C   0  0  0  0  0  0  0  0  0  0  0  0
    1.5000   -5.1962    0.0000 C   0  0  0  0  0  0  0  0  0  0  0  0
    0.7500   -3.8971    0.0000 O   0  0  0  0  0  0  0  0  0  0  0  0
    1.5000   -2.5981    0.0000 C   0  0  0  0  0  0  0  0  0  0  0  0
    3.0000   -2.5981    0.0000 O   0  0  0  0  0  0  0  0  0  0  0  0
    0.7500   -1.2990    0.0000 C   0  0  0  0  0  0  0  0  0  0  0  0
    1.5000    0.0000    0.0000 C   0  0  0  0  0  0  0  0  0  0  0  0
    0.7500    1.2990    0.0000 C   0  0  0  0  0  0  0  0  0  0  0  0
    1.3423    2.0850    0.0000 O   0  0  0  0  0  0  0  0  0  0  0  0
   -0.7500    1.2990    0.0000 C   0  0  0  0  0  0  0  0  0  0  0  0
   -1.5000    2.5981    0.0000 C   0  0  0  0  0  0  0  0  0  0  0  0
   -3.0000    2.5981    0.0000 O   0  0  0  0  0  0  0  0  0  0  0  0
   -0.7500    3.8971    0.0000 C   0  0  0  0  0  0  0  0  0  0  0  0
    0.7500    3.8971    0.0000 C   0  0  0  0  0  0  0  0  0  0  0  0
    1.3423    3.1112    0.0000 O   0  0  0  0  0  0  0  0  0  0  0  0
    1.5000    5.1962    0.0000 C   0  0  0  0  0  0  0  0  0  0  0  0
    0.7500    6.4952    0.0000 C   0  0  0  0  0  0  0  0  0  0  0  0
   -0.7500    6.4952    0.0000 C   0  0  0  0  0  0  0  0  0  0  0  0
   -1.5000    5.1962    0.0000 C   0  0  0  0  0  0  0  0  0  0  0  0
   -3.0000    5.1962    0.0000 C   0  0  0  0  0  0  0  0  0  0  0  0
   -3.7500    3.8971    0.0000 O   0  0  0  0  0  0  0  0  0  0  0  0
   -3.7500    6.4952    0.0000 O   0  0  0  0  0  0  0  0  0  0  0  0
   -1.5000    0.0000    0.0000 C   0  0  0  0  0  0  0  0  0  0  0  0
   -3.0000    0.0000    0.0000 O   0  0  0  0  0  0  0  0  0  0  0  0
   -0.7500   -1.2990    0.0000 C   0  0  0  0  0  0  0  0  0  0  0  0
    4.7581   -9.9158    0.0000 C   0  0  0  0  0  0  0  0  0  0  0  0
    5.2216  -11.3424    0.0000 C   0  0  0  0  0  0  0  0  0  0  0  0
    6.6888  -11.6543    0.0000 C   0  0  0  0  0  0  0  0  0  0  0  0
    7.6925  -10.5396    0.0000 C   0  0  0  0  0  0  0  0  0  0  0  0
    9.1597  -10.8514    0.0000 O   0  0  0  0  0  0  0  0  0  0  0  0
    7.2290   -9.1130    0.0000 C   0  0  0  0  0  0  0  0  0  0  0  0
    5.7618   -8.8011    0.0000 C   0  0  0  0  0  0  0  0  0  0  0  0
  1  2  2  0
  2  3  1  0
  4  3  1  6
  4  5  1  0
  5  6  1  0
  6  7  1  0
  7  8  1  0
  8  9  1  1
  9 10  1  0
 10 11  1  0
 11 12  2  0
 11 13  1  0
 13 14  2  0
 14 15  1  0
 15 16  1  0
 15 17  2  0
 17 18  1  0
 18 19  2  0
 18 20  1  0
 20 21  2  0
 21 22  1  0
 21 23  1  0
 23 24  2  0
 24 25  1  0
 25 26  2  0
 26 27  1  0
 27 28  2  0
 27 29  1  0
 17 30  1  0
 30 31  1  0
 30 32  2  0
  2 33  1  0
 33 34  2  0
 34 35  1  0
 35 36  2  0
 36 37  1  0
 36 38  1  0
 38 39  2  0
  8  4  1  0
 32 13  1  0
 39 33  1  0
 26 20  1  0
M  END
>  <Compound_ID>  (90) 
CHEMBL60455

>  <Active>  (90) 
1.0

>  <Smiles>  (90) 
O=C(N[C@@H]1CCC[C@H]1COC(=O)c1cc(O)c(C(=O)c2c(O)cccc2C(=O)O)c(O)c1)c1ccc(O)cc1

>  <canonical_smi>  (90) 
O=C(N[C@@H]1CCC[C@H]1COC(=O)c1cc(O)c(C(=O)c2c(O)cccc2C(=O)O)c(O)c1)c1ccc(O)cc1

>  <Set>  (90) 
G2 active

>  <Set_type>  (90) 
Train

>  <MW>  (90) 
535.51

>  <HBD>  (90) 
6

>  <HBA>  (90) 
10

>  <NRB>  (90) 
8

>  <NR>  (90) 
4

>  <NAR>  (90) 
3

>  <PSA>  (90) 
190.69

>  <Standard Type>  (90) 
nan

>  <Standard Relation>  (90) 
nan

>  <Standard Units>  (90) 
nan

>  <Standard Value>  (90) 
nan

>  <Assay ChEMBL ID>  (90) 
nan

>  <Assay Description>  (90) 
nan

>  <BAO Label>  (90) 
nan

$$$$

     RDKit          2D

 44 52  0  0  0  0  0  0  0  0999 V2000
    6.4640   -1.9952    0.0000 C   0  0  0  0  0  0  0  0  0  0  0  0
    4.9655   -1.9279    0.0000 O   0  0  0  0  0  0  0  0  0  0  0  0
    4.1580   -3.1920    0.0000 C   0  0  0  0  0  0  0  0  0  0  0  0
    4.8489   -4.5234    0.0000 C   0  0  0  0  0  0  0  0  0  0  0  0
    6.3474   -4.5907    0.0000 N   0  0  0  0  0  0  0  0  0  0  0  0
    7.1549   -3.3266    0.0000 C   0  0  0  0  0  0  0  0  0  0  0  0
    7.0384   -5.9220    0.0000 C   0  0  0  0  0  0  0  0  0  0  0  0
    6.2309   -7.1861    0.0000 O   0  0  0  0  0  0  0  0  0  0  0  0
    8.5369   -5.9893    0.0000 C   0  0  0  0  0  0  0  0  0  0  0  0
    9.3444   -4.7252    0.0000 C   0  0  0  0  0  0  0  0  0  0  0  0
   10.8429   -4.7925    0.0000 C   0  0  0  0  0  0  0  0  0  0  0  0
   11.5338   -6.1239    0.0000 C   0  0  0  0  0  0  0  0  0  0  0  0
   10.7263   -7.3880    0.0000 C   0  0  0  0  0  0  0  0  0  0  0  0
    9.2278   -7.3207    0.0000 C   0  0  0  0  0  0  0  0  0  0  0  0
    4.0414   -5.7874    0.0000 C   0  0  0  0  0  0  0  0  0  0  0  0
    2.5382   -5.8249    0.0000 C   0  0  0  0  0  0  0  0  0  0  0  0
    3.2490   -4.5040    0.0000 O   0  0  0  0  0  0  0  0  0  0  0  0
    2.6595   -3.1247    0.0000 C   0  0  0  0  0  0  0  0  0  0  0  0
    3.6464   -1.9951    0.0000 C   0  0  0  0  0  0  0  0  0  0  0  0
    1.2135   -2.7256    0.0000 N   0  0  0  0  0  0  0  0  0  0  0  0
    0.7500   -1.2990    0.0000 C   0  0  0  0  0  0  0  0  0  0  0  0
    1.5000    0.0000    0.0000 C   0  0  0  0  0  0  0  0  0  0  0  0
    0.7500    1.2990    0.0000 C   0  0  0  0  0  0  0  0  0  0  0  0
   -0.7500    1.2990    0.0000 C   0  0  0  0  0  0  0  0  0  0  0  0
   -1.5000    0.0000    0.0000 C   0  0  0  0  0  0  0  0  0  0  0  0
   -0.7500   -1.2990    0.0000 C   0  0  0  0  0  0  0  0  0  0  0  0
   -1.2135   -2.7256    0.0000 C   0  0  0  0  0  0  0  0  0  0  0  0
   -2.5518   -3.5691    0.0000 C   0  0  0  0  0  0  0  0  0  0  0  0
   -2.6191   -5.0676    0.0000 C   0  0  0  0  0  0  0  0  0  0  0  0
   -1.3550   -5.8751    0.0000 C   0  0  0  0  0  0  0  0  0  0  0  0
   -1.0212   -7.3375    0.0000 C   0  0  0  0  0  0  0  0  0  0  0  0
   -1.8846   -8.5641    0.0000 C   0  0  0  0  0  0  0  0  0  0  0  0
   -1.2541   -9.9251    0.0000 C   0  0  0  0  0  0  0  0  0  0  0  0
    0.2399  -10.0596    0.0000 C   0  0  0  0  0  0  0  0  0  0  0  0
    1.1033   -8.8330    0.0000 C   0  0  0  0  0  0  0  0  0  0  0  0
    0.4728   -7.4720    0.0000 C   0  0  0  0  0  0  0  0  0  0  0  0
    1.0623   -6.0927    0.0000 N   0  0  0  0  0  0  0  0  0  0  0  0
   -0.0673   -5.1058    0.0000 C   0  0  0  0  0  0  0  0  0  0  0  0
   -0.0000   -3.6073    0.0000 C   0  0  0  0  0  0  0  0  0  0  0  0
   -4.0650   -5.4667    0.0000 C   0  0  0  0  0  0  0  0  0  0  0  0
   -4.5921   -6.8710    0.0000 O   0  0  0  0  0  0  0  0  0  0  0  0
   -4.8913   -4.2148    0.0000 N   0  0  0  0  0  0  0  0  0  0  0  0
   -3.9561   -3.0421    0.0000 C   0  0  0  0  0  0  0  0  0  0  0  0
   -4.3552   -1.5961    0.0000 O   0  0  0  0  0  0  0  0  0  0  0  0
  1  2  1  0
  3  2  1  1
  3  4  1  0
  4  5  1  1
  5  6  1  0
  5  7  1  0
  7  8  2  0
  7  9  1  0
  9 10  2  0
 10 11  1  0
 11 12  2  0
 12 13  1  0
 13 14  2  0
  4 15  1  0
 16 15  1  1
 16 17  1  0
 17 18  1  0
 18 19  1  6
 18 20  1  0
 20 21  1  0
 21 22  2  0
 22 23  1  0
 23 24  2  0
 24 25  1  0
 25 26  2  0
 26 27  1  0
 27 28  2  0
 28 29  1  0
 29 30  2  0
 30 31  1  0
 31 32  2  0
 32 33  1  0
 33 34  2  0
 34 35  1  0
 35 36  2  0
 36 37  1  0
 37 38  1  0
 38 39  2  0
 29 40  1  0
 40 41  2  0
 40 42  1  0
 42 43  1  0
 43 44  1  6
 18  3  1  0
 39 20  1  0
 14  9  1  0
 37 16  1  0
 26 21  1  0
 39 27  1  0
 43 28  1  0
 38 30  1  0
 36 31  1  0
M  END
>  <Compound_ID>  (91) 
CHEMBL338956

>  <Active>  (91) 
1.0

>  <Smiles>  (91) 
CO[C@H]1[C@@H](N(C)C(=O)c2ccccc2)C[C@@H]2O[C@@]1(C)n1c3ccccc3c3c4c(c5c6ccccc6n2c5c31)C(=O)N[C@@H]4O

>  <canonical_smi>  (91) 
CO[C@H]1[C@@H](N(C)C(=O)c2ccccc2)C[C@@H]2O[C@@]1(C)n1c3ccccc3c3c4c(c5c6ccccc6n2c5c31)C(=O)N[C@@H]4O

>  <Set>  (91) 
G2 active

>  <Set_type>  (91) 
Train

>  <MW>  (91) 
586.65

>  <HBD>  (91) 
2

>  <HBA>  (91) 
5

>  <NRB>  (91) 
3

>  <NR>  (91) 
9

>  <NAR>  (91) 
6

>  <PSA>  (91) 
97.96

>  <Standard Type>  (91) 
nan

>  <Standard Relation>  (91) 
nan

>  <Standard Units>  (91) 
nan

>  <Standard Value>  (91) 
nan

>  <Assay ChEMBL ID>  (91) 
nan

>  <Assay Description>  (91) 
nan

>  <BAO Label>  (91) 
nan

$$$$

     RDKit          2D

 39 45  0  0  0  0  0  0  0  0999 V2000
   -2.6401   -3.1891    0.0000 C   0  0  0  0  0  0  0  0  0  0  0  0
   -1.2135   -2.7256    0.0000 N   0  0  0  0  0  0  0  0  0  0  0  0
   -0.0000   -3.6073    0.0000 C   0  0  0  0  0  0  0  0  0  0  0  0
    1.2135   -2.7256    0.0000 C   0  0  0  0  0  0  0  0  0  0  0  0
    2.6401   -3.1891    0.0000 C   0  0  0  0  0  0  0  0  0  0  0  0
    3.8536   -2.3075    0.0000 C   0  0  0  0  0  0  0  0  0  0  0  0
    3.8536   -0.8075    0.0000 C   0  0  0  0  0  0  0  0  0  0  0  0
    2.6401    0.0742    0.0000 C   0  0  0  0  0  0  0  0  0  0  0  0
    3.1036    1.5008    0.0000 N   0  0  0  0  0  0  0  0  0  0  0  0
    2.2220    2.7143    0.0000 C   0  0  0  0  0  0  0  0  0  0  0  0
    2.8321    4.0846    0.0000 C   0  0  0  0  0  0  0  0  0  0  0  0
    1.9504    5.2982    0.0000 C   0  0  0  0  0  0  0  0  0  0  0  0
    0.4586    5.1414    0.0000 N   0  0  0  0  0  0  0  0  0  0  0  0
   -0.4231    6.3549    0.0000 C   0  0  0  0  0  0  0  0  0  0  0  0
    0.1870    7.7252    0.0000 C   0  0  0  0  0  0  0  0  0  0  0  0
    1.6788    7.8820    0.0000 C   0  0  0  0  0  0  0  0  0  0  0  0
    2.2889    9.2523    0.0000 C   0  0  0  0  0  0  0  0  0  0  0  0
    1.4072   10.4658    0.0000 C   0  0  0  0  0  0  0  0  0  0  0  0
   -0.0845   10.3091    0.0000 C   0  0  0  0  0  0  0  0  0  0  0  0
   -0.6946    8.9387    0.0000 N   0  0  0  0  0  0  0  0  0  0  0  0
   -0.1515    3.7711    0.0000 C   0  0  0  0  0  0  0  0  0  0  0  0
    0.7302    2.5575    0.0000 C   0  0  0  0  0  0  0  0  0  0  0  0
    4.6036    1.5008    0.0000 C   0  0  0  0  0  0  0  0  0  0  0  0
    5.6073    2.6155    0.0000 C   0  0  0  0  0  0  0  0  0  0  0  0
    7.0746    2.3036    0.0000 C   0  0  0  0  0  0  0  0  0  0  0  0
    7.5381    0.8771    0.0000 C   0  0  0  0  0  0  0  0  0  0  0  0
    6.5344   -0.2377    0.0000 C   0  0  0  0  0  0  0  0  0  0  0  0
    5.0672    0.0742    0.0000 C   0  0  0  0  0  0  0  0  0  0  0  0
    5.0672   -3.1891    0.0000 C   0  0  0  0  0  0  0  0  0  0  0  0
    6.4937   -2.7256    0.0000 O   0  0  0  0  0  0  0  0  0  0  0  0
    4.6036   -4.6157    0.0000 N   0  0  0  0  0  0  0  0  0  0  0  0
    3.1036   -4.6157    0.0000 C   0  0  0  0  0  0  0  0  0  0  0  0
    2.2220   -5.8293    0.0000 O   0  0  0  0  0  0  0  0  0  0  0  0
    0.7500   -1.2990    0.0000 C   0  0  0  0  0  0  0  0  0  0  0  0
    1.5000    0.0000    0.0000 C   0  0  0  0  0  0  0  0  0  0  0  0
    0.7500    1.2990    0.0000 C   0  0  0  0  0  0  0  0  0  0  0  0
   -0.7500    1.2990    0.0000 C   0  0  0  0  0  0  0  0  0  0  0  0
   -1.5000    0.0000    0.0000 C   0  0  0  0  0  0  0  0  0  0  0  0
   -0.7500   -1.2990    0.0000 C   0  0  0  0  0  0  0  0  0  0  0  0
  1  2  1  0
  2  3  1  0
  3  4  2  0
  4  5  1  0
  5  6  2  0
  6  7  1  0
  7  8  2  0
  8  9  1  0
  9 10  1  0
 10 11  1  0
 11 12  1  0
 12 13  1  0
 13 14  1  0
 14 15  1  0
 15 16  2  0
 16 17  1  0
 17 18  2  0
 18 19  1  0
 19 20  2  0
 13 21  1  0
 21 22  1  0
  9 23  1  0
 23 24  2  0
 24 25  1  0
 25 26  2  0
 26 27  1  0
 27 28  2  0
  6 29  1  0
 29 30  2  0
 29 31  1  0
 31 32  1  0
 32 33  2  0
  4 34  1  0
 34 35  2  0
 35 36  1  0
 36 37  2  0
 37 38  1  0
 38 39  2  0
 39  2  1  0
 32  5  1  0
 39 34  1  0
 28  7  1  0
 22 10  1  0
 28 23  1  0
 20 15  1  0
M  END
>  <Compound_ID>  (92) 
CHEMBL300138

>  <Active>  (92) 
1.0

>  <Smiles>  (92) 
Cn1cc(C2=C(c3cn(C4CCN(Cc5ccccn5)CC4)c4ccccc34)C(=O)NC2=O)c2ccccc21

>  <canonical_smi>  (92) 
Cn1cc(C2=C(c3cn(C4CCN(Cc5ccccn5)CC4)c4ccccc34)C(=O)NC2=O)c2ccccc21

>  <Set>  (92) 
G2 active

>  <Set_type>  (92) 
Train

>  <MW>  (92) 
515.62

>  <HBD>  (92) 
1

>  <HBA>  (92) 
4

>  <NRB>  (92) 
5

>  <NR>  (92) 
7

>  <NAR>  (92) 
5

>  <PSA>  (92) 
72.16

>  <Standard Type>  (92) 
nan

>  <Standard Relation>  (92) 
nan

>  <Standard Units>  (92) 
nan

>  <Standard Value>  (92) 
nan

>  <Assay ChEMBL ID>  (92) 
nan

>  <Assay Description>  (92) 
nan

>  <BAO Label>  (92) 
nan

$$$$

     RDKit          2D

 39 45  0  0  0  0  0  0  0  0999 V2000
   -2.6401   -3.1891    0.0000 C   0  0  0  0  0  0  0  0  0  0  0  0
   -1.2135   -2.7256    0.0000 N   0  0  0  0  0  0  0  0  0  0  0  0
   -0.0000   -3.6073    0.0000 C   0  0  0  0  0  0  0  0  0  0  0  0
    1.2135   -2.7256    0.0000 C   0  0  0  0  0  0  0  0  0  0  0  0
    2.6401   -3.1891    0.0000 C   0  0  0  0  0  0  0  0  0  0  0  0
    3.8536   -2.3075    0.0000 C   0  0  0  0  0  0  0  0  0  0  0  0
    3.8536   -0.8075    0.0000 C   0  0  0  0  0  0  0  0  0  0  0  0
    2.6401    0.0742    0.0000 C   0  0  0  0  0  0  0  0  0  0  0  0
    3.1036    1.5008    0.0000 N   0  0  0  0  0  0  0  0  0  0  0  0
    2.2220    2.7143    0.0000 C   0  0  0  0  0  0  0  0  0  0  0  0
    2.8321    4.0846    0.0000 C   0  0  0  0  0  0  0  0  0  0  0  0
    1.9504    5.2982    0.0000 C   0  0  0  0  0  0  0  0  0  0  0  0
    0.4586    5.1414    0.0000 N   0  0  0  0  0  0  0  0  0  0  0  0
   -0.4231    6.3549    0.0000 C   0  0  0  0  0  0  0  0  0  0  0  0
    0.1870    7.7252    0.0000 C   0  0  0  0  0  0  0  0  0  0  0  0
    1.6788    7.8820    0.0000 C   0  0  0  0  0  0  0  0  0  0  0  0
    2.2889    9.2523    0.0000 C   0  0  0  0  0  0  0  0  0  0  0  0
    1.4072   10.4658    0.0000 C   0  0  0  0  0  0  0  0  0  0  0  0
   -0.0845   10.3091    0.0000 C   0  0  0  0  0  0  0  0  0  0  0  0
   -0.6946    8.9387    0.0000 C   0  0  0  0  0  0  0  0  0  0  0  0
   -0.1515    3.7711    0.0000 C   0  0  0  0  0  0  0  0  0  0  0  0
    0.7302    2.5575    0.0000 C   0  0  0  0  0  0  0  0  0  0  0  0
    4.6036    1.5008    0.0000 C   0  0  0  0  0  0  0  0  0  0  0  0
    5.6073    2.6155    0.0000 C   0  0  0  0  0  0  0  0  0  0  0  0
    7.0746    2.3036    0.0000 C   0  0  0  0  0  0  0  0  0  0  0  0
    7.5381    0.8771    0.0000 C   0  0  0  0  0  0  0  0  0  0  0  0
    6.5344   -0.2377    0.0000 C   0  0  0  0  0  0  0  0  0  0  0  0
    5.0672    0.0742    0.0000 C   0  0  0  0  0  0  0  0  0  0  0  0
    5.0672   -3.1891    0.0000 C   0  0  0  0  0  0  0  0  0  0  0  0
    6.4937   -2.7256    0.0000 O   0  0  0  0  0  0  0  0  0  0  0  0
    4.6036   -4.6157    0.0000 N   0  0  0  0  0  0  0  0  0  0  0  0
    3.1036   -4.6157    0.0000 C   0  0  0  0  0  0  0  0  0  0  0  0
    2.2220   -5.8293    0.0000 O   0  0  0  0  0  0  0  0  0  0  0  0
    0.7500   -1.2990    0.0000 C   0  0  0  0  0  0  0  0  0  0  0  0
    1.5000    0.0000    0.0000 C   0  0  0  0  0  0  0  0  0  0  0  0
    0.7500    1.2990    0.0000 C   0  0  0  0  0  0  0  0  0  0  0  0
   -0.7500    1.2990    0.0000 C   0  0  0  0  0  0  0  0  0  0  0  0
   -1.5000    0.0000    0.0000 C   0  0  0  0  0  0  0  0  0  0  0  0
   -0.7500   -1.2990    0.0000 C   0  0  0  0  0  0  0  0  0  0  0  0
  1  2  1  0
  2  3  1  0
  3  4  2  0
  4  5  1  0
  5  6  2  0
  6  7  1  0
  7  8  2  0
  8  9  1  0
  9 10  1  0
 10 11  1  0
 11 12  1  0
 12 13  1  0
 13 14  1  0
 14 15  1  0
 15 16  2  0
 16 17  1  0
 17 18  2  0
 18 19  1  0
 19 20  2  0
 13 21  1  0
 21 22  1  0
  9 23  1  0
 23 24  2  0
 24 25  1  0
 25 26  2  0
 26 27  1  0
 27 28  2  0
  6 29  1  0
 29 30  2  0
 29 31  1  0
 31 32  1  0
 32 33  2  0
  4 34  1  0
 34 35  2  0
 35 36  1  0
 36 37  2  0
 37 38  1  0
 38 39  2  0
 39  2  1  0
 32  5  1  0
 39 34  1  0
 28  7  1  0
 22 10  1  0
 28 23  1  0
 20 15  1  0
M  END
>  <Compound_ID>  (93) 
CHEMBL300549

>  <Active>  (93) 
1.0

>  <Smiles>  (93) 
Cn1cc(C2=C(c3cn(C4CCN(Cc5ccccc5)CC4)c4ccccc34)C(=O)NC2=O)c2ccccc21

>  <canonical_smi>  (93) 
Cn1cc(C2=C(c3cn(C4CCN(Cc5ccccc5)CC4)c4ccccc34)C(=O)NC2=O)c2ccccc21

>  <Set>  (93) 
G2 active

>  <Set_type>  (93) 
Train

>  <MW>  (93) 
514.63

>  <HBD>  (93) 
1

>  <HBA>  (93) 
3

>  <NRB>  (93) 
5

>  <NR>  (93) 
7

>  <NAR>  (93) 
5

>  <PSA>  (93) 
59.27

>  <Standard Type>  (93) 
nan

>  <Standard Relation>  (93) 
nan

>  <Standard Units>  (93) 
nan

>  <Standard Value>  (93) 
nan

>  <Assay ChEMBL ID>  (93) 
nan

>  <Assay Description>  (93) 
nan

>  <BAO Label>  (93) 
nan

$$$$

     RDKit          2D

 43 51  0  0  0  0  0  0  0  0999 V2000
    6.4640   -1.9952    0.0000 C   0  0  0  0  0  0  0  0  0  0  0  0
    4.9655   -1.9279    0.0000 O   0  0  0  0  0  0  0  0  0  0  0  0
    4.1580   -3.1920    0.0000 C   0  0  0  0  0  0  0  0  0  0  0  0
    4.8489   -4.5234    0.0000 C   0  0  0  0  0  0  0  0  0  0  0  0
    6.3474   -4.5907    0.0000 N   0  0  0  0  0  0  0  0  0  0  0  0
    7.1549   -3.3266    0.0000 C   0  0  0  0  0  0  0  0  0  0  0  0
    7.0384   -5.9220    0.0000 C   0  0  0  0  0  0  0  0  0  0  0  0
    6.2309   -7.1861    0.0000 O   0  0  0  0  0  0  0  0  0  0  0  0
    8.5369   -5.9893    0.0000 C   0  0  0  0  0  0  0  0  0  0  0  0
    9.3444   -4.7252    0.0000 C   0  0  0  0  0  0  0  0  0  0  0  0
   10.8429   -4.7925    0.0000 C   0  0  0  0  0  0  0  0  0  0  0  0
   11.5338   -6.1239    0.0000 C   0  0  0  0  0  0  0  0  0  0  0  0
   10.7263   -7.3880    0.0000 N   0  0  0  0  0  0  0  0  0  0  0  0
    9.2278   -7.3207    0.0000 C   0  0  0  0  0  0  0  0  0  0  0  0
    4.0414   -5.7874    0.0000 C   0  0  0  0  0  0  0  0  0  0  0  0
    2.5382   -5.8249    0.0000 C   0  0  0  0  0  0  0  0  0  0  0  0
    3.2490   -4.5040    0.0000 O   0  0  0  0  0  0  0  0  0  0  0  0
    2.6595   -3.1247    0.0000 C   0  0  0  0  0  0  0  0  0  0  0  0
    3.6464   -1.9951    0.0000 C   0  0  0  0  0  0  0  0  0  0  0  0
    1.2135   -2.7256    0.0000 N   0  0  0  0  0  0  0  0  0  0  0  0
    0.7500   -1.2990    0.0000 C   0  0  0  0  0  0  0  0  0  0  0  0
    1.5000    0.0000    0.0000 C   0  0  0  0  0  0  0  0  0  0  0  0
    0.7500    1.2990    0.0000 C   0  0  0  0  0  0  0  0  0  0  0  0
   -0.7500    1.2990    0.0000 C   0  0  0  0  0  0  0  0  0  0  0  0
   -1.5000    0.0000    0.0000 C   0  0  0  0  0  0  0  0  0  0  0  0
   -0.7500   -1.2990    0.0000 C   0  0  0  0  0  0  0  0  0  0  0  0
   -1.2135   -2.7256    0.0000 C   0  0  0  0  0  0  0  0  0  0  0  0
   -2.5518   -3.5691    0.0000 C   0  0  0  0  0  0  0  0  0  0  0  0
   -2.6191   -5.0676    0.0000 C   0  0  0  0  0  0  0  0  0  0  0  0
   -1.3550   -5.8751    0.0000 C   0  0  0  0  0  0  0  0  0  0  0  0
   -1.0212   -7.3375    0.0000 C   0  0  0  0  0  0  0  0  0  0  0  0
   -1.8846   -8.5641    0.0000 C   0  0  0  0  0  0  0  0  0  0  0  0
   -1.2541   -9.9251    0.0000 C   0  0  0  0  0  0  0  0  0  0  0  0
    0.2399  -10.0596    0.0000 C   0  0  0  0  0  0  0  0  0  0  0  0
    1.1033   -8.8330    0.0000 C   0  0  0  0  0  0  0  0  0  0  0  0
    0.4728   -7.4720    0.0000 C   0  0  0  0  0  0  0  0  0  0  0  0
    1.0623   -6.0927    0.0000 N   0  0  0  0  0  0  0  0  0  0  0  0
   -0.0673   -5.1058    0.0000 C   0  0  0  0  0  0  0  0  0  0  0  0
   -0.0000   -3.6073    0.0000 C   0  0  0  0  0  0  0  0  0  0  0  0
   -4.0650   -5.4667    0.0000 C   0  0  0  0  0  0  0  0  0  0  0  0
   -4.5921   -6.8710    0.0000 O   0  0  0  0  0  0  0  0  0  0  0  0
   -4.8913   -4.2148    0.0000 N   0  0  0  0  0  0  0  0  0  0  0  0
   -3.9561   -3.0421    0.0000 C   0  0  0  0  0  0  0  0  0  0  0  0
  1  2  1  0
  3  2  1  1
  3  4  1  0
  4  5  1  1
  5  6  1  0
  5  7  1  0
  7  8  2  0
  7  9  1  0
  9 10  2  0
 10 11  1  0
 11 12  2  0
 12 13  1  0
 13 14  2  0
  4 15  1  0
 16 15  1  1
 16 17  1  0
 17 18  1  0
 18 19  1  6
 18 20  1  0
 20 21  1  0
 21 22  2  0
 22 23  1  0
 23 24  2  0
 24 25  1  0
 25 26  2  0
 26 27  1  0
 27 28  2  0
 28 29  1  0
 29 30  2  0
 30 31  1  0
 31 32  2  0
 32 33  1  0
 33 34  2  0
 34 35  1  0
 35 36  2  0
 36 37  1  0
 37 38  1  0
 38 39  2  0
 29 40  1  0
 40 41  2  0
 40 42  1  0
 42 43  1  0
 18  3  1  0
 39 20  1  0
 14  9  1  0
 37 16  1  0
 26 21  1  0
 39 27  1  0
 43 28  1  0
 38 30  1  0
 36 31  1  0
M  END
>  <Compound_ID>  (94) 
CHEMBL335012

>  <Active>  (94) 
1.0

>  <Smiles>  (94) 
CO[C@H]1[C@@H](N(C)C(=O)c2cccnc2)C[C@@H]2O[C@@]1(C)n1c3ccccc3c3c4c(c5c6ccccc6n2c5c31)C(=O)NC4

>  <canonical_smi>  (94) 
CO[C@H]1[C@@H](N(C)C(=O)c2cccnc2)C[C@@H]2O[C@@]1(C)n1c3ccccc3c3c4c(c5c6ccccc6n2c5c31)C(=O)NC4

>  <Set>  (94) 
G2 active

>  <Set_type>  (94) 
Train

>  <MW>  (94) 
571.64

>  <HBD>  (94) 
1

>  <HBA>  (94) 
5

>  <NRB>  (94) 
3

>  <NR>  (94) 
9

>  <NAR>  (94) 
6

>  <PSA>  (94) 
90.62

>  <Standard Type>  (94) 
nan

>  <Standard Relation>  (94) 
nan

>  <Standard Units>  (94) 
nan

>  <Standard Value>  (94) 
nan

>  <Assay ChEMBL ID>  (94) 
nan

>  <Assay Description>  (94) 
nan

>  <BAO Label>  (94) 
nan

$$$$

     RDKit          2D

 40 46  0  0  0  0  0  0  0  0999 V2000
   -6.1170   -7.0506    0.0000 C   0  0  0  0  0  0  0  0  0  0  0  0
   -4.6904   -6.5871    0.0000 N   0  0  0  0  0  0  0  0  0  0  0  0
   -3.5757   -7.5908    0.0000 C   0  0  0  0  0  0  0  0  0  0  0  0
   -4.3786   -5.1199    0.0000 C   0  0  0  0  0  0  0  0  0  0  0  0
   -2.9520   -4.6564    0.0000 C   0  0  0  0  0  0  0  0  0  0  0  0
   -2.6401   -3.1891    0.0000 C   0  0  0  0  0  0  0  0  0  0  0  0
   -1.2135   -2.7256    0.0000 N   0  0  0  0  0  0  0  0  0  0  0  0
   -0.0000   -3.6073    0.0000 N   0  0  0  0  0  0  0  0  0  0  0  0
    1.2135   -2.7256    0.0000 C   0  0  0  0  0  0  0  0  0  0  0  0
    2.6401   -3.1891    0.0000 C   0  0  0  0  0  0  0  0  0  0  0  0
    3.8536   -2.3075    0.0000 C   0  0  0  0  0  0  0  0  0  0  0  0
    3.8536   -0.8075    0.0000 C   0  0  0  0  0  0  0  0  0  0  0  0
    2.6401    0.0742    0.0000 C   0  0  0  0  0  0  0  0  0  0  0  0
    3.1036    1.5008    0.0000 N   0  0  0  0  0  0  0  0  0  0  0  0
    2.2220    2.7143    0.0000 C   0  0  0  0  0  0  0  0  0  0  0  0
    0.7220    2.7143    0.0000 C   0  0  0  0  0  0  0  0  0  0  0  0
    0.2584    4.1409    0.0000 S   0  0  0  0  0  0  0  0  0  0  0  0
    1.4720    5.0226    0.0000 C   0  0  0  0  0  0  0  0  0  0  0  0
    1.6288    6.5144    0.0000 C   0  0  0  0  0  0  0  0  0  0  0  0
    2.9991    7.1245    0.0000 C   0  0  0  0  0  0  0  0  0  0  0  0
    4.2126    6.2428    0.0000 C   0  0  0  0  0  0  0  0  0  0  0  0
    4.0558    4.7510    0.0000 C   0  0  0  0  0  0  0  0  0  0  0  0
    2.6855    4.1409    0.0000 C   0  0  0  0  0  0  0  0  0  0  0  0
    4.6036    1.5008    0.0000 C   0  0  0  0  0  0  0  0  0  0  0  0
    5.6073    2.6155    0.0000 C   0  0  0  0  0  0  0  0  0  0  0  0
    7.0746    2.3036    0.0000 C   0  0  0  0  0  0  0  0  0  0  0  0
    7.5381    0.8771    0.0000 C   0  0  0  0  0  0  0  0  0  0  0  0
    6.5344   -0.2377    0.0000 C   0  0  0  0  0  0  0  0  0  0  0  0
    5.0672    0.0742    0.0000 C   0  0  0  0  0  0  0  0  0  0  0  0
    5.0672   -3.1891    0.0000 C   0  0  0  0  0  0  0  0  0  0  0  0
    6.4937   -2.7256    0.0000 O   0  0  0  0  0  0  0  0  0  0  0  0
    4.6036   -4.6157    0.0000 N   0  0  0  0  0  0  0  0  0  0  0  0
    3.1036   -4.6157    0.0000 C   0  0  0  0  0  0  0  0  0  0  0  0
    2.2220   -5.8293    0.0000 O   0  0  0  0  0  0  0  0  0  0  0  0
    0.7500   -1.2990    0.0000 C   0  0  0  0  0  0  0  0  0  0  0  0
    1.5000    0.0000    0.0000 C   0  0  0  0  0  0  0  0  0  0  0  0
    0.7500    1.2990    0.0000 C   0  0  0  0  0  0  0  0  0  0  0  0
   -0.7500    1.2990    0.0000 C   0  0  0  0  0  0  0  0  0  0  0  0
   -1.5000    0.0000    0.0000 C   0  0  0  0  0  0  0  0  0  0  0  0
   -0.7500   -1.2990    0.0000 C   0  0  0  0  0  0  0  0  0  0  0  0
  1  2  1  0
  2  3  1  0
  2  4  1  0
  4  5  1  0
  5  6  1  0
  6  7  1  0
  7  8  1  0
  8  9  2  0
  9 10  1  0
 10 11  2  0
 11 12  1  0
 12 13  2  0
 13 14  1  0
 14 15  1  0
 15 16  2  0
 16 17  1  0
 17 18  1  0
 18 19  2  0
 19 20  1  0
 20 21  2  0
 21 22  1  0
 22 23  2  0
 14 24  1  0
 24 25  2  0
 25 26  1  0
 26 27  2  0
 27 28  1  0
 28 29  2  0
 11 30  1  0
 30 31  2  0
 30 32  1  0
 32 33  1  0
 33 34  2  0
  9 35  1  0
 35 36  2  0
 36 37  1  0
 37 38  2  0
 38 39  1  0
 39 40  2  0
 40  7  1  0
 33 10  1  0
 40 35  1  0
 29 12  1  0
 23 15  1  0
 29 24  1  0
 23 18  1  0
M  END
>  <Compound_ID>  (95) 
CHEMBL426587

>  <Active>  (95) 
1.0

>  <Smiles>  (95) 
CN(C)CCCn1nc(C2=C(c3cn(-c4csc5ccccc45)c4ccccc34)C(=O)NC2=O)c2ccccc21

>  <canonical_smi>  (95) 
CN(C)CCCn1nc(C2=C(c3cn(-c4csc5ccccc45)c4ccccc34)C(=O)NC2=O)c2ccccc21

>  <Set>  (95) 
G2 active

>  <Set_type>  (95) 
Train

>  <MW>  (95) 
545.67

>  <HBD>  (95) 
1

>  <HBA>  (95) 
4

>  <NRB>  (95) 
7

>  <NR>  (95) 
7

>  <NAR>  (95) 
6

>  <PSA>  (95) 
72.16

>  <Standard Type>  (95) 
nan

>  <Standard Relation>  (95) 
nan

>  <Standard Units>  (95) 
nan

>  <Standard Value>  (95) 
nan

>  <Assay ChEMBL ID>  (95) 
nan

>  <Assay Description>  (95) 
nan

>  <BAO Label>  (95) 
nan

$$$$

     RDKit          2D

 43 50  0  0  0  0  0  0  0  0999 V2000
   -6.1298   -5.1885    0.0000 O   0  0  0  0  0  0  0  0  0  0  0  0
   -5.9730   -6.6803    0.0000 C   0  0  0  0  0  0  0  0  0  0  0  0
   -7.0877   -7.6840    0.0000 N   0  0  0  0  0  0  0  0  0  0  0  0
   -6.4776   -9.0543    0.0000 C   0  0  0  0  0  0  0  0  0  0  0  0
   -7.2276  -10.3533    0.0000 O   0  0  0  0  0  0  0  0  0  0  0  0
   -4.9858   -8.8975    0.0000 C   0  0  0  0  0  0  0  0  0  0  0  0
   -3.9821  -10.0122    0.0000 C   0  0  0  0  0  0  0  0  0  0  0  0
   -2.4904   -9.8554    0.0000 N   0  0  0  0  0  0  0  0  0  0  0  0
   -1.8803  -11.2257    0.0000 N   0  0  0  0  0  0  0  0  0  0  0  0
   -0.4130  -11.5376    0.0000 C   0  0  0  0  0  0  0  0  0  0  0  0
    0.0505  -12.9642    0.0000 C   0  0  0  0  0  0  0  0  0  0  0  0
    1.5177  -13.2761    0.0000 C   0  0  0  0  0  0  0  0  0  0  0  0
    1.9812  -14.7026    0.0000 N   0  0  0  0  0  0  0  0  0  0  0  0
    3.4078  -15.1662    0.0000 C   0  0  0  0  0  0  0  0  0  0  0  0
    3.4078  -16.6662    0.0000 C   0  0  0  0  0  0  0  0  0  0  0  0
    1.9812  -17.1297    0.0000 C   0  0  0  0  0  0  0  0  0  0  0  0
    1.0996  -15.9162    0.0000 C   0  0  0  0  0  0  0  0  0  0  0  0
   -2.9950  -12.2294    0.0000 C   0  0  0  0  0  0  0  0  0  0  0  0
   -2.9950  -13.7294    0.0000 C   0  0  0  0  0  0  0  0  0  0  0  0
   -4.2940  -14.4794    0.0000 C   0  0  0  0  0  0  0  0  0  0  0  0
   -5.5930  -13.7294    0.0000 C   0  0  0  0  0  0  0  0  0  0  0  0
   -5.5930  -12.2294    0.0000 C   0  0  0  0  0  0  0  0  0  0  0  0
   -4.2940  -11.4794    0.0000 C   0  0  0  0  0  0  0  0  0  0  0  0
   -4.6740   -7.4303    0.0000 C   0  0  0  0  0  0  0  0  0  0  0  0
   -3.3037   -6.8202    0.0000 C   0  0  0  0  0  0  0  0  0  0  0  0
   -2.9918   -5.3529    0.0000 C   0  0  0  0  0  0  0  0  0  0  0  0
   -1.5000   -5.1962    0.0000 N   0  0  0  0  0  0  0  0  0  0  0  0
   -0.7500   -3.8971    0.0000 C   0  0  0  0  0  0  0  0  0  0  0  0
    0.7500   -3.8971    0.0000 C   0  0  0  0  0  0  0  0  0  0  0  0
    1.5000   -2.5981    0.0000 C   0  0  0  0  0  0  0  0  0  0  0  0
    0.7500   -1.2990    0.0000 C   0  0  0  0  0  0  0  0  0  0  0  0
    1.5000    0.0000    0.0000 C   0  0  0  0  0  0  0  0  0  0  0  0
    0.7500    1.2990    0.0000 C   0  0  0  0  0  0  0  0  0  0  0  0
   -0.7500    1.2990    0.0000 C   0  0  0  0  0  0  0  0  0  0  0  0
   -1.5000    0.0000    0.0000 C   0  0  0  0  0  0  0  0  0  0  0  0
   -0.7500   -1.2990    0.0000 C   0  0  0  0  0  0  0  0  0  0  0  0
   -1.5000   -2.5981    0.0000 C   0  0  0  0  0  0  0  0  0  0  0  0
   -0.8899   -6.5665    0.0000 C   0  0  0  0  0  0  0  0  0  0  0  0
    0.5367   -7.0300    0.0000 C   0  0  0  0  0  0  0  0  0  0  0  0
    0.8486   -8.4972    0.0000 C   0  0  0  0  0  0  0  0  0  0  0  0
   -0.2662   -9.5009    0.0000 C   0  0  0  0  0  0  0  0  0  0  0  0
   -1.6927   -9.0374    0.0000 C   0  0  0  0  0  0  0  0  0  0  0  0
   -2.0046   -7.5702    0.0000 C   0  0  0  0  0  0  0  0  0  0  0  0
  1  2  2  0
  2  3  1  0
  3  4  1  0
  4  5  2  0
  4  6  1  0
  6  7  1  0
  7  8  2  0
  8  9  1  0
  9 10  1  0
 10 11  1  0
 11 12  1  0
 12 13  1  0
 13 14  1  0
 14 15  1  0
 15 16  1  0
 16 17  1  0
  9 18  1  0
 18 19  2  0
 19 20  1  0
 20 21  2  0
 21 22  1  0
 22 23  2  0
  6 24  2  0
 24 25  1  0
 25 26  2  0
 26 27  1  0
 27 28  1  0
 28 29  2  0
 29 30  1  0
 30 31  2  0
 31 32  1  0
 32 33  2  0
 33 34  1  0
 34 35  2  0
 35 36  1  0
 36 37  2  0
 27 38  1  0
 38 39  2  0
 39 40  1  0
 40 41  2  0
 41 42  1  0
 42 43  2  0
 24  2  1  0
 43 25  1  0
 23  7  1  0
 37 28  1  0
 43 38  1  0
 17 13  1  0
 23 18  1  0
 36 31  1  0
M  END
>  <Compound_ID>  (96) 
CHEMBL367107

>  <Active>  (96) 
1.0

>  <Smiles>  (96) 
O=C1NC(=O)C(c2nn(CCCN3CCCC3)c3ccccc23)=C1c1cn(-c2ccc3ccccc3c2)c2ccccc12

>  <canonical_smi>  (96) 
O=C1NC(=O)C(c2nn(CCCN3CCCC3)c3ccccc23)=C1c1cn(-c2ccc3ccccc3c2)c2ccccc12

>  <Set>  (96) 
G2 active

>  <Set_type>  (96) 
Train

>  <MW>  (96) 
565.68

>  <HBD>  (96) 
1

>  <HBA>  (96) 
4

>  <NRB>  (96) 
7

>  <NR>  (96) 
8

>  <NAR>  (96) 
6

>  <PSA>  (96) 
72.16

>  <Standard Type>  (96) 
nan

>  <Standard Relation>  (96) 
nan

>  <Standard Units>  (96) 
nan

>  <Standard Value>  (96) 
nan

>  <Assay ChEMBL ID>  (96) 
nan

>  <Assay Description>  (96) 
nan

>  <BAO Label>  (96) 
nan

$$$$

     RDKit          2D

 37 43  0  0  0  0  0  0  0  0999 V2000
   -3.2691   -1.1378    0.0000 O   0  0  0  0  0  0  0  0  0  0  0  0
   -3.4705   -2.6243    0.0000 C   0  0  0  0  0  0  0  0  0  0  0  0
   -4.7914   -3.3351    0.0000 N   0  0  0  0  0  0  0  0  0  0  0  0
   -4.5235   -4.8110    0.0000 C   0  0  0  0  0  0  0  0  0  0  0  0
   -5.5601   -5.8952    0.0000 O   0  0  0  0  0  0  0  0  0  0  0  0
   -3.0371   -5.0123    0.0000 C   0  0  0  0  0  0  0  0  0  0  0  0
   -2.3863   -3.6609    0.0000 C   0  0  0  0  0  0  0  0  0  0  0  0
   -1.2135   -2.7256    0.0000 C   0  0  0  0  0  0  0  0  0  0  0  0
   -0.0000   -3.6073    0.0000 C   0  0  0  0  0  0  0  0  0  0  0  0
    1.2135   -2.7256    0.0000 N   0  0  0  0  0  0  0  0  0  0  0  0
    0.7500   -1.2990    0.0000 C   0  0  0  0  0  0  0  0  0  0  0  0
    1.5000    0.0000    0.0000 C   0  0  0  0  0  0  0  0  0  0  0  0
    0.7500    1.2990    0.0000 C   0  0  0  0  0  0  0  0  0  0  0  0
   -0.7500    1.2990    0.0000 C   0  0  0  0  0  0  0  0  0  0  0  0
   -1.5000    0.0000    0.0000 C   0  0  0  0  0  0  0  0  0  0  0  0
   -0.7500   -1.2990    0.0000 C   0  0  0  0  0  0  0  0  0  0  0  0
    2.8840   -3.6609    0.0000 C   0  0  0  0  0  0  0  0  0  0  0  0
    3.5348   -5.0123    0.0000 C   0  0  0  0  0  0  0  0  0  0  0  0
    3.5348   -6.5123    0.0000 O   0  0  0  0  0  0  0  0  0  0  0  0
    2.8840   -7.8638    0.0000 C   0  0  0  0  0  0  0  0  0  0  0  0
    4.0568   -8.7990    0.0000 C   0  0  0  0  0  0  0  0  0  0  0  0
    3.8332  -10.2822    0.0000 N   0  0  0  0  0  0  0  0  0  0  0  0
    4.9018  -11.3349    0.0000 C   0  0  0  0  0  0  0  0  0  0  0  0
    4.2308  -12.6765    0.0000 C   0  0  0  0  0  0  0  0  0  0  0  0
    2.7475  -12.4529    0.0000 C   0  0  0  0  0  0  0  0  0  0  0  0
    2.5018  -10.9732    0.0000 C   0  0  0  0  0  0  0  0  0  0  0  0
    1.7113   -8.7990    0.0000 C   0  0  0  0  0  0  0  0  0  0  0  0
    0.2489   -9.1328    0.0000 C   0  0  0  0  0  0  0  0  0  0  0  0
   -1.2135   -8.7990    0.0000 N   0  0  0  0  0  0  0  0  0  0  0  0
   -2.3863   -7.8638    0.0000 C   0  0  0  0  0  0  0  0  0  0  0  0
   -3.0371   -6.5123    0.0000 C   0  0  0  0  0  0  0  0  0  0  0  0
   -3.8634   -7.7642    0.0000 C   0  0  0  0  0  0  0  0  0  0  0  0
   -5.3467   -7.9877    0.0000 C   0  0  0  0  0  0  0  0  0  0  0  0
   -5.8947   -9.3840    0.0000 C   0  0  0  0  0  0  0  0  0  0  0  0
   -4.9595  -10.5568    0.0000 C   0  0  0  0  0  0  0  0  0  0  0  0
   -3.4762  -10.3332    0.0000 C   0  0  0  0  0  0  0  0  0  0  0  0
   -2.9282   -8.9369    0.0000 C   0  0  0  0  0  0  0  0  0  0  0  0
  1  2  2  0
  2  3  1  0
  3  4  1  0
  4  5  2  0
  4  6  1  0
  6  7  2  0
  7  8  1  0
  8  9  2  0
  9 10  1  0
 10 11  1  0
 11 12  2  0
 12 13  1  0
 13 14  2  0
 14 15  1  0
 15 16  2  0
 10 17  1  0
 17 18  1  0
 18 19  1  0
 19 20  1  0
 20 21  1  6
 21 22  1  0
 22 23  1  0
 23 24  1  0
 24 25  1  0
 25 26  1  0
 20 27  1  0
 27 28  1  0
 28 29  1  0
 29 30  1  0
 30 31  2  0
 31 32  1  0
 32 33  2  0
 33 34  1  0
 34 35  2  0
 35 36  1  0
 36 37  2  0
  7  2  1  0
 16  8  1  0
 26 22  1  0
 37 29  1  0
 31  6  1  0
 37 32  1  0
 16 11  1  0
M  END
>  <Compound_ID>  (97) 
CHEMBL419866

>  <Active>  (97) 
1.0

>  <Smiles>  (97) 
O=C1NC(=O)C2=C1c1cn(c3ccccc13)CCO[C@H](CN1CCCC1)CCn1cc2c2ccccc21

>  <canonical_smi>  (97) 
O=C1NC(=O)C2=C1c1cn(c3ccccc13)CCO[C@H](CN1CCCC1)CCn1cc2c2ccccc21

>  <Set>  (97) 
G2 active

>  <Set_type>  (97) 
Train

>  <MW>  (97) 
494.6

>  <HBD>  (97) 
1

>  <HBA>  (97) 
4

>  <NRB>  (97) 
2

>  <NR>  (97) 
7

>  <NAR>  (97) 
4

>  <PSA>  (97) 
68.5

>  <Standard Type>  (97) 
nan

>  <Standard Relation>  (97) 
nan

>  <Standard Units>  (97) 
nan

>  <Standard Value>  (97) 
nan

>  <Assay ChEMBL ID>  (97) 
nan

>  <Assay Description>  (97) 
nan

>  <BAO Label>  (97) 
nan

$$$$

     RDKit          2D

 42 48  0  0  0  0  0  0  0  0999 V2000
   -3.2691   -1.1378    0.0000 O   0  0  0  0  0  0  0  0  0  0  0  0
   -3.4705   -2.6243    0.0000 C   0  0  0  0  0  0  0  0  0  0  0  0
   -4.7914   -3.3351    0.0000 N   0  0  0  0  0  0  0  0  0  0  0  0
   -4.5235   -4.8110    0.0000 C   0  0  0  0  0  0  0  0  0  0  0  0
   -5.5601   -5.8952    0.0000 O   0  0  0  0  0  0  0  0  0  0  0  0
   -3.0371   -5.0123    0.0000 C   0  0  0  0  0  0  0  0  0  0  0  0
   -2.3863   -3.6609    0.0000 C   0  0  0  0  0  0  0  0  0  0  0  0
   -1.2135   -2.7256    0.0000 C   0  0  0  0  0  0  0  0  0  0  0  0
   -0.0000   -3.6073    0.0000 C   0  0  0  0  0  0  0  0  0  0  0  0
    1.2135   -2.7256    0.0000 N   0  0  0  0  0  0  0  0  0  0  0  0
    0.7500   -1.2990    0.0000 C   0  0  0  0  0  0  0  0  0  0  0  0
    1.5000    0.0000    0.0000 C   0  0  0  0  0  0  0  0  0  0  0  0
    0.7500    1.2990    0.0000 C   0  0  0  0  0  0  0  0  0  0  0  0
   -0.7500    1.2990    0.0000 C   0  0  0  0  0  0  0  0  0  0  0  0
   -1.5000    0.0000    0.0000 C   0  0  0  0  0  0  0  0  0  0  0  0
   -0.7500   -1.2990    0.0000 C   0  0  0  0  0  0  0  0  0  0  0  0
    2.8840   -3.6609    0.0000 C   0  0  0  0  0  0  0  0  0  0  0  0
    3.5348   -5.0123    0.0000 C   0  0  0  0  0  0  0  0  0  0  0  0
    3.5348   -6.5123    0.0000 O   0  0  0  0  0  0  0  0  0  0  0  0
    2.8840   -7.8638    0.0000 C   0  0  0  0  0  0  0  0  0  0  0  0
    4.0568   -8.7990    0.0000 C   0  0  0  0  0  0  0  0  0  0  0  0
    3.8332  -10.2822    0.0000 N   0  0  0  0  0  0  0  0  0  0  0  0
    5.0059  -11.2175    0.0000 S   0  0  0  0  0  0  0  0  0  0  0  0
    5.9412  -10.0447    0.0000 O   0  0  0  0  0  0  0  0  0  0  0  0
    4.0707  -12.3902    0.0000 O   0  0  0  0  0  0  0  0  0  0  0  0
    6.1787  -12.1527    0.0000 C   0  0  0  0  0  0  0  0  0  0  0  0
    5.9551  -13.6360    0.0000 C   0  0  0  0  0  0  0  0  0  0  0  0
    7.1279  -14.5712    0.0000 C   0  0  0  0  0  0  0  0  0  0  0  0
    8.5242  -14.0232    0.0000 C   0  0  0  0  0  0  0  0  0  0  0  0
    8.7477  -12.5399    0.0000 C   0  0  0  0  0  0  0  0  0  0  0  0
    7.5750  -11.6047    0.0000 C   0  0  0  0  0  0  0  0  0  0  0  0
    1.7113   -8.7990    0.0000 C   0  0  0  0  0  0  0  0  0  0  0  0
    0.2489   -9.1328    0.0000 C   0  0  0  0  0  0  0  0  0  0  0  0
   -1.2135   -8.7990    0.0000 N   0  0  0  0  0  0  0  0  0  0  0  0
   -2.3863   -7.8638    0.0000 C   0  0  0  0  0  0  0  0  0  0  0  0
   -3.0371   -6.5123    0.0000 C   0  0  0  0  0  0  0  0  0  0  0  0
   -3.8634   -7.7642    0.0000 C   0  0  0  0  0  0  0  0  0  0  0  0
   -5.3467   -7.9877    0.0000 C   0  0  0  0  0  0  0  0  0  0  0  0
   -5.8947   -9.3840    0.0000 C   0  0  0  0  0  0  0  0  0  0  0  0
   -4.9595  -10.5568    0.0000 C   0  0  0  0  0  0  0  0  0  0  0  0
   -3.4762  -10.3332    0.0000 C   0  0  0  0  0  0  0  0  0  0  0  0
   -2.9282   -8.9369    0.0000 C   0  0  0  0  0  0  0  0  0  0  0  0
  1  2  2  0
  2  3  1  0
  3  4  1  0
  4  5  2  0
  4  6  1  0
  6  7  2  0
  7  8  1  0
  8  9  2  0
  9 10  1  0
 10 11  1  0
 11 12  2  0
 12 13  1  0
 13 14  2  0
 14 15  1  0
 15 16  2  0
 10 17  1  0
 17 18  1  0
 18 19  1  0
 19 20  1  0
 20 21  1  6
 21 22  1  0
 22 23  1  0
 23 24  2  0
 23 25  2  0
 23 26  1  0
 26 27  2  0
 27 28  1  0
 28 29  2  0
 29 30  1  0
 30 31  2  0
 20 32  1  0
 32 33  1  0
 33 34  1  0
 34 35  1  0
 35 36  2  0
 36 37  1  0
 37 38  2  0
 38 39  1  0
 39 40  2  0
 40 41  1  0
 41 42  2  0
  7  2  1  0
 16  8  1  0
 31 26  1  0
 42 34  1  0
 36  6  1  0
 42 37  1  0
 16 11  1  0
M  END
>  <Compound_ID>  (98) 
CHEMBL315389

>  <Active>  (98) 
1.0

>  <Smiles>  (98) 
O=C1NC(=O)C2=C1c1cn(c3ccccc13)CCO[C@H](CNS(=O)(=O)c1ccccc1)CCn1cc2c2ccccc21

>  <canonical_smi>  (98) 
O=C1NC(=O)C2=C1c1cn(c3ccccc13)CCO[C@H](CNS(=O)(=O)c1ccccc1)CCn1cc2c2ccccc21

>  <Set>  (98) 
G2 active

>  <Set_type>  (98) 
Train

>  <MW>  (98) 
580.67

>  <HBD>  (98) 
2

>  <HBA>  (98) 
5

>  <NRB>  (98) 
4

>  <NR>  (98) 
7

>  <NAR>  (98) 
5

>  <PSA>  (98) 
111.43

>  <Standard Type>  (98) 
nan

>  <Standard Relation>  (98) 
nan

>  <Standard Units>  (98) 
nan

>  <Standard Value>  (98) 
nan

>  <Assay ChEMBL ID>  (98) 
nan

>  <Assay Description>  (98) 
nan

>  <BAO Label>  (98) 
nan

$$$$

     RDKit          2D

 36 41  0  0  0  0  0  0  0  0999 V2000
   -3.1752   -0.7688    0.0000 O   0  0  0  0  0  0  0  0  0  0  0  0
   -3.8004   -2.1323    0.0000 C   0  0  0  0  0  0  0  0  0  0  0  0
   -5.2710   -2.4280    0.0000 N   0  0  0  0  0  0  0  0  0  0  0  0
   -5.4442   -3.9180    0.0000 C   0  0  0  0  0  0  0  0  0  0  0  0
   -6.7514   -4.6536    0.0000 O   0  0  0  0  0  0  0  0  0  0  0  0
   -4.0807   -4.5431    0.0000 C   0  0  0  0  0  0  0  0  0  0  0  0
   -3.0648   -3.4395    0.0000 C   0  0  0  0  0  0  0  0  0  0  0  0
   -1.2135   -2.7256    0.0000 C   0  0  0  0  0  0  0  0  0  0  0  0
   -0.0000   -3.6073    0.0000 C   0  0  0  0  0  0  0  0  0  0  0  0
    1.2135   -2.7256    0.0000 N   0  0  0  0  0  0  0  0  0  0  0  0
    0.7500   -1.2990    0.0000 C   0  0  0  0  0  0  0  0  0  0  0  0
    1.5000    0.0000    0.0000 C   0  0  0  0  0  0  0  0  0  0  0  0
    0.7500    1.2990    0.0000 C   0  0  0  0  0  0  0  0  0  0  0  0
   -0.7500    1.2990    0.0000 C   0  0  0  0  0  0  0  0  0  0  0  0
   -1.5000    0.0000    0.0000 C   0  0  0  0  0  0  0  0  0  0  0  0
   -0.7500   -1.2990    0.0000 C   0  0  0  0  0  0  0  0  0  0  0  0
    2.5327   -3.4395    0.0000 C   0  0  0  0  0  0  0  0  0  0  0  0
    3.5487   -4.5431    0.0000 C   0  0  0  0  0  0  0  0  0  0  0  0
    4.1512   -5.9168    0.0000 O   0  0  0  0  0  0  0  0  0  0  0  0
    4.2751   -7.4117    0.0000 C   0  0  0  0  0  0  0  0  0  0  0  0
    3.9068   -8.8658    0.0000 C   0  0  0  0  0  0  0  0  0  0  0  0
    3.0864  -10.1215    0.0000 O   0  0  0  0  0  0  0  0  0  0  0  0
    1.9027  -11.0428    0.0000 C   0  0  0  0  0  0  0  0  0  0  0  0
    0.4840  -11.5299    0.0000 C   0  0  0  0  0  0  0  0  0  0  0  0
   -1.0160  -11.5299    0.0000 O   0  0  0  0  0  0  0  0  0  0  0  0
   -2.4347  -11.0428    0.0000 C   0  0  0  0  0  0  0  0  0  0  0  0
   -3.6185  -10.1215    0.0000 C   0  0  0  0  0  0  0  0  0  0  0  0
   -4.4389   -8.8658    0.0000 N   0  0  0  0  0  0  0  0  0  0  0  0
   -4.8071   -7.4117    0.0000 C   0  0  0  0  0  0  0  0  0  0  0  0
   -4.6832   -5.9168    0.0000 C   0  0  0  0  0  0  0  0  0  0  0  0
   -6.0667   -6.4965    0.0000 C   0  0  0  0  0  0  0  0  0  0  0  0
   -7.4232   -5.8564    0.0000 C   0  0  0  0  0  0  0  0  0  0  0  0
   -8.6559   -6.7111    0.0000 C   0  0  0  0  0  0  0  0  0  0  0  0
   -8.5320   -8.2060    0.0000 C   0  0  0  0  0  0  0  0  0  0  0  0
   -7.1755   -8.8461    0.0000 N   0  0  0  0  0  0  0  0  0  0  0  0
   -5.9428   -7.9914    0.0000 C   0  0  0  0  0  0  0  0  0  0  0  0
  1  2  2  0
  2  3  1  0
  3  4  1  0
  4  5  2  0
  4  6  1  0
  6  7  2  0
  7  8  1  0
  8  9  2  0
  9 10  1  0
 10 11  1  0
 11 12  2  0
 12 13  1  0
 13 14  2  0
 14 15  1  0
 15 16  2  0
 10 17  1  0
 17 18  1  0
 18 19  1  0
 19 20  1  0
 20 21  1  0
 21 22  1  0
 22 23  1  0
 23 24  1  0
 24 25  1  0
 25 26  1  0
 26 27  1  0
 27 28  1  0
 28 29  1  0
 29 30  2  0
 30 31  1  0
 31 32  2  0
 32 33  1  0
 33 34  2  0
 34 35  1  0
 35 36  2  0
  7  2  1  0
 16  8  1  0
 36 28  1  0
 30  6  1  0
 36 31  1  0
 16 11  1  0
M  END
>  <Compound_ID>  (99) 
CHEMBL340935

>  <Active>  (99) 
1.0

>  <Smiles>  (99) 
O=C1NC(=O)C2=C1c1cn(c3ccccc13)CCOCCOCCOCCn1cc2c2cccnc21

>  <canonical_smi>  (99) 
O=C1NC(=O)C2=C1c1cn(c3ccccc13)CCOCCOCCOCCn1cc2c2cccnc21

>  <Set>  (99) 
G2 active

>  <Set_type>  (99) 
Train

>  <MW>  (99) 
486.53

>  <HBD>  (99) 
1

>  <HBA>  (99) 
6

>  <NRB>  (99) 
0

>  <NR>  (99) 
6

>  <NAR>  (99) 
4

>  <PSA>  (99) 
96.61

>  <Standard Type>  (99) 
nan

>  <Standard Relation>  (99) 
nan

>  <Standard Units>  (99) 
nan

>  <Standard Value>  (99) 
nan

>  <Assay ChEMBL ID>  (99) 
nan

>  <Assay Description>  (99) 
nan

>  <BAO Label>  (99) 
nan

$$$$

     RDKit          2D

 31 38  0  0  0  0  0  0  0  0999 V2000
    4.7475   -4.5713    0.0000 C   0  0  0  0  0  0  0  0  0  0  0  0
    3.2490   -4.5040    0.0000 N   0  0  0  0  0  0  0  0  0  0  0  0
    2.5382   -5.8249    0.0000 C   0  0  0  0  0  0  0  0  0  0  0  0
    3.9965   -5.1502    0.0000 C   0  0  0  0  0  0  0  0  0  0  0  0
    4.0638   -3.6517    0.0000 C   0  0  0  0  0  0  0  0  0  0  0  0
    2.6595   -3.1247    0.0000 C   0  0  0  0  0  0  0  0  0  0  0  0
    1.2135   -2.7256    0.0000 N   0  0  0  0  0  0  0  0  0  0  0  0
    0.7500   -1.2990    0.0000 C   0  0  0  0  0  0  0  0  0  0  0  0
    1.5000    0.0000    0.0000 C   0  0  0  0  0  0  0  0  0  0  0  0
    0.7500    1.2990    0.0000 C   0  0  0  0  0  0  0  0  0  0  0  0
   -0.7500    1.2990    0.0000 C   0  0  0  0  0  0  0  0  0  0  0  0
   -1.5000    0.0000    0.0000 C   0  0  0  0  0  0  0  0  0  0  0  0
   -0.7500   -1.2990    0.0000 C   0  0  0  0  0  0  0  0  0  0  0  0
   -1.2135   -2.7256    0.0000 C   0  0  0  0  0  0  0  0  0  0  0  0
   -2.5518   -3.5691    0.0000 C   0  0  0  0  0  0  0  0  0  0  0  0
   -2.6191   -5.0676    0.0000 C   0  0  0  0  0  0  0  0  0  0  0  0
   -1.3550   -5.8751    0.0000 C   0  0  0  0  0  0  0  0  0  0  0  0
   -1.0212   -7.3375    0.0000 C   0  0  0  0  0  0  0  0  0  0  0  0
   -1.8846   -8.5641    0.0000 C   0  0  0  0  0  0  0  0  0  0  0  0
   -1.2541   -9.9251    0.0000 C   0  0  0  0  0  0  0  0  0  0  0  0
    0.2399  -10.0596    0.0000 C   0  0  0  0  0  0  0  0  0  0  0  0
    1.1033   -8.8330    0.0000 C   0  0  0  0  0  0  0  0  0  0  0  0
    0.4728   -7.4720    0.0000 C   0  0  0  0  0  0  0  0  0  0  0  0
    1.0623   -6.0927    0.0000 N   0  0  0  0  0  0  0  0  0  0  0  0
   -0.0673   -5.1058    0.0000 C   0  0  0  0  0  0  0  0  0  0  0  0
   -0.0000   -3.6073    0.0000 C   0  0  0  0  0  0  0  0  0  0  0  0
   -4.0650   -5.4667    0.0000 C   0  0  0  0  0  0  0  0  0  0  0  0
   -4.5921   -6.8710    0.0000 O   0  0  0  0  0  0  0  0  0  0  0  0
   -4.8913   -4.2148    0.0000 N   0  0  0  0  0  0  0  0  0  0  0  0
   -3.9561   -3.0421    0.0000 C   0  0  0  0  0  0  0  0  0  0  0  0
   -4.3552   -1.5961    0.0000 O   0  0  0  0  0  0  0  0  0  0  0  0
  1  2  1  0
  2  3  1  0
  3  4  1  1
  4  5  1  0
  6  5  1  1
  6  7  1  0
  7  8  1  0
  8  9  2  0
  9 10  1  0
 10 11  2  0
 11 12  1  0
 12 13  2  0
 13 14  1  0
 14 15  2  0
 15 16  1  0
 16 17  2  0
 17 18  1  0
 18 19  2  0
 19 20  1  0
 20 21  2  0
 21 22  1  0
 22 23  2  0
 23 24  1  0
 24 25  1  0
 25 26  2  0
 16 27  1  0
 27 28  2  0
 27 29  1  0
 29 30  1  0
 30 31  2  0
  6  2  1  0
 26  7  1  0
 24  3  1  0
 13  8  1  0
 26 14  1  0
 30 15  1  0
 25 17  1  0
 23 18  1  0
M  END
>  <Compound_ID>  (100) 
CHEMBL421947

>  <Active>  (100) 
1.0

>  <Smiles>  (100) 
CN1[C@H]2CC[C@@H]1n1c3ccccc3c3c4c(c5c6ccccc6n2c5c31)C(=O)NC4=O

>  <canonical_smi>  (100) 
CN1[C@@H]2CC[C@H]1n1c3ccccc3c3c4c(c5c6ccccc6n2c5c31)C(=O)NC4=O

>  <Set>  (100) 
G2 active

>  <Set_type>  (100) 
Train

>  <MW>  (100) 
406.45

>  <HBD>  (100) 
1

>  <HBA>  (100) 
3

>  <NRB>  (100) 
0

>  <NR>  (100) 
8

>  <NAR>  (100) 
5

>  <PSA>  (100) 
59.27

>  <Standard Type>  (100) 
nan

>  <Standard Relation>  (100) 
nan

>  <Standard Units>  (100) 
nan

>  <Standard Value>  (100) 
nan

>  <Assay ChEMBL ID>  (100) 
nan

>  <Assay Description>  (100) 
nan

>  <BAO Label>  (100) 
nan

$$$$

     RDKit          2D

 33 35  0  0  0  0  0  0  0  0999 V2000
    1.4821  -15.3899    0.0000 C   0  0  0  0  0  0  0  0  0  0  0  0
    2.3638  -14.1764    0.0000 C   0  0  0  0  0  0  0  0  0  0  0  0
    3.8556  -14.3332    0.0000 C   0  0  0  0  0  0  0  0  0  0  0  0
    1.7537  -12.8061    0.0000 C   0  0  0  0  0  0  0  0  0  0  0  0
    2.5037  -11.5070    0.0000 C   0  0  0  0  0  0  0  0  0  0  0  0
    1.5000  -10.3923    0.0000 C   0  0  0  0  0  0  0  0  0  0  0  0
    2.7135   -9.5106    0.0000 C   0  0  0  0  0  0  0  0  0  0  0  0
    4.0838  -10.1207    0.0000 O   0  0  0  0  0  0  0  0  0  0  0  0
    0.7500   -9.0933    0.0000 C   0  0  0  0  0  0  0  0  0  0  0  0
    1.5000   -7.7942    0.0000 O   0  0  0  0  0  0  0  0  0  0  0  0
    0.7500   -6.4952    0.0000 C   0  0  0  0  0  0  0  0  0  0  0  0
   -0.7500   -6.4952    0.0000 O   0  0  0  0  0  0  0  0  0  0  0  0
    1.5000   -5.1962    0.0000 C   0  0  0  0  0  0  0  0  0  0  0  0
    0.7500   -3.8971    0.0000 C   0  0  0  0  0  0  0  0  0  0  0  0
    1.5000   -2.5981    0.0000 O   0  0  0  0  0  0  0  0  0  0  0  0
    0.7500   -1.2990    0.0000 C   0  0  0  0  0  0  0  0  0  0  0  0
    1.5000    0.0000    0.0000 C   0  0  0  0  0  0  0  0  0  0  0  0
    0.7500    1.2990    0.0000 C   0  0  0  0  0  0  0  0  0  0  0  0
   -0.7500    1.2990    0.0000 C   0  0  0  0  0  0  0  0  0  0  0  0
   -1.5000    2.5981    0.0000 C   0  0  0  0  0  0  0  0  0  0  0  0
   -2.2500    3.8971    0.0000 C   0  0  0  0  0  0  0  0  0  0  0  0
   -3.0000    5.1962    0.0000 C   0  0  0  0  0  0  0  0  0  0  0  0
   -2.2500    6.4952    0.0000 C   0  0  0  0  0  0  0  0  0  0  0  0
   -3.0000    7.7942    0.0000 C   0  0  0  0  0  0  0  0  0  0  0  0
   -4.5000    7.7942    0.0000 C   0  0  0  0  0  0  0  0  0  0  0  0
   -5.2500    9.0933    0.0000 C   0  0  0  0  0  0  0  0  0  0  0  0
   -5.2500    6.4952    0.0000 C   0  0  0  0  0  0  0  0  0  0  0  0
   -4.5000    5.1962    0.0000 C   0  0  0  0  0  0  0  0  0  0  0  0
   -1.5000    0.0000    0.0000 C   0  0  0  0  0  0  0  0  0  0  0  0
   -0.7500   -1.2990    0.0000 C   0  0  0  0  0  0  0  0  0  0  0  0
    0.1297  -11.0024    0.0000 O   0  0  0  0  0  0  0  0  0  0  0  0
    0.2865  -12.4942    0.0000 C   0  0  0  0  0  0  0  0  0  0  0  0
   -0.8282  -13.4979    0.0000 O   0  0  0  0  0  0  0  0  0  0  0  0
  1  2  1  0
  2  3  1  0
  2  4  2  0
  4  5  1  0
  5  6  1  0
  6  7  1  0
  7  8  1  0
  6  9  1  0
  9 10  1  0
 10 11  1  0
 11 12  2  0
 11 13  1  0
 13 14  1  0
 14 15  1  0
 15 16  1  0
 16 17  2  0
 17 18  1  0
 18 19  2  0
 19 20  1  0
 20 21  3  0
 21 22  1  0
 22 23  2  0
 23 24  1  0
 24 25  2  0
 25 26  1  0
 25 27  1  0
 27 28  2  0
 19 29  1  0
 29 30  2  0
  6 31  1  0
 31 32  1  0
 32 33  2  0
 32  4  1  0
 30 16  1  0
 28 22  1  0
M  END
>  <Compound_ID>  (101) 
CHEMBL492118

>  <Active>  (101) 
1.0

>  <Smiles>  (101) 
CC(C)=C1CC(CO)(COC(=O)CCOc2ccc(C#Cc3ccc(C)cc3)cc2)OC1=O

>  <canonical_smi>  (101) 
CC(C)=C1CC(CO)(COC(=O)CCOc2ccc(C#Cc3ccc(C)cc3)cc2)OC1=O

>  <Set>  (101) 
G2 active

>  <Set_type>  (101) 
Train

>  <MW>  (101) 
448.52

>  <HBD>  (101) 
1

>  <HBA>  (101) 
6

>  <NRB>  (101) 
7

>  <NR>  (101) 
3

>  <NAR>  (101) 
2

>  <PSA>  (101) 
82.06

>  <Standard Type>  (101) 
nan

>  <Standard Relation>  (101) 
nan

>  <Standard Units>  (101) 
nan

>  <Standard Value>  (101) 
nan

>  <Assay ChEMBL ID>  (101) 
nan

>  <Assay Description>  (101) 
nan

>  <BAO Label>  (101) 
nan

$$$$

     RDKit          2D

 31 38  0  0  0  0  0  0  0  0999 V2000
   -6.2685   -5.4722    0.0000 O   0  0  0  0  0  0  0  0  0  0  0  0
   -4.8012   -5.7841    0.0000 C   0  0  0  0  0  0  0  0  0  0  0  0
   -4.1911   -7.1544    0.0000 N   0  0  0  0  0  0  0  0  0  0  0  0
   -2.6993   -6.9976    0.0000 C   0  0  0  0  0  0  0  0  0  0  0  0
   -1.6957   -8.1123    0.0000 O   0  0  0  0  0  0  0  0  0  0  0  0
   -2.3875   -5.5304    0.0000 C   0  0  0  0  0  0  0  0  0  0  0  0
   -3.6865   -4.7804    0.0000 C   0  0  0  0  0  0  0  0  0  0  0  0
   -3.6865   -3.2804    0.0000 C   0  0  0  0  0  0  0  0  0  0  0  0
   -4.7707   -2.2438    0.0000 C   0  0  0  0  0  0  0  0  0  0  0  0
   -6.2665   -2.3559    0.0000 C   0  0  0  0  0  0  0  0  0  0  0  0
   -7.1115   -1.1166    0.0000 C   0  0  0  0  0  0  0  0  0  0  0  0
   -6.4607    0.2349    0.0000 C   0  0  0  0  0  0  0  0  0  0  0  0
   -4.9649    0.3470    0.0000 C   0  0  0  0  0  0  0  0  0  0  0  0
   -4.1199   -0.8924    0.0000 C   0  0  0  0  0  0  0  0  0  0  0  0
   -2.6110   -1.0472    0.0000 N   0  0  0  0  0  0  0  0  0  0  0  0
   -2.3875   -2.5304    0.0000 C   0  0  0  0  0  0  0  0  0  0  0  0
   -1.0884   -3.2804    0.0000 C   0  0  0  0  0  0  0  0  0  0  0  0
   -1.0884   -4.7804    0.0000 C   0  0  0  0  0  0  0  0  0  0  0  0
    0.3514   -5.2010    0.0000 C   0  0  0  0  0  0  0  0  0  0  0  0
    1.0022   -6.5525    0.0000 C   0  0  0  0  0  0  0  0  0  0  0  0
    2.4980   -6.6646    0.0000 C   0  0  0  0  0  0  0  0  0  0  0  0
    3.3430   -5.4252    0.0000 C   0  0  0  0  0  0  0  0  0  0  0  0
    2.6922   -4.0738    0.0000 C   0  0  0  0  0  0  0  0  0  0  0  0
    1.1963   -3.9617    0.0000 C   0  0  0  0  0  0  0  0  0  0  0  0
    0.3079   -2.7324    0.0000 N   0  0  0  0  0  0  0  0  0  0  0  0
    0.7500   -1.2990    0.0000 C   0  0  0  0  0  0  0  0  0  0  0  0
    1.5000    0.0000    0.0000 C   0  0  0  0  0  0  0  0  0  0  0  0
    0.7500    1.2990    0.0000 O   0  0  0  0  0  0  0  0  0  0  0  0
   -0.7500    1.2990    0.0000 C   0  0  0  0  0  0  0  0  0  0  0  0
   -1.5000    0.0000    0.0000 C   0  0  0  0  0  0  0  0  0  0  0  0
   -0.7500   -1.2990    0.0000 N   0  0  0  0  0  0  0  0  0  0  0  0
  1  2  2  0
  2  3  1  0
  3  4  1  0
  4  5  2  0
  4  6  1  0
  6  7  2  0
  7  8  1  0
  8  9  1  0
  9 10  2  0
 10 11  1  0
 11 12  2  0
 12 13  1  0
 13 14  2  0
 14 15  1  0
 15 16  1  0
 16 17  1  0
 17 18  2  0
 18 19  1  0
 19 20  2  0
 20 21  1  0
 21 22  2  0
 22 23  1  0
 23 24  2  0
 24 25  1  0
 25 26  1  0
 26 27  1  6
 27 28  1  0
 28 29  1  0
 30 29  1  6
 30 31  1  0
  7  2  1  0
 16  8  2  0
 25 17  1  0
 31 26  1  0
 18  6  1  0
 24 19  1  0
 14  9  1  0
 30 15  1  0
M  END
>  <Compound_ID>  (102) 
CHEMBL146564

>  <Active>  (102) 
1.0

>  <Smiles>  (102) 
O=C1NC(=O)c2c1c1c3ccccc3n3c1c1c2c2ccccc2n1[C@H]1COC[C@@H]3N1

>  <canonical_smi>  (102) 
O=C1NC(=O)c2c1c1c3ccccc3n3c1c1c2c2ccccc2n1[C@@H]1COC[C@H]3N1

>  <Set>  (102) 
G2 active

>  <Set_type>  (102) 
Train

>  <MW>  (102) 
408.42

>  <HBD>  (102) 
2

>  <HBA>  (102) 
4

>  <NRB>  (102) 
0

>  <NR>  (102) 
8

>  <NAR>  (102) 
5

>  <PSA>  (102) 
77.29

>  <Standard Type>  (102) 
nan

>  <Standard Relation>  (102) 
nan

>  <Standard Units>  (102) 
nan

>  <Standard Value>  (102) 
nan

>  <Assay ChEMBL ID>  (102) 
nan

>  <Assay Description>  (102) 
nan

>  <BAO Label>  (102) 
nan

$$$$

     RDKit          2D

 41 46  0  0  0  0  0  0  0  0999 V2000
    3.3889  -13.4774    0.0000 C   0  0  0  0  0  0  0  0  0  0  0  0
    2.5780  -12.2156    0.0000 N   0  0  0  0  0  0  0  0  0  0  0  0
    1.2135  -12.8387    0.0000 C   0  0  0  0  0  0  0  0  0  0  0  0
   -0.2712  -13.0522    0.0000 C   0  0  0  0  0  0  0  0  0  0  0  0
   -1.7559  -12.8387    0.0000 O   0  0  0  0  0  0  0  0  0  0  0  0
   -3.1204  -12.2156    0.0000 C   0  0  0  0  0  0  0  0  0  0  0  0
   -4.2540  -11.2333    0.0000 C   0  0  0  0  0  0  0  0  0  0  0  0
   -5.0650   -9.9714    0.0000 O   0  0  0  0  0  0  0  0  0  0  0  0
   -5.4876   -8.5322    0.0000 C   0  0  0  0  0  0  0  0  0  0  0  0
   -5.4876   -7.0322    0.0000 C   0  0  0  0  0  0  0  0  0  0  0  0
   -5.0650   -5.5929    0.0000 N   0  0  0  0  0  0  0  0  0  0  0  0
   -6.4294   -4.9698    0.0000 C   0  0  0  0  0  0  0  0  0  0  0  0
   -4.2540   -4.3310    0.0000 C   0  0  0  0  0  0  0  0  0  0  0  0
   -3.1204   -3.3487    0.0000 C   0  0  0  0  0  0  0  0  0  0  0  0
   -1.2135   -2.7256    0.0000 N   0  0  0  0  0  0  0  0  0  0  0  0
   -0.0000   -3.6073    0.0000 C   0  0  0  0  0  0  0  0  0  0  0  0
    1.2135   -2.7256    0.0000 C   0  0  0  0  0  0  0  0  0  0  0  0
    0.7500   -1.2990    0.0000 C   0  0  0  0  0  0  0  0  0  0  0  0
    1.5000    0.0000    0.0000 C   0  0  0  0  0  0  0  0  0  0  0  0
    0.7500    1.2990    0.0000 C   0  0  0  0  0  0  0  0  0  0  0  0
   -0.7500    1.2990    0.0000 C   0  0  0  0  0  0  0  0  0  0  0  0
   -1.5000    0.0000    0.0000 C   0  0  0  0  0  0  0  0  0  0  0  0
   -0.7500   -1.2990    0.0000 C   0  0  0  0  0  0  0  0  0  0  0  0
    2.5780   -3.3487    0.0000 C   0  0  0  0  0  0  0  0  0  0  0  0
    3.7116   -4.3310    0.0000 C   0  0  0  0  0  0  0  0  0  0  0  0
    4.9961   -3.5564    0.0000 C   0  0  0  0  0  0  0  0  0  0  0  0
    6.3778   -4.1403    0.0000 O   0  0  0  0  0  0  0  0  0  0  0  0
    4.6564   -2.0954    0.0000 N   0  0  0  0  0  0  0  0  0  0  0  0
    3.1619   -1.9671    0.0000 C   0  0  0  0  0  0  0  0  0  0  0  0
    2.3873   -0.6825    0.0000 O   0  0  0  0  0  0  0  0  0  0  0  0
    4.5226   -5.5929    0.0000 C   0  0  0  0  0  0  0  0  0  0  0  0
    4.9452   -7.0322    0.0000 C   0  0  0  0  0  0  0  0  0  0  0  0
    4.9452   -8.5322    0.0000 N   0  0  0  0  0  0  0  0  0  0  0  0
    6.2913   -7.8703    0.0000 C   0  0  0  0  0  0  0  0  0  0  0  0
    7.6838   -8.4278    0.0000 C   0  0  0  0  0  0  0  0  0  0  0  0
    8.8629   -7.5006    0.0000 C   0  0  0  0  0  0  0  0  0  0  0  0
    8.6494   -6.0158    0.0000 C   0  0  0  0  0  0  0  0  0  0  0  0
    7.2569   -5.4584    0.0000 C   0  0  0  0  0  0  0  0  0  0  0  0
    6.0778   -6.3856    0.0000 C   0  0  0  0  0  0  0  0  0  0  0  0
    4.5226   -9.9714    0.0000 C   0  0  0  0  0  0  0  0  0  0  0  0
    3.7116  -11.2333    0.0000 C   0  0  0  0  0  0  0  0  0  0  0  0
  1  2  1  0
  2  3  1  0
  3  4  1  0
  4  5  1  0
  5  6  1  0
  6  7  1  0
  7  8  1  0
  8  9  1  0
  9 10  1  0
 10 11  1  0
 11 12  1  0
 11 13  1  0
 13 14  1  0
 14 15  1  0
 15 16  1  0
 16 17  2  0
 17 18  1  0
 18 19  2  0
 19 20  1  0
 20 21  2  0
 21 22  1  0
 22 23  2  0
 17 24  1  0
 24 25  2  0
 25 26  1  0
 26 27  2  0
 26 28  1  0
 28 29  1  0
 29 30  2  0
 25 31  1  0
 31 32  2  0
 32 33  1  0
 33 34  1  0
 34 35  2  0
 35 36  1  0
 36 37  2  0
 37 38  1  0
 38 39  2  0
 33 40  1  0
 40 41  1  0
 41  2  1  0
 23 15  1  0
 29 24  1  0
 39 31  1  0
 23 18  1  0
 39 34  1  0
M  END
>  <Compound_ID>  (103) 
CHEMBL105620

>  <Active>  (103) 
1.0

>  <Smiles>  (103) 
CN1CCOCCOCCN(C)CCn2cc(c3ccccc32)C2=C(C(=O)NC2=O)c2cn(c3ccccc23)CC1

>  <canonical_smi>  (103) 
CN1CCOCCOCCN(C)CCn2cc(c3ccccc32)C2=C(C(=O)NC2=O)c2cn(c3ccccc23)CC1

>  <Set>  (103) 
G2 active

>  <Set_type>  (103) 
Train

>  <MW>  (103) 
555.68

>  <HBD>  (103) 
1

>  <HBA>  (103) 
6

>  <NRB>  (103) 
0

>  <NR>  (103) 
6

>  <NAR>  (103) 
4

>  <PSA>  (103) 
80.97

>  <Standard Type>  (103) 
nan

>  <Standard Relation>  (103) 
nan

>  <Standard Units>  (103) 
nan

>  <Standard Value>  (103) 
nan

>  <Assay ChEMBL ID>  (103) 
nan

>  <Assay Description>  (103) 
nan

>  <BAO Label>  (103) 
nan

$$$$

     RDKit          2D

 33 37  0  0  0  0  0  0  0  0999 V2000
   -3.0313  -10.6327    0.0000 N   0  0  0  0  0  0  0  0  0  0  0  0
   -4.4985  -10.3208    0.0000 C   0  0  0  0  0  0  0  0  0  0  0  0
   -5.5022  -11.4355    0.0000 N   0  0  0  0  0  0  0  0  0  0  0  0
   -4.9620   -8.8942    0.0000 S   0  0  0  0  0  0  0  0  0  0  0  0
   -3.9583   -7.7795    0.0000 C   0  0  0  0  0  0  0  0  0  0  0  0
   -4.4218   -6.3529    0.0000 C   0  0  0  0  0  0  0  0  0  0  0  0
   -3.4182   -5.2382    0.0000 C   0  0  0  0  0  0  0  0  0  0  0  0
   -3.8817   -3.8116    0.0000 N   0  0  0  0  0  0  0  0  0  0  0  0
   -3.0000   -2.5981    0.0000 C   0  0  0  0  0  0  0  0  0  0  0  0
   -1.5000   -2.5981    0.0000 C   0  0  0  0  0  0  0  0  0  0  0  0
   -0.7500   -3.8971    0.0000 C   0  0  0  0  0  0  0  0  0  0  0  0
    0.7500   -3.8971    0.0000 C   0  0  0  0  0  0  0  0  0  0  0  0
    1.5000   -2.5981    0.0000 C   0  0  0  0  0  0  0  0  0  0  0  0
    0.7500   -1.2990    0.0000 C   0  0  0  0  0  0  0  0  0  0  0  0
    1.5000    0.0000    0.0000 C   0  0  0  0  0  0  0  0  0  0  0  0
    0.7500    1.2990    0.0000 C   0  0  0  0  0  0  0  0  0  0  0  0
   -0.7500    1.2990    0.0000 C   0  0  0  0  0  0  0  0  0  0  0  0
   -1.5000    0.0000    0.0000 C   0  0  0  0  0  0  0  0  0  0  0  0
   -0.7500   -1.2990    0.0000 C   0  0  0  0  0  0  0  0  0  0  0  0
   -3.8817   -1.3846    0.0000 C   0  0  0  0  0  0  0  0  0  0  0  0
   -3.4182    0.0420    0.0000 C   0  0  0  0  0  0  0  0  0  0  0  0
   -4.2998    1.2556    0.0000 C   0  0  0  0  0  0  0  0  0  0  0  0
   -3.4182    2.4691    0.0000 C   0  0  0  0  0  0  0  0  0  0  0  0
   -3.8817    3.8957    0.0000 O   0  0  0  0  0  0  0  0  0  0  0  0
   -1.9916    2.0056    0.0000 N   0  0  0  0  0  0  0  0  0  0  0  0
   -1.9916    0.5056    0.0000 C   0  0  0  0  0  0  0  0  0  0  0  0
   -0.7780   -0.3761    0.0000 O   0  0  0  0  0  0  0  0  0  0  0  0
   -5.3083   -1.8481    0.0000 C   0  0  0  0  0  0  0  0  0  0  0  0
   -6.6073   -1.0981    0.0000 C   0  0  0  0  0  0  0  0  0  0  0  0
   -7.9063   -1.8481    0.0000 C   0  0  0  0  0  0  0  0  0  0  0  0
   -7.9063   -3.3481    0.0000 C   0  0  0  0  0  0  0  0  0  0  0  0
   -6.6073   -4.0981    0.0000 C   0  0  0  0  0  0  0  0  0  0  0  0
   -5.3083   -3.3481    0.0000 C   0  0  0  0  0  0  0  0  0  0  0  0
  1  2  2  0
  2  3  1  0
  2  4  1  0
  4  5  1  0
  5  6  1  0
  6  7  1  0
  7  8  1  0
  8  9  1  0
  9 10  1  0
 10 11  2  0
 11 12  1  0
 12 13  2  0
 13 14  1  0
 14 15  2  0
 15 16  1  0
 16 17  2  0
 17 18  1  0
 18 19  2  0
  9 20  2  0
 20 21  1  0
 21 22  2  0
 22 23  1  0
 23 24  2  0
 23 25  1  0
 25 26  1  0
 26 27  2  0
 20 28  1  0
 28 29  2  0
 29 30  1  0
 30 31  2  0
 31 32  1  0
 32 33  2  0
 33  8  1  0
 19 10  1  0
 26 21  1  0
 33 28  1  0
 19 14  1  0
M  END
>  <Compound_ID>  (104) 
CHEMBL350059

>  <Active>  (104) 
1.0

>  <Smiles>  (104) 
N=C(N)SCCCn1c(-c2cccc3ccccc23)c(C2=CC(=O)NC2=O)c2ccccc21

>  <canonical_smi>  (104) 
N=C(N)SCCCn1c(-c2cccc3ccccc23)c(C2=CC(=O)NC2=O)c2ccccc21

>  <Set>  (104) 
G2 active

>  <Set_type>  (104) 
Train

>  <MW>  (104) 
454.56

>  <HBD>  (104) 
3

>  <HBA>  (104) 
4

>  <NRB>  (104) 
6

>  <NR>  (104) 
5

>  <NAR>  (104) 
4

>  <PSA>  (104) 
100.97

>  <Standard Type>  (104) 
nan

>  <Standard Relation>  (104) 
nan

>  <Standard Units>  (104) 
nan

>  <Standard Value>  (104) 
nan

>  <Assay ChEMBL ID>  (104) 
nan

>  <Assay Description>  (104) 
nan

>  <BAO Label>  (104) 
nan

$$$$

     RDKit          2D

 26 31  0  0  0  0  0  0  0  0999 V2000
   -4.8180   -6.5097    0.0000 O   0  0  0  0  0  0  0  0  0  0  0  0
   -4.2079   -5.1394    0.0000 C   0  0  0  0  0  0  0  0  0  0  0  0
   -4.9579   -3.8403    0.0000 N   0  0  0  0  0  0  0  0  0  0  0  0
   -3.9542   -2.7256    0.0000 C   0  0  0  0  0  0  0  0  0  0  0  0
   -4.2660   -1.2584    0.0000 O   0  0  0  0  0  0  0  0  0  0  0  0
   -2.5838   -3.3357    0.0000 C   0  0  0  0  0  0  0  0  0  0  0  0
   -2.7406   -4.8275    0.0000 C   0  0  0  0  0  0  0  0  0  0  0  0
   -1.5271   -5.7092    0.0000 C   0  0  0  0  0  0  0  0  0  0  0  0
   -0.1568   -5.0991    0.0000 C   0  0  0  0  0  0  0  0  0  0  0  0
   -0.0000   -3.6073    0.0000 C   0  0  0  0  0  0  0  0  0  0  0  0
    1.2135   -2.7256    0.0000 N   0  0  0  0  0  0  0  0  0  0  0  0
    0.7500   -1.2990    0.0000 C   0  0  0  0  0  0  0  0  0  0  0  0
    1.5000    0.0000    0.0000 C   0  0  0  0  0  0  0  0  0  0  0  0
    0.7500    1.2990    0.0000 C   0  0  0  0  0  0  0  0  0  0  0  0
   -0.7500    1.2990    0.0000 C   0  0  0  0  0  0  0  0  0  0  0  0
   -1.5000    0.0000    0.0000 C   0  0  0  0  0  0  0  0  0  0  0  0
   -0.7500   -1.2990    0.0000 C   0  0  0  0  0  0  0  0  0  0  0  0
   -1.2135   -2.7256    0.0000 C   0  0  0  0  0  0  0  0  0  0  0  0
    1.0567   -5.9808    0.0000 C   0  0  0  0  0  0  0  0  0  0  0  0
    0.8999   -7.4725    0.0000 C   0  0  0  0  0  0  0  0  0  0  0  0
   -0.4704   -8.0826    0.0000 C   0  0  0  0  0  0  0  0  0  0  0  0
   -0.6272   -9.5744    0.0000 C   0  0  0  0  0  0  0  0  0  0  0  0
   -1.9975  -10.1845    0.0000 C   0  0  0  0  0  0  0  0  0  0  0  0
   -3.2110   -9.3029    0.0000 C   0  0  0  0  0  0  0  0  0  0  0  0
   -3.0542   -7.8111    0.0000 C   0  0  0  0  0  0  0  0  0  0  0  0
   -1.6839   -7.2010    0.0000 C   0  0  0  0  0  0  0  0  0  0  0  0
  1  2  2  0
  2  3  1  0
  3  4  1  0
  4  5  2  0
  4  6  1  0
  6  7  2  0
  7  8  1  0
  8  9  2  0
  9 10  1  0
 10 11  1  0
 11 12  1  0
 12 13  2  0
 13 14  1  0
 14 15  2  0
 15 16  1  0
 16 17  2  0
 17 18  1  0
  9 19  1  0
 19 20  1  0
 20 21  1  0
 21 22  2  0
 22 23  1  0
 23 24  2  0
 24 25  1  0
 25 26  2  0
  7  2  1  0
 26  8  1  0
 18  6  1  0
 26 21  1  0
 18 10  2  0
 17 12  1  0
M  END
>  <Compound_ID>  (105) 
CHEMBL386636

>  <Active>  (105) 
1.0

>  <Smiles>  (105) 
O=C1NC(=O)c2c1c1c(c3[nH]c4ccccc4c23)CCc2ccccc2-1

>  <canonical_smi>  (105) 
O=C1NC(=O)c2c1c1c(c3[nH]c4ccccc4c23)CCc2ccccc2-1

>  <Set>  (105) 
G2 active

>  <Set_type>  (105) 
Train

>  <MW>  (105) 
338.37

>  <HBD>  (105) 
2

>  <HBA>  (105) 
2

>  <NRB>  (105) 
0

>  <NR>  (105) 
6

>  <NAR>  (105) 
4

>  <PSA>  (105) 
61.96

>  <Standard Type>  (105) 
nan

>  <Standard Relation>  (105) 
nan

>  <Standard Units>  (105) 
nan

>  <Standard Value>  (105) 
nan

>  <Assay ChEMBL ID>  (105) 
nan

>  <Assay Description>  (105) 
nan

>  <BAO Label>  (105) 
nan

$$$$

     RDKit          2D

 31 36  0  0  0  0  0  0  0  0999 V2000
   -6.4937   -2.7256    0.0000 O   0  0  0  0  0  0  0  0  0  0  0  0
   -5.0672   -3.1891    0.0000 C   0  0  0  0  0  0  0  0  0  0  0  0
   -4.6036   -4.6157    0.0000 N   0  0  0  0  0  0  0  0  0  0  0  0
   -3.1036   -4.6157    0.0000 C   0  0  0  0  0  0  0  0  0  0  0  0
   -2.2220   -5.8293    0.0000 O   0  0  0  0  0  0  0  0  0  0  0  0
   -2.6401   -3.1891    0.0000 C   0  0  0  0  0  0  0  0  0  0  0  0
   -1.2135   -2.7256    0.0000 C   0  0  0  0  0  0  0  0  0  0  0  0
   -0.0000   -3.6073    0.0000 C   0  0  0  0  0  0  0  0  0  0  0  0
    1.2135   -2.7256    0.0000 N   0  0  0  0  0  0  0  0  0  0  0  0
    2.6401   -3.1891    0.0000 C   0  0  0  0  0  0  0  0  0  0  0  0
    2.9520   -4.6564    0.0000 C   0  0  0  0  0  0  0  0  0  0  0  0
    4.3786   -5.1199    0.0000 C   0  0  0  0  0  0  0  0  0  0  0  0
    5.4933   -4.1162    0.0000 C   0  0  0  0  0  0  0  0  0  0  0  0
    5.1814   -2.6490    0.0000 N   0  0  0  0  0  0  0  0  0  0  0  0
    3.7548   -2.1855    0.0000 C   0  0  0  0  0  0  0  0  0  0  0  0
    0.7500   -1.2990    0.0000 C   0  0  0  0  0  0  0  0  0  0  0  0
    1.5000    0.0000    0.0000 C   0  0  0  0  0  0  0  0  0  0  0  0
    0.7500    1.2990    0.0000 C   0  0  0  0  0  0  0  0  0  0  0  0
   -0.7500    1.2990    0.0000 C   0  0  0  0  0  0  0  0  0  0  0  0
   -1.5000    0.0000    0.0000 C   0  0  0  0  0  0  0  0  0  0  0  0
   -0.7500   -1.2990    0.0000 C   0  0  0  0  0  0  0  0  0  0  0  0
   -3.8536   -2.3075    0.0000 C   0  0  0  0  0  0  0  0  0  0  0  0
   -3.8536   -0.8075    0.0000 C   0  0  0  0  0  0  0  0  0  0  0  0
   -2.6401    0.0742    0.0000 N   0  0  0  0  0  0  0  0  0  0  0  0
   -3.1036    1.5008    0.0000 N   0  0  0  0  0  0  0  0  0  0  0  0
   -4.6036    1.5008    0.0000 C   0  0  0  0  0  0  0  0  0  0  0  0
   -5.6073    2.6155    0.0000 C   0  0  0  0  0  0  0  0  0  0  0  0
   -7.0746    2.3036    0.0000 C   0  0  0  0  0  0  0  0  0  0  0  0
   -7.5381    0.8771    0.0000 C   0  0  0  0  0  0  0  0  0  0  0  0
   -6.5344   -0.2377    0.0000 C   0  0  0  0  0  0  0  0  0  0  0  0
   -5.0672    0.0742    0.0000 C   0  0  0  0  0  0  0  0  0  0  0  0
  1  2  2  0
  2  3  1  0
  3  4  1  0
  4  5  2  0
  4  6  1  0
  6  7  1  0
  7  8  2  0
  8  9  1  0
  9 10  1  0
 10 11  2  0
 11 12  1  0
 12 13  2  0
 13 14  1  0
 14 15  2  0
  9 16  1  0
 16 17  2  0
 17 18  1  0
 18 19  2  0
 19 20  1  0
 20 21  2  0
  6 22  2  0
 22 23  1  0
 23 24  1  0
 24 25  1  0
 25 26  2  0
 26 27  1  0
 27 28  2  0
 28 29  1  0
 29 30  2  0
 30 31  1  0
 22  2  1  0
 31 23  2  0
 21  7  1  0
 31 26  1  0
 15 10  1  0
 21 16  1  0
M  END
>  <Compound_ID>  (106) 
CHEMBL175956

>  <Active>  (106) 
1.0

>  <Smiles>  (106) 
O=C1NC(=O)C(c2cn(-c3cccnc3)c3ccccc23)=C1c1[nH]nc2ccccc12

>  <canonical_smi>  (106) 
O=C1NC(=O)C(c2cn(-c3cccnc3)c3ccccc23)=C1c1[nH]nc2ccccc12

>  <Set>  (106) 
G2 active

>  <Set_type>  (106) 
Train

>  <MW>  (106) 
405.42

>  <HBD>  (106) 
2

>  <HBA>  (106) 
4

>  <NRB>  (106) 
3

>  <NR>  (106) 
6

>  <NAR>  (106) 
5

>  <PSA>  (106) 
92.67

>  <Standard Type>  (106) 
nan

>  <Standard Relation>  (106) 
nan

>  <Standard Units>  (106) 
nan

>  <Standard Value>  (106) 
nan

>  <Assay ChEMBL ID>  (106) 
nan

>  <Assay Description>  (106) 
nan

>  <BAO Label>  (106) 
nan

$$$$

     RDKit          2D

 32 36  0  0  0  0  0  0  0  0999 V2000
    1.3354    7.6342    0.0000 C   0  0  0  0  0  0  0  0  0  0  0  0
    0.1219    6.7525    0.0000 N   0  0  0  0  0  0  0  0  0  0  0  0
   -1.2484    7.3626    0.0000 C   0  0  0  0  0  0  0  0  0  0  0  0
    0.2787    5.2607    0.0000 C   0  0  0  0  0  0  0  0  0  0  0  0
   -0.9348    4.3790    0.0000 C   0  0  0  0  0  0  0  0  0  0  0  0
   -0.7780    2.8872    0.0000 C   0  0  0  0  0  0  0  0  0  0  0  0
   -1.9916    2.0056    0.0000 N   0  0  0  0  0  0  0  0  0  0  0  0
   -1.9916    0.5056    0.0000 C   0  0  0  0  0  0  0  0  0  0  0  0
   -3.4182    0.0420    0.0000 C   0  0  0  0  0  0  0  0  0  0  0  0
   -3.8817   -1.3846    0.0000 C   0  0  0  0  0  0  0  0  0  0  0  0
   -3.0000   -2.5981    0.0000 C   0  0  0  0  0  0  0  0  0  0  0  0
   -1.5000   -2.5981    0.0000 C   0  0  0  0  0  0  0  0  0  0  0  0
   -0.7500   -3.8971    0.0000 C   0  0  0  0  0  0  0  0  0  0  0  0
    0.7500   -3.8971    0.0000 C   0  0  0  0  0  0  0  0  0  0  0  0
    1.5000   -2.5981    0.0000 C   0  0  0  0  0  0  0  0  0  0  0  0
    0.7500   -1.2990    0.0000 C   0  0  0  0  0  0  0  0  0  0  0  0
    1.5000    0.0000    0.0000 C   0  0  0  0  0  0  0  0  0  0  0  0
    0.7500    1.2990    0.0000 C   0  0  0  0  0  0  0  0  0  0  0  0
   -0.7500    1.2990    0.0000 C   0  0  0  0  0  0  0  0  0  0  0  0
   -1.5000    0.0000    0.0000 C   0  0  0  0  0  0  0  0  0  0  0  0
   -0.7500   -1.2990    0.0000 C   0  0  0  0  0  0  0  0  0  0  0  0
   -3.8817   -3.8116    0.0000 C   0  0  0  0  0  0  0  0  0  0  0  0
   -3.4182   -5.2382    0.0000 O   0  0  0  0  0  0  0  0  0  0  0  0
   -5.3083   -3.3481    0.0000 N   0  0  0  0  0  0  0  0  0  0  0  0
   -5.3083   -1.8481    0.0000 C   0  0  0  0  0  0  0  0  0  0  0  0
   -6.5218   -0.9664    0.0000 O   0  0  0  0  0  0  0  0  0  0  0  0
   -4.2998    1.2556    0.0000 C   0  0  0  0  0  0  0  0  0  0  0  0
   -5.7916    1.4124    0.0000 C   0  0  0  0  0  0  0  0  0  0  0  0
   -6.4017    2.7827    0.0000 C   0  0  0  0  0  0  0  0  0  0  0  0
   -5.5200    3.9962    0.0000 C   0  0  0  0  0  0  0  0  0  0  0  0
   -4.0283    3.8394    0.0000 N   0  0  0  0  0  0  0  0  0  0  0  0
   -3.4182    2.4691    0.0000 C   0  0  0  0  0  0  0  0  0  0  0  0
  1  2  1  0
  2  3  1  0
  2  4  1  0
  4  5  1  0
  5  6  1  0
  6  7  1  0
  7  8  1  0
  8  9  2  0
  9 10  1  0
 10 11  2  0
 11 12  1  0
 12 13  2  0
 13 14  1  0
 14 15  2  0
 15 16  1  0
 16 17  2  0
 17 18  1  0
 18 19  2  0
 19 20  1  0
 20 21  2  0
 11 22  1  0
 22 23  2  0
 22 24  1  0
 24 25  1  0
 25 26  2  0
  9 27  1  0
 27 28  2  0
 28 29  1  0
 29 30  2  0
 30 31  1  0
 31 32  2  0
 32  7  1  0
 25 10  1  0
 32 27  1  0
 21 12  1  0
 21 16  1  0
M  END
>  <Compound_ID>  (107) 
CHEMBL326688

>  <Active>  (107) 
1.0

>  <Smiles>  (107) 
CN(C)CCCn1cc(C2=C(c3cccc4ccccc34)C(=O)NC2=O)c2cccnc21

>  <canonical_smi>  (107) 
CN(C)CCCn1cc(C2=C(c3cccc4ccccc34)C(=O)NC2=O)c2cccnc21

>  <Set>  (107) 
G2 active

>  <Set_type>  (107) 
Train

>  <MW>  (107) 
424.5

>  <HBD>  (107) 
1

>  <HBA>  (107) 
4

>  <NRB>  (107) 
6

>  <NR>  (107) 
5

>  <NAR>  (107) 
4

>  <PSA>  (107) 
67.23

>  <Standard Type>  (107) 
nan

>  <Standard Relation>  (107) 
nan

>  <Standard Units>  (107) 
nan

>  <Standard Value>  (107) 
nan

>  <Assay ChEMBL ID>  (107) 
nan

>  <Assay Description>  (107) 
nan

>  <BAO Label>  (107) 
nan

$$$$

     RDKit          2D

 34 39  0  0  0  0  0  0  0  0999 V2000
   -3.6263   -1.0254    0.0000 O   0  0  0  0  0  0  0  0  0  0  0  0
   -3.9381   -2.4926    0.0000 C   0  0  0  0  0  0  0  0  0  0  0  0
   -5.3085   -3.1027    0.0000 N   0  0  0  0  0  0  0  0  0  0  0  0
   -5.1517   -4.5945    0.0000 C   0  0  0  0  0  0  0  0  0  0  0  0
   -6.2664   -5.5982    0.0000 O   0  0  0  0  0  0  0  0  0  0  0  0
   -3.6844   -4.9063    0.0000 C   0  0  0  0  0  0  0  0  0  0  0  0
   -2.9344   -3.6073    0.0000 C   0  0  0  0  0  0  0  0  0  0  0  0
   -1.2135   -2.7256    0.0000 C   0  0  0  0  0  0  0  0  0  0  0  0
   -0.0000   -3.6073    0.0000 C   0  0  0  0  0  0  0  0  0  0  0  0
    1.2135   -2.7256    0.0000 N   0  0  0  0  0  0  0  0  0  0  0  0
    0.7500   -1.2990    0.0000 C   0  0  0  0  0  0  0  0  0  0  0  0
    1.5000    0.0000    0.0000 C   0  0  0  0  0  0  0  0  0  0  0  0
    0.7500    1.2990    0.0000 C   0  0  0  0  0  0  0  0  0  0  0  0
   -0.7500    1.2990    0.0000 C   0  0  0  0  0  0  0  0  0  0  0  0
   -1.5000    0.0000    0.0000 C   0  0  0  0  0  0  0  0  0  0  0  0
   -0.7500   -1.2990    0.0000 C   0  0  0  0  0  0  0  0  0  0  0  0
    2.4271   -3.6073    0.0000 C   0  0  0  0  0  0  0  0  0  0  0  0
    3.1771   -4.9063    0.0000 C   0  0  0  0  0  0  0  0  0  0  0  0
    3.3338   -6.3981    0.0000 C   0  0  0  0  0  0  0  0  0  0  0  0
    2.8703   -7.8247    0.0000 O   0  0  0  0  0  0  0  0  0  0  0  0
    1.8666   -8.9394    0.0000 C   0  0  0  0  0  0  0  0  0  0  0  0
    2.7483  -10.1529    0.0000 C   0  0  0  0  0  0  0  0  0  0  0  0
    2.1382  -11.5233    0.0000 O   0  0  0  0  0  0  0  0  0  0  0  0
    0.4963   -9.5495    0.0000 C   0  0  0  0  0  0  0  0  0  0  0  0
   -1.0037   -9.5495    0.0000 C   0  0  0  0  0  0  0  0  0  0  0  0
   -2.3740   -8.9394    0.0000 N   0  0  0  0  0  0  0  0  0  0  0  0
   -3.3777   -7.8247    0.0000 C   0  0  0  0  0  0  0  0  0  0  0  0
   -3.8412   -6.3981    0.0000 C   0  0  0  0  0  0  0  0  0  0  0  0
   -4.8449   -7.5128    0.0000 C   0  0  0  0  0  0  0  0  0  0  0  0
   -6.3449   -7.5128    0.0000 C   0  0  0  0  0  0  0  0  0  0  0  0
   -7.0949   -8.8119    0.0000 C   0  0  0  0  0  0  0  0  0  0  0  0
   -6.3449  -10.1109    0.0000 C   0  0  0  0  0  0  0  0  0  0  0  0
   -4.8449  -10.1109    0.0000 C   0  0  0  0  0  0  0  0  0  0  0  0
   -4.0949   -8.8119    0.0000 C   0  0  0  0  0  0  0  0  0  0  0  0
  1  2  2  0
  2  3  1  0
  3  4  1  0
  4  5  2  0
  4  6  1  0
  6  7  2  0
  7  8  1  0
  8  9  2  0
  9 10  1  0
 10 11  1  0
 11 12  2  0
 12 13  1  0
 13 14  2  0
 14 15  1  0
 15 16  2  0
 10 17  1  0
 17 18  1  0
 18 19  1  0
 19 20  1  0
 20 21  1  0
 21 22  1  0
 22 23  1  0
 21 24  1  0
 24 25  1  0
 25 26  1  0
 26 27  1  0
 27 28  2  0
 28 29  1  0
 29 30  2  0
 30 31  1  0
 31 32  2  0
 32 33  1  0
 33 34  2  0
  7  2  1  0
 16  8  1  0
 34 26  1  0
 28  6  1  0
 34 29  1  0
 16 11  1  0
M  END
>  <Compound_ID>  (108) 
CHEMBL294120

>  <Active>  (108) 
1.0

>  <Smiles>  (108) 
O=C1NC(=O)C2=C1c1cn(c3ccccc13)CCCOC(CO)CCn1cc2c2ccccc21

>  <canonical_smi>  (108) 
O=C1NC(=O)C2=C1c1cn(c3ccccc13)CCCOC(CO)CCn1cc2c2ccccc21

>  <Set>  (108) 
G2 active

>  <Set_type>  (108) 
Train

>  <MW>  (108) 
455.51

>  <HBD>  (108) 
2

>  <HBA>  (108) 
4

>  <NRB>  (108) 
1

>  <NR>  (108) 
6

>  <NAR>  (108) 
4

>  <PSA>  (108) 
85.49

>  <Standard Type>  (108) 
nan

>  <Standard Relation>  (108) 
nan

>  <Standard Units>  (108) 
nan

>  <Standard Value>  (108) 
nan

>  <Assay ChEMBL ID>  (108) 
nan

>  <Assay Description>  (108) 
nan

>  <BAO Label>  (108) 
nan

$$$$

     RDKit          2D

 37 40  0  0  0  0  0  0  0  0999 V2000
    5.9262   -5.9767    0.0000 O   0  0  0  0  0  0  0  0  0  0  0  0
    5.4627   -4.5501    0.0000 C   0  0  0  0  0  0  0  0  0  0  0  0
    3.9955   -4.2382    0.0000 N   0  0  0  0  0  0  0  0  0  0  0  0
    2.9918   -5.3529    0.0000 C   0  0  0  0  0  0  0  0  0  0  0  0
    3.3037   -6.8202    0.0000 C   0  0  0  0  0  0  0  0  0  0  0  0
    2.0046   -7.5702    0.0000 C   0  0  0  0  0  0  0  0  0  0  0  0
    0.8899   -6.5665    0.0000 C   0  0  0  0  0  0  0  0  0  0  0  0
    1.5000   -5.1962    0.0000 C   0  0  0  0  0  0  0  0  0  0  0  0
    0.7500   -3.8971    0.0000 O   0  0  0  0  0  0  0  0  0  0  0  0
    1.5000   -2.5981    0.0000 C   0  0  0  0  0  0  0  0  0  0  0  0
    0.7500   -1.2990    0.0000 C   0  0  0  0  0  0  0  0  0  0  0  0
    1.5000    0.0000    0.0000 C   0  0  0  0  0  0  0  0  0  0  0  0
    0.7500    1.2990    0.0000 C   0  0  0  0  0  0  0  0  0  0  0  0
    1.5000    2.5981    0.0000 O   0  0  0  0  0  0  0  0  0  0  0  0
   -0.7500    1.2990    0.0000 C   0  0  0  0  0  0  0  0  0  0  0  0
   -1.5000    2.5981    0.0000 C   0  0  0  0  0  0  0  0  0  0  0  0
   -0.7500    3.8971    0.0000 O   0  0  0  0  0  0  0  0  0  0  0  0
   -3.0000    2.5981    0.0000 C   0  0  0  0  0  0  0  0  0  0  0  0
   -3.7500    1.2990    0.0000 C   0  0  0  0  0  0  0  0  0  0  0  0
   -3.3655    0.3931    0.0000 O   0  0  0  0  0  0  0  0  0  0  0  0
   -5.2500    1.2990    0.0000 C   0  0  0  0  0  0  0  0  0  0  0  0
   -6.0000    2.5981    0.0000 C   0  0  0  0  0  0  0  0  0  0  0  0
   -5.2500    3.8971    0.0000 C   0  0  0  0  0  0  0  0  0  0  0  0
   -3.7500    3.8971    0.0000 C   0  0  0  0  0  0  0  0  0  0  0  0
   -3.0000    5.1962    0.0000 C   0  0  0  0  0  0  0  0  0  0  0  0
   -1.5000    5.1962    0.0000 O   0  0  0  0  0  0  0  0  0  0  0  0
   -3.7500    6.4952    0.0000 O   0  0  0  0  0  0  0  0  0  0  0  0
   -1.5000    0.0000    0.0000 C   0  0  0  0  0  0  0  0  0  0  0  0
   -2.4768   -0.1200    0.0000 O   0  0  0  0  0  0  0  0  0  0  0  0
   -0.7500   -1.2990    0.0000 C   0  0  0  0  0  0  0  0  0  0  0  0
    6.4664   -3.4354    0.0000 C   0  0  0  0  0  0  0  0  0  0  0  0
    7.9336   -3.7472    0.0000 C   0  0  0  0  0  0  0  0  0  0  0  0
    8.9373   -2.6325    0.0000 C   0  0  0  0  0  0  0  0  0  0  0  0
    8.4738   -1.2059    0.0000 C   0  0  0  0  0  0  0  0  0  0  0  0
    9.4775   -0.0912    0.0000 O   0  0  0  0  0  0  0  0  0  0  0  0
    7.0066   -0.8941    0.0000 C   0  0  0  0  0  0  0  0  0  0  0  0
    6.0029   -2.0088    0.0000 C   0  0  0  0  0  0  0  0  0  0  0  0
  1  2  2  0
  2  3  1  0
  3  4  1  0
  4  5  1  0
  5  6  1  0
  6  7  1  0
  7  8  1  0
  8  9  1  0
  9 10  1  0
 10 11  1  0
 11 12  2  0
 12 13  1  0
 13 14  1  0
 13 15  2  0
 15 16  1  0
 16 17  2  0
 16 18  1  0
 18 19  2  0
 19 20  1  0
 19 21  1  0
 21 22  2  0
 22 23  1  0
 23 24  2  0
 24 25  1  0
 25 26  2  0
 25 27  1  0
 15 28  1  0
 28 29  1  0
 28 30  2  0
  2 31  1  0
 31 32  2  0
 32 33  1  0
 33 34  2  0
 34 35  1  0
 34 36  1  0
 36 37  2  0
  8  4  1  0
 30 11  1  0
 37 31  1  0
 24 18  1  0
M  END
>  <Compound_ID>  (109) 
CHEMBL89833

>  <Active>  (109) 
1.0

>  <Smiles>  (109) 
O=C(NC1CCCC1OCc1cc(O)c(C(=O)c2c(O)cccc2C(=O)O)c(O)c1)c1ccc(O)cc1

>  <canonical_smi>  (109) 
O=C(NC1CCCC1OCc1cc(O)c(C(=O)c2c(O)cccc2C(=O)O)c(O)c1)c1ccc(O)cc1

>  <Set>  (109) 
G2 active

>  <Set_type>  (109) 
Train

>  <MW>  (109) 
507.5

>  <HBD>  (109) 
6

>  <HBA>  (109) 
9

>  <NRB>  (109) 
8

>  <NR>  (109) 
4

>  <NAR>  (109) 
3

>  <PSA>  (109) 
173.62

>  <Standard Type>  (109) 
nan

>  <Standard Relation>  (109) 
nan

>  <Standard Units>  (109) 
nan

>  <Standard Value>  (109) 
nan

>  <Assay ChEMBL ID>  (109) 
nan

>  <Assay Description>  (109) 
nan

>  <BAO Label>  (109) 
nan

$$$$

     RDKit          2D

 40 46  0  0  0  0  0  0  0  0999 V2000
   -3.2691   -1.1378    0.0000 O   0  0  0  0  0  0  0  0  0  0  0  0
   -3.4705   -2.6243    0.0000 C   0  0  0  0  0  0  0  0  0  0  0  0
   -4.7914   -3.3351    0.0000 N   0  0  0  0  0  0  0  0  0  0  0  0
   -4.5235   -4.8110    0.0000 C   0  0  0  0  0  0  0  0  0  0  0  0
   -5.5601   -5.8952    0.0000 O   0  0  0  0  0  0  0  0  0  0  0  0
   -3.0371   -5.0123    0.0000 C   0  0  0  0  0  0  0  0  0  0  0  0
   -2.3863   -3.6609    0.0000 C   0  0  0  0  0  0  0  0  0  0  0  0
   -1.2135   -2.7256    0.0000 C   0  0  0  0  0  0  0  0  0  0  0  0
   -0.0000   -3.6073    0.0000 C   0  0  0  0  0  0  0  0  0  0  0  0
    1.2135   -2.7256    0.0000 N   0  0  0  0  0  0  0  0  0  0  0  0
    0.7500   -1.2990    0.0000 C   0  0  0  0  0  0  0  0  0  0  0  0
    1.5000    0.0000    0.0000 C   0  0  0  0  0  0  0  0  0  0  0  0
    0.7500    1.2990    0.0000 C   0  0  0  0  0  0  0  0  0  0  0  0
   -0.7500    1.2990    0.0000 C   0  0  0  0  0  0  0  0  0  0  0  0
   -1.5000    0.0000    0.0000 C   0  0  0  0  0  0  0  0  0  0  0  0
   -0.7500   -1.2990    0.0000 C   0  0  0  0  0  0  0  0  0  0  0  0
    2.8840   -3.6609    0.0000 C   0  0  0  0  0  0  0  0  0  0  0  0
    3.5348   -5.0123    0.0000 C   0  0  0  0  0  0  0  0  0  0  0  0
    3.5348   -6.5123    0.0000 O   0  0  0  0  0  0  0  0  0  0  0  0
    2.8840   -7.8638    0.0000 C   0  0  0  0  0  0  0  0  0  0  0  0
    4.0568   -8.7990    0.0000 C   0  0  0  0  0  0  0  0  0  0  0  0
    3.8332  -10.2822    0.0000 N   0  0  0  0  0  0  0  0  0  0  0  0
    5.0059  -11.2175    0.0000 C   0  0  0  0  0  0  0  0  0  0  0  0
    4.7824  -12.7007    0.0000 C   0  0  0  0  0  0  0  0  0  0  0  0
    3.3861  -13.2487    0.0000 C   0  0  0  0  0  0  0  0  0  0  0  0
    3.1625  -14.7320    0.0000 C   0  0  0  0  0  0  0  0  0  0  0  0
    4.3352  -15.6672    0.0000 C   0  0  0  0  0  0  0  0  0  0  0  0
    5.7316  -15.1192    0.0000 C   0  0  0  0  0  0  0  0  0  0  0  0
    5.9551  -13.6360    0.0000 C   0  0  0  0  0  0  0  0  0  0  0  0
    1.7113   -8.7990    0.0000 C   0  0  0  0  0  0  0  0  0  0  0  0
    0.2489   -9.1328    0.0000 C   0  0  0  0  0  0  0  0  0  0  0  0
   -1.2135   -8.7990    0.0000 N   0  0  0  0  0  0  0  0  0  0  0  0
   -2.3863   -7.8638    0.0000 C   0  0  0  0  0  0  0  0  0  0  0  0
   -3.0371   -6.5123    0.0000 C   0  0  0  0  0  0  0  0  0  0  0  0
   -3.8634   -7.7642    0.0000 C   0  0  0  0  0  0  0  0  0  0  0  0
   -5.3467   -7.9877    0.0000 C   0  0  0  0  0  0  0  0  0  0  0  0
   -5.8947   -9.3840    0.0000 C   0  0  0  0  0  0  0  0  0  0  0  0
   -4.9595  -10.5568    0.0000 C   0  0  0  0  0  0  0  0  0  0  0  0
   -3.4762  -10.3332    0.0000 C   0  0  0  0  0  0  0  0  0  0  0  0
   -2.9282   -8.9369    0.0000 C   0  0  0  0  0  0  0  0  0  0  0  0
  1  2  2  0
  2  3  1  0
  3  4  1  0
  4  5  2  0
  4  6  1  0
  6  7  2  0
  7  8  1  0
  8  9  2  0
  9 10  1  0
 10 11  1  0
 11 12  2  0
 12 13  1  0
 13 14  2  0
 14 15  1  0
 15 16  2  0
 10 17  1  0
 17 18  1  0
 18 19  1  0
 19 20  1  0
 20 21  1  6
 21 22  1  0
 22 23  1  0
 23 24  1  0
 24 25  2  0
 25 26  1  0
 26 27  2  0
 27 28  1  0
 28 29  2  0
 20 30  1  0
 30 31  1  0
 31 32  1  0
 32 33  1  0
 33 34  2  0
 34 35  1  0
 35 36  2  0
 36 37  1  0
 37 38  2  0
 38 39  1  0
 39 40  2  0
  7  2  1  0
 16  8  1  0
 29 24  1  0
 40 32  1  0
 34  6  1  0
 40 35  1  0
 16 11  1  0
M  END
>  <Compound_ID>  (110) 
CHEMBL328229

>  <Active>  (110) 
1.0

>  <Smiles>  (110) 
O=C1NC(=O)C2=C1c1cn(c3ccccc13)CCO[C@H](CNCc1ccccc1)CCn1cc2c2ccccc21

>  <canonical_smi>  (110) 
O=C1NC(=O)C2=C1c1cn(c3ccccc13)CCO[C@H](CNCc1ccccc1)CCn1cc2c2ccccc21

>  <Set>  (110) 
G2 active

>  <Set_type>  (110) 
Train

>  <MW>  (110) 
530.63

>  <HBD>  (110) 
2

>  <HBA>  (110) 
4

>  <NRB>  (110) 
4

>  <NR>  (110) 
7

>  <NAR>  (110) 
5

>  <PSA>  (110) 
77.29

>  <Standard Type>  (110) 
nan

>  <Standard Relation>  (110) 
nan

>  <Standard Units>  (110) 
nan

>  <Standard Value>  (110) 
nan

>  <Assay ChEMBL ID>  (110) 
nan

>  <Assay Description>  (110) 
nan

>  <BAO Label>  (110) 
nan

$$$$

     RDKit          2D

 38 44  0  0  0  0  0  0  0  0999 V2000
   -4.5736    3.3293    0.0000 C   0  0  0  0  0  0  0  0  0  0  0  0
   -3.1773    2.7813    0.0000 C   0  0  0  0  0  0  0  0  0  0  0  0
   -2.9537    1.2980    0.0000 C   0  0  0  0  0  0  0  0  0  0  0  0
   -1.5574    0.7500    0.0000 C   0  0  0  0  0  0  0  0  0  0  0  0
   -0.3846    1.6852    0.0000 C   0  0  0  0  0  0  0  0  0  0  0  0
   -0.6082    3.1685    0.0000 C   0  0  0  0  0  0  0  0  0  0  0  0
   -2.0045    3.7165    0.0000 C   0  0  0  0  0  0  0  0  0  0  0  0
    0.7528    3.7990    0.0000 C   0  0  0  0  0  0  0  0  0  0  0  0
    1.0427    5.2707    0.0000 C   0  0  0  0  0  0  0  0  0  0  0  0
    0.0225    6.3703    0.0000 C   0  0  0  0  0  0  0  0  0  0  0  0
   -1.4668    6.1912    0.0000 C   0  0  0  0  0  0  0  0  0  0  0  0
   -2.1973    4.8811    0.0000 C   0  0  0  0  0  0  0  0  0  0  0  0
   -3.6690    5.1710    0.0000 N   0  0  0  0  0  0  0  0  0  0  0  0
   -3.8481    6.6603    0.0000 C   0  0  0  0  0  0  0  0  0  0  0  0
   -5.0747    7.5237    0.0000 C   0  0  0  0  0  0  0  0  0  0  0  0
   -4.9402    9.0177    0.0000 C   0  0  0  0  0  0  0  0  0  0  0  0
   -3.5792    9.6482    0.0000 C   0  0  0  0  0  0  0  0  0  0  0  0
   -2.3526    8.7848    0.0000 C   0  0  0  0  0  0  0  0  0  0  0  0
   -2.4871    7.2908    0.0000 N   0  0  0  0  0  0  0  0  0  0  0  0
    0.7529    7.6804    0.0000 C   0  0  0  0  0  0  0  0  0  0  0  0
    0.1224    9.0415    0.0000 O   0  0  0  0  0  0  0  0  0  0  0  0
    2.2247    7.3905    0.0000 N   0  0  0  0  0  0  0  0  0  0  0  0
    2.4038    5.9013    0.0000 C   0  0  0  0  0  0  0  0  0  0  0  0
    3.7139    5.1708    0.0000 O   0  0  0  0  0  0  0  0  0  0  0  0
    1.7731    2.6994    0.0000 C   0  0  0  0  0  0  0  0  0  0  0  0
    1.0777    1.3515    0.0000 N   0  0  0  0  0  0  0  0  0  0  0  0
    1.7286    0.0000    0.0000 C   0  0  0  0  0  0  0  0  0  0  0  0
    1.0777   -1.3515    0.0000 C   0  0  0  0  0  0  0  0  0  0  0  0
   -0.3846   -1.6852    0.0000 N   0  0  0  0  0  0  0  0  0  0  0  0
   -0.7184   -3.1476    0.0000 C   0  0  0  0  0  0  0  0  0  0  0  0
    0.3812   -4.1679    0.0000 O   0  0  0  0  0  0  0  0  0  0  0  0
   -2.1518   -3.5898    0.0000 N   0  0  0  0  0  0  0  0  0  0  0  0
   -3.2514   -2.5695    0.0000 C   0  0  0  0  0  0  0  0  0  0  0  0
   -4.6847   -3.0116    0.0000 C   0  0  0  0  0  0  0  0  0  0  0  0
   -5.0185   -4.4740    0.0000 C   0  0  0  0  0  0  0  0  0  0  0  0
   -3.9189   -5.4943    0.0000 C   0  0  0  0  0  0  0  0  0  0  0  0
   -2.4856   -5.0522    0.0000 C   0  0  0  0  0  0  0  0  0  0  0  0
   -1.5574   -0.7500    0.0000 C   0  0  0  0  0  0  0  0  0  0  0  0
  1  2  1  0
  2  3  2  0
  3  4  1  0
  4  5  2  0
  5  6  1  0
  6  7  2  0
  6  8  1  0
  8  9  1  0
  9 10  2  0
 10 11  1  0
 11 12  2  0
 12 13  1  0
 13 14  2  0
 14 15  1  0
 15 16  2  0
 16 17  1  0
 17 18  2  0
 18 19  1  0
 10 20  1  0
 20 21  2  0
 20 22  1  0
 22 23  1  0
 23 24  2  0
  8 25  2  0
 25 26  1  0
 26 27  1  0
 27 28  1  0
 28 29  1  0
 29 30  1  0
 30 31  2  0
 30 32  1  0
 32 33  1  0
 33 34  1  0
 34 35  1  0
 35 36  1  0
 36 37  1  0
 29 38  1  0
  7  2  1  0
 23  9  1  0
 37 32  1  0
 38  4  1  0
 26  5  1  0
 19 11  1  0
 19 14  1  0
M  END
>  <Compound_ID>  (111) 
CHEMBL186290

>  <Active>  (111) 
1.0

>  <Smiles>  (111) 
Cc1cc2c3c(c1)c(C1=C(c4cnc5ccccn45)C(=O)NC1=O)cn3CCN(C(=O)N1CCCCC1)C2

>  <canonical_smi>  (111) 
Cc1cc2c3c(c1)c(C1=C(c4cnc5ccccn45)C(=O)NC1=O)cn3CCN(C(=O)N1CCCCC1)C2

>  <Set>  (111) 
G2 active

>  <Set_type>  (111) 
Train

>  <MW>  (111) 
508.58

>  <HBD>  (111) 
1

>  <HBA>  (111) 
4

>  <NRB>  (111) 
2

>  <NR>  (111) 
7

>  <NAR>  (111) 
4

>  <PSA>  (111) 
91.95

>  <Standard Type>  (111) 
nan

>  <Standard Relation>  (111) 
nan

>  <Standard Units>  (111) 
nan

>  <Standard Value>  (111) 
nan

>  <Assay ChEMBL ID>  (111) 
nan

>  <Assay Description>  (111) 
nan

>  <BAO Label>  (111) 
nan

$$$$

     RDKit          2D

 37 43  0  0  0  0  0  0  0  0999 V2000
    5.4933   -4.1162    0.0000 O   0  0  0  0  0  0  0  0  0  0  0  0
    5.1814   -2.6490    0.0000 C   0  0  0  0  0  0  0  0  0  0  0  0
    3.7548   -2.1855    0.0000 C   0  0  0  0  0  0  0  0  0  0  0  0
    2.6401   -3.1891    0.0000 C   0  0  0  0  0  0  0  0  0  0  0  0
    1.2135   -2.7256    0.0000 N   0  0  0  0  0  0  0  0  0  0  0  0
    0.7500   -1.2990    0.0000 C   0  0  0  0  0  0  0  0  0  0  0  0
    1.5000    0.0000    0.0000 C   0  0  0  0  0  0  0  0  0  0  0  0
    0.7500    1.2990    0.0000 C   0  0  0  0  0  0  0  0  0  0  0  0
   -0.7500    1.2990    0.0000 C   0  0  0  0  0  0  0  0  0  0  0  0
   -1.5000    0.0000    0.0000 C   0  0  0  0  0  0  0  0  0  0  0  0
   -0.7500   -1.2990    0.0000 C   0  0  0  0  0  0  0  0  0  0  0  0
   -1.2135   -2.7256    0.0000 C   0  0  0  0  0  0  0  0  0  0  0  0
   -2.5838   -3.3357    0.0000 C   0  0  0  0  0  0  0  0  0  0  0  0
   -2.7406   -4.8275    0.0000 C   0  0  0  0  0  0  0  0  0  0  0  0
   -1.5271   -5.7092    0.0000 C   0  0  0  0  0  0  0  0  0  0  0  0
   -1.3703   -7.2010    0.0000 C   0  0  0  0  0  0  0  0  0  0  0  0
   -2.3740   -8.3157    0.0000 C   0  0  0  0  0  0  0  0  0  0  0  0
   -1.9105   -9.7423    0.0000 C   0  0  0  0  0  0  0  0  0  0  0  0
   -0.4433  -10.0541    0.0000 C   0  0  0  0  0  0  0  0  0  0  0  0
    0.5604   -8.9394    0.0000 C   0  0  0  0  0  0  0  0  0  0  0  0
    0.0969   -7.5128    0.0000 C   0  0  0  0  0  0  0  0  0  0  0  0
    0.8469   -6.2138    0.0000 N   0  0  0  0  0  0  0  0  0  0  0  0
   -0.1568   -5.0991    0.0000 C   0  0  0  0  0  0  0  0  0  0  0  0
   -0.0000   -3.6073    0.0000 C   0  0  0  0  0  0  0  0  0  0  0  0
   -4.2079   -5.1394    0.0000 C   0  0  0  0  0  0  0  0  0  0  0  0
   -4.8180   -6.5097    0.0000 O   0  0  0  0  0  0  0  0  0  0  0  0
   -4.9579   -3.8403    0.0000 N   0  0  0  0  0  0  0  0  0  0  0  0
   -3.9542   -2.7256    0.0000 C   0  0  0  0  0  0  0  0  0  0  0  0
    6.2961   -1.6453    0.0000 N   0  0  0  0  0  0  0  0  0  0  0  0
    7.7227   -2.1088    0.0000 C   0  0  0  0  0  0  0  0  0  0  0  0
    8.8374   -1.1051    0.0000 C   0  0  0  0  0  0  0  0  0  0  0  0
   10.2640   -1.5686    0.0000 N   0  0  0  0  0  0  0  0  0  0  0  0
   10.5759   -3.0359    0.0000 C   0  0  0  0  0  0  0  0  0  0  0  0
   12.0025   -3.4994    0.0000 C   0  0  0  0  0  0  0  0  0  0  0  0
   13.1172   -2.4957    0.0000 C   0  0  0  0  0  0  0  0  0  0  0  0
   12.8053   -1.0285    0.0000 C   0  0  0  0  0  0  0  0  0  0  0  0
   11.3787   -0.5649    0.0000 C   0  0  0  0  0  0  0  0  0  0  0  0
  1  2  2  0
  2  3  1  0
  3  4  1  0
  4  5  1  0
  5  6  1  0
  6  7  2  0
  7  8  1  0
  8  9  2  0
  9 10  1  0
 10 11  2  0
 11 12  1  0
 12 13  2  0
 13 14  1  0
 14 15  2  0
 15 16  1  0
 16 17  2  0
 17 18  1  0
 18 19  2  0
 19 20  1  0
 20 21  2  0
 21 22  1  0
 22 23  1  0
 23 24  2  0
 14 25  1  0
 25 26  2  0
 25 27  1  0
 27 28  1  0
  2 29  1  0
 29 30  1  0
 30 31  1  0
 31 32  1  0
 32 33  1  0
 33 34  1  0
 34 35  1  0
 35 36  1  0
 36 37  1  0
 24  5  1  0
 37 32  1  0
 11  6  1  0
 24 12  1  0
 28 13  1  0
 23 15  1  0
 21 16  1  0
M  END
>  <Compound_ID>  (112) 
CHEMBL95825

>  <Active>  (112) 
1.0

>  <Smiles>  (112) 
O=C(CCn1c2ccccc2c2c3c(c4c5ccccc5[nH]c4c21)C(=O)NC3)NCCN1CCCCC1

>  <canonical_smi>  (112) 
O=C(CCn1c2ccccc2c2c3c(c4c5ccccc5[nH]c4c21)C(=O)NC3)NCCN1CCCCC1

>  <Set>  (112) 
G2 active

>  <Set_type>  (112) 
Train

>  <MW>  (112) 
493.61

>  <HBD>  (112) 
3

>  <HBA>  (112) 
3

>  <NRB>  (112) 
6

>  <NR>  (112) 
7

>  <NAR>  (112) 
5

>  <PSA>  (112) 
82.16

>  <Standard Type>  (112) 
nan

>  <Standard Relation>  (112) 
nan

>  <Standard Units>  (112) 
nan

>  <Standard Value>  (112) 
nan

>  <Assay ChEMBL ID>  (112) 
nan

>  <Assay Description>  (112) 
nan

>  <BAO Label>  (112) 
nan

$$$$

     RDKit          2D

 35 41  0  0  0  0  0  0  0  0999 V2000
    5.4933   -4.1162    0.0000 O   0  0  0  0  0  0  0  0  0  0  0  0
    5.1814   -2.6490    0.0000 C   0  0  0  0  0  0  0  0  0  0  0  0
    3.7548   -2.1855    0.0000 C   0  0  0  0  0  0  0  0  0  0  0  0
    2.6401   -3.1891    0.0000 C   0  0  0  0  0  0  0  0  0  0  0  0
    1.2135   -2.7256    0.0000 N   0  0  0  0  0  0  0  0  0  0  0  0
    0.7500   -1.2990    0.0000 C   0  0  0  0  0  0  0  0  0  0  0  0
    1.5000    0.0000    0.0000 C   0  0  0  0  0  0  0  0  0  0  0  0
    0.7500    1.2990    0.0000 C   0  0  0  0  0  0  0  0  0  0  0  0
   -0.7500    1.2990    0.0000 C   0  0  0  0  0  0  0  0  0  0  0  0
   -1.5000    0.0000    0.0000 C   0  0  0  0  0  0  0  0  0  0  0  0
   -0.7500   -1.2990    0.0000 C   0  0  0  0  0  0  0  0  0  0  0  0
   -1.2135   -2.7256    0.0000 C   0  0  0  0  0  0  0  0  0  0  0  0
   -2.5838   -3.3357    0.0000 C   0  0  0  0  0  0  0  0  0  0  0  0
   -2.7406   -4.8275    0.0000 C   0  0  0  0  0  0  0  0  0  0  0  0
   -1.5271   -5.7092    0.0000 C   0  0  0  0  0  0  0  0  0  0  0  0
   -1.3703   -7.2010    0.0000 C   0  0  0  0  0  0  0  0  0  0  0  0
   -2.3740   -8.3157    0.0000 C   0  0  0  0  0  0  0  0  0  0  0  0
   -1.9105   -9.7423    0.0000 C   0  0  0  0  0  0  0  0  0  0  0  0
   -0.4433  -10.0541    0.0000 C   0  0  0  0  0  0  0  0  0  0  0  0
    0.5604   -8.9394    0.0000 C   0  0  0  0  0  0  0  0  0  0  0  0
    0.0969   -7.5128    0.0000 C   0  0  0  0  0  0  0  0  0  0  0  0
    0.8469   -6.2138    0.0000 N   0  0  0  0  0  0  0  0  0  0  0  0
   -0.1568   -5.0991    0.0000 C   0  0  0  0  0  0  0  0  0  0  0  0
   -0.0000   -3.6073    0.0000 C   0  0  0  0  0  0  0  0  0  0  0  0
   -4.2079   -5.1394    0.0000 C   0  0  0  0  0  0  0  0  0  0  0  0
   -4.8180   -6.5097    0.0000 O   0  0  0  0  0  0  0  0  0  0  0  0
   -4.9579   -3.8403    0.0000 N   0  0  0  0  0  0  0  0  0  0  0  0
   -3.9542   -2.7256    0.0000 C   0  0  0  0  0  0  0  0  0  0  0  0
    6.2961   -1.6453    0.0000 N   0  0  0  0  0  0  0  0  0  0  0  0
    7.7227   -2.1088    0.0000 C   0  0  0  0  0  0  0  0  0  0  0  0
    8.8374   -1.1051    0.0000 C   0  0  0  0  0  0  0  0  0  0  0  0
    8.6806    0.3867    0.0000 C   0  0  0  0  0  0  0  0  0  0  0  0
   10.0510    0.9968    0.0000 C   0  0  0  0  0  0  0  0  0  0  0  0
   11.0547   -0.1179    0.0000 O   0  0  0  0  0  0  0  0  0  0  0  0
   10.3047   -1.4170    0.0000 C   0  0  0  0  0  0  0  0  0  0  0  0
  1  2  2  0
  2  3  1  0
  3  4  1  0
  4  5  1  0
  5  6  1  0
  6  7  2  0
  7  8  1  0
  8  9  2  0
  9 10  1  0
 10 11  2  0
 11 12  1  0
 12 13  2  0
 13 14  1  0
 14 15  2  0
 15 16  1  0
 16 17  2  0
 17 18  1  0
 18 19  2  0
 19 20  1  0
 20 21  2  0
 21 22  1  0
 22 23  1  0
 23 24  2  0
 14 25  1  0
 25 26  2  0
 25 27  1  0
 27 28  1  0
  2 29  1  0
 29 30  1  0
 30 31  1  0
 31 32  1  0
 32 33  1  0
 33 34  1  0
 34 35  1  0
 24  5  1  0
 35 31  1  0
 11  6  1  0
 24 12  1  0
 28 13  1  0
 23 15  1  0
 21 16  1  0
M  END
>  <Compound_ID>  (113) 
CHEMBL97822

>  <Active>  (113) 
1.0

>  <Smiles>  (113) 
O=C(CCn1c2ccccc2c2c3c(c4c5ccccc5[nH]c4c21)C(=O)NC3)NCC1CCOC1

>  <canonical_smi>  (113) 
O=C(CCn1c2ccccc2c2c3c(c4c5ccccc5[nH]c4c21)C(=O)NC3)NCC1CCOC1

>  <Set>  (113) 
G2 active

>  <Set_type>  (113) 
Train

>  <MW>  (113) 
466.54

>  <HBD>  (113) 
3

>  <HBA>  (113) 
3

>  <NRB>  (113) 
5

>  <NR>  (113) 
7

>  <NAR>  (113) 
5

>  <PSA>  (113) 
88.15

>  <Standard Type>  (113) 
nan

>  <Standard Relation>  (113) 
nan

>  <Standard Units>  (113) 
nan

>  <Standard Value>  (113) 
nan

>  <Assay ChEMBL ID>  (113) 
nan

>  <Assay Description>  (113) 
nan

>  <BAO Label>  (113) 
nan

$$$$

     RDKit          2D

 24 27  0  0  0  0  0  0  0  0999 V2000
   -6.4517    2.1925    0.0000 C   0  0  0  0  0  0  0  0  0  0  0  0
   -5.1527    1.4425    0.0000 C   0  0  0  0  0  0  0  0  0  0  0  0
   -3.8536    2.1925    0.0000 C   0  0  0  0  0  0  0  0  0  0  0  0
   -2.5546    1.4425    0.0000 C   0  0  0  0  0  0  0  0  0  0  0  0
   -2.5546   -0.0575    0.0000 C   0  0  0  0  0  0  0  0  0  0  0  0
   -3.8536   -0.8075    0.0000 C   0  0  0  0  0  0  0  0  0  0  0  0
   -3.8536   -2.3075    0.0000 C   0  0  0  0  0  0  0  0  0  0  0  0
   -2.6401   -3.1891    0.0000 C   0  0  0  0  0  0  0  0  0  0  0  0
   -1.2135   -2.7256    0.0000 C   0  0  0  0  0  0  0  0  0  0  0  0
   -0.0000   -3.6073    0.0000 C   0  0  0  0  0  0  0  0  0  0  0  0
    1.2135   -2.7256    0.0000 N   0  0  0  0  0  0  0  0  0  0  0  0
    2.6401   -3.1891    0.0000 C   0  0  0  0  0  0  0  0  0  0  0  0
    0.7500   -1.2990    0.0000 C   0  0  0  0  0  0  0  0  0  0  0  0
    1.5000    0.0000    0.0000 C   0  0  0  0  0  0  0  0  0  0  0  0
    0.7500    1.2990    0.0000 C   0  0  0  0  0  0  0  0  0  0  0  0
   -0.7500    1.2990    0.0000 C   0  0  0  0  0  0  0  0  0  0  0  0
   -1.5000    0.0000    0.0000 C   0  0  0  0  0  0  0  0  0  0  0  0
   -0.7500   -1.2990    0.0000 C   0  0  0  0  0  0  0  0  0  0  0  0
   -3.1036   -4.6157    0.0000 C   0  0  0  0  0  0  0  0  0  0  0  0
   -2.2220   -5.8293    0.0000 O   0  0  0  0  0  0  0  0  0  0  0  0
   -4.6036   -4.6157    0.0000 N   0  0  0  0  0  0  0  0  0  0  0  0
   -5.0672   -3.1891    0.0000 C   0  0  0  0  0  0  0  0  0  0  0  0
   -6.4937   -2.7256    0.0000 O   0  0  0  0  0  0  0  0  0  0  0  0
   -5.1527   -0.0575    0.0000 C   0  0  0  0  0  0  0  0  0  0  0  0
  1  2  1  0
  2  3  2  0
  3  4  1  0
  4  5  2  0
  5  6  1  0
  6  7  1  0
  7  8  2  0
  8  9  1  0
  9 10  2  0
 10 11  1  0
 11 12  1  0
 11 13  1  0
 13 14  2  0
 14 15  1  0
 15 16  2  0
 16 17  1  0
 17 18  2  0
  8 19  1  0
 19 20  2  0
 19 21  1  0
 21 22  1  0
 22 23  2  0
  6 24  2  0
 24  2  1  0
 22  7  1  0
 18  9  1  0
 18 13  1  0
M  END
>  <Compound_ID>  (114) 
CHEMBL54209

>  <Active>  (114) 
1.0

>  <Smiles>  (114) 
Cc1cccc(C2=C(c3cn(C)c4ccccc34)C(=O)NC2=O)c1

>  <canonical_smi>  (114) 
Cc1cccc(C2=C(c3cn(C)c4ccccc34)C(=O)NC2=O)c1

>  <Set>  (114) 
G2 active

>  <Set_type>  (114) 
Train

>  <MW>  (114) 
316.36

>  <HBD>  (114) 
1

>  <HBA>  (114) 
2

>  <NRB>  (114) 
2

>  <NR>  (114) 
4

>  <NAR>  (114) 
3

>  <PSA>  (114) 
51.1

>  <Standard Type>  (114) 
nan

>  <Standard Relation>  (114) 
nan

>  <Standard Units>  (114) 
nan

>  <Standard Value>  (114) 
nan

>  <Assay ChEMBL ID>  (114) 
nan

>  <Assay Description>  (114) 
nan

>  <BAO Label>  (114) 
nan

$$$$

     RDKit          2D

 40 43  0  0  0  0  0  0  0  0999 V2000
    4.0442    0.9043    0.0000 O   0  0  0  0  0  0  0  0  0  0  0  0
    3.4962    2.3006    0.0000 C   0  0  0  0  0  0  0  0  0  0  0  0
    2.0130    2.5242    0.0000 N   0  0  0  0  0  0  0  0  0  0  0  0
    1.0777    1.3515    0.0000 C   0  0  0  0  0  0  0  0  0  0  0  0
    1.7286    0.0000    0.0000 C   0  0  0  0  0  0  0  0  0  0  0  0
    1.0777   -1.3515    0.0000 C   0  0  0  0  0  0  0  0  0  0  0  0
   -0.3846   -1.6852    0.0000 C   0  0  0  0  0  0  0  0  0  0  0  0
   -1.5574   -0.7500    0.0000 N   0  0  0  0  0  0  0  0  0  0  0  0
   -1.5574    0.7500    0.0000 C   0  0  0  0  0  0  0  0  0  0  0  0
   -0.3846    1.6852    0.0000 C   0  0  0  0  0  0  0  0  0  0  0  0
   -0.7184    3.1476    0.0000 N   0  0  0  0  0  0  0  0  0  0  0  0
   -2.1518    3.5898    0.0000 C   0  0  0  0  0  0  0  0  0  0  0  0
   -3.2514    2.5695    0.0000 O   0  0  0  0  0  0  0  0  0  0  0  0
   -2.4856    5.0522    0.0000 C   0  0  0  0  0  0  0  0  0  0  0  0
   -1.3860    6.0724    0.0000 C   0  0  0  0  0  0  0  0  0  0  0  0
   -1.7198    7.5348    0.0000 C   0  0  0  0  0  0  0  0  0  0  0  0
   -3.1531    7.9769    0.0000 C   0  0  0  0  0  0  0  0  0  0  0  0
   -3.4869    9.4393    0.0000 O   0  0  0  0  0  0  0  0  0  0  0  0
   -4.2527    6.9567    0.0000 C   0  0  0  0  0  0  0  0  0  0  0  0
   -3.9189    5.4943    0.0000 C   0  0  0  0  0  0  0  0  0  0  0  0
    4.4315    3.4734    0.0000 C   0  0  0  0  0  0  0  0  0  0  0  0
    5.9147    3.2498    0.0000 C   0  0  0  0  0  0  0  0  0  0  0  0
    6.8499    4.4226    0.0000 C   0  0  0  0  0  0  0  0  0  0  0  0
    7.7980    4.1584    0.0000 O   0  0  0  0  0  0  0  0  0  0  0  0
    6.3019    5.8189    0.0000 C   0  0  0  0  0  0  0  0  0  0  0  0
    7.2372    6.9916    0.0000 C   0  0  0  0  0  0  0  0  0  0  0  0
    6.6892    8.3879    0.0000 O   0  0  0  0  0  0  0  0  0  0  0  0
    8.7204    6.7681    0.0000 C   0  0  0  0  0  0  0  0  0  0  0  0
    9.2684    5.3718    0.0000 C   0  0  0  0  0  0  0  0  0  0  0  0
    8.7532    4.5333    0.0000 O   0  0  0  0  0  0  0  0  0  0  0  0
   10.7517    5.1482    0.0000 C   0  0  0  0  0  0  0  0  0  0  0  0
   11.6869    6.3209    0.0000 C   0  0  0  0  0  0  0  0  0  0  0  0
   11.1389    7.7172    0.0000 C   0  0  0  0  0  0  0  0  0  0  0  0
    9.6556    7.9408    0.0000 C   0  0  0  0  0  0  0  0  0  0  0  0
    9.1076    9.3371    0.0000 C   0  0  0  0  0  0  0  0  0  0  0  0
    7.6244    9.5607    0.0000 O   0  0  0  0  0  0  0  0  0  0  0  0
   10.0429   10.5099    0.0000 O   0  0  0  0  0  0  0  0  0  0  0  0
    4.8187    6.0424    0.0000 C   0  0  0  0  0  0  0  0  0  0  0  0
    4.2707    7.4388    0.0000 O   0  0  0  0  0  0  0  0  0  0  0  0
    3.8835    4.8697    0.0000 C   0  0  0  0  0  0  0  0  0  0  0  0
  1  2  2  0
  2  3  1  0
  4  3  1  6
  4  5  1  0
  5  6  1  0
  6  7  1  0
  7  8  1  0
  8  9  1  0
  9 10  1  0
 10 11  1  1
 11 12  1  0
 12 13  2  0
 12 14  1  0
 14 15  2  0
 15 16  1  0
 16 17  2  0
 17 18  1  0
 17 19  1  0
 19 20  2  0
  2 21  1  0
 21 22  2  0
 22 23  1  0
 23 24  1  0
 23 25  2  0
 25 26  1  0
 26 27  2  0
 26 28  1  0
 28 29  2  0
 29 30  1  0
 29 31  1  0
 31 32  2  0
 32 33  1  0
 33 34  2  0
 34 35  1  0
 35 36  2  0
 35 37  1  0
 25 38  1  0
 38 39  1  0
 38 40  2  0
 10  4  1  0
 20 14  1  0
 40 21  1  0
 34 28  1  0
M  END
>  <Compound_ID>  (115) 
CHEMBL59687

>  <Active>  (115) 
1.0

>  <Smiles>  (115) 
O=C(N[C@@H]1CCCNC[C@H]1NC(=O)c1ccc(O)cc1)c1cc(O)c(C(=O)c2c(O)cccc2C(=O)O)c(O)c1

>  <canonical_smi>  (115) 
O=C(N[C@@H]1CCCNC[C@H]1NC(=O)c1ccc(O)cc1)c1cc(O)c(C(=O)c2c(O)cccc2C(=O)O)c(O)c1

>  <Set>  (115) 
G2 active

>  <Set_type>  (115) 
Train

>  <MW>  (115) 
549.54

>  <HBD>  (115) 
8

>  <HBA>  (115) 
10

>  <NRB>  (115) 
7

>  <NR>  (115) 
4

>  <NAR>  (115) 
3

>  <PSA>  (115) 
205.52

>  <Standard Type>  (115) 
nan

>  <Standard Relation>  (115) 
nan

>  <Standard Units>  (115) 
nan

>  <Standard Value>  (115) 
nan

>  <Assay ChEMBL ID>  (115) 
nan

>  <Assay Description>  (115) 
nan

>  <BAO Label>  (115) 
nan

$$$$

     RDKit          2D

 41 49  0  0  0  0  0  0  0  0999 V2000
    6.4640   -1.9952    0.0000 C   0  0  0  0  0  0  0  0  0  0  0  0
    4.9655   -1.9279    0.0000 O   0  0  0  0  0  0  0  0  0  0  0  0
    4.1580   -3.1920    0.0000 C   0  0  0  0  0  0  0  0  0  0  0  0
    4.8489   -4.5234    0.0000 C   0  0  0  0  0  0  0  0  0  0  0  0
    6.3474   -4.5907    0.0000 N   0  0  0  0  0  0  0  0  0  0  0  0
    7.1549   -3.3266    0.0000 C   0  0  0  0  0  0  0  0  0  0  0  0
    7.0384   -5.9220    0.0000 C   0  0  0  0  0  0  0  0  0  0  0  0
    8.5369   -5.9893    0.0000 C   0  0  0  0  0  0  0  0  0  0  0  0
    9.2278   -7.3207    0.0000 C   0  0  0  0  0  0  0  0  0  0  0  0
    8.4203   -8.5848    0.0000 C   0  0  0  0  0  0  0  0  0  0  0  0
    6.9218   -8.5175    0.0000 C   0  0  0  0  0  0  0  0  0  0  0  0
    6.2309   -7.1861    0.0000 C   0  0  0  0  0  0  0  0  0  0  0  0
    4.0414   -5.7874    0.0000 C   0  0  0  0  0  0  0  0  0  0  0  0
    2.5382   -5.8249    0.0000 C   0  0  0  0  0  0  0  0  0  0  0  0
    3.2490   -4.5040    0.0000 O   0  0  0  0  0  0  0  0  0  0  0  0
    2.6595   -3.1247    0.0000 C   0  0  0  0  0  0  0  0  0  0  0  0
    3.6464   -1.9951    0.0000 C   0  0  0  0  0  0  0  0  0  0  0  0
    1.2135   -2.7256    0.0000 N   0  0  0  0  0  0  0  0  0  0  0  0
    0.7500   -1.2990    0.0000 C   0  0  0  0  0  0  0  0  0  0  0  0
    1.5000    0.0000    0.0000 C   0  0  0  0  0  0  0  0  0  0  0  0
    0.7500    1.2990    0.0000 C   0  0  0  0  0  0  0  0  0  0  0  0
   -0.7500    1.2990    0.0000 C   0  0  0  0  0  0  0  0  0  0  0  0
   -1.5000    0.0000    0.0000 C   0  0  0  0  0  0  0  0  0  0  0  0
   -0.7500   -1.2990    0.0000 C   0  0  0  0  0  0  0  0  0  0  0  0
   -1.2135   -2.7256    0.0000 C   0  0  0  0  0  0  0  0  0  0  0  0
   -2.5518   -3.5691    0.0000 C   0  0  0  0  0  0  0  0  0  0  0  0
   -2.6191   -5.0676    0.0000 C   0  0  0  0  0  0  0  0  0  0  0  0
   -1.3550   -5.8751    0.0000 C   0  0  0  0  0  0  0  0  0  0  0  0
   -1.0212   -7.3375    0.0000 C   0  0  0  0  0  0  0  0  0  0  0  0
   -1.8846   -8.5641    0.0000 C   0  0  0  0  0  0  0  0  0  0  0  0
   -1.2541   -9.9251    0.0000 C   0  0  0  0  0  0  0  0  0  0  0  0
    0.2399  -10.0596    0.0000 C   0  0  0  0  0  0  0  0  0  0  0  0
    1.1033   -8.8330    0.0000 C   0  0  0  0  0  0  0  0  0  0  0  0
    0.4728   -7.4720    0.0000 C   0  0  0  0  0  0  0  0  0  0  0  0
    1.0623   -6.0927    0.0000 N   0  0  0  0  0  0  0  0  0  0  0  0
   -0.0673   -5.1058    0.0000 C   0  0  0  0  0  0  0  0  0  0  0  0
   -0.0000   -3.6073    0.0000 C   0  0  0  0  0  0  0  0  0  0  0  0
   -4.0650   -5.4667    0.0000 C   0  0  0  0  0  0  0  0  0  0  0  0
   -4.5921   -6.8710    0.0000 O   0  0  0  0  0  0  0  0  0  0  0  0
   -4.8913   -4.2148    0.0000 N   0  0  0  0  0  0  0  0  0  0  0  0
   -3.9561   -3.0421    0.0000 C   0  0  0  0  0  0  0  0  0  0  0  0
  1  2  1  0
  3  2  1  1
  3  4  1  0
  4  5  1  1
  5  6  1  0
  5  7  1  0
  7  8  2  0
  8  9  1  0
  9 10  2  0
 10 11  1  0
 11 12  2  0
  4 13  1  0
 14 13  1  1
 14 15  1  0
 15 16  1  0
 16 17  1  6
 16 18  1  0
 18 19  1  0
 19 20  2  0
 20 21  1  0
 21 22  2  0
 22 23  1  0
 23 24  2  0
 24 25  1  0
 25 26  2  0
 26 27  1  0
 27 28  2  0
 28 29  1  0
 29 30  2  0
 30 31  1  0
 31 32  2  0
 32 33  1  0
 33 34  2  0
 34 35  1  0
 35 36  1  0
 36 37  2  0
 27 38  1  0
 38 39  2  0
 38 40  1  0
 40 41  1  0
 16  3  1  0
 37 18  1  0
 12  7  1  0
 35 14  1  0
 24 19  1  0
 37 25  1  0
 41 26  1  0
 36 28  1  0
 34 29  1  0
M  END
>  <Compound_ID>  (116) 
CHEMBL434415

>  <Active>  (116) 
1.0

>  <Smiles>  (116) 
CO[C@H]1[C@@H](N(C)c2ccccc2)C[C@@H]2O[C@@]1(C)n1c3ccccc3c3c4c(c5c6ccccc6n2c5c31)C(=O)NC4

>  <canonical_smi>  (116) 
CO[C@H]1[C@@H](N(C)c2ccccc2)C[C@@H]2O[C@@]1(C)n1c3ccccc3c3c4c(c5c6ccccc6n2c5c31)C(=O)NC4

>  <Set>  (116) 
G2 active

>  <Set_type>  (116) 
Train

>  <MW>  (116) 
542.64

>  <HBD>  (116) 
1

>  <HBA>  (116) 
4

>  <NRB>  (116) 
3

>  <NR>  (116) 
9

>  <NAR>  (116) 
6

>  <PSA>  (116) 
60.66

>  <Standard Type>  (116) 
nan

>  <Standard Relation>  (116) 
nan

>  <Standard Units>  (116) 
nan

>  <Standard Value>  (116) 
nan

>  <Assay ChEMBL ID>  (116) 
nan

>  <Assay Description>  (116) 
nan

>  <BAO Label>  (116) 
nan

$$$$

     RDKit          2D

 35 39  0  0  0  0  0  0  0  0999 V2000
   -3.5736    1.2902    0.0000 C   0  0  0  0  0  0  0  0  0  0  0  0
   -2.1470    1.7537    0.0000 C   0  0  0  0  0  0  0  0  0  0  0  0
   -1.8351    3.2209    0.0000 C   0  0  0  0  0  0  0  0  0  0  0  0
   -2.9499    4.2246    0.0000 N   0  0  0  0  0  0  0  0  0  0  0  0
   -2.6380    5.6918    0.0000 C   0  0  0  0  0  0  0  0  0  0  0  0
   -1.2114    6.1554    0.0000 C   0  0  0  0  0  0  0  0  0  0  0  0
   -0.0967    5.1517    0.0000 C   0  0  0  0  0  0  0  0  0  0  0  0
    1.0180    4.1480    0.0000 N   0  0  0  0  0  0  0  0  0  0  0  0
   -0.8995    7.6226    0.0000 C   0  0  0  0  0  0  0  0  0  0  0  0
   -2.0143    8.6263    0.0000 N   0  0  0  0  0  0  0  0  0  0  0  0
   -3.4408    8.1628    0.0000 C   0  0  0  0  0  0  0  0  0  0  0  0
   -3.7527    6.6955    0.0000 C   0  0  0  0  0  0  0  0  0  0  0  0
   -5.1793    6.2320    0.0000 C   0  0  0  0  0  0  0  0  0  0  0  0
   -6.2940    7.2357    0.0000 C   0  0  0  0  0  0  0  0  0  0  0  0
   -7.7206    6.7722    0.0000 C   0  0  0  0  0  0  0  0  0  0  0  0
   -8.8353    7.7759    0.0000 C   0  0  0  0  0  0  0  0  0  0  0  0
  -10.2619    7.3123    0.0000 C   0  0  0  0  0  0  0  0  0  0  0  0
  -10.5738    5.8451    0.0000 C   0  0  0  0  0  0  0  0  0  0  0  0
   -9.4590    4.8414    0.0000 C   0  0  0  0  0  0  0  0  0  0  0  0
   -9.7709    3.3742    0.0000 C   0  0  0  0  0  0  0  0  0  0  0  0
  -11.1975    2.9107    0.0000 N   0  0  0  0  0  0  0  0  0  0  0  0
  -12.3122    3.9144    0.0000 C   0  0  0  0  0  0  0  0  0  0  0  0
  -13.7388    3.4509    0.0000 C   0  0  0  0  0  0  0  0  0  0  0  0
  -14.0507    1.9836    0.0000 N   0  0  0  0  0  0  0  0  0  0  0  0
  -15.4772    1.5201    0.0000 C   0  0  0  0  0  0  0  0  0  0  0  0
  -12.9359    0.9799    0.0000 C   0  0  0  0  0  0  0  0  0  0  0  0
  -11.5094    1.4435    0.0000 C   0  0  0  0  0  0  0  0  0  0  0  0
   -8.0325    5.3050    0.0000 N   0  0  0  0  0  0  0  0  0  0  0  0
   -0.4086    3.6844    0.0000 C   0  0  0  0  0  0  0  0  0  0  0  0
    0.7062    2.6807    0.0000 C   0  0  0  0  0  0  0  0  0  0  0  0
    0.3943    1.2135    0.0000 C   0  0  0  0  0  0  0  0  0  0  0  0
    1.2760    0.0000    0.0000 N   0  0  0  0  0  0  0  0  0  0  0  0
    0.3943   -1.2135    0.0000 C   0  0  0  0  0  0  0  0  0  0  0  0
   -1.0323   -0.7500    0.0000 C   0  0  0  0  0  0  0  0  0  0  0  0
   -1.0323    0.7500    0.0000 C   0  0  0  0  0  0  0  0  0  0  0  0
  1  2  1  0
  2  3  2  0
  3  4  1  0
  4  5  1  0
  5  6  2  0
  6  7  1  0
  7  8  3  0
  6  9  1  0
  9 10  2  0
 10 11  1  0
 11 12  2  0
 12 13  1  0
 13 14  2  0
 14 15  1  0
 15 16  2  0
 16 17  1  0
 17 18  2  0
 18 19  1  0
 19 20  1  0
 20 21  1  0
 21 22  1  0
 22 23  1  0
 23 24  1  0
 24 25  1  0
 24 26  1  0
 26 27  1  0
 19 28  2  0
  3 29  1  0
 29 30  2  0
 30 31  1  0
 31 32  1  0
 32 33  1  0
 33 34  2  0
 34 35  1  0
 35  2  1  0
 12  5  1  0
 28 15  1  0
 35 31  2  0
 27 21  1  0
M  END
>  <Compound_ID>  (117) 
CHEMBL1084411

>  <Active>  (117) 
1.0

>  <Smiles>  (117) 
Cc1c(Nc2c(C#N)cncc2/C=C/c2cccc(CN3CCN(C)CC3)n2)ccc2[nH]ccc12

>  <canonical_smi>  (117) 
Cc1c(Nc2c(C#N)cncc2/C=C/c2cccc(CN3CCN(C)CC3)n2)ccc2[nH]ccc12

>  <Set>  (117) 
G2 active

>  <Set_type>  (117) 
Train

>  <MW>  (117) 
463.59

>  <HBD>  (117) 
2

>  <HBA>  (117) 
6

>  <NRB>  (117) 
6

>  <NR>  (117) 
5

>  <NAR>  (117) 
4

>  <PSA>  (117) 
83.87

>  <Standard Type>  (117) 
nan

>  <Standard Relation>  (117) 
nan

>  <Standard Units>  (117) 
nan

>  <Standard Value>  (117) 
nan

>  <Assay ChEMBL ID>  (117) 
nan

>  <Assay Description>  (117) 
nan

>  <BAO Label>  (117) 
nan

$$$$

     RDKit          2D

 37 43  0  0  0  0  0  0  0  0999 V2000
    9.8459   -4.2087    0.0000 C   0  0  0  0  0  0  0  0  0  0  0  0
   10.7275   -2.9952    0.0000 N   0  0  0  0  0  0  0  0  0  0  0  0
   12.2275   -2.9952    0.0000 C   0  0  0  0  0  0  0  0  0  0  0  0
   12.6911   -1.5686    0.0000 C   0  0  0  0  0  0  0  0  0  0  0  0
   11.4775   -0.6870    0.0000 C   0  0  0  0  0  0  0  0  0  0  0  0
   10.2640   -1.5686    0.0000 C   0  0  0  0  0  0  0  0  0  0  0  0
    8.8374   -1.1051    0.0000 C   0  0  0  0  0  0  0  0  0  0  0  0
    7.7227   -2.1088    0.0000 C   0  0  0  0  0  0  0  0  0  0  0  0
    6.2961   -1.6453    0.0000 N   0  0  0  0  0  0  0  0  0  0  0  0
    5.1814   -2.6490    0.0000 C   0  0  0  0  0  0  0  0  0  0  0  0
    5.4933   -4.1162    0.0000 O   0  0  0  0  0  0  0  0  0  0  0  0
    3.7548   -2.1855    0.0000 C   0  0  0  0  0  0  0  0  0  0  0  0
    2.6401   -3.1891    0.0000 C   0  0  0  0  0  0  0  0  0  0  0  0
    1.2135   -2.7256    0.0000 N   0  0  0  0  0  0  0  0  0  0  0  0
    0.7500   -1.2990    0.0000 C   0  0  0  0  0  0  0  0  0  0  0  0
    1.5000    0.0000    0.0000 C   0  0  0  0  0  0  0  0  0  0  0  0
    0.7500    1.2990    0.0000 C   0  0  0  0  0  0  0  0  0  0  0  0
   -0.7500    1.2990    0.0000 C   0  0  0  0  0  0  0  0  0  0  0  0
   -1.5000    0.0000    0.0000 C   0  0  0  0  0  0  0  0  0  0  0  0
   -0.7500   -1.2990    0.0000 C   0  0  0  0  0  0  0  0  0  0  0  0
   -1.2135   -2.7256    0.0000 C   0  0  0  0  0  0  0  0  0  0  0  0
   -2.5838   -3.3357    0.0000 C   0  0  0  0  0  0  0  0  0  0  0  0
   -2.7406   -4.8275    0.0000 C   0  0  0  0  0  0  0  0  0  0  0  0
   -1.5271   -5.7092    0.0000 C   0  0  0  0  0  0  0  0  0  0  0  0
   -1.3703   -7.2010    0.0000 C   0  0  0  0  0  0  0  0  0  0  0  0
   -2.3740   -8.3157    0.0000 C   0  0  0  0  0  0  0  0  0  0  0  0
   -1.9105   -9.7423    0.0000 C   0  0  0  0  0  0  0  0  0  0  0  0
   -0.4433  -10.0541    0.0000 C   0  0  0  0  0  0  0  0  0  0  0  0
    0.5604   -8.9394    0.0000 C   0  0  0  0  0  0  0  0  0  0  0  0
    0.0969   -7.5128    0.0000 C   0  0  0  0  0  0  0  0  0  0  0  0
    0.8469   -6.2138    0.0000 N   0  0  0  0  0  0  0  0  0  0  0  0
   -0.1568   -5.0991    0.0000 C   0  0  0  0  0  0  0  0  0  0  0  0
   -0.0000   -3.6073    0.0000 C   0  0  0  0  0  0  0  0  0  0  0  0
   -4.2079   -5.1394    0.0000 C   0  0  0  0  0  0  0  0  0  0  0  0
   -4.8180   -6.5097    0.0000 O   0  0  0  0  0  0  0  0  0  0  0  0
   -4.9579   -3.8403    0.0000 N   0  0  0  0  0  0  0  0  0  0  0  0
   -3.9542   -2.7256    0.0000 C   0  0  0  0  0  0  0  0  0  0  0  0
  1  2  1  0
  2  3  1  0
  3  4  1  0
  4  5  1  0
  5  6  1  0
  6  7  1  0
  7  8  1  0
  8  9  1  0
  9 10  1  0
 10 11  2  0
 10 12  1  0
 12 13  1  0
 13 14  1  0
 14 15  1  0
 15 16  2  0
 16 17  1  0
 17 18  2  0
 18 19  1  0
 19 20  2  0
 20 21  1  0
 21 22  2  0
 22 23  1  0
 23 24  2  0
 24 25  1  0
 25 26  2  0
 26 27  1  0
 27 28  2  0
 28 29  1  0
 29 30  2  0
 30 31  1  0
 31 32  1  0
 32 33  2  0
 23 34  1  0
 34 35  2  0
 34 36  1  0
 36 37  1  0
  6  2  1  0
 33 14  1  0
 20 15  1  0
 33 21  1  0
 37 22  1  0
 32 24  1  0
 30 25  1  0
M  END
>  <Compound_ID>  (118) 
CHEMBL431432

>  <Active>  (118) 
1.0

>  <Smiles>  (118) 
CN1CCCC1CCNC(=O)CCn1c2ccccc2c2c3c(c4c5ccccc5[nH]c4c21)C(=O)NC3

>  <canonical_smi>  (118) 
CN1CCCC1CCNC(=O)CCn1c2ccccc2c2c3c(c4c5ccccc5[nH]c4c21)C(=O)NC3

>  <Set>  (118) 
G2 active

>  <Set_type>  (118) 
Train

>  <MW>  (118) 
493.61

>  <HBD>  (118) 
3

>  <HBA>  (118) 
3

>  <NRB>  (118) 
6

>  <NR>  (118) 
7

>  <NAR>  (118) 
5

>  <PSA>  (118) 
82.16

>  <Standard Type>  (118) 
nan

>  <Standard Relation>  (118) 
nan

>  <Standard Units>  (118) 
nan

>  <Standard Value>  (118) 
nan

>  <Assay ChEMBL ID>  (118) 
nan

>  <Assay Description>  (118) 
nan

>  <BAO Label>  (118) 
nan

$$$$

     RDKit          2D

 38 42  0  0  0  0  0  0  0  0999 V2000
    4.5511   -9.5003    0.0000 C   0  0  0  0  0  0  0  0  0  0  0  0
    4.3943   -8.0085    0.0000 C   0  0  0  0  0  0  0  0  0  0  0  0
    3.0240   -7.3984    0.0000 C   0  0  0  0  0  0  0  0  0  0  0  0
    2.8672   -5.9066    0.0000 C   0  0  0  0  0  0  0  0  0  0  0  0
    4.0808   -5.0249    0.0000 C   0  0  0  0  0  0  0  0  0  0  0  0
    3.9240   -3.5332    0.0000 C   0  0  0  0  0  0  0  0  0  0  0  0
    5.1375   -2.6515    0.0000 O   0  0  0  0  0  0  0  0  0  0  0  0
    2.5537   -2.9231    0.0000 N   0  0  0  0  0  0  0  0  0  0  0  0
    1.2546   -3.6731    0.0000 C   0  0  0  0  0  0  0  0  0  0  0  0
    0.1399   -2.6694    0.0000 C   0  0  0  0  0  0  0  0  0  0  0  0
   -1.3273   -2.9812    0.0000 C   0  0  0  0  0  0  0  0  0  0  0  0
   -2.3310   -1.8665    0.0000 O   0  0  0  0  0  0  0  0  0  0  0  0
   -1.7909   -4.4078    0.0000 N   0  0  0  0  0  0  0  0  0  0  0  0
   -3.2581   -4.7197    0.0000 C   0  0  0  0  0  0  0  0  0  0  0  0
   -3.7216   -6.1463    0.0000 C   0  0  0  0  0  0  0  0  0  0  0  0
   -5.1888   -6.4581    0.0000 C   0  0  0  0  0  0  0  0  0  0  0  0
   -6.3035   -5.4544    0.0000 C   0  0  0  0  0  0  0  0  0  0  0  0
   -6.1467   -3.9626    0.0000 C   0  0  0  0  0  0  0  0  0  0  0  0
   -7.6026   -6.2044    0.0000 N   0  0  0  0  0  0  0  0  0  0  0  0
   -7.2907   -7.6717    0.0000 C   0  0  0  0  0  0  0  0  0  0  0  0
   -8.1724   -8.8852    0.0000 C   0  0  0  0  0  0  0  0  0  0  0  0
   -7.5623  -10.2555    0.0000 C   0  0  0  0  0  0  0  0  0  0  0  0
   -6.0705  -10.4123    0.0000 C   0  0  0  0  0  0  0  0  0  0  0  0
   -5.4604  -11.7826    0.0000 C   0  0  0  0  0  0  0  0  0  0  0  0
   -4.8503  -13.1529    0.0000 N   0  0  0  0  0  0  0  0  0  0  0  0
   -5.1888   -9.1988    0.0000 C   0  0  0  0  0  0  0  0  0  0  0  0
   -5.7989   -7.8284    0.0000 C   0  0  0  0  0  0  0  0  0  0  0  0
    0.7500   -1.2990    0.0000 C   0  0  0  0  0  0  0  0  0  0  0  0
    1.5000    0.0000    0.0000 C   0  0  0  0  0  0  0  0  0  0  0  0
    0.7500    1.2990    0.0000 C   0  0  0  0  0  0  0  0  0  0  0  0
   -0.7500    1.2990    0.0000 N   0  0  0  0  0  4  0  0  0  0  0  0
   -1.5000    0.0000    0.0000 C   0  0  0  0  0  0  0  0  0  0  0  0
   -0.7500   -1.2990    0.0000 C   0  0  0  0  0  0  0  0  0  0  0  0
    2.2418   -1.4558    0.0000 C   0  0  0  0  0  0  0  0  0  0  0  0
    5.4511   -5.6350    0.0000 C   0  0  0  0  0  0  0  0  0  0  0  0
    6.6646   -4.7534    0.0000 F   0  0  0  0  0  0  0  0  0  0  0  0
    5.6079   -7.1268    0.0000 C   0  0  0  0  0  0  0  0  0  0  0  0
    6.9782   -7.7369    0.0000 F   0  0  0  0  0  0  0  0  0  0  0  0
  1  2  1  0
  2  3  2  0
  3  4  1  0
  4  5  2  0
  5  6  1  0
  6  7  2  0
  6  8  1  0
  8  9  1  0
  9 10  1  0
 10 11  1  1
 11 12  2  0
 11 13  1  0
 13 14  1  0
 14 15  1  0
 15 16  1  0
 16 17  2  0
 17 18  1  0
 17 19  1  0
 19 20  1  0
 20 21  2  0
 21 22  1  0
 22 23  2  0
 23 24  1  0
 24 25  3  0
 23 26  1  0
 26 27  2  0
 10 28  1  0
 28 29  1  0
 29 30  1  0
 30 31  1  0
 31 32  1  0
 32 33  1  0
 28 34  1  0
  5 35  1  0
 35 36  1  0
 35 37  2  0
 37 38  1  0
 37  2  1  0
 34  8  1  0
 27 16  1  0
 33 28  1  0
 27 20  1  0
M  CHG  1  31   1
M  END
>  <Compound_ID>  (119) 
C44714538

>  <Active>  (119) 
0.0

>  <Smiles>  (119) 
Cc1ccc(C(=O)N2C[C@@H](C(=O)NCCc3c(C)[nH]c4ccc(C#N)cc34)C3(CC[NH2+]CC3)C2)c(F)c1F

>  <canonical_smi>  (119) 
Cc1ccc(C(=O)N2C[C@@H](C(=O)NCCc3c(C)[nH]c4ccc(C#N)cc34)C3(CC[NH2+]CC3)C2)c(F)c1F

>  <Set>  (119) 
G2 inactive

>  <Set_type>  (119) 
Train

>  <MW>  (119) 
520.6

>  <HBD>  (119) 
3

>  <HBA>  (119) 
3

>  <NRB>  (119) 
5

>  <NR>  (119) 
5

>  <NAR>  (119) 
3

>  <PSA>  (119) 
105.6

>  <Standard Type>  (119) 
nan

>  <Standard Relation>  (119) 
nan

>  <Standard Units>  (119) 
nan

>  <Standard Value>  (119) 
nan

>  <Assay ChEMBL ID>  (119) 
nan

>  <Assay Description>  (119) 
nan

>  <BAO Label>  (119) 
nan

$$$$

     RDKit          2D

 26 28  0  0  0  0  0  0  0  0999 V2000
    6.5218   -0.9664    0.0000 O   0  0  0  0  0  0  0  0  0  0  0  0
    5.3083   -1.8481    0.0000 C   0  0  0  0  0  0  0  0  0  0  0  0
    5.3083   -3.3481    0.0000 N   0  0  0  0  0  0  0  0  0  0  0  0
    3.8817   -3.8116    0.0000 C   0  0  0  0  0  0  0  0  0  0  0  0
    3.4182   -5.2382    0.0000 O   0  0  0  0  0  0  0  0  0  0  0  0
    3.0000   -2.5981    0.0000 C   0  0  0  0  0  0  0  0  0  0  0  0
    1.5000   -2.5981    0.0000 C   0  0  0  0  0  0  0  0  0  0  0  0
    0.7500   -1.2990    0.0000 C   0  0  0  0  0  0  0  0  0  0  0  0
    1.5000    0.0000    0.0000 C   0  0  0  0  0  0  0  0  0  0  0  0
    0.7500    1.2990    0.0000 C   0  0  0  0  0  0  0  0  0  0  0  0
   -0.7500    1.2990    0.0000 C   0  0  0  0  0  0  0  0  0  0  0  0
   -1.5000    2.5981    0.0000 O   0  0  0  0  0  0  0  0  0  0  0  0
   -0.7500    3.8971    0.0000 S   0  0  0  0  0  0  0  0  0  0  0  0
    0.5490    3.1471    0.0000 O   0  0  0  0  0  0  0  0  0  0  0  0
   -2.0490    4.6471    0.0000 O   0  0  0  0  0  0  0  0  0  0  0  0
    0.0000    5.1962    0.0000 C   0  0  0  0  0  0  0  0  0  0  0  0
    1.5000    5.1962    0.0000 C   0  0  0  0  0  0  0  0  0  0  0  0
    2.2500    6.4952    0.0000 C   0  0  0  0  0  0  0  0  0  0  0  0
    3.7500    6.4952    0.0000 Cl  0  0  0  0  0  0  0  0  0  0  0  0
    1.5000    7.7942    0.0000 C   0  0  0  0  0  0  0  0  0  0  0  0
    0.0000    7.7942    0.0000 C   0  0  0  0  0  0  0  0  0  0  0  0
   -0.7500    9.0933    0.0000 Cl  0  0  0  0  0  0  0  0  0  0  0  0
   -0.7500    6.4952    0.0000 C   0  0  0  0  0  0  0  0  0  0  0  0
   -1.5000    0.0000    0.0000 C   0  0  0  0  0  0  0  0  0  0  0  0
   -0.7500   -1.2990    0.0000 C   0  0  0  0  0  0  0  0  0  0  0  0
    3.8817   -1.3846    0.0000 N   0  0  0  0  0  0  0  0  0  0  0  0
  1  2  2  0
  2  3  1  0
  3  4  1  0
  4  5  2  0
  4  6  1  0
  6  7  2  0
  7  8  1  0
  8  9  2  0
  9 10  1  0
 10 11  2  0
 11 12  1  0
 12 13  1  0
 13 14  2  0
 13 15  2  0
 13 16  1  0
 16 17  2  0
 17 18  1  0
 18 19  1  0
 18 20  2  0
 20 21  1  0
 21 22  1  0
 21 23  2  0
 11 24  1  0
 24 25  2  0
  6 26  1  0
 26  2  1  0
 25  8  1  0
 23 16  1  0
M  END
>  <Compound_ID>  (120) 
C02163263

>  <Active>  (120) 
0.0

>  <Smiles>  (120) 
O=C1NC(=O)/C(=C/c2ccc(OS(=O)(=O)c3cc(Cl)cc(Cl)c3)cc2)N1

>  <canonical_smi>  (120) 
O=C1NC(=O)/C(=C/c2ccc(OS(=O)(=O)c3cc(Cl)cc(Cl)c3)cc2)N1

>  <Set>  (120) 
G2 inactive

>  <Set_type>  (120) 
Train

>  <MW>  (120) 
413.24

>  <HBD>  (120) 
2

>  <HBA>  (120) 
5

>  <NRB>  (120) 
4

>  <NR>  (120) 
3

>  <NAR>  (120) 
2

>  <PSA>  (120) 
101.57

>  <Standard Type>  (120) 
nan

>  <Standard Relation>  (120) 
nan

>  <Standard Units>  (120) 
nan

>  <Standard Value>  (120) 
nan

>  <Assay ChEMBL ID>  (120) 
nan

>  <Assay Description>  (120) 
nan

>  <BAO Label>  (120) 
nan

$$$$

     RDKit          2D

 23 24  0  0  0  0  0  0  0  0999 V2000
    3.7500   -1.2990    0.0000 O   0  0  0  0  0  0  0  0  0  0  0  0
    3.0000    0.0000    0.0000 C   0  0  0  0  0  0  0  0  0  0  0  0
    1.5000    0.0000    0.0000 C   0  0  0  0  0  0  0  0  0  0  0  0
    0.7500   -1.2990    0.0000 O   0  0  0  0  0  0  0  0  0  0  0  0
   -0.7500   -1.2990    0.0000 C   0  0  0  0  0  0  0  0  0  0  0  0
   -1.5000   -2.5981    0.0000 O   0  0  0  0  0  0  0  0  0  0  0  0
   -0.7500   -3.8971    0.0000 C   0  0  0  0  0  0  0  0  0  0  0  0
   -1.5000   -5.1962    0.0000 C   0  0  0  0  0  0  0  0  0  0  0  0
   -0.8899   -6.5665    0.0000 O   0  0  0  0  0  0  0  0  0  0  0  0
   -2.0046   -7.5702    0.0000 C   0  0  0  0  0  0  0  0  0  0  0  0
   -2.8863   -8.7837    0.0000 O   0  0  0  0  0  0  0  0  0  0  0  0
   -0.8899   -8.5739    0.0000 C   0  0  0  0  0  0  0  0  0  0  0  0
   -1.2018  -10.0411    0.0000 O   0  0  0  0  0  0  0  0  0  0  0  0
   -3.3037   -6.8202    0.0000 C   0  0  0  0  0  0  0  0  0  0  0  0
   -4.6740   -7.4303    0.0000 O   0  0  0  0  0  0  0  0  0  0  0  0
   -2.9918   -5.3529    0.0000 C   0  0  0  0  0  0  0  0  0  0  0  0
   -3.9955   -4.2382    0.0000 O   0  0  0  0  0  0  0  0  0  0  0  0
   -1.5000    0.0000    0.0000 C   0  0  0  0  0  0  0  0  0  0  0  0
   -3.0000    0.0000    0.0000 O   0  0  0  0  0  0  0  0  0  0  0  0
   -0.7500    1.2990    0.0000 C   0  0  0  0  0  0  0  0  0  0  0  0
   -1.5000    2.5981    0.0000 O   0  0  0  0  0  0  0  0  0  0  0  0
    0.7500    1.2990    0.0000 C   0  0  0  0  0  0  0  0  0  0  0  0
    1.5000    2.5981    0.0000 O   0  0  0  0  0  0  0  0  0  0  0  0
  1  2  1  0
  3  2  1  6
  3  4  1  0
  4  5  1  0
  5  6  1  1
  6  7  1  0
  8  7  1  1
  8  9  1  0
  9 10  1  0
 10 11  1  6
 10 12  1  0
 12 13  1  0
 10 14  1  0
 14 15  1  1
 14 16  1  0
 16 17  1  1
  5 18  1  0
 18 19  1  1
 18 20  1  0
 20 21  1  1
 20 22  1  0
 22 23  1  1
 22  3  1  0
 16  8  1  0
M  END
>  <Compound_ID>  (121) 
C08738284

>  <Active>  (121) 
0.0

>  <Smiles>  (121) 
OC[C@@H]1O[C@@H](OC[C@H]2O[C@@](O)(CO)[C@@H](O)[C@H]2O)[C@@H](O)[C@@H](O)[C@H]1O

>  <canonical_smi>  (121) 
OC[C@@H]1O[C@@H](OC[C@H]2O[C@@](O)(CO)[C@@H](O)[C@H]2O)[C@@H](O)[C@@H](O)[C@H]1O

>  <Set>  (121) 
G2 inactive

>  <Set_type>  (121) 
Train

>  <MW>  (121) 
342.3

>  <HBD>  (121) 
8

>  <HBA>  (121) 
11

>  <NRB>  (121) 
5

>  <NR>  (121) 
2

>  <NAR>  (121) 
0

>  <PSA>  (121) 
189.53

>  <Standard Type>  (121) 
nan

>  <Standard Relation>  (121) 
nan

>  <Standard Units>  (121) 
nan

>  <Standard Value>  (121) 
nan

>  <Assay ChEMBL ID>  (121) 
nan

>  <Assay Description>  (121) 
nan

>  <BAO Label>  (121) 
nan

$$$$

     RDKit          2D

 26 26  0  0  0  0  0  0  0  0999 V2000
    5.2077   -1.4153    0.0000 C   0  0  0  0  0  0  0  0  0  0  0  0
    4.0586   -0.4512    0.0000 C   0  0  0  0  0  0  0  0  0  0  0  0
    4.3191    1.0261    0.0000 O   0  0  0  0  0  0  0  0  0  0  0  0
    2.6491   -0.9642    0.0000 N   0  0  0  0  0  0  0  0  0  0  0  0
    1.5000    0.0000    0.0000 C   0  0  0  0  0  0  0  0  0  0  0  0
    2.6491    0.9642    0.0000 C   0  0  0  0  0  0  0  0  0  0  0  0
    0.7500   -1.2990    0.0000 C   0  0  0  0  0  0  0  0  0  0  0  0
    2.1595   -1.8121    0.0000 C   0  0  0  0  0  0  0  0  0  0  0  0
    0.4895   -2.7762    0.0000 C   0  0  0  0  0  0  0  0  0  0  0  0
   -0.9200   -3.2893    0.0000 O   0  0  0  0  0  0  0  0  0  0  0  0
    1.6386   -3.7404    0.0000 C   0  0  0  0  0  0  0  0  0  0  0  0
    3.0481   -3.2274    0.0000 O   0  0  0  0  0  0  0  0  0  0  0  0
    1.3781   -5.2176    0.0000 C   0  0  0  0  0  0  0  0  0  0  0  0
    2.5272   -6.1818    0.0000 N   0  0  0  0  0  4  0  0  0  0  0  0
   -0.7500   -1.2990    0.0000 O   0  0  0  0  0  0  0  0  0  0  0  0
   -1.5000    0.0000    0.0000 C   0  0  0  0  0  0  0  0  0  0  0  0
   -2.6491    0.9642    0.0000 O   0  0  0  0  0  0  0  0  0  0  0  0
   -2.6491   -0.9642    0.0000 C   0  0  0  0  0  0  0  0  0  0  0  0
   -4.0586   -0.4512    0.0000 O   0  0  0  0  0  0  0  0  0  0  0  0
   -2.3886   -2.4414    0.0000 O   0  0  0  0  0  1  0  0  0  0  0  0
   -0.7500    1.2990    0.0000 C   0  0  0  0  0  0  0  0  0  0  0  0
   -2.1595    1.8121    0.0000 C   0  0  0  0  0  0  0  0  0  0  0  0
   -0.4895    2.7762    0.0000 C   0  0  0  0  0  0  0  0  0  0  0  0
    0.7500    1.2990    0.0000 C   0  0  0  0  0  0  0  0  0  0  0  0
    0.4895    2.7762    0.0000 C   0  0  0  0  0  0  0  0  0  0  0  0
    2.1595    1.8121    0.0000 O   0  0  0  0  0  0  0  0  0  0  0  0
  1  2  1  0
  2  3  2  0
  2  4  1  0
  4  5  1  0
  5  6  1  6
  5  7  1  0
  7  8  1  6
  7  9  1  0
  9 10  1  1
  9 11  1  0
 11 12  1  1
 11 13  1  0
 13 14  1  0
  7 15  1  0
 15 16  1  0
 16 17  1  6
 16 18  1  0
 18 19  2  0
 18 20  1  0
 16 21  1  0
 21 22  1  0
 21 23  1  0
 21 24  1  0
 24 25  1  6
 24 26  1  0
 24  5  1  0
M  CHG  2  14   1  20  -1
M  END
>  <Compound_ID>  (122) 
C09970242

>  <Active>  (122) 
0.0

>  <Smiles>  (122) 
CC(=O)N[C@@]1(C)[C@@](C)([C@H](O)[C@@H](O)C[NH3+])O[C@@](O)(C(=O)[O-])C(C)(C)[C@@]1(C)O

>  <canonical_smi>  (122) 
CC(=O)N[C@@]1(C)[C@@](C)([C@H](O)[C@@H](O)C[NH3+])O[C@@](O)(C(=O)[O-])C(C)(C)[C@@]1(C)O

>  <Set>  (122) 
G2 inactive

>  <Set_type>  (122) 
Train

>  <MW>  (122) 
378.42

>  <HBD>  (122) 
6

>  <HBA>  (122) 
8

>  <NRB>  (122) 
5

>  <NR>  (122) 
1

>  <NAR>  (122) 
0

>  <PSA>  (122) 
187.02

>  <Standard Type>  (122) 
nan

>  <Standard Relation>  (122) 
nan

>  <Standard Units>  (122) 
nan

>  <Standard Value>  (122) 
nan

>  <Assay ChEMBL ID>  (122) 
nan

>  <Assay Description>  (122) 
nan

>  <BAO Label>  (122) 
nan

$$$$

     RDKit          2D

 21 21  0  0  0  0  0  0  0  0999 V2000
    4.4263   -5.8470    0.0000 N   0  0  0  0  0  0  0  0  0  0  0  0
    3.2772   -4.8828    0.0000 C   0  0  0  0  0  0  0  0  0  0  0  0
    1.8676   -5.3958    0.0000 O   0  0  0  0  0  0  0  0  0  0  0  0
    3.5377   -3.4056    0.0000 C   0  0  0  0  0  0  0  0  0  0  0  0
    2.3886   -2.4414    0.0000 N   0  0  0  0  0  0  0  0  0  0  0  0
    0.9791   -2.9544    0.0000 C   0  0  0  0  0  0  0  0  0  0  0  0
   -0.1700   -1.9902    0.0000 C   0  0  0  0  0  0  0  0  0  0  0  0
   -1.5796   -2.5033    0.0000 N   0  0  0  0  0  0  0  0  0  0  0  0
    0.0905   -0.5130    0.0000 O   0  0  0  0  0  0  0  0  0  0  0  0
    2.6491   -0.9642    0.0000 C   0  0  0  0  0  0  0  0  0  0  0  0
    4.1106   -0.6268    0.0000 O   0  0  0  0  0  0  0  0  0  0  0  0
    1.5000    0.0000    0.0000 C   0  0  0  0  0  0  0  0  0  0  0  0
    2.6491    0.9642    0.0000 C   0  0  0  0  0  0  0  0  0  0  0  0
    4.1106    0.6268    0.0000 N   0  0  0  0  0  0  0  0  0  0  0  0
    2.3886    2.4414    0.0000 N   0  0  0  0  0  0  0  0  0  0  0  0
    3.5377    3.4056    0.0000 O   0  0  0  0  0  0  0  0  0  0  0  0
    0.7500   -1.2990    0.0000 C   0  0  0  0  0  0  0  0  0  0  0  0
   -0.7500   -1.2990    0.0000 C   0  0  0  0  0  0  0  0  0  0  0  0
   -1.5000    0.0000    0.0000 O   0  0  0  0  0  0  0  0  0  0  0  0
   -0.7500    1.2990    0.0000 C   0  0  0  0  0  0  0  0  0  0  0  0
    0.7500    1.2990    0.0000 C   0  0  0  0  0  0  0  0  0  0  0  0
  1  2  1  0
  2  3  2  0
  2  4  1  0
  4  5  1  0
  5  6  1  0
  6  7  1  0
  7  8  1  0
  7  9  2  0
  5 10  1  0
 10 11  2  0
 10 12  1  0
 12 13  1  0
 13 14  1  0
 13 15  2  0
 15 16  1  0
 12 17  1  0
 17 18  1  0
 18 19  1  0
 19 20  1  0
 20 21  1  0
 21 12  1  0
M  END
>  <Compound_ID>  (123) 
C61809532

>  <Active>  (123) 
0.0

>  <Smiles>  (123) 
NC(=O)CN(CC(N)=O)C(=O)C1(/C(N)=N/O)CCOCC1

>  <canonical_smi>  (123) 
NC(=O)CN(CC(N)=O)C(=O)C1(/C(N)=N/O)CCOCC1

>  <Set>  (123) 
G2 inactive

>  <Set_type>  (123) 
Train

>  <MW>  (123) 
301.3

>  <HBD>  (123) 
4

>  <HBA>  (123) 
6

>  <NRB>  (123) 
6

>  <NR>  (123) 
1

>  <NAR>  (123) 
0

>  <PSA>  (123) 
174.33

>  <Standard Type>  (123) 
nan

>  <Standard Relation>  (123) 
nan

>  <Standard Units>  (123) 
nan

>  <Standard Value>  (123) 
nan

>  <Assay ChEMBL ID>  (123) 
nan

>  <Assay Description>  (123) 
nan

>  <BAO Label>  (123) 
nan

$$$$

     RDKit          2D

 36 40  0  0  0  0  0  0  0  0999 V2000
    1.7232   -6.2752    0.0000 O   0  0  0  0  0  0  0  0  0  0  0  0
    0.2966   -5.8117    0.0000 C   0  0  0  0  0  0  0  0  0  0  0  0
   -0.8181   -6.8154    0.0000 C   0  0  0  0  0  0  0  0  0  0  0  0
   -2.2447   -6.3519    0.0000 C   0  0  0  0  0  0  0  0  0  0  0  0
   -3.3594   -7.3556    0.0000 O   0  0  0  0  0  0  0  0  0  0  0  0
   -2.5565   -4.8847    0.0000 C   0  0  0  0  0  0  0  0  0  0  0  0
   -1.4418   -3.8810    0.0000 C   0  0  0  0  0  0  0  0  0  0  0  0
   -1.7537   -2.4138    0.0000 C   0  0  0  0  0  0  0  0  0  0  0  0
   -0.7500   -1.2990    0.0000 C   0  0  0  0  0  0  0  0  0  0  0  0
    0.7500   -1.2990    0.0000 C   0  0  0  0  0  0  0  0  0  0  0  0
    1.5000   -2.5981    0.0000 C   0  0  0  0  0  0  0  0  0  0  0  0
    3.0000   -2.5981    0.0000 C   0  0  0  0  0  0  0  0  0  0  0  0
    3.7500   -3.8971    0.0000 C   0  0  0  0  0  0  0  0  0  0  0  0
    3.0000   -5.1962    0.0000 C   0  0  0  0  0  0  0  0  0  0  0  0
    3.7500   -6.4952    0.0000 C   0  0  0  0  0  0  0  0  0  0  0  0
    5.2500   -6.4952    0.0000 C   0  0  0  0  0  0  0  0  0  0  0  0
    6.0000   -7.7942    0.0000 O   0  0  0  0  0  0  0  0  0  0  0  0
    6.0000   -5.1962    0.0000 C   0  0  0  0  0  0  0  0  0  0  0  0
    7.5000   -5.1962    0.0000 O   0  0  0  0  0  0  0  0  0  0  0  0
    5.2500   -3.8971    0.0000 C   0  0  0  0  0  0  0  0  0  0  0  0
    1.5000    0.0000    0.0000 C   0  0  0  0  0  0  0  0  0  0  0  0
    0.7500    1.2990    0.0000 C   0  0  0  0  0  0  0  0  0  0  0  0
    1.5000    2.5981    0.0000 O   0  0  0  0  0  0  0  0  0  0  0  0
   -0.7500    1.2990    0.0000 C   0  0  0  0  0  0  0  0  0  0  0  0
   -1.5000    0.0000    0.0000 C   0  0  0  0  0  0  0  0  0  0  0  0
   -2.9672   -0.3119    0.0000 O   0  0  0  0  0  0  0  0  0  0  0  0
   -3.1240   -1.8037    0.0000 C   0  0  0  0  0  0  0  0  0  0  0  0
   -4.4231   -2.5537    0.0000 C   0  0  0  0  0  0  0  0  0  0  0  0
   -5.7221   -1.8037    0.0000 C   0  0  0  0  0  0  0  0  0  0  0  0
   -7.0211   -2.5537    0.0000 C   0  0  0  0  0  0  0  0  0  0  0  0
   -7.0211   -4.0537    0.0000 C   0  0  0  0  0  0  0  0  0  0  0  0
   -8.3202   -4.8037    0.0000 O   0  0  0  0  0  0  0  0  0  0  0  0
   -5.7221   -4.8037    0.0000 C   0  0  0  0  0  0  0  0  0  0  0  0
   -5.7221   -6.3037    0.0000 O   0  0  0  0  0  0  0  0  0  0  0  0
   -4.4231   -4.0537    0.0000 C   0  0  0  0  0  0  0  0  0  0  0  0
   -0.0152   -4.3445    0.0000 C   0  0  0  0  0  0  0  0  0  0  0  0
  1  2  1  0
  2  3  2  0
  3  4  1  0
  4  5  1  0
  4  6  2  0
  6  7  1  0
  8  7  1  1
  8  9  1  0
  9 10  1  0
 10 11  1  0
 11 12  2  0
 12 13  1  0
 13 14  2  0
 14 15  1  0
 15 16  2  0
 16 17  1  0
 16 18  1  0
 18 19  1  0
 18 20  2  0
 10 21  2  0
 21 22  1  0
 22 23  1  0
 22 24  2  0
 24 25  1  0
 25 26  1  0
 26 27  1  0
 27 28  1  1
 28 29  2  0
 29 30  1  0
 30 31  2  0
 31 32  1  0
 31 33  1  0
 33 34  1  0
 33 35  2  0
  7 36  2  0
 36  2  1  0
 27  8  1  0
 35 28  1  0
 25  9  2  0
 20 13  1  0
M  END
>  <Compound_ID>  (124) 
C05758830

>  <Active>  (124) 
0.0

>  <Smiles>  (124) 
Oc1cc(O)cc([C@@H]2c3c(/C=C/c4ccc(O)c(O)c4)cc(O)cc3O[C@@H]2c2ccc(O)c(O)c2)c1

>  <canonical_smi>  (124) 
Oc1cc(O)cc([C@@H]2c3c(/C=C/c4ccc(O)c(O)c4)cc(O)cc3O[C@@H]2c2ccc(O)c(O)c2)c1

>  <Set>  (124) 
G2 inactive

>  <Set_type>  (124) 
Train

>  <MW>  (124) 
486.48

>  <HBD>  (124) 
7

>  <HBA>  (124) 
8

>  <NRB>  (124) 
4

>  <NR>  (124) 
5

>  <NAR>  (124) 
4

>  <PSA>  (124) 
150.84

>  <Standard Type>  (124) 
nan

>  <Standard Relation>  (124) 
nan

>  <Standard Units>  (124) 
nan

>  <Standard Value>  (124) 
nan

>  <Assay ChEMBL ID>  (124) 
nan

>  <Assay Description>  (124) 
nan

>  <BAO Label>  (124) 
nan

$$$$

     RDKit          2D

 23 24  0  0  0  0  0  0  0  0999 V2000
    3.0000    0.0000    0.0000 N   0  0  0  0  0  0  0  0  0  0  0  0
    1.5000    0.0000    0.0000 C   0  0  0  0  0  0  0  0  0  0  0  0
    0.7500   -1.2990    0.0000 N   0  0  0  0  0  0  0  0  0  0  0  0
   -0.7500   -1.2990    0.0000 C   0  0  0  0  0  0  0  0  0  0  0  0
   -1.5000   -2.5981    0.0000 S   0  0  0  0  0  0  0  0  0  0  0  0
   -1.5000    0.0000    0.0000 N   0  0  0  0  0  0  0  0  0  0  0  0
   -0.7500    1.2990    0.0000 C   0  0  0  0  0  0  0  0  0  0  0  0
   -1.5000    2.5981    0.0000 O   0  0  0  0  0  0  0  0  0  0  0  0
    0.7500    1.2990    0.0000 C   0  0  0  0  0  0  0  0  0  0  0  0
    1.5000    2.5981    0.0000 N   0  0  0  0  0  0  0  0  0  0  0  0
    3.0000    2.5981    0.0000 N   0  0  0  0  0  0  0  0  0  0  0  0
    3.7500    3.8971    0.0000 C   0  0  0  0  0  0  0  0  0  0  0  0
    5.2500    3.8971    0.0000 C   0  0  0  0  0  0  0  0  0  0  0  0
    6.0000    2.5981    0.0000 Br  0  0  0  0  0  0  0  0  0  0  0  0
    6.0000    5.1962    0.0000 C   0  0  0  0  0  0  0  0  0  0  0  0
    5.2500    6.4952    0.0000 C   0  0  0  0  0  0  0  0  0  0  0  0
    6.0000    7.7942    0.0000 S   0  0  0  0  0  0  0  0  0  0  0  0
    6.7500    9.0933    0.0000 N   0  0  0  0  0  0  0  0  0  0  0  0
    7.2990    7.0442    0.0000 O   0  0  0  0  0  0  0  0  0  0  0  0
    4.7010    8.5442    0.0000 O   0  0  0  0  0  0  0  0  0  0  0  0
    3.7500    6.4952    0.0000 C   0  0  0  0  0  0  0  0  0  0  0  0
    3.0000    5.1962    0.0000 C   0  0  0  0  0  0  0  0  0  0  0  0
    1.5000    5.1962    0.0000 Br  0  0  0  0  0  0  0  0  0  0  0  0
  1  2  1  0
  2  3  1  0
  3  4  1  0
  4  5  2  0
  4  6  1  0
  6  7  1  0
  7  8  2  0
  7  9  1  0
  9 10  1  0
 10 11  2  0
 11 12  1  0
 12 13  2  0
 13 14  1  0
 13 15  1  0
 15 16  2  0
 16 17  1  0
 17 18  1  0
 17 19  2  0
 17 20  2  0
 16 21  1  0
 21 22  2  0
 22 23  1  0
  9  2  2  0
 22 12  1  0
M  END
>  <Compound_ID>  (125) 
C13099280

>  <Active>  (125) 
0.0

>  <Smiles>  (125) 
Nc1[nH]c(=S)[nH]c(=O)c1/N=N/c1c(Br)cc(S(N)(=O)=O)cc1Br

>  <canonical_smi>  (125) 
Nc1[nH]c(=S)[nH]c(=O)c1/N=N/c1c(Br)cc(S(N)(=O)=O)cc1Br

>  <Set>  (125) 
G2 inactive

>  <Set_type>  (125) 
Train

>  <MW>  (125) 
484.16

>  <HBD>  (125) 
4

>  <HBA>  (125) 
5

>  <NRB>  (125) 
3

>  <NR>  (125) 
2

>  <NAR>  (125) 
2

>  <PSA>  (125) 
159.55

>  <Standard Type>  (125) 
nan

>  <Standard Relation>  (125) 
nan

>  <Standard Units>  (125) 
nan

>  <Standard Value>  (125) 
nan

>  <Assay ChEMBL ID>  (125) 
nan

>  <Assay Description>  (125) 
nan

>  <BAO Label>  (125) 
nan

$$$$

     RDKit          2D

 30 34  0  0  0  0  0  0  0  0999 V2000
    3.0000    0.0000    0.0000 N   0  0  0  0  0  0  0  0  0  0  0  0
    1.5000    0.0000    0.0000 C   0  0  0  0  0  0  0  0  0  0  0  0
    0.7500   -1.2990    0.0000 N   0  0  0  0  0  0  0  0  0  0  0  0
   -0.7500   -1.2990    0.0000 C   0  0  0  0  0  0  0  0  0  0  0  0
   -1.5000    0.0000    0.0000 N   0  0  0  0  0  0  0  0  0  0  0  0
   -0.7500    1.2990    0.0000 C   0  0  0  0  0  0  0  0  0  0  0  0
    0.7500    1.2990    0.0000 C   0  0  0  0  0  0  0  0  0  0  0  0
    1.2135    2.7256    0.0000 C   0  0  0  0  0  0  0  0  0  0  0  0
    2.6401    3.1891    0.0000 C   0  0  0  0  0  0  0  0  0  0  0  0
    3.1036    4.6157    0.0000 N   0  0  0  0  0  0  0  0  0  0  0  0
    4.6036    4.6157    0.0000 C   0  0  0  0  0  0  0  0  0  0  0  0
    5.4853    5.8293    0.0000 C   0  0  0  0  0  0  0  0  0  0  0  0
    6.9771    5.6725    0.0000 C   0  0  0  0  0  0  0  0  0  0  0  0
    7.8588    6.8860    0.0000 C   0  0  0  0  0  0  0  0  0  0  0  0
    7.2487    8.2563    0.0000 C   0  0  0  0  0  0  0  0  0  0  0  0
    5.7569    8.4131    0.0000 C   0  0  0  0  0  0  0  0  0  0  0  0
    4.8752    7.1996    0.0000 C   0  0  0  0  0  0  0  0  0  0  0  0
    5.0672    3.1891    0.0000 C   0  0  0  0  0  0  0  0  0  0  0  0
    3.8536    2.3075    0.0000 S   0  0  0  0  0  0  0  0  0  0  0  0
   -0.0000    3.6073    0.0000 C   0  0  0  0  0  0  0  0  0  0  0  0
   -1.2135    2.7256    0.0000 N   0  0  0  0  0  0  0  0  0  0  0  0
   -2.6401    3.1891    0.0000 C   0  0  0  0  0  0  0  0  0  0  0  0
   -3.8536    2.3075    0.0000 O   0  0  0  0  0  0  0  0  0  0  0  0
   -5.0672    3.1891    0.0000 C   0  0  0  0  0  0  0  0  0  0  0  0
   -6.4937    2.7256    0.0000 C   0  0  0  0  0  0  0  0  0  0  0  0
   -7.6085    3.7293    0.0000 O   0  0  0  0  0  0  0  0  0  0  0  0
   -4.6036    4.6157    0.0000 C   0  0  0  0  0  0  0  0  0  0  0  0
   -5.4853    5.8293    0.0000 O   0  0  0  0  0  0  0  0  0  0  0  0
   -3.1036    4.6157    0.0000 C   0  0  0  0  0  0  0  0  0  0  0  0
   -2.2220    5.8293    0.0000 O   0  0  0  0  0  0  0  0  0  0  0  0
  1  2  1  0
  2  3  2  0
  3  4  1  0
  4  5  2  0
  5  6  1  0
  6  7  2  0
  7  8  1  0
  8  9  1  0
  9 10  2  0
 10 11  1  0
 11 12  1  0
 12 13  2  0
 13 14  1  0
 14 15  2  0
 15 16  1  0
 16 17  2  0
 11 18  2  0
 18 19  1  0
  8 20  2  0
 20 21  1  0
 22 21  1  6
 22 23  1  0
 23 24  1  0
 24 25  1  1
 25 26  1  0
 24 27  1  0
 27 28  1  1
 27 29  1  0
 29 30  1  6
  7  2  1  0
 19  9  1  0
 29 22  1  0
 21  6  1  0
 17 12  1  0
M  END
>  <Compound_ID>  (126) 
C05121289

>  <Active>  (126) 
0.0

>  <Smiles>  (126) 
Nc1ncnc2c1c(-c1nc(-c3ccccc3)cs1)cn2[C@@H]1O[C@@H](CO)[C@@H](O)[C@@H]1O

>  <canonical_smi>  (126) 
Nc1ncnc2c1c(-c1nc(-c3ccccc3)cs1)cn2[C@@H]1O[C@@H](CO)[C@@H](O)[C@@H]1O

>  <Set>  (126) 
G2 inactive

>  <Set_type>  (126) 
Train

>  <MW>  (126) 
425.47

>  <HBD>  (126) 
4

>  <HBA>  (126) 
8

>  <NRB>  (126) 
4

>  <NR>  (126) 
5

>  <NAR>  (126) 
4

>  <PSA>  (126) 
139.54

>  <Standard Type>  (126) 
nan

>  <Standard Relation>  (126) 
nan

>  <Standard Units>  (126) 
nan

>  <Standard Value>  (126) 
nan

>  <Assay ChEMBL ID>  (126) 
nan

>  <Assay Description>  (126) 
nan

>  <BAO Label>  (126) 
nan

$$$$

     RDKit          2D

 33 36  0  0  0  0  0  0  0  0999 V2000
    3.7500   -1.2990    0.0000 C   0  0  0  0  0  0  0  0  0  0  0  0
    3.0000    0.0000    0.0000 N   0  0  0  0  0  0  0  0  0  0  0  0
    3.7500    1.2990    0.0000 C   0  0  0  0  0  0  0  0  0  0  0  0
    1.5000    0.0000    0.0000 C   0  0  0  0  0  0  0  0  0  0  0  0
    0.7500   -1.2990    0.0000 C   0  0  0  0  0  0  0  0  0  0  0  0
   -0.7500   -1.2990    0.0000 C   0  0  0  0  0  0  0  0  0  0  0  0
   -1.5000    0.0000    0.0000 C   0  0  0  0  0  0  0  0  0  0  0  0
   -0.7500    1.2990    0.0000 C   0  0  0  0  0  0  0  0  0  0  0  0
    0.7500    1.2990    0.0000 C   0  0  0  0  0  0  0  0  0  0  0  0
    1.5000    2.5981    0.0000 O   0  0  0  0  0  0  0  0  0  0  0  0
   -1.5000    2.5981    0.0000 C   0  0  0  0  0  0  0  0  0  0  0  0
   -0.7500    3.8971    0.0000 O   0  0  0  0  0  0  0  0  0  0  0  0
   -3.0000    2.5981    0.0000 C   0  0  0  0  0  0  0  0  0  0  0  0
   -3.7500    3.8971    0.0000 C   0  0  0  0  0  0  0  0  0  0  0  0
   -3.0000    5.1962    0.0000 O   0  0  0  0  0  0  0  0  0  0  0  0
   -5.2500    3.8971    0.0000 C   0  0  0  0  0  0  0  0  0  0  0  0
   -4.5000    5.1962    0.0000 O   0  0  0  0  0  0  0  0  0  0  0  0
   -6.0000    5.1962    0.0000 C   0  0  0  0  0  0  0  0  0  0  0  0
   -5.2500    6.4952    0.0000 O   0  0  0  0  0  1  0  0  0  0  0  0
   -7.5000    5.1962    0.0000 C   0  0  0  0  0  0  0  0  0  0  0  0
   -8.2500    6.4952    0.0000 C   0  0  0  0  0  0  0  0  0  0  0  0
   -7.5000    7.7942    0.0000 N   0  0  0  0  0  0  0  0  0  0  0  0
   -9.7500    6.4952    0.0000 O   0  0  0  0  0  0  0  0  0  0  0  0
   -8.2500    3.8971    0.0000 C   0  0  0  0  0  0  0  0  0  0  0  0
   -9.7500    3.8971    0.0000 O   0  0  0  0  0  0  0  0  0  0  0  0
   -7.5000    2.5981    0.0000 C   0  0  0  0  0  0  0  0  0  0  0  0
   -8.2500    1.2990    0.0000 N   0  0  0  0  0  4  0  0  0  0  0  0
   -9.7500    1.2990    0.0000 C   0  0  0  0  0  0  0  0  0  0  0  0
   -7.5000   -0.0000    0.0000 C   0  0  0  0  0  0  0  0  0  0  0  0
   -6.0000    2.5981    0.0000 C   0  0  0  0  0  0  0  0  0  0  0  0
   -5.2500    1.2990    0.0000 C   0  0  0  0  0  0  0  0  0  0  0  0
   -3.7500    1.2990    0.0000 C   0  0  0  0  0  0  0  0  0  0  0  0
   -3.0000    0.0000    0.0000 C   0  0  0  0  0  0  0  0  0  0  0  0
  1  2  1  0
  2  3  1  0
  2  4  1  0
  4  5  2  0
  5  6  1  0
  6  7  2  0
  7  8  1  0
  8  9  2  0
  9 10  1  0
  8 11  1  0
 11 12  2  0
 13 11  1  6
 13 14  1  0
 14 15  2  0
 14 16  1  0
 16 17  1  1
 16 18  1  0
 18 19  1  0
 18 20  2  0
 20 21  1  0
 21 22  1  0
 21 23  2  0
 20 24  1  0
 24 25  2  0
 24 26  1  0
 26 27  1  6
 27 28  1  0
 27 29  1  0
 26 30  1  0
 30 31  1  6
 32 31  1  1
 32 33  1  0
  9  4  1  0
 32 13  1  0
 33  7  1  0
 30 16  1  0
M  CHG  2  19  -1  27   1
M  END
>  <Compound_ID>  (127) 
C44021601

>  <Active>  (127) 
0.0

>  <Smiles>  (127) 
CN(C)c1ccc2c(c1O)C(=O)[C@H]1C(=O)[C@@]3(O)C([O-])=C(C(N)=O)C(=O)[C@@H]([NH+](C)C)[C@H]3C[C@@H]1C2

>  <canonical_smi>  (127) 
CN(C)c1ccc2c(c1O)C(=O)[C@H]1C(=O)[C@@]3(O)C([O-])=C(C(N)=O)C(=O)[C@@H]([NH+](C)C)[C@H]3C[C@@H]1C2

>  <Set>  (127) 
G2 inactive

>  <Set_type>  (127) 
Train

>  <MW>  (127) 
457.48

>  <HBD>  (127) 
4

>  <HBA>  (127) 
8

>  <NRB>  (127) 
3

>  <NR>  (127) 
4

>  <NAR>  (127) 
1

>  <PSA>  (127) 
165.5

>  <Standard Type>  (127) 
nan

>  <Standard Relation>  (127) 
nan

>  <Standard Units>  (127) 
nan

>  <Standard Value>  (127) 
nan

>  <Assay ChEMBL ID>  (127) 
nan

>  <Assay Description>  (127) 
nan

>  <BAO Label>  (127) 
nan

$$$$

     RDKit          2D

 30 33  0  0  0  0  0  0  0  0999 V2000
    1.2990   -5.8573    0.0000 C   0  0  0  0  0  0  0  0  0  0  0  0
   -0.0000   -5.1073    0.0000 C   0  0  0  0  0  0  0  0  0  0  0  0
   -1.2990   -5.8573    0.0000 N   0  0  0  0  0  0  0  0  0  0  0  0
   -2.5981   -5.1073    0.0000 N   0  0  0  0  0  0  0  0  0  0  0  0
   -3.8971   -5.8573    0.0000 C   0  0  0  0  0  0  0  0  0  0  0  0
   -3.8971   -7.3573    0.0000 O   0  0  0  0  0  0  0  0  0  0  0  0
   -5.1962   -5.1073    0.0000 C   0  0  0  0  0  0  0  0  0  0  0  0
   -5.1962   -3.6073    0.0000 C   0  0  0  0  0  0  0  0  0  0  0  0
   -6.4952   -2.8573    0.0000 C   0  0  0  0  0  0  0  0  0  0  0  0
   -7.7942   -3.6073    0.0000 C   0  0  0  0  0  0  0  0  0  0  0  0
   -7.7942   -5.1073    0.0000 C   0  0  0  0  0  0  0  0  0  0  0  0
   -6.4952   -5.8573    0.0000 C   0  0  0  0  0  0  0  0  0  0  0  0
   -6.4952   -7.3573    0.0000 N   0  0  0  0  0  2  0  0  0  0  0  0
   -7.7942   -8.1073    0.0000 S   0  0  0  0  0  0  0  0  0  0  0  0
   -8.5442   -6.8083    0.0000 O   0  0  0  0  0  0  0  0  0  0  0  0
   -7.0442   -9.4063    0.0000 O   0  0  0  0  0  0  0  0  0  0  0  0
   -9.0933   -8.8573    0.0000 C   0  0  0  0  0  0  0  0  0  0  0  0
   -9.2501  -10.3491    0.0000 C   0  0  0  0  0  0  0  0  0  0  0  0
  -10.7173  -10.6610    0.0000 C   0  0  0  0  0  0  0  0  0  0  0  0
  -11.4673   -9.3619    0.0000 C   0  0  0  0  0  0  0  0  0  0  0  0
  -10.4636   -8.2472    0.0000 S   0  0  0  0  0  0  0  0  0  0  0  0
   -0.0000   -3.6073    0.0000 C   0  0  0  0  0  0  0  0  0  0  0  0
    1.2135   -2.7256    0.0000 N   0  0  0  0  0  0  0  0  0  0  0  0
    0.7500   -1.2990    0.0000 C   0  0  0  0  0  0  0  0  0  0  0  0
    1.5000    0.0000    0.0000 C   0  0  0  0  0  0  0  0  0  0  0  0
    0.7500    1.2990    0.0000 C   0  0  0  0  0  0  0  0  0  0  0  0
   -0.7500    1.2990    0.0000 C   0  0  0  0  0  0  0  0  0  0  0  0
   -1.5000    0.0000    0.0000 C   0  0  0  0  0  0  0  0  0  0  0  0
   -0.7500   -1.2990    0.0000 C   0  0  0  0  0  0  0  0  0  0  0  0
   -1.2135   -2.7256    0.0000 N   0  0  0  0  0  0  0  0  0  0  0  0
  1  2  1  0
  2  3  2  0
  3  4  1  0
  4  5  1  0
  5  6  2  0
  5  7  1  0
  7  8  2  0
  8  9  1  0
  9 10  2  0
 10 11  1  0
 11 12  2  0
 12 13  1  0
 13 14  1  0
 14 15  2  0
 14 16  2  0
 14 17  1  0
 17 18  2  0
 18 19  1  0
 19 20  2  0
 20 21  1  0
  2 22  1  0
 22 23  2  0
 23 24  1  0
 24 25  2  0
 25 26  1  0
 26 27  2  0
 27 28  1  0
 28 29  2  0
 29 30  1  0
 12  7  1  0
 21 17  1  0
 30 22  1  0
 29 24  1  0
M  CHG  1  13  -1
M  END
>  <Compound_ID>  (128) 
C17414669

>  <Active>  (128) 
0.0

>  <Smiles>  (128) 
C/C(=N/NC(=O)c1ccccc1[N-]S(=O)(=O)c1cccs1)c1nc2ccccc2[nH]1

>  <canonical_smi>  (128) 
C/C(=N/NC(=O)c1ccccc1[N-]S(=O)(=O)c1cccs1)c1nc2ccccc2[nH]1

>  <Set>  (128) 
G2 inactive

>  <Set_type>  (128) 
Train

>  <MW>  (128) 
438.51

>  <HBD>  (128) 
2

>  <HBA>  (128) 
4

>  <NRB>  (128) 
6

>  <NR>  (128) 
4

>  <NAR>  (128) 
4

>  <PSA>  (128) 
118.38

>  <Standard Type>  (128) 
nan

>  <Standard Relation>  (128) 
nan

>  <Standard Units>  (128) 
nan

>  <Standard Value>  (128) 
nan

>  <Assay ChEMBL ID>  (128) 
nan

>  <Assay Description>  (128) 
nan

>  <BAO Label>  (128) 
nan

$$$$

     RDKit          2D

 32 35  0  0  0  0  0  0  0  0999 V2000
    3.7500   -1.2990    0.0000 C   0  0  0  0  0  0  0  0  0  0  0  0
    3.0000    0.0000    0.0000 O   0  0  0  0  0  0  0  0  0  0  0  0
    1.5000    0.0000    0.0000 C   0  0  0  0  0  0  0  0  0  0  0  0
    0.7500   -1.2990    0.0000 C   0  0  0  0  0  0  0  0  0  0  0  0
   -0.7500   -1.2990    0.0000 C   0  0  0  0  0  0  0  0  0  0  0  0
   -1.5000   -2.5981    0.0000 C   0  0  0  0  0  0  0  0  0  0  0  0
   -0.7500   -3.8971    0.0000 O   0  0  0  0  0  0  0  0  0  0  0  0
   -3.0000   -2.5981    0.0000 C   0  0  0  0  0  0  0  0  0  0  0  0
   -3.7500   -3.8971    0.0000 C   0  0  0  0  0  0  0  0  0  0  0  0
   -5.2500   -3.8971    0.0000 C   0  0  0  0  0  0  0  0  0  0  0  0
   -6.0000   -5.1962    0.0000 C   0  0  0  0  0  0  0  0  0  0  0  0
   -5.2500   -6.4952    0.0000 C   0  0  0  0  0  0  0  0  0  0  0  0
   -6.0000   -7.7942    0.0000 O   0  0  0  0  0  0  0  0  0  0  0  0
   -3.7500   -6.4952    0.0000 C   0  0  0  0  0  0  0  0  0  0  0  0
   -3.0000   -5.1962    0.0000 C   0  0  0  0  0  0  0  0  0  0  0  0
   -3.7500   -1.2990    0.0000 C   0  0  0  0  0  0  0  0  0  0  0  0
   -3.0000    0.0000    0.0000 O   0  0  0  0  0  0  0  0  0  0  0  0
   -1.5000    0.0000    0.0000 C   0  0  0  0  0  0  0  0  0  0  0  0
   -0.7500    1.2990    0.0000 C   0  0  0  0  0  0  0  0  0  0  0  0
    0.7500    1.2990    0.0000 C   0  0  0  0  0  0  0  0  0  0  0  0
    1.5000    2.5981    0.0000 O   0  0  0  0  0  0  0  0  0  0  0  0
    0.7500    3.8971    0.0000 C   0  0  0  0  0  0  0  0  0  0  0  0
    1.5000    5.1962    0.0000 O   0  0  0  0  0  0  0  0  0  0  0  0
    0.7500    6.4952    0.0000 C   0  0  0  0  0  0  0  0  0  0  0  0
    1.5000    7.7942    0.0000 C   0  0  0  0  0  0  0  0  0  0  0  0
    3.0000    7.7942    0.0000 O   0  0  0  0  0  0  0  0  0  0  0  0
   -0.7500    6.4952    0.0000 C   0  0  0  0  0  0  0  0  0  0  0  0
   -1.5000    7.7942    0.0000 O   0  0  0  0  0  0  0  0  0  0  0  0
   -1.5000    5.1962    0.0000 C   0  0  0  0  0  0  0  0  0  0  0  0
   -3.0000    5.1962    0.0000 O   0  0  0  0  0  0  0  0  0  0  0  0
   -0.7500    3.8971    0.0000 C   0  0  0  0  0  0  0  0  0  0  0  0
   -1.5000    2.5981    0.0000 O   0  0  0  0  0  0  0  0  0  0  0  0
  1  2  1  0
  2  3  1  0
  3  4  2  0
  4  5  1  0
  5  6  1  0
  6  7  2  0
  6  8  1  0
  8  9  1  0
  9 10  2  0
 10 11  1  0
 11 12  2  0
 12 13  1  0
 12 14  1  0
 14 15  2  0
  8 16  2  0
 16 17  1  0
 17 18  1  0
 18 19  1  0
 19 20  2  0
 20 21  1  0
 22 21  1  1
 22 23  1  0
 23 24  1  0
 24 25  1  1
 25 26  1  0
 24 27  1  0
 27 28  1  6
 27 29  1  0
 29 30  1  1
 29 31  1  0
 31 32  1  1
 20  3  1  0
 31 22  1  0
 18  5  2  0
 15  9  1  0
M  END
>  <Compound_ID>  (129) 
C39937114

>  <Active>  (129) 
0.0

>  <Smiles>  (129) 
COc1cc2c(=O)c(-c3ccc(O)cc3)coc2cc1O[C@@H]1O[C@H](CO)[C@@H](O)[C@H](O)[C@@H]1O

>  <canonical_smi>  (129) 
COc1cc2c(=O)c(-c3ccc(O)cc3)coc2cc1O[C@@H]1O[C@H](CO)[C@@H](O)[C@H](O)[C@@H]1O

>  <Set>  (129) 
G2 inactive

>  <Set_type>  (129) 
Train

>  <MW>  (129) 
446.41

>  <HBD>  (129) 
5

>  <HBA>  (129) 
10

>  <NRB>  (129) 
5

>  <NR>  (129) 
4

>  <NAR>  (129) 
3

>  <PSA>  (129) 
159.05

>  <Standard Type>  (129) 
nan

>  <Standard Relation>  (129) 
nan

>  <Standard Units>  (129) 
nan

>  <Standard Value>  (129) 
nan

>  <Assay ChEMBL ID>  (129) 
nan

>  <Assay Description>  (129) 
nan

>  <BAO Label>  (129) 
nan

$$$$

     RDKit          2D

 20 24  0  0  0  0  0  0  0  0999 V2000
   -3.3067    4.6817    0.0000 O   0  0  0  0  0  0  0  0  0  0  0  0
   -2.0932    3.8000    0.0000 C   0  0  0  0  0  0  0  0  0  0  0  0
   -0.7229    4.4102    0.0000 C   0  0  0  0  0  0  0  0  0  0  0  0
    0.4906    3.5285    0.0000 C   0  0  0  0  0  0  0  0  0  0  0  0
    0.3338    2.0367    0.0000 C   0  0  0  0  0  0  0  0  0  0  0  0
   -1.0365    1.4266    0.0000 C   0  0  0  0  0  0  0  0  0  0  0  0
   -2.2500    2.3083    0.0000 C   0  0  0  0  0  0  0  0  0  0  0  0
   -3.4635    1.4266    0.0000 O   0  0  0  0  0  0  0  0  0  0  0  0
   -3.0000    0.0000    0.0000 C   0  0  0  0  0  0  0  0  0  0  0  0
   -3.7500   -1.2990    0.0000 C   0  0  0  0  0  0  0  0  0  0  0  0
   -5.2500   -1.2990    0.0000 O   0  0  0  0  0  0  0  0  0  0  0  0
   -3.0000   -2.5981    0.0000 C   0  0  0  0  0  0  0  0  0  0  0  0
   -1.5000   -2.5981    0.0000 C   0  0  0  0  0  0  0  0  0  0  0  0
   -0.7500   -1.2990    0.0000 C   0  0  0  0  0  0  0  0  0  0  0  0
    0.7500   -1.2990    0.0000 C   0  0  0  0  0  0  0  0  0  0  0  0
    1.2389    0.8405    0.0000 C   0  0  0  0  0  0  0  0  0  0  0  0
    0.8000   -0.0000    0.0000 N   0  0  0  0  0  4  0  0  0  0  0  0
    0.4000    0.6928    0.0000 C   0  0  0  0  0  0  0  0  0  0  0  0
   -0.4000    0.6928    0.0000 C   0  0  0  0  0  0  0  0  0  0  0  0
   -1.5000    0.0000    0.0000 C   0  0  0  0  0  0  0  0  0  0  0  0
  1  2  1  0
  2  3  2  0
  3  4  1  0
  4  5  2  0
  5  6  1  0
  6  7  2  0
  7  8  1  0
  9  8  1  6
  9 10  1  0
 10 11  1  1
 10 12  1  0
 12 13  2  0
 14 13  1  1
 14 15  1  0
 15 16  1  1
 15 17  1  0
 17 18  1  0
 18 19  1  0
 20 19  1  6
  7  2  1  0
 20  9  1  0
 16  5  1  0
 20  6  1  0
 20 14  1  0
M  CHG  1  17   1
M  END
>  <Compound_ID>  (130) 
C05440557

>  <Active>  (130) 
0.0

>  <Smiles>  (130) 
Oc1ccc2c3c1O[C@H]1[C@H](O)C=C[C@@H]4[C@H](C2)[NH2+]CC[C@]341

>  <canonical_smi>  (130) 
Oc1ccc2c3c1O[C@H]1[C@H](O)C=C[C@@H]4[C@H](C2)[NH2+]CC[C@]341

>  <Set>  (130) 
G2 inactive

>  <Set_type>  (130) 
Train

>  <MW>  (130) 
272.32

>  <HBD>  (130) 
3

>  <HBA>  (130) 
3

>  <NRB>  (130) 
0

>  <NR>  (130) 
5

>  <NAR>  (130) 
1

>  <PSA>  (130) 
66.3

>  <Standard Type>  (130) 
nan

>  <Standard Relation>  (130) 
nan

>  <Standard Units>  (130) 
nan

>  <Standard Value>  (130) 
nan

>  <Assay ChEMBL ID>  (130) 
nan

>  <Assay Description>  (130) 
nan

>  <BAO Label>  (130) 
nan

$$$$

     RDKit          2D

 19 21  0  0  0  0  0  0  0  0999 V2000
   -4.3764    3.7611    0.0000 N   0  0  0  0  0  4  0  0  0  0  0  0
   -2.9499    4.2246    0.0000 C   0  0  0  0  0  0  0  0  0  0  0  0
   -2.6380    5.6918    0.0000 C   0  0  0  0  0  0  0  0  0  0  0  0
   -1.2114    6.1554    0.0000 C   0  0  0  0  0  0  0  0  0  0  0  0
   -0.8995    7.6226    0.0000 C   0  0  0  0  0  0  0  0  0  0  0  0
   -2.0143    8.6263    0.0000 N   0  0  0  0  0  0  0  0  0  0  0  0
   -3.4408    8.1628    0.0000 C   0  0  0  0  0  0  0  0  0  0  0  0
   -3.7527    6.6955    0.0000 C   0  0  0  0  0  0  0  0  0  0  0  0
   -1.8351    3.2209    0.0000 C   0  0  0  0  0  0  0  0  0  0  0  0
   -2.1470    1.7537    0.0000 C   0  0  0  0  0  0  0  0  0  0  0  0
   -1.0323    0.7500    0.0000 C   0  0  0  0  0  0  0  0  0  0  0  0
    0.3943    1.2135    0.0000 C   0  0  0  0  0  0  0  0  0  0  0  0
    0.7062    2.6807    0.0000 C   0  0  0  0  0  0  0  0  0  0  0  0
   -0.4086    3.6844    0.0000 C   0  0  0  0  0  0  0  0  0  0  0  0
   -0.0967    5.1517    0.0000 Cl  0  0  0  0  0  0  0  0  0  0  0  0
    1.2760    0.0000    0.0000 N   0  0  0  0  0  0  0  0  0  0  0  0
    0.3943   -1.2135    0.0000 C   0  0  0  0  0  0  0  0  0  0  0  0
    0.8578   -2.6401    0.0000 O   0  0  0  0  0  0  0  0  0  0  0  0
   -1.0323   -0.7500    0.0000 C   0  0  0  0  0  0  0  0  0  0  0  0
  2  1  1  1
  2  3  1  0
  3  4  2  0
  4  5  1  0
  5  6  2  0
  6  7  1  0
  7  8  2  0
  2  9  1  0
  9 10  2  0
 10 11  1  0
 11 12  2  0
 12 13  1  0
 13 14  2  0
 14 15  1  0
 12 16  1  0
 16 17  1  0
 17 18  2  0
 17 19  1  0
  8  3  1  0
 14  9  1  0
 19 11  1  0
M  CHG  1   1   1
M  END
>  <Compound_ID>  (131) 
C35359532

>  <Active>  (131) 
0.0

>  <Smiles>  (131) 
[NH3+][C@@H](c1ccncc1)c1cc2c(cc1Cl)NC(=O)C2

>  <canonical_smi>  (131) 
[NH3+][C@@H](c1ccncc1)c1cc2c(cc1Cl)NC(=O)C2

>  <Set>  (131) 
G2 inactive

>  <Set_type>  (131) 
Train

>  <MW>  (131) 
274.73

>  <HBD>  (131) 
2

>  <HBA>  (131) 
2

>  <NRB>  (131) 
2

>  <NR>  (131) 
3

>  <NAR>  (131) 
2

>  <PSA>  (131) 
69.63

>  <Standard Type>  (131) 
nan

>  <Standard Relation>  (131) 
nan

>  <Standard Units>  (131) 
nan

>  <Standard Value>  (131) 
nan

>  <Assay ChEMBL ID>  (131) 
nan

>  <Assay Description>  (131) 
nan

>  <BAO Label>  (131) 
nan

$$$$

     RDKit          2D

 17 18  0  0  0  0  0  0  0  0999 V2000
    4.4315    3.4734    0.0000 N   0  0  0  0  0  0  0  0  0  0  0  0
    3.4962    2.3006    0.0000 C   0  0  0  0  0  0  0  0  0  0  0  0
    4.0442    0.9043    0.0000 O   0  0  0  0  0  0  0  0  0  0  0  0
    2.0130    2.5242    0.0000 C   0  0  0  0  0  0  0  0  0  0  0  0
    1.4650    3.9205    0.0000 C   0  0  0  0  0  0  0  0  0  0  0  0
    0.0132    4.2979    0.0000 C   0  0  0  0  0  0  0  0  0  0  0  0
   -0.0765    5.7952    0.0000 C   0  0  0  0  0  0  0  0  0  0  0  0
   -1.3406    6.6027    0.0000 Br  0  0  0  0  0  0  0  0  0  0  0  0
    1.3198    6.3432    0.0000 C   0  0  0  0  0  0  0  0  0  0  0  0
    2.2725    5.1846    0.0000 S   0  0  0  0  0  0  0  0  0  0  0  0
    1.0777    1.3515    0.0000 N   0  0  0  0  0  0  0  0  0  0  0  0
    1.7286    0.0000    0.0000 C   0  0  0  0  0  0  0  0  0  0  0  0
    1.0777   -1.3515    0.0000 C   0  0  0  0  0  0  0  0  0  0  0  0
   -0.3846   -1.6852    0.0000 C   0  0  0  0  0  0  0  0  0  0  0  0
   -1.5574   -0.7500    0.0000 N   0  0  0  0  0  4  0  0  0  0  0  0
   -1.5574    0.7500    0.0000 C   0  0  0  0  0  0  0  0  0  0  0  0
   -0.3846    1.6852    0.0000 C   0  0  0  0  0  0  0  0  0  0  0  0
  1  2  1  0
  2  3  2  0
  2  4  1  0
  4  5  1  0
  5  6  2  0
  6  7  1  0
  7  8  1  0
  7  9  2  0
  9 10  1  0
  4 11  1  6
 11 12  1  0
 12 13  1  0
 13 14  1  0
 14 15  1  0
 15 16  1  0
 16 17  1  0
 10  5  1  0
 17 11  1  0
M  CHG  1  15   1
M  END
>  <Compound_ID>  (132) 
C48701894

>  <Active>  (132) 
0.0

>  <Smiles>  (132) 
NC(=O)[C@@H](c1cc(Br)cs1)N1CCC[NH2+]CC1

>  <canonical_smi>  (132) 
NC(=O)[C@@H](c1cc(Br)cs1)N1CCC[NH2+]CC1

>  <Set>  (132) 
G2 inactive

>  <Set_type>  (132) 
Train

>  <MW>  (132) 
319.25

>  <HBD>  (132) 
2

>  <HBA>  (132) 
2

>  <NRB>  (132) 
3

>  <NR>  (132) 
2

>  <NAR>  (132) 
1

>  <PSA>  (132) 
62.94

>  <Standard Type>  (132) 
nan

>  <Standard Relation>  (132) 
nan

>  <Standard Units>  (132) 
nan

>  <Standard Value>  (132) 
nan

>  <Assay ChEMBL ID>  (132) 
nan

>  <Assay Description>  (132) 
nan

>  <BAO Label>  (132) 
nan

$$$$

     RDKit          2D

 31 34  0  0  0  0  0  0  0  0999 V2000
    1.6959  -13.3649    0.0000 C   0  0  0  0  0  0  0  0  0  0  0  0
    1.5391  -11.8731    0.0000 C   0  0  0  0  0  0  0  0  0  0  0  0
    0.1688  -11.2630    0.0000 N   0  0  0  0  0  0  0  0  0  0  0  0
   -1.1302  -12.0130    0.0000 C   0  0  0  0  0  0  0  0  0  0  0  0
   -1.2870  -13.5048    0.0000 C   0  0  0  0  0  0  0  0  0  0  0  0
   -2.2449  -11.0093    0.0000 C   0  0  0  0  0  0  0  0  0  0  0  0
   -3.7122  -11.3212    0.0000 C   0  0  0  0  0  0  0  0  0  0  0  0
   -1.6348   -9.6390    0.0000 S   0  0  0  0  0  0  0  0  0  0  0  0
   -0.1430   -9.7958    0.0000 C   0  0  0  0  0  0  0  0  0  0  0  0
    0.8606   -8.6811    0.0000 C   0  0  0  0  0  0  0  0  0  0  0  0
    0.5488   -7.2139    0.0000 S   0  0  0  0  0  0  0  0  0  0  0  0
    1.8478   -6.4639    0.0000 C   0  0  0  0  0  0  0  0  0  0  0  0
    2.0046   -4.9721    0.0000 C   0  0  0  0  0  0  0  0  0  0  0  0
    0.8899   -3.9684    0.0000 C   0  0  0  0  0  0  0  0  0  0  0  0
   -0.5773   -4.2803    0.0000 O   0  0  0  0  0  0  0  0  0  0  0  0
    1.5000   -2.5981    0.0000 N   0  0  0  0  0  0  0  0  0  0  0  0
    0.7500   -1.2990    0.0000 C   0  0  0  0  0  0  0  0  0  0  0  0
    1.5000    0.0000    0.0000 C   0  0  0  0  0  0  0  0  0  0  0  0
    0.7500    1.2990    0.0000 C   0  0  0  0  0  0  0  0  0  0  0  0
   -0.7500    1.2990    0.0000 C   0  0  0  0  0  0  0  0  0  0  0  0
   -1.5000    0.0000    0.0000 C   0  0  0  0  0  0  0  0  0  0  0  0
   -0.7500   -1.2990    0.0000 C   0  0  0  0  0  0  0  0  0  0  0  0
    2.9918   -2.7549    0.0000 C   0  0  0  0  0  0  0  0  0  0  0  0
    3.9955   -1.6402    0.0000 S   0  0  0  0  0  0  0  0  0  0  0  0
    3.3037   -4.2221    0.0000 N   0  0  0  0  0  0  0  0  0  0  0  0
    4.6740   -4.8322    0.0000 C   0  0  0  0  0  0  0  0  0  0  0  0
    2.9625   -7.4676    0.0000 N   0  0  0  0  0  0  0  0  0  0  0  0
    4.4298   -7.1557    0.0000 C   0  0  0  0  0  0  0  0  0  0  0  0
    5.4335   -8.2704    0.0000 C   0  0  0  0  0  0  0  0  0  0  0  0
    2.3524   -8.8379    0.0000 C   0  0  0  0  0  0  0  0  0  0  0  0
    3.1024  -10.1369    0.0000 O   0  0  0  0  0  0  0  0  0  0  0  0
  1  2  1  0
  2  3  1  0
  3  4  1  0
  4  5  1  0
  4  6  2  0
  6  7  1  0
  6  8  1  0
  8  9  1  0
  9 10  2  0
 10 11  1  0
 11 12  1  0
 12 13  2  3
 13 14  1  0
 14 15  2  0
 14 16  1  0
 16 17  1  0
 17 18  2  0
 18 19  1  0
 19 20  2  0
 20 21  1  0
 21 22  2  0
 16 23  1  0
 23 24  2  0
 23 25  1  0
 25 26  1  0
 12 27  1  0
 27 28  1  0
 28 29  1  0
 27 30  1  0
 30 31  2  0
  9  3  1  0
 30 10  1  0
 25 13  1  0
 22 17  1  0
M  END
>  <Compound_ID>  (133) 
C33342817

>  <Active>  (133) 
0.0

>  <Smiles>  (133) 
CCN1C(C)=C(C)S/C1=c1\sc(=C2C(=O)N(c3ccccc3)C(=S)N2C)n(CC)c1=O

>  <canonical_smi>  (133) 
CCN1C(C)=C(C)S/C1=c1\sc(=C2C(=O)N(c3ccccc3)C(=S)N2C)n(CC)c1=O

>  <Set>  (133) 
G2 inactive

>  <Set_type>  (133) 
Train

>  <MW>  (133) 
472.66

>  <HBD>  (133) 
0

>  <HBA>  (133) 
6

>  <NRB>  (133) 
3

>  <NR>  (133) 
4

>  <NAR>  (133) 
2

>  <PSA>  (133) 
48.79

>  <Standard Type>  (133) 
nan

>  <Standard Relation>  (133) 
nan

>  <Standard Units>  (133) 
nan

>  <Standard Value>  (133) 
nan

>  <Assay ChEMBL ID>  (133) 
nan

>  <Assay Description>  (133) 
nan

>  <BAO Label>  (133) 
nan

$$$$

     RDKit          2D

 30 34  0  0  0  0  0  0  0  0999 V2000
    5.9262   -5.9767    0.0000 O   0  0  0  0  0  0  0  0  0  0  0  0
    5.4627   -4.5501    0.0000 C   0  0  0  0  0  0  0  0  0  0  0  0
    3.9955   -4.2382    0.0000 N   0  0  0  0  0  0  0  0  0  0  0  0
    2.9918   -5.3529    0.0000 C   0  0  0  0  0  0  0  0  0  0  0  0
    3.3037   -6.8202    0.0000 S   0  0  0  0  0  0  0  0  0  0  0  0
    2.0046   -7.5702    0.0000 C   0  0  0  0  0  0  0  0  0  0  0  0
    1.3945   -8.9405    0.0000 C   0  0  0  0  0  0  0  0  0  0  0  0
   -0.0973   -8.7837    0.0000 S   0  0  0  0  0  0  0  0  0  0  0  0
   -0.0973  -10.2837    0.0000 O   0  0  0  0  0  0  0  0  0  0  0  0
   -1.5891   -8.9405    0.0000 O   0  0  0  0  0  0  0  0  0  0  0  0
   -0.4091   -7.3165    0.0000 C   0  0  0  0  0  0  0  0  0  0  0  0
    0.8899   -6.5665    0.0000 C   0  0  0  0  0  0  0  0  0  0  0  0
    1.5000   -5.1962    0.0000 N   0  0  0  0  0  0  0  0  0  0  0  0
    0.7500   -3.8971    0.0000 C   0  0  0  0  0  0  0  0  0  0  0  0
   -0.7500   -3.8971    0.0000 C   0  0  0  0  0  0  0  0  0  0  0  0
   -1.5000   -2.5981    0.0000 C   0  0  0  0  0  0  0  0  0  0  0  0
   -0.7500   -1.2990    0.0000 C   0  0  0  0  0  0  0  0  0  0  0  0
    0.7500   -1.2990    0.0000 C   0  0  0  0  0  0  0  0  0  0  0  0
    1.5000   -2.5981    0.0000 C   0  0  0  0  0  0  0  0  0  0  0  0
    1.5000    0.0000    0.0000 O   0  0  0  0  0  0  0  0  0  0  0  0
    0.7500    1.2990    0.0000 C   0  0  0  0  0  0  0  0  0  0  0  0
   -0.7500    1.2990    0.0000 C   0  0  0  0  0  0  0  0  0  0  0  0
   -1.5000    0.0000    0.0000 O   0  0  0  0  0  0  0  0  0  0  0  0
    6.4664   -3.4354    0.0000 C   0  0  0  0  0  0  0  0  0  0  0  0
    7.9336   -3.7472    0.0000 C   0  0  0  0  0  0  0  0  0  0  0  0
    8.9373   -2.6325    0.0000 C   0  0  0  0  0  0  0  0  0  0  0  0
    8.4738   -1.2059    0.0000 C   0  0  0  0  0  0  0  0  0  0  0  0
    9.4775   -0.0912    0.0000 Cl  0  0  0  0  0  0  0  0  0  0  0  0
    7.0066   -0.8941    0.0000 C   0  0  0  0  0  0  0  0  0  0  0  0
    6.0029   -2.0088    0.0000 C   0  0  0  0  0  0  0  0  0  0  0  0
  1  2  2  0
  2  3  1  0
  3  4  2  0
  4  5  1  0
  5  6  1  0
  6  7  1  1
  7  8  1  0
  8  9  2  0
  8 10  2  0
  8 11  1  0
 12 11  1  1
 12 13  1  0
 13 14  1  0
 14 15  2  0
 15 16  1  0
 16 17  2  0
 17 18  1  0
 18 19  2  0
 18 20  1  0
 20 21  1  0
 21 22  1  0
 22 23  1  0
  2 24  1  0
 24 25  2  0
 25 26  1  0
 26 27  2  0
 27 28  1  0
 27 29  1  0
 29 30  2  0
 13  4  1  0
 19 14  1  0
 30 24  1  0
 12  6  1  0
 23 17  1  0
M  END
>  <Compound_ID>  (134) 
C09420065

>  <Active>  (134) 
0.0

>  <Smiles>  (134) 
O=C(/N=C1\S[C@H]2CS(=O)(=O)C[C@H]2N1c1ccc2c(c1)OCCO2)c1ccc(Cl)cc1

>  <canonical_smi>  (134) 
O=C(/N=C1\S[C@H]2CS(=O)(=O)C[C@H]2N1c1ccc2c(c1)OCCO2)c1ccc(Cl)cc1

>  <Set>  (134) 
G2 inactive

>  <Set_type>  (134) 
Train

>  <MW>  (134) 
464.95

>  <HBD>  (134) 
0

>  <HBA>  (134) 
7

>  <NRB>  (134) 
2

>  <NR>  (134) 
5

>  <NAR>  (134) 
2

>  <PSA>  (134) 
85.27

>  <Standard Type>  (134) 
nan

>  <Standard Relation>  (134) 
nan

>  <Standard Units>  (134) 
nan

>  <Standard Value>  (134) 
nan

>  <Assay ChEMBL ID>  (134) 
nan

>  <Assay Description>  (134) 
nan

>  <BAO Label>  (134) 
nan

$$$$

     RDKit          2D

 31 35  0  0  0  0  0  0  0  0999 V2000
    5.0319   -5.9138    0.0000 O   0  0  0  0  0  0  0  0  0  0  0  0
    3.7925   -5.0688    0.0000 C   0  0  0  0  0  0  0  0  0  0  0  0
    4.0161   -3.5856    0.0000 C   0  0  0  0  0  0  0  0  0  0  0  0
    2.9958   -2.4860    0.0000 C   0  0  0  0  0  0  0  0  0  0  0  0
    1.5000   -2.5981    0.0000 C   0  0  0  0  0  0  0  0  0  0  0  0
    0.7500   -1.2990    0.0000 N   0  0  0  0  0  4  0  0  0  0  0  0
    1.5000    0.0000    0.0000 C   0  0  0  0  0  0  0  0  0  0  0  0
    0.7500    1.2990    0.0000 C   0  0  0  0  0  0  0  0  0  0  0  0
   -0.7500    1.2990    0.0000 C   0  0  0  0  0  0  0  0  0  0  0  0
   -1.5000    0.0000    0.0000 C   0  0  0  0  0  0  0  0  0  0  0  0
   -0.7500   -1.2990    0.0000 C   0  0  0  0  0  0  0  0  0  0  0  0
   -2.2500    1.2990    0.0000 C   0  0  0  0  0  0  0  0  0  0  0  0
   -3.7500    1.2990    0.0000 C   0  0  0  0  0  0  0  0  0  0  0  0
   -4.5000    2.5981    0.0000 C   0  0  0  0  0  0  0  0  0  0  0  0
   -3.7500    3.8971    0.0000 C   0  0  0  0  0  0  0  0  0  0  0  0
   -2.2500    3.8971    0.0000 C   0  0  0  0  0  0  0  0  0  0  0  0
   -1.5000    5.1962    0.0000 O   0  0  0  0  0  0  0  0  0  0  0  0
   -1.5000    2.5981    0.0000 N   0  0  0  0  0  0  0  0  0  0  0  0
   -0.0000    2.5981    0.0000 C   0  0  0  0  0  0  0  0  0  0  0  0
    0.6550   -3.8374    0.0000 C   0  0  0  0  0  0  0  0  0  0  0  0
    1.0972   -5.2708    0.0000 C   0  0  0  0  0  0  0  0  0  0  0  0
    2.4935   -5.8188    0.0000 N   0  0  0  0  0  0  0  0  0  0  0  0
    2.6056   -7.3146    0.0000 C   0  0  0  0  0  0  0  0  0  0  0  0
    1.3662   -8.1596    0.0000 C   0  0  0  0  0  0  0  0  0  0  0  0
    0.0147   -7.5088    0.0000 C   0  0  0  0  0  0  0  0  0  0  0  0
   -1.2246   -8.3537    0.0000 C   0  0  0  0  0  0  0  0  0  0  0  0
   -1.1125   -9.8496    0.0000 C   0  0  0  0  0  0  0  0  0  0  0  0
   -2.3519  -10.6945    0.0000 F   0  0  0  0  0  0  0  0  0  0  0  0
    0.2389  -10.5004    0.0000 C   0  0  0  0  0  0  0  0  0  0  0  0
    0.3510  -11.9962    0.0000 F   0  0  0  0  0  0  0  0  0  0  0  0
    1.4783   -9.6554    0.0000 C   0  0  0  0  0  0  0  0  0  0  0  0
  1  2  2  0
  2  3  1  0
  3  4  1  0
  4  5  1  0
  5  6  1  1
  6  7  1  0
  8  7  1  1
  8  9  1  0
  9 10  1  0
 10 11  1  1
 10 12  1  0
 12 13  2  0
 13 14  1  0
 14 15  2  0
 15 16  1  0
 16 17  2  0
 16 18  1  0
 18 19  1  0
  5 20  1  0
 20 21  1  0
 21 22  1  0
 22 23  1  0
 23 24  1  0
 24 25  2  0
 25 26  1  0
 26 27  2  0
 27 28  1  0
 27 29  1  0
 29 30  1  0
 29 31  2  0
 22  2  1  0
 31 24  1  0
 11  6  1  0
 18 12  1  0
 19  8  1  0
M  CHG  1   6   1
M  END
>  <Compound_ID>  (135) 
C15002964

>  <Active>  (135) 
0.0

>  <Smiles>  (135) 
O=C1CC[C@H]([NH+]2C[C@H]3C[C@@H](C2)c2cccc(=O)n2C3)CCN1Cc1ccc(F)c(F)c1

>  <canonical_smi>  (135) 
O=C1CC[C@H]([NH+]2C[C@@H]3C[C@@H](Cn4c3cccc4=O)C2)CCN1Cc1ccc(F)c(F)c1

>  <Set>  (135) 
G2 inactive

>  <Set_type>  (135) 
Train

>  <MW>  (135) 
428.5

>  <HBD>  (135) 
1

>  <HBA>  (135) 
2

>  <NRB>  (135) 
3

>  <NR>  (135) 
5

>  <NAR>  (135) 
2

>  <PSA>  (135) 
46.75

>  <Standard Type>  (135) 
nan

>  <Standard Relation>  (135) 
nan

>  <Standard Units>  (135) 
nan

>  <Standard Value>  (135) 
nan

>  <Assay ChEMBL ID>  (135) 
nan

>  <Assay Description>  (135) 
nan

>  <BAO Label>  (135) 
nan

$$$$

     RDKit          2D

 26 28  0  0  0  0  0  0  0  0999 V2000
    5.7723   -4.0946    0.0000 C   0  0  0  0  0  0  0  0  0  0  0  0
    4.5823   -5.0077    0.0000 C   0  0  0  0  0  0  0  0  0  0  0  0
    4.7781   -6.4949    0.0000 C   0  0  0  0  0  0  0  0  0  0  0  0
    3.1965   -4.4337    0.0000 S   0  0  0  0  0  0  0  0  0  0  0  0
    3.7705   -3.0479    0.0000 O   0  0  0  0  0  0  0  0  0  0  0  0
    2.6225   -5.8195    0.0000 O   0  0  0  0  0  0  0  0  0  0  0  0
    1.8107   -3.8597    0.0000 C   0  0  0  0  0  0  0  0  0  0  0  0
    1.8107   -2.3597    0.0000 N   0  0  0  0  0  0  0  0  0  0  0  0
    0.7500   -1.2990    0.0000 C   0  0  0  0  0  0  0  0  0  0  0  0
    1.5000    0.0000    0.0000 C   0  0  0  0  0  0  0  0  0  0  0  0
    3.0000    0.0000    0.0000 Cl  0  0  0  0  0  0  0  0  0  0  0  0
    0.7500    1.2990    0.0000 N   0  0  0  0  0  0  0  0  0  0  0  0
   -0.7500    1.2990    0.0000 C   0  0  0  0  0  0  0  0  0  0  0  0
   -1.5000    0.0000    0.0000 N   0  0  0  0  0  0  0  0  0  0  0  0
   -0.7500   -1.2990    0.0000 C   0  0  0  0  0  0  0  0  0  0  0  0
   -1.8107   -2.3597    0.0000 N   0  0  0  0  0  0  0  0  0  0  0  0
   -3.1965   -1.7857    0.0000 C   0  0  0  0  0  0  0  0  0  0  0  0
   -1.8107   -3.8597    0.0000 C   0  0  0  0  0  0  0  0  0  0  0  0
   -3.2595   -4.2479    0.0000 C   0  0  0  0  0  0  0  0  0  0  0  0
   -4.3202   -3.1873    0.0000 F   0  0  0  0  0  0  0  0  0  0  0  0
   -3.6478   -5.6968    0.0000 C   0  0  0  0  0  0  0  0  0  0  0  0
   -2.5871   -6.7575    0.0000 C   0  0  0  0  0  0  0  0  0  0  0  0
   -2.9753   -8.2064    0.0000 I   0  0  0  0  0  0  0  0  0  0  0  0
   -1.1382   -6.3692    0.0000 C   0  0  0  0  0  0  0  0  0  0  0  0
   -0.7500   -4.9204    0.0000 C   0  0  0  0  0  0  0  0  0  0  0  0
    0.7500   -4.9204    0.0000 C   0  0  0  0  0  0  0  0  0  0  0  0
  1  2  1  0
  2  3  1  0
  2  4  1  0
  4  5  2  0
  4  6  2  0
  4  7  1  0
  7  8  2  0
  8  9  1  0
  9 10  2  0
 10 11  1  0
 10 12  1  0
 12 13  2  0
 13 14  1  0
 14 15  2  0
 15 16  1  0
 16 17  1  0
 16 18  1  0
 18 19  2  0
 19 20  1  0
 19 21  1  0
 21 22  2  0
 22 23  1  0
 22 24  1  0
 24 25  2  0
 25 26  1  0
 26  7  1  0
 15  9  1  0
 25 18  1  0
M  END
>  <Compound_ID>  (136) 
C39480363

>  <Active>  (136) 
0.0

>  <Smiles>  (136) 
CC(C)S(=O)(=O)/C1=N/c2c(Cl)ncnc2N(C)c2c(F)cc(I)cc2C1

>  <canonical_smi>  (136) 
CC(C)S(=O)(=O)/C1=N/c2c(Cl)ncnc2N(C)c2c(F)cc(I)cc2C1

>  <Set>  (136) 
G2 inactive

>  <Set_type>  (136) 
Train

>  <MW>  (136) 
508.74

>  <HBD>  (136) 
0

>  <HBA>  (136) 
5

>  <NRB>  (136) 
1

>  <NR>  (136) 
3

>  <NAR>  (136) 
2

>  <PSA>  (136) 
75.52

>  <Standard Type>  (136) 
nan

>  <Standard Relation>  (136) 
nan

>  <Standard Units>  (136) 
nan

>  <Standard Value>  (136) 
nan

>  <Assay ChEMBL ID>  (136) 
nan

>  <Assay Description>  (136) 
nan

>  <BAO Label>  (136) 
nan

$$$$

     RDKit          2D

 34 39  0  0  0  0  0  0  0  0999 V2000
   -5.2703   -9.5411    0.0000 C   0  0  0  0  0  0  0  0  0  0  0  0
   -5.4271   -8.0493    0.0000 C   0  0  0  0  0  0  0  0  0  0  0  0
   -6.8943   -8.3612    0.0000 C   0  0  0  0  0  0  0  0  0  0  0  0
   -3.9271   -8.0493    0.0000 O   0  0  0  0  0  0  0  0  0  0  0  0
   -3.4635   -6.6227    0.0000 C   0  0  0  0  0  0  0  0  0  0  0  0
   -2.2500   -7.5044    0.0000 C   0  0  0  0  0  0  0  0  0  0  0  0
   -1.0365   -6.6227    0.0000 C   0  0  0  0  0  0  0  0  0  0  0  0
   -1.5000   -5.1962    0.0000 C   0  0  0  0  0  0  0  0  0  0  0  0
   -0.7500   -3.8971    0.0000 C   0  0  0  0  0  0  0  0  0  0  0  0
    0.7500   -3.8971    0.0000 C   0  0  0  0  0  0  0  0  0  0  0  0
    1.5000   -2.5981    0.0000 C   0  0  0  0  0  0  0  0  0  0  0  0
    0.7500   -1.2990    0.0000 C   0  0  0  0  0  0  0  0  0  0  0  0
    1.5000    0.0000    0.0000 C   0  0  0  0  0  0  0  0  0  0  0  0
    0.7500    1.2990    0.0000 C   0  0  0  0  0  0  0  0  0  0  0  0
   -0.7500    1.2990    0.0000 C   0  0  0  0  0  0  0  0  0  0  0  0
   -1.5000    0.0000    0.0000 C   0  0  0  0  0  0  0  0  0  0  0  0
   -0.7500   -1.2990    0.0000 C   0  0  0  0  0  0  0  0  0  0  0  0
   -2.2500   -1.2990    0.0000 C   0  0  0  0  0  0  0  0  0  0  0  0
   -1.5000   -2.5981    0.0000 C   0  0  0  0  0  0  0  0  0  0  0  0
   -3.0000   -2.5981    0.0000 C   0  0  0  0  0  0  0  0  0  0  0  0
   -3.7500   -3.8971    0.0000 C   0  0  0  0  0  0  0  0  0  0  0  0
   -3.0000   -5.1962    0.0000 C   0  0  0  0  0  0  0  0  0  0  0  0
   -1.8853   -6.1998    0.0000 C   0  0  0  0  0  0  0  0  0  0  0  0
   -4.6771   -5.7411    0.0000 C   0  0  0  0  0  0  0  0  0  0  0  0
   -5.8906   -6.6227    0.0000 N   0  0  0  0  0  0  0  0  0  0  0  0
   -7.3172   -6.1592    0.0000 C   0  0  0  0  0  0  0  0  0  0  0  0
   -8.4319   -7.1629    0.0000 O   0  0  0  0  0  0  0  0  0  0  0  0
   -7.6290   -4.6920    0.0000 C   0  0  0  0  0  0  0  0  0  0  0  0
   -9.0556   -4.2285    0.0000 S   0  0  0  0  0  0  0  0  0  0  0  0
   -9.3675   -2.7612    0.0000 C   0  0  0  0  0  0  0  0  0  0  0  0
  -10.7378   -2.1511    0.0000 N   0  0  0  0  0  4  0  0  0  0  0  0
  -10.5810   -0.6594    0.0000 C   0  0  0  0  0  0  0  0  0  0  0  0
   -9.1138   -0.3475    0.0000 C   0  0  0  0  0  0  0  0  0  0  0  0
   -8.3638   -1.6465    0.0000 N   0  0  0  0  0  0  0  0  0  0  0  0
  1  2  1  0
  2  3  1  0
  2  4  1  0
  4  5  1  0
  5  6  1  1
  6  7  1  0
  8  7  1  1
  8  9  1  0
  9 10  1  1
 10 11  1  0
 12 11  1  6
 12 13  1  0
 13 14  1  0
 14 15  1  0
 15 16  1  0
 16 17  1  0
 17 18  1  6
 17 19  1  0
 19 20  1  1
 20 21  1  0
 21 22  1  0
 22 23  1  6
  5 24  1  0
 24 25  1  0
 25 26  1  0
 26 27  2  0
 26 28  1  0
 28 29  1  0
 29 30  1  0
 30 31  2  0
 31 32  1  0
 32 33  1  0
 33 34  1  0
 25  2  1  0
 34 30  1  0
 22  5  1  0
 22  8  1  0
 19  9  1  0
 17 12  1  0
M  CHG  1  31   1
M  END
>  <Compound_ID>  (137) 
C13362213

>  <Active>  (137) 
0.0

>  <Smiles>  (137) 
CC1(C)O[C@]2(CC[C@@H]3[C@@H]4CC[C@H]5CCCC[C@]5(C)[C@@H]4CC[C@@]32C)CN1C(=O)CSC1=[NH+]CCN1

>  <canonical_smi>  (137) 
CC1(C)O[C@]2(CC[C@@H]3[C@@H]4CC[C@H]5CCCC[C@]5(C)[C@@H]4CC[C@@]32C)CN1C(=O)CSC1=[NH+]CCN1

>  <Set>  (137) 
G2 inactive

>  <Set_type>  (137) 
Train

>  <MW>  (137) 
488.76

>  <HBD>  (137) 
2

>  <HBA>  (137) 
4

>  <NRB>  (137) 
2

>  <NR>  (137) 
6

>  <NAR>  (137) 
0

>  <PSA>  (137) 
55.54

>  <Standard Type>  (137) 
nan

>  <Standard Relation>  (137) 
nan

>  <Standard Units>  (137) 
nan

>  <Standard Value>  (137) 
nan

>  <Assay ChEMBL ID>  (137) 
nan

>  <Assay Description>  (137) 
nan

>  <BAO Label>  (137) 
nan

$$$$

     RDKit          2D

 26 29  0  0  0  0  0  0  0  0999 V2000
    7.0633    3.9826    0.0000 C   0  0  0  0  0  0  0  0  0  0  0  0
    6.0430    2.8830    0.0000 C   0  0  0  0  0  0  0  0  0  0  0  0
    6.4852    1.4497    0.0000 Br  0  0  0  0  0  0  0  0  0  0  0  0
    4.5807    3.2168    0.0000 C   0  0  0  0  0  0  0  0  0  0  0  0
    3.5604    2.1172    0.0000 S   0  0  0  0  0  0  0  0  0  0  0  0
    2.0980    2.4510    0.0000 C   0  0  0  0  0  0  0  0  0  0  0  0
    1.6559    3.8844    0.0000 N   0  0  0  0  0  0  0  0  0  0  0  0
    0.1935    4.2182    0.0000 C   0  0  0  0  0  0  0  0  0  0  0  0
   -0.5370    5.5283    0.0000 N   0  0  0  0  0  0  0  0  0  0  0  0
   -2.0087    5.2384    0.0000 N   0  0  0  0  0  0  0  0  0  0  0  0
   -3.1083    6.2587    0.0000 C   0  0  0  0  0  0  0  0  0  0  0  0
   -2.7745    7.7211    0.0000 C   0  0  0  0  0  0  0  0  0  0  0  0
   -3.8741    8.7413    0.0000 C   0  0  0  0  0  0  0  0  0  0  0  0
   -5.3075    8.2992    0.0000 C   0  0  0  0  0  0  0  0  0  0  0  0
   -5.6412    6.8368    0.0000 C   0  0  0  0  0  0  0  0  0  0  0  0
   -4.5417    5.8165    0.0000 C   0  0  0  0  0  0  0  0  0  0  0  0
   -2.1878    3.7491    0.0000 C   0  0  0  0  0  0  0  0  0  0  0  0
   -3.4979    3.0186    0.0000 O   0  0  0  0  0  0  0  0  0  0  0  0
   -0.8268    3.1186    0.0000 C   0  0  0  0  0  0  0  0  0  0  0  0
   -0.3846    1.6852    0.0000 C   0  0  0  0  0  0  0  0  0  0  0  0
    1.0777    1.3515    0.0000 N   0  0  0  0  0  4  0  0  0  0  0  0
    1.7286    0.0000    0.0000 C   0  0  0  0  0  0  0  0  0  0  0  0
    1.0777   -1.3515    0.0000 C   0  0  0  0  0  0  0  0  0  0  0  0
   -0.3846   -1.6852    0.0000 C   0  0  0  0  0  0  0  0  0  0  0  0
   -1.5574   -0.7500    0.0000 C   0  0  0  0  0  0  0  0  0  0  0  0
   -1.5574    0.7500    0.0000 C   0  0  0  0  0  0  0  0  0  0  0  0
  1  2  2  0
  2  3  1  0
  2  4  1  0
  4  5  1  0
  5  6  1  0
  6  7  2  0
  7  8  1  0
  8  9  2  0
  9 10  1  0
 10 11  1  0
 11 12  2  0
 12 13  1  0
 13 14  2  0
 14 15  1  0
 15 16  2  0
 10 17  1  0
 17 18  1  0
 17 19  2  0
 19 20  1  0
 20 21  2  0
 21 22  1  0
 22 23  1  0
 23 24  1  0
 24 25  1  0
 25 26  1  0
 21  6  1  0
 19  8  1  0
 26 20  1  0
 16 11  1  0
M  CHG  1  21   1
M  END
>  <Compound_ID>  (138) 
C59928045

>  <Active>  (138) 
0.0

>  <Smiles>  (138) 
C=C(Br)CSc1nc2nn(-c3ccccc3)c(O)c2c2[n+]1CCCCC2

>  <canonical_smi>  (138) 
C=C(Br)CSc1nc2nn(-c3ccccc3)c(O)c2c2[n+]1CCCCC2

>  <Set>  (138) 
G2 inactive

>  <Set_type>  (138) 
Train

>  <MW>  (138) 
432.37

>  <HBD>  (138) 
1

>  <HBA>  (138) 
4

>  <NRB>  (138) 
4

>  <NR>  (138) 
4

>  <NAR>  (138) 
3

>  <PSA>  (138) 
54.82

>  <Standard Type>  (138) 
nan

>  <Standard Relation>  (138) 
nan

>  <Standard Units>  (138) 
nan

>  <Standard Value>  (138) 
nan

>  <Assay ChEMBL ID>  (138) 
nan

>  <Assay Description>  (138) 
nan

>  <BAO Label>  (138) 
nan

$$$$

     RDKit          2D

 28 32  0  0  0  0  0  0  0  0999 V2000
    9.1873   -3.9064    0.0000 C   0  0  0  0  0  0  0  0  0  0  0  0
    8.3056   -5.1199    0.0000 C   0  0  0  0  0  0  0  0  0  0  0  0
    6.8056   -5.1199    0.0000 C   0  0  0  0  0  0  0  0  0  0  0  0
    6.3421   -6.5465    0.0000 C   0  0  0  0  0  0  0  0  0  0  0  0
    7.5556   -7.4282    0.0000 N   0  0  0  0  0  0  0  0  0  0  0  0
    8.7691   -6.5465    0.0000 N   0  0  0  0  0  0  0  0  0  0  0  0
    4.8421   -6.5465    0.0000 C   0  0  0  0  0  0  0  0  0  0  0  0
    3.9604   -7.7600    0.0000 O   0  0  0  0  0  0  0  0  0  0  0  0
    4.3786   -5.1199    0.0000 N   0  0  0  0  0  0  0  0  0  0  0  0
    2.9520   -4.6564    0.0000 C   0  0  0  0  0  0  0  0  0  0  0  0
    2.6401   -3.1891    0.0000 C   0  0  0  0  0  0  0  0  0  0  0  0
    1.2135   -2.7256    0.0000 C   0  0  0  0  0  0  0  0  0  0  0  0
    0.7500   -1.2990    0.0000 C   0  0  0  0  0  0  0  0  0  0  0  0
    1.5000    0.0000    0.0000 C   0  0  0  0  0  0  0  0  0  0  0  0
    0.7500    1.2990    0.0000 C   0  0  0  0  0  0  0  0  0  0  0  0
   -0.7500    1.2990    0.0000 C   0  0  0  0  0  0  0  0  0  0  0  0
   -1.5000    0.0000    0.0000 C   0  0  0  0  0  0  0  0  0  0  0  0
   -0.7500   -1.2990    0.0000 C   0  0  0  0  0  0  0  0  0  0  0  0
   -1.2135   -2.7256    0.0000 N   0  0  0  0  0  4  0  0  0  0  0  0
    0.0000   -3.6073    0.0000 C   0  0  0  0  0  0  0  0  0  0  0  0
    5.5921   -4.2382    0.0000 C   0  0  0  0  0  0  0  0  0  0  0  0
    5.5921   -2.7382    0.0000 C   0  0  0  0  0  0  0  0  0  0  0  0
    6.8911   -1.9882    0.0000 C   0  0  0  0  0  0  0  0  0  0  0  0
    6.8911   -0.4882    0.0000 C   0  0  0  0  0  0  0  0  0  0  0  0
    5.5921    0.2618    0.0000 C   0  0  0  0  0  0  0  0  0  0  0  0
    4.2930   -0.4882    0.0000 C   0  0  0  0  0  0  0  0  0  0  0  0
    2.9940    0.2618    0.0000 Br  0  0  0  0  0  0  0  0  0  0  0  0
    4.2930   -1.9882    0.0000 C   0  0  0  0  0  0  0  0  0  0  0  0
  1  2  1  0
  2  3  2  0
  3  4  1  0
  4  5  1  6
  5  6  2  0
  4  7  1  0
  7  8  2  0
  7  9  1  0
  9 10  1  0
 10 11  1  0
 11 12  1  0
 12 13  2  0
 13 14  1  0
 14 15  2  0
 15 16  1  0
 16 17  2  0
 17 18  1  0
 18 19  2  0
 19 20  1  0
  9 21  1  0
 21 22  1  6
 22 23  2  0
 23 24  1  0
 24 25  2  0
 25 26  1  0
 26 27  1  0
 26 28  2  0
  6  2  1  0
 20 12  1  0
 28 22  1  0
 21  3  1  0
 18 13  1  0
M  CHG  1  19   1
M  END
>  <Compound_ID>  (139) 
C63560393

>  <Active>  (139) 
0.0

>  <Smiles>  (139) 
CC1=C2[C@H](N=N1)C(=O)N(CCC1=c3ccccc3=[NH+]C1)[C@@H]2c1cccc(Br)c1

>  <canonical_smi>  (139) 
CC1=C2[C@H](N=N1)C(=O)N(CCC1=c3ccccc3=[NH+]C1)[C@@H]2c1cccc(Br)c1

>  <Set>  (139) 
G2 inactive

>  <Set_type>  (139) 
Train

>  <MW>  (139) 
436.33

>  <HBD>  (139) 
1

>  <HBA>  (139) 
1

>  <NRB>  (139) 
4

>  <NR>  (139) 
5

>  <NAR>  (139) 
2

>  <PSA>  (139) 
59.0

>  <Standard Type>  (139) 
nan

>  <Standard Relation>  (139) 
nan

>  <Standard Units>  (139) 
nan

>  <Standard Value>  (139) 
nan

>  <Assay ChEMBL ID>  (139) 
nan

>  <Assay Description>  (139) 
nan

>  <BAO Label>  (139) 
nan

$$$$

     RDKit          2D

 31 36  0  0  0  0  0  0  0  0999 V2000
   -8.0325    5.3050    0.0000 Cl  0  0  0  0  0  0  0  0  0  0  0  0
   -6.9177    4.3013    0.0000 C   0  0  0  0  0  0  0  0  0  0  0  0
   -7.2296    2.8340    0.0000 C   0  0  0  0  0  0  0  0  0  0  0  0
   -6.1149    1.8303    0.0000 C   0  0  0  0  0  0  0  0  0  0  0  0
   -4.6883    2.2939    0.0000 C   0  0  0  0  0  0  0  0  0  0  0  0
   -4.3764    3.7611    0.0000 C   0  0  0  0  0  0  0  0  0  0  0  0
   -2.9499    4.2246    0.0000 C   0  0  0  0  0  0  0  0  0  0  0  0
   -2.6380    5.6918    0.0000 O   0  0  0  0  0  0  0  0  0  0  0  0
   -1.2114    6.1554    0.0000 C   0  0  0  0  0  0  0  0  0  0  0  0
   -0.8995    7.6226    0.0000 C   0  0  0  0  0  0  0  0  0  0  0  0
    0.5271    8.0861    0.0000 C   0  0  0  0  0  0  0  0  0  0  0  0
    1.6418    7.0824    0.0000 C   0  0  0  0  0  0  0  0  0  0  0  0
    3.0684    7.5459    0.0000 Cl  0  0  0  0  0  0  0  0  0  0  0  0
    1.3299    5.6152    0.0000 C   0  0  0  0  0  0  0  0  0  0  0  0
   -0.0967    5.1517    0.0000 C   0  0  0  0  0  0  0  0  0  0  0  0
   -0.4086    3.6844    0.0000 C   0  0  0  0  0  0  0  0  0  0  0  0
    0.7062    2.6807    0.0000 N   0  0  0  0  0  0  0  0  0  0  0  0
    0.3943    1.2135    0.0000 C   0  0  0  0  0  0  0  0  0  0  0  0
    1.2760    0.0000    0.0000 N   0  0  0  0  0  0  0  0  0  0  0  0
    0.3943   -1.2135    0.0000 C   0  0  0  0  0  0  0  0  0  0  0  0
   -1.0323   -0.7500    0.0000 N   0  0  0  0  0  0  0  0  0  0  0  0
   -1.0323    0.7500    0.0000 N   0  0  0  0  0  0  0  0  0  0  0  0
   -2.1470    1.7537    0.0000 C   0  0  0  0  0  0  0  0  0  0  0  0
   -3.5736    1.2902    0.0000 C   0  0  0  0  0  0  0  0  0  0  0  0
   -4.6883    2.2939    0.0000 C   0  0  0  0  0  0  0  0  0  0  0  0
   -6.1149    1.8303    0.0000 C   0  0  0  0  0  0  0  0  0  0  0  0
   -6.4268    0.3631    0.0000 C   0  0  0  0  0  0  0  0  0  0  0  0
   -5.3120   -0.6406    0.0000 N   0  0  0  0  0  0  0  0  0  0  0  0
   -3.8855   -0.1771    0.0000 C   0  0  0  0  0  0  0  0  0  0  0  0
   -1.8351    3.2209    0.0000 C   0  0  0  0  0  0  0  0  0  0  0  0
   -5.4912    4.7648    0.0000 C   0  0  0  0  0  0  0  0  0  0  0  0
  1  2  1  0
  2  3  2  0
  3  4  1  0
  4  5  2  0
  5  6  1  0
  7  6  1  1
  7  8  1  0
  8  9  1  0
  9 10  2  0
 10 11  1  0
 11 12  2  0
 12 13  1  0
 12 14  1  0
 14 15  2  0
 15 16  1  0
 16 17  2  0
 17 18  1  0
 18 19  2  0
 19 20  1  0
 20 21  2  0
 21 22  1  0
 22 23  1  0
 23 24  1  6
 24 25  2  0
 25 26  1  0
 26 27  2  0
 27 28  1  0
 28 29  2  0
 23 30  1  0
  6 31  2  0
 31  2  1  0
 30  7  1  0
 15  9  1  0
 30 16  1  1
 22 18  1  0
 29 24  1  0
M  END
>  <Compound_ID>  (140) 
C50617178

>  <Active>  (140) 
0.0

>  <Smiles>  (140) 
Clc1cccc([C@H]2Oc3ccc(Cl)cc3C3=Nc4ncnn4[C@H](c4cccnc4)[C@H]32)c1

>  <canonical_smi>  (140) 
Clc1cccc([C@H]2Oc3ccc(Cl)cc3C3=Nc4ncnn4[C@H](c4cccnc4)[C@H]32)c1

>  <Set>  (140) 
G2 inactive

>  <Set_type>  (140) 
Train

>  <MW>  (140) 
448.31

>  <HBD>  (140) 
0

>  <HBA>  (140) 
4

>  <NRB>  (140) 
2

>  <NR>  (140) 
6

>  <NAR>  (140) 
4

>  <PSA>  (140) 
65.19

>  <Standard Type>  (140) 
nan

>  <Standard Relation>  (140) 
nan

>  <Standard Units>  (140) 
nan

>  <Standard Value>  (140) 
nan

>  <Assay ChEMBL ID>  (140) 
nan

>  <Assay Description>  (140) 
nan

>  <BAO Label>  (140) 
nan

$$$$

     RDKit          2D

 32 36  0  0  0  0  0  0  0  0999 V2000
   -0.8995    7.6226    0.0000 C   0  0  0  0  0  0  0  0  0  0  0  0
   -1.2114    6.1554    0.0000 N   0  0  0  0  0  0  0  0  0  0  0  0
   -0.0967    5.1517    0.0000 C   0  0  0  0  0  0  0  0  0  0  0  0
    1.3299    5.6152    0.0000 O   0  0  0  0  0  0  0  0  0  0  0  0
   -0.4086    3.6844    0.0000 C   0  0  0  0  0  0  0  0  0  0  0  0
    0.7062    2.6807    0.0000 C   0  0  0  0  0  0  0  0  0  0  0  0
    2.1328    3.1443    0.0000 C   0  0  0  0  0  0  0  0  0  0  0  0
    3.2475    2.1406    0.0000 C   0  0  0  0  0  0  0  0  0  0  0  0
    4.6741    2.6041    0.0000 C   0  0  0  0  0  0  0  0  0  0  0  0
    4.9859    4.0713    0.0000 C   0  0  0  0  0  0  0  0  0  0  0  0
    6.4125    4.5348    0.0000 Br  0  0  0  0  0  0  0  0  0  0  0  0
    3.8712    5.0750    0.0000 C   0  0  0  0  0  0  0  0  0  0  0  0
    2.4446    4.6115    0.0000 C   0  0  0  0  0  0  0  0  0  0  0  0
    0.3943    1.2135    0.0000 C   0  0  0  0  0  0  0  0  0  0  0  0
    1.2760    0.0000    0.0000 C   0  0  0  0  0  0  0  0  0  0  0  0
    0.3943   -1.2135    0.0000 C   0  0  0  0  0  0  0  0  0  0  0  0
   -1.0323   -0.7500    0.0000 C   0  0  0  0  0  0  0  0  0  0  0  0
   -2.1470   -1.7537    0.0000 C   0  0  0  0  0  0  0  0  0  0  0  0
   -3.5736   -1.2902    0.0000 O   0  0  0  0  0  0  0  0  0  0  0  0
   -1.8351   -3.2209    0.0000 N   0  0  0  0  0  0  0  0  0  0  0  0
   -2.9499   -4.2246    0.0000 C   0  0  0  0  0  0  0  0  0  0  0  0
   -0.4086   -3.6844    0.0000 C   0  0  0  0  0  0  0  0  0  0  0  0
   -0.0967   -5.1517    0.0000 O   0  0  0  0  0  0  0  0  0  0  0  0
    0.7062   -2.6807    0.0000 N   0  0  0  0  0  0  0  0  0  0  0  0
    2.1328   -3.1443    0.0000 C   0  0  0  0  0  0  0  0  0  0  0  0
   -1.0323    0.7500    0.0000 N   0  0  0  0  0  0  0  0  0  0  0  0
   -2.1470    1.7537    0.0000 C   0  0  0  0  0  0  0  0  0  0  0  0
   -1.8351    3.2209    0.0000 C   0  0  0  0  0  0  0  0  0  0  0  0
   -2.9499    4.2246    0.0000 N   0  0  0  0  0  0  0  0  0  0  0  0
   -4.3764    3.7611    0.0000 C   0  0  0  0  0  0  0  0  0  0  0  0
   -2.6380    5.6918    0.0000 C   0  0  0  0  0  0  0  0  0  0  0  0
   -3.7527    6.6955    0.0000 O   0  0  0  0  0  0  0  0  0  0  0  0
  1  2  1  0
  2  3  1  0
  3  4  2  0
  3  5  1  0
  5  6  2  0
  6  7  1  0
  7  8  2  0
  8  9  1  0
  9 10  2  0
 10 11  1  0
 10 12  1  0
 12 13  2  0
  6 14  1  0
 14 15  2  0
 15 16  1  0
 16 17  2  0
 17 18  1  0
 18 19  2  0
 18 20  1  0
 20 21  1  0
 20 22  1  0
 22 23  2  0
 22 24  1  0
 24 25  1  0
 17 26  1  0
 26 27  1  0
 27 28  2  0
 28 29  1  0
 29 30  1  0
 29 31  1  0
 31 32  2  0
 31  2  1  0
 28  5  1  0
 13  7  1  0
 26 14  1  0
 24 16  1  0
M  END
>  <Compound_ID>  (141) 
C24544134

>  <Active>  (141) 
0.0

>  <Smiles>  (141) 
Cn1c(=O)c2c(-c3ccc(Br)cc3)c3cc4c(c(=O)n(C)c(=O)n4C)n3cc2n(C)c1=O

>  <canonical_smi>  (141) 
Cn1c(=O)c2c(-c3ccc(Br)cc3)c3cc4c(c(=O)n(C)c(=O)n4C)n3cc2n(C)c1=O

>  <Set>  (141) 
G2 inactive

>  <Set_type>  (141) 
Train

>  <MW>  (141) 
496.32

>  <HBD>  (141) 
0

>  <HBA>  (141) 
4

>  <NRB>  (141) 
1

>  <NR>  (141) 
5

>  <NAR>  (141) 
5

>  <PSA>  (141) 
92.41

>  <Standard Type>  (141) 
nan

>  <Standard Relation>  (141) 
nan

>  <Standard Units>  (141) 
nan

>  <Standard Value>  (141) 
nan

>  <Assay ChEMBL ID>  (141) 
nan

>  <Assay Description>  (141) 
nan

>  <BAO Label>  (141) 
nan

$$$$

     RDKit          2D

 25 28  0  0  0  0  0  0  0  0999 V2000
    2.6761    4.9840    0.0000 C   0  0  0  0  0  0  0  0  0  0  0  0
    1.6559    3.8844    0.0000 C   0  0  0  0  0  0  0  0  0  0  0  0
    0.1935    4.2182    0.0000 N   0  0  0  0  0  0  0  0  0  0  0  0
   -0.8268    3.1186    0.0000 C   0  0  0  0  0  0  0  0  0  0  0  0
   -2.2892    3.4524    0.0000 N   0  0  0  0  0  0  0  0  0  0  0  0
   -2.7313    4.8857    0.0000 C   0  0  0  0  0  0  0  0  0  0  0  0
   -4.1937    5.2195    0.0000 C   0  0  0  0  0  0  0  0  0  0  0  0
   -5.3233    4.2326    0.0000 N   0  0  0  0  0  0  0  0  0  0  0  0
   -6.6110    5.0020    0.0000 N   0  0  0  0  0  0  0  0  0  0  0  0
   -6.2772    6.4643    0.0000 C   0  0  0  0  0  0  0  0  0  0  0  0
   -4.7832    6.5988    0.0000 N   0  0  0  0  0  0  0  0  0  0  0  0
   -3.9569    7.8507    0.0000 C   0  0  0  0  0  0  0  0  0  0  0  0
   -4.4204    9.2773    0.0000 C   0  0  0  0  0  0  0  0  0  0  0  0
   -5.8248    9.8043    0.0000 C   0  0  0  0  0  0  0  0  0  0  0  0
   -7.1124    9.0350    0.0000 C   0  0  0  0  0  0  0  0  0  0  0  0
   -7.3138    7.5485    0.0000 C   0  0  0  0  0  0  0  0  0  0  0  0
   -0.3846    1.6852    0.0000 C   0  0  0  0  0  0  0  0  0  0  0  0
    1.0777    1.3515    0.0000 C   0  0  0  0  0  0  0  0  0  0  0  0
    2.0980    2.4510    0.0000 N   0  0  0  0  0  4  0  0  0  0  0  0
    1.7286    0.0000    0.0000 C   0  0  0  0  0  0  0  0  0  0  0  0
    1.0777   -1.3515    0.0000 C   0  0  0  0  0  0  0  0  0  0  0  0
   -0.3846   -1.6852    0.0000 N   0  0  0  0  0  4  0  0  0  0  0  0
   -0.7184   -3.1476    0.0000 C   0  0  0  0  0  0  0  0  0  0  0  0
   -1.5574   -0.7500    0.0000 C   0  0  0  0  0  0  0  0  0  0  0  0
   -1.5574    0.7500    0.0000 C   0  0  0  0  0  0  0  0  0  0  0  0
  1  2  1  0
  2  3  2  0
  3  4  1  0
  4  5  1  0
  5  6  1  0
  6  7  1  0
  7  8  2  0
  8  9  1  0
  9 10  2  0
 10 11  1  0
 11 12  1  0
 12 13  1  0
 13 14  1  0
 14 15  1  0
 15 16  1  0
  4 17  2  0
 17 18  1  0
 18 19  2  0
 18 20  1  0
 20 21  1  0
 21 22  1  0
 22 23  1  0
 22 24  1  0
 24 25  1  0
 19  2  1  0
 11  7  1  0
 25 17  1  0
 16 10  1  0
M  CHG  2  19   1  22   1
M  END
>  <Compound_ID>  (142) 
C65458193

>  <Active>  (142) 
0.0

>  <Smiles>  (142) 
Cc1nc(NCc2nnc3n2CCCCC3)c2c([nH+]1)CC[NH+](C)CC2

>  <canonical_smi>  (142) 
Cc1nc(NCc2nnc3n2CCCCC3)c2c([nH+]1)CC[NH+](C)CC2

>  <Set>  (142) 
G2 inactive

>  <Set_type>  (142) 
Train

>  <MW>  (142) 
343.48

>  <HBD>  (142) 
2

>  <HBA>  (142) 
4

>  <NRB>  (142) 
3

>  <NR>  (142) 
4

>  <NAR>  (142) 
2

>  <PSA>  (142) 
74.21

>  <Standard Type>  (142) 
nan

>  <Standard Relation>  (142) 
nan

>  <Standard Units>  (142) 
nan

>  <Standard Value>  (142) 
nan

>  <Assay ChEMBL ID>  (142) 
nan

>  <Assay Description>  (142) 
nan

>  <BAO Label>  (142) 
nan

$$$$

     RDKit          2D

 26 28  0  0  0  0  0  0  0  0999 V2000
    4.5000    0.0000    0.0000 N   0  0  0  0  0  0  0  0  0  0  0  0
    3.0000    0.0000    0.0000 S   0  0  0  0  0  0  0  0  0  0  0  0
    3.0000   -1.5000    0.0000 O   0  0  0  0  0  0  0  0  0  0  0  0
    3.0000    1.5000    0.0000 O   0  0  0  0  0  0  0  0  0  0  0  0
    1.5000    0.0000    0.0000 C   0  0  0  0  0  0  0  0  0  0  0  0
    0.7500   -1.2990    0.0000 C   0  0  0  0  0  0  0  0  0  0  0  0
   -0.7500   -1.2990    0.0000 C   0  0  0  0  0  0  0  0  0  0  0  0
   -1.5000    0.0000    0.0000 C   0  0  0  0  0  0  0  0  0  0  0  0
   -0.7500    1.2990    0.0000 C   0  0  0  0  0  0  0  0  0  0  0  0
    0.7500    1.2990    0.0000 C   0  0  0  0  0  0  0  0  0  0  0  0
    1.5000    2.5981    0.0000 Cl  0  0  0  0  0  0  0  0  0  0  0  0
   -3.0000    0.0000    0.0000 N   0  0  0  0  0  0  0  0  0  0  0  0
   -3.7500   -1.2990    0.0000 C   0  0  0  0  0  0  0  0  0  0  0  0
   -5.2500   -1.2990    0.0000 C   0  0  0  0  0  0  0  0  0  0  0  0
   -6.0000    0.0000    0.0000 C   0  0  0  0  0  0  0  0  0  0  0  0
   -7.5000    0.0000    0.0000 C   0  0  0  0  0  0  0  0  0  0  0  0
   -8.2500    1.2990    0.0000 Cl  0  0  0  0  0  0  0  0  0  0  0  0
   -8.2500   -1.2990    0.0000 C   0  0  0  0  0  0  0  0  0  0  0  0
   -7.5000   -2.5981    0.0000 C   0  0  0  0  0  0  0  0  0  0  0  0
   -8.2500   -3.8971    0.0000 Cl  0  0  0  0  0  0  0  0  0  0  0  0
   -6.0000   -2.5981    0.0000 C   0  0  0  0  0  0  0  0  0  0  0  0
   -5.2500   -3.8971    0.0000 O   0  0  0  0  0  0  0  0  0  0  0  0
   -3.0000   -2.5981    0.0000 N   0  0  0  0  0  0  0  0  0  0  0  0
   -1.5000   -2.5981    0.0000 S   0  0  0  0  0  0  0  0  0  0  0  0
   -0.0905   -3.1111    0.0000 O   0  0  0  0  0  0  0  0  0  0  0  0
   -1.7605   -4.0753    0.0000 O   0  0  0  0  0  0  0  0  0  0  0  0
  1  2  1  0
  2  3  2  0
  2  4  2  0
  2  5  1  0
  5  6  2  0
  6  7  1  0
  7  8  2  0
  8  9  1  0
  9 10  2  0
 10 11  1  0
  8 12  1  0
 12 13  1  0
 13 14  1  1
 14 15  2  0
 15 16  1  0
 16 17  1  0
 16 18  2  0
 18 19  1  0
 19 20  1  0
 19 21  2  0
 21 22  1  0
 13 23  1  0
 23 24  1  0
 24 25  2  0
 24 26  2  0
 10  5  1  0
 21 14  1  0
 24  7  1  0
M  END
>  <Compound_ID>  (143) 
C59590052

>  <Active>  (143) 
0.0

>  <Smiles>  (143) 
NS(=O)(=O)c1cc2c(cc1Cl)N[C@H](c1cc(Cl)cc(Cl)c1O)NS2(=O)=O

>  <canonical_smi>  (143) 
NS(=O)(=O)c1cc2c(cc1Cl)N[C@H](c1cc(Cl)cc(Cl)c1O)NS2(=O)=O

>  <Set>  (143) 
G2 inactive

>  <Set_type>  (143) 
Train

>  <MW>  (143) 
458.73

>  <HBD>  (143) 
4

>  <HBA>  (143) 
6

>  <NRB>  (143) 
2

>  <NR>  (143) 
3

>  <NAR>  (143) 
2

>  <PSA>  (143) 
138.59

>  <Standard Type>  (143) 
nan

>  <Standard Relation>  (143) 
nan

>  <Standard Units>  (143) 
nan

>  <Standard Value>  (143) 
nan

>  <Assay ChEMBL ID>  (143) 
nan

>  <Assay Description>  (143) 
nan

>  <BAO Label>  (143) 
nan

$$$$

     RDKit          2D

 32 37  0  0  0  0  0  0  0  0999 V2000
    5.0218   -0.9664    0.0000 O   0  0  0  0  0  0  0  0  0  0  0  0
    3.8083   -1.8481    0.0000 C   0  0  0  0  0  0  0  0  0  0  0  0
    2.3817   -1.3846    0.0000 O   0  0  0  0  0  0  0  0  0  0  0  0
    1.5000   -2.5981    0.0000 C   0  0  0  0  0  0  0  0  0  0  0  0
    0.7500   -1.2990    0.0000 C   0  0  0  0  0  0  0  0  0  0  0  0
    1.5000    0.0000    0.0000 C   0  0  0  0  0  0  0  0  0  0  0  0
    0.7500    1.2990    0.0000 C   0  0  0  0  0  0  0  0  0  0  0  0
   -0.7500    1.2990    0.0000 C   0  0  0  0  0  0  0  0  0  0  0  0
   -1.5000    2.5981    0.0000 O   0  0  0  0  0  0  0  0  0  0  0  0
   -1.5000    0.0000    0.0000 C   0  0  0  0  0  0  0  0  0  0  0  0
   -0.7500   -1.2990    0.0000 C   0  0  0  0  0  0  0  0  0  0  0  0
   -1.5000   -2.5981    0.0000 O   0  0  0  0  0  0  0  0  0  0  0  0
   -0.7500   -3.8971    0.0000 C   0  0  0  0  0  0  0  0  0  0  0  0
   -1.5000   -5.1962    0.0000 C   0  0  0  0  0  0  0  0  0  0  0  0
   -0.7500   -6.4952    0.0000 C   0  0  0  0  0  0  0  0  0  0  0  0
   -1.5000   -7.7942    0.0000 O   0  0  0  0  0  0  0  0  0  0  0  0
    0.7500   -6.4952    0.0000 C   0  0  0  0  0  0  0  0  0  0  0  0
    1.5000   -5.1962    0.0000 C   0  0  0  0  0  0  0  0  0  0  0  0
    0.7500   -3.8971    0.0000 C   0  0  0  0  0  0  0  0  0  0  0  0
    2.3817   -3.8116    0.0000 C   0  0  0  0  0  0  0  0  0  0  0  0
    2.7355   -5.0625    0.0000 C   0  0  0  0  0  0  0  0  0  0  0  0
    3.3301   -5.5978    0.0000 C   0  0  0  0  0  0  0  0  0  0  0  0
    2.8727   -7.7497    0.0000 N   0  0  0  0  0  0  0  0  0  0  0  0
    3.8764   -8.8645    0.0000 C   0  0  0  0  0  0  0  0  0  0  0  0
    5.3681   -8.7077    0.0000 O   0  0  0  0  0  0  0  0  0  0  0  0
    3.1264  -10.1635    0.0000 C   0  0  0  0  0  0  0  0  0  0  0  0
    1.6591   -9.8516    0.0000 C   0  0  0  0  0  0  0  0  0  0  0  0
    1.5023   -8.3598    0.0000 C   0  0  0  0  0  0  0  0  0  0  0  0
    0.2033   -7.6098    0.0000 O   0  0  0  0  0  0  0  0  0  0  0  0
    4.0909   -5.3506    0.0000 C   0  0  0  0  0  0  0  0  0  0  0  0
    4.2572   -4.5681    0.0000 C   0  0  0  0  0  0  0  0  0  0  0  0
    3.8083   -3.3481    0.0000 C   0  0  0  0  0  0  0  0  0  0  0  0
  1  2  2  0
  2  3  1  0
  3  4  1  0
  4  5  1  0
  5  6  2  0
  6  7  1  0
  7  8  2  0
  8  9  1  0
  8 10  1  0
 10 11  2  0
 11 12  1  0
 12 13  1  0
 13 14  2  0
 14 15  1  0
 15 16  1  0
 15 17  2  0
 17 18  1  0
 18 19  2  0
  4 20  1  0
 20 21  2  0
 21 22  1  0
 22 23  1  0
 23 24  1  0
 24 25  2  0
 24 26  1  0
 26 27  2  0
 27 28  1  0
 28 29  2  0
 22 30  2  0
 30 31  1  0
 31 32  2  0
 32  2  1  0
 19  4  1  0
 32 20  1  0
 11  5  1  0
 19 13  1  0
 28 23  1  0
M  END
>  <Compound_ID>  (144) 
C65742655

>  <Active>  (144) 
0.0

>  <Smiles>  (144) 
O=C1OC2(c3ccc(O)cc3Oc3cc(O)ccc32)c2cc(N3C(=O)C=CC3=O)ccc21

>  <canonical_smi>  (144) 
O=C1OC2(c3ccc(O)cc3Oc3cc(O)ccc32)c2cc(N3C(=O)C=CC3=O)ccc21

>  <Set>  (144) 
G2 inactive

>  <Set_type>  (144) 
Train

>  <MW>  (144) 
427.37

>  <HBD>  (144) 
2

>  <HBA>  (144) 
7

>  <NRB>  (144) 
1

>  <NR>  (144) 
6

>  <NAR>  (144) 
3

>  <PSA>  (144) 
113.37

>  <Standard Type>  (144) 
nan

>  <Standard Relation>  (144) 
nan

>  <Standard Units>  (144) 
nan

>  <Standard Value>  (144) 
nan

>  <Assay ChEMBL ID>  (144) 
nan

>  <Assay Description>  (144) 
nan

>  <BAO Label>  (144) 
nan

$$$$

     RDKit          2D

 29 32  0  0  0  0  0  0  0  0999 V2000
   10.4154   12.1446    0.0000 C   0  0  0  0  0  0  0  0  0  0  0  0
    8.9156   12.1670    0.0000 C   0  0  0  0  0  0  0  0  0  0  0  0
    8.1851   13.4771    0.0000 N   0  0  0  0  0  0  0  0  0  0  0  0
    6.6853   13.4996    0.0000 N   0  0  0  0  0  0  0  0  0  0  0  0
    5.9159   12.2119    0.0000 C   0  0  0  0  0  0  0  0  0  0  0  0
    4.4161   12.2344    0.0000 O   0  0  0  0  0  0  0  0  0  0  0  0
    6.6464   10.9018    0.0000 C   0  0  0  0  0  0  0  0  0  0  0  0
    8.1463   10.8794    0.0000 C   0  0  0  0  0  0  0  0  0  0  0  0
    8.5884    9.4460    0.0000 C   0  0  0  0  0  0  0  0  0  0  0  0
   10.0079    8.9612    0.0000 C   0  0  0  0  0  0  0  0  0  0  0  0
    7.3618    8.5826    0.0000 O   0  0  0  0  0  0  0  0  0  0  0  0
    6.1616    9.4823    0.0000 C   0  0  0  0  0  0  0  0  0  0  0  0
    4.7283    9.0402    0.0000 N   0  0  0  0  0  0  0  0  0  0  0  0
    4.3945    7.5778    0.0000 C   0  0  0  0  0  0  0  0  0  0  0  0
    5.4940    6.5575    0.0000 O   0  0  0  0  0  0  0  0  0  0  0  0
    2.9611    7.1357    0.0000 C   0  0  0  0  0  0  0  0  0  0  0  0
    2.6273    5.6733    0.0000 O   0  0  0  0  0  0  0  0  0  0  0  0
    1.1940    5.2311    0.0000 C   0  0  0  0  0  0  0  0  0  0  0  0
    0.0944    6.2514    0.0000 O   0  0  0  0  0  0  0  0  0  0  0  0
    0.8602    3.7687    0.0000 C   0  0  0  0  0  0  0  0  0  0  0  0
   -0.5191    3.1792    0.0000 C   0  0  0  0  0  0  0  0  0  0  0  0
   -0.3846    1.6852    0.0000 C   0  0  0  0  0  0  0  0  0  0  0  0
    1.0777    1.3515    0.0000 C   0  0  0  0  0  0  0  0  0  0  0  0
    1.7286    0.0000    0.0000 C   0  0  0  0  0  0  0  0  0  0  0  0
    1.0777   -1.3515    0.0000 C   0  0  0  0  0  0  0  0  0  0  0  0
   -0.3846   -1.6852    0.0000 C   0  0  0  0  0  0  0  0  0  0  0  0
   -1.5574   -0.7500    0.0000 C   0  0  0  0  0  0  0  0  0  0  0  0
   -1.5574    0.7500    0.0000 C   0  0  0  0  0  0  0  0  0  0  0  0
    1.8471    2.6391    0.0000 S   0  0  0  0  0  0  0  0  0  0  0  0
  2  1  1  1
  2  3  1  0
  3  4  1  0
  4  5  1  0
  5  6  2  0
  5  7  1  0
  7  8  2  0
  8  9  1  0
  9 10  1  1
  9 11  1  0
 11 12  1  0
 12 13  1  6
 13 14  1  0
 14 15  2  0
 14 16  1  0
 16 17  1  0
 17 18  1  0
 18 19  2  0
 20 18  1  1
 20 21  1  0
 21 22  1  0
 22 23  2  0
 23 24  1  0
 24 25  1  0
 25 26  1  0
 26 27  1  0
 27 28  1  0
 23 29  1  0
  8  2  1  0
 29 20  1  0
 12  7  1  0
 28 22  1  0
M  END
>  <Compound_ID>  (145) 
C39612495

>  <Active>  (145) 
0.0

>  <Smiles>  (145) 
C[C@@H]1NNC(=O)C2=C1[C@@H](C)O[C@@H]2NC(=O)COC(=O)[C@@H]1CC2=C(CCCCC2)S1

>  <canonical_smi>  (145) 
C[C@@H]1NNC(=O)C2=C1[C@@H](C)O[C@@H]2NC(=O)COC(=O)[C@@H]1CC2=C(CCCCC2)S1

>  <Set>  (145) 
G2 inactive

>  <Set_type>  (145) 
Train

>  <MW>  (145) 
421.52

>  <HBD>  (145) 
3

>  <HBA>  (145) 
7

>  <NRB>  (145) 
4

>  <NR>  (145) 
4

>  <NAR>  (145) 
0

>  <PSA>  (145) 
105.76

>  <Standard Type>  (145) 
nan

>  <Standard Relation>  (145) 
nan

>  <Standard Units>  (145) 
nan

>  <Standard Value>  (145) 
nan

>  <Assay ChEMBL ID>  (145) 
nan

>  <Assay Description>  (145) 
nan

>  <BAO Label>  (145) 
nan

$$$$

     RDKit          2D

 24 27  0  0  0  0  0  0  0  0999 V2000
    1.9664    6.7993    0.0000 C   0  0  0  0  0  0  0  0  0  0  0  0
    0.5008    6.4801    0.0000 C   0  0  0  0  0  0  0  0  0  0  0  0
    0.4409    7.9789    0.0000 C   0  0  0  0  0  0  0  0  0  0  0  0
   -0.9857    6.6815    0.0000 C   0  0  0  0  0  0  0  0  0  0  0  0
   -1.9033    5.4949    0.0000 C   0  0  0  0  0  0  0  0  0  0  0  0
   -3.3897    5.6962    0.0000 O   0  0  0  0  0  0  0  0  0  0  0  0
   -1.3344    4.1069    0.0000 C   0  0  0  0  0  0  0  0  0  0  0  0
    0.1520    3.9056    0.0000 C   0  0  0  0  0  0  0  0  0  0  0  0
    1.0696    5.0922    0.0000 C   0  0  0  0  0  0  0  0  0  0  0  0
    0.9214    2.6179    0.0000 N   0  0  0  0  0  0  0  0  0  0  0  0
    0.3943    1.2135    0.0000 C   0  0  0  0  0  0  0  0  0  0  0  0
    1.2760    0.0000    0.0000 N   0  0  0  0  0  0  0  0  0  0  0  0
    0.3943   -1.2135    0.0000 O   0  0  0  0  0  0  0  0  0  0  0  0
   -1.0323   -0.7500    0.0000 N   0  0  0  0  0  0  0  0  0  0  0  0
   -1.0323    0.7500    0.0000 C   0  0  0  0  0  0  0  0  0  0  0  0
   -2.2841    1.5763    0.0000 N   0  0  0  0  0  0  0  0  0  0  0  0
   -2.4186    3.0703    0.0000 C   0  0  0  0  0  0  0  0  0  0  0  0
   -3.8230    3.5974    0.0000 C   0  0  0  0  0  0  0  0  0  0  0  0
   -4.0687    5.0771    0.0000 C   0  0  0  0  0  0  0  0  0  0  0  0
   -5.4730    5.6042    0.0000 C   0  0  0  0  0  0  0  0  0  0  0  0
   -6.6317    4.6515    0.0000 C   0  0  0  0  0  0  0  0  0  0  0  0
   -8.0360    5.1786    0.0000 Cl  0  0  0  0  0  0  0  0  0  0  0  0
   -6.3859    3.1718    0.0000 C   0  0  0  0  0  0  0  0  0  0  0  0
   -4.9816    2.6447    0.0000 C   0  0  0  0  0  0  0  0  0  0  0  0
  1  2  1  0
  2  3  1  0
  2  4  1  0
  4  5  1  0
  5  6  2  0
  5  7  1  0
  7  8  2  0
  8  9  1  0
  8 10  1  0
 10 11  1  0
 11 12  2  0
 12 13  1  0
 13 14  1  0
 14 15  2  0
 15 16  1  0
 16 17  1  0
 17 18  1  6
 18 19  2  0
 19 20  1  0
 20 21  2  0
 21 22  1  0
 21 23  1  0
 23 24  2  0
  9  2  1  0
 15 11  1  0
 24 18  1  0
 17  7  1  0
M  END
>  <Compound_ID>  (146) 
C12390032

>  <Active>  (146) 
0.0

>  <Smiles>  (146) 
CC1(C)CC(=O)C2=C(C1)Nc1nonc1N[C@@H]2c1ccc(Cl)cc1

>  <canonical_smi>  (146) 
CC1(C)CC(=O)C2=C(C1)Nc1nonc1N[C@@H]2c1ccc(Cl)cc1

>  <Set>  (146) 
G2 inactive

>  <Set_type>  (146) 
Train

>  <MW>  (146) 
344.8

>  <HBD>  (146) 
2

>  <HBA>  (146) 
6

>  <NRB>  (146) 
1

>  <NR>  (146) 
4

>  <NAR>  (146) 
2

>  <PSA>  (146) 
80.05

>  <Standard Type>  (146) 
nan

>  <Standard Relation>  (146) 
nan

>  <Standard Units>  (146) 
nan

>  <Standard Value>  (146) 
nan

>  <Assay ChEMBL ID>  (146) 
nan

>  <Assay Description>  (146) 
nan

>  <BAO Label>  (146) 
nan

$$$$

     RDKit          2D

 27 31  0  0  0  0  0  0  0  0999 V2000
    3.0000    0.0000    0.0000 C   0  0  0  0  0  0  0  0  0  0  0  0
    1.5000    0.0000    0.0000 C   0  0  0  0  0  0  0  0  0  0  0  0
    0.7500   -1.2990    0.0000 C   0  0  0  0  0  0  0  0  0  0  0  0
   -0.7500   -1.2990    0.0000 N   0  0  0  0  0  0  0  0  0  0  0  0
   -1.5000    0.0000    0.0000 C   0  0  0  0  0  0  0  0  0  0  0  0
   -2.9672   -0.3119    0.0000 N   0  0  0  0  0  0  0  0  0  0  0  0
   -3.1240   -1.8037    0.0000 C   0  0  0  0  0  0  0  0  0  0  0  0
   -4.4554   -2.4946    0.0000 C   0  0  0  0  0  0  0  0  0  0  0  0
   -4.7453   -3.9663    0.0000 N   0  0  0  0  0  0  0  0  0  0  0  0
   -3.7754   -5.1106    0.0000 C   0  0  0  0  0  0  0  0  0  0  0  0
   -4.3855   -6.4809    0.0000 O   0  0  0  0  0  0  0  0  0  0  0  0
   -2.2760   -5.0657    0.0000 C   0  0  0  0  0  0  0  0  0  0  0  0
   -1.3763   -3.8655    0.0000 C   0  0  0  0  0  0  0  0  0  0  0  0
    0.0954   -4.1554    0.0000 C   0  0  0  0  0  0  0  0  0  0  0  0
    1.0823   -3.0258    0.0000 C   0  0  0  0  0  0  0  0  0  0  0  0
    2.5540   -3.3157    0.0000 C   0  0  0  0  0  0  0  0  0  0  0  0
    3.0389   -4.7352    0.0000 C   0  0  0  0  0  0  0  0  0  0  0  0
    2.0519   -5.8648    0.0000 C   0  0  0  0  0  0  0  0  0  0  0  0
    2.2310   -7.3540    0.0000 C   0  0  0  0  0  0  0  0  0  0  0  0
    3.5411   -8.0845    0.0000 C   0  0  0  0  0  0  0  0  0  0  0  0
    0.8700   -7.9846    0.0000 C   0  0  0  0  0  0  0  0  0  0  0  0
    0.5801   -9.4563    0.0000 C   0  0  0  0  0  0  0  0  0  0  0  0
   -0.1503   -6.8850    0.0000 N   0  0  0  0  0  0  0  0  0  0  0  0
    0.5802   -5.5749    0.0000 C   0  0  0  0  0  0  0  0  0  0  0  0
   -1.7537   -2.4138    0.0000 C   0  0  0  0  0  0  0  0  0  0  0  0
   -0.7500    1.2990    0.0000 C   0  0  0  0  0  0  0  0  0  0  0  0
    0.7500    1.2990    0.0000 C   0  0  0  0  0  0  0  0  0  0  0  0
  1  2  1  0
  2  3  2  0
  3  4  1  0
  4  5  1  0
  5  6  2  0
  6  7  1  0
  7  8  1  6
  8  9  1  0
  9 10  1  0
 10 11  2  0
 10 12  1  0
 12 13  1  0
 13 14  1  6
 14 15  2  0
 15 16  1  0
 16 17  2  0
 17 18  1  0
 18 19  2  0
 19 20  1  0
 19 21  1  0
 21 22  1  0
 21 23  2  0
 24 23  1  6
 13 25  1  0
  5 26  1  0
 26 27  2  0
 27  2  1  0
 25  4  1  6
 25  7  1  0
 24 14  1  0
 24 18  1  0
M  END
>  <Compound_ID>  (147) 
C65397323

>  <Active>  (147) 
0.0

>  <Smiles>  (147) 
CC1=CN2C(=N[C@H]3CNC(=O)C[C@@H](C4=CC=CC5=C(C)C(C)=N[C@H]45)[C@H]32)C=C1

>  <canonical_smi>  (147) 
CC1=CN2C(=N[C@H]3CNC(=O)C[C@@H](C4=CC=CC5=C(C)C(C)=N[C@H]45)[C@H]32)C=C1

>  <Set>  (147) 
G2 inactive

>  <Set_type>  (147) 
Train

>  <MW>  (147) 
360.46

>  <HBD>  (147) 
1

>  <HBA>  (147) 
2

>  <NRB>  (147) 
1

>  <NR>  (147) 
5

>  <NAR>  (147) 
0

>  <PSA>  (147) 
57.06

>  <Standard Type>  (147) 
nan

>  <Standard Relation>  (147) 
nan

>  <Standard Units>  (147) 
nan

>  <Standard Value>  (147) 
nan

>  <Assay ChEMBL ID>  (147) 
nan

>  <Assay Description>  (147) 
nan

>  <BAO Label>  (147) 
nan

$$$$

     RDKit          2D

 17 18  0  0  0  0  0  0  0  0999 V2000
    3.0000    0.0000    0.0000 O   0  0  0  0  0  1  0  0  0  0  0  0
    1.5000    0.0000    0.0000 C   0  0  0  0  0  0  0  0  0  0  0  0
    0.7500   -1.2990    0.0000 C   0  0  0  0  0  0  0  0  0  0  0  0
    1.5000   -2.5981    0.0000 Br  0  0  0  0  0  0  0  0  0  0  0  0
   -0.7500   -1.2990    0.0000 C   0  0  0  0  0  0  0  0  0  0  0  0
   -1.5000    0.0000    0.0000 C   0  0  0  0  0  0  0  0  0  0  0  0
   -0.7500    1.2990    0.0000 C   0  0  0  0  0  0  0  0  0  0  0  0
   -1.5000    2.5981    0.0000 Br  0  0  0  0  0  0  0  0  0  0  0  0
    0.7500    1.2990    0.0000 C   0  0  0  0  0  0  0  0  0  0  0  0
    1.5000    2.5981    0.0000 C   0  0  0  0  0  0  0  0  0  0  0  0
    3.0000    2.5981    0.0000 N   0  0  0  0  0  4  0  0  0  0  0  0
    3.7500    3.8971    0.0000 C   0  0  0  0  0  0  0  0  0  0  0  0
    5.2500    3.8971    0.0000 C   0  0  0  0  0  0  0  0  0  0  0  0
    6.0000    5.1962    0.0000 C   0  0  0  0  0  0  0  0  0  0  0  0
    5.2500    6.4952    0.0000 C   0  0  0  0  0  0  0  0  0  0  0  0
    3.7500    6.4952    0.0000 C   0  0  0  0  0  0  0  0  0  0  0  0
    3.0000    5.1962    0.0000 N   0  0  0  0  0  0  0  0  0  0  0  0
  1  2  1  0
  2  3  2  0
  3  4  1  0
  3  5  1  0
  5  6  2  0
  6  7  1  0
  7  8  1  0
  7  9  2  0
  9 10  1  0
 10 11  2  0
 11 12  1  0
 12 13  2  0
 13 14  1  0
 14 15  2  0
 15 16  1  0
 16 17  2  0
  9  2  1  0
 17 12  1  0
M  CHG  2   1  -1  11   1
M  END
>  <Compound_ID>  (148) 
C01094636

>  <Active>  (148) 
0.0

>  <Smiles>  (148) 
[O-]c1c(Br)ccc(Br)c1/C=[NH+]/c1ccccn1

>  <canonical_smi>  (148) 
[O-]c1c(Br)ccc(Br)c1/C=[NH+]/c1ccccn1

>  <Set>  (148) 
G2 inactive

>  <Set_type>  (148) 
Train

>  <MW>  (148) 
356.02

>  <HBD>  (148) 
1

>  <HBA>  (148) 
2

>  <NRB>  (148) 
2

>  <NR>  (148) 
2

>  <NAR>  (148) 
2

>  <PSA>  (148) 
49.92

>  <Standard Type>  (148) 
nan

>  <Standard Relation>  (148) 
nan

>  <Standard Units>  (148) 
nan

>  <Standard Value>  (148) 
nan

>  <Assay ChEMBL ID>  (148) 
nan

>  <Assay Description>  (148) 
nan

>  <BAO Label>  (148) 
nan

$$$$

     RDKit          2D

 25 28  0  0  0  0  0  0  0  0999 V2000
   -7.3826    7.6088    0.0000 C   0  0  0  0  0  0  0  0  0  0  0  0
   -6.6784    6.2844    0.0000 O   0  0  0  0  0  0  0  0  0  0  0  0
   -5.1793    6.2320    0.0000 C   0  0  0  0  0  0  0  0  0  0  0  0
   -5.3880    7.7174    0.0000 O   0  0  0  0  0  0  0  0  0  0  0  0
   -4.2060    8.6409    0.0000 C   0  0  0  0  0  0  0  0  0  0  0  0
   -3.7527    6.6955    0.0000 C   0  0  0  0  0  0  0  0  0  0  0  0
   -2.6380    5.6918    0.0000 C   0  0  0  0  0  0  0  0  0  0  0  0
   -2.9499    4.2246    0.0000 C   0  0  0  0  0  0  0  0  0  0  0  0
   -1.5233    4.6881    0.0000 C   0  0  0  0  0  0  0  0  0  0  0  0
   -1.8351    3.2209    0.0000 C   0  0  0  0  0  0  0  0  0  0  0  0
   -0.4086    3.6844    0.0000 C   0  0  0  0  0  0  0  0  0  0  0  0
    0.7062    2.6807    0.0000 C   0  0  0  0  0  0  0  0  0  0  0  0
    0.3943    1.2135    0.0000 C   0  0  0  0  0  0  0  0  0  0  0  0
    1.8615    1.5254    0.0000 C   0  0  0  0  0  0  0  0  0  0  0  0
    1.2760    0.0000    0.0000 C   0  0  0  0  0  0  0  0  0  0  0  0
    0.3943   -1.2135    0.0000 C   0  0  0  0  0  0  0  0  0  0  0  0
   -1.0323   -0.7500    0.0000 C   0  0  0  0  0  0  0  0  0  0  0  0
   -1.0323    0.7500    0.0000 C   0  0  0  0  0  0  0  0  0  0  0  0
   -2.4026    0.1399    0.0000 O   0  0  0  0  0  0  0  0  0  0  0  0
   -2.1470    1.7537    0.0000 C   0  0  0  0  0  0  0  0  0  0  0  0
   -3.5736    1.2902    0.0000 C   0  0  0  0  0  0  0  0  0  0  0  0
   -4.6883    2.2939    0.0000 C   0  0  0  0  0  0  0  0  0  0  0  0
   -4.3764    3.7611    0.0000 C   0  0  0  0  0  0  0  0  0  0  0  0
   -5.8030    3.2976    0.0000 C   0  0  0  0  0  0  0  0  0  0  0  0
   -5.4912    4.7648    0.0000 C   0  0  0  0  0  0  0  0  0  0  0  0
  1  2  1  0
  2  3  1  0
  3  4  1  0
  4  5  1  0
  3  6  1  0
  6  7  1  0
  7  8  1  0
  8  9  1  6
  8 10  1  0
 10 11  1  1
 11 12  1  0
 12 13  1  0
 13 14  1  6
 13 15  1  0
 15 16  1  0
 16 17  1  0
 17 18  1  0
 18 19  1  1
 18 20  1  0
 20 21  1  1
 21 22  1  0
 22 23  1  0
 23 24  1  1
 23 25  1  0
 25  3  1  0
 23  8  1  0
 20 10  1  0
 18 13  1  0
M  END
>  <Compound_ID>  (149) 
C43722440

>  <Active>  (149) 
0.0

>  <Smiles>  (149) 
COC1(OC)CC[C@@]2(C)[C@H]3CC[C@@]4(C)CCC[C@]4(O)[C@H]3CC[C@]2(C)C1

>  <canonical_smi>  (149) 
COC1(OC)CC[C@@]2(C)[C@H]3CC[C@@]4(C)CCC[C@]4(O)[C@H]3CC[C@]2(C)C1

>  <Set>  (149) 
G2 inactive

>  <Set_type>  (149) 
Train

>  <MW>  (149) 
350.54

>  <HBD>  (149) 
1

>  <HBA>  (149) 
3

>  <NRB>  (149) 
2

>  <NR>  (149) 
4

>  <NAR>  (149) 
0

>  <PSA>  (149) 
38.69

>  <Standard Type>  (149) 
nan

>  <Standard Relation>  (149) 
nan

>  <Standard Units>  (149) 
nan

>  <Standard Value>  (149) 
nan

>  <Assay ChEMBL ID>  (149) 
nan

>  <Assay Description>  (149) 
nan

>  <BAO Label>  (149) 
nan

$$$$

     RDKit          2D

 25 29  0  0  0  0  0  0  0  0999 V2000
    3.7500   -6.4952    0.0000 C   0  0  0  0  0  0  0  0  0  0  0  0
    3.0000   -5.1962    0.0000 C   0  0  0  0  0  0  0  0  0  0  0  0
    1.5000   -5.1962    0.0000 C   0  0  0  0  0  0  0  0  0  0  0  0
    0.7500   -3.8971    0.0000 C   0  0  0  0  0  0  0  0  0  0  0  0
    1.5000   -2.5981    0.0000 C   0  0  0  0  0  0  0  0  0  0  0  0
    0.7500   -1.2990    0.0000 C   0  0  0  0  0  0  0  0  0  0  0  0
    1.5000    0.0000    0.0000 C   0  0  0  0  0  0  0  0  0  0  0  0
    0.7500    1.2990    0.0000 C   0  0  0  0  0  0  0  0  0  0  0  0
   -0.7500    1.2990    0.0000 C   0  0  0  0  0  0  0  0  0  0  0  0
   -1.5000    0.0000    0.0000 C   0  0  0  0  0  0  0  0  0  0  0  0
    1.7010   -0.7500    0.0000 C   0  0  0  0  0  0  0  0  0  0  0  0
    3.0000   -0.0000    0.0000 C   0  0  0  0  0  0  0  0  0  0  0  0
    4.5000   -0.0000    0.0000 C   0  0  0  0  0  0  0  0  0  0  0  0
    5.2500   -1.2990    0.0000 O   0  0  0  0  0  0  0  0  0  0  0  0
    5.2500    1.2990    0.0000 N   0  0  0  0  0  0  0  0  0  0  0  0
    6.7500    1.2990    0.0000 C   0  0  0  0  0  0  0  0  0  0  0  0
    7.6317    0.0855    0.0000 N   0  0  0  0  0  0  0  0  0  0  0  0
    9.0583    0.5490    0.0000 C   0  0  0  0  0  0  0  0  0  0  0  0
    9.0583    2.0490    0.0000 C   0  0  0  0  0  0  0  0  0  0  0  0
    7.6317    2.5126    0.0000 S   0  0  0  0  0  0  0  0  0  0  0  0
    2.2500    1.2990    0.0000 C   0  0  0  0  0  0  0  0  0  0  0  0
    2.2500   -1.2990    0.0000 C   0  0  0  0  0  0  0  0  0  0  0  0
   -0.7500   -1.2990    0.0000 C   0  0  0  0  0  0  0  0  0  0  0  0
    3.0000   -2.5981    0.0000 C   0  0  0  0  0  0  0  0  0  0  0  0
    3.7500   -3.8971    0.0000 C   0  0  0  0  0  0  0  0  0  0  0  0
  1  2  1  0
  2  3  2  0
  3  4  1  0
  4  5  2  0
  5  6  1  0
  6  7  1  0
  8  7  1  1
  8  9  1  0
 10  9  1  1
 10 11  1  0
 11 12  1  0
 12 13  1  0
 13 14  2  0
 13 15  1  0
 15 16  2  0
 16 17  1  0
 17 18  1  0
 18 19  1  0
 19 20  1  0
 12 21  1  0
 12 22  1  0
 10 23  1  0
  5 24  1  0
 24 25  2  0
 25  2  1  0
 22  6  1  0
 23  6  1  0
 21  8  1  0
 20 16  1  0
M  END
>  <Compound_ID>  (150) 
C18183006

>  <Active>  (150) 
0.0

>  <Smiles>  (150) 
Cc1ccc(C23C[C@@H]4C[C@@H](CC(C(=O)/N=C5\NCCS5)(C4)C2)C3)cc1

>  <canonical_smi>  (150) 
Cc1ccc(C23C[C@@H]4C[C@@H](CC(C(=O)/N=C5\NCCS5)(C4)C2)C3)cc1

>  <Set>  (150) 
G2 inactive

>  <Set_type>  (150) 
Train

>  <MW>  (150) 
354.52

>  <HBD>  (150) 
1

>  <HBA>  (150) 
3

>  <NRB>  (150) 
2

>  <NR>  (150) 
6

>  <NAR>  (150) 
1

>  <PSA>  (150) 
41.46

>  <Standard Type>  (150) 
nan

>  <Standard Relation>  (150) 
nan

>  <Standard Units>  (150) 
nan

>  <Standard Value>  (150) 
nan

>  <Assay ChEMBL ID>  (150) 
nan

>  <Assay Description>  (150) 
nan

>  <BAO Label>  (150) 
nan

$$$$

     RDKit          2D

 24 26  0  0  0  0  0  0  0  0999 V2000
   -4.5000   -2.5981    0.0000 N   0  0  0  0  0  0  0  0  0  0  0  0
   -3.0000   -2.5981    0.0000 C   0  0  0  0  0  0  0  0  0  0  0  0
   -1.5000   -2.5981    0.0000 C   0  0  0  0  0  0  0  0  0  0  0  0
   -0.7500   -3.8971    0.0000 C   0  0  0  0  0  0  0  0  0  0  0  0
   -1.5000   -5.1962    0.0000 N   0  0  0  0  0  0  0  0  0  0  0  0
    0.7500   -3.8971    0.0000 C   0  0  0  0  0  0  0  0  0  0  0  0
    0.4895   -5.3743    0.0000 C   0  0  0  0  0  0  0  0  0  0  0  0
    0.2291   -6.8515    0.0000 N   0  0  0  0  0  0  0  0  0  0  0  0
    2.1595   -4.4101    0.0000 C   0  0  0  0  0  0  0  0  0  0  0  0
    3.5691   -4.9232    0.0000 N   0  0  0  0  0  0  0  0  0  0  0  0
    1.5000   -2.5981    0.0000 C   0  0  0  0  0  0  0  0  0  0  0  0
    3.0000   -2.5981    0.0000 C   0  0  0  0  0  0  0  0  0  0  0  0
    3.7500   -3.8971    0.0000 C   0  0  0  0  0  0  0  0  0  0  0  0
    5.2500   -3.8971    0.0000 C   0  0  0  0  0  0  0  0  0  0  0  0
    6.0000   -2.5981    0.0000 C   0  0  0  0  0  0  0  0  0  0  0  0
    7.5000   -2.5981    0.0000 Br  0  0  0  0  0  0  0  0  0  0  0  0
    5.2500   -1.2990    0.0000 C   0  0  0  0  0  0  0  0  0  0  0  0
    3.7500   -1.2990    0.0000 C   0  0  0  0  0  0  0  0  0  0  0  0
    0.7500   -1.2990    0.0000 C   0  0  0  0  0  0  0  0  0  0  0  0
    1.5000    0.0000    0.0000 C   0  0  0  0  0  0  0  0  0  0  0  0
    0.7500    1.2990    0.0000 C   0  0  0  0  0  0  0  0  0  0  0  0
   -0.7500    1.2990    0.0000 C   0  0  0  0  0  0  0  0  0  0  0  0
   -1.5000    0.0000    0.0000 C   0  0  0  0  0  0  0  0  0  0  0  0
   -0.7500   -1.2990    0.0000 C   0  0  0  0  0  0  0  0  0  0  0  0
  1  2  3  0
  2  3  1  0
  3  4  2  0
  4  5  1  0
  4  6  1  0
  6  7  1  0
  7  8  3  0
  6  9  1  0
  9 10  3  0
  6 11  1  0
 11 12  1  6
 12 13  2  0
 13 14  1  0
 14 15  2  0
 15 16  1  0
 15 17  1  0
 17 18  2  0
 11 19  1  0
 19 20  1  1
 20 21  1  0
 21 22  1  0
 22 23  1  0
 23 24  2  0
 24  3  1  0
 18 12  1  0
 24 19  1  0
M  END
>  <Compound_ID>  (151) 
C01085007

>  <Active>  (151) 
0.0

>  <Smiles>  (151) 
N#CC1=C(N)C(C#N)(C#N)[C@@H](c2ccc(Br)cc2)[C@@H]2CCCC=C12

>  <canonical_smi>  (151) 
N#CC1=C(N)C(C#N)(C#N)[C@@H](c2ccc(Br)cc2)[C@@H]2CCCC=C12

>  <Set>  (151) 
G2 inactive

>  <Set_type>  (151) 
Train

>  <MW>  (151) 
379.26

>  <HBD>  (151) 
1

>  <HBA>  (151) 
4

>  <NRB>  (151) 
1

>  <NR>  (151) 
3

>  <NAR>  (151) 
1

>  <PSA>  (151) 
97.39

>  <Standard Type>  (151) 
nan

>  <Standard Relation>  (151) 
nan

>  <Standard Units>  (151) 
nan

>  <Standard Value>  (151) 
nan

>  <Assay ChEMBL ID>  (151) 
nan

>  <Assay Description>  (151) 
nan

>  <BAO Label>  (151) 
nan

$$$$

     RDKit          2D

 21 23  0  0  0  0  0  0  0  0999 V2000
   -0.7500   -6.4952    0.0000 O   0  0  0  0  0  0  0  0  0  0  0  0
   -1.5000   -5.1962    0.0000 C   0  0  0  0  0  0  0  0  0  0  0  0
   -3.0000   -5.1962    0.0000 N   0  0  0  0  0  0  0  0  0  0  0  0
   -3.7500   -6.4952    0.0000 C   0  0  0  0  0  0  0  0  0  0  0  0
   -5.2500   -6.4952    0.0000 C   0  0  0  0  0  0  0  0  0  0  0  0
   -6.0000   -7.7942    0.0000 C   0  0  0  0  0  0  0  0  0  0  0  0
   -7.5000   -7.7942    0.0000 Br  0  0  0  0  0  0  0  0  0  0  0  0
   -5.2500   -9.0933    0.0000 C   0  0  0  0  0  0  0  0  0  0  0  0
   -3.7500   -9.0933    0.0000 C   0  0  0  0  0  0  0  0  0  0  0  0
   -3.0000   -7.7942    0.0000 C   0  0  0  0  0  0  0  0  0  0  0  0
   -1.5000   -7.7942    0.0000 Br  0  0  0  0  0  0  0  0  0  0  0  0
   -0.7500   -3.8971    0.0000 C   0  0  0  0  0  0  0  0  0  0  0  0
    0.7500   -3.8971    0.0000 C   0  0  0  0  0  0  0  0  0  0  0  0
    1.5000   -2.5981    0.0000 O   0  0  0  0  0  0  0  0  0  0  0  0
    0.7500   -1.2990    0.0000 C   0  0  0  0  0  0  0  0  0  0  0  0
    1.5000    0.0000    0.0000 C   0  0  0  0  0  0  0  0  0  0  0  0
    0.7500    1.2990    0.0000 C   0  0  0  0  0  0  0  0  0  0  0  0
   -0.7500    1.2990    0.0000 C   0  0  0  0  0  0  0  0  0  0  0  0
   -1.5000    0.0000    0.0000 C   0  0  0  0  0  0  0  0  0  0  0  0
   -0.7500   -1.2990    0.0000 C   0  0  0  0  0  0  0  0  0  0  0  0
   -1.5000   -2.5981    0.0000 O   0  0  0  0  0  0  0  0  0  0  0  0
  1  2  2  0
  2  3  1  0
  3  4  1  0
  4  5  2  0
  5  6  1  0
  6  7  1  0
  6  8  2  0
  8  9  1  0
  9 10  2  0
 10 11  1  0
 12  2  1  1
 12 13  1  0
 13 14  1  0
 14 15  1  0
 15 16  2  0
 16 17  1  0
 17 18  2  0
 18 19  1  0
 19 20  2  0
 20 21  1  0
 10  4  1  0
 21 12  1  0
 20 15  1  0
M  END
>  <Compound_ID>  (152) 
C28540961

>  <Active>  (152) 
0.0

>  <Smiles>  (152) 
O=C(Nc1cc(Br)ccc1Br)[C@@H]1COc2ccccc2O1

>  <canonical_smi>  (152) 
O=C(Nc1cc(Br)ccc1Br)[C@@H]1COc2ccccc2O1

>  <Set>  (152) 
G2 inactive

>  <Set_type>  (152) 
Train

>  <MW>  (152) 
413.06

>  <HBD>  (152) 
1

>  <HBA>  (152) 
3

>  <NRB>  (152) 
2

>  <NR>  (152) 
3

>  <NAR>  (152) 
2

>  <PSA>  (152) 
47.56

>  <Standard Type>  (152) 
nan

>  <Standard Relation>  (152) 
nan

>  <Standard Units>  (152) 
nan

>  <Standard Value>  (152) 
nan

>  <Assay ChEMBL ID>  (152) 
nan

>  <Assay Description>  (152) 
nan

>  <BAO Label>  (152) 
nan

$$$$

     RDKit          2D

 28 32  0  0  0  0  0  0  0  0999 V2000
   -1.9089  -12.2499    0.0000 C   0  0  0  0  0  0  0  0  0  0  0  0
   -0.7942  -11.2462    0.0000 N   0  0  0  0  0  0  0  0  0  0  0  0
    0.6731  -11.5581    0.0000 C   0  0  0  0  0  0  0  0  0  0  0  0
    1.4231  -10.2590    0.0000 C   0  0  0  0  0  0  0  0  0  0  0  0
    0.4194   -9.1443    0.0000 N   0  0  0  0  0  0  0  0  0  0  0  0
   -0.9510   -9.7544    0.0000 C   0  0  0  0  0  0  0  0  0  0  0  0
   -2.2500   -9.0044    0.0000 S   0  0  0  0  0  0  0  0  0  0  0  0
   -2.2500   -7.5044    0.0000 C   0  0  0  0  0  0  0  0  0  0  0  0
   -1.0365   -6.6227    0.0000 C   0  0  0  0  0  0  0  0  0  0  0  0
   -1.5000   -5.1962    0.0000 C   0  0  0  0  0  0  0  0  0  0  0  0
   -0.7500   -3.8971    0.0000 C   0  0  0  0  0  0  0  0  0  0  0  0
    0.7500   -3.8971    0.0000 C   0  0  0  0  0  0  0  0  0  0  0  0
    1.5000   -2.5981    0.0000 C   0  0  0  0  0  0  0  0  0  0  0  0
    0.7500   -1.2990    0.0000 C   0  0  0  0  0  0  0  0  0  0  0  0
    1.5000    0.0000    0.0000 C   0  0  0  0  0  0  0  0  0  0  0  0
    0.7500    1.2990    0.0000 C   0  0  0  0  0  0  0  0  0  0  0  0
    1.5000    2.5981    0.0000 O   0  0  0  0  0  0  0  0  0  0  0  0
   -0.7500    1.2990    0.0000 C   0  0  0  0  0  0  0  0  0  0  0  0
   -1.5000    0.0000    0.0000 C   0  0  0  0  0  0  0  0  0  0  0  0
   -0.7500   -1.2990    0.0000 C   0  0  0  0  0  0  0  0  0  0  0  0
   -2.2500   -1.2990    0.0000 C   0  0  0  0  0  0  0  0  0  0  0  0
   -1.5000   -2.5981    0.0000 C   0  0  0  0  0  0  0  0  0  0  0  0
   -3.0000   -2.5981    0.0000 C   0  0  0  0  0  0  0  0  0  0  0  0
   -3.7500   -3.8971    0.0000 C   0  0  0  0  0  0  0  0  0  0  0  0
   -3.0000   -5.1962    0.0000 C   0  0  0  0  0  0  0  0  0  0  0  0
   -4.4918   -5.3529    0.0000 C   0  0  0  0  0  0  0  0  0  0  0  0
   -3.4635   -6.6227    0.0000 C   0  0  0  0  0  0  0  0  0  0  0  0
   -4.8901   -7.0863    0.0000 O   0  0  0  0  0  0  0  0  0  0  0  0
  1  2  1  0
  2  3  1  0
  3  4  2  0
  4  5  1  0
  5  6  2  0
  6  7  1  0
  8  7  1  1
  8  9  1  0
 10  9  1  1
 10 11  1  0
 11 12  1  6
 12 13  1  0
 13 14  2  0
 14 15  1  0
 15 16  1  0
 16 17  1  1
 16 18  1  0
 18 19  1  0
 19 20  1  0
 20 21  1  1
 20 22  1  0
 22 23  1  6
 23 24  1  0
 24 25  1  0
 25 26  1  1
 25 27  1  0
 27 28  2  0
  6  2  1  0
 27  8  1  0
 25 10  1  0
 22 11  1  0
 20 14  1  0
M  END
>  <Compound_ID>  (153) 
C44499814

>  <Active>  (153) 
0.0

>  <Smiles>  (153) 
Cn1ccnc1S[C@@H]1C[C@@H]2[C@H]3CC=C4C[C@H](O)CC[C@@]4(C)[C@H]3CC[C@@]2(C)C1=O

>  <canonical_smi>  (153) 
Cn1ccnc1S[C@@H]1C[C@@H]2[C@H]3CC=C4C[C@H](O)CC[C@@]4(C)[C@H]3CC[C@@]2(C)C1=O

>  <Set>  (153) 
G2 inactive

>  <Set_type>  (153) 
Train

>  <MW>  (153) 
400.59

>  <HBD>  (153) 
1

>  <HBA>  (153) 
4

>  <NRB>  (153) 
2

>  <NR>  (153) 
5

>  <NAR>  (153) 
1

>  <PSA>  (153) 
55.12

>  <Standard Type>  (153) 
nan

>  <Standard Relation>  (153) 
nan

>  <Standard Units>  (153) 
nan

>  <Standard Value>  (153) 
nan

>  <Assay ChEMBL ID>  (153) 
nan

>  <Assay Description>  (153) 
nan

>  <BAO Label>  (153) 
nan

$$$$

     RDKit          2D

 29 32  0  0  0  0  0  0  0  0999 V2000
   -3.8855   -0.1771    0.0000 H   0  0  0  0  0  0  0  0  0  0  0  0
   -3.5736    1.2902    0.0000 N   0  0  0  0  0  0  0  0  0  0  0  0
   -2.1470    1.7537    0.0000 C   0  0  0  0  0  0  0  0  0  0  0  0
   -1.8351    3.2209    0.0000 C   0  0  0  0  0  0  0  0  0  0  0  0
   -2.9499    4.2246    0.0000 C   0  0  0  0  0  0  0  0  0  0  0  0
   -4.3764    3.7611    0.0000 C   0  0  0  0  0  0  0  0  0  0  0  0
   -4.8400    2.3345    0.0000 C   0  0  0  0  0  0  0  0  0  0  0  0
   -6.3400    2.3345    0.0000 C   0  0  0  0  0  0  0  0  0  0  0  0
   -7.2216    1.1210    0.0000 C   0  0  0  0  0  0  0  0  0  0  0  0
   -6.8035    3.7611    0.0000 N   0  0  0  0  0  0  0  0  0  0  0  0
   -8.2301    4.2246    0.0000 C   0  0  0  0  0  0  0  0  0  0  0  0
   -8.5419    5.6918    0.0000 C   0  0  0  0  0  0  0  0  0  0  0  0
   -9.9685    6.1554    0.0000 C   0  0  0  0  0  0  0  0  0  0  0  0
  -11.0832    5.1517    0.0000 C   0  0  0  0  0  0  0  0  0  0  0  0
  -12.5098    5.6152    0.0000 Cl  0  0  0  0  0  0  0  0  0  0  0  0
  -10.7714    3.6844    0.0000 C   0  0  0  0  0  0  0  0  0  0  0  0
   -9.3448    3.2209    0.0000 C   0  0  0  0  0  0  0  0  0  0  0  0
   -9.0329    1.7537    0.0000 C   0  0  0  0  0  0  0  0  0  0  0  0
   -5.5900    4.6428    0.0000 C   0  0  0  0  0  0  0  0  0  0  0  0
   -5.5900    6.1428    0.0000 C   0  0  0  0  0  0  0  0  0  0  0  0
   -0.4086    3.6844    0.0000 C   0  0  0  0  0  0  0  0  0  0  0  0
   -0.0967    5.1517    0.0000 O   0  0  0  0  0  0  0  0  0  0  0  0
    0.7062    2.6807    0.0000 N   0  0  0  0  0  0  0  0  0  0  0  0
    0.3943    1.2135    0.0000 C   0  0  0  0  0  0  0  0  0  0  0  0
    1.2760    0.0000    0.0000 S   0  0  0  0  0  0  0  0  0  0  0  0
    0.3943   -1.2135    0.0000 C   0  0  0  0  0  0  0  0  0  0  0  0
    0.8578   -2.6401    0.0000 C   0  0  0  0  0  0  0  0  0  0  0  0
   -1.0323   -0.7500    0.0000 N   0  0  0  0  0  0  0  0  0  0  0  0
   -1.0323    0.7500    0.0000 N   0  0  0  0  0  0  0  0  0  0  0  0
  1  2  1  0
  2  3  2  0
  3  4  1  0
  4  5  2  0
  5  6  1  0
  6  7  1  0
  7  8  2  0
  8  9  1  0
  8 10  1  0
 10 11  1  0
 11 12  2  0
 12 13  1  0
 13 14  2  0
 14 15  1  0
 14 16  1  0
 16 17  2  0
 17 18  1  0
 10 19  1  0
 19 20  1  0
  4 21  1  0
 21 22  2  0
 21 23  1  0
 23 24  2  0
 24 25  1  0
 25 26  1  0
 26 27  1  0
 26 28  2  0
 28 29  1  0
 29  3  1  0
 19  6  2  0
 29 24  1  0
 17 11  1  0
M  END
>  <Compound_ID>  (154) 
C05516568

>  <Active>  (154) 
0.0

>  <Smiles>  (154) 
[H]/N=C1C(=C\c2cc(C)n(-c3ccc(Cl)cc3C)c2C)/C(=O)N=C2SC(C)=NN2/1

>  <canonical_smi>  (154) 
[H]/N=C1C(=C\c2cc(C)n(-c3ccc(Cl)cc3C)c2C)/C(=O)N=C2SC(C)=NN2/1

>  <Set>  (154) 
G2 inactive

>  <Set_type>  (154) 
Train

>  <MW>  (154) 
411.92

>  <HBD>  (154) 
1

>  <HBA>  (154) 
3

>  <NRB>  (154) 
2

>  <NR>  (154) 
4

>  <NAR>  (154) 
2

>  <PSA>  (154) 
73.81

>  <Standard Type>  (154) 
nan

>  <Standard Relation>  (154) 
nan

>  <Standard Units>  (154) 
nan

>  <Standard Value>  (154) 
nan

>  <Assay ChEMBL ID>  (154) 
nan

>  <Assay Description>  (154) 
nan

>  <BAO Label>  (154) 
nan

$$$$

     RDKit          2D

 27 30  0  0  0  0  0  0  0  0999 V2000
   -1.4418   -3.8810    0.0000 C   0  0  0  0  0  0  0  0  0  0  0  0
   -1.7537   -2.4138    0.0000 C   0  0  0  0  0  0  0  0  0  0  0  0
   -3.1240   -1.8037    0.0000 N   0  0  0  0  0  0  0  0  0  0  0  0
   -2.9672   -0.3119    0.0000 N   0  0  0  0  0  0  0  0  0  0  0  0
   -4.0819    0.6918    0.0000 C   0  0  0  0  0  0  0  0  0  0  0  0
   -3.7701    2.1590    0.0000 C   0  0  0  0  0  0  0  0  0  0  0  0
   -4.8848    3.1627    0.0000 C   0  0  0  0  0  0  0  0  0  0  0  0
   -6.3114    2.6992    0.0000 C   0  0  0  0  0  0  0  0  0  0  0  0
   -7.4261    3.7029    0.0000 Cl  0  0  0  0  0  0  0  0  0  0  0  0
   -6.6232    1.2320    0.0000 N   0  0  0  0  0  0  0  0  0  0  0  0
   -5.5085    0.2283    0.0000 N   0  0  0  0  0  0  0  0  0  0  0  0
   -1.5000    0.0000    0.0000 C   0  0  0  0  0  0  0  0  0  0  0  0
   -0.7500   -1.2990    0.0000 C   0  0  0  0  0  0  0  0  0  0  0  0
    0.7500   -1.2990    0.0000 C   0  0  0  0  0  0  0  0  0  0  0  0
    1.5000   -2.5981    0.0000 C   0  0  0  0  0  0  0  0  0  0  0  0
    0.7500   -3.8971    0.0000 C   0  0  0  0  0  0  0  0  0  0  0  0
    1.5000   -5.1962    0.0000 C   0  0  0  0  0  0  0  0  0  0  0  0
    3.0000   -5.1962    0.0000 C   0  0  0  0  0  0  0  0  0  0  0  0
    3.7500   -6.4952    0.0000 F   0  0  0  0  0  0  0  0  0  0  0  0
    3.7500   -3.8971    0.0000 C   0  0  0  0  0  0  0  0  0  0  0  0
    5.2500   -3.8971    0.0000 F   0  0  0  0  0  0  0  0  0  0  0  0
    3.0000   -2.5981    0.0000 C   0  0  0  0  0  0  0  0  0  0  0  0
    3.7500   -1.2990    0.0000 F   0  0  0  0  0  0  0  0  0  0  0  0
    1.5000    0.0000    0.0000 C   0  0  0  0  0  0  0  0  0  0  0  0
    0.7500    1.2990    0.0000 C   0  0  0  0  0  0  0  0  0  0  0  0
    1.5000    2.5981    0.0000 O   0  0  0  0  0  0  0  0  0  0  0  0
   -0.7500    1.2990    0.0000 N   0  0  0  0  0  0  0  0  0  0  0  0
  1  2  1  0
  2  3  2  0
  3  4  1  0
  4  5  1  0
  5  6  2  0
  6  7  1  0
  7  8  2  0
  8  9  1  0
  8 10  1  0
 10 11  2  0
  4 12  1  0
 12 13  2  0
 13 14  1  0
 14 15  1  1
 15 16  2  0
 16 17  1  0
 17 18  2  0
 18 19  1  0
 18 20  1  0
 20 21  1  0
 20 22  2  0
 22 23  1  0
 14 24  1  0
 24 25  1  0
 25 26  1  0
 25 27  2  0
 13  2  1  0
 22 15  1  0
 11  5  1  0
 27 12  1  0
M  END
>  <Compound_ID>  (155) 
C36360402

>  <Active>  (155) 
0.0

>  <Smiles>  (155) 
Cc1nn(-c2ccc(Cl)nn2)c2c1[C@H](c1ccc(F)c(F)c1F)CC(O)=N2

>  <canonical_smi>  (155) 
Cc1nn(-c2ccc(Cl)nn2)c2c1[C@H](c1ccc(F)c(F)c1F)CC(O)=N2

>  <Set>  (155) 
G2 inactive

>  <Set_type>  (155) 
Train

>  <MW>  (155) 
393.76

>  <HBD>  (155) 
1

>  <HBA>  (155) 
4

>  <NRB>  (155) 
2

>  <NR>  (155) 
4

>  <NAR>  (155) 
3

>  <PSA>  (155) 
76.19

>  <Standard Type>  (155) 
nan

>  <Standard Relation>  (155) 
nan

>  <Standard Units>  (155) 
nan

>  <Standard Value>  (155) 
nan

>  <Assay ChEMBL ID>  (155) 
nan

>  <Assay Description>  (155) 
nan

>  <BAO Label>  (155) 
nan

$$$$

     RDKit          2D

 31 37  0  0  0  0  0  0  0  0999 V2000
    2.2500   -3.9097    0.0000 O   0  0  0  0  0  0  0  0  0  0  0  0
    2.7136   -2.4831    0.0000 C   0  0  0  0  0  0  0  0  0  0  0  0
    1.7099   -1.3684    0.0000 C   0  0  0  0  0  0  0  0  0  0  0  0
    2.1734    0.0582    0.0000 C   0  0  0  0  0  0  0  0  0  0  0  0
    3.2881    1.0619    0.0000 O   0  0  0  0  0  0  0  0  0  0  0  0
    1.8615    1.5254    0.0000 C   0  0  0  0  0  0  0  0  0  0  0  0
    0.3943    1.2135    0.0000 C   0  0  0  0  0  0  0  0  0  0  0  0
    1.2760    0.0000    0.0000 C   0  0  0  0  0  0  0  0  0  0  0  0
    0.3943   -1.2135    0.0000 C   0  0  0  0  0  0  0  0  0  0  0  0
   -1.0323   -0.7500    0.0000 C   0  0  0  0  0  0  0  0  0  0  0  0
   -1.0323    0.7500    0.0000 O   0  0  0  0  0  0  0  0  0  0  0  0
   -0.6094    2.3282    0.0000 C   0  0  0  0  0  0  0  0  0  0  0  0
   -0.6530    2.4452    0.0000 C   0  0  0  0  0  0  0  0  0  0  0  0
   -0.5721    2.0174    0.0000 C   0  0  0  0  0  0  0  0  0  0  0  0
   -0.7017    2.6274    0.0000 C   0  0  0  0  0  0  0  0  0  0  0  0
   -0.6016    2.2037    0.0000 O   0  0  0  0  0  0  0  0  0  0  0  0
   -0.1459    3.7548    0.0000 C   0  0  0  0  0  0  0  0  0  0  0  0
   -1.6377    3.5980    0.0000 C   0  0  0  0  0  0  0  0  0  0  0  0
   -2.2478    4.9684    0.0000 C   0  0  0  0  0  0  0  0  0  0  0  0
   -1.1330    5.9720    0.0000 C   0  0  0  0  0  0  0  0  0  0  0  0
    0.1660    5.2220    0.0000 O   0  0  0  0  0  0  0  0  0  0  0  0
    1.3213    4.0667    0.0000 C   0  0  0  0  0  0  0  0  0  0  0  0
    0.4397    5.2802    0.0000 C   0  0  0  0  0  0  0  0  0  0  0  0
    1.3213    6.4937    0.0000 C   0  0  0  0  0  0  0  0  0  0  0  0
    2.7479    6.0302    0.0000 C   0  0  0  0  0  0  0  0  0  0  0  0
    2.7479    4.5302    0.0000 O   0  0  0  0  0  0  0  0  0  0  0  0
    2.3250    2.9520    0.0000 C   0  0  0  0  0  0  0  0  0  0  0  0
    2.9352    4.3223    0.0000 C   0  0  0  0  0  0  0  0  0  0  0  0
    4.4269    4.1655    0.0000 C   0  0  0  0  0  0  0  0  0  0  0  0
    4.7388    2.6983    0.0000 C   0  0  0  0  0  0  0  0  0  0  0  0
    3.4398    1.9483    0.0000 O   0  0  0  0  0  0  0  0  0  0  0  0
  1  2  1  0
  2  3  1  0
  4  3  1  6
  4  5  1  0
  5  6  1  0
  6  7  1  0
  7  8  1  1
  8  9  1  0
  9 10  1  0
 10 11  1  0
  7 12  1  0
 12 13  1  1
 13 14  1  0
 14 15  1  0
 15 16  1  0
 12 17  1  0
 17 18  1  0
 18 19  1  0
 19 20  1  0
 20 21  1  0
 17 22  1  0
 22 23  1  6
 23 24  1  0
 24 25  1  0
 25 26  1  0
 22 27  1  0
 27 28  1  6
 28 29  1  0
 29 30  1  0
 30 31  1  0
  6  4  1  0
 11  7  1  0
 16 12  1  0
 21 17  1  0
 26 22  1  0
 31 27  1  0
 27  6  1  0
M  END
>  <Compound_ID>  (156) 
C43763130

>  <Active>  (156) 
0.0

>  <Smiles>  (156) 
OCC[C@H]1OC12[C@@]1(CCCO1)[C@@]1(CCCO1)C1(CCCO1)[C@]1(CCCO1)[C@]21CCCO1

>  <canonical_smi>  (156) 
OCC[C@H]1OC12[C@@]1(CCCO1)[C@@]1(CCCO1)C1(CCCO1)[C@]1(CCCO1)[C@]21CCCO1

>  <Set>  (156) 
G2 inactive

>  <Set_type>  (156) 
Train

>  <MW>  (156) 
436.55

>  <HBD>  (156) 
1

>  <HBA>  (156) 
7

>  <NRB>  (156) 
2

>  <NR>  (156) 
7

>  <NAR>  (156) 
0

>  <PSA>  (156) 
78.91

>  <Standard Type>  (156) 
nan

>  <Standard Relation>  (156) 
nan

>  <Standard Units>  (156) 
nan

>  <Standard Value>  (156) 
nan

>  <Assay ChEMBL ID>  (156) 
nan

>  <Assay Description>  (156) 
nan

>  <BAO Label>  (156) 
nan

$$$$

     RDKit          2D

 32 34  0  0  0  0  0  0  0  0999 V2000
    1.5000    0.0000    0.0000 C   0  0  0  0  0  0  0  0  0  0  0  0
    0.7500   -1.2990    0.0000 C   0  0  0  0  0  0  0  0  0  0  0  0
   -0.7500   -1.2990    0.0000 C   0  0  0  0  0  0  0  0  0  0  0  0
   -1.5000    0.0000    0.0000 C   0  0  0  0  0  0  0  0  0  0  0  0
   -2.5607   -1.0607    0.0000 O   0  0  0  0  0  0  0  0  0  0  0  0
   -3.8597   -1.8107    0.0000 C   0  0  0  0  0  0  0  0  0  0  0  0
   -5.3086   -2.1989    0.0000 C   0  0  0  0  0  0  0  0  0  0  0  0
   -6.8086   -2.1989    0.0000 O   0  0  0  0  0  0  0  0  0  0  0  0
   -8.2575   -1.8107    0.0000 C   0  0  0  0  0  0  0  0  0  0  0  0
   -9.5565   -1.0607    0.0000 C   0  0  0  0  0  0  0  0  0  0  0  0
  -10.6172    0.0000    0.0000 O   0  0  0  0  0  0  0  0  0  0  0  0
  -11.3672    1.2990    0.0000 C   0  0  0  0  0  0  0  0  0  0  0  0
  -11.7554    2.7479    0.0000 C   0  0  0  0  0  0  0  0  0  0  0  0
  -11.7554    4.2479    0.0000 O   0  0  0  0  0  0  0  0  0  0  0  0
  -11.3672    5.6968    0.0000 C   0  0  0  0  0  0  0  0  0  0  0  0
  -12.8672    5.6968    0.0000 C   0  0  0  0  0  0  0  0  0  0  0  0
  -13.6172    6.9959    0.0000 C   0  0  0  0  0  0  0  0  0  0  0  0
  -12.8672    8.2949    0.0000 C   0  0  0  0  0  0  0  0  0  0  0  0
  -11.3672    8.2949    0.0000 C   0  0  0  0  0  0  0  0  0  0  0  0
  -10.6172    6.9959    0.0000 C   0  0  0  0  0  0  0  0  0  0  0  0
   -9.5565    8.0565    0.0000 O   0  0  0  0  0  0  0  0  0  0  0  0
   -8.2575    8.8065    0.0000 C   0  0  0  0  0  0  0  0  0  0  0  0
   -6.8086    9.1947    0.0000 C   0  0  0  0  0  0  0  0  0  0  0  0
   -5.3086    9.1947    0.0000 O   0  0  0  0  0  0  0  0  0  0  0  0
   -3.8597    8.8065    0.0000 C   0  0  0  0  0  0  0  0  0  0  0  0
   -2.5607    8.0565    0.0000 C   0  0  0  0  0  0  0  0  0  0  0  0
   -1.5000    6.9959    0.0000 O   0  0  0  0  0  0  0  0  0  0  0  0
   -0.7500    5.6968    0.0000 C   0  0  0  0  0  0  0  0  0  0  0  0
   -0.3618    4.2479    0.0000 C   0  0  0  0  0  0  0  0  0  0  0  0
   -0.3618    2.7479    0.0000 O   0  0  0  0  0  0  0  0  0  0  0  0
   -0.7500    1.2990    0.0000 C   0  0  0  0  0  0  0  0  0  0  0  0
    0.7500    1.2990    0.0000 C   0  0  0  0  0  0  0  0  0  0  0  0
  1  2  1  0
  2  3  1  0
  4  3  1  6
  4  5  1  0
  5  6  1  0
  6  7  1  0
  7  8  1  0
  8  9  1  0
  9 10  1  0
 10 11  1  0
 11 12  1  0
 12 13  1  0
 13 14  1  0
 14 15  1  0
 15 16  1  6
 16 17  1  0
 17 18  1  0
 18 19  1  0
 20 19  1  1
 20 21  1  0
 21 22  1  0
 22 23  1  0
 23 24  1  0
 24 25  1  0
 25 26  1  0
 26 27  1  0
 27 28  1  0
 28 29  1  0
 29 30  1  0
 30 31  1  0
 31 32  1  1
 32  1  1  0
 31  4  1  0
 20 15  1  0
M  END
>  <Compound_ID>  (157) 
C12405075

>  <Active>  (157) 
0.0

>  <Smiles>  (157) 
C1CC[C@@H]2OCCOCCOCCO[C@@H]3CCCC[C@H]3OCCOCCOCCO[C@H]2C1

>  <canonical_smi>  (157) 
C1CC[C@@H]2OCCOCCOCCO[C@@H]3CCCC[C@H]3OCCOCCOCCO[C@H]2C1

>  <Set>  (157) 
G2 inactive

>  <Set_type>  (157) 
Train

>  <MW>  (157) 
460.61

>  <HBD>  (157) 
0

>  <HBA>  (157) 
8

>  <NRB>  (157) 
0

>  <NR>  (157) 
3

>  <NAR>  (157) 
0

>  <PSA>  (157) 
73.84

>  <Standard Type>  (157) 
nan

>  <Standard Relation>  (157) 
nan

>  <Standard Units>  (157) 
nan

>  <Standard Value>  (157) 
nan

>  <Assay ChEMBL ID>  (157) 
nan

>  <Assay Description>  (157) 
nan

>  <BAO Label>  (157) 
nan

$$$$

     RDKit          2D

 28 31  0  0  0  0  0  0  0  0999 V2000
   -0.0000   -5.1073    0.0000 C   0  0  0  0  0  0  0  0  0  0  0  0
   -0.0000   -3.6073    0.0000 C   0  0  0  0  0  0  0  0  0  0  0  0
    1.2135   -2.7256    0.0000 S   0  0  0  0  0  0  0  0  0  0  0  0
    0.7500   -1.2990    0.0000 C   0  0  0  0  0  0  0  0  0  0  0  0
    1.5000    0.0000    0.0000 N   0  0  0  0  0  0  0  0  0  0  0  0
    0.7500    1.2990    0.0000 C   0  0  0  0  0  0  0  0  0  0  0  0
   -0.7500    1.2990    0.0000 N   0  0  0  0  0  0  0  0  0  0  0  0
   -1.5000    0.0000    0.0000 C   0  0  0  0  0  0  0  0  0  0  0  0
   -3.0000    0.0000    0.0000 N   0  0  0  0  0  0  0  0  0  0  0  0
   -3.7500    1.2990    0.0000 C   0  0  0  0  0  0  0  0  0  0  0  0
   -5.2500    1.2990    0.0000 C   0  0  0  0  0  0  0  0  0  0  0  0
   -6.0000    0.0000    0.0000 C   0  0  0  0  0  0  0  0  0  0  0  0
   -7.5000    0.0000    0.0000 C   0  0  0  0  0  0  0  0  0  0  0  0
   -8.2500   -1.2990    0.0000 O   0  0  0  0  0  0  0  0  0  0  0  0
   -8.2500    1.2990    0.0000 N   0  0  0  0  0  0  0  0  0  0  0  0
   -9.7500    1.2990    0.0000 C   0  0  0  0  0  0  0  0  0  0  0  0
   -7.5000    2.5981    0.0000 C   0  0  0  0  0  0  0  0  0  0  0  0
   -8.1101    3.9684    0.0000 C   0  0  0  0  0  0  0  0  0  0  0  0
   -6.9954    4.9721    0.0000 C   0  0  0  0  0  0  0  0  0  0  0  0
   -5.6963    4.2221    0.0000 S   0  0  0  0  0  0  0  0  0  0  0  0
   -5.0862    5.5924    0.0000 O   0  0  0  0  0  0  0  0  0  0  0  0
   -4.2698    3.7586    0.0000 O   0  0  0  0  0  0  0  0  0  0  0  0
   -6.0082    2.7549    0.0000 C   0  0  0  0  0  0  0  0  0  0  0  0
   -5.2500   -1.2990    0.0000 C   0  0  0  0  0  0  0  0  0  0  0  0
   -3.7500   -1.2990    0.0000 C   0  0  0  0  0  0  0  0  0  0  0  0
   -0.7500   -1.2990    0.0000 C   0  0  0  0  0  0  0  0  0  0  0  0
   -1.2135   -2.7256    0.0000 C   0  0  0  0  0  0  0  0  0  0  0  0
   -2.6401   -3.1891    0.0000 C   0  0  0  0  0  0  0  0  0  0  0  0
  1  2  1  0
  2  3  1  0
  3  4  1  0
  4  5  2  0
  5  6  1  0
  6  7  2  0
  7  8  1  0
  8  9  1  0
  9 10  1  0
 10 11  1  0
 11 12  1  0
 12 13  1  0
 13 14  2  0
 13 15  1  0
 15 16  1  0
 17 15  1  6
 17 18  1  0
 18 19  1  0
 19 20  1  0
 20 21  2  0
 20 22  2  0
 20 23  1  0
 12 24  1  0
 24 25  1  0
  8 26  2  0
 26 27  1  0
 27 28  1  0
 27  2  2  0
 26  4  1  0
 25  9  1  0
 23 17  1  0
M  END
>  <Compound_ID>  (158) 
C12784091

>  <Active>  (158) 
0.0

>  <Smiles>  (158) 
Cc1sc2ncnc(N3CCC(C(=O)N(C)[C@@H]4CCS(=O)(=O)C4)CC3)c2c1C

>  <canonical_smi>  (158) 
Cc1sc2ncnc(N3CCC(C(=O)N(C)[C@@H]4CCS(=O)(=O)C4)CC3)c2c1C

>  <Set>  (158) 
G2 inactive

>  <Set_type>  (158) 
Train

>  <MW>  (158) 
422.58

>  <HBD>  (158) 
0

>  <HBA>  (158) 
6

>  <NRB>  (158) 
3

>  <NR>  (158) 
4

>  <NAR>  (158) 
2

>  <PSA>  (158) 
83.47

>  <Standard Type>  (158) 
nan

>  <Standard Relation>  (158) 
nan

>  <Standard Units>  (158) 
nan

>  <Standard Value>  (158) 
nan

>  <Assay ChEMBL ID>  (158) 
nan

>  <Assay Description>  (158) 
nan

>  <BAO Label>  (158) 
nan

$$$$

     RDKit          2D

 24 27  0  0  0  0  0  0  0  0999 V2000
    3.7981    1.9284    0.0000 C   0  0  0  0  0  0  0  0  0  0  0  0
    2.6491    0.9642    0.0000 C   0  0  0  0  0  0  0  0  0  0  0  0
    1.5000    0.0000    0.0000 C   0  0  0  0  0  0  0  0  0  0  0  0
    2.6491   -0.9642    0.0000 O   0  0  0  0  0  0  0  0  0  0  0  0
    0.7500   -1.2990    0.0000 C   0  0  0  0  0  0  0  0  0  0  0  0
   -0.7500   -1.2990    0.0000 C   0  0  0  0  0  0  0  0  0  0  0  0
   -1.5000    0.0000    0.0000 C   0  0  0  0  0  0  0  0  0  0  0  0
   -2.2500   -1.2990    0.0000 C   0  0  0  0  0  0  0  0  0  0  0  0
   -0.7500    1.2990    0.0000 C   0  0  0  0  0  0  0  0  0  0  0  0
   -1.5000    2.5981    0.0000 C   0  0  0  0  0  0  0  0  0  0  0  0
   -3.0000    2.5981    0.0000 C   0  0  0  0  0  0  0  0  0  0  0  0
   -3.7500    1.2990    0.0000 C   0  0  0  0  0  0  0  0  0  0  0  0
   -5.2500    1.2990    0.0000 C   0  0  0  0  0  0  0  0  0  0  0  0
   -6.2537    2.4138    0.0000 C   0  0  0  0  0  0  0  0  0  0  0  0
   -7.6240    1.8037    0.0000 C   0  0  0  0  0  0  0  0  0  0  0  0
   -7.4672    0.3119    0.0000 C   0  0  0  0  0  0  0  0  0  0  0  0
   -8.9672    0.3119    0.0000 C   0  0  0  0  0  0  0  0  0  0  0  0
   -7.8047   -1.1497    0.0000 O   0  0  0  0  0  0  0  0  0  0  0  0
   -6.0000    0.0000    0.0000 C   0  0  0  0  0  0  0  0  0  0  0  0
   -6.7272   -1.3119    0.0000 C   0  0  0  0  0  0  0  0  0  0  0  0
   -5.2500   -1.2990    0.0000 C   0  0  0  0  0  0  0  0  0  0  0  0
   -3.7500   -1.2990    0.0000 C   0  0  0  0  0  0  0  0  0  0  0  0
   -3.0000    0.0000    0.0000 C   0  0  0  0  0  0  0  0  0  0  0  0
    0.7500    1.2990    0.0000 C   0  0  0  0  0  0  0  0  0  0  0  0
  1  2  3  0
  2  3  1  0
  3  4  1  1
  3  5  1  0
  5  6  1  0
  6  7  1  0
  7  8  1  1
  7  9  1  0
  9 10  1  1
 10 11  1  0
 12 11  1  6
 12 13  1  0
 13 14  1  6
 14 15  1  0
 15 16  1  0
 16 17  1  1
 16 18  1  0
 16 19  1  0
 19 20  1  6
 19 21  1  0
 21 22  1  0
 23 22  1  1
  9 24  1  0
 24  3  1  0
 23  7  1  0
 23 12  1  0
 19 13  1  0
M  END
>  <Compound_ID>  (159) 
C03843558

>  <Active>  (159) 
0.0

>  <Smiles>  (159) 
C#C[C@]1(O)CC[C@@]2(C)[C@@H](CC[C@H]3[C@H]4CC[C@@](C)(O)[C@]4(C)CC[C@@H]32)C1

>  <canonical_smi>  (159) 
C#C[C@]1(O)CC[C@@]2(C)[C@@H](CC[C@@H]3[C@@H]2CC[C@]2(C)[C@@H]3CC[C@@]2(C)O)C1

>  <Set>  (159) 
G2 inactive

>  <Set_type>  (159) 
Train

>  <MW>  (159) 
330.51

>  <HBD>  (159) 
2

>  <HBA>  (159) 
2

>  <NRB>  (159) 
0

>  <NR>  (159) 
4

>  <NAR>  (159) 
0

>  <PSA>  (159) 
40.46

>  <Standard Type>  (159) 
nan

>  <Standard Relation>  (159) 
nan

>  <Standard Units>  (159) 
nan

>  <Standard Value>  (159) 
nan

>  <Assay ChEMBL ID>  (159) 
nan

>  <Assay Description>  (159) 
nan

>  <BAO Label>  (159) 
nan

$$$$

     RDKit          2D

 22 27  0  0  0  0  0  0  0  0999 V2000
   -2.9414    2.5567    0.0000 O   0  0  0  0  0  0  0  0  0  0  0  0
   -2.3313    3.9271    0.0000 C   0  0  0  0  0  0  0  0  0  0  0  0
   -1.0323    3.1771    0.0000 C   0  0  0  0  0  0  0  0  0  0  0  0
   -0.4222    4.5474    0.0000 O   0  0  0  0  0  0  0  0  0  0  0  0
    0.3943    2.7135    0.0000 C   0  0  0  0  0  0  0  0  0  0  0  0
    0.3943    1.2135    0.0000 C   0  0  0  0  0  0  0  0  0  0  0  0
    1.2760    0.0000    0.0000 C   0  0  0  0  0  0  0  0  0  0  0  0
    0.3943   -1.2135    0.0000 C   0  0  0  0  0  0  0  0  0  0  0  0
   -1.0323   -0.7500    0.0000 C   0  0  0  0  0  0  0  0  0  0  0  0
   -2.5323   -0.7500    0.0000 C   0  0  0  0  0  0  0  0  0  0  0  0
   -2.9958    0.6766    0.0000 C   0  0  0  0  0  0  0  0  0  0  0  0
   -1.9140    1.9635    0.0000 C   0  0  0  0  0  0  0  0  0  0  0  0
   -1.0323    0.7500    0.0000 C   0  0  0  0  0  0  0  0  0  0  0  0
   -3.7579    4.3906    0.0000 C   0  0  0  0  0  0  0  0  0  0  0  0
   -3.7579    5.8906    0.0000 C   0  0  0  0  0  0  0  0  0  0  0  0
   -4.6396    7.1041    0.0000 C   0  0  0  0  0  0  0  0  0  0  0  0
   -3.7579    8.3176    0.0000 C   0  0  0  0  0  0  0  0  0  0  0  0
   -2.3313    7.8541    0.0000 C   0  0  0  0  0  0  0  0  0  0  0  0
   -0.8313    7.8541    0.0000 C   0  0  0  0  0  0  0  0  0  0  0  0
   -0.3678    6.4275    0.0000 C   0  0  0  0  0  0  0  0  0  0  0  0
   -1.4496    5.1406    0.0000 C   0  0  0  0  0  0  0  0  0  0  0  0
   -2.3313    6.3541    0.0000 C   0  0  0  0  0  0  0  0  0  0  0  0
  2  1  1  6
  2  3  1  0
  3  4  1  6
  3  5  1  0
  6  5  1  6
  6  7  1  0
  7  8  1  0
  9  8  1  1
  9 10  1  0
 10 11  1  0
 12 11  1  6
 12 13  1  0
  2 14  1  0
 15 14  1  6
 15 16  1  0
 16 17  1  0
 18 17  1  1
 18 19  1  0
 19 20  1  0
 21 20  1  6
 21 22  1  0
 21  2  1  0
 12  3  1  0
 22 15  1  6
 13  6  1  6
 22 18  1  0
 13  9  1  0
M  END
>  <Compound_ID>  (160) 
C43761873

>  <Active>  (160) 
0.0

>  <Smiles>  (160) 
O[C@]1([C@@]2(O)C[C@@H]3CC[C@H]4CC[C@H]2[C@@H]43)C[C@@H]2CC[C@H]3CC[C@H]1[C@@H]32

>  <canonical_smi>  (160) 
O[C@]1([C@@]2(O)C[C@@H]3CC[C@H]4CC[C@H]2[C@@H]43)C[C@@H]2CC[C@H]3CC[C@H]1[C@@H]32

>  <Set>  (160) 
G2 inactive

>  <Set_type>  (160) 
Train

>  <MW>  (160) 
302.46

>  <HBD>  (160) 
2

>  <HBA>  (160) 
2

>  <NRB>  (160) 
1

>  <NR>  (160) 
6

>  <NAR>  (160) 
0

>  <PSA>  (160) 
40.46

>  <Standard Type>  (160) 
nan

>  <Standard Relation>  (160) 
nan

>  <Standard Units>  (160) 
nan

>  <Standard Value>  (160) 
nan

>  <Assay ChEMBL ID>  (160) 
nan

>  <Assay Description>  (160) 
nan

>  <BAO Label>  (160) 
nan

$$$$

     RDKit          2D

 16 17  0  0  0  0  0  0  0  0999 V2000
   -1.7455   -2.9392    0.0000 N   0  0  0  0  0  0  0  0  0  0  0  0
   -0.7418   -4.0539    0.0000 C   0  0  0  0  0  0  0  0  0  0  0  0
   -1.0537   -5.5211    0.0000 C   0  0  0  0  0  0  0  0  0  0  0  0
   -2.4240   -6.1312    0.0000 I   0  0  0  0  0  0  0  0  0  0  0  0
    0.2454   -6.2711    0.0000 C   0  0  0  0  0  0  0  0  0  0  0  0
    1.3601   -5.2674    0.0000 N   0  0  0  0  0  0  0  0  0  0  0  0
    0.7500   -3.8971    0.0000 N   0  0  0  0  0  0  0  0  0  0  0  0
    1.5000   -2.5981    0.0000 C   0  0  0  0  0  0  0  0  0  0  0  0
    0.7500   -1.2990    0.0000 C   0  0  0  0  0  0  0  0  0  0  0  0
    1.5000    0.0000    0.0000 C   0  0  0  0  0  0  0  0  0  0  0  0
    0.7500    1.2990    0.0000 C   0  0  0  0  0  0  0  0  0  0  0  0
   -0.7500    1.2990    0.0000 C   0  0  0  0  0  0  0  0  0  0  0  0
   -1.5000    2.5981    0.0000 Cl  0  0  0  0  0  0  0  0  0  0  0  0
   -1.5000    0.0000    0.0000 C   0  0  0  0  0  0  0  0  0  0  0  0
   -3.0000    0.0000    0.0000 Cl  0  0  0  0  0  0  0  0  0  0  0  0
   -0.7500   -1.2990    0.0000 C   0  0  0  0  0  0  0  0  0  0  0  0
  1  2  1  0
  2  3  2  0
  3  4  1  0
  3  5  1  0
  5  6  2  0
  6  7  1  0
  7  8  1  0
  8  9  1  0
  9 10  2  0
 10 11  1  0
 11 12  2  0
 12 13  1  0
 12 14  1  0
 14 15  1  0
 14 16  2  0
  7  2  1  0
 16  9  1  0
M  END
>  <Compound_ID>  (161) 
C43666545

>  <Active>  (161) 
0.0

>  <Smiles>  (161) 
Nc1c(I)cnn1Cc1ccc(Cl)c(Cl)c1

>  <canonical_smi>  (161) 
Nc1c(I)cnn1Cc1ccc(Cl)c(Cl)c1

>  <Set>  (161) 
G2 inactive

>  <Set_type>  (161) 
Train

>  <MW>  (161) 
368.0

>  <HBD>  (161) 
1

>  <HBA>  (161) 
2

>  <NRB>  (161) 
2

>  <NR>  (161) 
2

>  <NAR>  (161) 
2

>  <PSA>  (161) 
43.84

>  <Standard Type>  (161) 
nan

>  <Standard Relation>  (161) 
nan

>  <Standard Units>  (161) 
nan

>  <Standard Value>  (161) 
nan

>  <Assay ChEMBL ID>  (161) 
nan

>  <Assay Description>  (161) 
nan

>  <BAO Label>  (161) 
nan

$$$$

     RDKit          2D

 31 33  0  0  0  0  0  0  0  0999 V2000
   -5.0218   -4.2298    0.0000 C   0  0  0  0  0  0  0  0  0  0  0  0
   -3.8083   -3.3481    0.0000 C   0  0  0  0  0  0  0  0  0  0  0  0
   -2.3817   -3.8116    0.0000 C   0  0  0  0  0  0  0  0  0  0  0  0
   -1.9182   -5.2382    0.0000 C   0  0  0  0  0  0  0  0  0  0  0  0
   -0.4509   -5.5501    0.0000 O   0  0  0  0  0  0  0  0  0  0  0  0
   -2.9218   -6.3529    0.0000 O   0  0  0  0  0  0  0  0  0  0  0  0
   -2.4583   -7.7795    0.0000 C   0  0  0  0  0  0  0  0  0  0  0  0
   -3.8849   -8.2430    0.0000 C   0  0  0  0  0  0  0  0  0  0  0  0
   -0.9620   -7.6749    0.0000 C   0  0  0  0  0  0  0  0  0  0  0  0
   -1.9948   -9.2061    0.0000 C   0  0  0  0  0  0  0  0  0  0  0  0
   -1.5000   -2.5981    0.0000 C   0  0  0  0  0  0  0  0  0  0  0  0
   -2.3817   -1.3846    0.0000 C   0  0  0  0  0  0  0  0  0  0  0  0
   -2.2771    0.1118    0.0000 O   0  0  0  0  0  0  0  0  0  0  0  0
   -3.8083   -1.8481    0.0000 O   0  0  0  0  0  0  0  0  0  0  0  0
   -0.7500   -3.8971    0.0000 C   0  0  0  0  0  0  0  0  0  0  0  0
   -1.5000   -5.1962    0.0000 C   0  0  0  0  0  0  0  0  0  0  0  0
   -3.0000   -5.1962    0.0000 O   0  0  0  0  0  0  0  0  0  0  0  0
   -0.7500   -6.4952    0.0000 O   0  0  0  0  0  0  0  0  0  0  0  0
   -1.5000   -7.7942    0.0000 C   0  0  0  0  0  0  0  0  0  0  0  0
   -0.7500   -9.0933    0.0000 C   0  0  0  0  0  0  0  0  0  0  0  0
   -2.9554   -8.1572    0.0000 C   0  0  0  0  0  0  0  0  0  0  0  0
    0.7500   -3.8971    0.0000 C   0  0  0  0  0  0  0  0  0  0  0  0
    1.5000   -5.1962    0.0000 N   0  0  0  0  0  0  0  0  0  0  0  0
    1.5000   -2.5981    0.0000 N   0  0  0  0  0  0  0  0  0  0  0  0
    0.7500   -1.2990    0.0000 C   0  0  0  0  0  0  0  0  0  0  0  0
    1.5000    0.0000    0.0000 C   0  0  0  0  0  0  0  0  0  0  0  0
    0.7500    1.2990    0.0000 C   0  0  0  0  0  0  0  0  0  0  0  0
   -0.7500    1.2990    0.0000 C   0  0  0  0  0  0  0  0  0  0  0  0
   -1.5000    2.5981    0.0000 Br  0  0  0  0  0  0  0  0  0  0  0  0
   -1.5000    0.0000    0.0000 C   0  0  0  0  0  0  0  0  0  0  0  0
   -0.7500   -1.2990    0.0000 C   0  0  0  0  0  0  0  0  0  0  0  0
  1  2  1  0
  2  3  2  0
  3  4  1  0
  4  5  2  0
  4  6  1  0
  6  7  1  0
  7  8  1  0
  7  9  1  0
  7 10  1  0
 11  3  1  1
 11 12  1  0
 12 13  2  0
 12 14  1  0
 11 15  1  0
 15 16  1  0
 16 17  2  0
 16 18  1  0
 18 19  1  0
 19 20  1  0
 19 21  1  0
 15 22  2  0
 22 23  1  0
 22 24  1  0
 24 25  1  0
 25 26  2  0
 26 27  1  0
 27 28  2  0
 28 29  1  0
 28 30  1  0
 30 31  2  0
 14  2  1  0
 31 25  1  0
 31 11  1  0
M  END
>  <Compound_ID>  (162) 
C20568989

>  <Active>  (162) 
0.0

>  <Smiles>  (162) 
CC1=C(C(=O)OC(C)(C)C)[C@]2(C(=O)O1)C(C(=O)OC(C)C)=C(N)Nc1ccc(Br)cc12

>  <canonical_smi>  (162) 
CC1=C(C(=O)OC(C)(C)C)[C@]2(C(=O)O1)C(C(=O)OC(C)C)=C(N)Nc1ccc(Br)cc12

>  <Set>  (162) 
G2 inactive

>  <Set_type>  (162) 
Train

>  <MW>  (162) 
493.35

>  <HBD>  (162) 
2

>  <HBA>  (162) 
8

>  <NRB>  (162) 
3

>  <NR>  (162) 
3

>  <NAR>  (162) 
1

>  <PSA>  (162) 
116.95

>  <Standard Type>  (162) 
nan

>  <Standard Relation>  (162) 
nan

>  <Standard Units>  (162) 
nan

>  <Standard Value>  (162) 
nan

>  <Assay ChEMBL ID>  (162) 
nan

>  <Assay Description>  (162) 
nan

>  <BAO Label>  (162) 
nan

$$$$

     RDKit          2D

 19 21  0  0  0  0  0  0  0  0999 V2000
    3.0000    0.0000    0.0000 C   0  0  0  0  0  0  0  0  0  0  0  0
    1.5000    0.0000    0.0000 C   0  0  0  0  0  0  0  0  0  0  0  0
    0.7500   -1.2990    0.0000 C   0  0  0  0  0  0  0  0  0  0  0  0
   -0.7500   -1.2990    0.0000 C   0  0  0  0  0  0  0  0  0  0  0  0
   -1.5000    0.0000    0.0000 C   0  0  0  0  0  0  0  0  0  0  0  0
   -0.7500    1.2990    0.0000 C   0  0  0  0  0  0  0  0  0  0  0  0
   -1.5000    2.5981    0.0000 S   0  0  0  0  0  1  0  0  0  0  0  0
    0.7500    1.2990    0.0000 N   0  0  0  0  0  0  0  0  0  0  0  0
   -2.9672   -0.3119    0.0000 C   0  0  0  0  0  0  0  0  0  0  0  0
   -4.0819    0.6918    0.0000 O   0  0  0  0  0  0  0  0  0  0  0  0
   -3.1240   -1.8037    0.0000 O   0  0  0  0  0  0  0  0  0  0  0  0
   -1.7537   -2.4138    0.0000 C   0  0  0  0  0  0  0  0  0  0  0  0
   -1.4418   -3.8810    0.0000 C   0  0  0  0  0  0  0  0  0  0  0  0
   -2.5565   -4.8847    0.0000 C   0  0  0  0  0  0  0  0  0  0  0  0
   -2.3998   -6.3765    0.0000 C   0  0  0  0  0  0  0  0  0  0  0  0
   -3.7701   -6.9866    0.0000 C   0  0  0  0  0  0  0  0  0  0  0  0
   -4.7738   -5.8718    0.0000 C   0  0  0  0  0  0  0  0  0  0  0  0
   -6.2655   -6.0286    0.0000 Br  0  0  0  0  0  0  0  0  0  0  0  0
   -4.0238   -4.5728    0.0000 O   0  0  0  0  0  0  0  0  0  0  0  0
  1  2  1  0
  2  3  2  0
  3  4  1  0
  4  5  2  0
  5  6  1  0
  6  7  1  0
  6  8  2  0
  5  9  1  0
  9 10  2  0
  9 11  1  0
 11 12  1  0
 12 13  2  0
 13 14  1  0
 14 15  2  0
 15 16  1  0
 16 17  2  0
 17 18  1  0
 17 19  1  0
  8  2  1  0
 19 14  1  0
 12  4  1  0
M  CHG  1   7  -1
M  END
>  <Compound_ID>  (163) 
C34132147

>  <Active>  (163) 
0.0

>  <Smiles>  (163) 
Cc1cc2c(c([S-])n1)C(=O)O/C2=C\c1ccc(Br)o1

>  <canonical_smi>  (163) 
Cc1cc2c(c([S-])n1)C(=O)O/C2=C\c1ccc(Br)o1

>  <Set>  (163) 
G2 inactive

>  <Set_type>  (163) 
Train

>  <MW>  (163) 
337.17

>  <HBD>  (163) 
0

>  <HBA>  (163) 
5

>  <NRB>  (163) 
1

>  <NR>  (163) 
3

>  <NAR>  (163) 
2

>  <PSA>  (163) 
52.33

>  <Standard Type>  (163) 
nan

>  <Standard Relation>  (163) 
nan

>  <Standard Units>  (163) 
nan

>  <Standard Value>  (163) 
nan

>  <Assay ChEMBL ID>  (163) 
nan

>  <Assay Description>  (163) 
nan

>  <BAO Label>  (163) 
nan

$$$$

     RDKit          2D

 19 20  0  0  0  0  0  0  0  0999 V2000
   -5.2500   -6.4952    0.0000 C   0  0  0  0  0  0  0  0  0  0  0  0
   -3.7500   -6.4952    0.0000 C   0  0  0  0  0  0  0  0  0  0  0  0
   -3.0000   -5.1962    0.0000 C   0  0  0  0  0  0  0  0  0  0  0  0
   -1.5000   -5.1962    0.0000 S   0  0  0  0  0  0  0  0  0  0  0  0
   -0.7500   -3.8971    0.0000 C   0  0  0  0  0  0  0  0  0  0  0  0
    0.7500   -3.8971    0.0000 N   0  0  0  0  0  0  0  0  0  0  0  0
    1.5000   -2.5981    0.0000 S   0  0  0  0  0  0  0  0  0  0  0  0
    2.6491   -3.5623    0.0000 O   0  0  0  0  0  0  0  0  0  0  0  0
    2.6491   -1.6339    0.0000 O   0  0  0  0  0  0  0  0  0  0  0  0
    0.7500   -1.2990    0.0000 C   0  0  0  0  0  0  0  0  0  0  0  0
    1.5000    0.0000    0.0000 C   0  0  0  0  0  0  0  0  0  0  0  0
    0.7500    1.2990    0.0000 C   0  0  0  0  0  0  0  0  0  0  0  0
    1.5000    2.5981    0.0000 C   0  0  0  0  0  0  0  0  0  0  0  0
    3.0000    2.5981    0.0000 C   0  0  0  0  0  0  0  0  0  0  0  0
    0.7500    3.8971    0.0000 C   0  0  0  0  0  0  0  0  0  0  0  0
   -0.7500    1.2990    0.0000 C   0  0  0  0  0  0  0  0  0  0  0  0
   -1.5000    0.0000    0.0000 C   0  0  0  0  0  0  0  0  0  0  0  0
   -0.7500   -1.2990    0.0000 C   0  0  0  0  0  0  0  0  0  0  0  0
   -1.5000   -2.5981    0.0000 N   0  0  0  0  0  2  0  0  0  0  0  0
  1  2  2  0
  2  3  1  0
  3  4  1  0
  4  5  1  0
  5  6  2  0
  6  7  1  0
  7  8  2  0
  7  9  2  0
  7 10  1  0
 10 11  2  0
 11 12  1  0
 12 13  1  0
 13 14  1  0
 13 15  1  0
 12 16  2  0
 16 17  1  0
 17 18  2  0
 18 19  1  0
 19  5  1  0
 18 10  1  0
M  CHG  1  19  -1
M  END
>  <Compound_ID>  (164) 
C62326404

>  <Active>  (164) 
0.0

>  <Smiles>  (164) 
C=CCSC1=NS(=O)(=O)c2cc(C(C)C)ccc2[N-]1

>  <canonical_smi>  (164) 
C=CCSC1=NS(=O)(=O)c2cc(C(C)C)ccc2[N-]1

>  <Set>  (164) 
G2 inactive

>  <Set_type>  (164) 
Train

>  <MW>  (164) 
295.41

>  <HBD>  (164) 
0

>  <HBA>  (164) 
3

>  <NRB>  (164) 
3

>  <NR>  (164) 
2

>  <NAR>  (164) 
1

>  <PSA>  (164) 
60.6

>  <Standard Type>  (164) 
nan

>  <Standard Relation>  (164) 
nan

>  <Standard Units>  (164) 
nan

>  <Standard Value>  (164) 
nan

>  <Assay ChEMBL ID>  (164) 
nan

>  <Assay Description>  (164) 
nan

>  <BAO Label>  (164) 
nan

$$$$

     RDKit          2D

 34 38  0  0  0  0  0  0  0  0999 V2000
    3.0000    0.0000    0.0000 C   0  0  0  0  0  0  0  0  0  0  0  0
    1.5000    0.0000    0.0000 C   0  0  0  0  0  0  0  0  0  0  0  0
    0.7500   -1.2990    0.0000 C   0  0  0  0  0  0  0  0  0  0  0  0
   -0.7500   -1.2990    0.0000 C   0  0  0  0  0  0  0  0  0  0  0  0
   -1.5000    0.0000    0.0000 C   0  0  0  0  0  0  0  0  0  0  0  0
   -0.7500    1.2990    0.0000 N   0  0  0  0  0  0  0  0  0  0  0  0
    0.7500    1.2990    0.0000 C   0  0  0  0  0  0  0  0  0  0  0  0
    1.5000    2.5981    0.0000 N   0  0  0  0  0  0  0  0  0  0  0  0
    0.7500    3.8971    0.0000 C   0  0  0  0  0  0  0  0  0  0  0  0
    1.5000    5.1962    0.0000 N   0  0  0  0  0  4  0  0  0  0  0  0
    0.7500    6.4952    0.0000 C   0  0  0  0  0  0  0  0  0  0  0  0
   -0.7500    6.4952    0.0000 N   0  0  0  0  0  0  0  0  0  0  0  0
   -1.5000    5.1962    0.0000 C   0  0  0  0  0  0  0  0  0  0  0  0
   -3.0000    5.1962    0.0000 N   0  0  0  0  0  0  0  0  0  0  0  0
   -3.7500    6.4952    0.0000 C   0  0  0  0  0  0  0  0  0  0  0  0
   -5.2500    6.4952    0.0000 C   0  0  0  0  0  0  0  0  0  0  0  0
   -6.0000    5.1962    0.0000 N   0  0  0  0  0  0  0  0  0  0  0  0
   -7.5000    5.1962    0.0000 C   0  0  0  0  0  0  0  0  0  0  0  0
   -8.2500    6.4952    0.0000 C   0  0  0  0  0  0  0  0  0  0  0  0
   -7.5000    7.7942    0.0000 C   0  0  0  0  0  0  0  0  0  0  0  0
   -8.2500    9.0933    0.0000 C   0  0  0  0  0  0  0  0  0  0  0  0
   -9.7500    9.0933    0.0000 C   0  0  0  0  0  0  0  0  0  0  0  0
  -10.5000    7.7942    0.0000 C   0  0  0  0  0  0  0  0  0  0  0  0
   -9.7500    6.4952    0.0000 C   0  0  0  0  0  0  0  0  0  0  0  0
   -8.2500    3.8971    0.0000 C   0  0  0  0  0  0  0  0  0  0  0  0
   -9.7500    3.8971    0.0000 C   0  0  0  0  0  0  0  0  0  0  0  0
  -10.5000    2.5981    0.0000 C   0  0  0  0  0  0  0  0  0  0  0  0
   -9.7500    1.2990    0.0000 C   0  0  0  0  0  0  0  0  0  0  0  0
   -8.2500    1.2990    0.0000 C   0  0  0  0  0  0  0  0  0  0  0  0
   -7.5000    2.5981    0.0000 C   0  0  0  0  0  0  0  0  0  0  0  0
   -5.2500    3.8971    0.0000 C   0  0  0  0  0  0  0  0  0  0  0  0
   -3.7500    3.8971    0.0000 C   0  0  0  0  0  0  0  0  0  0  0  0
   -0.7500    3.8971    0.0000 C   0  0  0  0  0  0  0  0  0  0  0  0
   -1.5000    2.5981    0.0000 N   0  0  0  0  0  0  0  0  0  0  0  0
  1  2  1  0
  2  3  2  0
  3  4  1  0
  4  5  2  0
  5  6  1  0
  6  7  2  0
  7  8  1  0
  8  9  1  0
  9 10  2  0
 10 11  1  0
 11 12  2  0
 12 13  1  0
 13 14  1  0
 14 15  1  0
 15 16  1  0
 16 17  1  0
 17 18  1  0
 18 19  1  0
 19 20  2  0
 20 21  1  0
 21 22  2  0
 22 23  1  0
 23 24  2  0
 18 25  1  0
 25 26  2  0
 26 27  1  0
 27 28  2  0
 28 29  1  0
 29 30  2  0
 17 31  1  0
 31 32  1  0
 13 33  2  0
 33 34  1  0
  7  2  1  0
 33  9  1  0
 32 14  1  0
 24 19  1  0
 30 25  1  0
M  CHG  1  10   1
M  END
>  <Compound_ID>  (165) 
C40729749

>  <Active>  (165) 
0.0

>  <Smiles>  (165) 
Cc1cccnc1Nc1[nH+]cnc(N2CCN(C(c3ccccc3)c3ccccc3)CC2)c1N

>  <canonical_smi>  (165) 
Cc1cccnc1Nc1[nH+]cnc(N2CCN(C(c3ccccc3)c3ccccc3)CC2)c1N

>  <Set>  (165) 
G2 inactive

>  <Set_type>  (165) 
Train

>  <MW>  (165) 
452.59

>  <HBD>  (165) 
2

>  <HBA>  (165) 
6

>  <NRB>  (165) 
6

>  <NR>  (165) 
5

>  <NAR>  (165) 
4

>  <PSA>  (165) 
84.45

>  <Standard Type>  (165) 
nan

>  <Standard Relation>  (165) 
nan

>  <Standard Units>  (165) 
nan

>  <Standard Value>  (165) 
nan

>  <Assay ChEMBL ID>  (165) 
nan

>  <Assay Description>  (165) 
nan

>  <BAO Label>  (165) 
nan

$$$$

     RDKit          2D

 21 21  0  0  0  0  0  0  0  0999 V2000
   10.5000   -5.1962    0.0000 N   0  0  0  0  0  4  0  0  0  0  0  0
    9.7500   -3.8971    0.0000 C   0  0  0  0  0  0  0  0  0  0  0  0
    8.2500   -3.8971    0.0000 C   0  0  0  0  0  0  0  0  0  0  0  0
    7.5000   -2.5981    0.0000 C   0  0  0  0  0  0  0  0  0  0  0  0
    6.0000   -2.5981    0.0000 C   0  0  0  0  0  0  0  0  0  0  0  0
    5.2500   -1.2990    0.0000 C   0  0  0  0  0  0  0  0  0  0  0  0
    3.7500   -1.2990    0.0000 C   0  0  0  0  0  0  0  0  0  0  0  0
    3.0000   -2.5981    0.0000 O   0  0  0  0  0  0  0  0  0  0  0  0
    3.0000    0.0000    0.0000 N   0  0  0  0  0  0  0  0  0  0  0  0
    1.5000    0.0000    0.0000 C   0  0  0  0  0  0  0  0  0  0  0  0
    0.7500   -1.2990    0.0000 C   0  0  0  0  0  0  0  0  0  0  0  0
   -0.7500   -1.2990    0.0000 C   0  0  0  0  0  0  0  0  0  0  0  0
   -1.5000   -2.5981    0.0000 Cl  0  0  0  0  0  0  0  0  0  0  0  0
   -1.5000    0.0000    0.0000 C   0  0  0  0  0  0  0  0  0  0  0  0
   -0.7500    1.2990    0.0000 C   0  0  0  0  0  0  0  0  0  0  0  0
   -1.5000    2.5981    0.0000 Br  0  0  0  0  0  0  0  0  0  0  0  0
    0.7500    1.2990    0.0000 C   0  0  0  0  0  0  0  0  0  0  0  0
    1.5000    2.5981    0.0000 O   0  0  0  0  0  0  0  0  0  0  0  0
    0.7500    3.8971    0.0000 C   0  0  0  0  0  0  0  0  0  0  0  0
    1.5000    5.1962    0.0000 F   0  0  0  0  0  0  0  0  0  0  0  0
   -0.7500    3.8971    0.0000 F   0  0  0  0  0  0  0  0  0  0  0  0
  1  2  1  0
  2  3  1  0
  3  4  1  0
  4  5  1  0
  5  6  1  0
  6  7  1  0
  7  8  2  0
  7  9  1  0
  9 10  1  0
 10 11  2  0
 11 12  1  0
 12 13  1  0
 12 14  2  0
 14 15  1  0
 15 16  1  0
 15 17  2  0
 17 18  1  0
 18 19  1  0
 19 20  1  0
 19 21  1  0
 17 10  1  0
M  CHG  1   1   1
M  END
>  <Compound_ID>  (166) 
C37020217

>  <Active>  (166) 
0.0

>  <Smiles>  (166) 
[NH3+]CCCCCC(=O)Nc1cc(Cl)cc(Br)c1OC(F)F

>  <canonical_smi>  (166) 
[NH3+]CCCCCC(=O)Nc1cc(Cl)cc(Br)c1OC(F)F

>  <Set>  (166) 
G2 inactive

>  <Set_type>  (166) 
Train

>  <MW>  (166) 
386.64

>  <HBD>  (166) 
2

>  <HBA>  (166) 
2

>  <NRB>  (166) 
8

>  <NR>  (166) 
1

>  <NAR>  (166) 
1

>  <PSA>  (166) 
65.97

>  <Standard Type>  (166) 
nan

>  <Standard Relation>  (166) 
nan

>  <Standard Units>  (166) 
nan

>  <Standard Value>  (166) 
nan

>  <Assay ChEMBL ID>  (166) 
nan

>  <Assay Description>  (166) 
nan

>  <BAO Label>  (166) 
nan

$$$$

     RDKit          2D

 27 31  0  0  0  0  0  0  0  0999 V2000
    0.4293  -10.8740    0.0000 C   0  0  0  0  0  0  0  0  0  0  0  0
    1.1793   -9.5750    0.0000 C   0  0  0  0  0  0  0  0  0  0  0  0
    2.6711   -9.4182    0.0000 C   0  0  0  0  0  0  0  0  0  0  0  0
    2.9829   -7.9510    0.0000 C   0  0  0  0  0  0  0  0  0  0  0  0
    4.3533   -7.3409    0.0000 C   0  0  0  0  0  0  0  0  0  0  0  0
    1.6839   -7.2010    0.0000 N   0  0  0  0  0  0  0  0  0  0  0  0
    1.5271   -5.7092    0.0000 C   0  0  0  0  0  0  0  0  0  0  0  0
    0.1568   -5.0991    0.0000 N   0  0  0  0  0  0  0  0  0  0  0  0
   -0.0000   -3.6073    0.0000 C   0  0  0  0  0  0  0  0  0  0  0  0
   -1.2135   -2.7256    0.0000 S   0  0  0  0  0  0  0  0  0  0  0  0
   -0.7500   -1.2990    0.0000 C   0  0  0  0  0  0  0  0  0  0  0  0
    0.7500   -1.2990    0.0000 C   0  0  0  0  0  0  0  0  0  0  0  0
    1.2135   -2.7256    0.0000 C   0  0  0  0  0  0  0  0  0  0  0  0
    2.5838   -3.3357    0.0000 C   0  0  0  0  0  0  0  0  0  0  0  0
    3.7974   -2.4540    0.0000 N   0  0  0  0  0  4  0  0  0  0  0  0
    5.1677   -3.0642    0.0000 C   0  0  0  0  0  0  0  0  0  0  0  0
    6.3812   -2.1825    0.0000 C   0  0  0  0  0  0  0  0  0  0  0  0
    6.3812   -0.6825    0.0000 C   0  0  0  0  0  0  0  0  0  0  0  0
    7.8078   -0.2190    0.0000 C   0  0  0  0  0  0  0  0  0  0  0  0
    8.6895   -1.4325    0.0000 C   0  0  0  0  0  0  0  0  0  0  0  0
    7.8078   -2.6460    0.0000 O   0  0  0  0  0  0  0  0  0  0  0  0
    2.7406   -4.8275    0.0000 N   0  0  0  0  0  2  0  0  0  0  0  0
    1.5000    0.0000    0.0000 C   0  0  0  0  0  0  0  0  0  0  0  0
    0.7500    1.2990    0.0000 C   0  0  0  0  0  0  0  0  0  0  0  0
   -0.7500    1.2990    0.0000 C   0  0  0  0  0  0  0  0  0  0  0  0
   -1.5000    0.0000    0.0000 C   0  0  0  0  0  0  0  0  0  0  0  0
    0.5692   -8.2047    0.0000 N   0  0  0  0  0  0  0  0  0  0  0  0
  1  2  1  0
  2  3  1  0
  3  4  2  0
  4  5  1  0
  4  6  1  0
  6  7  1  0
  7  8  2  0
  8  9  1  0
  9 10  1  0
 10 11  1  0
 11 12  2  0
 12 13  1  0
 13 14  1  0
 14 15  1  6
 15 16  1  0
 17 16  1  6
 17 18  1  0
 18 19  1  0
 19 20  1  0
 20 21  1  0
 14 22  1  0
 12 23  1  0
 23 24  1  0
 24 25  1  0
 25 26  1  0
  6 27  1  0
 27  2  2  0
 22  7  1  0
 13  9  2  0
 21 17  1  0
 26 11  1  0
M  CHG  2  15   1  22  -1
M  END
>  <Compound_ID>  (167) 
C28286503

>  <Active>  (167) 
0.0

>  <Smiles>  (167) 
Cc1cc(C)n(C2=Nc3sc4c(c3[C@H]([NH2+]C[C@@H]3CCCO3)[N-]2)CCCC4)n1

>  <canonical_smi>  (167) 
Cc1cc(C)n(C2=Nc3sc4c(c3[C@H]([NH2+]C[C@@H]3CCCO3)[N-]2)CCCC4)n1

>  <Set>  (167) 
G2 inactive

>  <Set_type>  (167) 
Train

>  <MW>  (167) 
385.54

>  <HBD>  (167) 
1

>  <HBA>  (167) 
2

>  <NRB>  (167) 
3

>  <NR>  (167) 
5

>  <NAR>  (167) 
2

>  <PSA>  (167) 
70.12

>  <Standard Type>  (167) 
nan

>  <Standard Relation>  (167) 
nan

>  <Standard Units>  (167) 
nan

>  <Standard Value>  (167) 
nan

>  <Assay ChEMBL ID>  (167) 
nan

>  <Assay Description>  (167) 
nan

>  <BAO Label>  (167) 
nan

$$$$

     RDKit          2D

 15 17  0  0  0  0  0  0  0  0999 V2000
   -4.8181    7.5646    0.0000 Cl  0  0  0  0  0  0  0  0  0  0  0  0
   -4.6613    6.0728    0.0000 C   0  0  0  0  0  0  0  0  0  0  0  0
   -3.2910    5.4627    0.0000 C   0  0  0  0  0  0  0  0  0  0  0  0
   -3.1342    3.9709    0.0000 C   0  0  0  0  0  0  0  0  0  0  0  0
   -4.2489    2.9672    0.0000 N   0  0  0  0  0  0  0  0  0  0  0  0
   -3.6388    1.5969    0.0000 O   0  0  0  0  0  0  0  0  0  0  0  0
   -2.1470    1.7537    0.0000 C   0  0  0  0  0  0  0  0  0  0  0  0
   -1.0323    0.7500    0.0000 C   0  0  0  0  0  0  0  0  0  0  0  0
    0.3943    1.2135    0.0000 C   0  0  0  0  0  0  0  0  0  0  0  0
    0.7062    2.6807    0.0000 C   0  0  0  0  0  0  0  0  0  0  0  0
   -0.4086    3.6844    0.0000 C   0  0  0  0  0  0  0  0  0  0  0  0
   -1.8351    3.2209    0.0000 C   0  0  0  0  0  0  0  0  0  0  0  0
    1.2760    0.0000    0.0000 O   0  0  0  0  0  0  0  0  0  0  0  0
    0.3943   -1.2135    0.0000 C   0  0  0  0  0  0  0  0  0  0  0  0
   -1.0323   -0.7500    0.0000 O   0  0  0  0  0  0  0  0  0  0  0  0
  1  2  1  0
  2  3  1  0
  3  4  1  0
  4  5  2  0
  5  6  1  0
  6  7  1  0
  7  8  2  0
  8  9  1  0
  9 10  2  0
 10 11  1  0
 11 12  2  0
  9 13  1  0
 13 14  1  0
 14 15  1  0
 12  4  1  0
 12  7  1  0
 15  8  1  0
M  END
>  <Compound_ID>  (168) 
C31888135

>  <Active>  (168) 
0.0

>  <Smiles>  (168) 
ClCCc1noc2c3c(ccc12)OCO3

>  <canonical_smi>  (168) 
ClCCc1noc2c3c(ccc12)OCO3

>  <Set>  (168) 
G2 inactive

>  <Set_type>  (168) 
Train

>  <MW>  (168) 
225.63

>  <HBD>  (168) 
0

>  <HBA>  (168) 
4

>  <NRB>  (168) 
2

>  <NR>  (168) 
3

>  <NAR>  (168) 
2

>  <PSA>  (168) 
44.49

>  <Standard Type>  (168) 
nan

>  <Standard Relation>  (168) 
nan

>  <Standard Units>  (168) 
nan

>  <Standard Value>  (168) 
nan

>  <Assay ChEMBL ID>  (168) 
nan

>  <Assay Description>  (168) 
nan

>  <BAO Label>  (168) 
nan

$$$$

     RDKit          2D

 14 15  0  0  0  0  0  0  0  0999 V2000
    0.4775   -7.0740    0.0000 C   0  0  0  0  0  0  0  0  0  0  0  0
    1.8478   -6.4639    0.0000 S   0  0  0  0  0  0  0  0  0  0  0  0
    2.0046   -4.9721    0.0000 C   0  0  0  0  0  0  0  0  0  0  0  0
    3.3037   -4.2221    0.0000 N   0  0  0  0  0  0  0  0  0  0  0  0
    2.9918   -2.7549    0.0000 N   0  0  0  0  0  0  0  0  0  0  0  0
    1.5000   -2.5981    0.0000 C   0  0  0  0  0  0  0  0  0  0  0  0
    0.7500   -1.2990    0.0000 C   0  0  0  0  0  0  0  0  0  0  0  0
    1.5000    0.0000    0.0000 C   0  0  0  0  0  0  0  0  0  0  0  0
    0.7500    1.2990    0.0000 N   0  0  0  0  0  0  0  0  0  0  0  0
   -0.7500    1.2990    0.0000 C   0  0  0  0  0  0  0  0  0  0  0  0
   -1.5000    0.0000    0.0000 C   0  0  0  0  0  0  0  0  0  0  0  0
   -3.0000    0.0000    0.0000 Cl  0  0  0  0  0  0  0  0  0  0  0  0
   -0.7500   -1.2990    0.0000 N   0  0  0  0  0  0  0  0  0  0  0  0
    0.8899   -3.9684    0.0000 S   0  0  0  0  0  0  0  0  0  0  0  0
  1  2  1  0
  2  3  1  0
  3  4  2  0
  4  5  1  0
  5  6  2  0
  6  7  1  0
  7  8  2  0
  8  9  1  0
  9 10  2  0
 10 11  1  0
 11 12  1  0
 11 13  2  0
  6 14  1  0
 14  3  1  0
 13  7  1  0
M  END
>  <Compound_ID>  (169) 
C44548985

>  <Active>  (169) 
0.0

>  <Smiles>  (169) 
CSc1nnc(-c2cncc(Cl)n2)s1

>  <canonical_smi>  (169) 
CSc1nnc(-c2cncc(Cl)n2)s1

>  <Set>  (169) 
G2 inactive

>  <Set_type>  (169) 
Train

>  <MW>  (169) 
244.73

>  <HBD>  (169) 
0

>  <HBA>  (169) 
5

>  <NRB>  (169) 
2

>  <NR>  (169) 
2

>  <NAR>  (169) 
2

>  <PSA>  (169) 
51.56

>  <Standard Type>  (169) 
nan

>  <Standard Relation>  (169) 
nan

>  <Standard Units>  (169) 
nan

>  <Standard Value>  (169) 
nan

>  <Assay ChEMBL ID>  (169) 
nan

>  <Assay Description>  (169) 
nan

>  <BAO Label>  (169) 
nan

$$$$

     RDKit          2D

 22 21  0  0  0  0  0  0  0  0999 V2000
   -9.0000   -7.7942    0.0000 C   0  0  0  0  0  0  0  0  0  0  0  0
   -9.7500   -6.4952    0.0000 C   0  0  0  0  0  0  0  0  0  0  0  0
   -9.0000   -5.1962    0.0000 C   0  0  0  0  0  0  0  0  0  0  0  0
   -7.5000   -5.1962    0.0000 C   0  0  0  0  0  0  0  0  0  0  0  0
   -6.7500   -3.8971    0.0000 C   0  0  0  0  0  0  0  0  0  0  0  0
   -5.2500   -3.8971    0.0000 C   0  0  0  0  0  0  0  0  0  0  0  0
   -4.5000   -2.5981    0.0000 C   0  0  0  0  0  0  0  0  0  0  0  0
   -3.0000   -2.5981    0.0000 C   0  0  0  0  0  0  0  0  0  0  0  0
   -2.2500   -1.2990    0.0000 C   0  0  0  0  0  0  0  0  0  0  0  0
   -0.7500   -1.2990    0.0000 C   0  0  0  0  0  0  0  0  0  0  0  0
    0.0000    0.0000    0.0000 C   0  0  0  0  0  0  0  0  0  0  0  0
   -0.7500    1.2990    0.0000 C   0  0  0  0  0  0  0  0  0  0  0  0
    1.5000    0.0000    0.0000 N   0  0  0  0  0  0  0  0  0  0  0  0
    2.2500   -1.2990    0.0000 N   0  0  0  0  0  0  0  0  0  0  0  0
    3.7500   -1.2990    0.0000 C   0  0  0  0  0  0  0  0  0  0  0  0
    4.5000   -2.5981    0.0000 N   0  0  0  0  0  0  0  0  0  0  0  0
    4.5000    0.0000    0.0000 S   0  0  0  0  0  0  0  0  0  0  0  0
  -11.2500   -6.4952    0.0000 N   0  0  0  0  0  0  0  0  0  0  0  0
  -12.0000   -5.1962    0.0000 N   0  0  0  0  0  0  0  0  0  0  0  0
  -13.5000   -5.1962    0.0000 C   0  0  0  0  0  0  0  0  0  0  0  0
  -14.2500   -3.8971    0.0000 N   0  0  0  0  0  0  0  0  0  0  0  0
  -14.2500   -6.4952    0.0000 S   0  0  0  0  0  0  0  0  0  0  0  0
  1  2  1  0
  2  3  1  0
  3  4  1  0
  4  5  1  0
  5  6  1  0
  6  7  1  0
  7  8  1  0
  8  9  1  0
  9 10  1  0
 10 11  1  0
 11 12  1  0
 11 13  2  0
 13 14  1  0
 14 15  1  0
 15 16  1  0
 15 17  2  0
  2 18  2  0
 18 19  1  0
 19 20  1  0
 20 21  1  0
 20 22  2  0
M  END
>  <Compound_ID>  (170) 
C17376146

>  <Active>  (170) 
0.0

>  <Smiles>  (170) 
C/C(CCCCCCCC/C(C)=N\NC(N)=S)=N/NC(N)=S

>  <canonical_smi>  (170) 
C/C(CCCCCCCC/C(C)=N\NC(N)=S)=N/NC(N)=S

>  <Set>  (170) 
G2 inactive

>  <Set_type>  (170) 
Train

>  <MW>  (170) 
344.55

>  <HBD>  (170) 
4

>  <HBA>  (170) 
6

>  <NRB>  (170) 
11

>  <NR>  (170) 
0

>  <NAR>  (170) 
0

>  <PSA>  (170) 
100.82

>  <Standard Type>  (170) 
nan

>  <Standard Relation>  (170) 
nan

>  <Standard Units>  (170) 
nan

>  <Standard Value>  (170) 
nan

>  <Assay ChEMBL ID>  (170) 
nan

>  <Assay Description>  (170) 
nan

>  <BAO Label>  (170) 
nan

$$$$

     RDKit          2D

 30 31  0  0  0  0  0  0  0  0999 V2000
   -7.5000  -10.3923    0.0000 O   0  0  0  0  0  0  0  0  0  0  0  0
   -6.0000  -10.3923    0.0000 C   0  0  0  0  0  0  0  0  0  0  0  0
   -5.2500   -9.0933    0.0000 C   0  0  0  0  0  0  0  0  0  0  0  0
   -6.0000   -7.7942    0.0000 O   0  0  0  0  0  0  0  0  0  0  0  0
   -3.7500   -9.0933    0.0000 C   0  0  0  0  0  0  0  0  0  0  0  0
   -3.0000  -10.3923    0.0000 O   0  0  0  0  0  0  0  0  0  0  0  0
   -3.0000   -7.7942    0.0000 C   0  0  0  0  0  0  0  0  0  0  0  0
   -3.7500   -6.4952    0.0000 O   0  0  0  0  0  0  0  0  0  0  0  0
   -1.5000   -7.7942    0.0000 C   0  0  0  0  0  0  0  0  0  0  0  0
   -0.7500   -9.0933    0.0000 O   0  0  0  0  0  0  0  0  0  0  0  0
   -0.7500   -6.4952    0.0000 C   0  0  0  0  0  0  0  0  0  0  0  0
   -1.5000   -5.1962    0.0000 O   0  0  0  0  0  0  0  0  0  0  0  0
    0.7500   -6.4952    0.0000 C   0  0  0  0  0  0  0  0  0  0  0  0
    1.5000   -5.1962    0.0000 C   0  0  0  0  0  0  0  0  0  0  0  0
    0.7500   -3.8971    0.0000 N   0  0  0  0  0  0  0  0  0  0  0  0
    1.5000   -2.5981    0.0000 N   0  0  0  0  0  0  0  0  0  0  0  0
    0.7500   -1.2990    0.0000 C   0  0  0  0  0  0  0  0  0  0  0  0
    1.5000    0.0000    0.0000 C   0  0  0  0  0  0  0  0  0  0  0  0
    0.7500    1.2990    0.0000 C   0  0  0  0  0  0  0  0  0  0  0  0
   -0.7500    1.2990    0.0000 C   0  0  0  0  0  0  0  0  0  0  0  0
   -1.5000    0.0000    0.0000 C   0  0  0  0  0  0  0  0  0  0  0  0
   -0.7500   -1.2990    0.0000 C   0  0  0  0  0  0  0  0  0  0  0  0
    1.5000   -7.7942    0.0000 N   0  0  0  0  0  0  0  0  0  0  0  0
    3.0000   -7.7942    0.0000 N   0  0  0  0  0  0  0  0  0  0  0  0
    3.7500   -9.0933    0.0000 C   0  0  0  0  0  0  0  0  0  0  0  0
    3.0000  -10.3923    0.0000 C   0  0  0  0  0  0  0  0  0  0  0  0
    3.7500  -11.6913    0.0000 C   0  0  0  0  0  0  0  0  0  0  0  0
    5.2500  -11.6913    0.0000 C   0  0  0  0  0  0  0  0  0  0  0  0
    6.0000  -10.3923    0.0000 C   0  0  0  0  0  0  0  0  0  0  0  0
    5.2500   -9.0933    0.0000 C   0  0  0  0  0  0  0  0  0  0  0  0
  1  2  1  0
  2  3  1  0
  3  4  1  1
  3  5  1  0
  5  6  1  6
  5  7  1  0
  7  8  1  1
  7  9  1  0
  9 10  1  1
  9 11  1  0
 11 12  1  6
 11 13  1  0
 13 14  1  0
 14 15  2  0
 15 16  1  0
 16 17  1  0
 17 18  2  0
 18 19  1  0
 19 20  2  0
 20 21  1  0
 21 22  2  0
 13 23  2  0
 23 24  1  0
 24 25  1  0
 25 26  2  0
 26 27  1  0
 27 28  2  0
 28 29  1  0
 29 30  2  0
 22 17  1  0
 30 25  1  0
M  END
>  <Compound_ID>  (171) 
C04403687

>  <Active>  (171) 
0.0

>  <Smiles>  (171) 
OC[C@@H](O)[C@@H](O)[C@@H](O)[C@H](O)[C@H](O)C(/C=N/Nc1ccccc1)=N/Nc1ccccc1

>  <canonical_smi>  (171) 
OC[C@@H](O)[C@@H](O)[C@@H](O)[C@H](O)[C@H](O)C(/C=N/Nc1ccccc1)=N/Nc1ccccc1

>  <Set>  (171) 
G2 inactive

>  <Set_type>  (171) 
Train

>  <MW>  (171) 
418.45

>  <HBD>  (171) 
8

>  <HBA>  (171) 
8

>  <NRB>  (171) 
11

>  <NR>  (171) 
2

>  <NAR>  (171) 
2

>  <PSA>  (171) 
170.16

>  <Standard Type>  (171) 
nan

>  <Standard Relation>  (171) 
nan

>  <Standard Units>  (171) 
nan

>  <Standard Value>  (171) 
nan

>  <Assay ChEMBL ID>  (171) 
nan

>  <Assay Description>  (171) 
nan

>  <BAO Label>  (171) 
nan

$$$$

     RDKit          2D

 23 24  0  0  0  0  0  0  0  0999 V2000
    7.5000   -2.5981    0.0000 C   0  0  0  0  0  0  0  0  0  0  0  0
    6.0000   -2.5981    0.0000 N   0  0  0  0  0  0  0  0  0  0  0  0
    5.2500   -1.2990    0.0000 C   0  0  0  0  0  0  0  0  0  0  0  0
    6.0000    0.0000    0.0000 N   0  0  0  0  0  0  0  0  0  0  0  0
    7.5000    0.0000    0.0000 C   0  0  0  0  0  0  0  0  0  0  0  0
    9.0000    0.0000    0.0000 N   0  0  0  0  0  0  0  0  0  0  0  0
    3.7500   -1.2990    0.0000 N   0  0  0  0  0  0  0  0  0  0  0  0
    3.0000    0.0000    0.0000 C   0  0  0  0  0  0  0  0  0  0  0  0
    1.5000    0.0000    0.0000 C   0  0  0  0  0  0  0  0  0  0  0  0
    0.7500   -1.2990    0.0000 C   0  0  0  0  0  0  0  0  0  0  0  0
   -0.7500   -1.2990    0.0000 C   0  0  0  0  0  0  0  0  0  0  0  0
   -1.5000    0.0000    0.0000 C   0  0  0  0  0  0  0  0  0  0  0  0
   -0.7500    1.2990    0.0000 C   0  0  0  0  0  0  0  0  0  0  0  0
   -1.5000    2.5981    0.0000 C   0  0  0  0  0  0  0  0  0  0  0  0
   -2.9918    2.7549    0.0000 C   0  0  0  0  0  0  0  0  0  0  0  0
   -3.3037    4.2221    0.0000 S   0  0  0  0  0  0  0  0  0  0  0  0
   -2.0046    4.9721    0.0000 C   0  0  0  0  0  0  0  0  0  0  0  0
   -1.8478    6.4639    0.0000 N   0  0  0  0  0  0  0  0  0  0  0  0
   -0.4775    7.0740    0.0000 C   0  0  0  0  0  0  0  0  0  0  0  0
   -0.3207    8.5658    0.0000 N   0  0  0  0  0  0  0  0  0  0  0  0
    0.7360    6.1923    0.0000 N   0  0  0  0  0  0  0  0  0  0  0  0
   -0.8899    3.9684    0.0000 N   0  0  0  0  0  0  0  0  0  0  0  0
    0.7500    1.2990    0.0000 N   0  0  0  0  0  0  0  0  0  0  0  0
  1  2  1  0
  2  3  2  0
  3  4  1  0
  4  5  1  0
  5  6  3  0
  3  7  1  0
  7  8  1  0
  8  9  1  0
  9 10  2  0
 10 11  1  0
 11 12  2  0
 12 13  1  0
 13 14  1  0
 14 15  2  0
 15 16  1  0
 16 17  1  0
 17 18  1  0
 18 19  2  0
 19 20  1  0
 19 21  1  0
 17 22  2  0
 13 23  2  0
 23  9  1  0
 22 14  1  0
M  END
>  <Compound_ID>  (172) 
C13600823

>  <Active>  (172) 
0.0

>  <Smiles>  (172) 
C/N=C(\NC#N)NCc1cccc(-c2csc(N=C(N)N)n2)n1

>  <canonical_smi>  (172) 
C/N=C(\NC#N)NCc1cccc(-c2csc(N=C(N)N)n2)n1

>  <Set>  (172) 
G2 inactive

>  <Set_type>  (172) 
Train

>  <MW>  (172) 
329.39

>  <HBD>  (172) 
4

>  <HBA>  (172) 
7

>  <NRB>  (172) 
4

>  <NR>  (172) 
2

>  <NAR>  (172) 
2

>  <PSA>  (172) 
150.39

>  <Standard Type>  (172) 
nan

>  <Standard Relation>  (172) 
nan

>  <Standard Units>  (172) 
nan

>  <Standard Value>  (172) 
nan

>  <Assay ChEMBL ID>  (172) 
nan

>  <Assay Description>  (172) 
nan

>  <BAO Label>  (172) 
nan

$$$$

     RDKit          2D

 25 25  0  0  0  0  0  0  0  0999 V2000
    6.0000   -2.5981    0.0000 C   0  0  0  0  0  0  0  0  0  0  0  0
    5.2500   -1.2990    0.0000 C   0  0  0  0  0  0  0  0  0  0  0  0
    6.0000    0.0000    0.0000 N   0  0  0  0  0  0  0  0  0  0  0  0
    7.5000   -0.0000    0.0000 C   0  0  0  0  0  0  0  0  0  0  0  0
    8.2500   -1.2990    0.0000 O   0  0  0  0  0  0  0  0  0  0  0  0
    8.2500    1.2990    0.0000 C   0  0  0  0  0  0  0  0  0  0  0  0
    9.7500    1.2990    0.0000 C   0  0  0  0  0  0  0  0  0  0  0  0
    7.5000    2.5981    0.0000 N   0  0  0  0  0  0  0  0  0  0  0  0
    8.2500    3.8971    0.0000 C   0  0  0  0  0  0  0  0  0  0  0  0
    9.7500    3.8971    0.0000 O   0  0  0  0  0  0  0  0  0  0  0  0
    7.5000    5.1962    0.0000 C   0  0  0  0  0  0  0  0  0  0  0  0
    8.2500    6.4952    0.0000 C   0  0  0  0  0  0  0  0  0  0  0  0
    6.0000    5.1962    0.0000 N   0  0  0  0  0  4  0  0  0  0  0  0
    3.7500   -1.2990    0.0000 C   0  0  0  0  0  0  0  0  0  0  0  0
    3.0000   -2.5981    0.0000 O   0  0  0  0  0  0  0  0  0  0  0  0
    3.0000    0.0000    0.0000 N   0  0  0  0  0  0  0  0  0  0  0  0
    1.5000    0.0000    0.0000 C   0  0  0  0  0  0  0  0  0  0  0  0
    0.7500   -1.2990    0.0000 C   0  0  0  0  0  0  0  0  0  0  0  0
   -0.7500   -1.2990    0.0000 C   0  0  0  0  0  0  0  0  0  0  0  0
   -1.5000    0.0000    0.0000 C   0  0  0  0  0  0  0  0  0  0  0  0
   -3.0000    0.0000    0.0000 N   0  0  0  0  0  4  0  0  0  0  0  0
   -3.7500   -1.2990    0.0000 O   0  0  0  0  0  0  0  0  0  0  0  0
   -3.7500    1.2990    0.0000 O   0  0  0  0  0  1  0  0  0  0  0  0
   -0.7500    1.2990    0.0000 C   0  0  0  0  0  0  0  0  0  0  0  0
    0.7500    1.2990    0.0000 C   0  0  0  0  0  0  0  0  0  0  0  0
  2  1  1  1
  2  3  1  0
  3  4  1  0
  4  5  2  0
  4  6  1  0
  6  7  1  6
  6  8  1  0
  8  9  1  0
  9 10  2  0
  9 11  1  0
 11 12  1  6
 11 13  1  0
  2 14  1  0
 14 15  2  0
 14 16  1  0
 16 17  1  0
 17 18  2  0
 18 19  1  0
 19 20  2  0
 20 21  1  0
 21 22  2  0
 21 23  1  0
 20 24  1  0
 24 25  2  0
 25 17  1  0
M  CHG  3  13   1  21   1  23  -1
M  END
>  <Compound_ID>  (173) 
C04533779

>  <Active>  (173) 
0.0

>  <Smiles>  (173) 
C[C@H](NC(=O)[C@@H](C)NC(=O)[C@@H](C)[NH3+])C(=O)Nc1ccc([N+](=O)[O-])cc1

>  <canonical_smi>  (173) 
C[C@H](NC(=O)[C@@H](C)NC(=O)[C@@H](C)[NH3+])C(=O)Nc1ccc([N+](=O)[O-])cc1

>  <Set>  (173) 
G2 inactive

>  <Set_type>  (173) 
Train

>  <MW>  (173) 
352.37

>  <HBD>  (173) 
4

>  <HBA>  (173) 
5

>  <NRB>  (173) 
7

>  <NR>  (173) 
1

>  <NAR>  (173) 
1

>  <PSA>  (173) 
158.08

>  <Standard Type>  (173) 
nan

>  <Standard Relation>  (173) 
nan

>  <Standard Units>  (173) 
nan

>  <Standard Value>  (173) 
nan

>  <Assay ChEMBL ID>  (173) 
nan

>  <Assay Description>  (173) 
nan

>  <BAO Label>  (173) 
nan

$$$$

     RDKit          2D

 26 27  0  0  0  0  0  0  0  0999 V2000
    0.7500  -11.6913    0.0000 N   0  0  0  0  0  0  0  0  0  0  0  0
    1.5000  -10.3923    0.0000 N   0  0  0  0  0  0  0  0  0  0  0  0
    0.7500   -9.0933    0.0000 C   0  0  0  0  0  0  0  0  0  0  0  0
   -0.7500   -9.0933    0.0000 S   0  0  0  0  0  0  0  0  0  0  0  0
    1.5000   -7.7942    0.0000 N   0  0  0  0  0  0  0  0  0  0  0  0
    0.7500   -6.4952    0.0000 N   0  0  0  0  0  0  0  0  0  0  0  0
    1.5000   -5.1962    0.0000 C   0  0  0  0  0  0  0  0  0  0  0  0
    0.7500   -3.8971    0.0000 C   0  0  0  0  0  0  0  0  0  0  0  0
   -0.7500   -3.8971    0.0000 O   0  0  0  0  0  0  0  0  0  0  0  0
    1.5000   -2.5981    0.0000 N   0  0  0  0  0  0  0  0  0  0  0  0
    0.7500   -1.2990    0.0000 C   0  0  0  0  0  0  0  0  0  0  0  0
    1.5000    0.0000    0.0000 C   0  0  0  0  0  0  0  0  0  0  0  0
    0.7500    1.2990    0.0000 C   0  0  0  0  0  0  0  0  0  0  0  0
   -0.7500    1.2990    0.0000 C   0  0  0  0  0  0  0  0  0  0  0  0
   -1.5000    0.0000    0.0000 C   0  0  0  0  0  0  0  0  0  0  0  0
   -3.0000    0.0000    0.0000 O   0  0  0  0  0  0  0  0  0  0  0  0
   -0.7500   -1.2990    0.0000 C   0  0  0  0  0  0  0  0  0  0  0  0
    3.0000   -5.1962    0.0000 C   0  0  0  0  0  0  0  0  0  0  0  0
    3.7500   -6.4952    0.0000 C   0  0  0  0  0  0  0  0  0  0  0  0
    3.0000   -7.7942    0.0000 O   0  0  0  0  0  0  0  0  0  0  0  0
    5.2500   -6.4952    0.0000 N   0  0  0  0  0  0  0  0  0  0  0  0
    6.0000   -5.1962    0.0000 C   0  0  0  0  0  0  0  0  0  0  0  0
    7.5000   -5.1962    0.0000 S   0  0  0  0  0  0  0  0  0  0  0  0
    5.2500   -3.8971    0.0000 N   0  0  0  0  0  0  0  0  0  0  0  0
    3.7500   -3.8971    0.0000 C   0  0  0  0  0  0  0  0  0  0  0  0
    3.0000   -2.5981    0.0000 O   0  0  0  0  0  0  0  0  0  0  0  0
  1  2  1  0
  2  3  1  0
  3  4  2  0
  3  5  1  0
  5  6  1  0
  6  7  2  0
  7  8  1  0
  8  9  2  0
  8 10  1  0
 10 11  1  0
 11 12  2  0
 12 13  1  0
 13 14  2  0
 14 15  1  0
 15 16  1  0
 15 17  2  0
  7 18  1  0
 18 19  1  0
 19 20  2  0
 19 21  1  0
 21 22  1  0
 22 23  2  0
 22 24  1  0
 24 25  1  0
 25 26  2  0
 17 11  1  0
 25 18  1  0
M  END
>  <Compound_ID>  (174) 
C16958163

>  <Active>  (174) 
0.0

>  <Smiles>  (174) 
NNC(=S)N/N=C(/C(=O)Nc1cccc(O)c1)C1C(=O)NC(=S)NC1=O

>  <canonical_smi>  (174) 
NNC(=S)N/N=C(/C(=O)Nc1cccc(O)c1)C1C(=O)NC(=S)NC1=O

>  <Set>  (174) 
G2 inactive

>  <Set_type>  (174) 
Train

>  <MW>  (174) 
395.43

>  <HBD>  (174) 
7

>  <HBA>  (174) 
9

>  <NRB>  (174) 
4

>  <NR>  (174) 
2

>  <NAR>  (174) 
1

>  <PSA>  (174) 
169.97

>  <Standard Type>  (174) 
nan

>  <Standard Relation>  (174) 
nan

>  <Standard Units>  (174) 
nan

>  <Standard Value>  (174) 
nan

>  <Assay ChEMBL ID>  (174) 
nan

>  <Assay Description>  (174) 
nan

>  <BAO Label>  (174) 
nan

$$$$

     RDKit          2D

 28 30  0  0  0  0  0  0  0  0999 V2000
    3.0000   -5.1962    0.0000 O   0  0  0  0  0  0  0  0  0  0  0  0
    1.5000   -5.1962    0.0000 C   0  0  0  0  0  0  0  0  0  0  0  0
    0.7500   -3.8971    0.0000 C   0  0  0  0  0  0  0  0  0  0  0  0
    1.5000   -2.5981    0.0000 N   0  0  0  0  0  4  0  0  0  0  0  0
    0.7500   -1.2990    0.0000 C   0  0  0  0  0  0  0  0  0  0  0  0
    1.5000    0.0000    0.0000 C   0  0  0  0  0  0  0  0  0  0  0  0
    0.7500    1.2990    0.0000 C   0  0  0  0  0  0  0  0  0  0  0  0
   -0.7500    1.2990    0.0000 C   0  0  0  0  0  0  0  0  0  0  0  0
   -1.5000    0.0000    0.0000 C   0  0  0  0  0  0  0  0  0  0  0  0
   -0.7500   -1.2990    0.0000 C   0  0  0  0  0  0  0  0  0  0  0  0
    0.7500   -6.4952    0.0000 C   0  0  0  0  0  0  0  0  0  0  0  0
    1.5000   -7.7942    0.0000 N   0  0  0  0  0  0  0  0  0  0  0  0
    0.7500   -9.0933    0.0000 C   0  0  0  0  0  0  0  0  0  0  0  0
    1.5000  -10.3923    0.0000 C   0  0  0  0  0  0  0  0  0  0  0  0
    3.0000  -10.3923    0.0000 N   0  0  0  0  0  0  0  0  0  0  0  0
    3.7500  -11.6913    0.0000 C   0  0  0  0  0  0  0  0  0  0  0  0
    3.0000  -12.9904    0.0000 C   0  0  0  0  0  0  0  0  0  0  0  0
    1.5000  -12.9904    0.0000 O   0  0  0  0  0  0  0  0  0  0  0  0
    3.7500  -14.2894    0.0000 C   0  0  0  0  0  0  0  0  0  0  0  0
    3.0000  -15.5885    0.0000 N   0  0  0  0  0  4  0  0  0  0  0  0
    3.7500  -16.8875    0.0000 C   0  0  0  0  0  0  0  0  0  0  0  0
    3.0000  -18.1865    0.0000 C   0  0  0  0  0  0  0  0  0  0  0  0
    3.7500  -19.4856    0.0000 C   0  0  0  0  0  0  0  0  0  0  0  0
    5.2500  -19.4856    0.0000 C   0  0  0  0  0  0  0  0  0  0  0  0
    6.0000  -18.1865    0.0000 C   0  0  0  0  0  0  0  0  0  0  0  0
    5.2500  -16.8875    0.0000 C   0  0  0  0  0  0  0  0  0  0  0  0
    3.7500   -9.0933    0.0000 C   0  0  0  0  0  0  0  0  0  0  0  0
    3.0000   -7.7942    0.0000 C   0  0  0  0  0  0  0  0  0  0  0  0
  2  1  1  1
  2  3  1  0
  3  4  1  0
  4  5  1  0
  5  6  1  0
  6  7  1  0
  7  8  1  0
  8  9  1  0
  9 10  1  0
  2 11  1  0
 11 12  1  0
 12 13  1  0
 13 14  1  0
 14 15  1  0
 15 16  1  0
 16 17  1  0
 17 18  1  1
 17 19  1  0
 19 20  1  0
 20 21  1  0
 21 22  1  0
 22 23  1  0
 23 24  1  0
 24 25  1  0
 25 26  1  0
 15 27  1  0
 27 28  1  0
 10  5  1  0
 28 12  1  0
 26 21  1  0
M  CHG  2   4   1  20   1
M  END
>  <Compound_ID>  (175) 
C20436810

>  <Active>  (175) 
0.0

>  <Smiles>  (175) 
O[C@H](C[NH2+]C1CCCCC1)CN1CCN(C[C@H](O)C[NH2+]C2CCCCC2)CC1

>  <canonical_smi>  (175) 
O[C@H](C[NH2+]C1CCCCC1)CN1CCN(C[C@H](O)C[NH2+]C2CCCCC2)CC1

>  <Set>  (175) 
G2 inactive

>  <Set_type>  (175) 
Train

>  <MW>  (175) 
398.64

>  <HBD>  (175) 
4

>  <HBA>  (175) 
4

>  <NRB>  (175) 
10

>  <NR>  (175) 
3

>  <NAR>  (175) 
0

>  <PSA>  (175) 
80.16

>  <Standard Type>  (175) 
nan

>  <Standard Relation>  (175) 
nan

>  <Standard Units>  (175) 
nan

>  <Standard Value>  (175) 
nan

>  <Assay ChEMBL ID>  (175) 
nan

>  <Assay Description>  (175) 
nan

>  <BAO Label>  (175) 
nan

$$$$

     RDKit          2D

 33 37  0  0  0  0  0  0  0  0999 V2000
    2.6401   -3.1891    0.0000 N   0  0  0  0  0  4  0  0  0  0  0  0
    1.2135   -2.7256    0.0000 C   0  0  0  0  0  0  0  0  0  0  0  0
    0.7500   -1.2990    0.0000 C   0  0  0  0  0  0  0  0  0  0  0  0
    1.5000    0.0000    0.0000 C   0  0  0  0  0  0  0  0  0  0  0  0
    0.7500    1.2990    0.0000 C   0  0  0  0  0  0  0  0  0  0  0  0
   -0.7500    1.2990    0.0000 C   0  0  0  0  0  0  0  0  0  0  0  0
   -1.5000    2.5981    0.0000 C   0  0  0  0  0  0  0  0  0  0  0  0
   -0.7500    3.8971    0.0000 C   0  0  0  0  0  0  0  0  0  0  0  0
   -1.5000    5.1962    0.0000 C   0  0  0  0  0  0  0  0  0  0  0  0
   -3.0000    5.1962    0.0000 N   0  0  0  0  0  4  0  0  0  0  0  0
   -3.7500    3.8971    0.0000 C   0  0  0  0  0  0  0  0  0  0  0  0
   -3.0000    2.5981    0.0000 C   0  0  0  0  0  0  0  0  0  0  0  0
   -1.5000    0.0000    0.0000 N   0  0  0  0  0  0  0  0  0  0  0  0
   -0.7500   -1.2990    0.0000 C   0  0  0  0  0  0  0  0  0  0  0  0
   -1.2135   -2.7256    0.0000 S   0  0  0  0  0  0  0  0  0  0  0  0
   -0.0000   -3.6073    0.0000 C   0  0  0  0  0  0  0  0  0  0  0  0
   -0.0000   -5.1073    0.0000 C   0  0  0  0  0  0  0  0  0  0  0  0
    1.2990   -5.8573    0.0000 O   0  0  0  0  0  0  0  0  0  0  0  0
   -1.2990   -5.8573    0.0000 N   0  0  0  0  0  0  0  0  0  0  0  0
   -1.2990   -7.3573    0.0000 C   0  0  0  0  0  0  0  0  0  0  0  0
   -0.0855   -8.2390    0.0000 N   0  0  0  0  0  0  0  0  0  0  0  0
   -0.5490   -9.6656    0.0000 N   0  0  0  0  0  0  0  0  0  0  0  0
   -2.0490   -9.6656    0.0000 C   0  0  0  0  0  0  0  0  0  0  0  0
   -2.9307  -10.8791    0.0000 S   0  0  0  0  0  0  0  0  0  0  0  0
   -4.4225  -10.7223    0.0000 C   0  0  0  0  0  0  0  0  0  0  0  0
   -5.3042  -11.9358    0.0000 C   0  0  0  0  0  0  0  0  0  0  0  0
   -6.7960  -11.7790    0.0000 C   0  0  0  0  0  0  0  0  0  0  0  0
   -7.6776  -12.9926    0.0000 C   0  0  0  0  0  0  0  0  0  0  0  0
   -7.0675  -14.3629    0.0000 C   0  0  0  0  0  0  0  0  0  0  0  0
   -5.5757  -14.5197    0.0000 C   0  0  0  0  0  0  0  0  0  0  0  0
   -4.6941  -13.3061    0.0000 C   0  0  0  0  0  0  0  0  0  0  0  0
   -3.2023  -13.4629    0.0000 Cl  0  0  0  0  0  0  0  0  0  0  0  0
   -2.5126   -8.2390    0.0000 S   0  0  0  0  0  0  0  0  0  0  0  0
  2  1  1  1
  2  3  1  0
  3  4  2  0
  4  5  1  0
  5  6  2  0
  6  7  1  0
  7  8  2  0
  8  9  1  0
  9 10  2  0
 10 11  1  0
 11 12  2  0
  6 13  1  0
 14 13  1  1
 14 15  1  0
 15 16  1  0
 16 17  1  1
 17 18  2  0
 17 19  1  0
 19 20  1  0
 20 21  2  0
 21 22  1  0
 22 23  2  0
 23 24  1  0
 24 25  1  0
 25 26  1  0
 26 27  2  0
 27 28  1  0
 28 29  2  0
 29 30  1  0
 30 31  2  0
 31 32  1  0
 23 33  1  0
 16  2  1  0
 33 20  1  0
 14  3  1  0
 31 26  1  0
 12  7  1  0
M  CHG  2   1   1  10   1
M  END
>  <Compound_ID>  (176) 
C39007259

>  <Active>  (176) 
0.0

>  <Smiles>  (176) 
[NH3+][C@@H]1C2=CC=C(c3cc[nH+]cc3)N[C@@H]2S[C@@H]1C(=O)Nc1nnc(SCc2ccccc2Cl)s1

>  <canonical_smi>  (176) 
[NH3+][C@@H]1C2=CC=C(c3cc[nH+]cc3)N[C@@H]2S[C@@H]1C(=O)Nc1nnc(SCc2ccccc2Cl)s1

>  <Set>  (176) 
G2 inactive

>  <Set_type>  (176) 
Train

>  <MW>  (176) 
517.11

>  <HBD>  (176) 
3

>  <HBA>  (176) 
6

>  <NRB>  (176) 
6

>  <NR>  (176) 
5

>  <NAR>  (176) 
3

>  <PSA>  (176) 
108.69

>  <Standard Type>  (176) 
nan

>  <Standard Relation>  (176) 
nan

>  <Standard Units>  (176) 
nan

>  <Standard Value>  (176) 
nan

>  <Assay ChEMBL ID>  (176) 
nan

>  <Assay Description>  (176) 
nan

>  <BAO Label>  (176) 
nan

$$$$

     RDKit          2D

 37 42  0  0  0  0  0  0  0  0999 V2000
    5.5434   10.9389    0.0000 C   0  0  0  0  0  0  0  0  0  0  0  0
    4.0434   10.9389    0.0000 O   0  0  0  0  0  0  0  0  0  0  0  0
    3.2934    9.6399    0.0000 C   0  0  0  0  0  0  0  0  0  0  0  0
    1.7934    9.6399    0.0000 C   0  0  0  0  0  0  0  0  0  0  0  0
    1.0434    8.3408    0.0000 C   0  0  0  0  0  0  0  0  0  0  0  0
    1.7934    7.0418    0.0000 C   0  0  0  0  0  0  0  0  0  0  0  0
    3.2934    7.0418    0.0000 C   0  0  0  0  0  0  0  0  0  0  0  0
    4.0434    8.3408    0.0000 C   0  0  0  0  0  0  0  0  0  0  0  0
    5.5434    8.3408    0.0000 O   0  0  0  0  0  0  0  0  0  0  0  0
    6.2934    7.0418    0.0000 C   0  0  0  0  0  0  0  0  0  0  0  0
    3.7570    5.6152    0.0000 C   0  0  0  0  0  0  0  0  0  0  0  0
    4.5070    4.3162    0.0000 O   0  0  0  0  0  0  0  0  0  0  0  0
    5.1273    6.2253    0.0000 C   0  0  0  0  0  0  0  0  0  0  0  0
    6.3408    5.3436    0.0000 C   0  0  0  0  0  0  0  0  0  0  0  0
    6.1840    3.8518    0.0000 C   0  0  0  0  0  0  0  0  0  0  0  0
    7.3975    2.9702    0.0000 C   0  0  0  0  0  0  0  0  0  0  0  0
    8.7678    3.5803    0.0000 C   0  0  0  0  0  0  0  0  0  0  0  0
    8.9246    5.0720    0.0000 C   0  0  0  0  0  0  0  0  0  0  0  0
    7.7111    5.9537    0.0000 C   0  0  0  0  0  0  0  0  0  0  0  0
    2.5434    4.7335    0.0000 O   0  0  0  0  0  0  0  0  0  0  0  0
    1.3299    5.6152    0.0000 C   0  0  0  0  0  0  0  0  0  0  0  0
   -0.0967    5.1517    0.0000 C   0  0  0  0  0  0  0  0  0  0  0  0
   -0.4086    3.6844    0.0000 C   0  0  0  0  0  0  0  0  0  0  0  0
   -1.8351    3.2209    0.0000 C   0  0  0  0  0  0  0  0  0  0  0  0
   -2.1470    1.7537    0.0000 C   0  0  0  0  0  0  0  0  0  0  0  0
   -1.0323    0.7500    0.0000 C   0  0  0  0  0  0  0  0  0  0  0  0
    0.3943    1.2135    0.0000 C   0  0  0  0  0  0  0  0  0  0  0  0
    0.7062    2.6807    0.0000 C   0  0  0  0  0  0  0  0  0  0  0  0
    2.1328    3.1443    0.0000 O   0  0  0  0  0  0  0  0  0  0  0  0
    3.2475    2.1406    0.0000 C   0  0  0  0  0  0  0  0  0  0  0  0
    1.2760    0.0000    0.0000 O   0  0  0  0  0  0  0  0  0  0  0  0
    0.3943   -1.2135    0.0000 C   0  0  0  0  0  0  0  0  0  0  0  0
   -1.0323   -0.7500    0.0000 O   0  0  0  0  0  0  0  0  0  0  0  0
   -2.9499    4.2246    0.0000 C   0  0  0  0  0  0  0  0  0  0  0  0
   -2.6380    5.6918    0.0000 C   0  0  0  0  0  0  0  0  0  0  0  0
   -1.2114    6.1554    0.0000 N   0  0  0  0  0  4  0  0  0  0  0  0
   -0.8995    7.6226    0.0000 C   0  0  0  0  0  0  0  0  0  0  0  0
  1  2  1  0
  2  3  1  0
  3  4  2  0
  4  5  1  0
  5  6  2  0
  6  7  1  0
  7  8  2  0
  8  9  1  0
  9 10  1  0
  7 11  1  0
 11 12  1  1
 11 13  1  0
 13 14  1  0
 14 15  2  0
 15 16  1  0
 16 17  2  0
 17 18  1  0
 18 19  2  0
 11 20  1  0
 21 20  1  6
 21 22  1  0
 22 23  1  0
 23 24  1  0
 24 25  2  0
 25 26  1  0
 26 27  2  0
 27 28  1  0
 28 29  1  0
 29 30  1  0
 27 31  1  0
 31 32  1  0
 32 33  1  0
 24 34  1  0
 34 35  1  0
 35 36  1  0
 36 37  1  0
  8  3  1  0
 19 14  1  0
 22 36  1  1
 21  6  1  0
 28 23  2  0
 33 26  1  0
M  CHG  1  36   1
M  END
>  <Compound_ID>  (177) 
C04886756

>  <Active>  (177) 
0.0

>  <Smiles>  (177) 
COc1ccc2c(c1OC)[C@](O)(Cc1ccccc1)O[C@@H]2[C@H]1c2c(cc3c(c2OC)OCO3)CC[NH+]1C

>  <canonical_smi>  (177) 
COc1ccc2c(c1OC)[C@](O)(Cc1ccccc1)O[C@@H]2[C@H]1c2c(cc3c(c2OC)OCO3)CC[NH+]1C

>  <Set>  (177) 
G2 inactive

>  <Set_type>  (177) 
Train

>  <MW>  (177) 
506.58

>  <HBD>  (177) 
2

>  <HBA>  (177) 
7

>  <NRB>  (177) 
6

>  <NR>  (177) 
6

>  <NAR>  (177) 
3

>  <PSA>  (177) 
80.05

>  <Standard Type>  (177) 
nan

>  <Standard Relation>  (177) 
nan

>  <Standard Units>  (177) 
nan

>  <Standard Value>  (177) 
nan

>  <Assay ChEMBL ID>  (177) 
nan

>  <Assay Description>  (177) 
nan

>  <BAO Label>  (177) 
nan

$$$$

     RDKit          2D

 28 30  0  0  0  0  0  0  0  0999 V2000
    2.3774    1.4529    0.0000 C   0  0  0  0  0  0  0  0  0  0  0  0
    2.3250    2.9520    0.0000 C   0  0  0  0  0  0  0  0  0  0  0  0
    0.8578    2.6401    0.0000 O   0  0  0  0  0  0  0  0  0  0  0  0
    0.3943    1.2135    0.0000 C   0  0  0  0  0  0  0  0  0  0  0  0
    1.2760    0.0000    0.0000 C   0  0  0  0  0  0  0  0  0  0  0  0
    0.3943   -1.2135    0.0000 N   0  0  0  0  0  0  0  0  0  0  0  0
   -1.0323   -0.7500    0.0000 C   0  0  0  0  0  0  0  0  0  0  0  0
   -2.3313   -1.5000    0.0000 C   0  0  0  0  0  0  0  0  0  0  0  0
   -3.6304   -0.7500    0.0000 C   0  0  0  0  0  0  0  0  0  0  0  0
   -3.6304    0.7500    0.0000 C   0  0  0  0  0  0  0  0  0  0  0  0
   -4.9294    1.5000    0.0000 Br  0  0  0  0  0  0  0  0  0  0  0  0
   -2.3313    1.5000    0.0000 C   0  0  0  0  0  0  0  0  0  0  0  0
   -2.3313    3.0000    0.0000 Cl  0  0  0  0  0  0  0  0  0  0  0  0
   -1.0323    0.7500    0.0000 C   0  0  0  0  0  0  0  0  0  0  0  0
    1.7631    4.3428    0.0000 O   0  0  0  0  0  0  0  0  0  0  0  0
    2.6866    5.5248    0.0000 C   0  0  0  0  0  0  0  0  0  0  0  0
    3.1502    6.9514    0.0000 C   0  0  0  0  0  0  0  0  0  0  0  0
    1.3622    6.2290    0.0000 C   0  0  0  0  0  0  0  0  0  0  0  0
    1.3099    7.7281    0.0000 O   0  0  0  0  0  0  0  0  0  0  0  0
    4.1720    5.3160    0.0000 C   0  0  0  0  0  0  0  0  0  0  0  0
    5.6393    5.6279    0.0000 C   0  0  0  0  0  0  0  0  0  0  0  0
    4.1197    6.8151    0.0000 O   0  0  0  0  0  0  0  0  0  0  0  0
    4.7339    3.9252    0.0000 C   0  0  0  0  0  0  0  0  0  0  0  0
    5.7376    2.8105    0.0000 C   0  0  0  0  0  0  0  0  0  0  0  0
    6.0060    4.7201    0.0000 O   0  0  0  0  0  0  0  0  0  0  0  0
    3.8104    2.7432    0.0000 C   0  0  0  0  0  0  0  0  0  0  0  0
    3.3469    1.3166    0.0000 C   0  0  0  0  0  0  0  0  0  0  0  0
    5.1349    2.0390    0.0000 O   0  0  0  0  0  0  0  0  0  0  0  0
  2  1  1  6
  2  3  1  0
  3  4  1  0
  4  5  2  0
  5  6  1  0
  6  7  1  0
  7  8  2  0
  8  9  1  0
  9 10  2  0
 10 11  1  0
 10 12  1  0
 12 13  1  0
 12 14  2  0
  2 15  1  0
 15 16  1  0
 16 17  1  6
 16 18  1  0
 18 19  1  0
 16 20  1  0
 20 21  1  1
 20 22  1  0
 20 23  1  0
 23 24  1  6
 23 25  1  0
 23 26  1  0
 26 27  1  6
 26 28  1  0
 26  2  1  0
 14  4  1  0
 14  7  1  0
M  END
>  <Compound_ID>  (178) 
C09915768

>  <Active>  (178) 
0.0

>  <Smiles>  (178) 
C[C@]1(Oc2c[nH]c3ccc(Br)c(Cl)c23)O[C@@](C)(CO)[C@](C)(O)[C@@](C)(O)[C@@]1(C)O

>  <canonical_smi>  (178) 
C[C@@]1(CO)O[C@](C)(Oc2c[nH]c3ccc(Br)c(Cl)c23)[C@](C)(O)[C@](C)(O)[C@@]1(C)O

>  <Set>  (178) 
G2 inactive

>  <Set_type>  (178) 
Train

>  <MW>  (178) 
478.77

>  <HBD>  (178) 
5

>  <HBA>  (178) 
6

>  <NRB>  (178) 
3

>  <NR>  (178) 
3

>  <NAR>  (178) 
2

>  <PSA>  (178) 
115.17

>  <Standard Type>  (178) 
nan

>  <Standard Relation>  (178) 
nan

>  <Standard Units>  (178) 
nan

>  <Standard Value>  (178) 
nan

>  <Assay ChEMBL ID>  (178) 
nan

>  <Assay Description>  (178) 
nan

>  <BAO Label>  (178) 
nan

$$$$

     RDKit          2D

 32 33  0  0  0  0  0  0  0  0999 V2000
    7.5000   -2.5981    0.0000 C   0  0  0  0  0  0  0  0  0  0  0  0
    6.7500   -1.2990    0.0000 C   0  0  0  0  0  0  0  0  0  0  0  0
    7.5000    0.0000    0.0000 O   0  0  0  0  0  0  0  0  0  0  0  0
    5.2500   -1.2990    0.0000 C   0  0  0  0  0  0  0  0  0  0  0  0
    5.2500   -2.7990    0.0000 C   0  0  0  0  0  0  0  0  0  0  0  0
    5.2500    0.2010    0.0000 C   0  0  0  0  0  0  0  0  0  0  0  0
    3.7500   -1.2990    0.0000 C   0  0  0  0  0  0  0  0  0  0  0  0
    3.0000   -2.5981    0.0000 O   0  0  0  0  0  0  0  0  0  0  0  0
    3.0000    0.0000    0.0000 O   0  0  0  0  0  0  0  0  0  0  0  0
    1.5000    0.0000    0.0000 C   0  0  0  0  0  0  0  0  0  0  0  0
    0.7500   -1.2990    0.0000 C   0  0  0  0  0  0  0  0  0  0  0  0
   -0.7500   -1.2990    0.0000 C   0  0  0  0  0  0  0  0  0  0  0  0
   -1.5000   -2.5981    0.0000 C   0  0  0  0  0  0  0  0  0  0  0  0
   -1.5000    0.0000    0.0000 C   0  0  0  0  0  0  0  0  0  0  0  0
   -0.7500    1.2990    0.0000 C   0  0  0  0  0  0  0  0  0  0  0  0
   -1.5000    2.5981    0.0000 C   0  0  0  0  0  0  0  0  0  0  0  0
   -0.7500    3.8971    0.0000 C   0  0  0  0  0  0  0  0  0  0  0  0
    0.7500    3.8971    0.0000 C   0  0  0  0  0  0  0  0  0  0  0  0
    1.5000    5.1962    0.0000 C   0  0  0  0  0  0  0  0  0  0  0  0
    1.5000    2.5981    0.0000 C   0  0  0  0  0  0  0  0  0  0  0  0
    3.0000    2.5981    0.0000 C   0  0  0  0  0  0  0  0  0  0  0  0
    3.7500    3.8971    0.0000 C   0  0  0  0  0  0  0  0  0  0  0  0
    5.2500    3.8971    0.0000 C   0  0  0  0  0  0  0  0  0  0  0  0
    6.0000    5.1962    0.0000 O   0  0  0  0  0  0  0  0  0  0  0  0
    6.0000    2.5981    0.0000 C   0  0  0  0  0  0  0  0  0  0  0  0
    7.5000    2.5981    0.0000 C   0  0  0  0  0  0  0  0  0  0  0  0
    8.2500    3.8971    0.0000 O   0  0  0  0  0  0  0  0  0  0  0  0
    8.2500    1.2990    0.0000 C   0  0  0  0  0  0  0  0  0  0  0  0
    9.7500    1.2990    0.0000 C   0  0  0  0  0  0  0  0  0  0  0  0
   10.5000    2.5981    0.0000 O   0  0  0  0  0  0  0  0  0  0  0  0
   10.5000    0.0000    0.0000 O   0  0  0  0  0  1  0  0  0  0  0  0
    0.7500    1.2990    0.0000 C   0  0  0  0  0  0  0  0  0  0  0  0
  2  1  1  1
  2  3  1  0
  2  4  1  0
  4  5  1  0
  4  6  1  0
  4  7  1  0
  7  8  2  0
  7  9  1  0
 10  9  1  1
 10 11  1  0
 11 12  1  0
 12 13  1  1
 12 14  1  0
 14 15  2  0
 15 16  1  0
 16 17  2  0
 17 18  1  0
 18 19  1  6
 18 20  1  0
 20 21  1  6
 21 22  1  0
 22 23  1  0
 23 24  1  1
 23 25  1  0
 25 26  1  0
 26 27  1  1
 26 28  1  0
 28 29  1  0
 29 30  2  0
 29 31  1  0
 20 32  1  0
 32 10  1  0
 32 15  1  1
M  CHG  1  31  -1
M  END
>  <Compound_ID>  (179) 
C22061225

>  <Active>  (179) 
0.0

>  <Smiles>  (179) 
C[C@H](O)C(C)(C)C(=O)O[C@H]1C[C@@H](C)C=C2C=C[C@H](C)[C@H](CC[C@@H](O)C[C@@H](O)CC(=O)[O-])[C@H]21

>  <canonical_smi>  (179) 
C[C@H](O)C(C)(C)C(=O)O[C@H]1C[C@@H](C)C=C2C=C[C@H](C)[C@H](CC[C@@H](O)C[C@@H](O)CC(=O)[O-])[C@H]21

>  <Set>  (179) 
G2 inactive

>  <Set_type>  (179) 
Train

>  <MW>  (179) 
451.58

>  <HBD>  (179) 
3

>  <HBA>  (179) 
7

>  <NRB>  (179) 
10

>  <NR>  (179) 
2

>  <NAR>  (179) 
0

>  <PSA>  (179) 
127.12

>  <Standard Type>  (179) 
nan

>  <Standard Relation>  (179) 
nan

>  <Standard Units>  (179) 
nan

>  <Standard Value>  (179) 
nan

>  <Assay ChEMBL ID>  (179) 
nan

>  <Assay Description>  (179) 
nan

>  <BAO Label>  (179) 
nan

$$$$

     RDKit          2D

 29 30  0  0  0  0  0  0  0  0999 V2000
    2.1328    3.1443    0.0000 C   0  0  0  0  0  0  0  0  0  0  0  0
    0.7062    2.6807    0.0000 C   0  0  0  0  0  0  0  0  0  0  0  0
   -0.4086    3.6844    0.0000 C   0  0  0  0  0  0  0  0  0  0  0  0
   -0.0967    5.1517    0.0000 C   0  0  0  0  0  0  0  0  0  0  0  0
   -1.8351    3.2209    0.0000 C   0  0  0  0  0  0  0  0  0  0  0  0
   -2.9499    4.2246    0.0000 S   0  0  0  0  0  0  0  0  0  0  0  0
   -1.9462    5.3393    0.0000 O   0  0  0  0  0  0  0  0  0  0  0  0
   -3.9535    3.1099    0.0000 O   0  0  0  0  0  0  0  0  0  0  0  0
   -4.0646    5.2283    0.0000 N   0  0  0  0  0  0  0  0  0  0  0  0
   -5.4912    4.7648    0.0000 N   0  0  0  0  0  4  0  0  0  0  0  0
   -6.6059    5.7685    0.0000 C   0  0  0  0  0  0  0  0  0  0  0  0
   -8.0325    5.3050    0.0000 N   0  0  0  0  0  0  0  0  0  0  0  0
   -9.1472    6.3086    0.0000 C   0  0  0  0  0  0  0  0  0  0  0  0
  -10.5738    5.8451    0.0000 C   0  0  0  0  0  0  0  0  0  0  0  0
  -11.6885    6.8488    0.0000 C   0  0  0  0  0  0  0  0  0  0  0  0
  -13.1151    6.3853    0.0000 C   0  0  0  0  0  0  0  0  0  0  0  0
  -13.4269    4.9181    0.0000 N   0  0  0  0  0  4  0  0  0  0  0  0
  -14.2298    7.3890    0.0000 C   0  0  0  0  0  0  0  0  0  0  0  0
  -13.9179    8.8562    0.0000 O   0  0  0  0  0  0  0  0  0  0  0  0
  -15.6564    6.9255    0.0000 O   0  0  0  0  0  1  0  0  0  0  0  0
   -2.1470    1.7537    0.0000 C   0  0  0  0  0  0  0  0  0  0  0  0
   -3.5736    1.2902    0.0000 C   0  0  0  0  0  0  0  0  0  0  0  0
   -1.0323    0.7500    0.0000 C   0  0  0  0  0  0  0  0  0  0  0  0
    0.3943    1.2135    0.0000 C   0  0  0  0  0  0  0  0  0  0  0  0
    1.2760    0.0000    0.0000 O   0  0  0  0  0  0  0  0  0  0  0  0
    0.3943   -1.2135    0.0000 C   0  0  0  0  0  0  0  0  0  0  0  0
    1.6933   -1.9635    0.0000 C   0  0  0  0  0  0  0  0  0  0  0  0
   -0.2158   -2.5838    0.0000 C   0  0  0  0  0  0  0  0  0  0  0  0
   -1.0323   -0.7500    0.0000 C   0  0  0  0  0  0  0  0  0  0  0  0
  1  2  1  0
  2  3  2  0
  3  4  1  0
  3  5  1  0
  5  6  1  0
  6  7  2  0
  6  8  2  0
  6  9  1  0
  9 10  1  0
 10 11  2  0
 11 12  1  0
 12 13  1  0
 13 14  1  0
 14 15  1  0
 15 16  1  0
 16 17  1  1
 16 18  1  0
 18 19  2  0
 18 20  1  0
  5 21  2  0
 21 22  1  0
 21 23  1  0
 23 24  2  0
 24 25  1  0
 25 26  1  0
 26 27  1  0
 26 28  1  0
 26 29  1  0
 24  2  1  0
 29 23  1  0
M  CHG  3  10   1  17   1  20  -1
M  END
>  <Compound_ID>  (180) 
C55161959

>  <Active>  (180) 
0.0

>  <Smiles>  (180) 
Cc1c(C)c(S(=O)(=O)N/[NH+]=C/NCCC[C@@H]([NH3+])C(=O)[O-])c(C)c2c1OC(C)(C)C2

>  <canonical_smi>  (180) 
Cc1c(C)c(S(=O)(=O)N/[NH+]=C/NCCC[C@@H]([NH3+])C(=O)[O-])c(C)c2c1OC(C)(C)C2

>  <Set>  (180) 
G2 inactive

>  <Set_type>  (180) 
Train

>  <MW>  (180) 
427.55

>  <HBD>  (180) 
4

>  <HBA>  (180) 
6

>  <NRB>  (180) 
9

>  <NR>  (180) 
2

>  <NAR>  (180) 
1

>  <PSA>  (180) 
149.17

>  <Standard Type>  (180) 
nan

>  <Standard Relation>  (180) 
nan

>  <Standard Units>  (180) 
nan

>  <Standard Value>  (180) 
nan

>  <Assay ChEMBL ID>  (180) 
nan

>  <Assay Description>  (180) 
nan

>  <BAO Label>  (180) 
nan

$$$$

     RDKit          2D

 32 33  0  0  0  0  0  0  0  0999 V2000
    2.6401   -3.1891    0.0000 C   0  0  0  0  0  0  0  0  0  0  0  0
    1.2135   -2.7256    0.0000 C   0  0  0  0  0  0  0  0  0  0  0  0
   -0.0000   -3.6073    0.0000 C   0  0  0  0  0  0  0  0  0  0  0  0
   -0.0000   -5.1073    0.0000 C   0  0  0  0  0  0  0  0  0  0  0  0
    1.2990   -5.8573    0.0000 O   0  0  0  0  0  0  0  0  0  0  0  0
   -1.2990   -5.8573    0.0000 N   0  0  0  0  0  0  0  0  0  0  0  0
   -1.2990   -7.3573    0.0000 N   0  0  0  0  0  0  0  0  0  0  0  0
   -2.5981   -8.1073    0.0000 C   0  0  0  0  0  0  0  0  0  0  0  0
   -1.8481   -9.4063    0.0000 C   0  0  0  0  0  0  0  0  0  0  0  0
   -3.3481   -6.8083    0.0000 C   0  0  0  0  0  0  0  0  0  0  0  0
   -3.8971   -8.8573    0.0000 C   0  0  0  0  0  0  0  0  0  0  0  0
   -1.2135   -2.7256    0.0000 O   0  0  0  0  0  0  0  0  0  0  0  0
   -0.7500   -1.2990    0.0000 C   0  0  0  0  0  0  0  0  0  0  0  0
    0.7500   -1.2990    0.0000 C   0  0  0  0  0  0  0  0  0  0  0  0
    1.5000    0.0000    0.0000 C   0  0  0  0  0  0  0  0  0  0  0  0
    3.0000    0.0000    0.0000 N   0  0  0  0  0  0  0  0  0  0  0  0
    3.7500    1.2990    0.0000 N   0  0  0  0  0  0  0  0  0  0  0  0
    5.2500    1.2990    0.0000 C   0  0  0  0  0  0  0  0  0  0  0  0
    6.0000   -0.0000    0.0000 O   0  0  0  0  0  1  0  0  0  0  0  0
    6.0000    2.5981    0.0000 C   0  0  0  0  0  0  0  0  0  0  0  0
    7.2990    1.8481    0.0000 F   0  0  0  0  0  0  0  0  0  0  0  0
    4.7010    3.3481    0.0000 F   0  0  0  0  0  0  0  0  0  0  0  0
    6.7500    3.8971    0.0000 C   0  0  0  0  0  0  0  0  0  0  0  0
    5.4510    4.6471    0.0000 F   0  0  0  0  0  0  0  0  0  0  0  0
    8.0490    3.1471    0.0000 F   0  0  0  0  0  0  0  0  0  0  0  0
    7.5000    5.1962    0.0000 C   0  0  0  0  0  0  0  0  0  0  0  0
    8.2500    6.4952    0.0000 F   0  0  0  0  0  0  0  0  0  0  0  0
    8.7990    4.4462    0.0000 F   0  0  0  0  0  0  0  0  0  0  0  0
    6.2010    5.9462    0.0000 F   0  0  0  0  0  0  0  0  0  0  0  0
    0.7500    1.2990    0.0000 C   0  0  0  0  0  0  0  0  0  0  0  0
   -0.7500    1.2990    0.0000 C   0  0  0  0  0  0  0  0  0  0  0  0
   -1.5000    0.0000    0.0000 C   0  0  0  0  0  0  0  0  0  0  0  0
  1  2  1  0
  2  3  2  0
  3  4  1  0
  4  5  2  0
  4  6  1  0
  6  7  1  0
  7  8  1  0
  8  9  1  0
  8 10  1  0
  8 11  1  0
  3 12  1  0
 12 13  1  0
 13 14  2  0
 14 15  1  0
 15 16  2  0
 16 17  1  0
 17 18  2  0
 18 19  1  0
 18 20  1  0
 20 21  1  0
 20 22  1  0
 20 23  1  0
 23 24  1  0
 23 25  1  0
 23 26  1  0
 26 27  1  0
 26 28  1  0
 26 29  1  0
 15 30  1  0
 30 31  1  0
 31 32  1  0
 14  2  1  0
 32 13  1  0
M  CHG  1  19  -1
M  END
>  <Compound_ID>  (181) 
C40823323

>  <Active>  (181) 
0.0

>  <Smiles>  (181) 
Cc1c(C(=O)NNC(C)(C)C)oc2c1/C(=N/N=C(\[O-])C(F)(F)C(F)(F)C(F)(F)F)CCC2

>  <canonical_smi>  (181) 
Cc1c(C(=O)NNC(C)(C)C)oc2c1/C(=N/N=C(\[O-])C(F)(F)C(F)(F)C(F)(F)F)CCC2

>  <Set>  (181) 
G2 inactive

>  <Set_type>  (181) 
Train

>  <MW>  (181) 
473.37

>  <HBD>  (181) 
2

>  <HBA>  (181) 
4

>  <NRB>  (181) 
5

>  <NR>  (181) 
2

>  <NAR>  (181) 
1

>  <PSA>  (181) 
102.05

>  <Standard Type>  (181) 
nan

>  <Standard Relation>  (181) 
nan

>  <Standard Units>  (181) 
nan

>  <Standard Value>  (181) 
nan

>  <Assay ChEMBL ID>  (181) 
nan

>  <Assay Description>  (181) 
nan

>  <BAO Label>  (181) 
nan

$$$$

     RDKit          2D

 34 37  0  0  0  0  0  0  0  0999 V2000
    3.7500   -1.2990    0.0000 N   0  0  0  0  0  0  0  0  0  0  0  0
    3.0000    0.0000    0.0000 C   0  0  0  0  0  0  0  0  0  0  0  0
    3.7500    1.2990    0.0000 N   0  0  0  0  0  4  0  0  0  0  0  0
    1.5000    0.0000    0.0000 C   0  0  0  0  0  0  0  0  0  0  0  0
    0.7500   -1.2990    0.0000 C   0  0  0  0  0  0  0  0  0  0  0  0
   -0.7500   -1.2990    0.0000 C   0  0  0  0  0  0  0  0  0  0  0  0
   -1.5000    0.0000    0.0000 C   0  0  0  0  0  0  0  0  0  0  0  0
   -2.9672    0.3119    0.0000 N   0  0  0  0  0  0  0  0  0  0  0  0
   -3.1240    1.8037    0.0000 C   0  0  0  0  0  0  0  0  0  0  0  0
   -4.4231    2.5537    0.0000 C   0  0  0  0  0  0  0  0  0  0  0  0
   -4.4231    4.0537    0.0000 C   0  0  0  0  0  0  0  0  0  0  0  0
   -5.7221    4.8037    0.0000 C   0  0  0  0  0  0  0  0  0  0  0  0
   -5.7221    6.3037    0.0000 C   0  0  0  0  0  0  0  0  0  0  0  0
   -4.4231    7.0537    0.0000 C   0  0  0  0  0  0  0  0  0  0  0  0
   -4.4231    8.5537    0.0000 C   0  0  0  0  0  0  0  0  0  0  0  0
   -5.7221    9.3037    0.0000 O   0  0  0  0  0  0  0  0  0  0  0  0
   -3.1240    9.3037    0.0000 O   0  0  0  0  0  1  0  0  0  0  0  0
   -7.0211    7.0537    0.0000 C   0  0  0  0  0  0  0  0  0  0  0  0
   -8.3202    6.3037    0.0000 O   0  0  0  0  0  0  0  0  0  0  0  0
   -7.0211    8.5537    0.0000 O   0  0  0  0  0  1  0  0  0  0  0  0
   -7.0211    4.0537    0.0000 C   0  0  0  0  0  0  0  0  0  0  0  0
   -7.0211    2.5537    0.0000 C   0  0  0  0  0  0  0  0  0  0  0  0
   -8.3202    1.8037    0.0000 C   0  0  0  0  0  0  0  0  0  0  0  0
   -9.6192    2.5537    0.0000 C   0  0  0  0  0  0  0  0  0  0  0  0
  -10.9182    1.8037    0.0000 C   0  0  0  0  0  0  0  0  0  0  0  0
  -10.9182    0.3037    0.0000 C   0  0  0  0  0  0  0  0  0  0  0  0
   -9.6192   -0.4463    0.0000 C   0  0  0  0  0  0  0  0  0  0  0  0
   -8.3202    0.3037    0.0000 C   0  0  0  0  0  0  0  0  0  0  0  0
   -7.0211   -0.4463    0.0000 F   0  0  0  0  0  0  0  0  0  0  0  0
   -5.7221    1.8037    0.0000 C   0  0  0  0  0  0  0  0  0  0  0  0
   -5.7221    0.3037    0.0000 O   0  0  0  0  0  1  0  0  0  0  0  0
   -1.7537    2.4138    0.0000 N   0  0  0  0  0  4  0  0  0  0  0  0
   -0.7500    1.2990    0.0000 C   0  0  0  0  0  0  0  0  0  0  0  0
    0.7500    1.2990    0.0000 C   0  0  0  0  0  0  0  0  0  0  0  0
  1  2  1  0
  2  3  2  0
  2  4  1  0
  4  5  2  0
  5  6  1  0
  6  7  2  0
  7  8  1  0
  8  9  1  0
  9 10  1  0
 10 11  2  0
 11 12  1  0
 12 13  1  0
 13 14  1  1
 14 15  1  0
 15 16  2  0
 15 17  1  0
 13 18  1  0
 18 19  2  0
 18 20  1  0
 12 21  2  0
 21 22  1  0
 22 23  1  0
 23 24  2  0
 24 25  1  0
 25 26  2  0
 26 27  1  0
 27 28  2  0
 28 29  1  0
 22 30  2  0
 30 31  1  0
  9 32  2  0
 32 33  1  0
 33 34  2  0
 34  4  1  0
 33  7  1  0
 30 10  1  0
 28 23  1  0
M  CHG  5   3   1  17  -1  20  -1  31  -1  32   1
M  END
>  <Compound_ID>  (182) 
C12501046

>  <Active>  (182) 
0.0

>  <Smiles>  (182) 
NC(=[NH2+])c1ccc2[nH]c(-c3cc([C@H](CC(=O)[O-])C(=O)[O-])cc(-c4ccccc4F)c3[O-])[nH+]c2c1

>  <canonical_smi>  (182) 
NC(=[NH2+])c1ccc2[nH]c(-c3cc([C@H](CC(=O)[O-])C(=O)[O-])cc(-c4ccccc4F)c3[O-])[nH+]c2c1

>  <Set>  (182) 
G2 inactive

>  <Set_type>  (182) 
Train

>  <MW>  (182) 
461.43

>  <HBD>  (182) 
3

>  <HBA>  (182) 
6

>  <NRB>  (182) 
7

>  <NR>  (182) 
4

>  <NAR>  (182) 
4

>  <PSA>  (182) 
184.86

>  <Standard Type>  (182) 
nan

>  <Standard Relation>  (182) 
nan

>  <Standard Units>  (182) 
nan

>  <Standard Value>  (182) 
nan

>  <Assay ChEMBL ID>  (182) 
nan

>  <Assay Description>  (182) 
nan

>  <BAO Label>  (182) 
nan

$$$$

     RDKit          2D

 21 22  0  0  0  0  0  0  0  0999 V2000
    3.7500   -1.2990    0.0000 C   0  0  0  0  0  0  0  0  0  0  0  0
    3.0000    0.0000    0.0000 O   0  0  0  0  0  0  0  0  0  0  0  0
    1.5000    0.0000    0.0000 C   0  0  0  0  0  0  0  0  0  0  0  0
    0.7500   -1.2990    0.0000 C   0  0  0  0  0  0  0  0  0  0  0  0
   -0.7500   -1.2990    0.0000 C   0  0  0  0  0  0  0  0  0  0  0  0
   -1.5000    0.0000    0.0000 C   0  0  0  0  0  0  0  0  0  0  0  0
   -3.0000    0.0000    0.0000 C   0  0  0  0  0  0  0  0  0  0  0  0
   -3.7500   -1.2990    0.0000 C   0  0  0  0  0  0  0  0  0  0  0  0
   -4.5000   -2.5981    0.0000 N   0  0  0  0  0  0  0  0  0  0  0  0
   -3.7500    1.2990    0.0000 C   0  0  0  0  0  0  0  0  0  0  0  0
   -5.2500    1.2990    0.0000 C   0  0  0  0  0  0  0  0  0  0  0  0
   -6.0000    2.5981    0.0000 C   0  0  0  0  0  0  0  0  0  0  0  0
   -5.2500    3.8971    0.0000 F   0  0  0  0  0  0  0  0  0  0  0  0
   -7.5000    2.5981    0.0000 C   0  0  0  0  0  0  0  0  0  0  0  0
   -8.2500    1.2990    0.0000 C   0  0  0  0  0  0  0  0  0  0  0  0
   -7.5000    0.0000    0.0000 C   0  0  0  0  0  0  0  0  0  0  0  0
   -6.0000    0.0000    0.0000 C   0  0  0  0  0  0  0  0  0  0  0  0
   -5.2500   -1.2990    0.0000 Cl  0  0  0  0  0  0  0  0  0  0  0  0
   -0.7500    1.2990    0.0000 C   0  0  0  0  0  0  0  0  0  0  0  0
    0.7500    1.2990    0.0000 C   0  0  0  0  0  0  0  0  0  0  0  0
    1.5000    2.5981    0.0000 F   0  0  0  0  0  0  0  0  0  0  0  0
  1  2  1  0
  2  3  1  0
  3  4  2  0
  4  5  1  0
  5  6  2  0
  6  7  1  0
  7  8  1  6
  8  9  3  0
  7 10  1  0
 10 11  1  0
 11 12  2  0
 12 13  1  0
 12 14  1  0
 14 15  2  0
 15 16  1  0
 16 17  2  0
 17 18  1  0
  6 19  1  0
 19 20  2  0
 20 21  1  0
 20  3  1  0
 17 11  1  0
M  END
>  <Compound_ID>  (183) 
C41540708

>  <Active>  (183) 
0.0

>  <Smiles>  (183) 
COc1ccc([C@H](C#N)Cc2c(F)cccc2Cl)cc1F

>  <canonical_smi>  (183) 
COc1ccc([C@H](C#N)Cc2c(F)cccc2Cl)cc1F

>  <Set>  (183) 
G2 inactive

>  <Set_type>  (183) 
Train

>  <MW>  (183) 
307.73

>  <HBD>  (183) 
0

>  <HBA>  (183) 
2

>  <NRB>  (183) 
4

>  <NR>  (183) 
2

>  <NAR>  (183) 
2

>  <PSA>  (183) 
33.02

>  <Standard Type>  (183) 
nan

>  <Standard Relation>  (183) 
nan

>  <Standard Units>  (183) 
nan

>  <Standard Value>  (183) 
nan

>  <Assay ChEMBL ID>  (183) 
nan

>  <Assay Description>  (183) 
nan

>  <BAO Label>  (183) 
nan

$$$$

     RDKit          2D

 21 23  0  0  0  0  0  0  0  0999 V2000
   -1.2114    6.1554    0.0000 C   0  0  0  0  0  0  0  0  0  0  0  0
   -2.6380    5.6918    0.0000 C   0  0  0  0  0  0  0  0  0  0  0  0
   -3.7527    6.6955    0.0000 C   0  0  0  0  0  0  0  0  0  0  0  0
   -2.9499    4.2246    0.0000 C   0  0  0  0  0  0  0  0  0  0  0  0
   -1.8351    3.2209    0.0000 N   0  0  0  0  0  0  0  0  0  0  0  0
   -0.4086    3.6844    0.0000 C   0  0  0  0  0  0  0  0  0  0  0  0
   -0.0967    5.1517    0.0000 O   0  0  0  0  0  0  0  0  0  0  0  0
    0.7062    2.6807    0.0000 N   0  0  0  0  0  0  0  0  0  0  0  0
    0.3943    1.2135    0.0000 C   0  0  0  0  0  0  0  0  0  0  0  0
    1.2760    0.0000    0.0000 S   0  0  0  0  0  0  0  0  0  0  0  0
    0.3943   -1.2135    0.0000 C   0  0  0  0  0  0  0  0  0  0  0  0
   -1.0323   -0.7500    0.0000 C   0  0  0  0  0  0  0  0  0  0  0  0
   -1.0323    0.7500    0.0000 C   0  0  0  0  0  0  0  0  0  0  0  0
   -2.1470    1.7537    0.0000 C   0  0  0  0  0  0  0  0  0  0  0  0
   -3.5736    1.2902    0.0000 O   0  0  0  0  0  0  0  0  0  0  0  0
   -1.9140   -1.9635    0.0000 C   0  0  0  0  0  0  0  0  0  0  0  0
   -3.4140   -1.9635    0.0000 C   0  0  0  0  0  0  0  0  0  0  0  0
   -4.1640   -0.6645    0.0000 C   0  0  0  0  0  0  0  0  0  0  0  0
   -1.0323   -3.1771    0.0000 C   0  0  0  0  0  0  0  0  0  0  0  0
   -1.4958   -4.6036    0.0000 C   0  0  0  0  0  0  0  0  0  0  0  0
    0.3943   -2.7135    0.0000 C   0  0  0  0  0  0  0  0  0  0  0  0
  1  2  2  0
  2  3  1  0
  2  4  1  0
  4  5  1  0
  5  6  1  0
  6  7  2  0
  6  8  1  0
  8  9  1  0
  9 10  1  0
 10 11  1  0
 11 12  2  0
 12 13  1  0
 13 14  1  0
 14 15  2  0
 12 16  1  0
 16 17  1  0
 17 18  1  0
 16 19  2  0
 19 20  1  0
 19 21  1  0
 14  5  1  0
 13  9  2  0
 21 11  1  0
M  END
>  <Compound_ID>  (184) 
C34726704

>  <Active>  (184) 
0.0

>  <Smiles>  (184) 
C=C(C)Cn1c(=O)[nH]c2sc3c(c2c1=O)C(CC)=C(C)C3

>  <canonical_smi>  (184) 
C=C(C)Cn1c(=O)[nH]c2sc3c(c2c1=O)C(CC)=C(C)C3

>  <Set>  (184) 
G2 inactive

>  <Set_type>  (184) 
Train

>  <MW>  (184) 
302.4

>  <HBD>  (184) 
1

>  <HBA>  (184) 
2

>  <NRB>  (184) 
3

>  <NR>  (184) 
3

>  <NAR>  (184) 
2

>  <PSA>  (184) 
54.86

>  <Standard Type>  (184) 
nan

>  <Standard Relation>  (184) 
nan

>  <Standard Units>  (184) 
nan

>  <Standard Value>  (184) 
nan

>  <Assay ChEMBL ID>  (184) 
nan

>  <Assay Description>  (184) 
nan

>  <BAO Label>  (184) 
nan

$$$$

     RDKit          2D

 29 31  0  0  0  0  0  0  0  0999 V2000
    3.7500   -1.2990    0.0000 C   0  0  0  0  0  0  0  0  0  0  0  0
    3.0000    0.0000    0.0000 O   0  0  0  0  0  0  0  0  0  0  0  0
    1.5000    0.0000    0.0000 C   0  0  0  0  0  0  0  0  0  0  0  0
    0.7500   -1.2990    0.0000 C   0  0  0  0  0  0  0  0  0  0  0  0
    1.5000   -2.5981    0.0000 F   0  0  0  0  0  0  0  0  0  0  0  0
   -0.7500   -1.2990    0.0000 C   0  0  0  0  0  0  0  0  0  0  0  0
   -1.5000   -2.5981    0.0000 F   0  0  0  0  0  0  0  0  0  0  0  0
   -1.5000    0.0000    0.0000 C   0  0  0  0  0  0  0  0  0  0  0  0
   -3.0000    0.0000    0.0000 S   0  0  0  0  0  0  0  0  0  0  0  0
   -3.0000    1.5000    0.0000 O   0  0  0  0  0  0  0  0  0  0  0  0
   -3.0000   -1.5000    0.0000 O   0  0  0  0  0  0  0  0  0  0  0  0
   -4.5000    0.0000    0.0000 N   0  0  0  0  0  0  0  0  0  0  0  0
   -5.2500   -1.2990    0.0000 C   0  0  0  0  0  0  0  0  0  0  0  0
   -6.7500   -1.2990    0.0000 C   0  0  0  0  0  0  0  0  0  0  0  0
   -4.5000   -2.5981    0.0000 C   0  0  0  0  0  0  0  0  0  0  0  0
   -5.2500   -3.8971    0.0000 C   0  0  0  0  0  0  0  0  0  0  0  0
   -4.5000   -5.1962    0.0000 C   0  0  0  0  0  0  0  0  0  0  0  0
   -3.0000   -5.1962    0.0000 C   0  0  0  0  0  0  0  0  0  0  0  0
   -2.2500   -6.4952    0.0000 N   0  0  0  0  0  0  0  0  0  0  0  0
   -0.7582   -6.6520    0.0000 C   0  0  0  0  0  0  0  0  0  0  0  0
   -0.4463   -8.1192    0.0000 C   0  0  0  0  0  0  0  0  0  0  0  0
   -1.7454   -8.8692    0.0000 N   0  0  0  0  0  0  0  0  0  0  0  0
   -2.8601   -7.8655    0.0000 C   0  0  0  0  0  0  0  0  0  0  0  0
   -2.2500   -3.8971    0.0000 C   0  0  0  0  0  0  0  0  0  0  0  0
   -3.0000   -2.5981    0.0000 C   0  0  0  0  0  0  0  0  0  0  0  0
   -0.7500    1.2990    0.0000 C   0  0  0  0  0  0  0  0  0  0  0  0
   -1.5000    2.5981    0.0000 F   0  0  0  0  0  0  0  0  0  0  0  0
    0.7500    1.2990    0.0000 C   0  0  0  0  0  0  0  0  0  0  0  0
    1.5000    2.5981    0.0000 F   0  0  0  0  0  0  0  0  0  0  0  0
  1  2  1  0
  2  3  1  0
  3  4  2  0
  4  5  1  0
  4  6  1  0
  6  7  1  0
  6  8  2  0
  8  9  1  0
  9 10  2  0
  9 11  2  0
  9 12  1  0
 12 13  1  0
 13 14  1  1
 13 15  1  0
 15 16  2  0
 16 17  1  0
 17 18  2  0
 18 19  1  0
 19 20  1  0
 20 21  2  0
 21 22  1  0
 22 23  2  0
 18 24  1  0
 24 25  2  0
  8 26  1  0
 26 27  1  0
 26 28  2  0
 28 29  1  0
 28  3  1  0
 25 15  1  0
 23 19  1  0
M  END
>  <Compound_ID>  (185) 
C32718991

>  <Active>  (185) 
0.0

>  <Smiles>  (185) 
COc1c(F)c(F)c(S(=O)(=O)N[C@H](C)c2ccc(-n3ccnc3)cc2)c(F)c1F

>  <canonical_smi>  (185) 
COc1c(F)c(F)c(S(=O)(=O)N[C@H](C)c2ccc(-n3ccnc3)cc2)c(F)c1F

>  <Set>  (185) 
G2 inactive

>  <Set_type>  (185) 
Train

>  <MW>  (185) 
429.4

>  <HBD>  (185) 
1

>  <HBA>  (185) 
4

>  <NRB>  (185) 
6

>  <NR>  (185) 
3

>  <NAR>  (185) 
3

>  <PSA>  (185) 
73.22

>  <Standard Type>  (185) 
nan

>  <Standard Relation>  (185) 
nan

>  <Standard Units>  (185) 
nan

>  <Standard Value>  (185) 
nan

>  <Assay ChEMBL ID>  (185) 
nan

>  <Assay Description>  (185) 
nan

>  <BAO Label>  (185) 
nan

$$$$

     RDKit          2D

 30 33  0  0  0  0  0  0  0  0999 V2000
   -0.0000   -8.1073    0.0000 H   0  0  0  0  0  0  0  0  0  0  0  0
   -1.2990   -7.3573    0.0000 N   0  0  0  0  0  0  0  0  0  0  0  0
   -1.2990   -5.8573    0.0000 C   0  0  0  0  0  0  0  0  0  0  0  0
   -2.5981   -5.1073    0.0000 N   0  0  0  0  0  0  0  0  0  0  0  0
   -3.8971   -5.8573    0.0000 C   0  0  0  0  0  0  0  0  0  0  0  0
   -3.8971   -7.3573    0.0000 O   0  0  0  0  0  1  0  0  0  0  0  0
   -5.1962   -5.1073    0.0000 C   0  0  0  0  0  0  0  0  0  0  0  0
   -5.1962   -3.6073    0.0000 S   0  0  0  0  0  0  0  0  0  0  0  0
   -3.8971   -2.8573    0.0000 C   0  0  0  0  0  0  0  0  0  0  0  0
   -2.5981   -3.6073    0.0000 C   0  0  0  0  0  0  0  0  0  0  0  0
   -1.2990   -2.8573    0.0000 C   0  0  0  0  0  0  0  0  0  0  0  0
   -1.2990   -1.3573    0.0000 C   0  0  0  0  0  0  0  0  0  0  0  0
   -2.5981   -0.6073    0.0000 C   0  0  0  0  0  0  0  0  0  0  0  0
   -3.8971   -1.3573    0.0000 C   0  0  0  0  0  0  0  0  0  0  0  0
   -6.4952   -5.8573    0.0000 C   0  0  0  0  0  0  0  0  0  0  0  0
   -7.7942   -5.1073    0.0000 C   0  0  0  0  0  0  0  0  0  0  0  0
   -9.0933   -5.8573    0.0000 C   0  0  0  0  0  0  0  0  0  0  0  0
   -9.0933   -7.3573    0.0000 C   0  0  0  0  0  0  0  0  0  0  0  0
   -7.7942   -8.1073    0.0000 C   0  0  0  0  0  0  0  0  0  0  0  0
   -6.4952   -7.3573    0.0000 C   0  0  0  0  0  0  0  0  0  0  0  0
   -0.0000   -5.1073    0.0000 N   0  0  0  0  0  0  0  0  0  0  0  0
    1.2990   -5.8573    0.0000 C   0  0  0  0  0  0  0  0  0  0  0  0
    2.6694   -5.2472    0.0000 N   0  0  0  0  0  0  0  0  0  0  0  0
    3.6731   -6.3619    0.0000 C   0  0  0  0  0  0  0  0  0  0  0  0
    5.1731   -6.3619    0.0000 C   0  0  0  0  0  0  0  0  0  0  0  0
    5.9231   -7.6610    0.0000 C   0  0  0  0  0  0  0  0  0  0  0  0
    5.1731   -8.9600    0.0000 C   0  0  0  0  0  0  0  0  0  0  0  0
    3.6731   -8.9600    0.0000 C   0  0  0  0  0  0  0  0  0  0  0  0
    2.9231   -7.6610    0.0000 C   0  0  0  0  0  0  0  0  0  0  0  0
    1.4558   -7.3491    0.0000 O   0  0  0  0  0  0  0  0  0  0  0  0
  1  2  1  0
  2  3  2  0
  3  4  1  0
  4  5  2  0
  5  6  1  0
  5  7  1  0
  7  8  1  1
  8  9  1  0
  9 10  2  0
 10 11  1  0
 11 12  2  0
 12 13  1  0
 13 14  2  0
  7 15  1  0
 15 16  2  0
 16 17  1  0
 17 18  2  0
 18 19  1  0
 19 20  2  0
  3 21  1  0
 21 22  1  0
 22 23  2  0
 23 24  1  0
 24 25  2  0
 25 26  1  0
 26 27  2  0
 27 28  1  0
 28 29  2  0
 29 30  1  0
 14  9  1  0
 20 15  1  0
 30 22  1  0
 29 24  1  0
M  CHG  1   6  -1
M  END
>  <Compound_ID>  (186) 
C06898926

>  <Active>  (186) 
0.0

>  <Smiles>  (186) 
[H]/N=C(/N=C(\[O-])[C@H](Sc1ccccc1)c1ccccc1)Nc1nc2ccccc2o1

>  <canonical_smi>  (186) 
[H]/N=C(/N=C(\[O-])[C@H](Sc1ccccc1)c1ccccc1)Nc1nc2ccccc2o1

>  <Set>  (186) 
G2 inactive

>  <Set_type>  (186) 
Train

>  <MW>  (186) 
401.47

>  <HBD>  (186) 
2

>  <HBA>  (186) 
5

>  <NRB>  (186) 
5

>  <NR>  (186) 
4

>  <NAR>  (186) 
4

>  <PSA>  (186) 
97.33

>  <Standard Type>  (186) 
nan

>  <Standard Relation>  (186) 
nan

>  <Standard Units>  (186) 
nan

>  <Standard Value>  (186) 
nan

>  <Assay ChEMBL ID>  (186) 
nan

>  <Assay Description>  (186) 
nan

>  <BAO Label>  (186) 
nan

$$$$

     RDKit          2D

 28 29  0  0  0  0  0  0  0  0999 V2000
    0.7500   -6.4952    0.0000 C   0  0  0  0  0  0  0  0  0  0  0  0
    1.5000   -5.1962    0.0000 C   0  0  0  0  0  0  0  0  0  0  0  0
    3.0000   -5.1962    0.0000 C   0  0  0  0  0  0  0  0  0  0  0  0
    0.7500   -3.8971    0.0000 C   0  0  0  0  0  0  0  0  0  0  0  0
    1.5000   -2.5981    0.0000 N   0  0  0  0  0  0  0  0  0  0  0  0
    3.0000   -2.5981    0.0000 C   0  0  0  0  0  0  0  0  0  0  0  0
    3.7500   -3.8971    0.0000 C   0  0  0  0  0  0  0  0  0  0  0  0
    5.2500   -3.8971    0.0000 C   0  0  0  0  0  0  0  0  0  0  0  0
    6.0000   -2.5981    0.0000 C   0  0  0  0  0  0  0  0  0  0  0  0
    7.5000   -2.5981    0.0000 C   0  0  0  0  0  0  0  0  0  0  0  0
    9.0000   -2.5981    0.0000 F   0  0  0  0  0  0  0  0  0  0  0  0
    7.5000   -4.0981    0.0000 F   0  0  0  0  0  0  0  0  0  0  0  0
    7.5000   -1.0981    0.0000 F   0  0  0  0  0  0  0  0  0  0  0  0
    5.2500   -1.2990    0.0000 C   0  0  0  0  0  0  0  0  0  0  0  0
    3.7500   -1.2990    0.0000 C   0  0  0  0  0  0  0  0  0  0  0  0
    3.0000    0.0000    0.0000 Cl  0  0  0  0  0  0  0  0  0  0  0  0
   -0.7500   -3.8971    0.0000 C   0  0  0  0  0  0  0  0  0  0  0  0
   -1.5000   -2.5981    0.0000 O   0  0  0  0  0  1  0  0  0  0  0  0
   -1.5000   -5.1962    0.0000 N   0  0  0  0  0  0  0  0  0  0  0  0
   -3.0000   -5.1962    0.0000 C   0  0  0  0  0  0  0  0  0  0  0  0
   -3.8817   -6.4097    0.0000 N   0  0  0  0  0  0  0  0  0  0  0  0
   -5.3083   -5.9462    0.0000 C   0  0  0  0  0  0  0  0  0  0  0  0
   -6.5218   -6.8278    0.0000 C   0  0  0  0  0  0  0  0  0  0  0  0
   -7.7353   -7.7095    0.0000 F   0  0  0  0  0  0  0  0  0  0  0  0
   -7.4035   -5.6143    0.0000 F   0  0  0  0  0  0  0  0  0  0  0  0
   -5.6401   -8.0414    0.0000 F   0  0  0  0  0  0  0  0  0  0  0  0
   -5.3083   -4.4462    0.0000 N   0  0  0  0  0  0  0  0  0  0  0  0
   -3.8817   -3.9826    0.0000 N   0  0  0  0  0  0  0  0  0  0  0  0
  1  2  1  0
  2  3  1  0
  2  4  1  0
  4  5  1  6
  5  6  1  0
  6  7  2  0
  7  8  1  0
  8  9  2  0
  9 10  1  0
 10 11  1  0
 10 12  1  0
 10 13  1  0
  9 14  1  0
 14 15  2  0
 15 16  1  0
  4 17  1  0
 17 18  1  0
 17 19  2  0
 19 20  1  0
 20 21  2  0
 21 22  1  0
 22 23  1  0
 23 24  1  0
 23 25  1  0
 23 26  1  0
 22 27  2  0
 27 28  1  0
 15  6  1  0
 28 20  1  0
M  CHG  1  18  -1
M  END
>  <Compound_ID>  (187) 
C12736728

>  <Active>  (187) 
0.0

>  <Smiles>  (187) 
CC(C)[C@@H](Nc1ccc(C(F)(F)F)cc1Cl)/C([O-])=N/c1nc(C(F)(F)F)n[nH]1

>  <canonical_smi>  (187) 
CC(C)[C@@H](Nc1ccc(C(F)(F)F)cc1Cl)/C([O-])=N/c1nc(C(F)(F)F)n[nH]1

>  <Set>  (187) 
G2 inactive

>  <Set_type>  (187) 
Train

>  <MW>  (187) 
428.74

>  <HBD>  (187) 
2

>  <HBA>  (187) 
4

>  <NRB>  (187) 
5

>  <NR>  (187) 
2

>  <NAR>  (187) 
2

>  <PSA>  (187) 
89.02

>  <Standard Type>  (187) 
nan

>  <Standard Relation>  (187) 
nan

>  <Standard Units>  (187) 
nan

>  <Standard Value>  (187) 
nan

>  <Assay ChEMBL ID>  (187) 
nan

>  <Assay Description>  (187) 
nan

>  <BAO Label>  (187) 
nan

$$$$

     RDKit          2D

 24 24  0  0  0  0  0  0  0  0999 V2000
   21.5260  -11.6913    0.0000 O   0  0  0  0  0  0  0  0  0  0  0  0
   20.7760  -10.3923    0.0000 C   0  0  0  0  0  0  0  0  0  0  0  0
   19.2760  -10.3923    0.0000 C   0  0  0  0  0  0  0  0  0  0  0  0
   18.5260  -11.6913    0.0000 O   0  0  0  0  0  0  0  0  0  0  0  0
   18.5260   -9.0933    0.0000 C   0  0  0  0  0  0  0  0  0  0  0  0
   17.0260   -9.0933    0.0000 O   0  0  0  0  0  0  0  0  0  0  0  0
   16.2760   -7.7942    0.0000 C   0  0  0  0  0  0  0  0  0  0  0  0
   14.7760   -7.7942    0.0000 C   0  0  0  0  0  0  0  0  0  0  0  0
   14.0260   -6.4952    0.0000 C   0  0  0  0  0  0  0  0  0  0  0  0
   12.5260   -6.4952    0.0000 C   0  0  0  0  0  0  0  0  0  0  0  0
   11.7760   -5.1962    0.0000 C   0  0  0  0  0  0  0  0  0  0  0  0
   10.2760   -5.1962    0.0000 C   0  0  0  0  0  0  0  0  0  0  0  0
    9.5260   -3.8971    0.0000 C   0  0  0  0  0  0  0  0  0  0  0  0
    8.0260   -3.8971    0.0000 C   0  0  0  0  0  0  0  0  0  0  0  0
    7.2760   -2.5981    0.0000 C   0  0  0  0  0  0  0  0  0  0  0  0
    5.7760   -2.5981    0.0000 C   0  0  0  0  0  0  0  0  0  0  0  0
    5.0260   -1.2990    0.0000 C   0  0  0  0  0  0  0  0  0  0  0  0
    3.5260   -1.2990    0.0000 C   0  0  0  0  0  0  0  0  0  0  0  0
    2.7760    0.0000    0.0000 C   0  0  0  0  0  0  0  0  0  0  0  0
    1.2760    0.0000    0.0000 C   0  0  0  0  0  0  0  0  0  0  0  0
    0.3943    1.2135    0.0000 C   0  0  0  0  0  0  0  0  0  0  0  0
   -1.0323    0.7500    0.0000 C   0  0  0  0  0  0  0  0  0  0  0  0
   -1.0323   -0.7500    0.0000 C   0  0  0  0  0  0  0  0  0  0  0  0
    0.3943   -1.2135    0.0000 C   0  0  0  0  0  0  0  0  0  0  0  0
  1  2  1  0
  2  3  1  0
  3  4  1  6
  3  5  1  0
  5  6  1  0
  6  7  1  0
  7  8  1  0
  8  9  1  0
  9 10  1  0
 10 11  1  0
 11 12  1  0
 12 13  1  0
 13 14  1  0
 14 15  1  0
 15 16  1  0
 16 17  1  0
 17 18  1  0
 18 19  1  0
 20 19  1  6
 20 21  1  0
 21 22  2  0
 22 23  1  0
 23 24  1  0
 24 20  1  0
M  END
>  <Compound_ID>  (188) 
C05600366

>  <Active>  (188) 
0.0

>  <Smiles>  (188) 
OC[C@H](O)COCCCCCCCCCCCCC[C@H]1C=CCC1

>  <canonical_smi>  (188) 
OC[C@H](O)COCCCCCCCCCCCCC[C@H]1C=CCC1

>  <Set>  (188) 
G2 inactive

>  <Set_type>  (188) 
Train

>  <MW>  (188) 
340.55

>  <HBD>  (188) 
2

>  <HBA>  (188) 
3

>  <NRB>  (188) 
17

>  <NR>  (188) 
1

>  <NAR>  (188) 
0

>  <PSA>  (188) 
49.69

>  <Standard Type>  (188) 
nan

>  <Standard Relation>  (188) 
nan

>  <Standard Units>  (188) 
nan

>  <Standard Value>  (188) 
nan

>  <Assay ChEMBL ID>  (188) 
nan

>  <Assay Description>  (188) 
nan

>  <BAO Label>  (188) 
nan

$$$$

     RDKit          2D

 21 20  0  0  0  0  0  0  0  0999 V2000
    0.0000    0.0000    0.0000 C   0  0  0  0  0  0  0  0  0  0  0  0
    1.2990    0.7500    0.0000 C   0  0  0  0  0  0  0  0  0  0  0  0
    2.5981   -0.0000    0.0000 C   0  0  0  0  0  0  0  0  0  0  0  0
    3.8971    0.7500    0.0000 N   0  0  0  0  0  4  0  0  0  0  0  0
    5.1962   -0.0000    0.0000 C   0  0  0  0  0  0  0  0  0  0  0  0
    6.4952    0.7500    0.0000 C   0  0  0  0  0  0  0  0  0  0  0  0
    7.7942   -0.0000    0.0000 C   0  0  0  0  0  0  0  0  0  0  0  0
    9.0933    0.7500    0.0000 N   0  0  0  0  0  0  0  0  0  0  0  0
   10.3923   -0.0000    0.0000 C   0  0  0  0  0  0  0  0  0  0  0  0
   11.6913    0.7500    0.0000 C   0  0  0  0  0  0  0  0  0  0  0  0
   12.9904   -0.0000    0.0000 C   0  0  0  0  0  0  0  0  0  0  0  0
   14.2894    0.7500    0.0000 O   0  0  0  0  0  0  0  0  0  0  0  0
   15.5885   -0.0000    0.0000 C   0  0  0  0  0  0  0  0  0  0  0  0
    9.0933    2.2500    0.0000 C   0  0  0  0  0  0  0  0  0  0  0  0
   10.3923    3.0000    0.0000 C   0  0  0  0  0  0  0  0  0  0  0  0
   10.3923    4.5000    0.0000 O   0  0  0  0  0  0  0  0  0  0  0  0
   11.6913    5.2500    0.0000 C   0  0  0  0  0  0  0  0  0  0  0  0
    5.1962   -1.5000    0.0000 C   0  0  0  0  0  0  0  0  0  0  0  0
    6.6962   -1.5000    0.0000 C   0  0  0  0  0  0  0  0  0  0  0  0
    3.6962   -1.5000    0.0000 C   0  0  0  0  0  0  0  0  0  0  0  0
    5.1962   -3.0000    0.0000 C   0  0  0  0  0  0  0  0  0  0  0  0
  1  2  1  0
  2  3  1  0
  3  4  1  0
  4  5  1  0
  5  6  1  6
  6  7  1  0
  7  8  1  0
  8  9  1  0
  9 10  1  0
 10 11  1  0
 11 12  1  0
 12 13  1  0
  8 14  1  0
 14 15  1  0
 15 16  1  0
 16 17  1  0
  5 18  1  0
 18 19  1  0
 18 20  1  0
 18 21  1  0
M  CHG  1   4   1
M  END
>  <Compound_ID>  (189) 
C54028929

>  <Active>  (189) 
0.0

>  <Smiles>  (189) 
CCC[NH2+][C@H](CCN(CCCOC)CCOC)C(C)(C)C

>  <canonical_smi>  (189) 
CCC[NH2+][C@H](CCN(CCCOC)CCOC)C(C)(C)C

>  <Set>  (189) 
G2 inactive

>  <Set_type>  (189) 
Train

>  <MW>  (189) 
303.51

>  <HBD>  (189) 
1

>  <HBA>  (189) 
3

>  <NRB>  (189) 
13

>  <NR>  (189) 
0

>  <NAR>  (189) 
0

>  <PSA>  (189) 
38.31

>  <Standard Type>  (189) 
nan

>  <Standard Relation>  (189) 
nan

>  <Standard Units>  (189) 
nan

>  <Standard Value>  (189) 
nan

>  <Assay ChEMBL ID>  (189) 
nan

>  <Assay Description>  (189) 
nan

>  <BAO Label>  (189) 
nan

$$$$

     RDKit          2D

 29 30  0  0  0  0  0  0  0  0999 V2000
   12.7500   -6.4952    0.0000 C   0  0  0  0  0  0  0  0  0  0  0  0
   12.0000   -5.1962    0.0000 C   0  0  0  0  0  0  0  0  0  0  0  0
   10.5000   -5.1962    0.0000 C   0  0  0  0  0  0  0  0  0  0  0  0
    9.7500   -3.8971    0.0000 C   0  0  0  0  0  0  0  0  0  0  0  0
    8.2500   -3.8971    0.0000 N   0  0  0  0  0  4  0  0  0  0  0  0
    7.5000   -5.1962    0.0000 C   0  0  0  0  0  0  0  0  0  0  0  0
    8.2500   -6.4952    0.0000 C   0  0  0  0  0  0  0  0  0  0  0  0
    7.5000   -7.7942    0.0000 C   0  0  0  0  0  0  0  0  0  0  0  0
    8.2500   -9.0933    0.0000 C   0  0  0  0  0  0  0  0  0  0  0  0
    7.5000   -2.5981    0.0000 C   0  0  0  0  0  0  0  0  0  0  0  0
    6.0000   -2.5981    0.0000 C   0  0  0  0  0  0  0  0  0  0  0  0
    5.2500   -1.2990    0.0000 C   0  0  0  0  0  0  0  0  0  0  0  0
    3.7500   -1.2990    0.0000 N   0  0  0  0  0  0  0  0  0  0  0  0
    3.0000    0.0000    0.0000 C   0  0  0  0  0  0  0  0  0  0  0  0
    1.5000    0.0000    0.0000 C   0  0  0  0  0  0  0  0  0  0  0  0
    0.7500   -1.2990    0.0000 C   0  0  0  0  0  0  0  0  0  0  0  0
   -0.7500   -1.2990    0.0000 C   0  0  0  0  0  0  0  0  0  0  0  0
   -1.5000    0.0000    0.0000 C   0  0  0  0  0  0  0  0  0  0  0  0
   -0.7500    1.2990    0.0000 C   0  0  0  0  0  0  0  0  0  0  0  0
   -1.5000    2.5981    0.0000 O   0  0  0  0  0  0  0  0  0  0  0  0
   -0.7500    3.8971    0.0000 C   0  0  0  0  0  0  0  0  0  0  0  0
   -1.5000    5.1962    0.0000 C   0  0  0  0  0  0  0  0  0  0  0  0
   -0.7500    6.4952    0.0000 C   0  0  0  0  0  0  0  0  0  0  0  0
   -1.5000    7.7942    0.0000 C   0  0  0  0  0  0  0  0  0  0  0  0
   -3.0000    7.7942    0.0000 C   0  0  0  0  0  0  0  0  0  0  0  0
   -3.7500    9.0933    0.0000 C   0  0  0  0  0  0  0  0  0  0  0  0
   -3.7500    6.4952    0.0000 C   0  0  0  0  0  0  0  0  0  0  0  0
   -3.0000    5.1962    0.0000 C   0  0  0  0  0  0  0  0  0  0  0  0
    0.7500    1.2990    0.0000 C   0  0  0  0  0  0  0  0  0  0  0  0
  1  2  1  0
  2  3  1  0
  3  4  1  0
  4  5  1  0
  5  6  1  0
  6  7  1  0
  7  8  1  0
  8  9  1  0
  5 10  1  0
 10 11  1  0
 11 12  1  0
 12 13  1  0
 13 14  1  0
 14 15  1  0
 15 16  2  0
 16 17  1  0
 17 18  2  0
 18 19  1  0
 19 20  1  0
 20 21  1  0
 21 22  1  0
 22 23  2  0
 23 24  1  0
 24 25  2  0
 25 26  1  0
 25 27  1  0
 27 28  2  0
 19 29  2  0
 29 15  1  0
 28 22  1  0
M  CHG  1   5   1
M  END
>  <Compound_ID>  (190) 
C13733916

>  <Active>  (190) 
0.0

>  <Smiles>  (190) 
CCCC[NH+](CCCC)CCCNCc1cccc(OCc2ccc(C)cc2)c1

>  <canonical_smi>  (190) 
CCCC[NH+](CCCC)CCCNCc1cccc(OCc2ccc(C)cc2)c1

>  <Set>  (190) 
G2 inactive

>  <Set_type>  (190) 
Train

>  <MW>  (190) 
397.63

>  <HBD>  (190) 
2

>  <HBA>  (190) 
2

>  <NRB>  (190) 
15

>  <NR>  (190) 
2

>  <NAR>  (190) 
2

>  <PSA>  (190) 
25.7

>  <Standard Type>  (190) 
nan

>  <Standard Relation>  (190) 
nan

>  <Standard Units>  (190) 
nan

>  <Standard Value>  (190) 
nan

>  <Assay ChEMBL ID>  (190) 
nan

>  <Assay Description>  (190) 
nan

>  <BAO Label>  (190) 
nan

$$$$

     RDKit          2D

 24 23  0  0  0  0  0  0  0  0999 V2000
   -2.2500   -1.2990    0.0000 C   0  0  0  0  0  0  0  0  0  0  0  0
   -0.7500   -1.2990    0.0000 C   0  0  0  0  0  0  0  0  0  0  0  0
    0.0000    0.0000    0.0000 C   0  0  0  0  0  0  0  0  0  0  0  0
    1.5000    0.0000    0.0000 C   0  0  0  0  0  0  0  0  0  0  0  0
    2.2500   -1.2990    0.0000 C   0  0  0  0  0  0  0  0  0  0  0  0
    3.7500   -1.2990    0.0000 C   0  0  0  0  0  0  0  0  0  0  0  0
    4.5000   -2.5981    0.0000 C   0  0  0  0  0  0  0  0  0  0  0  0
    3.7500   -3.8971    0.0000 C   0  0  0  0  0  0  0  0  0  0  0  0
    4.5000   -5.1962    0.0000 C   0  0  0  0  0  0  0  0  0  0  0  0
    3.7500   -6.4952    0.0000 C   0  0  0  0  0  0  0  0  0  0  0  0
    2.2500   -6.4952    0.0000 C   0  0  0  0  0  0  0  0  0  0  0  0
    1.5000   -7.7942    0.0000 C   0  0  0  0  0  0  0  0  0  0  0  0
    2.2500   -9.0933    0.0000 C   0  0  0  0  0  0  0  0  0  0  0  0
    3.7500   -9.0933    0.0000 C   0  0  0  0  0  0  0  0  0  0  0  0
    4.5000  -10.3923    0.0000 C   0  0  0  0  0  0  0  0  0  0  0  0
    3.7500  -11.6913    0.0000 C   0  0  0  0  0  0  0  0  0  0  0  0
    2.2500  -11.6913    0.0000 C   0  0  0  0  0  0  0  0  0  0  0  0
    1.5000  -12.9904    0.0000 C   0  0  0  0  0  0  0  0  0  0  0  0
    2.2500  -14.2894    0.0000 C   0  0  0  0  0  0  0  0  0  0  0  0
    1.5000  -15.5885    0.0000 C   0  0  0  0  0  0  0  0  0  0  0  0
    2.2500  -16.8875    0.0000 C   0  0  0  0  0  0  0  0  0  0  0  0
    1.5000  -18.1865    0.0000 C   0  0  0  0  0  0  0  0  0  0  0  0
    0.0000  -18.1865    0.0000 O   0  0  0  0  0  0  0  0  0  0  0  0
    2.2500  -19.4856    0.0000 O   0  0  0  0  0  1  0  0  0  0  0  0
  1  2  1  0
  2  3  1  0
  3  4  2  0
  4  5  1  0
  5  6  1  0
  6  7  2  0
  7  8  1  0
  8  9  1  0
  9 10  2  0
 10 11  1  0
 11 12  1  0
 12 13  2  0
 13 14  1  0
 14 15  1  0
 15 16  2  0
 16 17  1  0
 17 18  1  0
 18 19  2  0
 19 20  1  0
 20 21  1  0
 21 22  1  0
 22 23  2  0
 22 24  1  0
M  CHG  1  24  -1
M  END
>  <Compound_ID>  (191) 
C64219887

>  <Active>  (191) 
0.0

>  <Smiles>  (191) 
CC/C=C\C/C=C\C/C=C\C/C=C\C/C=C\C/C=C/CCC(=O)[O-]

>  <canonical_smi>  (191) 
CC/C=C\C/C=C\C/C=C\C/C=C\C/C=C\C/C=C/CCC(=O)[O-]

>  <Set>  (191) 
G2 inactive

>  <Set_type>  (191) 
Train

>  <MW>  (191) 
327.49

>  <HBD>  (191) 
0

>  <HBA>  (191) 
2

>  <NRB>  (191) 
14

>  <NR>  (191) 
0

>  <NAR>  (191) 
0

>  <PSA>  (191) 
40.13

>  <Standard Type>  (191) 
nan

>  <Standard Relation>  (191) 
nan

>  <Standard Units>  (191) 
nan

>  <Standard Value>  (191) 
nan

>  <Assay ChEMBL ID>  (191) 
nan

>  <Assay Description>  (191) 
nan

>  <BAO Label>  (191) 
nan

$$$$

     RDKit          2D

 21 22  0  0  0  0  0  0  0  0999 V2000
    3.0000    0.0000    0.0000 N   0  0  0  0  0  0  0  0  0  0  0  0
    1.5000    0.0000    0.0000 C   0  0  0  0  0  0  0  0  0  0  0  0
    0.7500   -1.2990    0.0000 C   0  0  0  0  0  0  0  0  0  0  0  0
   -0.7500   -1.2990    0.0000 C   0  0  0  0  0  0  0  0  0  0  0  0
   -1.5000    0.0000    0.0000 C   0  0  0  0  0  0  0  0  0  0  0  0
   -3.0000    0.0000    0.0000 F   0  0  0  0  0  0  0  0  0  0  0  0
   -0.7500    1.2990    0.0000 C   0  0  0  0  0  0  0  0  0  0  0  0
    0.7500    1.2990    0.0000 C   0  0  0  0  0  0  0  0  0  0  0  0
    1.5000    2.5981    0.0000 N   0  0  0  0  0  2  0  0  0  0  0  0
    0.7500    3.8971    0.0000 S   0  0  0  0  0  0  0  0  0  0  0  0
   -0.5490    3.1471    0.0000 O   0  0  0  0  0  0  0  0  0  0  0  0
    2.0490    4.6471    0.0000 O   0  0  0  0  0  0  0  0  0  0  0  0
    0.0000    5.1962    0.0000 C   0  0  0  0  0  0  0  0  0  0  0  0
    0.7500    6.4952    0.0000 C   0  0  0  0  0  0  0  0  0  0  0  0
    2.2500    6.4952    0.0000 F   0  0  0  0  0  0  0  0  0  0  0  0
   -0.0000    7.7942    0.0000 C   0  0  0  0  0  0  0  0  0  0  0  0
   -1.5000    7.7942    0.0000 C   0  0  0  0  0  0  0  0  0  0  0  0
   -2.2500    9.0933    0.0000 F   0  0  0  0  0  0  0  0  0  0  0  0
   -2.2500    6.4952    0.0000 C   0  0  0  0  0  0  0  0  0  0  0  0
   -1.5000    5.1962    0.0000 C   0  0  0  0  0  0  0  0  0  0  0  0
   -2.2500    3.8971    0.0000 F   0  0  0  0  0  0  0  0  0  0  0  0
  1  2  1  0
  2  3  2  0
  3  4  1  0
  4  5  2  0
  5  6  1  0
  5  7  1  0
  7  8  2  0
  8  9  1  0
  9 10  1  0
 10 11  2  0
 10 12  2  0
 10 13  1  0
 13 14  2  0
 14 15  1  0
 14 16  1  0
 16 17  2  0
 17 18  1  0
 17 19  1  0
 19 20  2  0
 20 21  1  0
  8  2  1  0
 20 13  1  0
M  CHG  1   9  -1
M  END
>  <Compound_ID>  (192) 
C63209272

>  <Active>  (192) 
0.0

>  <Smiles>  (192) 
Nc1ccc(F)cc1[N-]S(=O)(=O)c1c(F)cc(F)cc1F

>  <canonical_smi>  (192) 
Nc1ccc(F)cc1[N-]S(=O)(=O)c1c(F)cc(F)cc1F

>  <Set>  (192) 
G2 inactive

>  <Set_type>  (192) 
Train

>  <MW>  (192) 
319.26

>  <HBD>  (192) 
1

>  <HBA>  (192) 
3

>  <NRB>  (192) 
3

>  <NR>  (192) 
2

>  <NAR>  (192) 
2

>  <PSA>  (192) 
74.26

>  <Standard Type>  (192) 
nan

>  <Standard Relation>  (192) 
nan

>  <Standard Units>  (192) 
nan

>  <Standard Value>  (192) 
nan

>  <Assay ChEMBL ID>  (192) 
nan

>  <Assay Description>  (192) 
nan

>  <BAO Label>  (192) 
nan

$$$$

     RDKit          2D

 22 24  0  0  0  0  0  0  0  0999 V2000
    1.6910   -7.9557    0.0000 N   0  0  0  0  0  0  0  0  0  0  0  0
    1.8478   -6.4639    0.0000 S   0  0  0  0  0  0  0  0  0  0  0  0
    0.3560   -6.3071    0.0000 O   0  0  0  0  0  0  0  0  0  0  0  0
    3.3396   -6.6207    0.0000 O   0  0  0  0  0  0  0  0  0  0  0  0
    2.0046   -4.9721    0.0000 C   0  0  0  0  0  0  0  0  0  0  0  0
    3.3037   -4.2221    0.0000 C   0  0  0  0  0  0  0  0  0  0  0  0
    2.9918   -2.7549    0.0000 N   0  0  0  0  0  0  0  0  0  0  0  0
    1.5000   -2.5981    0.0000 C   0  0  0  0  0  0  0  0  0  0  0  0
    0.7500   -1.2990    0.0000 N   0  0  0  0  0  0  0  0  0  0  0  0
    1.5000    0.0000    0.0000 C   0  0  0  0  0  0  0  0  0  0  0  0
    0.7500    1.2990    0.0000 C   0  0  0  0  0  0  0  0  0  0  0  0
   -0.7500    1.2990    0.0000 O   0  0  0  0  0  0  0  0  0  0  0  0
   -1.5000    0.0000    0.0000 C   0  0  0  0  0  0  0  0  0  0  0  0
   -3.0000    0.0000    0.0000 C   0  0  0  0  0  0  0  0  0  0  0  0
   -3.7500    1.2990    0.0000 C   0  0  0  0  0  0  0  0  0  0  0  0
   -5.2500    1.2990    0.0000 C   0  0  0  0  0  0  0  0  0  0  0  0
   -6.0000    0.0000    0.0000 C   0  0  0  0  0  0  0  0  0  0  0  0
   -5.2500   -1.2990    0.0000 C   0  0  0  0  0  0  0  0  0  0  0  0
   -3.7500   -1.2990    0.0000 C   0  0  0  0  0  0  0  0  0  0  0  0
   -3.0000   -2.5981    0.0000 F   0  0  0  0  0  0  0  0  0  0  0  0
   -0.7500   -1.2990    0.0000 C   0  0  0  0  0  0  0  0  0  0  0  0
    0.8899   -3.9684    0.0000 S   0  0  0  0  0  0  0  0  0  0  0  0
  1  2  1  0
  2  3  2  0
  2  4  2  0
  2  5  1  0
  5  6  2  0
  6  7  1  0
  7  8  2  0
  8  9  1  0
  9 10  1  0
 10 11  1  0
 11 12  1  0
 12 13  1  0
 13 14  1  6
 14 15  2  0
 15 16  1  0
 16 17  2  0
 17 18  1  0
 18 19  2  0
 19 20  1  0
 13 21  1  0
  8 22  1  0
 22  5  1  0
 21  9  1  0
 19 14  1  0
M  END
>  <Compound_ID>  (193) 
C66814191

>  <Active>  (193) 
0.0

>  <Smiles>  (193) 
NS(=O)(=O)c1cnc(N2CCO[C@@H](c3ccccc3F)C2)s1

>  <canonical_smi>  (193) 
NS(=O)(=O)c1cnc(N2CCO[C@@H](c3ccccc3F)C2)s1

>  <Set>  (193) 
G2 inactive

>  <Set_type>  (193) 
Train

>  <MW>  (193) 
343.41

>  <HBD>  (193) 
1

>  <HBA>  (193) 
5

>  <NRB>  (193) 
3

>  <NR>  (193) 
3

>  <NAR>  (193) 
2

>  <PSA>  (193) 
85.52

>  <Standard Type>  (193) 
nan

>  <Standard Relation>  (193) 
nan

>  <Standard Units>  (193) 
nan

>  <Standard Value>  (193) 
nan

>  <Assay ChEMBL ID>  (193) 
nan

>  <Assay Description>  (193) 
nan

>  <BAO Label>  (193) 
nan

$$$$

     RDKit          2D

 22 25  0  0  0  0  0  0  0  0999 V2000
   -1.0409   -8.3049    0.0000 N   0  0  0  0  0  0  0  0  0  0  0  0
   -0.5773   -6.8783    0.0000 C   0  0  0  0  0  0  0  0  0  0  0  0
   -1.5810   -5.7636    0.0000 O   0  0  0  0  0  0  0  0  0  0  0  0
    0.8899   -6.5665    0.0000 C   0  0  0  0  0  0  0  0  0  0  0  0
    2.0046   -7.5702    0.0000 C   0  0  0  0  0  0  0  0  0  0  0  0
    3.3037   -6.8202    0.0000 C   0  0  0  0  0  0  0  0  0  0  0  0
    4.6740   -7.4303    0.0000 O   0  0  0  0  0  0  0  0  0  0  0  0
    2.9918   -5.3529    0.0000 C   0  0  0  0  0  0  0  0  0  0  0  0
    1.5000   -5.1962    0.0000 N   0  0  0  0  0  0  0  0  0  0  0  0
    0.7500   -3.8971    0.0000 C   0  0  0  0  0  0  0  0  0  0  0  0
   -0.7500   -3.8971    0.0000 O   0  0  0  0  0  0  0  0  0  0  0  0
    1.5000   -2.5981    0.0000 C   0  0  0  0  0  0  0  0  0  0  0  0
    0.7500   -1.2990    0.0000 C   0  0  0  0  0  0  0  0  0  0  0  0
    1.5000    0.0000    0.0000 C   0  0  0  0  0  0  0  0  0  0  0  0
    0.7500    1.2990    0.0000 C   0  0  0  0  0  0  0  0  0  0  0  0
   -0.7500    1.2990    0.0000 C   0  0  0  0  0  0  0  0  0  0  0  0
   -1.5000    0.0000    0.0000 C   0  0  0  0  0  0  0  0  0  0  0  0
    1.7010   -0.7500    0.0000 C   0  0  0  0  0  0  0  0  0  0  0  0
    3.0000   -0.0000    0.0000 C   0  0  0  0  0  0  0  0  0  0  0  0
    2.2500    1.2990    0.0000 C   0  0  0  0  0  0  0  0  0  0  0  0
    2.2500   -1.2990    0.0000 C   0  0  0  0  0  0  0  0  0  0  0  0
   -0.7500   -1.2990    0.0000 C   0  0  0  0  0  0  0  0  0  0  0  0
  1  2  1  0
  2  3  2  0
  4  2  1  6
  4  5  1  0
  5  6  1  0
  6  7  1  1
  6  8  1  0
  8  9  1  0
  9 10  1  0
 10 11  2  0
 10 12  1  0
 12 13  1  0
 13 14  1  0
 14 15  1  0
 15 16  1  0
 16 17  1  0
 17 18  1  0
 18 19  1  0
 19 20  1  0
 19 21  1  0
 17 22  1  0
  9  4  1  0
 21 13  1  0
 22 13  1  0
 20 15  1  0
M  END
>  <Compound_ID>  (194) 
C41058312

>  <Active>  (194) 
0.0

>  <Smiles>  (194) 
NC(=O)[C@H]1C[C@H](O)CN1C(=O)CC12CC3CC(CC(C3)C1)C2

>  <canonical_smi>  (194) 
NC(=O)[C@H]1C[C@H](O)CN1C(=O)CC12CC3CC(CC(C3)C1)C2

>  <Set>  (194) 
G2 inactive

>  <Set_type>  (194) 
Train

>  <MW>  (194) 
306.41

>  <HBD>  (194) 
2

>  <HBA>  (194) 
3

>  <NRB>  (194) 
3

>  <NR>  (194) 
5

>  <NAR>  (194) 
0

>  <PSA>  (194) 
83.63

>  <Standard Type>  (194) 
nan

>  <Standard Relation>  (194) 
nan

>  <Standard Units>  (194) 
nan

>  <Standard Value>  (194) 
nan

>  <Assay ChEMBL ID>  (194) 
nan

>  <Assay Description>  (194) 
nan

>  <BAO Label>  (194) 
nan

$$$$

     RDKit          2D

 34 39  0  0  0  0  0  0  0  0999 V2000
   -4.9645    8.8151    0.0000 O   0  0  0  0  0  0  0  0  0  0  0  0
   -3.4727    8.6583    0.0000 C   0  0  0  0  0  0  0  0  0  0  0  0
   -2.8626    7.2880    0.0000 C   0  0  0  0  0  0  0  0  0  0  0  0
   -3.7443    6.0745    0.0000 S   0  0  0  0  0  0  0  0  0  0  0  0
   -3.1342    4.7042    0.0000 C   0  0  0  0  0  0  0  0  0  0  0  0
   -4.0159    3.4906    0.0000 N   0  0  0  0  0  0  0  0  0  0  0  0
   -3.4057    2.1203    0.0000 C   0  0  0  0  0  0  0  0  0  0  0  0
   -4.2874    0.9068    0.0000 N   0  0  0  0  0  0  0  0  0  0  0  0
   -5.7792    1.0636    0.0000 C   0  0  0  0  0  0  0  0  0  0  0  0
   -6.6609   -0.1499    0.0000 C   0  0  0  0  0  0  0  0  0  0  0  0
   -6.0508   -1.5203    0.0000 N   0  0  0  0  0  4  0  0  0  0  0  0
   -6.9325   -2.7338    0.0000 C   0  0  0  0  0  0  0  0  0  0  0  0
   -8.4242   -2.5770    0.0000 C   0  0  0  0  0  0  0  0  0  0  0  0
   -9.0343   -1.2067    0.0000 O   0  0  0  0  0  0  0  0  0  0  0  0
   -9.3059   -3.7905    0.0000 N   0  0  0  0  0  0  0  0  0  0  0  0
   -9.4627   -5.2823    0.0000 C   0  0  0  0  0  0  0  0  0  0  0  0
  -10.6762   -4.4006    0.0000 C   0  0  0  0  0  0  0  0  0  0  0  0
   -4.5590   -1.6771    0.0000 C   0  0  0  0  0  0  0  0  0  0  0  0
   -3.6773   -0.4635    0.0000 C   0  0  0  0  0  0  0  0  0  0  0  0
   -1.9140    1.9635    0.0000 C   0  0  0  0  0  0  0  0  0  0  0  0
   -1.0323    0.7500    0.0000 C   0  0  0  0  0  0  0  0  0  0  0  0
    0.3943    1.2135    0.0000 C   0  0  0  0  0  0  0  0  0  0  0  0
    0.3943    2.7135    0.0000 S   0  0  0  0  0  0  0  0  0  0  0  0
   -1.0323    3.1771    0.0000 C   0  0  0  0  0  0  0  0  0  0  0  0
   -1.6424    4.5474    0.0000 N   0  0  0  0  0  0  0  0  0  0  0  0
    1.2760    0.0000    0.0000 C   0  0  0  0  0  0  0  0  0  0  0  0
    0.3943   -1.2135    0.0000 C   0  0  0  0  0  0  0  0  0  0  0  0
   -1.0323   -0.7500    0.0000 C   0  0  0  0  0  0  0  0  0  0  0  0
   -2.5910    9.8718    0.0000 N   0  0  0  0  0  0  0  0  0  0  0  0
   -1.0992    9.7151    0.0000 C   0  0  0  0  0  0  0  0  0  0  0  0
   -0.2176   10.9286    0.0000 C   0  0  0  0  0  0  0  0  0  0  0  0
   -0.8277   12.2989    0.0000 C   0  0  0  0  0  0  0  0  0  0  0  0
   -2.3195   12.4557    0.0000 C   0  0  0  0  0  0  0  0  0  0  0  0
   -3.2011   11.2422    0.0000 C   0  0  0  0  0  0  0  0  0  0  0  0
  1  2  2  0
  2  3  1  0
  3  4  1  0
  4  5  1  0
  5  6  2  0
  6  7  1  0
  7  8  1  0
  8  9  1  0
  9 10  1  0
 10 11  1  0
 11 12  1  0
 12 13  1  0
 13 14  2  0
 13 15  1  0
 15 16  1  0
 16 17  1  0
 11 18  1  0
 18 19  1  0
  7 20  2  0
 20 21  1  0
 21 22  2  0
 22 23  1  0
 23 24  1  0
 24 25  2  0
 22 26  1  0
 26 27  1  0
 27 28  1  0
  2 29  1  0
 29 30  1  0
 30 31  1  0
 31 32  1  0
 32 33  1  0
 33 34  1  0
 25  5  1  0
 34 29  1  0
 19  8  1  0
 24 20  1  0
 17 15  1  0
 28 21  1  0
M  CHG  1  11   1
M  END
>  <Compound_ID>  (195) 
C34757879

>  <Active>  (195) 
0.0

>  <Smiles>  (195) 
O=C(CSc1nc(N2CC[NH+](CC(=O)N3CC3)CC2)c2c3c(sc2n1)CCC3)N1CCCCC1

>  <canonical_smi>  (195) 
O=C(CSc1nc(N2CC[NH+](CC(=O)N3CC3)CC2)c2c3c(sc2n1)CCC3)N1CCCCC1

>  <Set>  (195) 
G2 inactive

>  <Set_type>  (195) 
Train

>  <MW>  (195) 
501.7

>  <HBD>  (195) 
1

>  <HBA>  (195) 
6

>  <NRB>  (195) 
6

>  <NR>  (195) 
6

>  <NAR>  (195) 
2

>  <PSA>  (195) 
73.85

>  <Standard Type>  (195) 
nan

>  <Standard Relation>  (195) 
nan

>  <Standard Units>  (195) 
nan

>  <Standard Value>  (195) 
nan

>  <Assay ChEMBL ID>  (195) 
nan

>  <Assay Description>  (195) 
nan

>  <BAO Label>  (195) 
nan

$$$$

     RDKit          2D

 27 30  0  0  0  0  0  0  0  0999 V2000
    2.1595   -1.8121    0.0000 O   0  0  0  0  0  0  0  0  0  0  0  0
    0.7500   -1.2990    0.0000 P   0  0  0  0  0  5  0  0  0  0  0  0
    0.4895   -2.7762    0.0000 S   0  0  0  0  0  0  0  0  0  0  0  0
    1.9667   -3.0367    0.0000 O   0  0  0  0  0  0  0  0  0  0  0  0
    0.2291   -4.2535    0.0000 O   0  0  0  0  0  0  0  0  0  0  0  0
   -0.9877   -2.5158    0.0000 O   0  0  0  0  0  0  0  0  0  0  0  0
   -1.9519   -3.6648    0.0000 C   0  0  0  0  0  0  0  0  0  0  0  0
   -3.4291   -3.4044    0.0000 C   0  0  0  0  0  0  0  0  0  0  0  0
   -4.3933   -4.5534    0.0000 C   0  0  0  0  0  0  0  0  0  0  0  0
   -3.8802   -5.9630    0.0000 C   0  0  0  0  0  0  0  0  0  0  0  0
   -2.4030   -6.2234    0.0000 C   0  0  0  0  0  0  0  0  0  0  0  0
   -1.4388   -5.0744    0.0000 C   0  0  0  0  0  0  0  0  0  0  0  0
    1.5000    0.0000    0.0000 N   0  0  0  0  0  0  0  0  0  0  0  0
    0.7500    1.2990    0.0000 N   0  0  0  0  0  4  0  0  0  0  0  0
    1.5000    2.5981    0.0000 C   0  0  0  0  0  0  0  0  0  0  0  0
    0.7500    3.8971    0.0000 C   0  0  0  0  0  0  0  0  0  0  0  0
    1.5000    5.1962    0.0000 C   0  0  0  0  0  0  0  0  0  0  0  0
    0.7500    6.4952    0.0000 C   0  0  0  0  0  0  0  0  0  0  0  0
    1.5000    7.7942    0.0000 Cl  0  0  0  0  0  0  0  0  0  0  0  0
   -0.7500    6.4952    0.0000 C   0  0  0  0  0  0  0  0  0  0  0  0
   -1.5000    7.7942    0.0000 Cl  0  0  0  0  0  0  0  0  0  0  0  0
   -1.5000    5.1962    0.0000 C   0  0  0  0  0  0  0  0  0  0  0  0
   -0.7500    3.8971    0.0000 C   0  0  0  0  0  0  0  0  0  0  0  0
   -1.5000    2.5981    0.0000 C   0  0  0  0  0  0  0  0  0  0  0  0
   -0.7500    1.2990    0.0000 C   0  0  0  0  0  0  0  0  0  0  0  0
   -1.5000    0.0000    0.0000 C   0  0  0  0  0  0  0  0  0  0  0  0
   -0.7500   -1.2990    0.0000 O   0  0  0  0  0  0  0  0  0  0  0  0
  1  2  2  0
  2  3  1  1
  3  4  2  0
  3  5  2  0
  3  6  1  0
  6  7  1  0
  7  8  2  0
  8  9  1  0
  9 10  2  0
 10 11  1  0
 11 12  2  0
  2 13  1  0
 13 14  1  0
 14 15  1  0
 16 15  1  1
 16 17  1  0
 17 18  2  0
 18 19  1  0
 18 20  1  0
 20 21  1  0
 20 22  2  0
 22 23  1  0
 23 24  1  1
 25 24  1  1
 25 26  1  0
 26 27  1  0
 27  2  1  0
 12  7  1  0
 25 14  1  0
 23 16  1  0
M  CHG  1  14   1
M  END
>  <Compound_ID>  (196) 
C39469744

>  <Active>  (196) 
0.0

>  <Smiles>  (196) 
O=[P@@]1(S(=O)(=O)Oc2ccccc2)N[NH+]2C[C@@H]3C=C(Cl)C(Cl)=C[C@@H]3C[C@@H]2CO1

>  <canonical_smi>  (196) 
O=[P@@]1(S(=O)(=O)Oc2ccccc2)N[NH+]2C[C@@H]3C=C(Cl)C(Cl)=C[C@@H]3C[C@@H]2CO1

>  <Set>  (196) 
G2 inactive

>  <Set_type>  (196) 
Train

>  <MW>  (196) 
452.28

>  <HBD>  (196) 
2

>  <HBA>  (196) 
6

>  <NRB>  (196) 
3

>  <NR>  (196) 
4

>  <NAR>  (196) 
1

>  <PSA>  (196) 
86.14

>  <Standard Type>  (196) 
nan

>  <Standard Relation>  (196) 
nan

>  <Standard Units>  (196) 
nan

>  <Standard Value>  (196) 
nan

>  <Assay ChEMBL ID>  (196) 
nan

>  <Assay Description>  (196) 
nan

>  <BAO Label>  (196) 
nan

$$$$

     RDKit          2D

 16 17  0  0  0  0  0  0  0  0999 V2000
    3.7500   -3.8971    0.0000 C   0  0  0  0  0  0  0  0  0  0  0  0
    3.0000   -2.5981    0.0000 C   0  0  0  0  0  0  0  0  0  0  0  0
    1.5000   -2.5981    0.0000 N   0  0  0  0  0  0  0  0  0  0  0  0
    0.7500   -1.2990    0.0000 C   0  0  0  0  0  0  0  0  0  0  0  0
    1.5000    0.0000    0.0000 N   0  0  0  0  0  0  0  0  0  0  0  0
    0.7500    1.2990    0.0000 C   0  0  0  0  0  0  0  0  0  0  0  0
   -0.7500    1.2990    0.0000 C   0  0  0  0  0  0  0  0  0  0  0  0
   -1.5000    2.5981    0.0000 Br  0  0  0  0  0  0  0  0  0  0  0  0
   -1.5000    0.0000    0.0000 C   0  0  0  0  0  0  0  0  0  0  0  0
   -0.7500   -1.2990    0.0000 C   0  0  0  0  0  0  0  0  0  0  0  0
   -1.5000   -2.5981    0.0000 N   0  0  0  0  0  0  0  0  0  0  0  0
    3.7500   -1.2990    0.0000 C   0  0  0  0  0  0  0  0  0  0  0  0
    3.1399    0.0713    0.0000 N   0  0  0  0  0  0  0  0  0  0  0  0
    4.2546    1.0750    0.0000 N   0  0  0  0  0  0  0  0  0  0  0  0
    5.5537    0.3250    0.0000 N   0  0  0  0  0  0  0  0  0  0  0  0
    5.2418   -1.1422    0.0000 N   0  0  0  0  0  2  0  0  0  0  0  0
  2  1  1  6
  2  3  1  0
  3  4  1  0
  4  5  2  0
  5  6  1  0
  6  7  2  0
  7  8  1  0
  7  9  1  0
  9 10  2  0
 10 11  1  0
  2 12  1  0
 12 13  2  0
 13 14  1  0
 14 15  2  0
 15 16  1  0
 10  4  1  0
 16 12  1  0
M  CHG  1  16  -1
M  END
>  <Compound_ID>  (197) 
C44925149

>  <Active>  (197) 
0.0

>  <Smiles>  (197) 
C[C@H](Nc1ncc(Br)cc1N)c1nnn[n-]1

>  <canonical_smi>  (197) 
C[C@H](Nc1ncc(Br)cc1N)c1nnn[n-]1

>  <Set>  (197) 
G2 inactive

>  <Set_type>  (197) 
Train

>  <MW>  (197) 
283.11

>  <HBD>  (197) 
2

>  <HBA>  (197) 
7

>  <NRB>  (197) 
3

>  <NR>  (197) 
2

>  <NAR>  (197) 
2

>  <PSA>  (197) 
103.71

>  <Standard Type>  (197) 
nan

>  <Standard Relation>  (197) 
nan

>  <Standard Units>  (197) 
nan

>  <Standard Value>  (197) 
nan

>  <Assay ChEMBL ID>  (197) 
nan

>  <Assay Description>  (197) 
nan

>  <BAO Label>  (197) 
nan

$$$$

     RDKit          2D

 25 27  0  0  0  0  0  0  0  0999 V2000
    3.0000   -2.5981    0.0000 C   0  0  0  0  0  0  0  0  0  0  0  0
    1.5000   -2.5981    0.0000 N   0  0  0  0  0  0  0  0  0  0  0  0
    0.7500   -1.2990    0.0000 C   0  0  0  0  0  0  0  0  0  0  0  0
    1.5000    0.0000    0.0000 N   0  0  0  0  0  0  0  0  0  0  0  0
    0.7500    1.2990    0.0000 C   0  0  0  0  0  0  0  0  0  0  0  0
   -0.7500    1.2990    0.0000 N   0  0  0  0  0  0  0  0  0  0  0  0
   -1.5000    0.0000    0.0000 C   0  0  0  0  0  0  0  0  0  0  0  0
   -3.0000    0.0000    0.0000 N   0  0  0  0  0  0  0  0  0  0  0  0
   -3.7500    1.2990    0.0000 C   0  0  0  0  0  0  0  0  0  0  0  0
   -3.0000    2.5981    0.0000 C   0  0  0  0  0  0  0  0  0  0  0  0
   -3.7500    3.8971    0.0000 C   0  0  0  0  0  0  0  0  0  0  0  0
   -3.0000    5.1962    0.0000 Cl  0  0  0  0  0  0  0  0  0  0  0  0
   -5.2500    3.8971    0.0000 C   0  0  0  0  0  0  0  0  0  0  0  0
   -6.0000    2.5981    0.0000 C   0  0  0  0  0  0  0  0  0  0  0  0
   -5.2500    1.2990    0.0000 C   0  0  0  0  0  0  0  0  0  0  0  0
   -6.0000    0.0000    0.0000 Cl  0  0  0  0  0  0  0  0  0  0  0  0
   -0.7500   -1.2990    0.0000 C   0  0  0  0  0  0  0  0  0  0  0  0
   -1.5000   -2.5981    0.0000 N   0  0  0  0  0  0  0  0  0  0  0  0
    0.7500   -3.8971    0.0000 C   0  0  0  0  0  0  0  0  0  0  0  0
   -0.7500   -3.8971    0.0000 C   0  0  0  0  0  0  0  0  0  0  0  0
   -1.5000   -5.1962    0.0000 C   0  0  0  0  0  0  0  0  0  0  0  0
   -0.7500   -6.4952    0.0000 N   0  0  0  0  0  4  0  0  0  0  0  0
   -1.5000   -7.7942    0.0000 C   0  0  0  0  0  0  0  0  0  0  0  0
    0.7500   -6.4952    0.0000 C   0  0  0  0  0  0  0  0  0  0  0  0
    1.5000   -5.1962    0.0000 C   0  0  0  0  0  0  0  0  0  0  0  0
  1  2  1  0
  2  3  1  0
  3  4  2  0
  4  5  1  0
  5  6  2  0
  6  7  1  0
  7  8  1  0
  8  9  1  0
  9 10  2  0
 10 11  1  0
 11 12  1  0
 11 13  2  0
 13 14  1  0
 14 15  2  0
 15 16  1  0
  7 17  2  0
 17 18  1  0
  2 19  1  0
 19 20  1  0
 20 21  1  0
 21 22  1  0
 22 23  1  0
 22 24  1  0
 24 25  1  0
 17  3  1  0
 25 19  1  0
 15  9  1  0
M  CHG  1  22   1
M  END
>  <Compound_ID>  (198) 
C40778405

>  <Active>  (198) 
0.0

>  <Smiles>  (198) 
CN(c1ncnc(Nc2cc(Cl)ccc2Cl)c1N)C1CC[NH+](C)CC1

>  <canonical_smi>  (198) 
CN(c1ncnc(Nc2cc(Cl)ccc2Cl)c1N)C1CC[NH+](C)CC1

>  <Set>  (198) 
G2 inactive

>  <Set_type>  (198) 
Train

>  <MW>  (198) 
382.32

>  <HBD>  (198) 
3

>  <HBA>  (198) 
5

>  <NRB>  (198) 
4

>  <NR>  (198) 
3

>  <NAR>  (198) 
2

>  <PSA>  (198) 
71.51

>  <Standard Type>  (198) 
nan

>  <Standard Relation>  (198) 
nan

>  <Standard Units>  (198) 
nan

>  <Standard Value>  (198) 
nan

>  <Assay ChEMBL ID>  (198) 
nan

>  <Assay Description>  (198) 
nan

>  <BAO Label>  (198) 
nan

$$$$

     RDKit          2D

 20 21  0  0  0  0  0  0  0  0999 V2000
   -3.6161    1.0216    0.0000 C   0  0  0  0  0  0  0  0  0  0  0  0
   -2.2458    1.6317    0.0000 C   0  0  0  0  0  0  0  0  0  0  0  0
   -2.0890    3.1235    0.0000 C   0  0  0  0  0  0  0  0  0  0  0  0
   -1.0323    0.7500    0.0000 N   0  0  0  0  0  0  0  0  0  0  0  0
    0.3943    1.2135    0.0000 C   0  0  0  0  0  0  0  0  0  0  0  0
    0.8578    2.6401    0.0000 S   0  0  0  0  0  0  0  0  0  0  0  0
    2.3250    2.9520    0.0000 C   0  0  0  0  0  0  0  0  0  0  0  0
    2.7886    4.3786    0.0000 C   0  0  0  0  0  0  0  0  0  0  0  0
    4.2152    4.8421    0.0000 C   0  0  0  0  0  0  0  0  0  0  0  0
    4.2152    6.3421    0.0000 C   0  0  0  0  0  0  0  0  0  0  0  0
    2.7886    6.8056    0.0000 C   0  0  0  0  0  0  0  0  0  0  0  0
    2.3250    8.2322    0.0000 Br  0  0  0  0  0  0  0  0  0  0  0  0
    1.9069    5.5921    0.0000 S   0  0  0  0  0  0  0  0  0  0  0  0
    3.3287    1.8373    0.0000 C   0  0  0  0  0  0  0  0  0  0  0  0
    4.7960    2.1491    0.0000 C   0  0  0  0  0  0  0  0  0  0  0  0
    2.8652    0.4107    0.0000 N   0  0  0  0  0  4  0  0  0  0  0  0
    1.2760   -0.0000    0.0000 N   0  0  0  0  0  0  0  0  0  0  0  0
    0.3943   -1.2135    0.0000 N   0  0  0  0  0  0  0  0  0  0  0  0
   -1.0323   -0.7500    0.0000 C   0  0  0  0  0  0  0  0  0  0  0  0
   -2.2458   -1.6317    0.0000 O   0  0  0  0  0  0  0  0  0  0  0  0
  1  2  1  0
  2  3  1  0
  2  4  1  0
  4  5  1  0
  5  6  1  0
  7  6  1  1
  7  8  1  0
  8  9  2  0
  9 10  1  0
 10 11  2  0
 11 12  1  0
 11 13  1  0
  7 14  1  0
 14 15  1  6
 14 16  1  0
  5 17  2  0
 17 18  1  0
 18 19  1  0
 19 20  2  0
 19  4  1  0
 13  8  1  0
M  CHG  1  16   1
M  END
>  <Compound_ID>  (199) 
C61595211

>  <Active>  (199) 
0.0

>  <Smiles>  (199) 
CC(C)n1c(S[C@@H](c2ccc(Br)s2)[C@H](C)[NH3+])n[nH]c1=O

>  <canonical_smi>  (199) 
CC(C)n1c(S[C@@H](c2ccc(Br)s2)[C@H](C)[NH3+])n[nH]c1=O

>  <Set>  (199) 
G2 inactive

>  <Set_type>  (199) 
Train

>  <MW>  (199) 
378.34

>  <HBD>  (199) 
2

>  <HBA>  (199) 
3

>  <NRB>  (199) 
5

>  <NR>  (199) 
2

>  <NAR>  (199) 
2

>  <PSA>  (199) 
78.32

>  <Standard Type>  (199) 
nan

>  <Standard Relation>  (199) 
nan

>  <Standard Units>  (199) 
nan

>  <Standard Value>  (199) 
nan

>  <Assay ChEMBL ID>  (199) 
nan

>  <Assay Description>  (199) 
nan

>  <BAO Label>  (199) 
nan

$$$$

     RDKit          2D

 19 20  0  0  0  0  0  0  0  0999 V2000
    3.7500   -1.2990    0.0000 C   0  0  0  0  0  0  0  0  0  0  0  0
    3.0000    0.0000    0.0000 O   0  0  0  0  0  0  0  0  0  0  0  0
    1.5000    0.0000    0.0000 C   0  0  0  0  0  0  0  0  0  0  0  0
    0.7500   -1.2990    0.0000 C   0  0  0  0  0  0  0  0  0  0  0  0
    1.5000   -2.5981    0.0000 Br  0  0  0  0  0  0  0  0  0  0  0  0
   -0.7500   -1.2990    0.0000 C   0  0  0  0  0  0  0  0  0  0  0  0
   -1.5000    0.0000    0.0000 C   0  0  0  0  0  0  0  0  0  0  0  0
   -3.0000    0.0000    0.0000 C   0  0  0  0  0  0  0  0  0  0  0  0
   -3.7500    1.2990    0.0000 N   0  0  0  0  0  4  0  0  0  0  0  0
   -5.2500    1.2990    0.0000 C   0  0  0  0  0  0  0  0  0  0  0  0
   -6.0000    2.5981    0.0000 C   0  0  0  0  0  0  0  0  0  0  0  0
   -7.4918    2.7549    0.0000 C   0  0  0  0  0  0  0  0  0  0  0  0
   -7.8037    4.2221    0.0000 N   0  0  0  0  0  0  0  0  0  0  0  0
   -6.5046    4.9721    0.0000 N   0  0  0  0  0  0  0  0  0  0  0  0
   -5.3899    3.9684    0.0000 C   0  0  0  0  0  0  0  0  0  0  0  0
   -3.9227    4.2803    0.0000 C   0  0  0  0  0  0  0  0  0  0  0  0
   -0.7500    1.2990    0.0000 C   0  0  0  0  0  0  0  0  0  0  0  0
    0.7500    1.2990    0.0000 C   0  0  0  0  0  0  0  0  0  0  0  0
    1.5000    2.5981    0.0000 Br  0  0  0  0  0  0  0  0  0  0  0  0
  1  2  1  0
  2  3  1  0
  3  4  2  0
  4  5  1  0
  4  6  1  0
  6  7  2  0
  7  8  1  0
  8  9  1  0
  9 10  1  0
 10 11  1  0
 11 12  2  0
 12 13  1  0
 13 14  1  0
 14 15  2  0
 15 16  1  0
  7 17  1  0
 17 18  2  0
 18 19  1  0
 18  3  1  0
 15 11  1  0
M  CHG  1   9   1
M  END
>  <Compound_ID>  (200) 
C37991378

>  <Active>  (200) 
0.0

>  <Smiles>  (200) 
COc1c(Br)cc(C[NH2+]Cc2c[nH]nc2C)cc1Br

>  <canonical_smi>  (200) 
COc1c(Br)cc(C[NH2+]Cc2c[nH]nc2C)cc1Br

>  <Set>  (200) 
G2 inactive

>  <Set_type>  (200) 
Train

>  <MW>  (200) 
390.1

>  <HBD>  (200) 
2

>  <HBA>  (200) 
2

>  <NRB>  (200) 
5

>  <NR>  (200) 
2

>  <NAR>  (200) 
2

>  <PSA>  (200) 
54.52

>  <Standard Type>  (200) 
nan

>  <Standard Relation>  (200) 
nan

>  <Standard Units>  (200) 
nan

>  <Standard Value>  (200) 
nan

>  <Assay ChEMBL ID>  (200) 
nan

>  <Assay Description>  (200) 
nan

>  <BAO Label>  (200) 
nan

$$$$

     RDKit          2D

 32 35  0  0  0  0  0  0  0  0999 V2000
    0.7716    6.7511    0.0000 C   0  0  0  0  0  0  0  0  0  0  0  0
   -0.2487    5.6515    0.0000 N   0  0  0  0  0  4  0  0  0  0  0  0
    0.1935    4.2182    0.0000 C   0  0  0  0  0  0  0  0  0  0  0  0
    1.6559    3.8844    0.0000 C   0  0  0  0  0  0  0  0  0  0  0  0
    2.0980    2.4510    0.0000 C   0  0  0  0  0  0  0  0  0  0  0  0
    1.0777    1.3515    0.0000 C   0  0  0  0  0  0  0  0  0  0  0  0
    1.7286    0.0000    0.0000 C   0  0  0  0  0  0  0  0  0  0  0  0
    1.0777   -1.3515    0.0000 C   0  0  0  0  0  0  0  0  0  0  0  0
    2.0980   -2.4510    0.0000 C   0  0  0  0  0  0  0  0  0  0  0  0
    1.6559   -3.8844    0.0000 C   0  0  0  0  0  0  0  0  0  0  0  0
    0.1935   -4.2182    0.0000 C   0  0  0  0  0  0  0  0  0  0  0  0
    1.0932   -5.4184    0.0000 C   0  0  0  0  0  0  0  0  0  0  0  0
   -0.5370   -5.5283    0.0000 C   0  0  0  0  0  0  0  0  0  0  0  0
    0.0935   -6.8893    0.0000 C   0  0  0  0  0  0  0  0  0  0  0  0
   -0.7699   -8.1159    0.0000 C   0  0  0  0  0  0  0  0  0  0  0  0
    1.5875   -7.0238    0.0000 N   0  0  0  0  0  0  0  0  0  0  0  0
    2.4509   -5.7972    0.0000 C   0  0  0  0  0  0  0  0  0  0  0  0
    2.2180   -8.3848    0.0000 C   0  0  0  0  0  0  0  0  0  0  0  0
    3.7120   -8.5193    0.0000 C   0  0  0  0  0  0  0  0  0  0  0  0
    1.3546   -9.6114    0.0000 O   0  0  0  0  0  0  0  0  0  0  0  0
   -2.0087   -5.2384    0.0000 C   0  0  0  0  0  0  0  0  0  0  0  0
   -3.1083   -6.2587    0.0000 O   0  0  0  0  0  0  0  0  0  0  0  0
   -2.1878   -3.7491    0.0000 C   0  0  0  0  0  0  0  0  0  0  0  0
   -0.8268   -3.1186    0.0000 C   0  0  0  0  0  0  0  0  0  0  0  0
   -1.9564   -2.1317    0.0000 C   0  0  0  0  0  0  0  0  0  0  0  0
   -0.3846   -1.6852    0.0000 C   0  0  0  0  0  0  0  0  0  0  0  0
   -1.5574   -0.7500    0.0000 C   0  0  0  0  0  0  0  0  0  0  0  0
   -1.5574    0.7500    0.0000 C   0  0  0  0  0  0  0  0  0  0  0  0
   -0.3846    1.6852    0.0000 C   0  0  0  0  0  0  0  0  0  0  0  0
   -0.8268    3.1186    0.0000 C   0  0  0  0  0  0  0  0  0  0  0  0
   -2.1616    2.4343    0.0000 C   0  0  0  0  0  0  0  0  0  0  0  0
   -1.7325    4.3143    0.0000 C   0  0  0  0  0  0  0  0  0  0  0  0
  1  2  1  0
  3  2  1  1
  3  4  1  0
  4  5  1  0
  5  6  1  0
  6  7  2  0
  7  8  1  0
  8  9  2  0
  9 10  1  0
 10 11  1  0
 11 12  1  6
 11 13  1  0
 13 14  1  1
 14 15  1  1
 14 16  1  0
 16 17  1  0
 16 18  1  0
 18 19  1  0
 18 20  2  0
 13 21  1  0
 21 22  1  6
 21 23  1  0
 23 24  1  0
 24 25  1  1
 24 26  1  0
 26 27  1  6
 27 28  1  0
 29 28  1  1
 29 30  1  0
 30 31  1  0
 30 32  1  0
 30  3  1  0
 29  6  1  0
 26  8  1  0
 24 11  1  0
M  CHG  1   2   1
M  END
>  <Compound_ID>  (201) 
C43510589

>  <Active>  (201) 
0.0

>  <Smiles>  (201) 
C[NH2+][C@H]1CCC2=CC3=CC[C@@]4(C)[C@@H]([C@H](C)N(C)C(C)=O)[C@H](O)C[C@]4(C)[C@@H]3CC[C@H]2C1(C)C

>  <canonical_smi>  (201) 
C[NH2+][C@H]1CCC2=CC3=CC[C@@]4(C)[C@@H]([C@H](C)N(C)C(C)=O)[C@H](O)C[C@]4(C)[C@@H]3CC[C@H]2C1(C)C

>  <Set>  (201) 
G2 inactive

>  <Set_type>  (201) 
Train

>  <MW>  (201) 
443.7

>  <HBD>  (201) 
2

>  <HBA>  (201) 
2

>  <NRB>  (201) 
3

>  <NR>  (201) 
4

>  <NAR>  (201) 
0

>  <PSA>  (201) 
57.15

>  <Standard Type>  (201) 
nan

>  <Standard Relation>  (201) 
nan

>  <Standard Units>  (201) 
nan

>  <Standard Value>  (201) 
nan

>  <Assay ChEMBL ID>  (201) 
nan

>  <Assay Description>  (201) 
nan

>  <BAO Label>  (201) 
nan

$$$$

     RDKit          2D

 35 40  0  0  0  0  0  0  0  0999 V2000
    3.0000    0.0000    0.0000 F   0  0  0  0  0  0  0  0  0  0  0  0
    1.5000    0.0000    0.0000 C   0  0  0  0  0  0  0  0  0  0  0  0
    0.7500   -1.2990    0.0000 C   0  0  0  0  0  0  0  0  0  0  0  0
   -0.7500   -1.2990    0.0000 C   0  0  0  0  0  0  0  0  0  0  0  0
   -1.5000    0.0000    0.0000 C   0  0  0  0  0  0  0  0  0  0  0  0
   -2.9672    0.3119    0.0000 N   0  0  0  0  0  0  0  0  0  0  0  0
   -3.1240    1.8037    0.0000 C   0  0  0  0  0  0  0  0  0  0  0  0
   -4.4231    2.5537    0.0000 C   0  0  0  0  0  0  0  0  0  0  0  0
   -4.4231    4.0537    0.0000 C   0  0  0  0  0  0  0  0  0  0  0  0
   -5.7221    4.8037    0.0000 C   0  0  0  0  0  0  0  0  0  0  0  0
   -7.0211    4.0537    0.0000 C   0  0  0  0  0  0  0  0  0  0  0  0
   -7.0211    2.5537    0.0000 C   0  0  0  0  0  0  0  0  0  0  0  0
   -8.3202    1.8037    0.0000 C   0  0  0  0  0  0  0  0  0  0  0  0
   -9.6192    2.5537    0.0000 C   0  0  0  0  0  0  0  0  0  0  0  0
  -10.9182    1.8037    0.0000 C   0  0  0  0  0  0  0  0  0  0  0  0
  -10.9182    0.3037    0.0000 C   0  0  0  0  0  0  0  0  0  0  0  0
   -9.6192   -0.4463    0.0000 C   0  0  0  0  0  0  0  0  0  0  0  0
   -9.6192   -1.9463    0.0000 C   0  0  0  0  0  0  0  0  0  0  0  0
  -10.9182   -2.6963    0.0000 N   0  0  0  0  0  0  0  0  0  0  0  0
  -12.2173   -1.9463    0.0000 C   0  0  0  0  0  0  0  0  0  0  0  0
  -13.5163   -2.6963    0.0000 C   0  0  0  0  0  0  0  0  0  0  0  0
  -13.5163   -4.1963    0.0000 N   0  0  0  0  0  0  0  0  0  0  0  0
  -14.8154   -4.9463    0.0000 C   0  0  0  0  0  0  0  0  0  0  0  0
  -16.1144   -4.1963    0.0000 C   0  0  0  0  0  0  0  0  0  0  0  0
  -17.4134   -4.9463    0.0000 C   0  0  0  0  0  0  0  0  0  0  0  0
  -17.4134   -6.4463    0.0000 N   0  0  0  0  0  4  0  0  0  0  0  0
  -16.1144   -7.1963    0.0000 C   0  0  0  0  0  0  0  0  0  0  0  0
  -14.8154   -6.4463    0.0000 C   0  0  0  0  0  0  0  0  0  0  0  0
  -12.2173   -4.9463    0.0000 C   0  0  0  0  0  0  0  0  0  0  0  0
  -10.9182   -4.1963    0.0000 C   0  0  0  0  0  0  0  0  0  0  0  0
   -8.3202    0.3037    0.0000 C   0  0  0  0  0  0  0  0  0  0  0  0
   -5.7221    1.8037    0.0000 C   0  0  0  0  0  0  0  0  0  0  0  0
   -1.7537    2.4138    0.0000 N   0  0  0  0  0  0  0  0  0  0  0  0
   -0.7500    1.2990    0.0000 C   0  0  0  0  0  0  0  0  0  0  0  0
    0.7500    1.2990    0.0000 C   0  0  0  0  0  0  0  0  0  0  0  0
  1  2  1  0
  2  3  2  0
  3  4  1  0
  4  5  2  0
  5  6  1  0
  6  7  2  0
  7  8  1  0
  8  9  2  0
  9 10  1  0
 10 11  2  0
 11 12  1  0
 12 13  1  0
 13 14  2  0
 14 15  1  0
 15 16  2  0
 16 17  1  0
 17 18  1  0
 18 19  1  0
 19 20  1  0
 20 21  1  0
 21 22  1  0
 22 23  1  0
 23 24  2  0
 24 25  1  0
 25 26  2  0
 26 27  1  0
 27 28  2  0
 22 29  1  0
 29 30  1  0
 17 31  2  0
 12 32  2  0
  7 33  1  0
 33 34  1  0
 34 35  2  0
 35  2  1  0
 34  5  1  0
 32  8  1  0
 31 13  1  0
 30 19  1  0
 28 23  1  0
M  CHG  1  26   1
M  END
>  <Compound_ID>  (202) 
C45169041

>  <Active>  (202) 
0.0

>  <Smiles>  (202) 
Fc1ccc2nc(-c3cccc(-c4cccc(CN5CCN(c6cc[nH+]cc6)CC5)c4)c3)[nH]c2c1

>  <canonical_smi>  (202) 
Fc1ccc2nc(-c3cccc(-c4cccc(CN5CCN(c6cc[nH+]cc6)CC5)c4)c3)[nH]c2c1

>  <Set>  (202) 
G2 inactive

>  <Set_type>  (202) 
Train

>  <MW>  (202) 
464.57

>  <HBD>  (202) 
1

>  <HBA>  (202) 
3

>  <NRB>  (202) 
5

>  <NR>  (202) 
6

>  <NAR>  (202) 
5

>  <PSA>  (202) 
49.3

>  <Standard Type>  (202) 
nan

>  <Standard Relation>  (202) 
nan

>  <Standard Units>  (202) 
nan

>  <Standard Value>  (202) 
nan

>  <Assay ChEMBL ID>  (202) 
nan

>  <Assay Description>  (202) 
nan

>  <BAO Label>  (202) 
nan

$$$$

     RDKit          2D

 28 31  0  0  0  0  0  0  0  0999 V2000
   -2.6401   -5.5255    0.0000 O   0  0  0  0  0  0  0  0  0  0  0  0
   -1.2135   -5.9890    0.0000 C   0  0  0  0  0  0  0  0  0  0  0  0
   -0.7500   -7.4156    0.0000 C   0  0  0  0  0  0  0  0  0  0  0  0
   -1.6317   -8.6291    0.0000 C   0  0  0  0  0  0  0  0  0  0  0  0
   -1.0216   -9.9994    0.0000 N   0  0  0  0  0  0  0  0  0  0  0  0
   -1.9033  -11.2129    0.0000 C   0  0  0  0  0  0  0  0  0  0  0  0
   -1.2931  -12.5833    0.0000 C   0  0  0  0  0  0  0  0  0  0  0  0
   -2.1748  -13.7968    0.0000 C   0  0  0  0  0  0  0  0  0  0  0  0
   -1.7113  -15.2234    0.0000 C   0  0  0  0  0  0  0  0  0  0  0  0
   -2.9248  -16.1050    0.0000 N   0  0  0  0  0  0  0  0  0  0  0  0
   -4.1383  -15.2234    0.0000 C   0  0  0  0  0  0  0  0  0  0  0  0
   -3.6748  -13.7968    0.0000 N   0  0  0  0  0  4  0  0  0  0  0  0
    0.7500   -7.4156    0.0000 C   0  0  0  0  0  0  0  0  0  0  0  0
    1.6317   -8.6291    0.0000 C   0  0  0  0  0  0  0  0  0  0  0  0
    2.5134   -9.8426    0.0000 F   0  0  0  0  0  0  0  0  0  0  0  0
    2.8452   -7.7474    0.0000 F   0  0  0  0  0  0  0  0  0  0  0  0
    0.4182   -9.5108    0.0000 F   0  0  0  0  0  0  0  0  0  0  0  0
    1.2135   -5.9890    0.0000 N   0  0  0  0  0  0  0  0  0  0  0  0
   -0.0000   -5.1073    0.0000 N   0  0  0  0  0  0  0  0  0  0  0  0
   -0.0000   -3.6073    0.0000 C   0  0  0  0  0  0  0  0  0  0  0  0
    1.2135   -2.7256    0.0000 N   0  0  0  0  0  0  0  0  0  0  0  0
    0.7500   -1.2990    0.0000 C   0  0  0  0  0  0  0  0  0  0  0  0
    1.5000    0.0000    0.0000 C   0  0  0  0  0  0  0  0  0  0  0  0
    0.7500    1.2990    0.0000 C   0  0  0  0  0  0  0  0  0  0  0  0
   -0.7500    1.2990    0.0000 C   0  0  0  0  0  0  0  0  0  0  0  0
   -1.5000    0.0000    0.0000 C   0  0  0  0  0  0  0  0  0  0  0  0
   -0.7500   -1.2990    0.0000 C   0  0  0  0  0  0  0  0  0  0  0  0
   -1.2135   -2.7256    0.0000 S   0  0  0  0  0  0  0  0  0  0  0  0
  1  2  2  0
  2  3  1  0
  3  4  2  0
  4  5  1  0
  5  6  1  0
  6  7  1  0
  7  8  1  0
  8  9  2  0
  9 10  1  0
 10 11  1  0
 11 12  2  0
  3 13  1  0
 13 14  1  0
 14 15  1  0
 14 16  1  0
 14 17  1  0
 13 18  2  0
 18 19  1  0
 20 19  1  6
 20 21  1  0
 21 22  1  0
 22 23  2  0
 23 24  1  0
 24 25  2  0
 25 26  1  0
 26 27  2  0
 27 28  1  0
 19  2  1  0
 28 20  1  0
 12  8  1  0
 27 22  1  0
M  CHG  1  12   1
M  END
>  <Compound_ID>  (203) 
C53631712

>  <Active>  (203) 
0.0

>  <Smiles>  (203) 
O=C1/C(=C/NCCc2c[nH]c[nH+]2)C(C(F)(F)F)=NN1[C@H]1Nc2ccccc2S1

>  <canonical_smi>  (203) 
O=C1/C(=C/NCCc2c[nH]c[nH+]2)C(C(F)(F)F)=NN1[C@H]1Nc2ccccc2S1

>  <Set>  (203) 
G2 inactive

>  <Set_type>  (203) 
Train

>  <MW>  (203) 
409.42

>  <HBD>  (203) 
3

>  <HBA>  (203) 
4

>  <NRB>  (203) 
5

>  <NR>  (203) 
4

>  <NAR>  (203) 
2

>  <PSA>  (203) 
86.66

>  <Standard Type>  (203) 
nan

>  <Standard Relation>  (203) 
nan

>  <Standard Units>  (203) 
nan

>  <Standard Value>  (203) 
nan

>  <Assay ChEMBL ID>  (203) 
nan

>  <Assay Description>  (203) 
nan

>  <BAO Label>  (203) 
nan

$$$$

     RDKit          2D

 19 21  0  0  0  0  0  0  0  0999 V2000
    2.3886   -2.4414    0.0000 C   0  0  0  0  0  0  0  0  0  0  0  0
    2.6491   -0.9642    0.0000 O   0  0  0  0  0  0  0  0  0  0  0  0
    1.5000    0.0000    0.0000 P   0  0  0  0  0  5  0  0  0  0  0  0
    2.6491    0.9642    0.0000 O   0  0  0  0  0  0  0  0  0  0  0  0
    0.7500   -1.2990    0.0000 N   0  0  0  0  0  0  0  0  0  0  0  0
   -0.7500   -1.2990    0.0000 N   0  0  0  0  0  0  0  0  0  0  0  0
   -1.5000   -2.5981    0.0000 C   0  0  0  0  0  0  0  0  0  0  0  0
   -3.0000   -2.5981    0.0000 C   0  0  0  0  0  0  0  0  0  0  0  0
   -3.7500   -1.2990    0.0000 C   0  0  0  0  0  0  0  0  0  0  0  0
   -5.2500   -1.2990    0.0000 C   0  0  0  0  0  0  0  0  0  0  0  0
   -6.0000    0.0000    0.0000 C   0  0  0  0  0  0  0  0  0  0  0  0
   -7.5000    0.0000    0.0000 I   0  0  0  0  0  0  0  0  0  0  0  0
   -5.2500    1.2990    0.0000 C   0  0  0  0  0  0  0  0  0  0  0  0
   -6.0000    2.5981    0.0000 I   0  0  0  0  0  0  0  0  0  0  0  0
   -3.7500    1.2990    0.0000 C   0  0  0  0  0  0  0  0  0  0  0  0
   -3.0000    0.0000    0.0000 C   0  0  0  0  0  0  0  0  0  0  0  0
   -1.5000    0.0000    0.0000 C   0  0  0  0  0  0  0  0  0  0  0  0
   -0.7500    1.2990    0.0000 C   0  0  0  0  0  0  0  0  0  0  0  0
    0.7500    1.2990    0.0000 O   0  0  0  0  0  0  0  0  0  0  0  0
  1  2  1  0
  3  2  1  1
  3  4  2  0
  3  5  1  0
  5  6  1  0
  6  7  1  0
  7  8  1  0
  8  9  1  0
  9 10  2  0
 10 11  1  0
 11 12  1  0
 11 13  2  0
 13 14  1  0
 13 15  1  0
 15 16  2  0
 16 17  1  0
 17 18  1  6
 18 19  1  0
 19  3  1  0
 17  6  1  0
 16  9  1  0
M  END
>  <Compound_ID>  (204) 
C39464764

>  <Active>  (204) 
0.0

>  <Smiles>  (204) 
CO[P@@]1(=O)NN2CCc3cc(I)c(I)cc3[C@@H]2CO1

>  <canonical_smi>  (204) 
CO[P@@]1(=O)NN2CCc3cc(I)c(I)cc3[C@@H]2CO1

>  <Set>  (204) 
G2 inactive

>  <Set_type>  (204) 
Train

>  <MW>  (204) 
506.02

>  <HBD>  (204) 
1

>  <HBA>  (204) 
5

>  <NRB>  (204) 
1

>  <NR>  (204) 
3

>  <NAR>  (204) 
1

>  <PSA>  (204) 
50.8

>  <Standard Type>  (204) 
nan

>  <Standard Relation>  (204) 
nan

>  <Standard Units>  (204) 
nan

>  <Standard Value>  (204) 
nan

>  <Assay ChEMBL ID>  (204) 
nan

>  <Assay Description>  (204) 
nan

>  <BAO Label>  (204) 
nan

$$$$

     RDKit          2D

 25 29  0  0  0  0  0  0  0  0999 V2000
   -0.2458    5.7060    0.0000 O   0  0  0  0  0  0  0  0  0  0  0  0
   -1.2495    4.5912    0.0000 C   0  0  0  0  0  0  0  0  0  0  0  0
   -0.9376    3.1240    0.0000 C   0  0  0  0  0  0  0  0  0  0  0  0
   -2.2367    2.3740    0.0000 C   0  0  0  0  0  0  0  0  0  0  0  0
   -3.3514    3.3777    0.0000 C   0  0  0  0  0  0  0  0  0  0  0  0
   -4.8186    3.0658    0.0000 O   0  0  0  0  0  0  0  0  0  0  0  0
   -2.7413    4.7480    0.0000 N   0  0  0  0  0  0  0  0  0  0  0  0
   -3.4913    6.0471    0.0000 N   0  0  0  0  0  0  0  0  0  0  0  0
   -2.7413    7.3461    0.0000 C   0  0  0  0  0  0  0  0  0  0  0  0
   -3.4913    8.6451    0.0000 C   0  0  0  0  0  0  0  0  0  0  0  0
   -2.7413    9.9442    0.0000 C   0  0  0  0  0  0  0  0  0  0  0  0
   -3.4913   11.2432    0.0000 C   0  0  0  0  0  0  0  0  0  0  0  0
   -2.7413   12.5423    0.0000 Br  0  0  0  0  0  0  0  0  0  0  0  0
   -4.9913   11.2432    0.0000 C   0  0  0  0  0  0  0  0  0  0  0  0
   -5.7413    9.9442    0.0000 C   0  0  0  0  0  0  0  0  0  0  0  0
   -7.2413    9.9442    0.0000 Br  0  0  0  0  0  0  0  0  0  0  0  0
   -4.9913    8.6451    0.0000 C   0  0  0  0  0  0  0  0  0  0  0  0
   -5.7413    7.3461    0.0000 O   0  0  0  0  0  0  0  0  0  0  0  0
   -1.9248    0.9068    0.0000 C   0  0  0  0  0  0  0  0  0  0  0  0
   -0.8101   -0.0969    0.0000 C   0  0  0  0  0  0  0  0  0  0  0  0
    0.4890    0.6531    0.0000 C   0  0  0  0  0  0  0  0  0  0  0  0
    0.1771    2.1203    0.0000 C   0  0  0  0  0  0  0  0  0  0  0  0
   -0.4330    0.7500    0.0000 C   0  0  0  0  0  0  0  0  0  0  0  0
    0.8660    0.0000    0.0000 C   0  0  0  0  0  0  0  0  0  0  0  0
   -0.4330   -0.7500    0.0000 C   0  0  0  0  0  0  0  0  0  0  0  0
  1  2  2  0
  3  2  1  1
  3  4  1  0
  4  5  1  1
  5  6  2  0
  5  7  1  0
  7  8  1  0
  8  9  2  0
  9 10  1  0
 10 11  2  0
 11 12  1  0
 12 13  1  0
 12 14  2  0
 14 15  1  0
 15 16  1  0
 15 17  2  0
 17 18  1  0
  4 19  1  0
 19 20  1  6
 20 21  2  0
 22 21  1  6
 22 23  1  0
 23 24  1  0
 24 25  1  0
  7  2  1  0
 17 10  1  0
 23 19  1  0
 22  3  1  0
 25 23  1  0
M  END
>  <Compound_ID>  (205) 
C59463240

>  <Active>  (205) 
0.0

>  <Smiles>  (205) 
O=C1[C@@H]2[C@H](C(=O)N1/N=C/c1cc(Br)cc(Br)c1O)[C@H]1C=C[C@@H]2C12CC2

>  <canonical_smi>  (205) 
O=C1[C@H]2[C@@H]3C=C[C@H]([C@H]2C(=O)N1/N=C/c1cc(Br)cc(Br)c1O)C31CC1

>  <Set>  (205) 
G2 inactive

>  <Set_type>  (205) 
Train

>  <MW>  (205) 
466.13

>  <HBD>  (205) 
1

>  <HBA>  (205) 
3

>  <NRB>  (205) 
2

>  <NR>  (205) 
5

>  <NAR>  (205) 
1

>  <PSA>  (205) 
69.97

>  <Standard Type>  (205) 
nan

>  <Standard Relation>  (205) 
nan

>  <Standard Units>  (205) 
nan

>  <Standard Value>  (205) 
nan

>  <Assay ChEMBL ID>  (205) 
nan

>  <Assay Description>  (205) 
nan

>  <BAO Label>  (205) 
nan

$$$$

     RDKit          2D

 31 36  0  0  0  0  0  0  0  0999 V2000
    7.1385    8.1303    0.0000 C   0  0  0  0  0  0  0  0  0  0  0  0
    5.9250    7.2487    0.0000 C   0  0  0  0  0  0  0  0  0  0  0  0
    6.0818    5.7569    0.0000 C   0  0  0  0  0  0  0  0  0  0  0  0
    4.8683    4.8752    0.0000 C   0  0  0  0  0  0  0  0  0  0  0  0
    3.4979    5.4853    0.0000 C   0  0  0  0  0  0  0  0  0  0  0  0
    2.2844    4.6036    0.0000 C   0  0  0  0  0  0  0  0  0  0  0  0
    2.2844    3.1036    0.0000 C   0  0  0  0  0  0  0  0  0  0  0  0
    0.8578    2.6401    0.0000 C   0  0  0  0  0  0  0  0  0  0  0  0
    0.3943    1.2135    0.0000 C   0  0  0  0  0  0  0  0  0  0  0  0
    1.2760    0.0000    0.0000 N   0  0  0  0  0  0  0  0  0  0  0  0
    0.3943   -1.2135    0.0000 C   0  0  0  0  0  0  0  0  0  0  0  0
    0.7062   -2.6807    0.0000 C   0  0  0  0  0  0  0  0  0  0  0  0
    2.0052   -3.4307    0.0000 S   0  0  0  0  0  0  0  0  0  0  0  0
    1.6933   -4.8980    0.0000 C   0  0  0  0  0  0  0  0  0  0  0  0
    2.5750   -6.1115    0.0000 N   0  0  0  0  0  0  0  0  0  0  0  0
    1.9649   -7.4818    0.0000 C   0  0  0  0  0  0  0  0  0  0  0  0
    2.8466   -8.6953    0.0000 C   0  0  0  0  0  0  0  0  0  0  0  0
    0.4731   -7.6386    0.0000 C   0  0  0  0  0  0  0  0  0  0  0  0
   -0.4086   -6.4251    0.0000 C   0  0  0  0  0  0  0  0  0  0  0  0
   -1.9003   -6.5819    0.0000 C   0  0  0  0  0  0  0  0  0  0  0  0
    0.2016   -5.0548    0.0000 C   0  0  0  0  0  0  0  0  0  0  0  0
   -0.4086   -3.6844    0.0000 C   0  0  0  0  0  0  0  0  0  0  0  0
   -1.8351   -3.2209    0.0000 N   0  0  0  0  0  0  0  0  0  0  0  0
   -2.1470   -1.7537    0.0000 C   0  0  0  0  0  0  0  0  0  0  0  0
   -1.0323   -0.7500    0.0000 N   0  0  0  0  0  0  0  0  0  0  0  0
   -1.0323    0.7500    0.0000 N   0  0  0  0  0  0  0  0  0  0  0  0
   -0.0239    3.8536    0.0000 N   0  0  0  0  0  0  0  0  0  0  0  0
    0.8578    5.0672    0.0000 N   0  0  0  0  0  0  0  0  0  0  0  0
    3.3411    6.9771    0.0000 C   0  0  0  0  0  0  0  0  0  0  0  0
    1.9708    7.5872    0.0000 C   0  0  0  0  0  0  0  0  0  0  0  0
    4.5547    7.8588    0.0000 C   0  0  0  0  0  0  0  0  0  0  0  0
  1  2  1  0
  2  3  2  0
  3  4  1  0
  4  5  2  0
  5  6  1  0
  6  7  2  0
  7  8  1  0
  8  9  1  6
  9 10  1  0
 10 11  2  0
 11 12  1  0
 12 13  1  0
 13 14  1  0
 14 15  2  0
 15 16  1  0
 16 17  1  0
 16 18  2  0
 18 19  1  0
 19 20  1  0
 19 21  2  0
 21 22  1  0
 22 23  1  0
 23 24  2  0
 24 25  1  0
 25 26  1  0
  8 27  1  0
 27 28  2  0
  5 29  1  0
 29 30  1  0
 29 31  2  0
 31  2  1  0
 28  6  1  0
 26  9  2  0
 25 11  1  0
 22 12  2  0
 21 14  1  0
M  END
>  <Compound_ID>  (206) 
C63528803

>  <Active>  (206) 
0.0

>  <Smiles>  (206) 
Cc1ccc(C2=C[C@H](c3nc4c5sc6nc(C)cc(C)c6c5ncn4n3)N=N2)c(C)c1

>  <canonical_smi>  (206) 
Cc1ccc(C2=C[C@H](c3nc4c5sc6nc(C)cc(C)c6c5ncn4n3)N=N2)c(C)c1

>  <Set>  (206) 
G2 inactive

>  <Set_type>  (206) 
Train

>  <MW>  (206) 
425.52

>  <HBD>  (206) 
0

>  <HBA>  (206) 
4

>  <NRB>  (206) 
2

>  <NR>  (206) 
6

>  <NAR>  (206) 
5

>  <PSA>  (206) 
80.69

>  <Standard Type>  (206) 
nan

>  <Standard Relation>  (206) 
nan

>  <Standard Units>  (206) 
nan

>  <Standard Value>  (206) 
nan

>  <Assay ChEMBL ID>  (206) 
nan

>  <Assay Description>  (206) 
nan

>  <BAO Label>  (206) 
nan

$$$$

     RDKit          2D

 34 39  0  0  0  0  0  0  0  0999 V2000
   -1.6131    7.3700    0.0000 C   0  0  0  0  0  0  0  0  0  0  0  0
   -0.1459    7.6819    0.0000 C   0  0  0  0  0  0  0  0  0  0  0  0
    0.3177    9.1085    0.0000 C   0  0  0  0  0  0  0  0  0  0  0  0
    1.7849    9.4203    0.0000 C   0  0  0  0  0  0  0  0  0  0  0  0
    2.7886    8.3056    0.0000 C   0  0  0  0  0  0  0  0  0  0  0  0
    4.2558    8.6175    0.0000 N   0  0  0  0  0  4  0  0  0  0  0  0
    4.7193   10.0441    0.0000 O   0  0  0  0  0  0  0  0  0  0  0  0
    5.2595    7.5028    0.0000 O   0  0  0  0  0  1  0  0  0  0  0  0
    2.3250    6.8790    0.0000 C   0  0  0  0  0  0  0  0  0  0  0  0
    0.8578    6.5672    0.0000 C   0  0  0  0  0  0  0  0  0  0  0  0
    0.3943    5.1406    0.0000 N   0  0  0  0  0  0  0  0  0  0  0  0
    1.2760    3.9271    0.0000 C   0  0  0  0  0  0  0  0  0  0  0  0
    2.7760    3.9271    0.0000 O   0  0  0  0  0  0  0  0  0  0  0  0
    0.3943    2.7135    0.0000 C   0  0  0  0  0  0  0  0  0  0  0  0
    0.3943    1.2135    0.0000 C   0  0  0  0  0  0  0  0  0  0  0  0
    1.2760    0.0000    0.0000 C   0  0  0  0  0  0  0  0  0  0  0  0
    0.3943   -1.2135    0.0000 C   0  0  0  0  0  0  0  0  0  0  0  0
   -1.0323   -0.7500    0.0000 C   0  0  0  0  0  0  0  0  0  0  0  0
   -1.0323    0.7500    0.0000 N   0  0  0  0  0  4  0  0  0  0  0  0
   -1.9140    1.9635    0.0000 C   0  0  0  0  0  0  0  0  0  0  0  0
   -2.7956    0.7500    0.0000 C   0  0  0  0  0  0  0  0  0  0  0  0
   -2.3321   -0.6766    0.0000 O   0  0  0  0  0  0  0  0  0  0  0  0
   -4.2222    1.2135    0.0000 N   0  0  0  0  0  0  0  0  0  0  0  0
   -4.2222    2.7135    0.0000 C   0  0  0  0  0  0  0  0  0  0  0  0
   -2.7956    3.1771    0.0000 C   0  0  0  0  0  0  0  0  0  0  0  0
   -2.4838    4.6443    0.0000 C   0  0  0  0  0  0  0  0  0  0  0  0
   -3.5985    5.6480    0.0000 C   0  0  0  0  0  0  0  0  0  0  0  0
   -5.0251    5.1844    0.0000 C   0  0  0  0  0  0  0  0  0  0  0  0
   -6.1398    6.1881    0.0000 C   0  0  0  0  0  0  0  0  0  0  0  0
   -5.3369    3.7172    0.0000 C   0  0  0  0  0  0  0  0  0  0  0  0
   -6.7635    3.2537    0.0000 C   0  0  0  0  0  0  0  0  0  0  0  0
   -1.0323    3.1771    0.0000 C   0  0  0  0  0  0  0  0  0  0  0  0
   -1.0323    4.6771    0.0000 C   0  0  0  0  0  0  0  0  0  0  0  0
   -2.2458    5.5587    0.0000 O   0  0  0  0  0  0  0  0  0  0  0  0
  1  2  1  0
  2  3  2  0
  3  4  1  0
  4  5  2  0
  5  6  1  0
  6  7  2  0
  6  8  1  0
  5  9  1  0
  9 10  2  0
 10 11  1  0
 11 12  1  0
 12 13  2  0
 14 12  1  6
 14 15  1  0
 15 16  1  6
 16 17  1  0
 17 18  1  0
 18 19  1  0
 20 19  1  1
 20 21  1  0
 21 22  2  0
 21 23  1  0
 23 24  1  0
 24 25  2  0
 25 26  1  0
 26 27  2  0
 27 28  1  0
 28 29  1  0
 28 30  2  0
 30 31  1  0
 20 32  1  0
 32 33  1  1
 33 34  2  0
 10  2  1  0
 33 11  1  0
 32 14  1  0
 19 15  1  0
 25 20  1  0
 30 24  1  0
M  CHG  3   6   1   8  -1  19   1
M  END
>  <Compound_ID>  (207) 
C16000677

>  <Active>  (207) 
0.0

>  <Smiles>  (207) 
Cc1ccc([N+](=O)[O-])cc1N1C(=O)[C@@H]2[C@@H]3CCC[NH+]3[C@]3(C(=O)Nc4c3ccc(C)c4C)[C@H]2C1=O

>  <canonical_smi>  (207) 
Cc1ccc([N+](=O)[O-])cc1N1C(=O)[C@@H]2[C@@H]3CCC[NH+]3[C@]3(C(=O)Nc4c3ccc(C)c4C)[C@H]2C1=O

>  <Set>  (207) 
G2 inactive

>  <Set_type>  (207) 
Train

>  <MW>  (207) 
461.5

>  <HBD>  (207) 
2

>  <HBA>  (207) 
5

>  <NRB>  (207) 
2

>  <NR>  (207) 
6

>  <NAR>  (207) 
2

>  <PSA>  (207) 
114.06

>  <Standard Type>  (207) 
nan

>  <Standard Relation>  (207) 
nan

>  <Standard Units>  (207) 
nan

>  <Standard Value>  (207) 
nan

>  <Assay ChEMBL ID>  (207) 
nan

>  <Assay Description>  (207) 
nan

>  <BAO Label>  (207) 
nan

$$$$

     RDKit          2D

 34 39  0  0  0  0  0  0  0  0999 V2000
   -5.2140    4.1199    0.0000 O   0  0  0  0  0  0  0  0  0  0  0  0
   -3.7516    3.7862    0.0000 C   0  0  0  0  0  0  0  0  0  0  0  0
   -2.7313    4.8857    0.0000 N   0  0  0  0  0  0  0  0  0  0  0  0
   -1.2689    4.5520    0.0000 C   0  0  0  0  0  0  0  0  0  0  0  0
   -0.2487    5.6515    0.0000 O   0  0  0  0  0  0  0  0  0  0  0  0
   -0.8268    3.1186    0.0000 C   0  0  0  0  0  0  0  0  0  0  0  0
    0.1935    4.2182    0.0000 C   0  0  0  0  0  0  0  0  0  0  0  0
    1.6559    3.8844    0.0000 C   0  0  0  0  0  0  0  0  0  0  0  0
    2.0980    2.4510    0.0000 C   0  0  0  0  0  0  0  0  0  0  0  0
    3.5604    2.1172    0.0000 N   0  0  0  0  0  4  0  0  0  0  0  0
    4.5807    3.2168    0.0000 C   0  0  0  0  0  0  0  0  0  0  0  0
    6.0430    2.8830    0.0000 C   0  0  0  0  0  0  0  0  0  0  0  0
    7.0633    3.9826    0.0000 C   0  0  0  0  0  0  0  0  0  0  0  0
    6.6212    5.4160    0.0000 C   0  0  0  0  0  0  0  0  0  0  0  0
    5.1588    5.7498    0.0000 C   0  0  0  0  0  0  0  0  0  0  0  0
    4.1385    4.6502    0.0000 N   0  0  0  0  0  0  0  0  0  0  0  0
    2.6761    4.9840    0.0000 C   0  0  0  0  0  0  0  0  0  0  0  0
    2.2340    6.4173    0.0000 O   0  0  0  0  0  0  0  0  0  0  0  0
    1.0777    1.3515    0.0000 N   0  0  0  0  0  0  0  0  0  0  0  0
    1.7286    0.0000    0.0000 C   0  0  0  0  0  0  0  0  0  0  0  0
    1.0777   -1.3515    0.0000 C   0  0  0  0  0  0  0  0  0  0  0  0
   -0.3846   -1.6852    0.0000 C   0  0  0  0  0  0  0  0  0  0  0  0
   -1.5574   -0.7500    0.0000 C   0  0  0  0  0  0  0  0  0  0  0  0
   -1.5574    0.7500    0.0000 C   0  0  0  0  0  0  0  0  0  0  0  0
   -0.3846    1.6852    0.0000 C   0  0  0  0  0  0  0  0  0  0  0  0
   -1.8470    2.0190    0.0000 C   0  0  0  0  0  0  0  0  0  0  0  0
   -1.8034    1.2231    0.0000 O   0  0  0  0  0  0  0  0  0  0  0  0
   -3.3094    2.3528    0.0000 N   0  0  0  0  0  0  0  0  0  0  0  0
   -4.3297    1.2532    0.0000 C   0  0  0  0  0  0  0  0  0  0  0  0
   -5.7921    1.5870    0.0000 C   0  0  0  0  0  0  0  0  0  0  0  0
   -6.8123    0.4874    0.0000 C   0  0  0  0  0  0  0  0  0  0  0  0
   -6.3702   -0.9459    0.0000 C   0  0  0  0  0  0  0  0  0  0  0  0
   -4.9078   -1.2797    0.0000 C   0  0  0  0  0  0  0  0  0  0  0  0
   -3.8876   -0.1801    0.0000 C   0  0  0  0  0  0  0  0  0  0  0  0
  1  2  2  0
  2  3  1  0
  3  4  1  0
  4  5  2  0
  4  6  1  0
  6  7  1  1
  7  8  1  0
  8  9  2  0
  9 10  1  0
 10 11  2  0
 11 12  1  0
 12 13  2  0
 13 14  1  0
 14 15  2  0
 15 16  1  0
 16 17  1  0
 17 18  2  0
  9 19  1  0
 19 20  1  0
 20 21  1  0
 21 22  1  0
 22 23  1  0
 23 24  1  0
 25 24  1  1
  6 26  1  0
 26 27  2  0
 26 28  1  0
 28 29  1  0
 29 30  1  0
 30 31  1  0
 31 32  1  0
 32 33  1  0
 33 34  1  0
 28  2  1  0
 34 29  1  0
 25  6  1  0
 17  8  1  0
 25 19  1  0
 16 11  1  0
M  CHG  1  10   1
M  END
>  <Compound_ID>  (208) 
C09088227

>  <Active>  (208) 
0.0

>  <Smiles>  (208) 
O=C1NC(=O)[C@@]2(Cc3c([nH+]c4ccccn4c3=O)N3CCCCC[C@H]32)C(=O)N1C1CCCCC1

>  <canonical_smi>  (208) 
O=C1NC(=O)[C@@]2(Cc3c([nH+]c4ccccn4c3=O)N3CCCCC[C@H]32)C(=O)N1C1CCCCC1

>  <Set>  (208) 
G2 inactive

>  <Set_type>  (208) 
Train

>  <MW>  (208) 
464.55

>  <HBD>  (208) 
1

>  <HBA>  (208) 
5

>  <NRB>  (208) 
1

>  <NR>  (208) 
6

>  <NAR>  (208) 
2

>  <PSA>  (208) 
105.34

>  <Standard Type>  (208) 
nan

>  <Standard Relation>  (208) 
nan

>  <Standard Units>  (208) 
nan

>  <Standard Value>  (208) 
nan

>  <Assay ChEMBL ID>  (208) 
nan

>  <Assay Description>  (208) 
nan

>  <BAO Label>  (208) 
nan

$$$$

     RDKit          2D

 36 40  0  0  0  0  0  0  0  0999 V2000
   -5.7700   -2.7836    0.0000 C   0  0  0  0  0  0  0  0  0  0  0  0
   -6.9521   -3.7071    0.0000 O   0  0  0  0  0  0  0  0  0  0  0  0
   -6.7433   -5.1925    0.0000 C   0  0  0  0  0  0  0  0  0  0  0  0
   -5.3525   -5.7544    0.0000 C   0  0  0  0  0  0  0  0  0  0  0  0
   -5.1438   -7.2398    0.0000 C   0  0  0  0  0  0  0  0  0  0  0  0
   -6.3258   -8.1633    0.0000 C   0  0  0  0  0  0  0  0  0  0  0  0
   -6.1170   -9.6487    0.0000 C   0  0  0  0  0  0  0  0  0  0  0  0
   -4.6904   -9.1852    0.0000 C   0  0  0  0  0  0  0  0  0  0  0  0
   -4.3786   -7.7180    0.0000 C   0  0  0  0  0  0  0  0  0  0  0  0
   -2.9520   -7.2544    0.0000 N   0  0  0  0  0  4  0  0  0  0  0  0
   -2.6401   -5.7872    0.0000 C   0  0  0  0  0  0  0  0  0  0  0  0
   -1.2135   -5.3237    0.0000 C   0  0  0  0  0  0  0  0  0  0  0  0
   -0.0000   -6.2054    0.0000 C   0  0  0  0  0  0  0  0  0  0  0  0
    0.0000   -7.7054    0.0000 O   0  0  0  0  0  0  0  0  0  0  0  0
    1.2135   -5.3237    0.0000 O   0  0  0  0  0  0  0  0  0  0  0  0
    0.7500   -3.8971    0.0000 C   0  0  0  0  0  0  0  0  0  0  0  0
    1.5000   -2.5981    0.0000 C   0  0  0  0  0  0  0  0  0  0  0  0
    0.7500   -1.2990    0.0000 C   0  0  0  0  0  0  0  0  0  0  0  0
    2.2500   -1.2990    0.0000 C   0  0  0  0  0  0  0  0  0  0  0  0
    1.5000    0.0000    0.0000 C   0  0  0  0  0  0  0  0  0  0  0  0
    0.7500    1.2990    0.0000 C   0  0  0  0  0  0  0  0  0  0  0  0
   -0.7500    1.2990    0.0000 C   0  0  0  0  0  0  0  0  0  0  0  0
   -1.5000    0.0000    0.0000 C   0  0  0  0  0  0  0  0  0  0  0  0
   -3.0000    0.0000    0.0000 C   0  0  0  0  0  0  0  0  0  0  0  0
   -0.7500   -1.2990    0.0000 C   0  0  0  0  0  0  0  0  0  0  0  0
   -1.5000   -2.5981    0.0000 C   0  0  0  0  0  0  0  0  0  0  0  0
   -0.7500   -3.8971    0.0000 C   0  0  0  0  0  0  0  0  0  0  0  0
   -5.4128  -10.9731    0.0000 C   0  0  0  0  0  0  0  0  0  0  0  0
   -6.2077  -12.2452    0.0000 C   0  0  0  0  0  0  0  0  0  0  0  0
   -7.7068  -12.1929    0.0000 O   0  0  0  0  0  0  0  0  0  0  0  0
   -8.4110  -10.8684    0.0000 C   0  0  0  0  0  0  0  0  0  0  0  0
   -9.5257   -9.8647    0.0000 C   0  0  0  0  0  0  0  0  0  0  0  0
   -9.5930  -11.7919    0.0000 C   0  0  0  0  0  0  0  0  0  0  0  0
   -7.6161   -9.5964    0.0000 C   0  0  0  0  0  0  0  0  0  0  0  0
   -7.7166   -7.6014    0.0000 C   0  0  0  0  0  0  0  0  0  0  0  0
   -7.9253   -6.1160    0.0000 C   0  0  0  0  0  0  0  0  0  0  0  0
  1  2  1  0
  2  3  1  0
  3  4  2  0
  4  5  1  0
  5  6  2  0
  6  7  1  0
  7  8  1  1
  8  9  1  0
  9 10  1  0
 10 11  1  0
 12 11  1  6
 12 13  1  0
 13 14  2  0
 13 15  1  0
 15 16  1  0
 16 17  1  1
 17 18  1  0
 18 19  1  1
 18 20  1  0
 20 21  1  0
 21 22  1  0
 22 23  1  0
 23 24  1  0
 23 25  2  0
 25 26  1  0
 27 26  1  1
  7 28  1  0
 28 29  1  0
 29 30  1  0
 30 31  1  0
 31 32  1  0
 31 33  1  0
 31 34  1  0
  6 35  1  0
 35 36  2  0
 36  3  1  0
 34  7  1  0
 27 12  1  0
 27 16  1  0
 25 18  1  0
M  CHG  1  10   1
M  END
>  <Compound_ID>  (209) 
C09008580

>  <Active>  (209) 
0.0

>  <Smiles>  (209) 
COc1ccc([C@]2(CC[NH2+]C[C@H]3C(=O)O[C@@H]4C[C@@]5(C)CCCC(C)=C5C[C@@H]43)CCOC(C)(C)C2)cc1

>  <canonical_smi>  (209) 
COc1ccc([C@]2(CC[NH2+]C[C@H]3C(=O)O[C@@H]4C[C@@]5(C)CCCC(C)=C5C[C@H]34)CCOC(C)(C)C2)cc1

>  <Set>  (209) 
G2 inactive

>  <Set_type>  (209) 
Train

>  <MW>  (209) 
496.71

>  <HBD>  (209) 
1

>  <HBA>  (209) 
4

>  <NRB>  (209) 
7

>  <NR>  (209) 
5

>  <NAR>  (209) 
1

>  <PSA>  (209) 
61.37

>  <Standard Type>  (209) 
nan

>  <Standard Relation>  (209) 
nan

>  <Standard Units>  (209) 
nan

>  <Standard Value>  (209) 
nan

>  <Assay ChEMBL ID>  (209) 
nan

>  <Assay Description>  (209) 
nan

>  <BAO Label>  (209) 
nan

$$$$

     RDKit          2D

 31 34  0  0  0  0  0  0  0  0999 V2000
    5.2500   -1.2990    0.0000 C   0  0  0  0  0  0  0  0  0  0  0  0
    3.7500   -1.2990    0.0000 C   0  0  0  0  0  0  0  0  0  0  0  0
    3.0000    0.0000    0.0000 O   0  0  0  0  0  0  0  0  0  0  0  0
    1.5000    0.0000    0.0000 C   0  0  0  0  0  0  0  0  0  0  0  0
    0.7500   -1.2990    0.0000 C   0  0  0  0  0  0  0  0  0  0  0  0
   -0.7500   -1.2990    0.0000 C   0  0  0  0  0  0  0  0  0  0  0  0
   -1.5000    0.0000    0.0000 C   0  0  0  0  0  0  0  0  0  0  0  0
   -3.0000    0.0000    0.0000 N   0  0  0  0  0  0  0  0  0  0  0  0
   -3.8817   -1.2135    0.0000 C   0  0  0  0  0  0  0  0  0  0  0  0
   -3.4182   -2.6401    0.0000 O   0  0  0  0  0  0  0  0  0  0  0  0
   -5.3083   -0.7500    0.0000 C   0  0  0  0  0  0  0  0  0  0  0  0
   -5.3083    0.7500    0.0000 C   0  0  0  0  0  0  0  0  0  0  0  0
   -6.5218    1.6317    0.0000 N   0  0  0  0  0  4  0  0  0  0  0  0
   -6.3650    3.1235    0.0000 C   0  0  0  0  0  0  0  0  0  0  0  0
   -4.9947    3.7336    0.0000 C   0  0  0  0  0  0  0  0  0  0  0  0
   -4.8379    5.2253    0.0000 C   0  0  0  0  0  0  0  0  0  0  0  0
   -6.0514    6.1070    0.0000 N   0  0  0  0  0  0  0  0  0  0  0  0
   -5.8946    7.5988    0.0000 C   0  0  0  0  0  0  0  0  0  0  0  0
   -4.5243    8.2089    0.0000 N   0  0  0  0  0  0  0  0  0  0  0  0
   -4.3675    9.7007    0.0000 C   0  0  0  0  0  0  0  0  0  0  0  0
   -5.5810   10.5824    0.0000 C   0  0  0  0  0  0  0  0  0  0  0  0
   -5.4242   12.0742    0.0000 Cl  0  0  0  0  0  0  0  0  0  0  0  0
   -6.9514    9.9723    0.0000 C   0  0  0  0  0  0  0  0  0  0  0  0
   -7.1081    8.4805    0.0000 C   0  0  0  0  0  0  0  0  0  0  0  0
   -8.4785    7.8704    0.0000 Cl  0  0  0  0  0  0  0  0  0  0  0  0
   -7.4217    5.4969    0.0000 C   0  0  0  0  0  0  0  0  0  0  0  0
   -7.5785    4.0051    0.0000 C   0  0  0  0  0  0  0  0  0  0  0  0
   -3.8817    1.2135    0.0000 C   0  0  0  0  0  0  0  0  0  0  0  0
   -3.4182    2.6401    0.0000 O   0  0  0  0  0  0  0  0  0  0  0  0
   -0.7500    1.2990    0.0000 C   0  0  0  0  0  0  0  0  0  0  0  0
    0.7500    1.2990    0.0000 C   0  0  0  0  0  0  0  0  0  0  0  0
  1  2  1  0
  2  3  1  0
  3  4  1  0
  4  5  2  0
  5  6  1  0
  6  7  2  0
  7  8  1  0
  8  9  1  0
  9 10  2  0
  9 11  1  0
 11 12  1  0
 12 13  1  1
 13 14  1  0
 14 15  1  0
 15 16  1  0
 16 17  1  0
 17 18  1  0
 18 19  2  0
 19 20  1  0
 20 21  2  0
 21 22  1  0
 21 23  1  0
 23 24  2  0
 24 25  1  0
 17 26  1  0
 26 27  1  0
 12 28  1  0
 28 29  2  0
  7 30  1  0
 30 31  2  0
 31  4  1  0
 28  8  1  0
 27 14  1  0
 24 18  1  0
M  CHG  1  13   1
M  END
>  <Compound_ID>  (210) 
C18128541

>  <Active>  (210) 
0.0

>  <Smiles>  (210) 
CCOc1ccc(N2C(=O)C[C@@H]([NH2+]C3CCN(c4ncc(Cl)cc4Cl)CC3)C2=O)cc1

>  <canonical_smi>  (210) 
CCOc1ccc(N2C(=O)C[C@@H]([NH2+]C3CCN(c4ncc(Cl)cc4Cl)CC3)C2=O)cc1

>  <Set>  (210) 
G2 inactive

>  <Set_type>  (210) 
Train

>  <MW>  (210) 
464.37

>  <HBD>  (210) 
1

>  <HBA>  (210) 
5

>  <NRB>  (210) 
6

>  <NR>  (210) 
4

>  <NAR>  (210) 
2

>  <PSA>  (210) 
79.35

>  <Standard Type>  (210) 
nan

>  <Standard Relation>  (210) 
nan

>  <Standard Units>  (210) 
nan

>  <Standard Value>  (210) 
nan

>  <Assay ChEMBL ID>  (210) 
nan

>  <Assay Description>  (210) 
nan

>  <BAO Label>  (210) 
nan

$$$$

     RDKit          2D

 30 34  0  0  0  0  0  0  0  0999 V2000
    3.0613   -9.9436    0.0000 O   0  0  0  0  0  0  0  0  0  0  0  0
    1.8478   -9.0619    0.0000 C   0  0  0  0  0  0  0  0  0  0  0  0
    0.4775   -9.6721    0.0000 N   0  0  0  0  0  0  0  0  0  0  0  0
    0.3207  -11.1638    0.0000 C   0  0  0  0  0  0  0  0  0  0  0  0
   -1.0496  -11.7739    0.0000 C   0  0  0  0  0  0  0  0  0  0  0  0
   -1.2064  -13.2657    0.0000 C   0  0  0  0  0  0  0  0  0  0  0  0
   -0.0917  -14.2694    0.0000 C   0  0  0  0  0  0  0  0  0  0  0  0
   -0.7018  -15.6397    0.0000 C   0  0  0  0  0  0  0  0  0  0  0  0
   -2.1936  -15.4829    0.0000 C   0  0  0  0  0  0  0  0  0  0  0  0
   -2.5054  -14.0157    0.0000 O   0  0  0  0  0  0  0  0  0  0  0  0
   -2.2631  -10.8923    0.0000 N   0  0  0  0  0  4  0  0  0  0  0  0
   -3.6897  -11.3558    0.0000 C   0  0  0  0  0  0  0  0  0  0  0  0
   -4.5714  -10.1423    0.0000 C   0  0  0  0  0  0  0  0  0  0  0  0
   -3.6897   -8.9287    0.0000 C   0  0  0  0  0  0  0  0  0  0  0  0
   -2.2631   -9.3923    0.0000 C   0  0  0  0  0  0  0  0  0  0  0  0
    2.0046   -7.5702    0.0000 C   0  0  0  0  0  0  0  0  0  0  0  0
    0.8899   -6.5665    0.0000 C   0  0  0  0  0  0  0  0  0  0  0  0
    1.5000   -5.1962    0.0000 C   0  0  0  0  0  0  0  0  0  0  0  0
    0.7500   -3.8971    0.0000 C   0  0  0  0  0  0  0  0  0  0  0  0
   -0.7500   -3.8971    0.0000 C   0  0  0  0  0  0  0  0  0  0  0  0
   -1.5000   -2.5981    0.0000 C   0  0  0  0  0  0  0  0  0  0  0  0
   -0.7500   -1.2990    0.0000 C   0  0  0  0  0  0  0  0  0  0  0  0
    0.7500   -1.2990    0.0000 C   0  0  0  0  0  0  0  0  0  0  0  0
    1.5000   -2.5981    0.0000 C   0  0  0  0  0  0  0  0  0  0  0  0
    1.5000    0.0000    0.0000 C   0  0  0  0  0  0  0  0  0  0  0  0
    0.7500    1.2990    0.0000 C   0  0  0  0  0  0  0  0  0  0  0  0
   -0.7500    1.2990    0.0000 C   0  0  0  0  0  0  0  0  0  0  0  0
   -1.5000    0.0000    0.0000 C   0  0  0  0  0  0  0  0  0  0  0  0
    2.9918   -5.3529    0.0000 O   0  0  0  0  0  0  0  0  0  0  0  0
    3.3037   -6.8202    0.0000 N   0  0  0  0  0  0  0  0  0  0  0  0
  1  2  2  0
  2  3  1  0
  3  4  1  0
  5  4  1  1
  5  6  1  0
  6  7  2  0
  7  8  1  0
  8  9  2  0
  9 10  1  0
  5 11  1  0
 11 12  1  0
 12 13  1  0
 13 14  1  0
 14 15  1  0
  2 16  1  0
 16 17  1  0
 17 18  2  0
 18 19  1  0
 19 20  2  0
 20 21  1  0
 21 22  2  0
 22 23  1  0
 23 24  2  0
 23 25  1  0
 25 26  1  0
 26 27  1  0
 27 28  1  0
 18 29  1  0
 29 30  1  0
 10  6  1  0
 15 11  1  0
 30 16  2  0
 24 19  1  0
 28 22  1  0
M  CHG  1  11   1
M  END
>  <Compound_ID>  (211) 
C15859678

>  <Active>  (211) 
0.0

>  <Smiles>  (211) 
O=C(NC[C@@H](c1ccco1)[NH+]1CCCC1)c1cc(-c2ccc3c(c2)CCCC3)on1

>  <canonical_smi>  (211) 
O=C(NC[C@@H](c1ccco1)[NH+]1CCCC1)c1cc(-c2ccc3c(c2)CCCC3)on1

>  <Set>  (211) 
G2 inactive

>  <Set_type>  (211) 
Train

>  <MW>  (211) 
406.51

>  <HBD>  (211) 
2

>  <HBA>  (211) 
4

>  <NRB>  (211) 
6

>  <NR>  (211) 
5

>  <NAR>  (211) 
3

>  <PSA>  (211) 
72.71

>  <Standard Type>  (211) 
nan

>  <Standard Relation>  (211) 
nan

>  <Standard Units>  (211) 
nan

>  <Standard Value>  (211) 
nan

>  <Assay ChEMBL ID>  (211) 
nan

>  <Assay Description>  (211) 
nan

>  <BAO Label>  (211) 
nan

$$$$

     RDKit          2D

 30 34  0  0  0  0  0  0  0  0999 V2000
    3.0000   -3.6962    0.0000 O   0  0  0  0  0  0  0  0  0  0  0  0
    3.0000   -5.1962    0.0000 S   0  0  0  0  0  0  0  0  0  0  0  0
    3.0000   -6.6962    0.0000 O   0  0  0  0  0  0  0  0  0  0  0  0
    1.5000   -5.1962    0.0000 N   0  0  0  0  0  0  0  0  0  0  0  0
    0.7500   -3.8971    0.0000 C   0  0  0  0  0  0  0  0  0  0  0  0
    1.5000   -2.5981    0.0000 N   0  0  0  0  0  0  0  0  0  0  0  0
    0.7500   -1.2990    0.0000 C   0  0  0  0  0  0  0  0  0  0  0  0
    1.5000    0.0000    0.0000 C   0  0  0  0  0  0  0  0  0  0  0  0
    0.7500    1.2990    0.0000 C   0  0  0  0  0  0  0  0  0  0  0  0
   -0.7500    1.2990    0.0000 C   0  0  0  0  0  0  0  0  0  0  0  0
   -1.5000    0.0000    0.0000 C   0  0  0  0  0  0  0  0  0  0  0  0
   -0.7500   -1.2990    0.0000 C   0  0  0  0  0  0  0  0  0  0  0  0
   -1.5000   -2.5981    0.0000 N   0  0  0  0  0  4  0  0  0  0  0  0
   -0.7500   -3.8971    0.0000 C   0  0  0  0  0  0  0  0  0  0  0  0
   -1.5000   -5.1962    0.0000 N   0  0  0  0  0  0  0  0  0  0  0  0
   -3.0000   -5.1962    0.0000 C   0  0  0  0  0  0  0  0  0  0  0  0
   -3.7500   -3.8971    0.0000 C   0  0  0  0  0  0  0  0  0  0  0  0
   -5.2500   -3.8971    0.0000 C   0  0  0  0  0  0  0  0  0  0  0  0
   -6.0000   -5.1962    0.0000 C   0  0  0  0  0  0  0  0  0  0  0  0
   -7.4672   -5.5080    0.0000 N   0  0  0  0  0  0  0  0  0  0  0  0
   -7.6240   -6.9998    0.0000 S   0  0  0  0  0  0  0  0  0  0  0  0
   -6.2537   -7.6099    0.0000 N   0  0  0  0  0  0  0  0  0  0  0  0
   -5.2500   -6.4952    0.0000 C   0  0  0  0  0  0  0  0  0  0  0  0
   -3.7500   -6.4952    0.0000 C   0  0  0  0  0  0  0  0  0  0  0  0
    4.5000   -5.1962    0.0000 C   0  0  0  0  0  0  0  0  0  0  0  0
    5.2500   -6.4952    0.0000 C   0  0  0  0  0  0  0  0  0  0  0  0
    6.7500   -6.4952    0.0000 C   0  0  0  0  0  0  0  0  0  0  0  0
    7.5000   -5.1962    0.0000 C   0  0  0  0  0  0  0  0  0  0  0  0
    6.7500   -3.8971    0.0000 C   0  0  0  0  0  0  0  0  0  0  0  0
    5.2500   -3.8971    0.0000 C   0  0  0  0  0  0  0  0  0  0  0  0
  1  2  2  0
  2  3  2  0
  2  4  1  0
  4  5  2  0
  5  6  1  0
  6  7  2  0
  7  8  1  0
  8  9  2  0
  9 10  1  0
 10 11  2  0
 11 12  1  0
 12 13  2  0
 13 14  1  0
 14 15  1  6
 15 16  1  0
 16 17  1  0
 17 18  2  0
 18 19  1  0
 19 20  2  0
 20 21  1  0
 21 22  1  0
 22 23  2  0
 23 24  1  0
  2 25  1  0
 25 26  2  0
 26 27  1  0
 27 28  2  0
 28 29  1  0
 29 30  2  0
 14  5  1  0
 24 16  2  0
 30 25  1  0
 12  7  1  0
 23 19  1  0
M  CHG  1  13   1
M  END
>  <Compound_ID>  (212) 
C39984269

>  <Active>  (212) 
0.0

>  <Smiles>  (212) 
O=S(=O)(/N=C1\N=c2ccccc2=[NH+][C@H]1Nc1ccc2nsnc2c1)c1ccccc1

>  <canonical_smi>  (212) 
O=S(=O)(/N=C1\N=c2ccccc2=[NH+][C@H]1Nc1ccc2nsnc2c1)c1ccccc1

>  <Set>  (212) 
G2 inactive

>  <Set_type>  (212) 
Train

>  <MW>  (212) 
435.51

>  <HBD>  (212) 
2

>  <HBA>  (212) 
5

>  <NRB>  (212) 
4

>  <NR>  (212) 
5

>  <NAR>  (212) 
4

>  <PSA>  (212) 
110.64

>  <Standard Type>  (212) 
nan

>  <Standard Relation>  (212) 
nan

>  <Standard Units>  (212) 
nan

>  <Standard Value>  (212) 
nan

>  <Assay ChEMBL ID>  (212) 
nan

>  <Assay Description>  (212) 
nan

>  <BAO Label>  (212) 
nan

$$$$

     RDKit          2D

 18 19  0  0  0  0  0  0  0  0999 V2000
    3.7500   -1.2990    0.0000 C   0  0  0  0  0  0  0  0  0  0  0  0
    3.0000    0.0000    0.0000 S   0  0  0  0  0  0  0  0  0  0  0  0
    1.5000    0.0000    0.0000 C   0  0  0  0  0  0  0  0  0  0  0  0
    0.7500   -1.2990    0.0000 N   0  0  0  0  0  0  0  0  0  0  0  0
   -0.7500   -1.2990    0.0000 C   0  0  0  0  0  0  0  0  0  0  0  0
   -1.5000   -2.5981    0.0000 N   0  0  0  0  0  0  0  0  0  0  0  0
   -3.0000   -2.5981    0.0000 C   0  0  0  0  0  0  0  0  0  0  0  0
   -3.7500   -3.8971    0.0000 C   0  0  0  0  0  0  0  0  0  0  0  0
   -3.0000   -5.1962    0.0000 O   0  0  0  0  0  0  0  0  0  0  0  0
   -1.5000   -5.1962    0.0000 C   0  0  0  0  0  0  0  0  0  0  0  0
   -0.7500   -3.8971    0.0000 C   0  0  0  0  0  0  0  0  0  0  0  0
   -1.5000    0.0000    0.0000 C   0  0  0  0  0  0  0  0  0  0  0  0
   -0.7500    1.2990    0.0000 C   0  0  0  0  0  0  0  0  0  0  0  0
   -1.5000    2.5981    0.0000 C   0  0  0  0  0  0  0  0  0  0  0  0
   -2.2500    3.8971    0.0000 F   0  0  0  0  0  0  0  0  0  0  0  0
   -0.2010    3.3481    0.0000 F   0  0  0  0  0  0  0  0  0  0  0  0
   -2.7990    1.8481    0.0000 F   0  0  0  0  0  0  0  0  0  0  0  0
    0.7500    1.2990    0.0000 N   0  0  0  0  0  0  0  0  0  0  0  0
  1  2  1  0
  2  3  1  0
  3  4  2  0
  4  5  1  0
  5  6  1  0
  6  7  1  0
  7  8  1  0
  8  9  1  0
  9 10  1  0
 10 11  1  0
  5 12  2  0
 12 13  1  0
 13 14  1  0
 14 15  1  0
 14 16  1  0
 14 17  1  0
 13 18  2  0
 18  3  1  0
 11  6  1  0
M  END
>  <Compound_ID>  (213) 
C01398553

>  <Active>  (213) 
0.0

>  <Smiles>  (213) 
CSc1nc(N2CCOCC2)cc(C(F)(F)F)n1

>  <canonical_smi>  (213) 
CSc1nc(N2CCOCC2)cc(C(F)(F)F)n1

>  <Set>  (213) 
G2 inactive

>  <Set_type>  (213) 
Train

>  <MW>  (213) 
279.29

>  <HBD>  (213) 
0

>  <HBA>  (213) 
5

>  <NRB>  (213) 
2

>  <NR>  (213) 
2

>  <NAR>  (213) 
1

>  <PSA>  (213) 
38.25

>  <Standard Type>  (213) 
nan

>  <Standard Relation>  (213) 
nan

>  <Standard Units>  (213) 
nan

>  <Standard Value>  (213) 
nan

>  <Assay ChEMBL ID>  (213) 
nan

>  <Assay Description>  (213) 
nan

>  <BAO Label>  (213) 
nan

$$$$

     RDKit          2D

 20 21  0  0  0  0  0  0  0  0999 V2000
    6.4001    1.2642    0.0000 C   0  0  0  0  0  0  0  0  0  0  0  0
    4.9483    1.6416    0.0000 C   0  0  0  0  0  0  0  0  0  0  0  0
    4.5492    3.0876    0.0000 C   0  0  0  0  0  0  0  0  0  0  0  0
    5.9952    3.4866    0.0000 C   0  0  0  0  0  0  0  0  0  0  0  0
    7.4411    3.8857    0.0000 N   0  0  0  0  0  0  0  0  0  0  0  0
    4.1502    4.5335    0.0000 C   0  0  0  0  0  0  0  0  0  0  0  0
    5.2029    5.6021    0.0000 C   0  0  0  0  0  0  0  0  0  0  0  0
    3.1033    2.6885    0.0000 N   0  0  0  0  0  0  0  0  0  0  0  0
    1.9306    3.6237    0.0000 C   0  0  0  0  0  0  0  0  0  0  0  0
    1.9978    5.1222    0.0000 O   0  0  0  0  0  0  0  0  0  0  0  0
    0.6787    2.7974    0.0000 C   0  0  0  0  0  0  0  0  0  0  0  0
    1.0777    1.3515    0.0000 C   0  0  0  0  0  0  0  0  0  0  0  0
    1.7286    0.0000    0.0000 C   0  0  0  0  0  0  0  0  0  0  0  0
    1.0777   -1.3515    0.0000 C   0  0  0  0  0  0  0  0  0  0  0  0
   -0.3846   -1.6852    0.0000 C   0  0  0  0  0  0  0  0  0  0  0  0
   -1.5574   -0.7500    0.0000 C   0  0  0  0  0  0  0  0  0  0  0  0
   -1.5574    0.7500    0.0000 C   0  0  0  0  0  0  0  0  0  0  0  0
   -0.3846    1.6852    0.0000 C   0  0  0  0  0  0  0  0  0  0  0  0
    2.5762    1.2842    0.0000 C   0  0  0  0  0  0  0  0  0  0  0  0
    3.4026    0.0323    0.0000 O   0  0  0  0  0  0  0  0  0  0  0  0
  1  2  1  0
  2  3  1  0
  3  4  1  0
  4  5  3  0
  3  6  1  0
  6  7  1  0
  3  8  1  0
  8  9  1  0
  9 10  2  0
  9 11  1  0
 11 12  1  0
 12 13  1  0
 13 14  1  0
 14 15  1  0
 15 16  1  0
 16 17  1  0
 17 18  1  0
 12 19  1  0
 19 20  2  0
 19  8  1  0
 18 12  1  0
M  END
>  <Compound_ID>  (214) 
C40366101

>  <Active>  (214) 
0.0

>  <Smiles>  (214) 
CCC(C#N)(CC)N1C(=O)CC2(CCCCCC2)C1=O

>  <canonical_smi>  (214) 
CCC(C#N)(CC)N1C(=O)CC2(CCCCCC2)C1=O

>  <Set>  (214) 
G2 inactive

>  <Set_type>  (214) 
Train

>  <MW>  (214) 
276.38

>  <HBD>  (214) 
0

>  <HBA>  (214) 
3

>  <NRB>  (214) 
3

>  <NR>  (214) 
2

>  <NAR>  (214) 
0

>  <PSA>  (214) 
61.17

>  <Standard Type>  (214) 
nan

>  <Standard Relation>  (214) 
nan

>  <Standard Units>  (214) 
nan

>  <Standard Value>  (214) 
nan

>  <Assay ChEMBL ID>  (214) 
nan

>  <Assay Description>  (214) 
nan

>  <BAO Label>  (214) 
nan

$$$$

     RDKit          2D

 19 21  0  0  0  0  0  0  0  0999 V2000
   -0.3756    9.0563    0.0000 C   0  0  0  0  0  0  0  0  0  0  0  0
   -1.8610    8.8476    0.0000 C   0  0  0  0  0  0  0  0  0  0  0  0
   -2.4229    7.4568    0.0000 C   0  0  0  0  0  0  0  0  0  0  0  0
   -3.6949    8.2517    0.0000 C   0  0  0  0  0  0  0  0  0  0  0  0
   -0.9556    7.1449    0.0000 C   0  0  0  0  0  0  0  0  0  0  0  0
   -0.4921    5.7184    0.0000 C   0  0  0  0  0  0  0  0  0  0  0  0
   -1.4958    4.6036    0.0000 N   0  0  0  0  0  0  0  0  0  0  0  0
   -1.0323    3.1771    0.0000 C   0  0  0  0  0  0  0  0  0  0  0  0
    0.3943    2.7135    0.0000 N   0  0  0  0  0  0  0  0  0  0  0  0
    0.3943    1.2135    0.0000 C   0  0  0  0  0  0  0  0  0  0  0  0
    1.2760    0.0000    0.0000 S   0  0  0  0  0  0  0  0  0  0  0  0
    0.3943   -1.2135    0.0000 C   0  0  0  0  0  0  0  0  0  0  0  0
   -1.0323   -0.7500    0.0000 C   0  0  0  0  0  0  0  0  0  0  0  0
   -1.0323    0.7500    0.0000 N   0  0  0  0  0  0  0  0  0  0  0  0
   -1.9140    1.9635    0.0000 C   0  0  0  0  0  0  0  0  0  0  0  0
   -3.4140    1.9635    0.0000 C   0  0  0  0  0  0  0  0  0  0  0  0
   -4.1640    3.2626    0.0000 O   0  0  0  0  0  0  0  0  0  0  0  0
   -2.9630    4.9155    0.0000 C   0  0  0  0  0  0  0  0  0  0  0  0
   -3.4266    6.3421    0.0000 C   0  0  0  0  0  0  0  0  0  0  0  0
  1  2  1  0
  2  3  1  0
  3  4  1  0
  3  5  1  0
  5  6  1  0
  6  7  1  0
  7  8  1  0
  8  9  1  0
  9 10  2  0
 10 11  1  0
 11 12  1  0
 12 13  2  0
 13 14  1  0
 14 15  1  0
 15 16  1  0
 16 17  2  0
  7 18  1  0
 18 19  1  0
 19  3  1  0
 15  8  2  0
 14 10  1  0
M  END
>  <Compound_ID>  (215) 
C62954530

>  <Active>  (215) 
0.0

>  <Smiles>  (215) 
CCC1(C)CCN(c2nc3sccn3c2C=O)CC1

>  <canonical_smi>  (215) 
CCC1(C)CCN(c2nc3sccn3c2C=O)CC1

>  <Set>  (215) 
G2 inactive

>  <Set_type>  (215) 
Train

>  <MW>  (215) 
277.39

>  <HBD>  (215) 
0

>  <HBA>  (215) 
3

>  <NRB>  (215) 
3

>  <NR>  (215) 
3

>  <NAR>  (215) 
2

>  <PSA>  (215) 
37.61

>  <Standard Type>  (215) 
nan

>  <Standard Relation>  (215) 
nan

>  <Standard Units>  (215) 
nan

>  <Standard Value>  (215) 
nan

>  <Assay ChEMBL ID>  (215) 
nan

>  <Assay Description>  (215) 
nan

>  <BAO Label>  (215) 
nan

$$$$

     RDKit          2D

 28 31  0  0  0  0  0  0  0  0999 V2000
    3.7500    1.2990    0.0000 N   0  0  0  0  0  0  0  0  0  0  0  0
    3.0000    0.0000    0.0000 C   0  0  0  0  0  0  0  0  0  0  0  0
    3.7500   -1.2990    0.0000 N   0  0  0  0  0  0  0  0  0  0  0  0
    5.2500   -1.2990    0.0000 O   0  0  0  0  0  0  0  0  0  0  0  0
    1.5000    0.0000    0.0000 C   0  0  0  0  0  0  0  0  0  0  0  0
    0.7500   -1.2990    0.0000 C   0  0  0  0  0  0  0  0  0  0  0  0
   -0.7500   -1.2990    0.0000 C   0  0  0  0  0  0  0  0  0  0  0  0
   -1.5000    0.0000    0.0000 C   0  0  0  0  0  0  0  0  0  0  0  0
   -2.9672    0.3119    0.0000 N   0  0  0  0  0  0  0  0  0  0  0  0
   -3.1240    1.8037    0.0000 C   0  0  0  0  0  0  0  0  0  0  0  0
   -4.4231    2.5537    0.0000 C   0  0  0  0  0  0  0  0  0  0  0  0
   -5.7934    1.9435    0.0000 C   0  0  0  0  0  0  0  0  0  0  0  0
   -6.7971    3.0583    0.0000 C   0  0  0  0  0  0  0  0  0  0  0  0
   -6.0471    4.3573    0.0000 C   0  0  0  0  0  0  0  0  0  0  0  0
   -6.6572    5.7276    0.0000 C   0  0  0  0  0  0  0  0  0  0  0  0
   -5.7755    6.9411    0.0000 C   0  0  0  0  0  0  0  0  0  0  0  0
   -6.3856    8.3115    0.0000 C   0  0  0  0  0  0  0  0  0  0  0  0
   -7.8774    8.4683    0.0000 C   0  0  0  0  0  0  0  0  0  0  0  0
   -8.4875    9.8386    0.0000 C   0  0  0  0  0  0  0  0  0  0  0  0
   -7.6058   11.0521    0.0000 N   0  0  0  0  0  4  0  0  0  0  0  0
   -9.9793    9.9954    0.0000 N   0  0  0  0  0  0  0  0  0  0  0  0
  -10.5894   11.3657    0.0000 O   0  0  0  0  0  0  0  0  0  0  0  0
   -8.7591    7.2547    0.0000 C   0  0  0  0  0  0  0  0  0  0  0  0
   -8.1490    5.8844    0.0000 C   0  0  0  0  0  0  0  0  0  0  0  0
   -4.5798    4.0454    0.0000 O   0  0  0  0  0  0  0  0  0  0  0  0
   -1.7537    2.4138    0.0000 C   0  0  0  0  0  0  0  0  0  0  0  0
   -0.7500    1.2990    0.0000 N   0  0  0  0  0  0  0  0  0  0  0  0
    0.7500    1.2990    0.0000 C   0  0  0  0  0  0  0  0  0  0  0  0
  1  2  1  0
  2  3  2  0
  3  4  1  0
  2  5  1  0
  5  6  1  0
  6  7  2  0
  7  8  1  0
  8  9  2  0
  9 10  1  0
 10 11  1  0
 11 12  2  0
 12 13  1  0
 13 14  2  0
 14 15  1  0
 15 16  2  0
 16 17  1  0
 17 18  2  0
 18 19  1  0
 19 20  2  0
 19 21  1  0
 21 22  1  0
 18 23  1  0
 23 24  2  0
 14 25  1  0
 10 26  2  0
 26 27  1  0
 27 28  1  0
 28  5  2  0
 27  8  1  0
 25 11  1  0
 24 15  1  0
M  CHG  1  20   1
M  END
>  <Compound_ID>  (216) 
C27193399

>  <Active>  (216) 
0.0

>  <Smiles>  (216) 
N/C(=N\O)c1ccc2nc(-c3ccc(-c4ccc(C(=[NH2+])NO)cc4)o3)cn2c1

>  <canonical_smi>  (216) 
N/C(=N\O)c1ccc2nc(-c3ccc(-c4ccc(C(=[NH2+])NO)cc4)o3)cn2c1

>  <Set>  (216) 
G2 inactive

>  <Set_type>  (216) 
Train

>  <MW>  (216) 
377.38

>  <HBD>  (216) 
5

>  <HBA>  (216) 
6

>  <NRB>  (216) 
4

>  <NR>  (216) 
4

>  <NAR>  (216) 
4

>  <PSA>  (216) 
146.9

>  <Standard Type>  (216) 
nan

>  <Standard Relation>  (216) 
nan

>  <Standard Units>  (216) 
nan

>  <Standard Value>  (216) 
nan

>  <Assay ChEMBL ID>  (216) 
nan

>  <Assay Description>  (216) 
nan

>  <BAO Label>  (216) 
nan

$$$$

     RDKit          2D

 26 26  0  0  0  0  0  0  0  0999 V2000
    8.2500   -3.8971    0.0000 C   0  0  0  0  0  0  0  0  0  0  0  0
    7.5000   -2.5981    0.0000 C   0  0  0  0  0  0  0  0  0  0  0  0
    6.0000   -2.5981    0.0000 C   0  0  0  0  0  0  0  0  0  0  0  0
    5.2500   -1.2990    0.0000 C   0  0  0  0  0  0  0  0  0  0  0  0
    3.7500   -1.2990    0.0000 N   0  0  0  0  0  0  0  0  0  0  0  0
    3.0000    0.0000    0.0000 C   0  0  0  0  0  0  0  0  0  0  0  0
    3.7500    1.2990    0.0000 O   0  0  0  0  0  0  0  0  0  0  0  0
    1.5000    0.0000    0.0000 C   0  0  0  0  0  0  0  0  0  0  0  0
    0.7500   -1.2990    0.0000 C   0  0  0  0  0  0  0  0  0  0  0  0
   -0.7500   -1.2990    0.0000 C   0  0  0  0  0  0  0  0  0  0  0  0
   -1.5000    0.0000    0.0000 C   0  0  0  0  0  0  0  0  0  0  0  0
   -0.7500    1.2990    0.0000 N   0  0  0  0  0  4  0  0  0  0  0  0
   -1.5000    2.5981    0.0000 C   0  0  0  0  0  0  0  0  0  0  0  0
   -0.7500    3.8971    0.0000 C   0  0  0  0  0  0  0  0  0  0  0  0
   -3.0000    2.5981    0.0000 C   0  0  0  0  0  0  0  0  0  0  0  0
   -3.7500    1.2990    0.0000 O   0  0  0  0  0  0  0  0  0  0  0  0
   -3.7500    3.8971    0.0000 N   0  0  0  0  0  0  0  0  0  0  0  0
   -5.2500    3.8971    0.0000 C   0  0  0  0  0  0  0  0  0  0  0  0
   -6.0000    2.5981    0.0000 O   0  0  0  0  0  0  0  0  0  0  0  0
   -6.0000    5.1962    0.0000 N   0  0  0  0  0  0  0  0  0  0  0  0
   -7.5000    5.1962    0.0000 C   0  0  0  0  0  0  0  0  0  0  0  0
   -8.2500    6.4952    0.0000 C   0  0  0  0  0  0  0  0  0  0  0  0
   -9.0000    7.7942    0.0000 F   0  0  0  0  0  0  0  0  0  0  0  0
   -9.5490    5.7452    0.0000 F   0  0  0  0  0  0  0  0  0  0  0  0
   -6.9510    7.2452    0.0000 F   0  0  0  0  0  0  0  0  0  0  0  0
    0.7500    1.2990    0.0000 C   0  0  0  0  0  0  0  0  0  0  0  0
  1  2  1  0
  2  3  1  0
  3  4  1  0
  4  5  1  0
  5  6  1  0
  6  7  2  0
  8  6  1  6
  8  9  1  0
  9 10  1  0
 10 11  1  0
 11 12  1  0
 12 13  1  0
 13 14  1  1
 13 15  1  0
 15 16  2  0
 15 17  1  0
 17 18  1  0
 18 19  2  0
 18 20  1  0
 20 21  1  0
 21 22  1  0
 22 23  1  0
 22 24  1  0
 22 25  1  0
 12 26  1  0
 26  8  1  0
M  CHG  1  12   1
M  END
>  <Compound_ID>  (217) 
C65253373

>  <Active>  (217) 
0.0

>  <Smiles>  (217) 
CCCCNC(=O)[C@@H]1CCC[NH+]([C@H](C)C(=O)NC(=O)NCC(F)(F)F)C1

>  <canonical_smi>  (217) 
CCCCNC(=O)[C@@H]1CCC[NH+]([C@H](C)C(=O)NC(=O)NCC(F)(F)F)C1

>  <Set>  (217) 
G2 inactive

>  <Set_type>  (217) 
Train

>  <MW>  (217) 
381.42

>  <HBD>  (217) 
4

>  <HBA>  (217) 
3

>  <NRB>  (217) 
7

>  <NR>  (217) 
1

>  <NAR>  (217) 
0

>  <PSA>  (217) 
91.74

>  <Standard Type>  (217) 
nan

>  <Standard Relation>  (217) 
nan

>  <Standard Units>  (217) 
nan

>  <Standard Value>  (217) 
nan

>  <Assay ChEMBL ID>  (217) 
nan

>  <Assay Description>  (217) 
nan

>  <BAO Label>  (217) 
nan

$$$$

     RDKit          2D

 24 27  0  0  0  0  0  0  0  0999 V2000
   -0.7500   -3.8971    0.0000 O   0  0  0  0  0  0  0  0  0  0  0  0
    0.7500   -3.8971    0.0000 C   0  0  0  0  0  0  0  0  0  0  0  0
    1.5000   -2.5981    0.0000 N   0  0  0  0  0  0  0  0  0  0  0  0
    0.7500   -1.2990    0.0000 C   0  0  0  0  0  0  0  0  0  0  0  0
    1.5000    0.0000    0.0000 C   0  0  0  0  0  0  0  0  0  0  0  0
    0.7500    1.2990    0.0000 C   0  0  0  0  0  0  0  0  0  0  0  0
   -0.7500    1.2990    0.0000 N   0  0  0  0  0  0  0  0  0  0  0  0
   -1.5000    2.5981    0.0000 C   0  0  0  0  0  0  0  0  0  0  0  0
   -3.0000    2.5981    0.0000 O   0  0  0  0  0  0  0  0  0  0  0  0
   -0.7500    3.8971    0.0000 C   0  0  0  0  0  0  0  0  0  0  0  0
   -0.7500    5.3971    0.0000 C   0  0  0  0  0  0  0  0  0  0  0  0
    0.5490    4.6471    0.0000 C   0  0  0  0  0  0  0  0  0  0  0  0
   -1.5000    0.0000    0.0000 C   0  0  0  0  0  0  0  0  0  0  0  0
   -0.7500   -1.2990    0.0000 C   0  0  0  0  0  0  0  0  0  0  0  0
    1.5000   -5.1962    0.0000 N   0  0  0  0  0  0  0  0  0  0  0  0
    2.9918   -5.3529    0.0000 C   0  0  0  0  0  0  0  0  0  0  0  0
    3.3037   -6.8202    0.0000 C   0  0  0  0  0  0  0  0  0  0  0  0
    2.0046   -7.5702    0.0000 C   0  0  0  0  0  0  0  0  0  0  0  0
    1.8478   -9.0619    0.0000 N   0  0  0  0  0  4  0  0  0  0  0  0
    2.9625  -10.0656    0.0000 C   0  0  0  0  0  0  0  0  0  0  0  0
    2.3524  -11.4360    0.0000 C   0  0  0  0  0  0  0  0  0  0  0  0
    0.8606  -11.2792    0.0000 C   0  0  0  0  0  0  0  0  0  0  0  0
    0.5488   -9.8119    0.0000 C   0  0  0  0  0  0  0  0  0  0  0  0
    0.8899   -6.5665    0.0000 C   0  0  0  0  0  0  0  0  0  0  0  0
  1  2  2  0
  2  3  1  0
  3  4  1  0
  4  5  1  0
  5  6  1  0
  6  7  1  0
  7  8  1  0
  8  9  2  0
  8 10  1  0
 10 11  1  0
 11 12  1  0
  7 13  1  0
 13 14  1  0
  2 15  1  0
 15 16  1  0
 16 17  1  0
 17 18  1  0
 18 19  1  6
 19 20  1  0
 20 21  1  0
 21 22  1  0
 22 23  1  0
 18 24  1  0
 14  4  1  0
 24 15  1  0
 12 10  1  0
 23 19  1  0
M  CHG  1  19   1
M  END
>  <Compound_ID>  (218) 
C66176932

>  <Active>  (218) 
0.0

>  <Smiles>  (218) 
O=C(NC1CCN(C(=O)C2CC2)CC1)N1CC[C@H]([NH+]2CCCC2)C1

>  <canonical_smi>  (218) 
O=C(NC1CCN(C(=O)C2CC2)CC1)N1CC[C@H]([NH+]2CCCC2)C1

>  <Set>  (218) 
G2 inactive

>  <Set_type>  (218) 
Train

>  <MW>  (218) 
335.47

>  <HBD>  (218) 
2

>  <HBA>  (218) 
2

>  <NRB>  (218) 
3

>  <NR>  (218) 
4

>  <NAR>  (218) 
0

>  <PSA>  (218) 
57.09

>  <Standard Type>  (218) 
nan

>  <Standard Relation>  (218) 
nan

>  <Standard Units>  (218) 
nan

>  <Standard Value>  (218) 
nan

>  <Assay ChEMBL ID>  (218) 
nan

>  <Assay Description>  (218) 
nan

>  <BAO Label>  (218) 
nan

$$$$

     RDKit          2D

 25 27  0  0  0  0  0  0  0  0999 V2000
   -1.7455   -5.5373    0.0000 C   0  0  0  0  0  0  0  0  0  0  0  0
   -0.7418   -6.6520    0.0000 C   0  0  0  0  0  0  0  0  0  0  0  0
   -1.0537   -8.1192    0.0000 N   0  0  0  0  0  0  0  0  0  0  0  0
    0.2454   -8.8692    0.0000 N   0  0  0  0  0  0  0  0  0  0  0  0
    0.4022  -10.3610    0.0000 C   0  0  0  0  0  0  0  0  0  0  0  0
    1.3601   -7.8655    0.0000 C   0  0  0  0  0  0  0  0  0  0  0  0
    2.8273   -8.1774    0.0000 C   0  0  0  0  0  0  0  0  0  0  0  0
    0.7500   -6.4952    0.0000 C   0  0  0  0  0  0  0  0  0  0  0  0
    1.5000   -5.1962    0.0000 C   0  0  0  0  0  0  0  0  0  0  0  0
    0.7500   -3.8971    0.0000 N   0  0  0  0  0  0  0  0  0  0  0  0
    1.5000   -2.5981    0.0000 C   0  0  0  0  0  0  0  0  0  0  0  0
    0.7500   -1.2990    0.0000 C   0  0  0  0  0  0  0  0  0  0  0  0
    1.5000    0.0000    0.0000 C   0  0  0  0  0  0  0  0  0  0  0  0
    0.7500    1.2990    0.0000 C   0  0  0  0  0  0  0  0  0  0  0  0
   -0.7500    1.2990    0.0000 C   0  0  0  0  0  0  0  0  0  0  0  0
   -1.5000    2.5981    0.0000 N   0  0  0  0  0  0  0  0  0  0  0  0
   -0.7500    3.8971    0.0000 C   0  0  0  0  0  0  0  0  0  0  0  0
   -1.5000    5.1962    0.0000 C   0  0  0  0  0  0  0  0  0  0  0  0
   -0.7500    6.4952    0.0000 C   0  0  0  0  0  0  0  0  0  0  0  0
   -3.0000    5.1962    0.0000 O   0  0  0  0  0  0  0  0  0  0  0  0
   -3.7500    3.8971    0.0000 C   0  0  0  0  0  0  0  0  0  0  0  0
   -5.2500    3.8971    0.0000 C   0  0  0  0  0  0  0  0  0  0  0  0
   -3.0000    2.5981    0.0000 C   0  0  0  0  0  0  0  0  0  0  0  0
   -1.5000    0.0000    0.0000 N   0  0  0  0  0  4  0  0  0  0  0  0
   -0.7500   -1.2990    0.0000 C   0  0  0  0  0  0  0  0  0  0  0  0
  1  2  1  0
  2  3  2  0
  3  4  1  0
  4  5  1  0
  4  6  1  0
  6  7  1  0
  6  8  2  0
  8  9  1  0
  9 10  1  0
 10 11  1  0
 11 12  1  0
 12 13  2  0
 13 14  1  0
 14 15  2  0
 15 16  1  0
 16 17  1  0
 17 18  1  0
 18 19  1  6
 18 20  1  0
 20 21  1  0
 21 22  1  1
 21 23  1  0
 15 24  1  0
 24 25  2  0
  8  2  1  0
 25 12  1  0
 23 16  1  0
M  CHG  1  24   1
M  END
>  <Compound_ID>  (219) 
C67120815

>  <Active>  (219) 
0.0

>  <Smiles>  (219) 
Cc1nn(C)c(C)c1CNCc1ccc(N2C[C@@H](C)O[C@H](C)C2)[nH+]c1

>  <canonical_smi>  (219) 
Cc1nn(C)c(C)c1CNCc1ccc(N2C[C@@H](C)O[C@H](C)C2)[nH+]c1

>  <Set>  (219) 
G2 inactive

>  <Set_type>  (219) 
Train

>  <MW>  (219) 
344.48

>  <HBD>  (219) 
1

>  <HBA>  (219) 
4

>  <NRB>  (219) 
5

>  <NR>  (219) 
3

>  <NAR>  (219) 
2

>  <PSA>  (219) 
56.46

>  <Standard Type>  (219) 
nan

>  <Standard Relation>  (219) 
nan

>  <Standard Units>  (219) 
nan

>  <Standard Value>  (219) 
nan

>  <Assay ChEMBL ID>  (219) 
nan

>  <Assay Description>  (219) 
nan

>  <BAO Label>  (219) 
nan

$$$$

     RDKit          2D

 41 47  0  0  0  0  0  0  0  0999 V2000
   -0.3752    1.0826    0.0000 C   0  0  0  0  0  0  0  0  0  0  0  0
   -1.1252   -0.2164    0.0000 N   0  0  0  0  0  0  0  0  0  0  0  0
   -0.3752   -1.5154    0.0000 C   0  0  0  0  0  0  0  0  0  0  0  0
   -2.6252   -0.2164    0.0000 C   0  0  0  0  0  0  0  0  0  0  0  0
   -3.3752   -1.5154    0.0000 C   0  0  0  0  0  0  0  0  0  0  0  0
   -4.8752   -1.5154    0.0000 C   0  0  0  0  0  0  0  0  0  0  0  0
   -5.6252   -2.8145    0.0000 N   0  0  0  0  0  0  0  0  0  0  0  0
   -5.0151   -4.1848    0.0000 N   0  0  0  0  0  0  0  0  0  0  0  0
   -6.1298   -5.1885    0.0000 C   0  0  0  0  0  0  0  0  0  0  0  0
   -5.9730   -6.6803    0.0000 C   0  0  0  0  0  0  0  0  0  0  0  0
   -4.6740   -7.4303    0.0000 C   0  0  0  0  0  0  0  0  0  0  0  0
   -3.3037   -6.8202    0.0000 C   0  0  0  0  0  0  0  0  0  0  0  0
   -2.0046   -7.5702    0.0000 C   0  0  0  0  0  0  0  0  0  0  0  0
   -0.8899   -6.5665    0.0000 N   0  0  0  0  0  0  0  0  0  0  0  0
    0.5773   -6.8783    0.0000 C   0  0  0  0  0  0  0  0  0  0  0  0
    1.0409   -8.3049    0.0000 C   0  0  0  0  0  0  0  0  0  0  0  0
    2.5081   -8.6168    0.0000 C   0  0  0  0  0  0  0  0  0  0  0  0
    3.5118   -7.5021    0.0000 C   0  0  0  0  0  0  0  0  0  0  0  0
    4.9790   -7.8139    0.0000 C   0  0  0  0  0  0  0  0  0  0  0  0
    5.9827   -6.6992    0.0000 C   0  0  0  0  0  0  0  0  0  0  0  0
    5.5192   -5.2726    0.0000 C   0  0  0  0  0  0  0  0  0  0  0  0
    4.0519   -4.9608    0.0000 C   0  0  0  0  0  0  0  0  0  0  0  0
    3.0482   -6.0755    0.0000 C   0  0  0  0  0  0  0  0  0  0  0  0
    1.5810   -5.7636    0.0000 C   0  0  0  0  0  0  0  0  0  0  0  0
   -1.5000   -5.1962    0.0000 C   0  0  0  0  0  0  0  0  0  0  0  0
   -0.8899   -3.8258    0.0000 C   0  0  0  0  0  0  0  0  0  0  0  0
   -1.7716   -2.6123    0.0000 C   0  0  0  0  0  0  0  0  0  0  0  0
   -3.2634   -2.7691    0.0000 C   0  0  0  0  0  0  0  0  0  0  0  0
   -3.8735   -4.1394    0.0000 C   0  0  0  0  0  0  0  0  0  0  0  0
   -2.9918   -5.3529    0.0000 C   0  0  0  0  0  0  0  0  0  0  0  0
   -4.9858   -8.8975    0.0000 C   0  0  0  0  0  0  0  0  0  0  0  0
   -3.9821  -10.0122    0.0000 O   0  0  0  0  0  0  0  0  0  0  0  0
   -6.4776   -9.0543    0.0000 N   0  0  0  0  0  0  0  0  0  0  0  0
   -7.0877   -7.6840    0.0000 C   0  0  0  0  0  0  0  0  0  0  0  0
   -8.5549   -7.3721    0.0000 O   0  0  0  0  0  0  0  0  0  0  0  0
   -7.4288   -4.4385    0.0000 C   0  0  0  0  0  0  0  0  0  0  0  0
   -8.8554   -4.9020    0.0000 C   0  0  0  0  0  0  0  0  0  0  0  0
   -9.9701   -3.8983    0.0000 C   0  0  0  0  0  0  0  0  0  0  0  0
   -9.6583   -2.4311    0.0000 C   0  0  0  0  0  0  0  0  0  0  0  0
   -8.2317   -1.9676    0.0000 C   0  0  0  0  0  0  0  0  0  0  0  0
   -7.1170   -2.9713    0.0000 C   0  0  0  0  0  0  0  0  0  0  0  0
  1  2  1  0
  2  3  1  0
  2  4  1  0
  4  5  1  0
  5  6  1  0
  6  7  1  0
  7  8  1  0
  8  9  2  0
  9 10  1  0
 10 11  2  0
 11 12  1  0
 12 13  2  0
 13 14  1  0
 14 15  1  0
 15 16  2  0
 16 17  1  0
 17 18  2  0
 18 19  1  0
 19 20  2  0
 20 21  1  0
 21 22  2  0
 22 23  1  0
 23 24  2  0
 14 25  1  0
 25 26  2  0
 26 27  1  0
 27 28  2  0
 28 29  1  0
 29 30  2  0
 11 31  1  0
 31 32  2  0
 31 33  1  0
 33 34  1  0
 34 35  2  0
  9 36  1  0
 36 37  2  0
 37 38  1  0
 38 39  2  0
 39 40  1  0
 40 41  2  0
 41  7  1  0
 34 10  1  0
 41 36  1  0
 30 12  1  0
 24 15  1  0
 30 25  1  0
 23 18  1  0
M  END
>  <Compound_ID>  (220) 
CHEMBL368895

>  <Active>  (220) 
1.0

>  <Smiles>  (220) 
CN(C)CCCn1nc(C2=C(c3cn(-c4ccc5ccccc5c4)c4ccccc34)C(=O)NC2=O)c2ccccc21

>  <canonical_smi>  (220) 
CN(C)CCCn1nc(C2=C(c3cn(-c4ccc5ccccc5c4)c4ccccc34)C(=O)NC2=O)c2ccccc21

>  <Set>  (220) 
G2 active

>  <Set_type>  (220) 
Test

>  <MW>  (220) 
539.64

>  <HBD>  (220) 
1

>  <HBA>  (220) 
4

>  <NRB>  (220) 
7

>  <NR>  (220) 
7

>  <NAR>  (220) 
6

>  <PSA>  (220) 
72.16

>  <Standard Type>  (220) 
nan

>  <Standard Relation>  (220) 
nan

>  <Standard Units>  (220) 
nan

>  <Standard Value>  (220) 
nan

>  <Assay ChEMBL ID>  (220) 
nan

>  <Assay Description>  (220) 
nan

>  <BAO Label>  (220) 
nan

$$$$

     RDKit          2D

 36 41  0  0  0  0  0  0  0  0999 V2000
   -3.1752   -0.7688    0.0000 O   0  0  0  0  0  0  0  0  0  0  0  0
   -3.8004   -2.1323    0.0000 C   0  0  0  0  0  0  0  0  0  0  0  0
   -5.2710   -2.4280    0.0000 N   0  0  0  0  0  0  0  0  0  0  0  0
   -5.4442   -3.9180    0.0000 C   0  0  0  0  0  0  0  0  0  0  0  0
   -6.7514   -4.6536    0.0000 O   0  0  0  0  0  0  0  0  0  0  0  0
   -4.0807   -4.5431    0.0000 C   0  0  0  0  0  0  0  0  0  0  0  0
   -3.0648   -3.4395    0.0000 C   0  0  0  0  0  0  0  0  0  0  0  0
   -1.2135   -2.7256    0.0000 C   0  0  0  0  0  0  0  0  0  0  0  0
   -0.0000   -3.6073    0.0000 C   0  0  0  0  0  0  0  0  0  0  0  0
    1.2135   -2.7256    0.0000 N   0  0  0  0  0  0  0  0  0  0  0  0
    0.7500   -1.2990    0.0000 C   0  0  0  0  0  0  0  0  0  0  0  0
    1.5000    0.0000    0.0000 C   0  0  0  0  0  0  0  0  0  0  0  0
    0.7500    1.2990    0.0000 C   0  0  0  0  0  0  0  0  0  0  0  0
   -0.7500    1.2990    0.0000 C   0  0  0  0  0  0  0  0  0  0  0  0
   -1.5000    0.0000    0.0000 C   0  0  0  0  0  0  0  0  0  0  0  0
   -0.7500   -1.2990    0.0000 C   0  0  0  0  0  0  0  0  0  0  0  0
    2.5327   -3.4395    0.0000 C   0  0  0  0  0  0  0  0  0  0  0  0
    3.5487   -4.5431    0.0000 C   0  0  0  0  0  0  0  0  0  0  0  0
    4.1512   -5.9168    0.0000 O   0  0  0  0  0  0  0  0  0  0  0  0
    4.2751   -7.4117    0.0000 C   0  0  0  0  0  0  0  0  0  0  0  0
    3.9068   -8.8658    0.0000 C   0  0  0  0  0  0  0  0  0  0  0  0
    3.0864  -10.1215    0.0000 O   0  0  0  0  0  0  0  0  0  0  0  0
    1.9027  -11.0428    0.0000 C   0  0  0  0  0  0  0  0  0  0  0  0
    0.4840  -11.5299    0.0000 C   0  0  0  0  0  0  0  0  0  0  0  0
   -1.0160  -11.5299    0.0000 O   0  0  0  0  0  0  0  0  0  0  0  0
   -2.4347  -11.0428    0.0000 C   0  0  0  0  0  0  0  0  0  0  0  0
   -3.6185  -10.1215    0.0000 C   0  0  0  0  0  0  0  0  0  0  0  0
   -4.4389   -8.8658    0.0000 N   0  0  0  0  0  0  0  0  0  0  0  0
   -4.8071   -7.4117    0.0000 C   0  0  0  0  0  0  0  0  0  0  0  0
   -4.6832   -5.9168    0.0000 C   0  0  0  0  0  0  0  0  0  0  0  0
   -6.0667   -6.4965    0.0000 C   0  0  0  0  0  0  0  0  0  0  0  0
   -7.4232   -5.8564    0.0000 C   0  0  0  0  0  0  0  0  0  0  0  0
   -8.6559   -6.7111    0.0000 C   0  0  0  0  0  0  0  0  0  0  0  0
   -8.5320   -8.2060    0.0000 C   0  0  0  0  0  0  0  0  0  0  0  0
   -7.1755   -8.8461    0.0000 C   0  0  0  0  0  0  0  0  0  0  0  0
   -5.9428   -7.9914    0.0000 C   0  0  0  0  0  0  0  0  0  0  0  0
  1  2  2  0
  2  3  1  0
  3  4  1  0
  4  5  2  0
  4  6  1  0
  6  7  2  0
  7  8  1  0
  8  9  2  0
  9 10  1  0
 10 11  1  0
 11 12  2  0
 12 13  1  0
 13 14  2  0
 14 15  1  0
 15 16  2  0
 10 17  1  0
 17 18  1  0
 18 19  1  0
 19 20  1  0
 20 21  1  0
 21 22  1  0
 22 23  1  0
 23 24  1  0
 24 25  1  0
 25 26  1  0
 26 27  1  0
 27 28  1  0
 28 29  1  0
 29 30  2  0
 30 31  1  0
 31 32  2  0
 32 33  1  0
 33 34  2  0
 34 35  1  0
 35 36  2  0
  7  2  1  0
 16  8  1  0
 36 28  1  0
 30  6  1  0
 36 31  1  0
 16 11  1  0
M  END
>  <Compound_ID>  (221) 
CHEMBL340259

>  <Active>  (221) 
1.0

>  <Smiles>  (221) 
O=C1NC(=O)C2=C1c1cn(c3ccccc13)CCOCCOCCOCCn1cc2c2ccccc21

>  <canonical_smi>  (221) 
O=C1NC(=O)C2=C1c1cn(c3ccccc13)CCOCCOCCOCCn1cc2c2ccccc21

>  <Set>  (221) 
G2 active

>  <Set_type>  (221) 
Test

>  <MW>  (221) 
485.54

>  <HBD>  (221) 
1

>  <HBA>  (221) 
5

>  <NRB>  (221) 
0

>  <NR>  (221) 
6

>  <NAR>  (221) 
4

>  <PSA>  (221) 
83.72

>  <Standard Type>  (221) 
nan

>  <Standard Relation>  (221) 
nan

>  <Standard Units>  (221) 
nan

>  <Standard Value>  (221) 
nan

>  <Assay ChEMBL ID>  (221) 
nan

>  <Assay Description>  (221) 
nan

>  <BAO Label>  (221) 
nan

$$$$

     RDKit          2D

 38 43  0  0  0  0  0  0  0  0999 V2000
   -4.1900  -11.1374    0.0000 C   0  0  0  0  0  0  0  0  0  0  0  0
   -3.0864  -10.1215    0.0000 N   0  0  0  0  0  0  0  0  0  0  0  0
   -3.9068   -8.8658    0.0000 C   0  0  0  0  0  0  0  0  0  0  0  0
   -4.2751   -7.4117    0.0000 C   0  0  0  0  0  0  0  0  0  0  0  0
   -4.1512   -5.9168    0.0000 O   0  0  0  0  0  0  0  0  0  0  0  0
   -3.5487   -4.5431    0.0000 C   0  0  0  0  0  0  0  0  0  0  0  0
   -2.5327   -3.4395    0.0000 C   0  0  0  0  0  0  0  0  0  0  0  0
   -1.2135   -2.7256    0.0000 N   0  0  0  0  0  0  0  0  0  0  0  0
   -0.0000   -3.6073    0.0000 C   0  0  0  0  0  0  0  0  0  0  0  0
    1.2135   -2.7256    0.0000 C   0  0  0  0  0  0  0  0  0  0  0  0
    0.7500   -1.2990    0.0000 C   0  0  0  0  0  0  0  0  0  0  0  0
    1.5000    0.0000    0.0000 C   0  0  0  0  0  0  0  0  0  0  0  0
    0.7500    1.2990    0.0000 C   0  0  0  0  0  0  0  0  0  0  0  0
   -0.7500    1.2990    0.0000 C   0  0  0  0  0  0  0  0  0  0  0  0
   -1.5000    0.0000    0.0000 C   0  0  0  0  0  0  0  0  0  0  0  0
   -0.7500   -1.2990    0.0000 C   0  0  0  0  0  0  0  0  0  0  0  0
    3.0648   -3.4395    0.0000 C   0  0  0  0  0  0  0  0  0  0  0  0
    4.0807   -4.5431    0.0000 C   0  0  0  0  0  0  0  0  0  0  0  0
    5.4442   -3.9180    0.0000 C   0  0  0  0  0  0  0  0  0  0  0  0
    6.7514   -4.6536    0.0000 O   0  0  0  0  0  0  0  0  0  0  0  0
    5.2710   -2.4280    0.0000 N   0  0  0  0  0  0  0  0  0  0  0  0
    3.8004   -2.1323    0.0000 C   0  0  0  0  0  0  0  0  0  0  0  0
    3.1752   -0.7688    0.0000 O   0  0  0  0  0  0  0  0  0  0  0  0
    4.6832   -5.9168    0.0000 C   0  0  0  0  0  0  0  0  0  0  0  0
    4.8071   -7.4117    0.0000 C   0  0  0  0  0  0  0  0  0  0  0  0
    4.4389   -8.8658    0.0000 N   0  0  0  0  0  0  0  0  0  0  0  0
    5.8989   -8.5216    0.0000 C   0  0  0  0  0  0  0  0  0  0  0  0
    7.1315   -9.3763    0.0000 C   0  0  0  0  0  0  0  0  0  0  0  0
    8.4881   -8.7362    0.0000 C   0  0  0  0  0  0  0  0  0  0  0  0
    8.6119   -7.2413    0.0000 C   0  0  0  0  0  0  0  0  0  0  0  0
    7.3793   -6.3866    0.0000 C   0  0  0  0  0  0  0  0  0  0  0  0
    6.0227   -7.0268    0.0000 C   0  0  0  0  0  0  0  0  0  0  0  0
    3.6185  -10.1215    0.0000 C   0  0  0  0  0  0  0  0  0  0  0  0
    2.4347  -11.0428    0.0000 C   0  0  0  0  0  0  0  0  0  0  0  0
    1.0160  -11.5299    0.0000 N   0  0  0  0  0  0  0  0  0  0  0  0
    1.2629  -13.0094    0.0000 C   0  0  0  0  0  0  0  0  0  0  0  0
   -0.4840  -11.5299    0.0000 C   0  0  0  0  0  0  0  0  0  0  0  0
   -1.9027  -11.0428    0.0000 C   0  0  0  0  0  0  0  0  0  0  0  0
  1  2  1  0
  2  3  1  0
  3  4  1  0
  4  5  1  0
  5  6  1  0
  6  7  1  0
  7  8  1  0
  8  9  1  0
  9 10  2  0
 10 11  1  0
 11 12  2  0
 12 13  1  0
 13 14  2  0
 14 15  1  0
 15 16  2  0
 10 17  1  0
 17 18  2  0
 18 19  1  0
 19 20  2  0
 19 21  1  0
 21 22  1  0
 22 23  2  0
 18 24  1  0
 24 25  2  0
 25 26  1  0
 26 27  1  0
 27 28  2  0
 28 29  1  0
 29 30  2  0
 30 31  1  0
 31 32  2  0
 26 33  1  0
 33 34  1  0
 34 35  1  0
 35 36  1  0
 35 37  1  0
 37 38  1  0
 38  2  1  0
 16  8  1  0
 22 17  1  0
 32 24  1  0
 16 11  1  0
 32 27  1  0
M  END
>  <Compound_ID>  (222) 
CHEMBL106384

>  <Active>  (222) 
1.0

>  <Smiles>  (222) 
CN1CCOCCn2cc(c3ccccc32)C2=C(C(=O)NC2=O)c2cn(c3ccccc23)CCN(C)CC1

>  <canonical_smi>  (222) 
CN1CCOCCn2cc(c3ccccc32)C2=C(C(=O)NC2=O)c2cn(c3ccccc23)CCN(C)CC1

>  <Set>  (222) 
G2 active

>  <Set_type>  (222) 
Test

>  <MW>  (222) 
511.63

>  <HBD>  (222) 
1

>  <HBA>  (222) 
5

>  <NRB>  (222) 
0

>  <NR>  (222) 
6

>  <NAR>  (222) 
4

>  <PSA>  (222) 
71.74

>  <Standard Type>  (222) 
nan

>  <Standard Relation>  (222) 
nan

>  <Standard Units>  (222) 
nan

>  <Standard Value>  (222) 
nan

>  <Assay ChEMBL ID>  (222) 
nan

>  <Assay Description>  (222) 
nan

>  <BAO Label>  (222) 
nan

$$$$

     RDKit          2D

 38 43  0  0  0  0  0  0  0  0999 V2000
   -5.6216  -10.6897    0.0000 C   0  0  0  0  0  0  0  0  0  0  0  0
   -4.1900  -11.1374    0.0000 C   0  0  0  0  0  0  0  0  0  0  0  0
   -3.0864  -10.1215    0.0000 N   0  0  0  0  0  0  0  0  0  0  0  0
   -3.9068   -8.8658    0.0000 C   0  0  0  0  0  0  0  0  0  0  0  0
   -4.2751   -7.4117    0.0000 C   0  0  0  0  0  0  0  0  0  0  0  0
   -4.1512   -5.9168    0.0000 O   0  0  0  0  0  0  0  0  0  0  0  0
   -3.5487   -4.5431    0.0000 C   0  0  0  0  0  0  0  0  0  0  0  0
   -2.5327   -3.4395    0.0000 C   0  0  0  0  0  0  0  0  0  0  0  0
   -1.2135   -2.7256    0.0000 N   0  0  0  0  0  0  0  0  0  0  0  0
   -0.0000   -3.6073    0.0000 C   0  0  0  0  0  0  0  0  0  0  0  0
    1.2135   -2.7256    0.0000 C   0  0  0  0  0  0  0  0  0  0  0  0
    0.7500   -1.2990    0.0000 C   0  0  0  0  0  0  0  0  0  0  0  0
    1.5000    0.0000    0.0000 C   0  0  0  0  0  0  0  0  0  0  0  0
    0.7500    1.2990    0.0000 C   0  0  0  0  0  0  0  0  0  0  0  0
   -0.7500    1.2990    0.0000 C   0  0  0  0  0  0  0  0  0  0  0  0
   -1.5000    0.0000    0.0000 C   0  0  0  0  0  0  0  0  0  0  0  0
   -0.7500   -1.2990    0.0000 C   0  0  0  0  0  0  0  0  0  0  0  0
    3.0648   -3.4395    0.0000 C   0  0  0  0  0  0  0  0  0  0  0  0
    4.0807   -4.5431    0.0000 C   0  0  0  0  0  0  0  0  0  0  0  0
    5.4442   -3.9180    0.0000 C   0  0  0  0  0  0  0  0  0  0  0  0
    6.7514   -4.6536    0.0000 O   0  0  0  0  0  0  0  0  0  0  0  0
    5.2710   -2.4280    0.0000 N   0  0  0  0  0  0  0  0  0  0  0  0
    3.8004   -2.1323    0.0000 C   0  0  0  0  0  0  0  0  0  0  0  0
    3.1752   -0.7688    0.0000 O   0  0  0  0  0  0  0  0  0  0  0  0
    4.6832   -5.9168    0.0000 C   0  0  0  0  0  0  0  0  0  0  0  0
    4.8071   -7.4117    0.0000 C   0  0  0  0  0  0  0  0  0  0  0  0
    4.4389   -8.8658    0.0000 N   0  0  0  0  0  0  0  0  0  0  0  0
    5.8989   -8.5216    0.0000 C   0  0  0  0  0  0  0  0  0  0  0  0
    7.1315   -9.3763    0.0000 C   0  0  0  0  0  0  0  0  0  0  0  0
    8.4881   -8.7362    0.0000 C   0  0  0  0  0  0  0  0  0  0  0  0
    8.6119   -7.2413    0.0000 C   0  0  0  0  0  0  0  0  0  0  0  0
    7.3793   -6.3866    0.0000 C   0  0  0  0  0  0  0  0  0  0  0  0
    6.0227   -7.0268    0.0000 C   0  0  0  0  0  0  0  0  0  0  0  0
    3.6185  -10.1215    0.0000 C   0  0  0  0  0  0  0  0  0  0  0  0
    2.4347  -11.0428    0.0000 C   0  0  0  0  0  0  0  0  0  0  0  0
    1.0160  -11.5299    0.0000 O   0  0  0  0  0  0  0  0  0  0  0  0
   -0.4840  -11.5299    0.0000 C   0  0  0  0  0  0  0  0  0  0  0  0
   -1.9027  -11.0428    0.0000 C   0  0  0  0  0  0  0  0  0  0  0  0
  1  2  1  0
  2  3  1  0
  3  4  1  0
  4  5  1  0
  5  6  1  0
  6  7  1  0
  7  8  1  0
  8  9  1  0
  9 10  1  0
 10 11  2  0
 11 12  1  0
 12 13  2  0
 13 14  1  0
 14 15  2  0
 15 16  1  0
 16 17  2  0
 11 18  1  0
 18 19  2  0
 19 20  1  0
 20 21  2  0
 20 22  1  0
 22 23  1  0
 23 24  2  0
 19 25  1  0
 25 26  2  0
 26 27  1  0
 27 28  1  0
 28 29  2  0
 29 30  1  0
 30 31  2  0
 31 32  1  0
 32 33  2  0
 27 34  1  0
 34 35  1  0
 35 36  1  0
 36 37  1  0
 37 38  1  0
 38  3  1  0
 17  9  1  0
 23 18  1  0
 33 25  1  0
 17 12  1  0
 33 28  1  0
M  END
>  <Compound_ID>  (223) 
CHEMBL103055

>  <Active>  (223) 
1.0

>  <Smiles>  (223) 
CCN1CCOCCn2cc(c3ccccc32)C2=C(C(=O)NC2=O)c2cn(c3ccccc23)CCOCC1

>  <canonical_smi>  (223) 
CCN1CCOCCn2cc(c3ccccc32)C2=C(C(=O)NC2=O)c2cn(c3ccccc23)CCOCC1

>  <Set>  (223) 
G2 active

>  <Set_type>  (223) 
Test

>  <MW>  (223) 
512.61

>  <HBD>  (223) 
1

>  <HBA>  (223) 
5

>  <NRB>  (223) 
1

>  <NR>  (223) 
6

>  <NAR>  (223) 
4

>  <PSA>  (223) 
77.73

>  <Standard Type>  (223) 
nan

>  <Standard Relation>  (223) 
nan

>  <Standard Units>  (223) 
nan

>  <Standard Value>  (223) 
nan

>  <Assay ChEMBL ID>  (223) 
nan

>  <Assay Description>  (223) 
nan

>  <BAO Label>  (223) 
nan

$$$$

     RDKit          2D

 34 36  0  0  0  0  0  0  0  0999 V2000
   -1.6056  -15.6322    0.0000 C   0  0  0  0  0  0  0  0  0  0  0  0
   -0.1138  -15.4754    0.0000 C   0  0  0  0  0  0  0  0  0  0  0  0
    0.7679  -16.6889    0.0000 C   0  0  0  0  0  0  0  0  0  0  0  0
    0.4963  -14.1051    0.0000 C   0  0  0  0  0  0  0  0  0  0  0  0
   -0.2537  -12.8061    0.0000 C   0  0  0  0  0  0  0  0  0  0  0  0
    0.7500  -11.6913    0.0000 C   0  0  0  0  0  0  0  0  0  0  0  0
   -0.4635  -10.8097    0.0000 C   0  0  0  0  0  0  0  0  0  0  0  0
   -1.8338  -11.4198    0.0000 O   0  0  0  0  0  0  0  0  0  0  0  0
    1.5000  -10.3923    0.0000 C   0  0  0  0  0  0  0  0  0  0  0  0
    0.7500   -9.0933    0.0000 O   0  0  0  0  0  0  0  0  0  0  0  0
    1.5000   -7.7942    0.0000 C   0  0  0  0  0  0  0  0  0  0  0  0
    3.0000   -7.7942    0.0000 O   0  0  0  0  0  0  0  0  0  0  0  0
    0.7500   -6.4952    0.0000 C   0  0  0  0  0  0  0  0  0  0  0  0
    1.5000   -5.1962    0.0000 C   0  0  0  0  0  0  0  0  0  0  0  0
    0.7500   -3.8971    0.0000 C   0  0  0  0  0  0  0  0  0  0  0  0
    1.5000   -2.5981    0.0000 O   0  0  0  0  0  0  0  0  0  0  0  0
    0.7500   -1.2990    0.0000 C   0  0  0  0  0  0  0  0  0  0  0  0
    1.5000    0.0000    0.0000 C   0  0  0  0  0  0  0  0  0  0  0  0
    0.7500    1.2990    0.0000 C   0  0  0  0  0  0  0  0  0  0  0  0
   -0.7500    1.2990    0.0000 C   0  0  0  0  0  0  0  0  0  0  0  0
   -1.5000    2.5981    0.0000 C   0  0  0  0  0  0  0  0  0  0  0  0
   -2.2500    3.8971    0.0000 C   0  0  0  0  0  0  0  0  0  0  0  0
   -3.0000    5.1962    0.0000 C   0  0  0  0  0  0  0  0  0  0  0  0
   -2.2500    6.4952    0.0000 C   0  0  0  0  0  0  0  0  0  0  0  0
   -3.0000    7.7942    0.0000 C   0  0  0  0  0  0  0  0  0  0  0  0
   -4.5000    7.7942    0.0000 C   0  0  0  0  0  0  0  0  0  0  0  0
   -5.2500    9.0933    0.0000 C   0  0  0  0  0  0  0  0  0  0  0  0
   -5.2500    6.4952    0.0000 C   0  0  0  0  0  0  0  0  0  0  0  0
   -4.5000    5.1962    0.0000 C   0  0  0  0  0  0  0  0  0  0  0  0
   -1.5000    0.0000    0.0000 C   0  0  0  0  0  0  0  0  0  0  0  0
   -0.7500   -1.2990    0.0000 C   0  0  0  0  0  0  0  0  0  0  0  0
    2.1203  -12.3014    0.0000 O   0  0  0  0  0  0  0  0  0  0  0  0
    1.9635  -13.7932    0.0000 C   0  0  0  0  0  0  0  0  0  0  0  0
    3.0782  -14.7969    0.0000 O   0  0  0  0  0  0  0  0  0  0  0  0
  1  2  1  0
  2  3  1  0
  2  4  2  0
  4  5  1  0
  5  6  1  0
  6  7  1  0
  7  8  1  0
  6  9  1  0
  9 10  1  0
 10 11  1  0
 11 12  2  0
 11 13  1  0
 13 14  1  0
 14 15  1  0
 15 16  1  0
 16 17  1  0
 17 18  2  0
 18 19  1  0
 19 20  2  0
 20 21  1  0
 21 22  3  0
 22 23  1  0
 23 24  2  0
 24 25  1  0
 25 26  2  0
 26 27  1  0
 26 28  1  0
 28 29  2  0
 20 30  1  0
 30 31  2  0
  6 32  1  0
 32 33  1  0
 33 34  2  0
 33  4  1  0
 31 17  1  0
 29 23  1  0
M  END
>  <Compound_ID>  (224) 
CHEMBL489520

>  <Active>  (224) 
1.0

>  <Smiles>  (224) 
CC(C)=C1CC(CO)(COC(=O)CCCOc2ccc(C#Cc3ccc(C)cc3)cc2)OC1=O

>  <canonical_smi>  (224) 
CC(C)=C1CC(CO)(COC(=O)CCCOc2ccc(C#Cc3ccc(C)cc3)cc2)OC1=O

>  <Set>  (224) 
G2 active

>  <Set_type>  (224) 
Test

>  <MW>  (224) 
462.54

>  <HBD>  (224) 
1

>  <HBA>  (224) 
6

>  <NRB>  (224) 
8

>  <NR>  (224) 
3

>  <NAR>  (224) 
2

>  <PSA>  (224) 
82.06

>  <Standard Type>  (224) 
nan

>  <Standard Relation>  (224) 
nan

>  <Standard Units>  (224) 
nan

>  <Standard Value>  (224) 
nan

>  <Assay ChEMBL ID>  (224) 
nan

>  <Assay Description>  (224) 
nan

>  <BAO Label>  (224) 
nan

$$$$

     RDKit          2D

 32 36  0  0  0  0  0  0  0  0999 V2000
   -6.4937   -2.7256    0.0000 O   0  0  0  0  0  0  0  0  0  0  0  0
   -5.0672   -3.1891    0.0000 C   0  0  0  0  0  0  0  0  0  0  0  0
   -4.6036   -4.6157    0.0000 N   0  0  0  0  0  0  0  0  0  0  0  0
   -3.1036   -4.6157    0.0000 C   0  0  0  0  0  0  0  0  0  0  0  0
   -2.2220   -5.8293    0.0000 O   0  0  0  0  0  0  0  0  0  0  0  0
   -2.6401   -3.1891    0.0000 C   0  0  0  0  0  0  0  0  0  0  0  0
   -1.2135   -2.7256    0.0000 C   0  0  0  0  0  0  0  0  0  0  0  0
   -0.0000   -3.6073    0.0000 C   0  0  0  0  0  0  0  0  0  0  0  0
    1.2135   -2.7256    0.0000 N   0  0  0  0  0  0  0  0  0  0  0  0
    2.6401   -3.1891    0.0000 C   0  0  0  0  0  0  0  0  0  0  0  0
    2.9520   -4.6564    0.0000 C   0  0  0  0  0  0  0  0  0  0  0  0
    4.3786   -5.1199    0.0000 C   0  0  0  0  0  0  0  0  0  0  0  0
    4.6904   -6.5871    0.0000 N   0  0  0  0  0  0  0  0  0  0  0  0
    3.5757   -7.5908    0.0000 C   0  0  0  0  0  0  0  0  0  0  0  0
    3.8876   -9.0580    0.0000 C   0  0  0  0  0  0  0  0  0  0  0  0
    5.3142   -9.5216    0.0000 C   0  0  0  0  0  0  0  0  0  0  0  0
    6.4289   -8.5179    0.0000 C   0  0  0  0  0  0  0  0  0  0  0  0
    6.1170   -7.0506    0.0000 C   0  0  0  0  0  0  0  0  0  0  0  0
    0.7500   -1.2990    0.0000 C   0  0  0  0  0  0  0  0  0  0  0  0
    1.5000    0.0000    0.0000 C   0  0  0  0  0  0  0  0  0  0  0  0
    0.7500    1.2990    0.0000 C   0  0  0  0  0  0  0  0  0  0  0  0
   -0.7500    1.2990    0.0000 C   0  0  0  0  0  0  0  0  0  0  0  0
   -1.5000    0.0000    0.0000 C   0  0  0  0  0  0  0  0  0  0  0  0
   -0.7500   -1.2990    0.0000 C   0  0  0  0  0  0  0  0  0  0  0  0
   -3.8536   -2.3075    0.0000 C   0  0  0  0  0  0  0  0  0  0  0  0
   -3.8536   -0.8075    0.0000 N   0  0  0  0  0  0  0  0  0  0  0  0
   -5.1527   -0.0575    0.0000 C   0  0  0  0  0  0  0  0  0  0  0  0
   -5.1527    1.4425    0.0000 C   0  0  0  0  0  0  0  0  0  0  0  0
   -6.4517    2.1925    0.0000 C   0  0  0  0  0  0  0  0  0  0  0  0
   -7.7508    1.4425    0.0000 C   0  0  0  0  0  0  0  0  0  0  0  0
   -7.7508   -0.0575    0.0000 C   0  0  0  0  0  0  0  0  0  0  0  0
   -6.4517   -0.8075    0.0000 C   0  0  0  0  0  0  0  0  0  0  0  0
  1  2  2  0
  2  3  1  0
  3  4  1  0
  4  5  2  0
  4  6  1  0
  6  7  1  0
  7  8  2  0
  8  9  1  0
  9 10  1  0
 10 11  1  0
 11 12  1  0
 12 13  1  0
 13 14  1  0
 14 15  1  0
 15 16  1  0
 16 17  1  0
 17 18  1  0
  9 19  1  0
 19 20  2  0
 20 21  1  0
 21 22  2  0
 22 23  1  0
 23 24  2  0
  6 25  2  0
 25 26  1  0
 26 27  1  0
 27 28  2  0
 28 29  1  0
 29 30  2  0
 30 31  1  0
 31 32  2  0
 25  2  1  0
 32 27  1  0
 24  7  1  0
 18 13  1  0
 24 19  1  0
M  END
>  <Compound_ID>  (225) 
CHEMBL187235

>  <Active>  (225) 
1.0

>  <Smiles>  (225) 
O=C1NC(=O)C(c2cn(CCCN3CCCCC3)c3ccccc23)=C1Nc1ccccc1

>  <canonical_smi>  (225) 
O=C1NC(=O)C(c2cn(CCCN3CCCCC3)c3ccccc23)=C1Nc1ccccc1

>  <Set>  (225) 
G2 active

>  <Set_type>  (225) 
Test

>  <MW>  (225) 
428.54

>  <HBD>  (225) 
2

>  <HBA>  (225) 
4

>  <NRB>  (225) 
7

>  <NR>  (225) 
5

>  <NAR>  (225) 
3

>  <PSA>  (225) 
66.37

>  <Standard Type>  (225) 
nan

>  <Standard Relation>  (225) 
nan

>  <Standard Units>  (225) 
nan

>  <Standard Value>  (225) 
nan

>  <Assay ChEMBL ID>  (225) 
nan

>  <Assay Description>  (225) 
nan

>  <BAO Label>  (225) 
nan

$$$$

     RDKit          2D

 44 51  0  0  0  0  0  0  0  0999 V2000
   -6.1298   -5.1885    0.0000 O   0  0  0  0  0  0  0  0  0  0  0  0
   -5.9730   -6.6803    0.0000 C   0  0  0  0  0  0  0  0  0  0  0  0
   -7.0877   -7.6840    0.0000 N   0  0  0  0  0  0  0  0  0  0  0  0
   -6.4776   -9.0543    0.0000 C   0  0  0  0  0  0  0  0  0  0  0  0
   -7.2276  -10.3533    0.0000 O   0  0  0  0  0  0  0  0  0  0  0  0
   -4.9858   -8.8975    0.0000 C   0  0  0  0  0  0  0  0  0  0  0  0
   -3.9821  -10.0122    0.0000 C   0  0  0  0  0  0  0  0  0  0  0  0
   -2.4904   -9.8554    0.0000 N   0  0  0  0  0  0  0  0  0  0  0  0
   -1.8803  -11.2257    0.0000 N   0  0  0  0  0  0  0  0  0  0  0  0
   -0.4130  -11.5376    0.0000 C   0  0  0  0  0  0  0  0  0  0  0  0
    0.0505  -12.9642    0.0000 C   0  0  0  0  0  0  0  0  0  0  0  0
    1.5177  -13.2761    0.0000 C   0  0  0  0  0  0  0  0  0  0  0  0
    1.9812  -14.7026    0.0000 N   0  0  0  0  0  0  0  0  0  0  0  0
    0.9775  -15.8174    0.0000 C   0  0  0  0  0  0  0  0  0  0  0  0
    1.4411  -17.2439    0.0000 C   0  0  0  0  0  0  0  0  0  0  0  0
    2.9083  -17.5558    0.0000 O   0  0  0  0  0  0  0  0  0  0  0  0
    3.9120  -16.4411    0.0000 C   0  0  0  0  0  0  0  0  0  0  0  0
    3.4485  -15.0145    0.0000 C   0  0  0  0  0  0  0  0  0  0  0  0
   -2.9950  -12.2294    0.0000 C   0  0  0  0  0  0  0  0  0  0  0  0
   -2.9950  -13.7294    0.0000 C   0  0  0  0  0  0  0  0  0  0  0  0
   -4.2940  -14.4794    0.0000 C   0  0  0  0  0  0  0  0  0  0  0  0
   -5.5930  -13.7294    0.0000 C   0  0  0  0  0  0  0  0  0  0  0  0
   -5.5930  -12.2294    0.0000 C   0  0  0  0  0  0  0  0  0  0  0  0
   -4.2940  -11.4794    0.0000 C   0  0  0  0  0  0  0  0  0  0  0  0
   -4.6740   -7.4303    0.0000 C   0  0  0  0  0  0  0  0  0  0  0  0
   -3.3037   -6.8202    0.0000 C   0  0  0  0  0  0  0  0  0  0  0  0
   -2.9918   -5.3529    0.0000 C   0  0  0  0  0  0  0  0  0  0  0  0
   -1.5000   -5.1962    0.0000 N   0  0  0  0  0  0  0  0  0  0  0  0
   -0.7500   -3.8971    0.0000 C   0  0  0  0  0  0  0  0  0  0  0  0
    0.7500   -3.8971    0.0000 C   0  0  0  0  0  0  0  0  0  0  0  0
    1.5000   -2.5981    0.0000 C   0  0  0  0  0  0  0  0  0  0  0  0
    0.7500   -1.2990    0.0000 C   0  0  0  0  0  0  0  0  0  0  0  0
    1.5000    0.0000    0.0000 C   0  0  0  0  0  0  0  0  0  0  0  0
    0.7500    1.2990    0.0000 C   0  0  0  0  0  0  0  0  0  0  0  0
   -0.7500    1.2990    0.0000 C   0  0  0  0  0  0  0  0  0  0  0  0
   -1.5000    0.0000    0.0000 C   0  0  0  0  0  0  0  0  0  0  0  0
   -0.7500   -1.2990    0.0000 C   0  0  0  0  0  0  0  0  0  0  0  0
   -1.5000   -2.5981    0.0000 C   0  0  0  0  0  0  0  0  0  0  0  0
   -0.8899   -6.5665    0.0000 C   0  0  0  0  0  0  0  0  0  0  0  0
    0.5367   -7.0300    0.0000 C   0  0  0  0  0  0  0  0  0  0  0  0
    0.8486   -8.4972    0.0000 C   0  0  0  0  0  0  0  0  0  0  0  0
   -0.2662   -9.5009    0.0000 C   0  0  0  0  0  0  0  0  0  0  0  0
   -1.6927   -9.0374    0.0000 C   0  0  0  0  0  0  0  0  0  0  0  0
   -2.0046   -7.5702    0.0000 C   0  0  0  0  0  0  0  0  0  0  0  0
  1  2  2  0
  2  3  1  0
  3  4  1  0
  4  5  2  0
  4  6  1  0
  6  7  1  0
  7  8  2  0
  8  9  1  0
  9 10  1  0
 10 11  1  0
 11 12  1  0
 12 13  1  0
 13 14  1  0
 14 15  1  0
 15 16  1  0
 16 17  1  0
 17 18  1  0
  9 19  1  0
 19 20  2  0
 20 21  1  0
 21 22  2  0
 22 23  1  0
 23 24  2  0
  6 25  2  0
 25 26  1  0
 26 27  2  0
 27 28  1  0
 28 29  1  0
 29 30  2  0
 30 31  1  0
 31 32  2  0
 32 33  1  0
 33 34  2  0
 34 35  1  0
 35 36  2  0
 36 37  1  0
 37 38  2  0
 28 39  1  0
 39 40  2  0
 40 41  1  0
 41 42  2  0
 42 43  1  0
 43 44  2  0
 25  2  1  0
 44 26  1  0
 24  7  1  0
 38 29  1  0
 44 39  1  0
 18 13  1  0
 24 19  1  0
 37 32  1  0
M  END
>  <Compound_ID>  (226) 
CHEMBL367106

>  <Active>  (226) 
1.0

>  <Smiles>  (226) 
O=C1NC(=O)C(c2nn(CCCN3CCOCC3)c3ccccc23)=C1c1cn(-c2ccc3ccccc3c2)c2ccccc12

>  <canonical_smi>  (226) 
O=C1NC(=O)C(c2nn(CCCN3CCOCC3)c3ccccc23)=C1c1cn(-c2ccc3ccccc3c2)c2ccccc12

>  <Set>  (226) 
G2 active

>  <Set_type>  (226) 
Test

>  <MW>  (226) 
581.68

>  <HBD>  (226) 
1

>  <HBA>  (226) 
5

>  <NRB>  (226) 
7

>  <NR>  (226) 
8

>  <NAR>  (226) 
6

>  <PSA>  (226) 
81.39

>  <Standard Type>  (226) 
nan

>  <Standard Relation>  (226) 
nan

>  <Standard Units>  (226) 
nan

>  <Standard Value>  (226) 
nan

>  <Assay ChEMBL ID>  (226) 
nan

>  <Assay Description>  (226) 
nan

>  <BAO Label>  (226) 
nan

$$$$

     RDKit          2D

 31 35  0  0  0  0  0  0  0  0999 V2000
   -6.4937   -2.7256    0.0000 O   0  0  0  0  0  0  0  0  0  0  0  0
   -5.0672   -3.1891    0.0000 C   0  0  0  0  0  0  0  0  0  0  0  0
   -4.6036   -4.6157    0.0000 N   0  0  0  0  0  0  0  0  0  0  0  0
   -3.1036   -4.6157    0.0000 C   0  0  0  0  0  0  0  0  0  0  0  0
   -2.2220   -5.8293    0.0000 O   0  0  0  0  0  0  0  0  0  0  0  0
   -2.6401   -3.1891    0.0000 C   0  0  0  0  0  0  0  0  0  0  0  0
   -1.2135   -2.7256    0.0000 C   0  0  0  0  0  0  0  0  0  0  0  0
   -0.0000   -3.6073    0.0000 C   0  0  0  0  0  0  0  0  0  0  0  0
    1.2135   -2.7256    0.0000 N   0  0  0  0  0  0  0  0  0  0  0  0
    2.6401   -3.1891    0.0000 C   0  0  0  0  0  0  0  0  0  0  0  0
    2.9520   -4.6564    0.0000 C   0  0  0  0  0  0  0  0  0  0  0  0
    4.3786   -5.1199    0.0000 C   0  0  0  0  0  0  0  0  0  0  0  0
    4.6904   -6.5871    0.0000 N   0  0  0  0  0  0  0  0  0  0  0  0
    6.0607   -7.1972    0.0000 C   0  0  0  0  0  0  0  0  0  0  0  0
    5.9040   -8.6890    0.0000 C   0  0  0  0  0  0  0  0  0  0  0  0
    4.4367   -9.0009    0.0000 C   0  0  0  0  0  0  0  0  0  0  0  0
    3.6867   -7.7018    0.0000 C   0  0  0  0  0  0  0  0  0  0  0  0
    0.7500   -1.2990    0.0000 C   0  0  0  0  0  0  0  0  0  0  0  0
    1.5000    0.0000    0.0000 C   0  0  0  0  0  0  0  0  0  0  0  0
    0.7500    1.2990    0.0000 C   0  0  0  0  0  0  0  0  0  0  0  0
   -0.7500    1.2990    0.0000 C   0  0  0  0  0  0  0  0  0  0  0  0
   -1.5000    0.0000    0.0000 C   0  0  0  0  0  0  0  0  0  0  0  0
   -0.7500   -1.2990    0.0000 C   0  0  0  0  0  0  0  0  0  0  0  0
   -3.8536   -2.3075    0.0000 C   0  0  0  0  0  0  0  0  0  0  0  0
   -3.8536   -0.8075    0.0000 N   0  0  0  0  0  0  0  0  0  0  0  0
   -5.1527   -0.0575    0.0000 C   0  0  0  0  0  0  0  0  0  0  0  0
   -5.1527    1.4425    0.0000 C   0  0  0  0  0  0  0  0  0  0  0  0
   -6.4517    2.1925    0.0000 C   0  0  0  0  0  0  0  0  0  0  0  0
   -7.7508    1.4425    0.0000 C   0  0  0  0  0  0  0  0  0  0  0  0
   -7.7508   -0.0575    0.0000 C   0  0  0  0  0  0  0  0  0  0  0  0
   -6.4517   -0.8075    0.0000 C   0  0  0  0  0  0  0  0  0  0  0  0
  1  2  2  0
  2  3  1  0
  3  4  1  0
  4  5  2  0
  4  6  1  0
  6  7  1  0
  7  8  2  0
  8  9  1  0
  9 10  1  0
 10 11  1  0
 11 12  1  0
 12 13  1  0
 13 14  1  0
 14 15  1  0
 15 16  1  0
 16 17  1  0
  9 18  1  0
 18 19  2  0
 19 20  1  0
 20 21  2  0
 21 22  1  0
 22 23  2  0
  6 24  2  0
 24 25  1  0
 25 26  1  0
 26 27  2  0
 27 28  1  0
 28 29  2  0
 29 30  1  0
 30 31  2  0
 24  2  1  0
 31 26  1  0
 23  7  1  0
 17 13  1  0
 23 18  1  0
M  END
>  <Compound_ID>  (227) 
CHEMBL184042

>  <Active>  (227) 
1.0

>  <Smiles>  (227) 
O=C1NC(=O)C(c2cn(CCCN3CCCC3)c3ccccc23)=C1Nc1ccccc1

>  <canonical_smi>  (227) 
O=C1NC(=O)C(c2cn(CCCN3CCCC3)c3ccccc23)=C1Nc1ccccc1

>  <Set>  (227) 
G2 active

>  <Set_type>  (227) 
Test

>  <MW>  (227) 
414.51

>  <HBD>  (227) 
2

>  <HBA>  (227) 
4

>  <NRB>  (227) 
7

>  <NR>  (227) 
5

>  <NAR>  (227) 
3

>  <PSA>  (227) 
66.37

>  <Standard Type>  (227) 
nan

>  <Standard Relation>  (227) 
nan

>  <Standard Units>  (227) 
nan

>  <Standard Value>  (227) 
nan

>  <Assay ChEMBL ID>  (227) 
nan

>  <Assay Description>  (227) 
nan

>  <BAO Label>  (227) 
nan

$$$$

     RDKit          2D

 38 44  0  0  0  0  0  0  0  0999 V2000
   -2.6401   -3.1891    0.0000 C   0  0  0  0  0  0  0  0  0  0  0  0
   -1.2135   -2.7256    0.0000 N   0  0  0  0  0  0  0  0  0  0  0  0
   -0.0000   -3.6073    0.0000 C   0  0  0  0  0  0  0  0  0  0  0  0
    1.2135   -2.7256    0.0000 C   0  0  0  0  0  0  0  0  0  0  0  0
    2.6401   -3.1891    0.0000 C   0  0  0  0  0  0  0  0  0  0  0  0
    3.8536   -2.3075    0.0000 C   0  0  0  0  0  0  0  0  0  0  0  0
    3.8536   -0.8075    0.0000 C   0  0  0  0  0  0  0  0  0  0  0  0
    2.6401    0.0742    0.0000 C   0  0  0  0  0  0  0  0  0  0  0  0
    3.1036    1.5008    0.0000 N   0  0  0  0  0  0  0  0  0  0  0  0
    2.2220    2.7143    0.0000 C   0  0  0  0  0  0  0  0  0  0  0  0
    0.7220    2.7143    0.0000 C   0  0  0  0  0  0  0  0  0  0  0  0
    0.2584    4.1409    0.0000 C   0  0  0  0  0  0  0  0  0  0  0  0
    1.4720    5.0226    0.0000 N   0  0  0  0  0  0  0  0  0  0  0  0
    1.4720    6.5226    0.0000 C   0  0  0  0  0  0  0  0  0  0  0  0
    2.7710    7.2726    0.0000 C   0  0  0  0  0  0  0  0  0  0  0  0
    4.0700    6.5226    0.0000 C   0  0  0  0  0  0  0  0  0  0  0  0
    5.3691    7.2726    0.0000 C   0  0  0  0  0  0  0  0  0  0  0  0
    5.3691    8.7726    0.0000 C   0  0  0  0  0  0  0  0  0  0  0  0
    4.0700    9.5226    0.0000 C   0  0  0  0  0  0  0  0  0  0  0  0
    2.7710    8.7726    0.0000 C   0  0  0  0  0  0  0  0  0  0  0  0
    2.6855    4.1409    0.0000 C   0  0  0  0  0  0  0  0  0  0  0  0
    4.6036    1.5008    0.0000 C   0  0  0  0  0  0  0  0  0  0  0  0
    5.6073    2.6155    0.0000 C   0  0  0  0  0  0  0  0  0  0  0  0
    7.0746    2.3036    0.0000 C   0  0  0  0  0  0  0  0  0  0  0  0
    7.5381    0.8771    0.0000 C   0  0  0  0  0  0  0  0  0  0  0  0
    6.5344   -0.2377    0.0000 C   0  0  0  0  0  0  0  0  0  0  0  0
    5.0672    0.0742    0.0000 C   0  0  0  0  0  0  0  0  0  0  0  0
    5.0672   -3.1891    0.0000 C   0  0  0  0  0  0  0  0  0  0  0  0
    6.4937   -2.7256    0.0000 O   0  0  0  0  0  0  0  0  0  0  0  0
    4.6036   -4.6157    0.0000 N   0  0  0  0  0  0  0  0  0  0  0  0
    3.1036   -4.6157    0.0000 C   0  0  0  0  0  0  0  0  0  0  0  0
    2.2220   -5.8293    0.0000 O   0  0  0  0  0  0  0  0  0  0  0  0
    0.7500   -1.2990    0.0000 C   0  0  0  0  0  0  0  0  0  0  0  0
    1.5000    0.0000    0.0000 C   0  0  0  0  0  0  0  0  0  0  0  0
    0.7500    1.2990    0.0000 C   0  0  0  0  0  0  0  0  0  0  0  0
   -0.7500    1.2990    0.0000 C   0  0  0  0  0  0  0  0  0  0  0  0
   -1.5000    0.0000    0.0000 C   0  0  0  0  0  0  0  0  0  0  0  0
   -0.7500   -1.2990    0.0000 C   0  0  0  0  0  0  0  0  0  0  0  0
  1  2  1  0
  2  3  1  0
  3  4  2  0
  4  5  1  0
  5  6  2  0
  6  7  1  0
  7  8  2  0
  8  9  1  0
  9 10  1  0
 10 11  1  0
 11 12  1  0
 12 13  1  0
 13 14  1  0
 14 15  1  0
 15 16  2  0
 16 17  1  0
 17 18  2  0
 18 19  1  0
 19 20  2  0
 13 21  1  0
  9 22  1  0
 22 23  2  0
 23 24  1  0
 24 25  2  0
 25 26  1  0
 26 27  2  0
  6 28  1  0
 28 29  2  0
 28 30  1  0
 30 31  1  0
 31 32  2  0
  4 33  1  0
 33 34  2  0
 34 35  1  0
 35 36  2  0
 36 37  1  0
 37 38  2  0
 38  2  1  0
 31  5  1  0
 38 33  1  0
 27  7  1  0
 21 10  1  0
 27 22  1  0
 20 15  1  0
M  END
>  <Compound_ID>  (228) 
CHEMBL291975

>  <Active>  (228) 
1.0

>  <Smiles>  (228) 
Cn1cc(C2=C(c3cn(C4CCN(Cc5ccccc5)C4)c4ccccc34)C(=O)NC2=O)c2ccccc21

>  <canonical_smi>  (228) 
Cn1cc(C2=C(c3cn(C4CCN(Cc5ccccc5)C4)c4ccccc34)C(=O)NC2=O)c2ccccc21

>  <Set>  (228) 
G2 active

>  <Set_type>  (228) 
Test

>  <MW>  (228) 
500.6

>  <HBD>  (228) 
1

>  <HBA>  (228) 
3

>  <NRB>  (228) 
5

>  <NR>  (228) 
7

>  <NAR>  (228) 
5

>  <PSA>  (228) 
59.27

>  <Standard Type>  (228) 
nan

>  <Standard Relation>  (228) 
nan

>  <Standard Units>  (228) 
nan

>  <Standard Value>  (228) 
nan

>  <Assay ChEMBL ID>  (228) 
nan

>  <Assay Description>  (228) 
nan

>  <BAO Label>  (228) 
nan

$$$$

     RDKit          2D

 39 45  0  0  0  0  0  0  0  0999 V2000
   -8.5805   -2.4478    0.0000 C   0  0  0  0  0  0  0  0  0  0  0  0
   -7.5603   -3.5474    0.0000 N   0  0  0  0  0  0  0  0  0  0  0  0
   -6.0979   -3.2136    0.0000 C   0  0  0  0  0  0  0  0  0  0  0  0
   -5.0776   -4.3132    0.0000 C   0  0  0  0  0  0  0  0  0  0  0  0
   -5.5197   -5.7465    0.0000 N   0  0  0  0  0  0  0  0  0  0  0  0
   -4.4995   -6.8461    0.0000 C   0  0  0  0  0  0  0  0  0  0  0  0
   -3.0371   -6.5123    0.0000 C   0  0  0  0  0  0  0  0  0  0  0  0
   -3.0371   -5.0123    0.0000 C   0  0  0  0  0  0  0  0  0  0  0  0
   -2.3863   -3.6609    0.0000 C   0  0  0  0  0  0  0  0  0  0  0  0
   -1.2135   -2.7256    0.0000 N   0  0  0  0  0  0  0  0  0  0  0  0
   -0.0000   -3.6073    0.0000 C   0  0  0  0  0  0  0  0  0  0  0  0
    1.2135   -2.7256    0.0000 C   0  0  0  0  0  0  0  0  0  0  0  0
    0.7500   -1.2990    0.0000 C   0  0  0  0  0  0  0  0  0  0  0  0
    1.5000    0.0000    0.0000 C   0  0  0  0  0  0  0  0  0  0  0  0
    0.7500    1.2990    0.0000 C   0  0  0  0  0  0  0  0  0  0  0  0
   -0.7500    1.2990    0.0000 C   0  0  0  0  0  0  0  0  0  0  0  0
   -1.5000    0.0000    0.0000 C   0  0  0  0  0  0  0  0  0  0  0  0
   -0.7500   -1.2990    0.0000 C   0  0  0  0  0  0  0  0  0  0  0  0
    2.8840   -3.6609    0.0000 C   0  0  0  0  0  0  0  0  0  0  0  0
    3.5348   -5.0123    0.0000 C   0  0  0  0  0  0  0  0  0  0  0  0
    5.0213   -4.8110    0.0000 C   0  0  0  0  0  0  0  0  0  0  0  0
    6.0578   -5.8952    0.0000 O   0  0  0  0  0  0  0  0  0  0  0  0
    5.2891   -3.3351    0.0000 N   0  0  0  0  0  0  0  0  0  0  0  0
    3.9682   -2.6243    0.0000 C   0  0  0  0  0  0  0  0  0  0  0  0
    3.7668   -1.1378    0.0000 O   0  0  0  0  0  0  0  0  0  0  0  0
    3.5348   -6.5123    0.0000 C   0  0  0  0  0  0  0  0  0  0  0  0
    2.8840   -7.8638    0.0000 C   0  0  0  0  0  0  0  0  0  0  0  0
    1.7113   -8.7990    0.0000 N   0  0  0  0  0  0  0  0  0  0  0  0
    3.1156   -9.3261    0.0000 C   0  0  0  0  0  0  0  0  0  0  0  0
    3.6636  -10.7224    0.0000 C   0  0  0  0  0  0  0  0  0  0  0  0
    5.1469  -10.9459    0.0000 C   0  0  0  0  0  0  0  0  0  0  0  0
    6.0821   -9.7732    0.0000 C   0  0  0  0  0  0  0  0  0  0  0  0
    5.5341   -8.3769    0.0000 C   0  0  0  0  0  0  0  0  0  0  0  0
    4.0508   -8.1533    0.0000 C   0  0  0  0  0  0  0  0  0  0  0  0
    0.2489   -9.1328    0.0000 C   0  0  0  0  0  0  0  0  0  0  0  0
   -1.2135   -8.7990    0.0000 C   0  0  0  0  0  0  0  0  0  0  0  0
   -2.3863   -7.8638    0.0000 O   0  0  0  0  0  0  0  0  0  0  0  0
   -6.9821   -6.0803    0.0000 C   0  0  0  0  0  0  0  0  0  0  0  0
   -8.0024   -4.9807    0.0000 C   0  0  0  0  0  0  0  0  0  0  0  0
  1  2  1  0
  2  3  1  0
  3  4  1  0
  4  5  1  0
  5  6  1  0
  7  6  1  6
  7  8  1  0
  8  9  1  0
  9 10  1  0
 10 11  1  0
 11 12  2  0
 12 13  1  0
 13 14  2  0
 14 15  1  0
 15 16  2  0
 16 17  1  0
 17 18  2  0
 12 19  1  0
 19 20  2  0
 20 21  1  0
 21 22  2  0
 21 23  1  0
 23 24  1  0
 24 25  2  0
 20 26  1  0
 26 27  2  0
 27 28  1  0
 28 29  1  0
 29 30  2  0
 30 31  1  0
 31 32  2  0
 32 33  1  0
 33 34  2  0
 28 35  1  0
 35 36  1  0
 36 37  1  0
  5 38  1  0
 38 39  1  0
 39  2  1  0
 37  7  1  0
 18 10  1  0
 24 19  1  0
 34 26  1  0
 18 13  1  0
 34 29  1  0
M  END
>  <Compound_ID>  (229) 
CHEMBL91959

>  <Active>  (229) 
1.0

>  <Smiles>  (229) 
CN1CCN(C[C@@H]2CCn3cc(c4ccccc43)C3=C(C(=O)NC3=O)c3cn(c4ccccc34)CCO2)CC1

>  <canonical_smi>  (229) 
CN1CCN(C[C@@H]2CCn3cc(c4ccccc43)C3=C(C(=O)NC3=O)c3cn(c4ccccc34)CCO2)CC1

>  <Set>  (229) 
G2 active

>  <Set_type>  (229) 
Test

>  <MW>  (229) 
523.64

>  <HBD>  (229) 
1

>  <HBA>  (229) 
5

>  <NRB>  (229) 
2

>  <NR>  (229) 
7

>  <NAR>  (229) 
4

>  <PSA>  (229) 
71.74

>  <Standard Type>  (229) 
nan

>  <Standard Relation>  (229) 
nan

>  <Standard Units>  (229) 
nan

>  <Standard Value>  (229) 
nan

>  <Assay ChEMBL ID>  (229) 
nan

>  <Assay Description>  (229) 
nan

>  <BAO Label>  (229) 
nan

$$$$

     RDKit          2D

 38 43  0  0  0  0  0  0  0  0999 V2000
    1.2629  -13.0094    0.0000 C   0  0  0  0  0  0  0  0  0  0  0  0
    1.0160  -11.5299    0.0000 N   0  0  0  0  0  0  0  0  0  0  0  0
   -0.4840  -11.5299    0.0000 C   0  0  0  0  0  0  0  0  0  0  0  0
   -1.9027  -11.0428    0.0000 C   0  0  0  0  0  0  0  0  0  0  0  0
   -3.0864  -10.1215    0.0000 O   0  0  0  0  0  0  0  0  0  0  0  0
   -3.9068   -8.8658    0.0000 C   0  0  0  0  0  0  0  0  0  0  0  0
   -4.2751   -7.4117    0.0000 C   0  0  0  0  0  0  0  0  0  0  0  0
   -4.1512   -5.9168    0.0000 N   0  0  0  0  0  0  0  0  0  0  0  0
   -5.6053   -5.5486    0.0000 C   0  0  0  0  0  0  0  0  0  0  0  0
   -3.5487   -4.5431    0.0000 C   0  0  0  0  0  0  0  0  0  0  0  0
   -2.5327   -3.4395    0.0000 C   0  0  0  0  0  0  0  0  0  0  0  0
   -1.2135   -2.7256    0.0000 N   0  0  0  0  0  0  0  0  0  0  0  0
   -0.0000   -3.6073    0.0000 C   0  0  0  0  0  0  0  0  0  0  0  0
    1.2135   -2.7256    0.0000 C   0  0  0  0  0  0  0  0  0  0  0  0
    0.7500   -1.2990    0.0000 C   0  0  0  0  0  0  0  0  0  0  0  0
    1.5000    0.0000    0.0000 C   0  0  0  0  0  0  0  0  0  0  0  0
    0.7500    1.2990    0.0000 C   0  0  0  0  0  0  0  0  0  0  0  0
   -0.7500    1.2990    0.0000 C   0  0  0  0  0  0  0  0  0  0  0  0
   -1.5000    0.0000    0.0000 C   0  0  0  0  0  0  0  0  0  0  0  0
   -0.7500   -1.2990    0.0000 C   0  0  0  0  0  0  0  0  0  0  0  0
    3.0648   -3.4395    0.0000 C   0  0  0  0  0  0  0  0  0  0  0  0
    4.0807   -4.5431    0.0000 C   0  0  0  0  0  0  0  0  0  0  0  0
    5.4442   -3.9180    0.0000 C   0  0  0  0  0  0  0  0  0  0  0  0
    6.7514   -4.6536    0.0000 O   0  0  0  0  0  0  0  0  0  0  0  0
    5.2710   -2.4280    0.0000 N   0  0  0  0  0  0  0  0  0  0  0  0
    3.8004   -2.1323    0.0000 C   0  0  0  0  0  0  0  0  0  0  0  0
    3.1752   -0.7688    0.0000 O   0  0  0  0  0  0  0  0  0  0  0  0
    4.6832   -5.9168    0.0000 C   0  0  0  0  0  0  0  0  0  0  0  0
    4.8071   -7.4117    0.0000 C   0  0  0  0  0  0  0  0  0  0  0  0
    4.4389   -8.8658    0.0000 N   0  0  0  0  0  0  0  0  0  0  0  0
    5.8989   -8.5216    0.0000 C   0  0  0  0  0  0  0  0  0  0  0  0
    7.1315   -9.3763    0.0000 C   0  0  0  0  0  0  0  0  0  0  0  0
    8.4881   -8.7362    0.0000 C   0  0  0  0  0  0  0  0  0  0  0  0
    8.6119   -7.2413    0.0000 C   0  0  0  0  0  0  0  0  0  0  0  0
    7.3793   -6.3866    0.0000 C   0  0  0  0  0  0  0  0  0  0  0  0
    6.0227   -7.0268    0.0000 C   0  0  0  0  0  0  0  0  0  0  0  0
    3.6185  -10.1215    0.0000 C   0  0  0  0  0  0  0  0  0  0  0  0
    2.4347  -11.0428    0.0000 C   0  0  0  0  0  0  0  0  0  0  0  0
  1  2  1  0
  2  3  1  0
  3  4  1  0
  4  5  1  0
  5  6  1  0
  6  7  1  0
  7  8  1  0
  8  9  1  0
  8 10  1  0
 10 11  1  0
 11 12  1  0
 12 13  1  0
 13 14  2  0
 14 15  1  0
 15 16  2  0
 16 17  1  0
 17 18  2  0
 18 19  1  0
 19 20  2  0
 14 21  1  0
 21 22  2  0
 22 23  1  0
 23 24  2  0
 23 25  1  0
 25 26  1  0
 26 27  2  0
 22 28  1  0
 28 29  2  0
 29 30  1  0
 30 31  1  0
 31 32  2  0
 32 33  1  0
 33 34  2  0
 34 35  1  0
 35 36  2  0
 30 37  1  0
 37 38  1  0
 38  2  1  0
 20 12  1  0
 26 21  1  0
 36 28  1  0
 20 15  1  0
 36 31  1  0
M  END
>  <Compound_ID>  (230) 
CHEMBL105477

>  <Active>  (230) 
1.0

>  <Smiles>  (230) 
CN1CCOCCN(C)CCn2cc(c3ccccc32)C2=C(C(=O)NC2=O)c2cn(c3ccccc23)CC1

>  <canonical_smi>  (230) 
CN1CCOCCN(C)CCn2cc(c3ccccc32)C2=C(C(=O)NC2=O)c2cn(c3ccccc23)CC1

>  <Set>  (230) 
G2 active

>  <Set_type>  (230) 
Test

>  <MW>  (230) 
511.63

>  <HBD>  (230) 
1

>  <HBA>  (230) 
5

>  <NRB>  (230) 
0

>  <NR>  (230) 
6

>  <NAR>  (230) 
4

>  <PSA>  (230) 
71.74

>  <Standard Type>  (230) 
nan

>  <Standard Relation>  (230) 
nan

>  <Standard Units>  (230) 
nan

>  <Standard Value>  (230) 
nan

>  <Assay ChEMBL ID>  (230) 
nan

>  <Assay Description>  (230) 
nan

>  <BAO Label>  (230) 
nan

$$$$

     RDKit          2D

 39 44  0  0  0  0  0  0  0  0999 V2000
   -4.1900  -11.1374    0.0000 C   0  0  0  0  0  0  0  0  0  0  0  0
   -3.0864  -10.1215    0.0000 N   0  0  0  0  0  0  0  0  0  0  0  0
   -3.9068   -8.8658    0.0000 C   0  0  0  0  0  0  0  0  0  0  0  0
   -4.2751   -7.4117    0.0000 C   0  0  0  0  0  0  0  0  0  0  0  0
   -4.1512   -5.9168    0.0000 N   0  0  0  0  0  0  0  0  0  0  0  0
   -5.6053   -5.5486    0.0000 C   0  0  0  0  0  0  0  0  0  0  0  0
   -3.5487   -4.5431    0.0000 C   0  0  0  0  0  0  0  0  0  0  0  0
   -2.5327   -3.4395    0.0000 C   0  0  0  0  0  0  0  0  0  0  0  0
   -1.2135   -2.7256    0.0000 N   0  0  0  0  0  0  0  0  0  0  0  0
   -0.0000   -3.6073    0.0000 C   0  0  0  0  0  0  0  0  0  0  0  0
    1.2135   -2.7256    0.0000 C   0  0  0  0  0  0  0  0  0  0  0  0
    0.7500   -1.2990    0.0000 C   0  0  0  0  0  0  0  0  0  0  0  0
    1.5000    0.0000    0.0000 C   0  0  0  0  0  0  0  0  0  0  0  0
    0.7500    1.2990    0.0000 C   0  0  0  0  0  0  0  0  0  0  0  0
   -0.7500    1.2990    0.0000 C   0  0  0  0  0  0  0  0  0  0  0  0
   -1.5000    0.0000    0.0000 C   0  0  0  0  0  0  0  0  0  0  0  0
   -0.7500   -1.2990    0.0000 C   0  0  0  0  0  0  0  0  0  0  0  0
    3.0648   -3.4395    0.0000 C   0  0  0  0  0  0  0  0  0  0  0  0
    4.0807   -4.5431    0.0000 C   0  0  0  0  0  0  0  0  0  0  0  0
    5.4442   -3.9180    0.0000 C   0  0  0  0  0  0  0  0  0  0  0  0
    6.7514   -4.6536    0.0000 O   0  0  0  0  0  0  0  0  0  0  0  0
    5.2710   -2.4280    0.0000 N   0  0  0  0  0  0  0  0  0  0  0  0
    3.8004   -2.1323    0.0000 C   0  0  0  0  0  0  0  0  0  0  0  0
    3.1752   -0.7688    0.0000 O   0  0  0  0  0  0  0  0  0  0  0  0
    4.6832   -5.9168    0.0000 C   0  0  0  0  0  0  0  0  0  0  0  0
    4.8071   -7.4117    0.0000 C   0  0  0  0  0  0  0  0  0  0  0  0
    4.4389   -8.8658    0.0000 N   0  0  0  0  0  0  0  0  0  0  0  0
    5.8989   -8.5216    0.0000 C   0  0  0  0  0  0  0  0  0  0  0  0
    7.1315   -9.3763    0.0000 C   0  0  0  0  0  0  0  0  0  0  0  0
    8.4881   -8.7362    0.0000 C   0  0  0  0  0  0  0  0  0  0  0  0
    8.6119   -7.2413    0.0000 C   0  0  0  0  0  0  0  0  0  0  0  0
    7.3793   -6.3866    0.0000 C   0  0  0  0  0  0  0  0  0  0  0  0
    6.0227   -7.0268    0.0000 C   0  0  0  0  0  0  0  0  0  0  0  0
    3.6185  -10.1215    0.0000 C   0  0  0  0  0  0  0  0  0  0  0  0
    2.4347  -11.0428    0.0000 C   0  0  0  0  0  0  0  0  0  0  0  0
    1.0160  -11.5299    0.0000 N   0  0  0  0  0  0  0  0  0  0  0  0
    1.2629  -13.0094    0.0000 C   0  0  0  0  0  0  0  0  0  0  0  0
   -0.4840  -11.5299    0.0000 C   0  0  0  0  0  0  0  0  0  0  0  0
   -1.9027  -11.0428    0.0000 C   0  0  0  0  0  0  0  0  0  0  0  0
  1  2  1  0
  2  3  1  0
  3  4  1  0
  4  5  1  0
  5  6  1  0
  5  7  1  0
  7  8  1  0
  8  9  1  0
  9 10  1  0
 10 11  2  0
 11 12  1  0
 12 13  2  0
 13 14  1  0
 14 15  2  0
 15 16  1  0
 16 17  2  0
 11 18  1  0
 18 19  2  0
 19 20  1  0
 20 21  2  0
 20 22  1  0
 22 23  1  0
 23 24  2  0
 19 25  1  0
 25 26  2  0
 26 27  1  0
 27 28  1  0
 28 29  2  0
 29 30  1  0
 30 31  2  0
 31 32  1  0
 32 33  2  0
 27 34  1  0
 34 35  1  0
 35 36  1  0
 36 37  1  0
 36 38  1  0
 38 39  1  0
 39  2  1  0
 17  9  1  0
 23 18  1  0
 33 25  1  0
 17 12  1  0
 33 28  1  0
M  END
>  <Compound_ID>  (231) 
CHEMBL103628

>  <Active>  (231) 
1.0

>  <Smiles>  (231) 
CN1CCN(C)CCn2cc(c3ccccc32)C2=C(C(=O)NC2=O)c2cn(c3ccccc23)CCN(C)CC1

>  <canonical_smi>  (231) 
CN1CCN(C)CCn2cc(c3ccccc32)C2=C(C(=O)NC2=O)c2cn(c3ccccc23)CCN(C)CC1

>  <Set>  (231) 
G2 active

>  <Set_type>  (231) 
Test

>  <MW>  (231) 
524.67

>  <HBD>  (231) 
1

>  <HBA>  (231) 
5

>  <NRB>  (231) 
0

>  <NR>  (231) 
6

>  <NAR>  (231) 
4

>  <PSA>  (231) 
65.75

>  <Standard Type>  (231) 
nan

>  <Standard Relation>  (231) 
nan

>  <Standard Units>  (231) 
nan

>  <Standard Value>  (231) 
nan

>  <Assay ChEMBL ID>  (231) 
nan

>  <Assay Description>  (231) 
nan

>  <BAO Label>  (231) 
nan

$$$$

     RDKit          2D

 38 43  0  0  0  0  0  0  0  0999 V2000
   -6.5623   -7.2853    0.0000 C   0  0  0  0  0  0  0  0  0  0  0  0
   -5.0623   -7.2853    0.0000 N   0  0  0  0  0  0  0  0  0  0  0  0
   -4.8277   -5.8038    0.0000 C   0  0  0  0  0  0  0  0  0  0  0  0
   -4.1467   -4.4673    0.0000 C   0  0  0  0  0  0  0  0  0  0  0  0
   -3.0860   -3.4066    0.0000 C   0  0  0  0  0  0  0  0  0  0  0  0
   -1.2135   -2.7256    0.0000 N   0  0  0  0  0  0  0  0  0  0  0  0
   -0.0000   -3.6073    0.0000 C   0  0  0  0  0  0  0  0  0  0  0  0
    1.2135   -2.7256    0.0000 C   0  0  0  0  0  0  0  0  0  0  0  0
    0.7500   -1.2990    0.0000 C   0  0  0  0  0  0  0  0  0  0  0  0
    1.5000    0.0000    0.0000 C   0  0  0  0  0  0  0  0  0  0  0  0
    0.7500    1.2990    0.0000 C   0  0  0  0  0  0  0  0  0  0  0  0
   -0.7500    1.2990    0.0000 C   0  0  0  0  0  0  0  0  0  0  0  0
   -1.5000    0.0000    0.0000 C   0  0  0  0  0  0  0  0  0  0  0  0
   -0.7500   -1.2990    0.0000 C   0  0  0  0  0  0  0  0  0  0  0  0
    2.5500   -3.4066    0.0000 C   0  0  0  0  0  0  0  0  0  0  0  0
    3.6107   -4.4673    0.0000 C   0  0  0  0  0  0  0  0  0  0  0  0
    4.9472   -3.7863    0.0000 C   0  0  0  0  0  0  0  0  0  0  0  0
    6.2837   -4.4673    0.0000 O   0  0  0  0  0  0  0  0  0  0  0  0
    4.7126   -2.3048    0.0000 N   0  0  0  0  0  0  0  0  0  0  0  0
    3.2310   -2.0701    0.0000 C   0  0  0  0  0  0  0  0  0  0  0  0
    2.5500   -0.7336    0.0000 O   0  0  0  0  0  0  0  0  0  0  0  0
    4.2917   -5.8038    0.0000 C   0  0  0  0  0  0  0  0  0  0  0  0
    4.5263   -7.2853    0.0000 C   0  0  0  0  0  0  0  0  0  0  0  0
    4.2917   -8.7668    0.0000 N   0  0  0  0  0  0  0  0  0  0  0  0
    5.7183   -8.3033    0.0000 C   0  0  0  0  0  0  0  0  0  0  0  0
    7.0173   -9.0533    0.0000 C   0  0  0  0  0  0  0  0  0  0  0  0
    8.3163   -8.3033    0.0000 C   0  0  0  0  0  0  0  0  0  0  0  0
    8.3163   -6.8033    0.0000 C   0  0  0  0  0  0  0  0  0  0  0  0
    7.0173   -6.0533    0.0000 C   0  0  0  0  0  0  0  0  0  0  0  0
    5.7183   -6.8033    0.0000 C   0  0  0  0  0  0  0  0  0  0  0  0
    3.6107  -10.1034    0.0000 C   0  0  0  0  0  0  0  0  0  0  0  0
    2.5500  -11.1640    0.0000 C   0  0  0  0  0  0  0  0  0  0  0  0
    1.2135  -11.8450    0.0000 O   0  0  0  0  0  0  0  0  0  0  0  0
   -0.2680  -12.0797    0.0000 C   0  0  0  0  0  0  0  0  0  0  0  0
   -1.7495  -11.8450    0.0000 C   0  0  0  0  0  0  0  0  0  0  0  0
   -3.0860  -11.1640    0.0000 O   0  0  0  0  0  0  0  0  0  0  0  0
   -4.1467  -10.1034    0.0000 C   0  0  0  0  0  0  0  0  0  0  0  0
   -4.8277   -8.7668    0.0000 C   0  0  0  0  0  0  0  0  0  0  0  0
  1  2  1  0
  2  3  1  0
  3  4  1  0
  4  5  1  0
  5  6  1  0
  6  7  1  0
  7  8  2  0
  8  9  1  0
  9 10  2  0
 10 11  1  0
 11 12  2  0
 12 13  1  0
 13 14  2  0
  8 15  1  0
 15 16  2  0
 16 17  1  0
 17 18  2  0
 17 19  1  0
 19 20  1  0
 20 21  2  0
 16 22  1  0
 22 23  2  0
 23 24  1  0
 24 25  1  0
 25 26  2  0
 26 27  1  0
 27 28  2  0
 28 29  1  0
 29 30  2  0
 24 31  1  0
 31 32  1  0
 32 33  1  0
 33 34  1  0
 34 35  1  0
 35 36  1  0
 36 37  1  0
 37 38  1  0
 38  2  1  0
 14  6  1  0
 20 15  1  0
 30 22  1  0
 14  9  1  0
 30 25  1  0
M  END
>  <Compound_ID>  (232) 
CHEMBL321315

>  <Active>  (232) 
1.0

>  <Smiles>  (232) 
CN1CCCn2cc(c3ccccc32)C2=C(C(=O)NC2=O)c2cn(c3ccccc23)CCOCCOCC1

>  <canonical_smi>  (232) 
CN1CCCn2cc(c3ccccc32)C2=C(C(=O)NC2=O)c2cn(c3ccccc23)CCOCCOCC1

>  <Set>  (232) 
G2 active

>  <Set_type>  (232) 
Test

>  <MW>  (232) 
512.61

>  <HBD>  (232) 
1

>  <HBA>  (232) 
5

>  <NRB>  (232) 
0

>  <NR>  (232) 
6

>  <NAR>  (232) 
4

>  <PSA>  (232) 
77.73

>  <Standard Type>  (232) 
nan

>  <Standard Relation>  (232) 
nan

>  <Standard Units>  (232) 
nan

>  <Standard Value>  (232) 
nan

>  <Assay ChEMBL ID>  (232) 
nan

>  <Assay Description>  (232) 
nan

>  <BAO Label>  (232) 
nan

$$$$

     RDKit          2D

 45 52  0  0  0  0  0  0  0  0999 V2000
    3.3748   -0.2164    0.0000 C   0  0  0  0  0  0  0  0  0  0  0  0
    1.8748   -0.2164    0.0000 N   0  0  0  0  0  0  0  0  0  0  0  0
    1.1248   -1.5154    0.0000 C   0  0  0  0  0  0  0  0  0  0  0  0
   -0.3752   -1.5154    0.0000 C   0  0  0  0  0  0  0  0  0  0  0  0
   -1.1252   -0.2164    0.0000 N   0  0  0  0  0  0  0  0  0  0  0  0
   -2.6252   -0.2164    0.0000 C   0  0  0  0  0  0  0  0  0  0  0  0
   -3.3752   -1.5154    0.0000 C   0  0  0  0  0  0  0  0  0  0  0  0
   -4.8752   -1.5154    0.0000 C   0  0  0  0  0  0  0  0  0  0  0  0
   -5.6252   -2.8145    0.0000 N   0  0  0  0  0  0  0  0  0  0  0  0
   -5.0151   -4.1848    0.0000 N   0  0  0  0  0  0  0  0  0  0  0  0
   -6.1298   -5.1885    0.0000 C   0  0  0  0  0  0  0  0  0  0  0  0
   -5.9730   -6.6803    0.0000 C   0  0  0  0  0  0  0  0  0  0  0  0
   -4.6740   -7.4303    0.0000 C   0  0  0  0  0  0  0  0  0  0  0  0
   -3.3037   -6.8202    0.0000 C   0  0  0  0  0  0  0  0  0  0  0  0
   -2.0046   -7.5702    0.0000 C   0  0  0  0  0  0  0  0  0  0  0  0
   -0.8899   -6.5665    0.0000 N   0  0  0  0  0  0  0  0  0  0  0  0
    0.5773   -6.8783    0.0000 C   0  0  0  0  0  0  0  0  0  0  0  0
    1.0409   -8.3049    0.0000 C   0  0  0  0  0  0  0  0  0  0  0  0
    2.5081   -8.6168    0.0000 C   0  0  0  0  0  0  0  0  0  0  0  0
    3.5118   -7.5021    0.0000 C   0  0  0  0  0  0  0  0  0  0  0  0
    4.9790   -7.8139    0.0000 C   0  0  0  0  0  0  0  0  0  0  0  0
    5.9827   -6.6992    0.0000 C   0  0  0  0  0  0  0  0  0  0  0  0
    5.5192   -5.2726    0.0000 C   0  0  0  0  0  0  0  0  0  0  0  0
    4.0519   -4.9608    0.0000 C   0  0  0  0  0  0  0  0  0  0  0  0
    3.0482   -6.0755    0.0000 C   0  0  0  0  0  0  0  0  0  0  0  0
    1.5810   -5.7636    0.0000 C   0  0  0  0  0  0  0  0  0  0  0  0
   -1.5000   -5.1962    0.0000 C   0  0  0  0  0  0  0  0  0  0  0  0
   -0.8899   -3.8258    0.0000 C   0  0  0  0  0  0  0  0  0  0  0  0
   -1.7716   -2.6123    0.0000 C   0  0  0  0  0  0  0  0  0  0  0  0
   -3.2634   -2.7691    0.0000 C   0  0  0  0  0  0  0  0  0  0  0  0
   -3.8735   -4.1394    0.0000 C   0  0  0  0  0  0  0  0  0  0  0  0
   -2.9918   -5.3529    0.0000 C   0  0  0  0  0  0  0  0  0  0  0  0
   -4.9858   -8.8975    0.0000 C   0  0  0  0  0  0  0  0  0  0  0  0
   -3.9821  -10.0122    0.0000 O   0  0  0  0  0  0  0  0  0  0  0  0
   -6.4776   -9.0543    0.0000 N   0  0  0  0  0  0  0  0  0  0  0  0
   -7.0877   -7.6840    0.0000 C   0  0  0  0  0  0  0  0  0  0  0  0
   -8.5549   -7.3721    0.0000 O   0  0  0  0  0  0  0  0  0  0  0  0
   -7.4288   -4.4385    0.0000 C   0  0  0  0  0  0  0  0  0  0  0  0
   -8.8554   -4.9020    0.0000 C   0  0  0  0  0  0  0  0  0  0  0  0
   -9.9701   -3.8983    0.0000 C   0  0  0  0  0  0  0  0  0  0  0  0
   -9.6583   -2.4311    0.0000 C   0  0  0  0  0  0  0  0  0  0  0  0
   -8.2317   -1.9676    0.0000 C   0  0  0  0  0  0  0  0  0  0  0  0
   -7.1170   -2.9713    0.0000 C   0  0  0  0  0  0  0  0  0  0  0  0
   -0.3752    1.0826    0.0000 C   0  0  0  0  0  0  0  0  0  0  0  0
    1.1248    1.0826    0.0000 C   0  0  0  0  0  0  0  0  0  0  0  0
  1  2  1  0
  2  3  1  0
  3  4  1  0
  4  5  1  0
  5  6  1  0
  6  7  1  0
  7  8  1  0
  8  9  1  0
  9 10  1  0
 10 11  2  0
 11 12  1  0
 12 13  2  0
 13 14  1  0
 14 15  2  0
 15 16  1  0
 16 17  1  0
 17 18  2  0
 18 19  1  0
 19 20  2  0
 20 21  1  0
 21 22  2  0
 22 23  1  0
 23 24  2  0
 24 25  1  0
 25 26  2  0
 16 27  1  0
 27 28  2  0
 28 29  1  0
 29 30  2  0
 30 31  1  0
 31 32  2  0
 13 33  1  0
 33 34  2  0
 33 35  1  0
 35 36  1  0
 36 37  2  0
 11 38  1  0
 38 39  2  0
 39 40  1  0
 40 41  2  0
 41 42  1  0
 42 43  2  0
  5 44  1  0
 44 45  1  0
 45  2  1  0
 43  9  1  0
 36 12  1  0
 43 38  1  0
 32 14  1  0
 26 17  1  0
 32 27  1  0
 25 20  1  0
M  END
>  <Compound_ID>  (233) 
CHEMBL175845

>  <Active>  (233) 
1.0

>  <Smiles>  (233) 
CN1CCN(CCCn2nc(C3=C(c4cn(-c5ccc6ccccc6c5)c5ccccc45)C(=O)NC3=O)c3ccccc32)CC1

>  <canonical_smi>  (233) 
CN1CCN(CCCn2nc(C3=C(c4cn(-c5ccc6ccccc6c5)c5ccccc45)C(=O)NC3=O)c3ccccc32)CC1

>  <Set>  (233) 
G2 active

>  <Set_type>  (233) 
Test

>  <MW>  (233) 
594.72

>  <HBD>  (233) 
1

>  <HBA>  (233) 
5

>  <NRB>  (233) 
7

>  <NR>  (233) 
8

>  <NAR>  (233) 
6

>  <PSA>  (233) 
75.4

>  <Standard Type>  (233) 
nan

>  <Standard Relation>  (233) 
nan

>  <Standard Units>  (233) 
nan

>  <Standard Value>  (233) 
nan

>  <Assay ChEMBL ID>  (233) 
nan

>  <Assay Description>  (233) 
nan

>  <BAO Label>  (233) 
nan

$$$$

     RDKit          2D

 43 48  0  0  0  0  0  0  0  0999 V2000
   -3.6363  -14.6316    0.0000 C   0  0  0  0  0  0  0  0  0  0  0  0
   -2.1785  -14.2779    0.0000 C   0  0  0  0  0  0  0  0  0  0  0  0
   -1.7559  -12.8387    0.0000 N   0  0  0  0  0  0  0  0  0  0  0  0
   -3.1204  -12.2156    0.0000 C   0  0  0  0  0  0  0  0  0  0  0  0
   -4.2540  -11.2333    0.0000 C   0  0  0  0  0  0  0  0  0  0  0  0
   -5.0650   -9.9714    0.0000 O   0  0  0  0  0  0  0  0  0  0  0  0
   -5.4876   -8.5322    0.0000 C   0  0  0  0  0  0  0  0  0  0  0  0
   -5.4876   -7.0322    0.0000 C   0  0  0  0  0  0  0  0  0  0  0  0
   -5.0650   -5.5929    0.0000 N   0  0  0  0  0  0  0  0  0  0  0  0
   -6.4294   -4.9698    0.0000 C   0  0  0  0  0  0  0  0  0  0  0  0
   -6.5720   -3.4766    0.0000 C   0  0  0  0  0  0  0  0  0  0  0  0
   -4.2540   -4.3310    0.0000 C   0  0  0  0  0  0  0  0  0  0  0  0
   -3.1204   -3.3487    0.0000 C   0  0  0  0  0  0  0  0  0  0  0  0
   -1.2135   -2.7256    0.0000 N   0  0  0  0  0  0  0  0  0  0  0  0
   -0.0000   -3.6073    0.0000 C   0  0  0  0  0  0  0  0  0  0  0  0
    1.2135   -2.7256    0.0000 C   0  0  0  0  0  0  0  0  0  0  0  0
    0.7500   -1.2990    0.0000 C   0  0  0  0  0  0  0  0  0  0  0  0
    1.5000    0.0000    0.0000 C   0  0  0  0  0  0  0  0  0  0  0  0
    0.7500    1.2990    0.0000 C   0  0  0  0  0  0  0  0  0  0  0  0
   -0.7500    1.2990    0.0000 C   0  0  0  0  0  0  0  0  0  0  0  0
   -1.5000    0.0000    0.0000 C   0  0  0  0  0  0  0  0  0  0  0  0
   -0.7500   -1.2990    0.0000 C   0  0  0  0  0  0  0  0  0  0  0  0
    2.5780   -3.3487    0.0000 C   0  0  0  0  0  0  0  0  0  0  0  0
    3.7116   -4.3310    0.0000 C   0  0  0  0  0  0  0  0  0  0  0  0
    4.9961   -3.5564    0.0000 C   0  0  0  0  0  0  0  0  0  0  0  0
    6.3778   -4.1403    0.0000 O   0  0  0  0  0  0  0  0  0  0  0  0
    4.6564   -2.0954    0.0000 N   0  0  0  0  0  0  0  0  0  0  0  0
    3.1619   -1.9671    0.0000 C   0  0  0  0  0  0  0  0  0  0  0  0
    2.3873   -0.6825    0.0000 O   0  0  0  0  0  0  0  0  0  0  0  0
    4.5226   -5.5929    0.0000 C   0  0  0  0  0  0  0  0  0  0  0  0
    4.9452   -7.0322    0.0000 C   0  0  0  0  0  0  0  0  0  0  0  0
    4.9452   -8.5322    0.0000 N   0  0  0  0  0  0  0  0  0  0  0  0
    6.2913   -7.8703    0.0000 C   0  0  0  0  0  0  0  0  0  0  0  0
    7.6838   -8.4278    0.0000 C   0  0  0  0  0  0  0  0  0  0  0  0
    8.8629   -7.5006    0.0000 C   0  0  0  0  0  0  0  0  0  0  0  0
    8.6494   -6.0158    0.0000 C   0  0  0  0  0  0  0  0  0  0  0  0
    7.2569   -5.4584    0.0000 C   0  0  0  0  0  0  0  0  0  0  0  0
    6.0778   -6.3856    0.0000 C   0  0  0  0  0  0  0  0  0  0  0  0
    4.5226   -9.9714    0.0000 C   0  0  0  0  0  0  0  0  0  0  0  0
    3.7116  -11.2333    0.0000 C   0  0  0  0  0  0  0  0  0  0  0  0
    2.5780  -12.2156    0.0000 O   0  0  0  0  0  0  0  0  0  0  0  0
    1.2135  -12.8387    0.0000 C   0  0  0  0  0  0  0  0  0  0  0  0
   -0.2712  -13.0522    0.0000 C   0  0  0  0  0  0  0  0  0  0  0  0
  1  2  1  0
  2  3  1  0
  3  4  1  0
  4  5  1  0
  5  6  1  0
  6  7  1  0
  7  8  1  0
  8  9  1  0
  9 10  1  0
 10 11  1  0
  9 12  1  0
 12 13  1  0
 13 14  1  0
 14 15  1  0
 15 16  2  0
 16 17  1  0
 17 18  2  0
 18 19  1  0
 19 20  2  0
 20 21  1  0
 21 22  2  0
 16 23  1  0
 23 24  2  0
 24 25  1  0
 25 26  2  0
 25 27  1  0
 27 28  1  0
 28 29  2  0
 24 30  1  0
 30 31  2  0
 31 32  1  0
 32 33  1  0
 33 34  2  0
 34 35  1  0
 35 36  2  0
 36 37  1  0
 37 38  2  0
 32 39  1  0
 39 40  1  0
 40 41  1  0
 41 42  1  0
 42 43  1  0
 43  3  1  0
 22 14  1  0
 28 23  1  0
 38 30  1  0
 22 17  1  0
 38 33  1  0
M  END
>  <Compound_ID>  (234) 
CHEMBL103421

>  <Active>  (234) 
1.0

>  <Smiles>  (234) 
CCN1CCOCCN(CC)CCn2cc(c3ccccc32)C2=C(C(=O)NC2=O)c2cn(c3ccccc23)CCOCC1

>  <canonical_smi>  (234) 
CCN1CCOCCN(CC)CCn2cc(c3ccccc32)C2=C(C(=O)NC2=O)c2cn(c3ccccc23)CCOCC1

>  <Set>  (234) 
G2 active

>  <Set_type>  (234) 
Test

>  <MW>  (234) 
583.73

>  <HBD>  (234) 
1

>  <HBA>  (234) 
6

>  <NRB>  (234) 
2

>  <NR>  (234) 
6

>  <NAR>  (234) 
4

>  <PSA>  (234) 
80.97

>  <Standard Type>  (234) 
nan

>  <Standard Relation>  (234) 
nan

>  <Standard Units>  (234) 
nan

>  <Standard Value>  (234) 
nan

>  <Assay ChEMBL ID>  (234) 
nan

>  <Assay Description>  (234) 
nan

>  <BAO Label>  (234) 
nan

$$$$

     RDKit          2D

 35 40  0  0  0  0  0  0  0  0999 V2000
   -2.3029  -11.2149    0.0000 C   0  0  0  0  0  0  0  0  0  0  0  0
   -1.7288   -9.8291    0.0000 N   0  0  0  0  0  0  0  0  0  0  0  0
   -2.9760   -8.9957    0.0000 C   0  0  0  0  0  0  0  0  0  0  0  0
   -3.8094   -7.7485    0.0000 C   0  0  0  0  0  0  0  0  0  0  0  0
   -4.1020   -6.2774    0.0000 N   0  0  0  0  0  0  0  0  0  0  0  0
   -5.6020   -6.2774    0.0000 C   0  0  0  0  0  0  0  0  0  0  0  0
   -3.8094   -4.8062    0.0000 C   0  0  0  0  0  0  0  0  0  0  0  0
   -2.9760   -3.5590    0.0000 C   0  0  0  0  0  0  0  0  0  0  0  0
   -1.2135   -2.7256    0.0000 N   0  0  0  0  0  0  0  0  0  0  0  0
   -0.0000   -3.6073    0.0000 C   0  0  0  0  0  0  0  0  0  0  0  0
    1.2135   -2.7256    0.0000 C   0  0  0  0  0  0  0  0  0  0  0  0
    0.7500   -1.2990    0.0000 C   0  0  0  0  0  0  0  0  0  0  0  0
    1.5000    0.0000    0.0000 C   0  0  0  0  0  0  0  0  0  0  0  0
    0.7500    1.2990    0.0000 C   0  0  0  0  0  0  0  0  0  0  0  0
   -0.7500    1.2990    0.0000 C   0  0  0  0  0  0  0  0  0  0  0  0
   -1.5000    0.0000    0.0000 C   0  0  0  0  0  0  0  0  0  0  0  0
   -0.7500   -1.2990    0.0000 C   0  0  0  0  0  0  0  0  0  0  0  0
    2.4607   -3.5590    0.0000 C   0  0  0  0  0  0  0  0  0  0  0  0
    3.2941   -4.8062    0.0000 C   0  0  0  0  0  0  0  0  0  0  0  0
    4.7378   -4.3990    0.0000 C   0  0  0  0  0  0  0  0  0  0  0  0
    5.9157   -5.3277    0.0000 O   0  0  0  0  0  0  0  0  0  0  0  0
    4.7967   -2.9002    0.0000 N   0  0  0  0  0  0  0  0  0  0  0  0
    3.3894   -2.3810    0.0000 C   0  0  0  0  0  0  0  0  0  0  0  0
    2.9822   -0.9373    0.0000 O   0  0  0  0  0  0  0  0  0  0  0  0
    3.5867   -6.2774    0.0000 C   0  0  0  0  0  0  0  0  0  0  0  0
    3.2941   -7.7485    0.0000 C   0  0  0  0  0  0  0  0  0  0  0  0
    2.4607   -8.9957    0.0000 N   0  0  0  0  0  0  0  0  0  0  0  0
    3.9561   -9.1134    0.0000 C   0  0  0  0  0  0  0  0  0  0  0  0
    4.8692  -10.3035    0.0000 C   0  0  0  0  0  0  0  0  0  0  0  0
    6.3564  -10.1077    0.0000 C   0  0  0  0  0  0  0  0  0  0  0  0
    6.9304   -8.7219    0.0000 C   0  0  0  0  0  0  0  0  0  0  0  0
    6.0173   -7.5318    0.0000 C   0  0  0  0  0  0  0  0  0  0  0  0
    4.5301   -7.7276    0.0000 C   0  0  0  0  0  0  0  0  0  0  0  0
    1.2135   -9.8291    0.0000 C   0  0  0  0  0  0  0  0  0  0  0  0
   -0.2577  -10.1217    0.0000 C   0  0  0  0  0  0  0  0  0  0  0  0
  1  2  1  0
  2  3  1  0
  3  4  1  0
  4  5  1  0
  5  6  1  0
  5  7  1  0
  7  8  1  0
  8  9  1  0
  9 10  1  0
 10 11  2  0
 11 12  1  0
 12 13  2  0
 13 14  1  0
 14 15  2  0
 15 16  1  0
 16 17  2  0
 11 18  1  0
 18 19  2  0
 19 20  1  0
 20 21  2  0
 20 22  1  0
 22 23  1  0
 23 24  2  0
 19 25  1  0
 25 26  2  0
 26 27  1  0
 27 28  1  0
 28 29  2  0
 29 30  1  0
 30 31  2  0
 31 32  1  0
 32 33  2  0
 27 34  1  0
 34 35  1  0
 35  2  1  0
 17  9  1  0
 23 18  1  0
 33 25  1  0
 17 12  1  0
 33 28  1  0
M  END
>  <Compound_ID>  (235) 
CHEMBL319265

>  <Active>  (235) 
1.0

>  <Smiles>  (235) 
CN1CCN(C)CCn2cc(c3ccccc32)C2=C(C(=O)NC2=O)c2cn(c3ccccc23)CC1

>  <canonical_smi>  (235) 
CN1CCN(C)CCn2cc(c3ccccc32)C2=C(C(=O)NC2=O)c2cn(c3ccccc23)CC1

>  <Set>  (235) 
G2 active

>  <Set_type>  (235) 
Test

>  <MW>  (235) 
467.57

>  <HBD>  (235) 
1

>  <HBA>  (235) 
4

>  <NRB>  (235) 
0

>  <NR>  (235) 
6

>  <NAR>  (235) 
4

>  <PSA>  (235) 
62.51

>  <Standard Type>  (235) 
nan

>  <Standard Relation>  (235) 
nan

>  <Standard Units>  (235) 
nan

>  <Standard Value>  (235) 
nan

>  <Assay ChEMBL ID>  (235) 
nan

>  <Assay Description>  (235) 
nan

>  <BAO Label>  (235) 
nan

$$$$

     RDKit          2D

 38 41  0  0  0  0  0  0  0  0999 V2000
    5.9262   -5.9767    0.0000 O   0  0  0  0  0  0  0  0  0  0  0  0
    5.4627   -4.5501    0.0000 C   0  0  0  0  0  0  0  0  0  0  0  0
    3.9955   -4.2382    0.0000 N   0  0  0  0  0  0  0  0  0  0  0  0
    2.9918   -5.3529    0.0000 C   0  0  0  0  0  0  0  0  0  0  0  0
    3.3037   -6.8202    0.0000 C   0  0  0  0  0  0  0  0  0  0  0  0
    2.0046   -7.5702    0.0000 N   0  0  0  0  0  0  0  0  0  0  0  0
    0.8899   -6.5665    0.0000 C   0  0  0  0  0  0  0  0  0  0  0  0
    1.5000   -5.1962    0.0000 C   0  0  0  0  0  0  0  0  0  0  0  0
    0.7500   -3.8971    0.0000 N   0  0  0  0  0  0  0  0  0  0  0  0
    1.5000   -2.5981    0.0000 C   0  0  0  0  0  0  0  0  0  0  0  0
    3.0000   -2.5981    0.0000 O   0  0  0  0  0  0  0  0  0  0  0  0
    0.7500   -1.2990    0.0000 C   0  0  0  0  0  0  0  0  0  0  0  0
    1.5000    0.0000    0.0000 C   0  0  0  0  0  0  0  0  0  0  0  0
    0.7500    1.2990    0.0000 C   0  0  0  0  0  0  0  0  0  0  0  0
    1.5000    2.5981    0.0000 O   0  0  0  0  0  0  0  0  0  0  0  0
   -0.7500    1.2990    0.0000 C   0  0  0  0  0  0  0  0  0  0  0  0
   -1.5000    2.5981    0.0000 C   0  0  0  0  0  0  0  0  0  0  0  0
   -0.7500    3.8971    0.0000 O   0  0  0  0  0  0  0  0  0  0  0  0
   -3.0000    2.5981    0.0000 C   0  0  0  0  0  0  0  0  0  0  0  0
   -3.7500    1.2990    0.0000 C   0  0  0  0  0  0  0  0  0  0  0  0
   -3.3655    0.3931    0.0000 O   0  0  0  0  0  0  0  0  0  0  0  0
   -5.2500    1.2990    0.0000 C   0  0  0  0  0  0  0  0  0  0  0  0
   -6.0000    2.5981    0.0000 C   0  0  0  0  0  0  0  0  0  0  0  0
   -5.2500    3.8971    0.0000 C   0  0  0  0  0  0  0  0  0  0  0  0
   -3.7500    3.8971    0.0000 C   0  0  0  0  0  0  0  0  0  0  0  0
   -3.0000    5.1962    0.0000 C   0  0  0  0  0  0  0  0  0  0  0  0
   -1.5000    5.1962    0.0000 O   0  0  0  0  0  0  0  0  0  0  0  0
   -3.7500    6.4952    0.0000 O   0  0  0  0  0  0  0  0  0  0  0  0
   -1.5000    0.0000    0.0000 C   0  0  0  0  0  0  0  0  0  0  0  0
   -2.4768   -0.1200    0.0000 O   0  0  0  0  0  0  0  0  0  0  0  0
   -0.7500   -1.2990    0.0000 C   0  0  0  0  0  0  0  0  0  0  0  0
    6.4664   -3.4354    0.0000 C   0  0  0  0  0  0  0  0  0  0  0  0
    7.9336   -3.7472    0.0000 C   0  0  0  0  0  0  0  0  0  0  0  0
    8.9373   -2.6325    0.0000 C   0  0  0  0  0  0  0  0  0  0  0  0
    8.4738   -1.2059    0.0000 C   0  0  0  0  0  0  0  0  0  0  0  0
    9.4775   -0.0912    0.0000 O   0  0  0  0  0  0  0  0  0  0  0  0
    7.0066   -0.8941    0.0000 C   0  0  0  0  0  0  0  0  0  0  0  0
    6.0029   -2.0088    0.0000 C   0  0  0  0  0  0  0  0  0  0  0  0
  1  2  2  0
  2  3  1  0
  4  3  1  6
  4  5  1  0
  5  6  1  0
  6  7  1  0
  7  8  1  0
  8  9  1  1
  9 10  1  0
 10 11  2  0
 10 12  1  0
 12 13  2  0
 13 14  1  0
 14 15  1  0
 14 16  2  0
 16 17  1  0
 17 18  2  0
 17 19  1  0
 19 20  2  0
 20 21  1  0
 20 22  1  0
 22 23  2  0
 23 24  1  0
 24 25  2  0
 25 26  1  0
 26 27  2  0
 26 28  1  0
 16 29  1  0
 29 30  1  0
 29 31  2  0
  2 32  1  0
 32 33  2  0
 33 34  1  0
 34 35  2  0
 35 36  1  0
 35 37  1  0
 37 38  2  0
  8  4  1  0
 31 12  1  0
 38 32  1  0
 25 19  1  0
M  END
>  <Compound_ID>  (236) 
CHEMBL59677

>  <Active>  (236) 
1.0

>  <Smiles>  (236) 
O=C(N[C@@H]1CNC[C@H]1NC(=O)c1cc(O)c(C(=O)c2c(O)cccc2C(=O)O)c(O)c1)c1ccc(O)cc1

>  <canonical_smi>  (236) 
O=C(N[C@@H]1CNC[C@H]1NC(=O)c1cc(O)c(C(=O)c2c(O)cccc2C(=O)O)c(O)c1)c1ccc(O)cc1

>  <Set>  (236) 
G2 active

>  <Set_type>  (236) 
Test

>  <MW>  (236) 
521.48

>  <HBD>  (236) 
8

>  <HBA>  (236) 
10

>  <NRB>  (236) 
7

>  <NR>  (236) 
4

>  <NAR>  (236) 
3

>  <PSA>  (236) 
205.52

>  <Standard Type>  (236) 
nan

>  <Standard Relation>  (236) 
nan

>  <Standard Units>  (236) 
nan

>  <Standard Value>  (236) 
nan

>  <Assay ChEMBL ID>  (236) 
nan

>  <Assay Description>  (236) 
nan

>  <BAO Label>  (236) 
nan

$$$$

     RDKit          2D

 31 34  0  0  0  0  0  0  0  0999 V2000
    3.0000    0.0000    0.0000 C   0  0  0  0  0  0  0  0  0  0  0  0
    1.5000    0.0000    0.0000 C   0  0  0  0  0  0  0  0  0  0  0  0
    0.7500   -1.2990    0.0000 N   0  0  0  0  0  0  0  0  0  0  0  0
   -0.7500   -1.2990    0.0000 C   0  0  0  0  0  0  0  0  0  0  0  0
   -1.5000    0.0000    0.0000 C   0  0  0  0  0  0  0  0  0  0  0  0
   -3.0000    0.0000    0.0000 C   0  0  0  0  0  0  0  0  0  0  0  0
   -3.7500   -1.2990    0.0000 O   0  0  0  0  0  0  0  0  0  0  0  0
   -0.7500    1.2990    0.0000 C   0  0  0  0  0  0  0  0  0  0  0  0
   -1.5000    2.5981    0.0000 C   0  0  0  0  0  0  0  0  0  0  0  0
   -0.7500    3.8971    0.0000 C   0  0  0  0  0  0  0  0  0  0  0  0
   -1.5000    5.1962    0.0000 C   0  0  0  0  0  0  0  0  0  0  0  0
   -0.7500    6.4952    0.0000 O   0  0  0  0  0  0  0  0  0  0  0  0
   -3.0000    5.1962    0.0000 N   0  0  0  0  0  0  0  0  0  0  0  0
   -3.7500    6.4952    0.0000 C   0  0  0  0  0  0  0  0  0  0  0  0
   -3.0000    7.7942    0.0000 C   0  0  0  0  0  0  0  0  0  0  0  0
   -3.7500    9.0933    0.0000 C   0  0  0  0  0  0  0  0  0  0  0  0
   -5.2500    9.0933    0.0000 C   0  0  0  0  0  0  0  0  0  0  0  0
   -6.0000   10.3923    0.0000 Br  0  0  0  0  0  0  0  0  0  0  0  0
   -6.0000    7.7942    0.0000 C   0  0  0  0  0  0  0  0  0  0  0  0
   -5.2500    6.4952    0.0000 C   0  0  0  0  0  0  0  0  0  0  0  0
    0.7500    3.8971    0.0000 C   0  0  0  0  0  0  0  0  0  0  0  0
    1.5000    5.1962    0.0000 N   0  0  0  0  0  4  0  0  0  0  0  0
    3.0000    5.1962    0.0000 C   0  0  0  0  0  0  0  0  0  0  0  0
    3.7500    3.8971    0.0000 C   0  0  0  0  0  0  0  0  0  0  0  0
    5.2500    3.8971    0.0000 C   0  0  0  0  0  0  0  0  0  0  0  0
    6.0000    5.1962    0.0000 C   0  0  0  0  0  0  0  0  0  0  0  0
    7.5000    5.1962    0.0000 F   0  0  0  0  0  0  0  0  0  0  0  0
    5.2500    6.4952    0.0000 C   0  0  0  0  0  0  0  0  0  0  0  0
    3.7500    6.4952    0.0000 C   0  0  0  0  0  0  0  0  0  0  0  0
    1.5000    2.5981    0.0000 O   0  0  0  0  0  0  0  0  0  0  0  0
    0.7500    1.2990    0.0000 C   0  0  0  0  0  0  0  0  0  0  0  0
  1  2  1  0
  2  3  2  0
  3  4  1  0
  4  5  2  0
  5  6  1  0
  6  7  1  0
  5  8  1  0
  8  9  1  0
  9 10  2  0
 10 11  1  0
 11 12  2  0
 11 13  1  0
 13 14  1  0
 14 15  2  0
 15 16  1  0
 16 17  2  0
 17 18  1  0
 17 19  1  0
 19 20  2  0
 10 21  1  0
 21 22  2  0
 22 23  1  0
 23 24  2  0
 24 25  1  0
 25 26  2  0
 26 27  1  0
 26 28  1  0
 28 29  2  0
 21 30  1  0
 30 31  1  0
 31  2  1  0
 31  8  2  0
 20 14  1  0
 29 23  1  0
M  CHG  1  22   1
M  END
>  <Compound_ID>  (237) 
C20617556

>  <Active>  (237) 
0.0

>  <Smiles>  (237) 
Cc1ncc(CO)c2cc(C(=O)Nc3ccc(Br)cc3)/c(=[NH+]/c3ccc(F)cc3)oc12

>  <canonical_smi>  (237) 
Cc1ncc(CO)c2cc(C(=O)Nc3ccc(Br)cc3)/c(=[NH+]/c3ccc(F)cc3)oc12

>  <Set>  (237) 
G2 inactive

>  <Set_type>  (237) 
Test

>  <MW>  (237) 
483.32

>  <HBD>  (237) 
3

>  <HBA>  (237) 
4

>  <NRB>  (237) 
4

>  <NR>  (237) 
4

>  <NAR>  (237) 
4

>  <PSA>  (237) 
89.33

>  <Standard Type>  (237) 
nan

>  <Standard Relation>  (237) 
nan

>  <Standard Units>  (237) 
nan

>  <Standard Value>  (237) 
nan

>  <Assay ChEMBL ID>  (237) 
nan

>  <Assay Description>  (237) 
nan

>  <BAO Label>  (237) 
nan

$$$$

     RDKit          2D

 22 22  0  0  0  0  0  0  0  0999 V2000
    8.2500   -3.8971    0.0000 N   0  0  0  0  0  0  0  0  0  0  0  0
    7.5000   -2.5981    0.0000 C   0  0  0  0  0  0  0  0  0  0  0  0
    8.2500   -1.2990    0.0000 O   0  0  0  0  0  0  0  0  0  0  0  0
    6.0000   -2.5981    0.0000 N   0  0  0  0  0  0  0  0  0  0  0  0
    5.2500   -1.2990    0.0000 N   0  0  0  0  0  0  0  0  0  0  0  0
    3.7500   -1.2990    0.0000 C   0  0  0  0  0  0  0  0  0  0  0  0
    3.0000    0.0000    0.0000 C   0  0  0  0  0  0  0  0  0  0  0  0
    3.7500    1.2990    0.0000 O   0  0  0  0  0  0  0  0  0  0  0  0
    1.5000    0.0000    0.0000 C   0  0  0  0  0  0  0  0  0  0  0  0
    0.7500   -1.2990    0.0000 C   0  0  0  0  0  0  0  0  0  0  0  0
   -0.7500   -1.2990    0.0000 C   0  0  0  0  0  0  0  0  0  0  0  0
   -1.5000    0.0000    0.0000 C   0  0  0  0  0  0  0  0  0  0  0  0
   -3.0000    0.0000    0.0000 C   0  0  0  0  0  0  0  0  0  0  0  0
   -3.7500   -1.2990    0.0000 O   0  0  0  0  0  0  0  0  0  0  0  0
   -3.7500    1.2990    0.0000 C   0  0  0  0  0  0  0  0  0  0  0  0
   -5.2500    1.2990    0.0000 N   0  0  0  0  0  0  0  0  0  0  0  0
   -6.0000    2.5981    0.0000 N   0  0  0  0  0  0  0  0  0  0  0  0
   -7.5000    2.5981    0.0000 C   0  0  0  0  0  0  0  0  0  0  0  0
   -8.2500    3.8971    0.0000 N   0  0  0  0  0  0  0  0  0  0  0  0
   -8.2500    1.2990    0.0000 O   0  0  0  0  0  0  0  0  0  0  0  0
   -0.7500    1.2990    0.0000 C   0  0  0  0  0  0  0  0  0  0  0  0
    0.7500    1.2990    0.0000 C   0  0  0  0  0  0  0  0  0  0  0  0
  1  2  1  0
  2  3  2  0
  2  4  1  0
  4  5  1  0
  5  6  2  0
  6  7  1  0
  7  8  2  0
  7  9  1  0
  9 10  2  0
 10 11  1  0
 11 12  2  0
 12 13  1  0
 13 14  2  0
 13 15  1  0
 15 16  2  0
 16 17  1  0
 17 18  1  0
 18 19  1  0
 18 20  2  0
 12 21  1  0
 21 22  2  0
 22  9  1  0
M  END
>  <Compound_ID>  (238) 
C13402906

>  <Active>  (238) 
0.0

>  <Smiles>  (238) 
NC(=O)N/N=C/C(=O)c1ccc(C(=O)/C=N/NC(N)=O)cc1

>  <canonical_smi>  (238) 
NC(=O)N/N=C/C(=O)c1ccc(C(=O)/C=N/NC(N)=O)cc1

>  <Set>  (238) 
G2 inactive

>  <Set_type>  (238) 
Test

>  <MW>  (238) 
304.27

>  <HBD>  (238) 
4

>  <HBA>  (238) 
4

>  <NRB>  (238) 
6

>  <NR>  (238) 
1

>  <NAR>  (238) 
1

>  <PSA>  (238) 
169.1

>  <Standard Type>  (238) 
nan

>  <Standard Relation>  (238) 
nan

>  <Standard Units>  (238) 
nan

>  <Standard Value>  (238) 
nan

>  <Assay ChEMBL ID>  (238) 
nan

>  <Assay Description>  (238) 
nan

>  <BAO Label>  (238) 
nan

$$$$

     RDKit          2D

 33 34  0  0  0  0  0  0  0  0999 V2000
    2.6491    0.9642    0.0000 C   0  0  0  0  0  0  0  0  0  0  0  0
    1.5000    0.0000    0.0000 C   0  0  0  0  0  0  0  0  0  0  0  0
    2.6491   -0.9642    0.0000 C   0  0  0  0  0  0  0  0  0  0  0  0
    4.0586   -0.4512    0.0000 O   0  0  0  0  0  0  0  0  0  0  0  0
    2.3886   -2.4414    0.0000 N   0  0  0  0  0  0  0  0  0  0  0  0
    3.5377   -3.4056    0.0000 N   0  0  0  0  0  0  0  0  0  0  0  0
    0.7500   -1.2990    0.0000 C   0  0  0  0  0  0  0  0  0  0  0  0
   -0.7500   -1.2990    0.0000 C   0  0  0  0  0  0  0  0  0  0  0  0
   -1.5000    0.0000    0.0000 C   0  0  0  0  0  0  0  0  0  0  0  0
   -0.7500    1.2990    0.0000 C   0  0  0  0  0  0  0  0  0  0  0  0
    0.7500    1.2990    0.0000 C   0  0  0  0  0  0  0  0  0  0  0  0
    1.5000    2.5981    0.0000 C   0  0  0  0  0  0  0  0  0  0  0  0
    3.0000    2.5981    0.0000 S   0  0  0  0  0  0  0  0  0  0  0  0
    0.7500    3.8971    0.0000 O   0  0  0  0  0  0  0  0  0  0  0  0
    1.5000    5.1962    0.0000 C   0  0  0  0  0  0  0  0  0  0  0  0
    3.0000    5.1962    0.0000 O   0  0  0  0  0  0  0  0  0  0  0  0
    0.7500    6.4952    0.0000 C   0  0  0  0  0  0  0  0  0  0  0  0
    1.5000    7.7942    0.0000 C   0  0  0  0  0  0  0  0  0  0  0  0
    3.0000    7.7942    0.0000 O   0  0  0  0  0  1  0  0  0  0  0  0
    0.7500    9.0933    0.0000 O   0  0  0  0  0  0  0  0  0  0  0  0
    1.5000   10.3923    0.0000 C   0  0  0  0  0  0  0  0  0  0  0  0
    3.0000   10.3923    0.0000 S   0  0  0  0  0  0  0  0  0  0  0  0
    0.7500   11.6913    0.0000 C   0  0  0  0  0  0  0  0  0  0  0  0
    1.5000   12.9904    0.0000 C   0  0  0  0  0  0  0  0  0  0  0  0
    0.7500   14.2894    0.0000 C   0  0  0  0  0  0  0  0  0  0  0  0
   -0.7500   14.2894    0.0000 C   0  0  0  0  0  0  0  0  0  0  0  0
   -1.5000   12.9904    0.0000 C   0  0  0  0  0  0  0  0  0  0  0  0
   -0.7500   11.6913    0.0000 C   0  0  0  0  0  0  0  0  0  0  0  0
   -0.4895   10.2141    0.0000 C   0  0  0  0  0  0  0  0  0  0  0  0
   -2.1595   11.1783    0.0000 C   0  0  0  0  0  0  0  0  0  0  0  0
   -2.4200    9.7011    0.0000 O   0  0  0  0  0  0  0  0  0  0  0  0
   -3.3086   12.1425    0.0000 N   0  0  0  0  0  0  0  0  0  0  0  0
   -4.7181   11.6295    0.0000 N   0  0  0  0  0  0  0  0  0  0  0  0
  2  1  1  1
  2  3  1  0
  3  4  2  0
  3  5  1  0
  5  6  1  0
  2  7  1  0
  7  8  1  0
  8  9  2  0
  9 10  1  0
 10 11  2  0
 11 12  1  0
 12 13  2  0
 12 14  1  0
 14 15  1  0
 15 16  2  0
 15 17  1  0
 17 18  2  0
 18 19  1  0
 18 20  1  0
 20 21  1  0
 21 22  2  0
 21 23  1  0
 23 24  2  0
 24 25  1  0
 25 26  2  0
 26 27  1  0
 27 28  1  0
 28 29  1  1
 28 30  1  0
 30 31  2  0
 30 32  1  0
 32 33  1  0
 11  2  1  0
 28 23  1  0
M  CHG  1  19  -1
M  END
>  <Compound_ID>  (239) 
C66331740

>  <Active>  (239) 
0.0

>  <Smiles>  (239) 
C[C@@]1(C(=O)NN)CC=CC=C1C(=S)OC(=O)/C=C(\[O-])OC(=S)C1=CC=CC[C@@]1(C)C(=O)NN

>  <canonical_smi>  (239) 
C[C@@]1(C(=O)NN)CC=CC=C1C(=S)OC(=O)/C=C(\[O-])OC(=S)C1=CC=CC[C@@]1(C)C(=O)NN

>  <Set>  (239) 
G2 inactive

>  <Set_type>  (239) 
Test

>  <MW>  (239) 
491.57

>  <HBD>  (239) 
4

>  <HBA>  (239) 
10

>  <NRB>  (239) 
6

>  <NR>  (239) 
2

>  <NAR>  (239) 
0

>  <PSA>  (239) 
168.83

>  <Standard Type>  (239) 
nan

>  <Standard Relation>  (239) 
nan

>  <Standard Units>  (239) 
nan

>  <Standard Value>  (239) 
nan

>  <Assay ChEMBL ID>  (239) 
nan

>  <Assay Description>  (239) 
nan

>  <BAO Label>  (239) 
nan

$$$$

     RDKit          2D

 35 38  0  0  0  0  0  0  0  0999 V2000
   -5.2020   -8.5535    0.0000 C   0  0  0  0  0  0  0  0  0  0  0  0
   -4.8901   -7.0863    0.0000 C   0  0  0  0  0  0  0  0  0  0  0  0
   -6.0048   -6.0826    0.0000 C   0  0  0  0  0  0  0  0  0  0  0  0
   -7.4314   -6.5461    0.0000 C   0  0  0  0  0  0  0  0  0  0  0  0
   -8.5461   -5.5424    0.0000 C   0  0  0  0  0  0  0  0  0  0  0  0
   -8.2343   -4.0752    0.0000 O   0  0  0  0  0  0  0  0  0  0  0  0
   -9.9727   -6.0059    0.0000 O   0  0  0  0  0  1  0  0  0  0  0  0
   -3.4635   -6.6227    0.0000 C   0  0  0  0  0  0  0  0  0  0  0  0
   -2.2500   -7.5044    0.0000 C   0  0  0  0  0  0  0  0  0  0  0  0
   -1.0365   -6.6227    0.0000 C   0  0  0  0  0  0  0  0  0  0  0  0
   -1.5000   -5.1962    0.0000 C   0  0  0  0  0  0  0  0  0  0  0  0
   -0.7500   -3.8971    0.0000 C   0  0  0  0  0  0  0  0  0  0  0  0
    0.7500   -3.8971    0.0000 C   0  0  0  0  0  0  0  0  0  0  0  0
    1.5000   -2.5981    0.0000 C   0  0  0  0  0  0  0  0  0  0  0  0
    0.7500   -1.2990    0.0000 C   0  0  0  0  0  0  0  0  0  0  0  0
    1.5000    0.0000    0.0000 C   0  0  0  0  0  0  0  0  0  0  0  0
    0.7500    1.2990    0.0000 C   0  0  0  0  0  0  0  0  0  0  0  0
    1.5000    2.5981    0.0000 O   0  0  0  0  0  0  0  0  0  0  0  0
    3.0000    2.5981    0.0000 C   0  0  0  0  0  0  0  0  0  0  0  0
    3.7500    1.2990    0.0000 O   0  0  0  0  0  0  0  0  0  0  0  0
    3.7500    3.8971    0.0000 C   0  0  0  0  0  0  0  0  0  0  0  0
    5.2500    3.8971    0.0000 C   0  0  0  0  0  0  0  0  0  0  0  0
    6.0000    5.1962    0.0000 C   0  0  0  0  0  0  0  0  0  0  0  0
    5.2500    6.4952    0.0000 O   0  0  0  0  0  0  0  0  0  0  0  0
    7.5000    5.1962    0.0000 O   0  0  0  0  0  1  0  0  0  0  0  0
   -0.7500    1.2990    0.0000 C   0  0  0  0  0  0  0  0  0  0  0  0
   -1.5000    0.0000    0.0000 C   0  0  0  0  0  0  0  0  0  0  0  0
   -0.7500   -1.2990    0.0000 C   0  0  0  0  0  0  0  0  0  0  0  0
   -2.2500   -1.2990    0.0000 C   0  0  0  0  0  0  0  0  0  0  0  0
   -1.5000   -2.5981    0.0000 C   0  0  0  0  0  0  0  0  0  0  0  0
   -3.0000   -2.5981    0.0000 C   0  0  0  0  0  0  0  0  0  0  0  0
   -3.7500   -3.8971    0.0000 C   0  0  0  0  0  0  0  0  0  0  0  0
   -5.2500   -3.8971    0.0000 O   0  0  0  0  0  0  0  0  0  0  0  0
   -3.0000   -5.1962    0.0000 C   0  0  0  0  0  0  0  0  0  0  0  0
   -4.4918   -5.3529    0.0000 C   0  0  0  0  0  0  0  0  0  0  0  0
  2  1  1  6
  2  3  1  0
  3  4  1  0
  4  5  1  0
  5  6  2  0
  5  7  1  0
  2  8  1  0
  8  9  1  1
  9 10  1  0
 11 10  1  6
 11 12  1  0
 12 13  1  6
 13 14  1  0
 15 14  1  6
 15 16  1  0
 16 17  1  0
 17 18  1  1
 18 19  1  0
 19 20  2  0
 19 21  1  0
 21 22  1  0
 22 23  1  0
 23 24  2  0
 23 25  1  0
 17 26  1  0
 26 27  1  0
 27 28  1  0
 28 29  1  6
 28 30  1  0
 30 31  1  1
 31 32  1  0
 32 33  1  6
 32 34  1  0
 34 35  1  6
 34  8  1  0
 34 11  1  0
 30 12  1  0
 28 15  1  0
M  CHG  2   7  -1  25  -1
M  END
>  <Compound_ID>  (240) 
C37245946

>  <Active>  (240) 
0.0

>  <Smiles>  (240) 
C[C@H](CCC(=O)[O-])[C@@H]1CC[C@H]2[C@H]3CC[C@H]4C[C@H](OC(=O)CCC(=O)[O-])CC[C@]4(C)[C@@H]3C[C@@H](O)[C@@]21C

>  <canonical_smi>  (240) 
C[C@H](CCC(=O)[O-])[C@@H]1CC[C@H]2[C@H]3CC[C@H]4C[C@H](OC(=O)CCC(=O)[O-])CC[C@]4(C)[C@@H]3C[C@@H](O)[C@@]21C

>  <Set>  (240) 
G2 inactive

>  <Set_type>  (240) 
Test

>  <MW>  (240) 
490.64

>  <HBD>  (240) 
1

>  <HBA>  (240) 
7

>  <NRB>  (240) 
8

>  <NR>  (240) 
4

>  <NAR>  (240) 
0

>  <PSA>  (240) 
126.79

>  <Standard Type>  (240) 
nan

>  <Standard Relation>  (240) 
nan

>  <Standard Units>  (240) 
nan

>  <Standard Value>  (240) 
nan

>  <Assay ChEMBL ID>  (240) 
nan

>  <Assay Description>  (240) 
nan

>  <BAO Label>  (240) 
nan

$$$$

     RDKit          2D

 30 32  0  0  0  0  0  0  0  0999 V2000
    3.7500    1.2990    0.0000 O   0  0  0  0  0  0  0  0  0  0  0  0
    3.0000    0.0000    0.0000 C   0  0  0  0  0  0  0  0  0  0  0  0
    3.7500   -1.2990    0.0000 O   0  0  0  0  0  1  0  0  0  0  0  0
    1.5000    0.0000    0.0000 C   0  0  0  0  0  0  0  0  0  0  0  0
    0.7500   -1.2990    0.0000 C   0  0  0  0  0  0  0  0  0  0  0  0
   -0.7500   -1.2990    0.0000 C   0  0  0  0  0  0  0  0  0  0  0  0
   -1.5000    0.0000    0.0000 C   0  0  0  0  0  0  0  0  0  0  0  0
   -0.7500    1.2990    0.0000 C   0  0  0  0  0  0  0  0  0  0  0  0
   -1.5000    2.5981    0.0000 S   0  0  0  0  0  0  0  0  0  0  0  0
   -0.2010    3.3481    0.0000 O   0  0  0  0  0  0  0  0  0  0  0  0
   -2.7990    1.8481    0.0000 O   0  0  0  0  0  0  0  0  0  0  0  0
   -2.2500    3.8971    0.0000 N   0  0  0  0  0  0  0  0  0  0  0  0
   -3.7500    3.8971    0.0000 C   0  0  0  0  0  0  0  0  0  0  0  0
   -4.5000    5.1962    0.0000 C   0  0  0  0  0  0  0  0  0  0  0  0
   -6.0000    5.1962    0.0000 C   0  0  0  0  0  0  0  0  0  0  0  0
   -6.7500    3.8971    0.0000 C   0  0  0  0  0  0  0  0  0  0  0  0
   -6.0000    2.5981    0.0000 C   0  0  0  0  0  0  0  0  0  0  0  0
   -6.7500    1.2990    0.0000 S   0  0  0  0  0  0  0  0  0  0  0  0
   -8.0490    2.0490    0.0000 O   0  0  0  0  0  0  0  0  0  0  0  0
   -5.4510    0.5490    0.0000 O   0  0  0  0  0  0  0  0  0  0  0  0
   -7.5000   -0.0000    0.0000 N   0  0  0  0  0  2  0  0  0  0  0  0
   -6.7500   -1.2990    0.0000 C   0  0  0  0  0  0  0  0  0  0  0  0
   -7.5000   -2.5981    0.0000 C   0  0  0  0  0  0  0  0  0  0  0  0
   -6.7500   -3.8971    0.0000 C   0  0  0  0  0  0  0  0  0  0  0  0
   -5.2500   -3.8971    0.0000 C   0  0  0  0  0  0  0  0  0  0  0  0
   -4.5000   -5.1962    0.0000 Br  0  0  0  0  0  0  0  0  0  0  0  0
   -4.5000   -2.5981    0.0000 C   0  0  0  0  0  0  0  0  0  0  0  0
   -5.2500   -1.2990    0.0000 C   0  0  0  0  0  0  0  0  0  0  0  0
   -4.5000    2.5981    0.0000 C   0  0  0  0  0  0  0  0  0  0  0  0
    0.7500    1.2990    0.0000 C   0  0  0  0  0  0  0  0  0  0  0  0
  1  2  2  0
  2  3  1  0
  2  4  1  0
  4  5  2  0
  5  6  1  0
  6  7  2  0
  7  8  1  0
  8  9  1  0
  9 10  2  0
  9 11  2  0
  9 12  1  0
 12 13  1  0
 13 14  2  0
 14 15  1  0
 15 16  2  0
 16 17  1  0
 17 18  1  0
 18 19  2  0
 18 20  2  0
 18 21  1  0
 21 22  1  0
 22 23  2  0
 23 24  1  0
 24 25  2  0
 25 26  1  0
 25 27  1  0
 27 28  2  0
 17 29  2  0
  8 30  2  0
 30  4  1  0
 29 13  1  0
 28 22  1  0
M  CHG  2   3  -1  21  -1
M  END
>  <Compound_ID>  (241) 
C25392697

>  <Active>  (241) 
0.0

>  <Smiles>  (241) 
O=C([O-])c1cccc(S(=O)(=O)Nc2cccc(S(=O)(=O)[N-]c3ccc(Br)cc3)c2)c1

>  <canonical_smi>  (241) 
O=C([O-])c1cccc(S(=O)(=O)Nc2cccc(S(=O)(=O)[N-]c3ccc(Br)cc3)c2)c1

>  <Set>  (241) 
G2 inactive

>  <Set_type>  (241) 
Test

>  <MW>  (241) 
509.36

>  <HBD>  (241) 
1

>  <HBA>  (241) 
6

>  <NRB>  (241) 
7

>  <NR>  (241) 
3

>  <NAR>  (241) 
3

>  <PSA>  (241) 
134.54

>  <Standard Type>  (241) 
nan

>  <Standard Relation>  (241) 
nan

>  <Standard Units>  (241) 
nan

>  <Standard Value>  (241) 
nan

>  <Assay ChEMBL ID>  (241) 
nan

>  <Assay Description>  (241) 
nan

>  <BAO Label>  (241) 
nan

$$$$

     RDKit          2D

 32 35  0  0  0  0  0  0  0  0999 V2000
    5.0260   -1.2990    0.0000 C   0  0  0  0  0  0  0  0  0  0  0  0
    3.5260   -1.2990    0.0000 C   0  0  0  0  0  0  0  0  0  0  0  0
    2.7760    0.0000    0.0000 S   0  0  0  0  0  0  0  0  0  0  0  0
    1.2760    0.0000    0.0000 C   0  0  0  0  0  0  0  0  0  0  0  0
    0.3943    1.2135    0.0000 N   0  0  0  0  0  0  0  0  0  0  0  0
   -1.0323    0.7500    0.0000 C   0  0  0  0  0  0  0  0  0  0  0  0
   -1.0323   -0.7500    0.0000 N   0  0  0  0  0  0  0  0  0  0  0  0
    0.3943   -1.2135    0.0000 N   0  0  0  0  0  0  0  0  0  0  0  0
   -2.3313   -1.5000    0.0000 C   0  0  0  0  0  0  0  0  0  0  0  0
   -2.3313   -3.0000    0.0000 C   0  0  0  0  0  0  0  0  0  0  0  0
   -3.6304   -3.7500    0.0000 C   0  0  0  0  0  0  0  0  0  0  0  0
   -3.6304   -5.2500    0.0000 C   0  0  0  0  0  0  0  0  0  0  0  0
   -2.3313   -6.0000    0.0000 C   0  0  0  0  0  0  0  0  0  0  0  0
   -2.3313   -7.5000    0.0000 C   0  0  0  0  0  0  0  0  0  0  0  0
   -1.0323   -8.2500    0.0000 O   0  0  0  0  0  0  0  0  0  0  0  0
   -3.6304   -8.2500    0.0000 O   0  0  0  0  0  1  0  0  0  0  0  0
   -1.0323   -5.2500    0.0000 C   0  0  0  0  0  0  0  0  0  0  0  0
   -1.0323   -3.7500    0.0000 C   0  0  0  0  0  0  0  0  0  0  0  0
   -3.6304   -0.7500    0.0000 C   0  0  0  0  0  0  0  0  0  0  0  0
   -4.9294   -1.5000    0.0000 C   0  0  0  0  0  0  0  0  0  0  0  0
   -4.9294   -3.0000    0.0000 O   0  0  0  0  0  0  0  0  0  0  0  0
   -6.2284   -0.7500    0.0000 N   0  0  0  0  0  0  0  0  0  0  0  0
   -7.5275   -1.5000    0.0000 C   0  0  0  0  0  0  0  0  0  0  0  0
   -8.8265   -0.7500    0.0000 C   0  0  0  0  0  0  0  0  0  0  0  0
  -10.1256   -1.5000    0.0000 C   0  0  0  0  0  0  0  0  0  0  0  0
  -10.1256   -3.0000    0.0000 C   0  0  0  0  0  0  0  0  0  0  0  0
   -8.8265   -3.7500    0.0000 C   0  0  0  0  0  0  0  0  0  0  0  0
   -7.5275   -3.0000    0.0000 C   0  0  0  0  0  0  0  0  0  0  0  0
   -6.2284   -3.7500    0.0000 C   0  0  0  0  0  0  0  0  0  0  0  0
   -3.6304    0.7500    0.0000 C   0  0  0  0  0  0  0  0  0  0  0  0
   -4.9294    1.5000    0.0000 C   0  0  0  0  0  0  0  0  0  0  0  0
   -2.3313    1.5000    0.0000 N   0  0  0  0  0  0  0  0  0  0  0  0
  1  2  1  0
  2  3  1  0
  3  4  1  0
  4  5  1  0
  5  6  2  0
  6  7  1  0
  7  8  1  0
  7  9  1  0
  9 10  1  1
 10 11  2  0
 11 12  1  0
 12 13  2  0
 13 14  1  0
 14 15  2  0
 14 16  1  0
 13 17  1  0
 17 18  2  0
  9 19  1  0
 19 20  1  0
 20 21  2  0
 20 22  1  0
 22 23  1  0
 23 24  2  0
 24 25  1  0
 25 26  2  0
 26 27  1  0
 27 28  2  0
 28 29  1  0
 19 30  2  0
 30 31  1  0
 30 32  1  0
  8  4  2  0
 18 10  1  0
 28 23  1  0
 32  6  1  0
M  CHG  1  16  -1
M  END
>  <Compound_ID>  (242) 
C08607241

>  <Active>  (242) 
0.0

>  <Smiles>  (242) 
CCSc1nc2n(n1)[C@@H](c1ccc(C(=O)[O-])cc1)C(C(=O)Nc1ccccc1C)=C(C)N2

>  <canonical_smi>  (242) 
CCSc1nc2n(n1)[C@@H](c1ccc(C(=O)[O-])cc1)C(C(=O)Nc1ccccc1C)=C(C)N2

>  <Set>  (242) 
G2 inactive

>  <Set_type>  (242) 
Test

>  <MW>  (242) 
448.53

>  <HBD>  (242) 
2

>  <HBA>  (242) 
7

>  <NRB>  (242) 
6

>  <NR>  (242) 
4

>  <NAR>  (242) 
3

>  <PSA>  (242) 
111.97

>  <Standard Type>  (242) 
nan

>  <Standard Relation>  (242) 
nan

>  <Standard Units>  (242) 
nan

>  <Standard Value>  (242) 
nan

>  <Assay ChEMBL ID>  (242) 
nan

>  <Assay Description>  (242) 
nan

>  <BAO Label>  (242) 
nan

$$$$

     RDKit          2D

 31 36  0  0  0  0  0  0  0  0999 V2000
   -7.9721   -5.7008    0.0000 C   0  0  0  0  0  0  0  0  0  0  0  0
   -6.6731   -6.4508    0.0000 S   0  0  0  0  0  0  0  0  0  0  0  0
   -5.3740   -5.7008    0.0000 C   0  0  0  0  0  0  0  0  0  0  0  0
   -5.2172   -4.2090    0.0000 N   0  0  0  0  0  0  0  0  0  0  0  0
   -3.7500   -3.8971    0.0000 C   0  0  0  0  0  0  0  0  0  0  0  0
   -3.0000   -2.5981    0.0000 N   0  0  0  0  0  4  0  0  0  0  0  0
   -1.5000   -2.5981    0.0000 C   0  0  0  0  0  0  0  0  0  0  0  0
   -0.7500   -3.8971    0.0000 C   0  0  0  0  0  0  0  0  0  0  0  0
    0.7500   -3.8971    0.0000 C   0  0  0  0  0  0  0  0  0  0  0  0
    1.5000   -5.1962    0.0000 C   0  0  0  0  0  0  0  0  0  0  0  0
    0.8899   -6.5665    0.0000 C   0  0  0  0  0  0  0  0  0  0  0  0
    2.0046   -7.5702    0.0000 C   0  0  0  0  0  0  0  0  0  0  0  0
    3.3037   -6.8202    0.0000 C   0  0  0  0  0  0  0  0  0  0  0  0
    2.9918   -5.3529    0.0000 S   0  0  0  0  0  0  0  0  0  0  0  0
    1.5000   -2.5981    0.0000 O   0  0  0  0  0  0  0  0  0  0  0  0
    0.7500   -1.2990    0.0000 C   0  0  0  0  0  0  0  0  0  0  0  0
    1.5000    0.0000    0.0000 C   0  0  0  0  0  0  0  0  0  0  0  0
    0.7500    1.2990    0.0000 C   0  0  0  0  0  0  0  0  0  0  0  0
   -0.7500    1.2990    0.0000 C   0  0  0  0  0  0  0  0  0  0  0  0
   -1.5000    0.0000    0.0000 C   0  0  0  0  0  0  0  0  0  0  0  0
   -0.7500   -1.2990    0.0000 C   0  0  0  0  0  0  0  0  0  0  0  0
   -1.5000   -5.1962    0.0000 C   0  0  0  0  0  0  0  0  0  0  0  0
   -0.7500   -6.4952    0.0000 C   0  0  0  0  0  0  0  0  0  0  0  0
    0.7500   -6.4952    0.0000 C   0  0  0  0  0  0  0  0  0  0  0  0
    1.5000   -7.7942    0.0000 C   0  0  0  0  0  0  0  0  0  0  0  0
    0.7500   -9.0933    0.0000 C   0  0  0  0  0  0  0  0  0  0  0  0
    1.5000  -10.3923    0.0000 Br  0  0  0  0  0  0  0  0  0  0  0  0
   -0.7500   -9.0933    0.0000 C   0  0  0  0  0  0  0  0  0  0  0  0
   -1.5000   -7.7942    0.0000 C   0  0  0  0  0  0  0  0  0  0  0  0
   -3.0000   -5.1962    0.0000 N   0  0  0  0  0  0  0  0  0  0  0  0
   -4.0037   -6.3109    0.0000 N   0  0  0  0  0  0  0  0  0  0  0  0
  1  2  1  0
  2  3  1  0
  3  4  2  0
  4  5  1  0
  5  6  2  0
  6  7  1  0
  7  8  2  0
  8  9  1  0
  9 10  1  1
 10 11  2  0
 11 12  1  0
 12 13  2  0
 13 14  1  0
  9 15  1  0
 15 16  1  0
 16 17  2  0
 17 18  1  0
 18 19  2  0
 19 20  1  0
 20 21  2  0
  8 22  1  0
 22 23  1  6
 23 24  2  0
 24 25  1  0
 25 26  2  0
 26 27  1  0
 26 28  1  0
 28 29  2  0
 22 30  1  0
 30 31  1  0
 31  3  1  0
 30  5  1  0
 21  7  1  0
 29 23  1  0
 14 10  1  0
 21 16  1  0
M  CHG  1   6   1
M  END
>  <Compound_ID>  (243) 
C02253808

>  <Active>  (243) 
0.0

>  <Smiles>  (243) 
CSC1=NC2=[NH+]C3=C([C@H](c4cccs4)Oc4ccccc43)[C@H](c3ccc(Br)cc3)N2N1

>  <canonical_smi>  (243) 
CSC1=NC2=[NH+]C3=C([C@H](c4ccc(Br)cc4)N2N1)[C@H](c1cccs1)Oc1ccccc13

>  <Set>  (243) 
G2 inactive

>  <Set_type>  (243) 
Test

>  <MW>  (243) 
510.46

>  <HBD>  (243) 
2

>  <HBA>  (243) 
4

>  <NRB>  (243) 
2

>  <NR>  (243) 
6

>  <NAR>  (243) 
3

>  <PSA>  (243) 
50.83

>  <Standard Type>  (243) 
nan

>  <Standard Relation>  (243) 
nan

>  <Standard Units>  (243) 
nan

>  <Standard Value>  (243) 
nan

>  <Assay ChEMBL ID>  (243) 
nan

>  <Assay Description>  (243) 
nan

>  <BAO Label>  (243) 
nan

$$$$

     RDKit          2D

 31 36  0  0  0  0  0  0  0  0999 V2000
    4.7779    9.2179    0.0000 C   0  0  0  0  0  0  0  0  0  0  0  0
    4.1678   10.5882    0.0000 C   0  0  0  0  0  0  0  0  0  0  0  0
    2.8687    9.8382    0.0000 C   0  0  0  0  0  0  0  0  0  0  0  0
    1.4984   10.4483    0.0000 C   0  0  0  0  0  0  0  0  0  0  0  0
    0.4947    9.3336    0.0000 C   0  0  0  0  0  0  0  0  0  0  0  0
    1.2447    8.0346    0.0000 C   0  0  0  0  0  0  0  0  0  0  0  0
    0.7812    6.6080    0.0000 C   0  0  0  0  0  0  0  0  0  0  0  0
   -0.6860    6.2961    0.0000 C   0  0  0  0  0  0  0  0  0  0  0  0
   -1.1496    4.8695    0.0000 C   0  0  0  0  0  0  0  0  0  0  0  0
   -0.1459    3.7548    0.0000 C   0  0  0  0  0  0  0  0  0  0  0  0
   -0.6094    2.3282    0.0000 C   0  0  0  0  0  0  0  0  0  0  0  0
    0.3943    1.2135    0.0000 C   0  0  0  0  0  0  0  0  0  0  0  0
    1.8615    1.5254    0.0000 C   0  0  0  0  0  0  0  0  0  0  0  0
    2.3250    2.9520    0.0000 C   0  0  0  0  0  0  0  0  0  0  0  0
    1.3213    4.0667    0.0000 C   0  0  0  0  0  0  0  0  0  0  0  0
    2.7886    4.3786    0.0000 C   0  0  0  0  0  0  0  0  0  0  0  0
    1.7849    5.4933    0.0000 C   0  0  0  0  0  0  0  0  0  0  0  0
    3.2521    5.8051    0.0000 C   0  0  0  0  0  0  0  0  0  0  0  0
    4.2558    4.6904    0.0000 O   0  0  0  0  0  0  0  0  0  0  0  0
    3.7156    7.2317    0.0000 C   0  0  0  0  0  0  0  0  0  0  0  0
    2.7119    8.3464    0.0000 C   0  0  0  0  0  0  0  0  0  0  0  0
    4.1385    8.8100    0.0000 C   0  0  0  0  0  0  0  0  0  0  0  0
    5.2532    7.8063    0.0000 O   0  0  0  0  0  0  0  0  0  0  0  0
    1.2760    0.0000    0.0000 O   0  0  0  0  0  0  0  0  0  0  0  0
    0.3943   -1.2135    0.0000 C   0  0  0  0  0  0  0  0  0  0  0  0
   -1.0323   -0.7500    0.0000 C   0  0  0  0  0  0  0  0  0  0  0  0
   -1.0323    0.7500    0.0000 O   0  0  0  0  0  0  0  0  0  0  0  0
    5.5943   11.0518    0.0000 O   0  0  0  0  0  0  0  0  0  0  0  0
    5.5943   12.5518    0.0000 C   0  0  0  0  0  0  0  0  0  0  0  0
    4.1678   13.0153    0.0000 C   0  0  0  0  0  0  0  0  0  0  0  0
    3.2861   11.8018    0.0000 O   0  0  0  0  0  0  0  0  0  0  0  0
  1  2  1  0
  3  2  1  1
  3  4  1  0
  4  5  1  0
  6  5  1  6
  6  7  1  0
  7  8  1  1
  8  9  1  0
 10  9  1  1
 10 11  1  0
 11 12  1  0
 12 13  1  0
 13 14  1  0
 14 15  1  0
 15 16  1  1
 15 17  1  0
 17 18  1  1
 18 19  1  6
 18 20  1  0
 20 21  1  0
 21 22  1  6
 22 23  1  0
 12 24  1  0
 24 25  1  0
 25 26  1  0
 26 27  1  0
  2 28  1  0
 28 29  1  0
 29 30  1  0
 30 31  1  0
 31  2  1  0
 21  3  1  0
 21  6  1  0
 17  7  1  0
 15 10  1  0
 27 12  1  0
M  END
>  <Compound_ID>  (244) 
C16031025

>  <Active>  (244) 
0.0

>  <Smiles>  (244) 
CC1([C@@H]2CC[C@H]3[C@@H]4CC[C@@H]5CC6(CC[C@@]5(C)[C@@H]4[C@@H](O)C[C@@]32CO)OCCO6)OCCO1

>  <canonical_smi>  (244) 
CC1([C@@H]2CC[C@H]3[C@@H]4CC[C@@H]5CC6(CC[C@@]5(C)[C@@H]4[C@@H](O)C[C@@]32CO)OCCO6)OCCO1

>  <Set>  (244) 
G2 inactive

>  <Set_type>  (244) 
Test

>  <MW>  (244) 
436.59

>  <HBD>  (244) 
2

>  <HBA>  (244) 
6

>  <NRB>  (244) 
2

>  <NR>  (244) 
6

>  <NAR>  (244) 
0

>  <PSA>  (244) 
77.38

>  <Standard Type>  (244) 
nan

>  <Standard Relation>  (244) 
nan

>  <Standard Units>  (244) 
nan

>  <Standard Value>  (244) 
nan

>  <Assay ChEMBL ID>  (244) 
nan

>  <Assay Description>  (244) 
nan

>  <BAO Label>  (244) 
nan

$$$$

     RDKit          2D

 34 38  0  0  0  0  0  0  0  0999 V2000
    4.5405  -10.1176    0.0000 C   0  0  0  0  0  0  0  0  0  0  0  0
    4.6973   -8.6258    0.0000 O   0  0  0  0  0  0  0  0  0  0  0  0
    3.4838   -7.7441    0.0000 C   0  0  0  0  0  0  0  0  0  0  0  0
    2.1135   -8.3542    0.0000 C   0  0  0  0  0  0  0  0  0  0  0  0
    0.8999   -7.4725    0.0000 C   0  0  0  0  0  0  0  0  0  0  0  0
    1.0567   -5.9808    0.0000 C   0  0  0  0  0  0  0  0  0  0  0  0
   -0.1568   -5.0991    0.0000 C   0  0  0  0  0  0  0  0  0  0  0  0
   -0.0000   -3.6073    0.0000 C   0  0  0  0  0  0  0  0  0  0  0  0
    1.2135   -2.7256    0.0000 N   0  0  0  0  0  4  0  0  0  0  0  0
    0.7500   -1.2990    0.0000 C   0  0  0  0  0  0  0  0  0  0  0  0
    1.5000    0.0000    0.0000 C   0  0  0  0  0  0  0  0  0  0  0  0
    0.7500    1.2990    0.0000 C   0  0  0  0  0  0  0  0  0  0  0  0
   -0.7500    1.2990    0.0000 C   0  0  0  0  0  0  0  0  0  0  0  0
   -1.5000    2.5981    0.0000 Cl  0  0  0  0  0  0  0  0  0  0  0  0
   -1.5000    0.0000    0.0000 C   0  0  0  0  0  0  0  0  0  0  0  0
   -0.7500   -1.2990    0.0000 C   0  0  0  0  0  0  0  0  0  0  0  0
   -1.2135   -2.7256    0.0000 C   0  0  0  0  0  0  0  0  0  0  0  0
   -2.5838   -3.3357    0.0000 C   0  0  0  0  0  0  0  0  0  0  0  0
   -2.7406   -4.8275    0.0000 C   0  0  0  0  0  0  0  0  0  0  0  0
   -1.5271   -5.7092    0.0000 N   0  0  0  0  0  0  0  0  0  0  0  0
   -1.6839   -7.2010    0.0000 C   0  0  0  0  0  0  0  0  0  0  0  0
   -0.4704   -8.0826    0.0000 O   0  0  0  0  0  0  0  0  0  0  0  0
   -3.0542   -7.8111    0.0000 N   0  0  0  0  0  0  0  0  0  0  0  0
   -3.2110   -9.3029    0.0000 C   0  0  0  0  0  0  0  0  0  0  0  0
   -4.5813   -9.9130    0.0000 C   0  0  0  0  0  0  0  0  0  0  0  0
   -4.7381  -11.4047    0.0000 C   0  0  0  0  0  0  0  0  0  0  0  0
   -6.1084  -12.0149    0.0000 C   0  0  0  0  0  0  0  0  0  0  0  0
   -3.5246  -12.2864    0.0000 C   0  0  0  0  0  0  0  0  0  0  0  0
   -2.1543  -11.6763    0.0000 C   0  0  0  0  0  0  0  0  0  0  0  0
   -1.9975  -10.1845    0.0000 C   0  0  0  0  0  0  0  0  0  0  0  0
   -0.6272   -9.5744    0.0000 O   0  0  0  0  0  0  0  0  0  0  0  0
    0.5864  -10.4561    0.0000 C   0  0  0  0  0  0  0  0  0  0  0  0
    2.4271   -5.3707    0.0000 C   0  0  0  0  0  0  0  0  0  0  0  0
    3.6406   -6.2523    0.0000 C   0  0  0  0  0  0  0  0  0  0  0  0
  1  2  1  0
  2  3  1  0
  3  4  2  0
  4  5  1  0
  5  6  2  0
  7  6  1  6
  7  8  1  0
  8  9  1  6
  9 10  2  0
 10 11  1  0
 11 12  2  0
 12 13  1  0
 13 14  1  0
 13 15  2  0
 15 16  1  0
 16 17  2  0
 17 18  1  0
 18 19  1  0
 19 20  1  0
 20 21  1  0
 21 22  2  0
 21 23  1  0
 23 24  1  0
 24 25  2  0
 25 26  1  0
 26 27  1  0
 26 28  2  0
 28 29  1  0
 29 30  2  0
 30 31  1  0
 31 32  1  0
  6 33  1  0
 33 34  2  0
 34  3  1  0
 20  7  1  0
 30 24  1  0
 17  8  1  0
 16 10  1  0
M  CHG  1   9   1
M  END
>  <Compound_ID>  (245) 
C63572225

>  <Active>  (245) 
0.0

>  <Smiles>  (245) 
COc1ccc([C@H]2[C@H]3[NH+]=c4ccc(Cl)cc4=C3CCN2C(=O)Nc2cc(C)ccc2OC)cc1

>  <canonical_smi>  (245) 
COc1ccc([C@H]2[C@H]3[NH+]=c4ccc(Cl)cc4=C3CCN2C(=O)Nc2cc(C)ccc2OC)cc1

>  <Set>  (245) 
G2 inactive

>  <Set_type>  (245) 
Test

>  <MW>  (245) 
476.98

>  <HBD>  (245) 
2

>  <HBA>  (245) 
3

>  <NRB>  (245) 
4

>  <NR>  (245) 
5

>  <NAR>  (245) 
3

>  <PSA>  (245) 
64.77

>  <Standard Type>  (245) 
nan

>  <Standard Relation>  (245) 
nan

>  <Standard Units>  (245) 
nan

>  <Standard Value>  (245) 
nan

>  <Assay ChEMBL ID>  (245) 
nan

>  <Assay Description>  (245) 
nan

>  <BAO Label>  (245) 
nan

$$$$

     RDKit          2D

 21 23  0  0  0  0  0  0  0  0999 V2000
   -7.9140    1.9635    0.0000 O   0  0  0  0  0  0  0  0  0  0  0  0
   -7.9140    0.4635    0.0000 S   0  0  0  0  0  0  0  0  0  0  0  0
   -7.9140   -1.0365    0.0000 O   0  0  0  0  0  0  0  0  0  0  0  0
   -9.4140    0.4635    0.0000 O   0  0  0  0  0  0  0  0  0  0  0  0
  -10.1640   -0.8355    0.0000 C   0  0  0  0  0  0  0  0  0  0  0  0
  -10.9140   -2.1346    0.0000 F   0  0  0  0  0  0  0  0  0  0  0  0
  -11.4630   -0.0855    0.0000 F   0  0  0  0  0  0  0  0  0  0  0  0
   -8.8649   -1.5855    0.0000 F   0  0  0  0  0  0  0  0  0  0  0  0
   -6.4140    0.4635    0.0000 C   0  0  0  0  0  0  0  0  0  0  0  0
   -5.6640    1.7626    0.0000 C   0  0  0  0  0  0  0  0  0  0  0  0
   -4.1640    1.7626    0.0000 C   0  0  0  0  0  0  0  0  0  0  0  0
   -3.4140    0.4635    0.0000 C   0  0  0  0  0  0  0  0  0  0  0  0
   -1.9140    0.4635    0.0000 C   0  0  0  0  0  0  0  0  0  0  0  0
   -1.0323    1.6771    0.0000 C   0  0  0  0  0  0  0  0  0  0  0  0
    0.3943    1.2135    0.0000 C   0  0  0  0  0  0  0  0  0  0  0  0
    1.2760    0.0000    0.0000 C   0  0  0  0  0  0  0  0  0  0  0  0
    0.3943   -1.2135    0.0000 C   0  0  0  0  0  0  0  0  0  0  0  0
   -1.0323   -0.7500    0.0000 C   0  0  0  0  0  0  0  0  0  0  0  0
   -1.0323    0.7500    0.0000 N   0  0  0  0  0  4  0  0  0  0  0  0
   -4.1640   -0.8355    0.0000 C   0  0  0  0  0  0  0  0  0  0  0  0
   -5.6640   -0.8355    0.0000 N   0  0  0  0  0  4  0  0  0  0  0  0
  1  2  2  0
  2  3  2  0
  2  4  1  0
  4  5  1  0
  5  6  1  0
  5  7  1  0
  5  8  1  0
  2  9  1  0
  9 10  2  0
 10 11  1  0
 11 12  2  0
 13 12  1  1
 13 14  1  0
 15 14  1  1
 15 16  1  0
 16 17  1  0
 18 17  1  1
 18 19  1  0
 12 20  1  0
 20 21  2  0
 21  9  1  0
 18 13  1  0
 19 15  1  0
M  CHG  2  19   1  21   1
M  END
>  <Compound_ID>  (246) 
C29554064

>  <Active>  (246) 
0.0

>  <Smiles>  (246) 
O=S(=O)(OC(F)(F)F)c1ccc([C@H]2C[C@H]3CC[C@@H]2[NH2+]3)c[nH+]1

>  <canonical_smi>  (246) 
O=S(=O)(OC(F)(F)F)c1ccc([C@H]2C[C@H]3CC[C@@H]2[NH2+]3)c[nH+]1

>  <Set>  (246) 
G2 inactive

>  <Set_type>  (246) 
Test

>  <MW>  (246) 
324.32

>  <HBD>  (246) 
1

>  <HBA>  (246) 
3

>  <NRB>  (246) 
3

>  <NR>  (246) 
3

>  <NAR>  (246) 
1

>  <PSA>  (246) 
74.12

>  <Standard Type>  (246) 
nan

>  <Standard Relation>  (246) 
nan

>  <Standard Units>  (246) 
nan

>  <Standard Value>  (246) 
nan

>  <Assay ChEMBL ID>  (246) 
nan

>  <Assay Description>  (246) 
nan

>  <BAO Label>  (246) 
nan

$$$$

     RDKit          2D

 28 31  0  0  0  0  0  0  0  0999 V2000
    3.0000    0.0000    0.0000 C   0  0  0  0  0  0  0  0  0  0  0  0
    1.5000    0.0000    0.0000 C   0  0  0  0  0  0  0  0  0  0  0  0
    0.7500   -1.2990    0.0000 C   0  0  0  0  0  0  0  0  0  0  0  0
   -0.7500   -1.2990    0.0000 C   0  0  0  0  0  0  0  0  0  0  0  0
   -1.5000    0.0000    0.0000 C   0  0  0  0  0  0  0  0  0  0  0  0
   -3.0000    0.0000    0.0000 C   0  0  0  0  0  0  0  0  0  0  0  0
   -2.7395   -1.4772    0.0000 C   0  0  0  0  0  0  0  0  0  0  0  0
   -3.8886   -2.4414    0.0000 N   0  0  0  0  0  4  0  0  0  0  0  0
   -5.2981   -1.9284    0.0000 C   0  0  0  0  0  0  0  0  0  0  0  0
   -6.4472   -2.8925    0.0000 C   0  0  0  0  0  0  0  0  0  0  0  0
   -6.1867   -4.3698    0.0000 C   0  0  0  0  0  0  0  0  0  0  0  0
   -4.7772   -4.8828    0.0000 C   0  0  0  0  0  0  0  0  0  0  0  0
   -4.5167   -6.3600    0.0000 C   0  0  0  0  0  0  0  0  0  0  0  0
   -3.1685   -7.0176    0.0000 N   0  0  0  0  0  0  0  0  0  0  0  0
   -3.3773   -8.5030    0.0000 C   0  0  0  0  0  0  0  0  0  0  0  0
   -2.2983   -9.5449    0.0000 C   0  0  0  0  0  0  0  0  0  0  0  0
   -2.6612  -11.0004    0.0000 C   0  0  0  0  0  0  0  0  0  0  0  0
   -0.8564   -9.1315    0.0000 C   0  0  0  0  0  0  0  0  0  0  0  0
   -4.8545   -8.7634    0.0000 N   0  0  0  0  0  0  0  0  0  0  0  0
   -5.5587   -7.4390    0.0000 O   0  0  0  0  0  0  0  0  0  0  0  0
   -3.6281   -3.9186    0.0000 C   0  0  0  0  0  0  0  0  0  0  0  0
   -2.7395    1.4772    0.0000 C   0  0  0  0  0  0  0  0  0  0  0  0
   -3.8886    2.4414    0.0000 C   0  0  0  0  0  0  0  0  0  0  0  0
   -5.2981    1.9284    0.0000 N   0  0  0  0  0  4  0  0  0  0  0  0
   -5.5586    0.4512    0.0000 C   0  0  0  0  0  0  0  0  0  0  0  0
   -4.4095   -0.5130    0.0000 C   0  0  0  0  0  0  0  0  0  0  0  0
   -0.7500    1.2990    0.0000 N   0  0  0  0  0  0  0  0  0  0  0  0
    0.7500    1.2990    0.0000 C   0  0  0  0  0  0  0  0  0  0  0  0
  1  2  1  0
  2  3  2  0
  3  4  1  0
  4  5  2  0
  5  6  1  0
  6  7  1  0
  7  8  1  0
  8  9  1  0
  9 10  1  0
 10 11  1  0
 11 12  1  0
 12 13  1  6
 13 14  2  0
 14 15  1  0
 15 16  1  0
 16 17  1  0
 16 18  1  0
 15 19  2  0
 19 20  1  0
 12 21  1  0
  6 22  1  0
 22 23  1  0
 23 24  1  0
 24 25  1  0
 25 26  1  0
  5 27  1  0
 27 28  2  0
 28  2  1  0
 26  6  1  0
 21  8  1  0
 20 13  1  0
M  CHG  2   8   1  24   1
M  END
>  <Compound_ID>  (247) 
C65525851

>  <Active>  (247) 
0.0

>  <Smiles>  (247) 
Cc1ccc(C2(C[NH+]3CCC[C@@H](c4nc(C(C)C)no4)C3)CC[NH2+]CC2)nc1

>  <canonical_smi>  (247) 
Cc1ccc(C2(C[NH+]3CCC[C@@H](c4nc(C(C)C)no4)C3)CC[NH2+]CC2)nc1

>  <Set>  (247) 
G2 inactive

>  <Set_type>  (247) 
Test

>  <MW>  (247) 
385.56

>  <HBD>  (247) 
2

>  <HBA>  (247) 
4

>  <NRB>  (247) 
5

>  <NR>  (247) 
4

>  <NAR>  (247) 
2

>  <PSA>  (247) 
72.86

>  <Standard Type>  (247) 
nan

>  <Standard Relation>  (247) 
nan

>  <Standard Units>  (247) 
nan

>  <Standard Value>  (247) 
nan

>  <Assay ChEMBL ID>  (247) 
nan

>  <Assay Description>  (247) 
nan

>  <BAO Label>  (247) 
nan

$$$$

     RDKit          2D

 29 32  0  0  0  0  0  0  0  0999 V2000
    3.7500   -1.2990    0.0000 C   0  0  0  0  0  0  0  0  0  0  0  0
    3.0000    0.0000    0.0000 C   0  0  0  0  0  0  0  0  0  0  0  0
    3.7500    1.2990    0.0000 O   0  0  0  0  0  0  0  0  0  0  0  0
    1.5000    0.0000    0.0000 N   0  0  0  0  0  0  0  0  0  0  0  0
    0.7500   -1.2990    0.0000 C   0  0  0  0  0  0  0  0  0  0  0  0
   -0.7500   -1.2990    0.0000 C   0  0  0  0  0  0  0  0  0  0  0  0
   -1.5000    0.0000    0.0000 C   0  0  0  0  0  0  0  0  0  0  0  0
   -3.0000    0.0000    0.0000 O   0  0  0  0  0  0  0  0  0  0  0  0
   -3.7500   -1.2990    0.0000 C   0  0  0  0  0  0  0  0  0  0  0  0
   -5.2500   -1.2990    0.0000 N   0  0  0  0  0  0  0  0  0  0  0  0
   -3.0000   -2.5981    0.0000 C   0  0  0  0  0  0  0  0  0  0  0  0
   -3.7500   -3.8971    0.0000 C   0  0  0  0  0  0  0  0  0  0  0  0
   -4.5000   -5.1962    0.0000 N   0  0  0  0  0  0  0  0  0  0  0  0
   -1.5000   -2.5981    0.0000 C   0  0  0  0  0  0  0  0  0  0  0  0
   -0.7500   -3.8971    0.0000 C   0  0  0  0  0  0  0  0  0  0  0  0
   -1.5000   -5.1962    0.0000 C   0  0  0  0  0  0  0  0  0  0  0  0
   -0.7500   -6.4952    0.0000 C   0  0  0  0  0  0  0  0  0  0  0  0
    0.7500   -6.4952    0.0000 C   0  0  0  0  0  0  0  0  0  0  0  0
    1.5000   -5.1962    0.0000 C   0  0  0  0  0  0  0  0  0  0  0  0
    0.7500   -3.8971    0.0000 C   0  0  0  0  0  0  0  0  0  0  0  0
   -0.7500    1.2990    0.0000 C   0  0  0  0  0  0  0  0  0  0  0  0
   -1.5000    2.5981    0.0000 C   0  0  0  0  0  0  0  0  0  0  0  0
   -0.7500    3.8971    0.0000 C   0  0  0  0  0  0  0  0  0  0  0  0
    0.7500    3.8971    0.0000 C   0  0  0  0  0  0  0  0  0  0  0  0
    1.5000    5.1962    0.0000 C   0  0  0  0  0  0  0  0  0  0  0  0
    0.7500    6.4952    0.0000 C   0  0  0  0  0  0  0  0  0  0  0  0
   -0.7500    6.4952    0.0000 C   0  0  0  0  0  0  0  0  0  0  0  0
   -1.5000    5.1962    0.0000 C   0  0  0  0  0  0  0  0  0  0  0  0
    0.7500    1.2990    0.0000 C   0  0  0  0  0  0  0  0  0  0  0  0
  1  2  1  0
  2  3  2  0
  2  4  1  0
  4  5  1  0
  5  6  1  0
  6  7  2  0
  7  8  1  0
  8  9  1  0
  9 10  1  0
  9 11  2  0
 11 12  1  0
 12 13  3  0
 11 14  1  0
 14 15  1  1
 15 16  2  0
 16 17  1  0
 17 18  2  0
 18 19  1  0
 19 20  2  0
  7 21  1  0
 21 22  2  0
 22 23  1  0
 23 24  2  0
 24 25  1  0
 25 26  2  0
 26 27  1  0
 27 28  2  0
 21 29  1  0
 29  4  1  0
 14  6  1  0
 20 15  1  0
 28 23  1  0
M  END
>  <Compound_ID>  (248) 
C39324550

>  <Active>  (248) 
0.0

>  <Smiles>  (248) 
CC(=O)N1CC2=C(OC(N)=C(C#N)[C@@H]2c2ccccc2)/C(=C/c2ccccc2)C1

>  <canonical_smi>  (248) 
CC(=O)N1CC2=C(OC(N)=C(C#N)[C@@H]2c2ccccc2)/C(=C/c2ccccc2)C1

>  <Set>  (248) 
G2 inactive

>  <Set_type>  (248) 
Test

>  <MW>  (248) 
383.45

>  <HBD>  (248) 
1

>  <HBA>  (248) 
4

>  <NRB>  (248) 
2

>  <NR>  (248) 
4

>  <NAR>  (248) 
2

>  <PSA>  (248) 
79.35

>  <Standard Type>  (248) 
nan

>  <Standard Relation>  (248) 
nan

>  <Standard Units>  (248) 
nan

>  <Standard Value>  (248) 
nan

>  <Assay ChEMBL ID>  (248) 
nan

>  <Assay Description>  (248) 
nan

>  <BAO Label>  (248) 
nan

$$$$

     RDKit          2D

 27 30  0  0  0  0  0  0  0  0999 V2000
   -7.8533   -0.1004    0.0000 C   0  0  0  0  0  0  0  0  0  0  0  0
   -6.4268    0.3631    0.0000 C   0  0  0  0  0  0  0  0  0  0  0  0
   -6.1149    1.8303    0.0000 C   0  0  0  0  0  0  0  0  0  0  0  0
   -4.6883    2.2939    0.0000 C   0  0  0  0  0  0  0  0  0  0  0  0
   -4.3764    3.7611    0.0000 C   0  0  0  0  0  0  0  0  0  0  0  0
   -3.5736    1.2902    0.0000 C   0  0  0  0  0  0  0  0  0  0  0  0
   -2.1470    1.7537    0.0000 C   0  0  0  0  0  0  0  0  0  0  0  0
   -1.8351    3.2209    0.0000 N   0  0  0  0  0  0  0  0  0  0  0  0
   -0.4086    3.6844    0.0000 C   0  0  0  0  0  0  0  0  0  0  0  0
   -0.0967    5.1517    0.0000 C   0  0  0  0  0  0  0  0  0  0  0  0
    1.3299    5.6152    0.0000 C   0  0  0  0  0  0  0  0  0  0  0  0
    2.4446    4.6115    0.0000 C   0  0  0  0  0  0  0  0  0  0  0  0
    3.8712    5.0750    0.0000 C   0  0  0  0  0  0  0  0  0  0  0  0
    4.1831    6.5422    0.0000 O   0  0  0  0  0  0  0  0  0  0  0  0
    4.9859    4.0713    0.0000 N   0  0  0  0  0  0  0  0  0  0  0  0
    6.4125    4.5348    0.0000 C   0  0  0  0  0  0  0  0  0  0  0  0
    4.6741    2.6041    0.0000 C   0  0  0  0  0  0  0  0  0  0  0  0
    2.1328    3.1443    0.0000 C   0  0  0  0  0  0  0  0  0  0  0  0
    0.7062    2.6807    0.0000 C   0  0  0  0  0  0  0  0  0  0  0  0
    0.3943    1.2135    0.0000 C   0  0  0  0  0  0  0  0  0  0  0  0
    1.2760    0.0000    0.0000 C   0  0  0  0  0  0  0  0  0  0  0  0
    0.3943   -1.2135    0.0000 C   0  0  0  0  0  0  0  0  0  0  0  0
   -1.0323   -0.7500    0.0000 C   0  0  0  0  0  0  0  0  0  0  0  0
   -1.0323    0.7500    0.0000 C   0  0  0  0  0  0  0  0  0  0  0  0
   -3.8855   -0.1771    0.0000 C   0  0  0  0  0  0  0  0  0  0  0  0
   -2.7707   -1.1807    0.0000 C   0  0  0  0  0  0  0  0  0  0  0  0
   -5.3120   -0.6406    0.0000 C   0  0  0  0  0  0  0  0  0  0  0  0
  1  2  1  0
  2  3  2  0
  3  4  1  0
  4  5  1  0
  4  6  2  0
  7  6  1  1
  7  8  1  0
  8  9  1  0
  9 10  2  0
 10 11  1  0
 11 12  2  0
 12 13  1  0
 13 14  2  0
 13 15  1  0
 15 16  1  0
 15 17  1  0
 12 18  1  0
 18 19  2  0
 19 20  1  0
 20 21  1  1
 21 22  2  0
 22 23  1  0
 24 23  1  1
  6 25  1  0
 25 26  1  0
 25 27  2  0
 27  2  1  0
 24  7  1  0
 19  9  1  0
 24 20  1  0
M  END
>  <Compound_ID>  (249) 
C14458200

>  <Active>  (249) 
0.0

>  <Smiles>  (249) 
Cc1cc(C)c([C@H]2Nc3ccc(C(=O)N(C)C)cc3[C@H]3C=CC[C@H]32)c(C)c1

>  <canonical_smi>  (249) 
Cc1cc(C)c([C@H]2Nc3ccc(C(=O)N(C)C)cc3[C@H]3C=CC[C@H]32)c(C)c1

>  <Set>  (249) 
G2 inactive

>  <Set_type>  (249) 
Test

>  <MW>  (249) 
360.5

>  <HBD>  (249) 
1

>  <HBA>  (249) 
2

>  <NRB>  (249) 
2

>  <NR>  (249) 
4

>  <NAR>  (249) 
2

>  <PSA>  (249) 
32.34

>  <Standard Type>  (249) 
nan

>  <Standard Relation>  (249) 
nan

>  <Standard Units>  (249) 
nan

>  <Standard Value>  (249) 
nan

>  <Assay ChEMBL ID>  (249) 
nan

>  <Assay Description>  (249) 
nan

>  <BAO Label>  (249) 
nan

$$$$

     RDKit          2D

 21 23  0  0  0  0  0  0  0  0999 V2000
    3.0000    0.0000    0.0000 N   0  0  0  0  0  0  0  0  0  0  0  0
    1.5000    0.0000    0.0000 C   0  0  0  0  0  0  0  0  0  0  0  0
    0.7500   -1.2990    0.0000 C   0  0  0  0  0  0  0  0  0  0  0  0
   -0.7500   -1.2990    0.0000 C   0  0  0  0  0  0  0  0  0  0  0  0
   -1.5000   -2.5981    0.0000 Br  0  0  0  0  0  0  0  0  0  0  0  0
   -1.5000    0.0000    0.0000 C   0  0  0  0  0  0  0  0  0  0  0  0
   -0.7500    1.2990    0.0000 C   0  0  0  0  0  0  0  0  0  0  0  0
    0.7500    1.2990    0.0000 C   0  0  0  0  0  0  0  0  0  0  0  0
    1.5000    2.5981    0.0000 C   0  0  0  0  0  0  0  0  0  0  0  0
    0.8899    3.9684    0.0000 N   0  0  0  0  0  0  0  0  0  0  0  0
    2.0046    4.9721    0.0000 C   0  0  0  0  0  0  0  0  0  0  0  0
    1.8478    6.4639    0.0000 C   0  0  0  0  0  0  0  0  0  0  0  0
    3.0613    7.3456    0.0000 C   0  0  0  0  0  0  0  0  0  0  0  0
    2.9046    8.8373    0.0000 C   0  0  0  0  0  0  0  0  0  0  0  0
    1.5342    9.4474    0.0000 C   0  0  0  0  0  0  0  0  0  0  0  0
    1.3774   10.9392    0.0000 F   0  0  0  0  0  0  0  0  0  0  0  0
    0.3207    8.5658    0.0000 C   0  0  0  0  0  0  0  0  0  0  0  0
   -1.0496    9.1759    0.0000 Cl  0  0  0  0  0  0  0  0  0  0  0  0
    0.4775    7.0740    0.0000 C   0  0  0  0  0  0  0  0  0  0  0  0
    3.3037    4.2221    0.0000 N   0  0  0  0  0  0  0  0  0  0  0  0
    2.9918    2.7549    0.0000 O   0  0  0  0  0  0  0  0  0  0  0  0
  1  2  1  0
  2  3  2  0
  3  4  1  0
  4  5  1  0
  4  6  2  0
  6  7  1  0
  7  8  2  0
  8  9  1  0
  9 10  2  0
 10 11  1  0
 11 12  1  0
 12 13  2  0
 13 14  1  0
 14 15  2  0
 15 16  1  0
 15 17  1  0
 17 18  1  0
 17 19  2  0
 11 20  2  0
 20 21  1  0
  8  2  1  0
 21  9  1  0
 19 12  1  0
M  END
>  <Compound_ID>  (250) 
C62790820

>  <Active>  (250) 
0.0

>  <Smiles>  (250) 
Nc1cc(Br)ccc1-c1nc(-c2ccc(F)c(Cl)c2)no1

>  <canonical_smi>  (250) 
Nc1cc(Br)ccc1-c1nc(-c2ccc(F)c(Cl)c2)no1

>  <Set>  (250) 
G2 inactive

>  <Set_type>  (250) 
Test

>  <MW>  (250) 
368.59

>  <HBD>  (250) 
1

>  <HBA>  (250) 
4

>  <NRB>  (250) 
2

>  <NR>  (250) 
3

>  <NAR>  (250) 
3

>  <PSA>  (250) 
64.94

>  <Standard Type>  (250) 
nan

>  <Standard Relation>  (250) 
nan

>  <Standard Units>  (250) 
nan

>  <Standard Value>  (250) 
nan

>  <Assay ChEMBL ID>  (250) 
nan

>  <Assay Description>  (250) 
nan

>  <BAO Label>  (250) 
nan

$$$$

     RDKit          2D

 34 40  0  0  0  0  0  0  0  0999 V2000
    3.0000   -2.5981    0.0000 C   0  0  0  0  0  0  0  0  0  0  0  0
    3.7500   -3.8971    0.0000 N   0  0  0  0  0  0  0  0  0  0  0  0
    5.2500   -3.8971    0.0000 N   0  0  0  0  0  0  0  0  0  0  0  0
    6.0000   -5.1962    0.0000 C   0  0  0  0  0  0  0  0  0  0  0  0
    5.2500   -6.4952    0.0000 C   0  0  0  0  0  0  0  0  0  0  0  0
    3.7500   -6.4952    0.0000 C   0  0  0  0  0  0  0  0  0  0  0  0
    3.0000   -7.7942    0.0000 C   0  0  0  0  0  0  0  0  0  0  0  0
    3.7500   -9.0933    0.0000 C   0  0  0  0  0  0  0  0  0  0  0  0
    5.2500   -9.0933    0.0000 C   0  0  0  0  0  0  0  0  0  0  0  0
    6.0000   -7.7942    0.0000 C   0  0  0  0  0  0  0  0  0  0  0  0
    7.5000   -5.1962    0.0000 C   0  0  0  0  0  0  0  0  0  0  0  0
    8.2500   -3.8971    0.0000 C   0  0  0  0  0  0  0  0  0  0  0  0
    9.7500   -3.8971    0.0000 N   0  0  0  0  0  0  0  0  0  0  0  0
   10.5000   -5.1962    0.0000 C   0  0  0  0  0  0  0  0  0  0  0  0
    9.7500   -6.4952    0.0000 N   0  0  0  0  0  0  0  0  0  0  0  0
    7.5000   -4.0981    0.0000 C   0  0  0  0  0  0  0  0  0  0  0  0
    7.5000   -2.5981    0.0000 N   0  0  0  0  0  4  0  0  0  0  0  0
    9.0000   -2.5981    0.0000 C   0  0  0  0  0  0  0  0  0  0  0  0
    6.7500   -3.8971    0.0000 C   0  0  0  0  0  0  0  0  0  0  0  0
    8.2500   -6.4952    0.0000 C   0  0  0  0  0  0  0  0  0  0  0  0
    1.5000   -2.5981    0.0000 C   0  0  0  0  0  0  0  0  0  0  0  0
    0.7500   -1.2990    0.0000 C   0  0  0  0  0  0  0  0  0  0  0  0
    1.5000    0.0000    0.0000 C   0  0  0  0  0  0  0  0  0  0  0  0
    0.7500    1.2990    0.0000 C   0  0  0  0  0  0  0  0  0  0  0  0
   -0.7500    1.2990    0.0000 C   0  0  0  0  0  0  0  0  0  0  0  0
   -1.5000    0.0000    0.0000 C   0  0  0  0  0  0  0  0  0  0  0  0
   -0.7500   -1.2990    0.0000 C   0  0  0  0  0  0  0  0  0  0  0  0
   -1.5000   -2.5981    0.0000 C   0  0  0  0  0  0  0  0  0  0  0  0
   -0.7500   -3.8971    0.0000 C   0  0  0  0  0  0  0  0  0  0  0  0
   -1.5000   -5.1962    0.0000 C   0  0  0  0  0  0  0  0  0  0  0  0
   -0.7500   -6.4952    0.0000 C   0  0  0  0  0  0  0  0  0  0  0  0
    0.7500   -6.4952    0.0000 C   0  0  0  0  0  0  0  0  0  0  0  0
    1.5000   -5.1962    0.0000 C   0  0  0  0  0  0  0  0  0  0  0  0
    0.7500   -3.8971    0.0000 C   0  0  0  0  0  0  0  0  0  0  0  0
  1  2  2  0
  2  3  1  0
  3  4  2  0
  4  5  1  0
  5  6  2  0
  6  7  1  0
  7  8  2  0
  8  9  1  0
  9 10  2  0
  4 11  1  0
 11 12  1  0
 12 13  1  0
 13 14  1  0
 14 15  1  0
 15 16  1  0
 16 17  1  0
 17 18  1  0
 17 19  1  0
 15 20  1  0
  1 21  1  0
 21 22  1  0
 22 23  2  0
 23 24  1  0
 24 25  2  0
 25 26  1  0
 26 27  2  0
 27 28  1  0
 28 29  2  0
 29 30  1  0
 30 31  2  0
 31 32  1  0
 32 33  2  0
 33 34  1  0
 10  5  1  0
 19 11  1  0
 34 21  2  0
 20 11  1  0
 27 22  1  0
 34 29  1  0
 18 13  1  0
M  CHG  1  17   1
M  END
>  <Compound_ID>  (251) 
C19333544

>  <Active>  (251) 
0.0

>  <Smiles>  (251) 
C(=N/N=C(\c1ccccc1)C12CN3CN(C[NH+](C3)C1)C2)\c1c2ccccc2cc2ccccc12

>  <canonical_smi>  (251) 
C(=N/N=C(\c1ccccc1)C12CN3CN(C[NH+](C3)C1)C2)\c1c2ccccc2cc2ccccc12

>  <Set>  (251) 
G2 inactive

>  <Set_type>  (251) 
Test

>  <MW>  (251) 
446.58

>  <HBD>  (251) 
1

>  <HBA>  (251) 
2

>  <NRB>  (251) 
4

>  <NR>  (251) 
8

>  <NAR>  (251) 
4

>  <PSA>  (251) 
35.64

>  <Standard Type>  (251) 
nan

>  <Standard Relation>  (251) 
nan

>  <Standard Units>  (251) 
nan

>  <Standard Value>  (251) 
nan

>  <Assay ChEMBL ID>  (251) 
nan

>  <Assay Description>  (251) 
nan

>  <BAO Label>  (251) 
nan

$$$$

     RDKit          2D

 37 42  0  0  0  0  0  0  0  0999 V2000
    8.2500   -9.0933    0.0000 C   0  0  0  0  0  0  0  0  0  0  0  0
    7.5000   -7.7942    0.0000 N   0  0  0  0  0  0  0  0  0  0  0  0
    8.2500   -6.4952    0.0000 C   0  0  0  0  0  0  0  0  0  0  0  0
    6.0000   -7.7942    0.0000 C   0  0  0  0  0  0  0  0  0  0  0  0
    5.2500   -9.0933    0.0000 N   0  0  0  0  0  0  0  0  0  0  0  0
    3.7500   -9.0933    0.0000 C   0  0  0  0  0  0  0  0  0  0  0  0
    3.0000  -10.3923    0.0000 N   0  0  0  0  0  0  0  0  0  0  0  0
    1.5000  -10.3923    0.0000 C   0  0  0  0  0  0  0  0  0  0  0  0
    0.7500   -9.0933    0.0000 C   0  0  0  0  0  0  0  0  0  0  0  0
   -0.7500   -9.0933    0.0000 C   0  0  0  0  0  0  0  0  0  0  0  0
   -1.5000  -10.3923    0.0000 C   0  0  0  0  0  0  0  0  0  0  0  0
   -3.0000  -10.3923    0.0000 O   0  0  0  0  0  0  0  0  0  0  0  0
   -3.7500   -9.0933    0.0000 C   0  0  0  0  0  0  0  0  0  0  0  0
   -4.5000   -7.7942    0.0000 F   0  0  0  0  0  0  0  0  0  0  0  0
   -5.0490   -9.8433    0.0000 F   0  0  0  0  0  0  0  0  0  0  0  0
   -2.4510   -8.3433    0.0000 F   0  0  0  0  0  0  0  0  0  0  0  0
   -0.7500  -11.6913    0.0000 C   0  0  0  0  0  0  0  0  0  0  0  0
    0.7500  -11.6913    0.0000 C   0  0  0  0  0  0  0  0  0  0  0  0
    3.0000   -7.7942    0.0000 N   0  0  0  0  0  0  0  0  0  0  0  0
    3.7500   -6.4952    0.0000 C   0  0  0  0  0  0  0  0  0  0  0  0
    3.0000   -5.1962    0.0000 N   0  0  0  0  0  0  0  0  0  0  0  0
    3.7500   -3.8971    0.0000 C   0  0  0  0  0  0  0  0  0  0  0  0
    3.0000   -2.5981    0.0000 C   0  0  0  0  0  0  0  0  0  0  0  0
    1.5000   -2.5981    0.0000 N   0  0  0  0  0  4  0  0  0  0  0  0
    0.7500   -1.2990    0.0000 C   0  0  0  0  0  0  0  0  0  0  0  0
    1.5000    0.0000    0.0000 C   0  0  0  0  0  0  0  0  0  0  0  0
    0.7500    1.2990    0.0000 C   0  0  0  0  0  0  0  0  0  0  0  0
   -0.7500    1.2990    0.0000 C   0  0  0  0  0  0  0  0  0  0  0  0
   -1.5000    0.0000    0.0000 C   0  0  0  0  0  0  0  0  0  0  0  0
    1.7010   -0.7500    0.0000 C   0  0  0  0  0  0  0  0  0  0  0  0
    3.0000   -0.0000    0.0000 C   0  0  0  0  0  0  0  0  0  0  0  0
    2.2500    1.2990    0.0000 C   0  0  0  0  0  0  0  0  0  0  0  0
    2.2500   -1.2990    0.0000 C   0  0  0  0  0  0  0  0  0  0  0  0
   -0.7500   -1.2990    0.0000 C   0  0  0  0  0  0  0  0  0  0  0  0
    0.7500   -3.8971    0.0000 C   0  0  0  0  0  0  0  0  0  0  0  0
    1.5000   -5.1962    0.0000 C   0  0  0  0  0  0  0  0  0  0  0  0
    5.2500   -6.4952    0.0000 N   0  0  0  0  0  0  0  0  0  0  0  0
  1  2  1  0
  2  3  1  0
  2  4  1  0
  4  5  2  0
  5  6  1  0
  6  7  1  0
  7  8  1  0
  8  9  2  0
  9 10  1  0
 10 11  2  0
 11 12  1  0
 12 13  1  0
 13 14  1  0
 13 15  1  0
 13 16  1  0
 11 17  1  0
 17 18  2  0
  6 19  2  0
 19 20  1  0
 20 21  1  0
 21 22  1  0
 22 23  1  0
 23 24  1  0
 24 25  1  0
 25 26  1  0
 26 27  1  0
 27 28  1  0
 28 29  1  0
 29 30  1  0
 30 31  1  0
 31 32  1  0
 31 33  1  0
 29 34  1  0
 24 35  1  0
 35 36  1  0
 20 37  2  0
 37  4  1  0
 18  8  1  0
 36 21  1  0
 33 25  1  0
 34 25  1  0
 32 27  1  0
M  CHG  1  24   1
M  END
>  <Compound_ID>  (252) 
C08925974

>  <Active>  (252) 
0.0

>  <Smiles>  (252) 
CN(C)c1nc(Nc2ccc(OC(F)(F)F)cc2)nc(N2CC[NH+](C34CC5CC(CC(C5)C3)C4)CC2)n1

>  <canonical_smi>  (252) 
CN(C)c1nc(Nc2ccc(OC(F)(F)F)cc2)nc(N2CC[NH+](C34CC5CC(CC(C5)C3)C4)CC2)n1

>  <Set>  (252) 
G2 inactive

>  <Set_type>  (252) 
Test

>  <MW>  (252) 
518.61

>  <HBD>  (252) 
2

>  <HBA>  (252) 
7

>  <NRB>  (252) 
6

>  <NR>  (252) 
7

>  <NAR>  (252) 
2

>  <PSA>  (252) 
70.85

>  <Standard Type>  (252) 
nan

>  <Standard Relation>  (252) 
nan

>  <Standard Units>  (252) 
nan

>  <Standard Value>  (252) 
nan

>  <Assay ChEMBL ID>  (252) 
nan

>  <Assay Description>  (252) 
nan

>  <BAO Label>  (252) 
nan

$$$$

     RDKit          2D

 35 38  0  0  0  0  0  0  0  0999 V2000
    3.7500   -1.2990    0.0000 N   0  0  0  0  0  0  0  0  0  0  0  0
    3.0000    0.0000    0.0000 C   0  0  0  0  0  0  0  0  0  0  0  0
    3.7500    1.2990    0.0000 O   0  0  0  0  0  0  0  0  0  0  0  0
    1.5000    0.0000    0.0000 C   0  0  0  0  0  0  0  0  0  0  0  0
    0.7500   -1.2990    0.0000 C   0  0  0  0  0  0  0  0  0  0  0  0
   -0.7500   -1.2990    0.0000 C   0  0  0  0  0  0  0  0  0  0  0  0
   -1.5000    0.0000    0.0000 C   0  0  0  0  0  0  0  0  0  0  0  0
   -0.7500    1.2990    0.0000 C   0  0  0  0  0  0  0  0  0  0  0  0
    0.7500    1.2990    0.0000 C   0  0  0  0  0  0  0  0  0  0  0  0
    1.5000    2.5981    0.0000 N   0  0  0  0  0  0  0  0  0  0  0  0
    0.7500    3.8971    0.0000 C   0  0  0  0  0  0  0  0  0  0  0  0
    1.5000    5.1962    0.0000 C   0  0  0  0  0  0  0  0  0  0  0  0
    0.8899    6.5665    0.0000 C   0  0  0  0  0  0  0  0  0  0  0  0
   -0.5773    6.8783    0.0000 C   0  0  0  0  0  0  0  0  0  0  0  0
   -1.5810    5.7636    0.0000 O   0  0  0  0  0  0  0  0  0  0  0  0
   -1.0409    8.3049    0.0000 N   0  0  0  0  0  0  0  0  0  0  0  0
   -2.5081    8.6168    0.0000 N   0  0  0  0  0  0  0  0  0  0  0  0
   -2.9716   10.0434    0.0000 C   0  0  0  0  0  0  0  0  0  0  0  0
   -4.4388   10.3552    0.0000 C   0  0  0  0  0  0  0  0  0  0  0  0
   -4.9023   11.7818    0.0000 C   0  0  0  0  0  0  0  0  0  0  0  0
   -6.3696   12.0937    0.0000 C   0  0  0  0  0  0  0  0  0  0  0  0
   -6.8331   13.5203    0.0000 Cl  0  0  0  0  0  0  0  0  0  0  0  0
   -7.3733   10.9790    0.0000 C   0  0  0  0  0  0  0  0  0  0  0  0
   -6.9097    9.5524    0.0000 C   0  0  0  0  0  0  0  0  0  0  0  0
   -5.4425    9.2405    0.0000 C   0  0  0  0  0  0  0  0  0  0  0  0
   -4.9790    7.8139    0.0000 O   0  0  0  0  0  0  0  0  0  0  0  0
    2.0046    7.5702    0.0000 N   0  0  0  0  0  0  0  0  0  0  0  0
    3.3037    6.8202    0.0000 N   0  0  0  0  0  0  0  0  0  0  0  0
    2.9918    5.3529    0.0000 N   0  0  0  0  0  0  0  0  0  0  0  0
    3.9955    4.2382    0.0000 C   0  0  0  0  0  0  0  0  0  0  0  0
    5.4873    4.3950    0.0000 N   0  0  0  0  0  0  0  0  0  0  0  0
    6.0974    3.0247    0.0000 O   0  0  0  0  0  0  0  0  0  0  0  0
    4.9826    2.0210    0.0000 N   0  0  0  0  0  0  0  0  0  0  0  0
    3.6836    2.7710    0.0000 C   0  0  0  0  0  0  0  0  0  0  0  0
    2.3133    2.1609    0.0000 N   0  0  0  0  0  0  0  0  0  0  0  0
  1  2  1  0
  2  3  2  0
  2  4  1  0
  4  5  2  0
  5  6  1  0
  6  7  2  0
  7  8  1  0
  8  9  2  0
  9 10  1  0
 10 11  1  0
 11 12  1  0
 12 13  2  0
 13 14  1  0
 14 15  2  0
 14 16  1  0
 16 17  1  0
 17 18  2  0
 18 19  1  0
 19 20  2  0
 20 21  1  0
 21 22  1  0
 21 23  2  0
 23 24  1  0
 24 25  2  0
 25 26  1  0
 13 27  1  0
 27 28  2  0
 28 29  1  0
 29 30  1  0
 30 31  2  0
 31 32  1  0
 32 33  1  0
 33 34  2  0
 34 35  1  0
  9  4  1  0
 29 12  1  0
 34 30  1  0
 25 19  1  0
M  END
>  <Compound_ID>  (253) 
C01868949

>  <Active>  (253) 
0.0

>  <Smiles>  (253) 
NC(=O)c1ccccc1NCc1c(C(=O)N/N=C/c2cc(Cl)ccc2O)nnn1-c1nonc1N

>  <canonical_smi>  (253) 
NC(=O)c1ccccc1NCc1c(C(=O)N/N=C/c2cc(Cl)ccc2O)nnn1-c1nonc1N

>  <Set>  (253) 
G2 inactive

>  <Set_type>  (253) 
Test

>  <MW>  (253) 
496.88

>  <HBD>  (253) 
5

>  <HBA>  (253) 
10

>  <NRB>  (253) 
8

>  <NR>  (253) 
4

>  <NAR>  (253) 
4

>  <PSA>  (253) 
212.46

>  <Standard Type>  (253) 
nan

>  <Standard Relation>  (253) 
nan

>  <Standard Units>  (253) 
nan

>  <Standard Value>  (253) 
nan

>  <Assay ChEMBL ID>  (253) 
nan

>  <Assay Description>  (253) 
nan

>  <BAO Label>  (253) 
nan

$$$$

     RDKit          2D

 36 40  0  0  0  0  0  0  0  0999 V2000
    5.2500    1.2990    0.0000 C   0  0  0  0  0  0  0  0  0  0  0  0
    4.5000    0.0000    0.0000 C   0  0  0  0  0  0  0  0  0  0  0  0
    3.0000    0.0000    0.0000 C   0  0  0  0  0  0  0  0  0  0  0  0
    3.0000   -1.5000    0.0000 C   0  0  0  0  0  0  0  0  0  0  0  0
    3.0000    1.5000    0.0000 C   0  0  0  0  0  0  0  0  0  0  0  0
    1.5000    0.0000    0.0000 C   0  0  0  0  0  0  0  0  0  0  0  0
    0.7500   -1.2990    0.0000 C   0  0  0  0  0  0  0  0  0  0  0  0
   -0.7500   -1.2990    0.0000 C   0  0  0  0  0  0  0  0  0  0  0  0
   -1.5000    0.0000    0.0000 C   0  0  0  0  0  0  0  0  0  0  0  0
   -0.7500    1.2990    0.0000 C   0  0  0  0  0  0  0  0  0  0  0  0
   -1.7537    2.4138    0.0000 S   0  0  0  0  0  0  0  0  0  0  0  0
   -3.1240    1.8037    0.0000 C   0  0  0  0  0  0  0  0  0  0  0  0
   -4.4231    2.5537    0.0000 N   0  0  0  0  0  0  0  0  0  0  0  0
   -4.4231    4.0537    0.0000 C   0  0  0  0  0  0  0  0  0  0  0  0
   -3.1240    4.8037    0.0000 O   0  0  0  0  0  0  0  0  0  0  0  0
   -5.7221    4.8037    0.0000 C   0  0  0  0  0  0  0  0  0  0  0  0
   -5.7221    6.3037    0.0000 S   0  0  0  0  0  0  0  0  0  0  0  0
   -7.0211    7.0537    0.0000 C   0  0  0  0  0  0  0  0  0  0  0  0
   -8.3914    6.4435    0.0000 N   0  0  0  0  0  0  0  0  0  0  0  0
   -9.3951    7.5583    0.0000 N   0  0  0  0  0  0  0  0  0  0  0  0
   -8.6451    8.8573    0.0000 C   0  0  0  0  0  0  0  0  0  0  0  0
   -9.2552   10.2276    0.0000 C   0  0  0  0  0  0  0  0  0  0  0  0
   -8.3736   11.4411    0.0000 C   0  0  0  0  0  0  0  0  0  0  0  0
   -8.9837   12.8115    0.0000 C   0  0  0  0  0  0  0  0  0  0  0  0
  -10.4755   12.9683    0.0000 C   0  0  0  0  0  0  0  0  0  0  0  0
  -11.3571   11.7547    0.0000 C   0  0  0  0  0  0  0  0  0  0  0  0
  -10.7470   10.3844    0.0000 C   0  0  0  0  0  0  0  0  0  0  0  0
  -12.7837   12.2183    0.0000 O   0  0  0  0  0  0  0  0  0  0  0  0
  -12.7837   13.7183    0.0000 C   0  0  0  0  0  0  0  0  0  0  0  0
  -11.3571   14.1818    0.0000 O   0  0  0  0  0  0  0  0  0  0  0  0
   -7.1779    8.5454    0.0000 N   0  0  0  0  0  0  0  0  0  0  0  0
   -6.0632    9.5491    0.0000 C   0  0  0  0  0  0  0  0  0  0  0  0
   -2.9672    0.3119    0.0000 C   0  0  0  0  0  0  0  0  0  0  0  0
   -4.0819   -0.6918    0.0000 C   0  0  0  0  0  0  0  0  0  0  0  0
   -5.1967   -1.6955    0.0000 N   0  0  0  0  0  0  0  0  0  0  0  0
    0.7500    1.2990    0.0000 C   0  0  0  0  0  0  0  0  0  0  0  0
  1  2  1  0
  2  3  1  0
  3  4  1  0
  3  5  1  0
  6  3  1  6
  6  7  1  0
  7  8  1  0
  8  9  1  0
  9 10  2  0
 10 11  1  0
 11 12  1  0
 12 13  1  0
 13 14  1  0
 14 15  2  0
 14 16  1  0
 16 17  1  0
 17 18  1  0
 18 19  2  0
 19 20  1  0
 20 21  2  0
 21 22  1  0
 22 23  2  0
 23 24  1  0
 24 25  2  0
 25 26  1  0
 26 27  2  0
 26 28  1  0
 28 29  1  0
 29 30  1  0
 21 31  1  0
 31 32  1  0
 12 33  2  0
 33 34  1  0
 34 35  3  0
 10 36  1  0
 36  6  1  0
 33  9  1  0
 31 18  1  0
 27 22  1  0
 30 25  1  0
M  END
>  <Compound_ID>  (254) 
C39965416

>  <Active>  (254) 
0.0

>  <Smiles>  (254) 
CCC(C)(C)[C@@H]1CCc2c(sc(NC(=O)CSc3nnc(-c4ccc5c(c4)OCO5)n3C)c2C#N)C1

>  <canonical_smi>  (254) 
CCC(C)(C)[C@@H]1CCc2c(sc(NC(=O)CSc3nnc(-c4ccc5c(c4)OCO5)n3C)c2C#N)C1

>  <Set>  (254) 
G2 inactive

>  <Set_type>  (254) 
Test

>  <MW>  (254) 
523.68

>  <HBD>  (254) 
1

>  <HBA>  (254) 
7

>  <NRB>  (254) 
7

>  <NR>  (254) 
5

>  <NAR>  (254) 
3

>  <PSA>  (254) 
102.06

>  <Standard Type>  (254) 
nan

>  <Standard Relation>  (254) 
nan

>  <Standard Units>  (254) 
nan

>  <Standard Value>  (254) 
nan

>  <Assay ChEMBL ID>  (254) 
nan

>  <Assay Description>  (254) 
nan

>  <BAO Label>  (254) 
nan

$$$$

     RDKit          2D

 30 32  0  0  0  0  0  0  0  0999 V2000
   11.2817   -3.1126    0.0000 C   0  0  0  0  0  0  0  0  0  0  0  0
   10.2780   -1.9979    0.0000 C   0  0  0  0  0  0  0  0  0  0  0  0
    8.8107   -2.3097    0.0000 C   0  0  0  0  0  0  0  0  0  0  0  0
    7.8071   -1.1950    0.0000 C   0  0  0  0  0  0  0  0  0  0  0  0
    6.3398   -1.5069    0.0000 C   0  0  0  0  0  0  0  0  0  0  0  0
    5.8763   -2.9335    0.0000 C   0  0  0  0  0  0  0  0  0  0  0  0
    6.8800   -4.0482    0.0000 C   0  0  0  0  0  0  0  0  0  0  0  0
    5.3361   -0.3922    0.0000 C   0  0  0  0  0  0  0  0  0  0  0  0
    3.8689   -0.7040    0.0000 O   0  0  0  0  0  0  0  0  0  0  0  0
    5.7997    1.0344    0.0000 N   0  0  0  0  0  0  0  0  0  0  0  0
    4.7960    2.1491    0.0000 C   0  0  0  0  0  0  0  0  0  0  0  0
    3.3287    1.8373    0.0000 C   0  0  0  0  0  0  0  0  0  0  0  0
    2.8652    0.4107    0.0000 O   0  0  0  0  0  0  0  0  0  0  0  0
    2.3250    2.9520    0.0000 N   0  0  0  0  0  0  0  0  0  0  0  0
    0.8578    2.6401    0.0000 C   0  0  0  0  0  0  0  0  0  0  0  0
    0.3943    1.2135    0.0000 C   0  0  0  0  0  0  0  0  0  0  0  0
    1.2760    0.0000    0.0000 C   0  0  0  0  0  0  0  0  0  0  0  0
    0.3943   -1.2135    0.0000 C   0  0  0  0  0  0  0  0  0  0  0  0
   -1.0323   -0.7500    0.0000 C   0  0  0  0  0  0  0  0  0  0  0  0
   -1.0323    0.7500    0.0000 O   0  0  0  0  0  0  0  0  0  0  0  0
    2.7886    4.3786    0.0000 C   0  0  0  0  0  0  0  0  0  0  0  0
    4.2558    4.6904    0.0000 C   0  0  0  0  0  0  0  0  0  0  0  0
    5.3705    3.6867    0.0000 C   0  0  0  0  0  0  0  0  0  0  0  0
    6.6695    4.4367    0.0000 C   0  0  0  0  0  0  0  0  0  0  0  0
    6.3577    5.9040    0.0000 C   0  0  0  0  0  0  0  0  0  0  0  0
    4.8659    6.0607    0.0000 N   0  0  0  0  0  0  0  0  0  0  0  0
    4.1159    7.3598    0.0000 C   0  0  0  0  0  0  0  0  0  0  0  0
    7.2669    1.3463    0.0000 C   0  0  0  0  0  0  0  0  0  0  0  0
    8.3816    2.3500    0.0000 C   0  0  0  0  0  0  0  0  0  0  0  0
    8.6935    0.8828    0.0000 C   0  0  0  0  0  0  0  0  0  0  0  0
  1  2  1  0
  2  3  1  0
  3  4  1  0
  5  4  1  6
  5  6  1  0
  6  7  1  0
  5  8  1  0
  8  9  2  0
  8 10  1  0
 10 11  1  0
 11 12  1  0
 12 13  2  0
 12 14  1  0
 14 15  1  0
 15 16  1  0
 16 17  2  0
 17 18  1  0
 18 19  2  0
 19 20  1  0
 14 21  1  0
 21 22  1  0
 22 23  2  0
 23 24  1  0
 24 25  2  0
 25 26  1  0
 26 27  1  0
 10 28  1  0
 28 29  1  0
 29 30  1  0
 20 16  1  0
 26 22  1  0
 30 28  1  0
M  END
>  <Compound_ID>  (255) 
C04345821

>  <Active>  (255) 
0.0

>  <Smiles>  (255) 
CCCC[C@H](CC)C(=O)N(CC(=O)N(Cc1ccco1)Cc1cccn1C)C1CC1

>  <canonical_smi>  (255) 
CCCC[C@H](CC)C(=O)N(CC(=O)N(Cc1ccco1)Cc1cccn1C)C1CC1

>  <Set>  (255) 
G2 inactive

>  <Set_type>  (255) 
Test

>  <MW>  (255) 
413.56

>  <HBD>  (255) 
0

>  <HBA>  (255) 
3

>  <NRB>  (255) 
12

>  <NR>  (255) 
3

>  <NAR>  (255) 
2

>  <PSA>  (255) 
58.69

>  <Standard Type>  (255) 
nan

>  <Standard Relation>  (255) 
nan

>  <Standard Units>  (255) 
nan

>  <Standard Value>  (255) 
nan

>  <Assay ChEMBL ID>  (255) 
nan

>  <Assay Description>  (255) 
nan

>  <BAO Label>  (255) 
nan

$$$$

     RDKit          2D

 26 25  0  0  0  0  0  0  0  0999 V2000
    0.0000    0.0000    0.0000 C   0  0  0  0  0  0  0  0  0  0  0  0
    1.2990    0.7500    0.0000 C   0  0  0  0  0  0  0  0  0  0  0  0
    2.5981   -0.0000    0.0000 C   0  0  0  0  0  0  0  0  0  0  0  0
    3.8971    0.7500    0.0000 C   0  0  0  0  0  0  0  0  0  0  0  0
    3.8971    2.2500    0.0000 O   0  0  0  0  0  0  0  0  0  0  0  0
    5.1962   -0.0000    0.0000 N   0  0  0  0  0  0  0  0  0  0  0  0
    6.4952    0.7500    0.0000 C   0  0  0  0  0  0  0  0  0  0  0  0
    7.7942   -0.0000    0.0000 C   0  0  0  0  0  0  0  0  0  0  0  0
    9.0933    0.7500    0.0000 C   0  0  0  0  0  0  0  0  0  0  0  0
    5.1962   -1.5000    0.0000 C   0  0  0  0  0  0  0  0  0  0  0  0
    3.8971   -2.2500    0.0000 C   0  0  0  0  0  0  0  0  0  0  0  0
    2.5981   -1.5000    0.0000 O   0  0  0  0  0  0  0  0  0  0  0  0
    3.8971   -3.7500    0.0000 N   0  0  0  0  0  0  0  0  0  0  0  0
    2.5981   -4.5000    0.0000 C   0  0  0  0  0  0  0  0  0  0  0  0
    3.3481   -5.7990    0.0000 C   0  0  0  0  0  0  0  0  0  0  0  0
    1.8481   -3.2010    0.0000 C   0  0  0  0  0  0  0  0  0  0  0  0
    1.2990   -5.2500    0.0000 C   0  0  0  0  0  0  0  0  0  0  0  0
    0.0000   -4.5000    0.0000 C   0  0  0  0  0  0  0  0  0  0  0  0
   -0.7500   -5.7990    0.0000 C   0  0  0  0  0  0  0  0  0  0  0  0
    0.7500   -3.2010    0.0000 C   0  0  0  0  0  0  0  0  0  0  0  0
   -1.2990   -3.7500    0.0000 C   0  0  0  0  0  0  0  0  0  0  0  0
    6.4952   -2.2500    0.0000 C   0  0  0  0  0  0  0  0  0  0  0  0
    6.4952   -3.7500    0.0000 C   0  0  0  0  0  0  0  0  0  0  0  0
    7.7942   -4.5000    0.0000 C   0  0  0  0  0  0  0  0  0  0  0  0
    7.7942   -1.5000    0.0000 C   0  0  0  0  0  0  0  0  0  0  0  0
    9.0933   -2.2500    0.0000 C   0  0  0  0  0  0  0  0  0  0  0  0
  1  2  1  0
  2  3  1  0
  3  4  1  0
  4  5  2  0
  4  6  1  0
  6  7  1  0
  7  8  1  0
  8  9  1  0
  6 10  1  0
 10 11  1  0
 11 12  2  0
 11 13  1  0
 13 14  1  0
 14 15  1  0
 14 16  1  0
 14 17  1  0
 17 18  1  0
 18 19  1  0
 18 20  1  0
 18 21  1  0
 10 22  1  6
 22 23  1  0
 23 24  1  0
 22 25  1  0
 25 26  1  0
M  END
>  <Compound_ID>  (256) 
C36573993

>  <Active>  (256) 
0.0

>  <Smiles>  (256) 
CCCC(=O)N(CCC)[C@@H](C(=O)NC(C)(C)CC(C)(C)C)C(CC)CC

>  <canonical_smi>  (256) 
CCCC(=O)N(CCC)[C@@H](C(=O)NC(C)(C)CC(C)(C)C)C(CC)CC

>  <Set>  (256) 
G2 inactive

>  <Set_type>  (256) 
Test

>  <MW>  (256) 
368.61

>  <HBD>  (256) 
1

>  <HBA>  (256) 
2

>  <NRB>  (256) 
11

>  <NR>  (256) 
0

>  <NAR>  (256) 
0

>  <PSA>  (256) 
49.41

>  <Standard Type>  (256) 
nan

>  <Standard Relation>  (256) 
nan

>  <Standard Units>  (256) 
nan

>  <Standard Value>  (256) 
nan

>  <Assay ChEMBL ID>  (256) 
nan

>  <Assay Description>  (256) 
nan

>  <BAO Label>  (256) 
nan

$$$$

     RDKit          2D

 31 32  0  0  0  0  0  0  0  0999 V2000
    5.2500   -1.2990    0.0000 C   0  0  0  0  0  0  0  0  0  0  0  0
    3.7500   -1.2990    0.0000 C   0  0  0  0  0  0  0  0  0  0  0  0
    3.0000    0.0000    0.0000 O   0  0  0  0  0  0  0  0  0  0  0  0
    1.5000    0.0000    0.0000 C   0  0  0  0  0  0  0  0  0  0  0  0
    0.7500   -1.2990    0.0000 C   0  0  0  0  0  0  0  0  0  0  0  0
   -0.7500   -1.2990    0.0000 C   0  0  0  0  0  0  0  0  0  0  0  0
   -1.5000   -2.5981    0.0000 C   0  0  0  0  0  0  0  0  0  0  0  0
   -0.7500   -3.8971    0.0000 O   0  0  0  0  0  0  0  0  0  0  0  0
   -3.0000   -2.5981    0.0000 O   0  0  0  0  0  0  0  0  0  0  0  0
   -3.7500   -3.8971    0.0000 C   0  0  0  0  0  0  0  0  0  0  0  0
   -5.2500   -3.8971    0.0000 C   0  0  0  0  0  0  0  0  0  0  0  0
   -3.0000   -5.1962    0.0000 C   0  0  0  0  0  0  0  0  0  0  0  0
   -1.5000   -5.1962    0.0000 O   0  0  0  0  0  0  0  0  0  0  0  0
   -3.7500   -6.4952    0.0000 N   0  0  0  0  0  0  0  0  0  0  0  0
   -3.0000   -7.7942    0.0000 C   0  0  0  0  0  0  0  0  0  0  0  0
   -3.7500   -9.0933    0.0000 C   0  0  0  0  0  0  0  0  0  0  0  0
   -3.0000  -10.3923    0.0000 C   0  0  0  0  0  0  0  0  0  0  0  0
   -5.2500   -9.0933    0.0000 C   0  0  0  0  0  0  0  0  0  0  0  0
   -1.5000    0.0000    0.0000 C   0  0  0  0  0  0  0  0  0  0  0  0
   -0.7500    1.2990    0.0000 C   0  0  0  0  0  0  0  0  0  0  0  0
    0.7500    1.2990    0.0000 C   0  0  0  0  0  0  0  0  0  0  0  0
    1.5000    2.5981    0.0000 O   0  0  0  0  0  0  0  0  0  0  0  0
    3.0000    2.5981    0.0000 C   0  0  0  0  0  0  0  0  0  0  0  0
    3.7500    3.8971    0.0000 C   0  0  0  0  0  0  0  0  0  0  0  0
    5.2500    3.8971    0.0000 O   0  0  0  0  0  0  0  0  0  0  0  0
    6.0000    5.1962    0.0000 C   0  0  0  0  0  0  0  0  0  0  0  0
    7.5000    5.1962    0.0000 C   0  0  0  0  0  0  0  0  0  0  0  0
    8.2500    6.4952    0.0000 C   0  0  0  0  0  0  0  0  0  0  0  0
    7.5000    7.7942    0.0000 C   0  0  0  0  0  0  0  0  0  0  0  0
    6.0000    7.7942    0.0000 C   0  0  0  0  0  0  0  0  0  0  0  0
    5.2500    6.4952    0.0000 C   0  0  0  0  0  0  0  0  0  0  0  0
  1  2  1  0
  2  3  1  0
  3  4  1  0
  4  5  2  0
  5  6  1  0
  6  7  1  0
  7  8  2  0
  7  9  1  0
  9 10  1  0
 10 11  1  6
 10 12  1  0
 12 13  2  0
 12 14  1  0
 14 15  1  0
 15 16  1  0
 16 17  1  0
 16 18  1  0
  6 19  2  0
 19 20  1  0
 20 21  2  0
 21 22  1  0
 22 23  1  0
 23 24  1  0
 24 25  1  0
 25 26  1  0
 26 27  2  0
 27 28  1  0
 28 29  2  0
 29 30  1  0
 30 31  2  0
 21  4  1  0
 31 26  1  0
M  END
>  <Compound_ID>  (257) 
C24068193

>  <Active>  (257) 
0.0

>  <Smiles>  (257) 
CCOc1cc(C(=O)O[C@@H](C)C(=O)NCC(C)C)ccc1OCCOc1ccccc1

>  <canonical_smi>  (257) 
CCOc1cc(C(=O)O[C@@H](C)C(=O)NCC(C)C)ccc1OCCOc1ccccc1

>  <Set>  (257) 
G2 inactive

>  <Set_type>  (257) 
Test

>  <MW>  (257) 
429.51

>  <HBD>  (257) 
1

>  <HBA>  (257) 
6

>  <NRB>  (257) 
12

>  <NR>  (257) 
2

>  <NAR>  (257) 
2

>  <PSA>  (257) 
83.09

>  <Standard Type>  (257) 
nan

>  <Standard Relation>  (257) 
nan

>  <Standard Units>  (257) 
nan

>  <Standard Value>  (257) 
nan

>  <Assay ChEMBL ID>  (257) 
nan

>  <Assay Description>  (257) 
nan

>  <BAO Label>  (257) 
nan

$$$$

     RDKit          2D

 20 21  0  0  0  0  0  0  0  0999 V2000
   -4.2718   -4.8635    0.0000 C   0  0  0  0  0  0  0  0  0  0  0  0
   -3.0583   -5.7452    0.0000 C   0  0  0  0  0  0  0  0  0  0  0  0
   -3.0583   -7.2452    0.0000 N   0  0  0  0  0  0  0  0  0  0  0  0
   -1.6317   -7.7087    0.0000 C   0  0  0  0  0  0  0  0  0  0  0  0
   -1.1682   -9.1353    0.0000 C   0  0  0  0  0  0  0  0  0  0  0  0
   -0.7500   -6.4952    0.0000 C   0  0  0  0  0  0  0  0  0  0  0  0
    0.7500   -6.4952    0.0000 C   0  0  0  0  0  0  0  0  0  0  0  0
    1.5000   -7.7942    0.0000 C   0  0  0  0  0  0  0  0  0  0  0  0
    1.5000   -5.1962    0.0000 N   0  0  0  0  0  0  0  0  0  0  0  0
    0.7500   -3.8971    0.0000 C   0  0  0  0  0  0  0  0  0  0  0  0
   -0.7500   -3.8971    0.0000 O   0  0  0  0  0  0  0  0  0  0  0  0
    1.5000   -2.5981    0.0000 N   0  0  0  0  0  0  0  0  0  0  0  0
    0.7500   -1.2990    0.0000 C   0  0  0  0  0  0  0  0  0  0  0  0
    1.5000    0.0000    0.0000 C   0  0  0  0  0  0  0  0  0  0  0  0
    0.7500    1.2990    0.0000 C   0  0  0  0  0  0  0  0  0  0  0  0
   -0.7500    1.2990    0.0000 C   0  0  0  0  0  0  0  0  0  0  0  0
   -1.5000    2.5981    0.0000 O   0  0  0  0  0  0  0  0  0  0  0  0
   -1.5000    0.0000    0.0000 C   0  0  0  0  0  0  0  0  0  0  0  0
   -0.7500   -1.2990    0.0000 C   0  0  0  0  0  0  0  0  0  0  0  0
   -1.6317   -5.2817    0.0000 S   0  0  0  0  0  0  0  0  0  0  0  0
  1  2  1  0
  2  3  2  0
  3  4  1  0
  4  5  1  0
  4  6  2  0
  6  7  1  0
  7  8  1  6
  7  9  1  0
  9 10  1  0
 10 11  2  0
 10 12  1  0
 12 13  1  0
 13 14  1  0
 14 15  1  0
 15 16  1  0
 16 17  1  0
 16 18  1  0
 18 19  1  0
  6 20  1  0
 20  2  1  0
 19 13  1  0
M  END
>  <Compound_ID>  (258) 
C48888661

>  <Active>  (258) 
0.0

>  <Smiles>  (258) 
Cc1nc(C)c([C@@H](C)NC(=O)NC2CCC(O)CC2)s1

>  <canonical_smi>  (258) 
Cc1nc(C)c([C@@H](C)NC(=O)NC2CCC(O)CC2)s1

>  <Set>  (258) 
G2 inactive

>  <Set_type>  (258) 
Test

>  <MW>  (258) 
297.42

>  <HBD>  (258) 
3

>  <HBA>  (258) 
3

>  <NRB>  (258) 
3

>  <NR>  (258) 
2

>  <NAR>  (258) 
1

>  <PSA>  (258) 
74.25

>  <Standard Type>  (258) 
nan

>  <Standard Relation>  (258) 
nan

>  <Standard Units>  (258) 
nan

>  <Standard Value>  (258) 
nan

>  <Assay ChEMBL ID>  (258) 
nan

>  <Assay Description>  (258) 
nan

>  <BAO Label>  (258) 
nan

$$$$

     RDKit          2D

 29 33  0  0  0  0  0  0  0  0999 V2000
    5.1048  -11.2766    0.0000 N   0  0  0  0  0  0  0  0  0  0  0  0
    3.6130  -11.4334    0.0000 C   0  0  0  0  0  0  0  0  0  0  0  0
    2.1212  -11.5902    0.0000 C   0  0  0  0  0  0  0  0  0  0  0  0
    1.5111  -12.9605    0.0000 C   0  0  0  0  0  0  0  0  0  0  0  0
    0.0193  -13.1173    0.0000 C   0  0  0  0  0  0  0  0  0  0  0  0
   -0.8623  -11.9037    0.0000 C   0  0  0  0  0  0  0  0  0  0  0  0
   -0.2522  -10.5334    0.0000 N   0  0  0  0  0  0  0  0  0  0  0  0
    1.2396  -10.3766    0.0000 C   0  0  0  0  0  0  0  0  0  0  0  0
    1.8497   -9.0063    0.0000 O   0  0  0  0  0  0  0  0  0  0  0  0
    0.9680   -7.7928    0.0000 C   0  0  0  0  0  0  0  0  0  0  0  0
    1.5781   -6.4225    0.0000 C   0  0  0  0  0  0  0  0  0  0  0  0
    0.6964   -5.2089    0.0000 C   0  0  0  0  0  0  0  0  0  0  0  0
   -0.7954   -5.3657    0.0000 C   0  0  0  0  0  0  0  0  0  0  0  0
   -1.6771   -4.1522    0.0000 C   0  0  0  0  0  0  0  0  0  0  0  0
   -3.1771   -4.1522    0.0000 N   0  0  0  0  0  4  0  0  0  0  0  0
   -3.6406   -2.7256    0.0000 C   0  0  0  0  0  0  0  0  0  0  0  0
   -2.4271   -1.8439    0.0000 C   0  0  0  0  0  0  0  0  0  0  0  0
   -1.2135   -2.7256    0.0000 C   0  0  0  0  0  0  0  0  0  0  0  0
    0.0000   -3.6073    0.0000 C   0  0  0  0  0  0  0  0  0  0  0  0
    0.2143   -4.4667    0.0000 O   0  0  0  0  0  0  0  0  0  0  0  0
    1.2135   -2.7256    0.0000 N   0  0  0  0  0  0  0  0  0  0  0  0
    0.7500   -1.2990    0.0000 C   0  0  0  0  0  0  0  0  0  0  0  0
    1.5000   -0.0000    0.0000 C   0  0  0  0  0  0  0  0  0  0  0  0
    0.7500    1.2990    0.0000 C   0  0  0  0  0  0  0  0  0  0  0  0
   -0.7500    1.2990    0.0000 C   0  0  0  0  0  0  0  0  0  0  0  0
   -1.5000    0.0000    0.0000 C   0  0  0  0  0  0  0  0  0  0  0  0
   -0.7500   -1.2990    0.0000 C   0  0  0  0  0  0  0  0  0  0  0  0
   -1.4055   -6.7361    0.0000 C   0  0  0  0  0  0  0  0  0  0  0  0
   -0.5238   -7.9496    0.0000 C   0  0  0  0  0  0  0  0  0  0  0  0
  1  2  3  0
  2  3  1  0
  3  4  2  0
  4  5  1  0
  5  6  2  0
  6  7  1  0
  7  8  2  0
  8  9  1  0
  9 10  1  0
 10 11  2  0
 11 12  1  0
 12 13  2  0
 14 13  1  6
 14 15  1  0
 15 16  1  0
 16 17  1  0
 18 17  1  1
 18 19  1  0
 19 20  2  0
 19 21  1  0
 21 22  1  0
 22 23  2  0
 23 24  1  0
 24 25  2  0
 25 26  1  0
 26 27  2  0
 13 28  1  0
 28 29  2  0
  8  3  1  0
 29 10  1  0
 18 14  1  0
 27 22  1  0
 27 18  1  0
M  CHG  1  15   1
M  END
>  <Compound_ID>  (259) 
C61720269

>  <Active>  (259) 
0.0

>  <Smiles>  (259) 
N#Cc1cccnc1Oc1ccc([C@@H]2[NH2+]CC[C@@]23C(=O)Nc2ccccc23)cc1

>  <canonical_smi>  (259) 
N#Cc1cccnc1Oc1ccc([C@@H]2[NH2+]CC[C@@]23C(=O)Nc2ccccc23)cc1

>  <Set>  (259) 
G2 inactive

>  <Set_type>  (259) 
Test

>  <MW>  (259) 
383.43

>  <HBD>  (259) 
2

>  <HBA>  (259) 
4

>  <NRB>  (259) 
3

>  <NR>  (259) 
5

>  <NAR>  (259) 
3

>  <PSA>  (259) 
91.62

>  <Standard Type>  (259) 
nan

>  <Standard Relation>  (259) 
nan

>  <Standard Units>  (259) 
nan

>  <Standard Value>  (259) 
nan

>  <Assay ChEMBL ID>  (259) 
nan

>  <Assay Description>  (259) 
nan

>  <BAO Label>  (259) 
nan

$$$$

     RDKit          2D

 37 41  0  0  0  0  0  0  0  0999 V2000
    3.7500   -1.2990    0.0000 C   0  0  0  0  0  0  0  0  0  0  0  0
    3.0000    0.0000    0.0000 O   0  0  0  0  0  0  0  0  0  0  0  0
    1.5000    0.0000    0.0000 C   0  0  0  0  0  0  0  0  0  0  0  0
    0.7500   -1.2990    0.0000 C   0  0  0  0  0  0  0  0  0  0  0  0
   -0.7500   -1.2990    0.0000 C   0  0  0  0  0  0  0  0  0  0  0  0
   -1.5000    0.0000    0.0000 C   0  0  0  0  0  0  0  0  0  0  0  0
   -0.7500    1.2990    0.0000 C   0  0  0  0  0  0  0  0  0  0  0  0
    0.7500    1.2990    0.0000 C   0  0  0  0  0  0  0  0  0  0  0  0
    1.5000    2.5981    0.0000 N   0  0  0  0  0  0  0  0  0  0  0  0
    3.0000    2.5981    0.0000 C   0  0  0  0  0  0  0  0  0  0  0  0
    3.7500    3.8971    0.0000 C   0  0  0  0  0  0  0  0  0  0  0  0
    3.0000    5.1962    0.0000 N   0  0  0  0  0  0  0  0  0  0  0  0
    3.7500    6.4952    0.0000 C   0  0  0  0  0  0  0  0  0  0  0  0
    3.0000    7.7942    0.0000 O   0  0  0  0  0  0  0  0  0  0  0  0
    5.2500    6.4952    0.0000 C   0  0  0  0  0  0  0  0  0  0  0  0
    6.1317    7.7087    0.0000 C   0  0  0  0  0  0  0  0  0  0  0  0
    7.5583    7.2452    0.0000 C   0  0  0  0  0  0  0  0  0  0  0  0
    7.5583    5.7452    0.0000 C   0  0  0  0  0  0  0  0  0  0  0  0
    8.7718    4.8635    0.0000 C   0  0  0  0  0  0  0  0  0  0  0  0
    8.6150    3.3717    0.0000 N   0  0  0  0  0  4  0  0  0  0  0  0
    9.8285    2.4901    0.0000 C   0  0  0  0  0  0  0  0  0  0  0  0
    9.6717    0.9983    0.0000 C   0  0  0  0  0  0  0  0  0  0  0  0
    8.3014    0.3882    0.0000 C   0  0  0  0  0  0  0  0  0  0  0  0
    8.1446   -1.1036    0.0000 C   0  0  0  0  0  0  0  0  0  0  0  0
    9.3581   -1.9853    0.0000 C   0  0  0  0  0  0  0  0  0  0  0  0
   10.7285   -1.3752    0.0000 C   0  0  0  0  0  0  0  0  0  0  0  0
   10.8853    0.1166    0.0000 C   0  0  0  0  0  0  0  0  0  0  0  0
   12.2556    0.7267    0.0000 C   0  0  0  0  0  0  0  0  0  0  0  0
    7.2447    2.7616    0.0000 C   0  0  0  0  0  0  0  0  0  0  0  0
    6.0312    3.6433    0.0000 C   0  0  0  0  0  0  0  0  0  0  0  0
    4.6608    3.0332    0.0000 C   0  0  0  0  0  0  0  0  0  0  0  0
    4.5040    1.5414    0.0000 C   0  0  0  0  0  0  0  0  0  0  0  0
    5.7176    0.6597    0.0000 C   0  0  0  0  0  0  0  0  0  0  0  0
    7.0879    1.2698    0.0000 C   0  0  0  0  0  0  0  0  0  0  0  0
    6.1317    5.2817    0.0000 O   0  0  0  0  0  0  0  0  0  0  0  0
    1.5000    5.1962    0.0000 C   0  0  0  0  0  0  0  0  0  0  0  0
    0.7500    3.8971    0.0000 C   0  0  0  0  0  0  0  0  0  0  0  0
  1  2  1  0
  2  3  1  0
  3  4  2  0
  4  5  1  0
  5  6  2  0
  6  7  1  0
  7  8  2  0
  8  9  1  0
  9 10  1  0
 10 11  1  0
 11 12  1  0
 12 13  1  0
 13 14  2  0
 13 15  1  0
 15 16  2  0
 16 17  1  0
 17 18  2  0
 18 19  1  0
 19 20  1  0
 20 21  1  0
 21 22  1  0
 22 23  2  0
 23 24  1  0
 24 25  2  0
 25 26  1  0
 26 27  2  0
 27 28  1  0
 20 29  1  0
 29 30  1  0
 30 31  1  0
 31 32  1  0
 32 33  1  0
 33 34  1  0
 18 35  1  0
 12 36  1  0
 36 37  1  0
  8  3  1  0
 37  9  1  0
 35 15  1  0
 27 22  1  0
 34 29  1  0
M  CHG  1  20   1
M  END
>  <Compound_ID>  (260) 
C35226607

>  <Active>  (260) 
0.0

>  <Smiles>  (260) 
COc1ccccc1N1CCN(C(=O)c2ccc(C[NH+](Cc3ccccc3C)C3CCCCC3)o2)CC1

>  <canonical_smi>  (260) 
COc1ccccc1N1CCN(C(=O)c2ccc(C[NH+](Cc3ccccc3C)C3CCCCC3)o2)CC1

>  <Set>  (260) 
G2 inactive

>  <Set_type>  (260) 
Test

>  <MW>  (260) 
502.68

>  <HBD>  (260) 
1

>  <HBA>  (260) 
4

>  <NRB>  (260) 
8

>  <NR>  (260) 
5

>  <NAR>  (260) 
3

>  <PSA>  (260) 
50.36

>  <Standard Type>  (260) 
nan

>  <Standard Relation>  (260) 
nan

>  <Standard Units>  (260) 
nan

>  <Standard Value>  (260) 
nan

>  <Assay ChEMBL ID>  (260) 
nan

>  <Assay Description>  (260) 
nan

>  <BAO Label>  (260) 
nan

$$$$

     RDKit          2D

 28 30  0  0  0  0  0  0  0  0999 V2000
    3.0000    0.0000    0.0000 C   0  0  0  0  0  0  0  0  0  0  0  0
    1.5000    0.0000    0.0000 C   0  0  0  0  0  0  0  0  0  0  0  0
    0.7500   -1.2990    0.0000 C   0  0  0  0  0  0  0  0  0  0  0  0
   -0.7500   -1.2990    0.0000 C   0  0  0  0  0  0  0  0  0  0  0  0
   -1.5000    0.0000    0.0000 C   0  0  0  0  0  0  0  0  0  0  0  0
   -3.0000    0.0000    0.0000 N   0  0  0  0  0  0  0  0  0  0  0  0
   -3.7500    1.2990    0.0000 C   0  0  0  0  0  0  0  0  0  0  0  0
   -3.0000    2.5981    0.0000 O   0  0  0  0  0  0  0  0  0  0  0  0
   -5.2500    1.2990    0.0000 C   0  0  0  0  0  0  0  0  0  0  0  0
   -6.0000    2.5981    0.0000 N   0  0  0  0  0  4  0  0  0  0  0  0
   -5.2500    3.8971    0.0000 C   0  0  0  0  0  0  0  0  0  0  0  0
   -6.0000    5.1962    0.0000 C   0  0  0  0  0  0  0  0  0  0  0  0
   -7.5000    5.1962    0.0000 N   0  0  0  0  0  0  0  0  0  0  0  0
   -8.2500    6.4952    0.0000 S   0  0  0  0  0  0  0  0  0  0  0  0
   -9.5490    5.7452    0.0000 O   0  0  0  0  0  0  0  0  0  0  0  0
   -6.9510    7.2452    0.0000 O   0  0  0  0  0  0  0  0  0  0  0  0
   -9.0000    7.7942    0.0000 C   0  0  0  0  0  0  0  0  0  0  0  0
   -8.2500    9.0933    0.0000 C   0  0  0  0  0  0  0  0  0  0  0  0
   -9.0000   10.3923    0.0000 C   0  0  0  0  0  0  0  0  0  0  0  0
  -10.5000   10.3923    0.0000 C   0  0  0  0  0  0  0  0  0  0  0  0
  -11.2500    9.0933    0.0000 C   0  0  0  0  0  0  0  0  0  0  0  0
  -10.5000    7.7942    0.0000 C   0  0  0  0  0  0  0  0  0  0  0  0
  -11.2500    6.4952    0.0000 Cl  0  0  0  0  0  0  0  0  0  0  0  0
   -8.2500    3.8971    0.0000 C   0  0  0  0  0  0  0  0  0  0  0  0
   -7.5000    2.5981    0.0000 C   0  0  0  0  0  0  0  0  0  0  0  0
   -0.7500    1.2990    0.0000 C   0  0  0  0  0  0  0  0  0  0  0  0
    0.7500    1.2990    0.0000 C   0  0  0  0  0  0  0  0  0  0  0  0
    1.5000    2.5981    0.0000 Cl  0  0  0  0  0  0  0  0  0  0  0  0
  1  2  1  0
  2  3  2  0
  3  4  1  0
  4  5  2  0
  5  6  1  0
  6  7  1  0
  7  8  2  0
  7  9  1  0
  9 10  1  0
 10 11  1  0
 11 12  1  0
 12 13  1  0
 13 14  1  0
 14 15  2  0
 14 16  2  0
 14 17  1  0
 17 18  2  0
 18 19  1  0
 19 20  2  0
 20 21  1  0
 21 22  2  0
 22 23  1  0
 13 24  1  0
 24 25  1  0
  5 26  1  0
 26 27  2  0
 27 28  1  0
 27  2  1  0
 25 10  1  0
 22 17  1  0
M  CHG  1  10   1
M  END
>  <Compound_ID>  (261) 
C25408288

>  <Active>  (261) 
0.0

>  <Smiles>  (261) 
Cc1ccc(NC(=O)C[NH+]2CCN(S(=O)(=O)c3ccccc3Cl)CC2)cc1Cl

>  <canonical_smi>  (261) 
Cc1ccc(NC(=O)C[NH+]2CCN(S(=O)(=O)c3ccccc3Cl)CC2)cc1Cl

>  <Set>  (261) 
G2 inactive

>  <Set_type>  (261) 
Test

>  <MW>  (261) 
443.38

>  <HBD>  (261) 
2

>  <HBA>  (261) 
3

>  <NRB>  (261) 
5

>  <NR>  (261) 
3

>  <NAR>  (261) 
2

>  <PSA>  (261) 
70.92

>  <Standard Type>  (261) 
nan

>  <Standard Relation>  (261) 
nan

>  <Standard Units>  (261) 
nan

>  <Standard Value>  (261) 
nan

>  <Assay ChEMBL ID>  (261) 
nan

>  <Assay Description>  (261) 
nan

>  <BAO Label>  (261) 
nan

$$$$

     RDKit          2D

 34 39  0  0  0  0  0  0  0  0999 V2000
   -3.7500   -9.0933    0.0000 C   0  0  0  0  0  0  0  0  0  0  0  0
   -3.0000   -7.7942    0.0000 N   0  0  0  0  0  0  0  0  0  0  0  0
   -3.7500   -6.4952    0.0000 C   0  0  0  0  0  0  0  0  0  0  0  0
   -3.0000   -5.1962    0.0000 C   0  0  0  0  0  0  0  0  0  0  0  0
   -1.5000   -5.1962    0.0000 N   0  0  0  0  0  0  0  0  0  0  0  0
   -0.7500   -3.8971    0.0000 C   0  0  0  0  0  0  0  0  0  0  0  0
    0.7500   -3.8971    0.0000 N   0  0  0  0  0  0  0  0  0  0  0  0
    1.5000   -2.5981    0.0000 C   0  0  0  0  0  0  0  0  0  0  0  0
    3.0000   -2.5981    0.0000 C   0  0  0  0  0  0  0  0  0  0  0  0
    3.8817   -1.3846    0.0000 C   0  0  0  0  0  0  0  0  0  0  0  0
    3.4182    0.0420    0.0000 C   0  0  0  0  0  0  0  0  0  0  0  0
    1.9916    0.5056    0.0000 C   0  0  0  0  0  0  0  0  0  0  0  0
    1.9916    2.0056    0.0000 N   0  0  0  0  0  0  0  0  0  0  0  0
    0.7780    2.8872    0.0000 C   0  0  0  0  0  0  0  0  0  0  0  0
    3.4182    2.4691    0.0000 C   0  0  0  0  0  0  0  0  0  0  0  0
    4.0283    3.8394    0.0000 C   0  0  0  0  0  0  0  0  0  0  0  0
    5.5200    3.9962    0.0000 C   0  0  0  0  0  0  0  0  0  0  0  0
    6.4017    2.7827    0.0000 C   0  0  0  0  0  0  0  0  0  0  0  0
    5.7916    1.4124    0.0000 C   0  0  0  0  0  0  0  0  0  0  0  0
    4.2998    1.2556    0.0000 C   0  0  0  0  0  0  0  0  0  0  0  0
    5.3083   -1.8481    0.0000 C   0  0  0  0  0  0  0  0  0  0  0  0
    6.5218   -0.9664    0.0000 O   0  0  0  0  0  0  0  0  0  0  0  0
    5.3083   -3.3481    0.0000 N   0  0  0  0  0  0  0  0  0  0  0  0
    3.8817   -3.8116    0.0000 C   0  0  0  0  0  0  0  0  0  0  0  0
    3.4182   -5.2382    0.0000 O   0  0  0  0  0  0  0  0  0  0  0  0
    0.7500   -1.2990    0.0000 C   0  0  0  0  0  0  0  0  0  0  0  0
    1.5000    0.0000    0.0000 C   0  0  0  0  0  0  0  0  0  0  0  0
    0.7500    1.2990    0.0000 C   0  0  0  0  0  0  0  0  0  0  0  0
   -0.7500    1.2990    0.0000 C   0  0  0  0  0  0  0  0  0  0  0  0
   -1.5000    0.0000    0.0000 C   0  0  0  0  0  0  0  0  0  0  0  0
   -0.7500   -1.2990    0.0000 C   0  0  0  0  0  0  0  0  0  0  0  0
   -1.5000   -2.5981    0.0000 N   0  0  0  0  0  0  0  0  0  0  0  0
   -0.7500   -6.4952    0.0000 C   0  0  0  0  0  0  0  0  0  0  0  0
   -1.5000   -7.7942    0.0000 C   0  0  0  0  0  0  0  0  0  0  0  0
  1  2  1  0
  2  3  1  0
  3  4  1  0
  4  5  1  0
  5  6  1  0
  6  7  2  0
  7  8  1  0
  8  9  1  0
  9 10  2  0
 10 11  1  0
 11 12  2  0
 12 13  1  0
 13 14  1  0
 13 15  1  0
 15 16  2  0
 16 17  1  0
 17 18  2  0
 18 19  1  0
 19 20  2  0
 10 21  1  0
 21 22  2  0
 21 23  1  0
 23 24  1  0
 24 25  2  0
  8 26  2  0
 26 27  1  0
 27 28  2  0
 28 29  1  0
 29 30  2  0
 30 31  1  0
 31 32  2  0
  5 33  1  0
 33 34  1  0
 34  2  1  0
 32  6  1  0
 24  9  1  0
 31 26  1  0
 20 11  1  0
 20 15  1  0
M  END
>  <Compound_ID>  (262) 
CHEMBL2151412

>  <Active>  (262) 
1.0

>  <Smiles>  (262) 
CN1CCN(c2nc(C3=C(c4cn(C)c5ccccc45)C(=O)NC3=O)c3ccccc3n2)CC1

>  <canonical_smi>  (262) 
CN1CCN(c2nc(C3=C(c4cn(C)c5ccccc45)C(=O)NC3=O)c3ccccc3n2)CC1

>  <Set>  (262) 
G2 active

>  <Set_type>  (262) 
External

>  <MW>  (262) 
452.52

>  <HBD>  (262) 
1

>  <HBA>  (262) 
6

>  <NRB>  (262) 
3

>  <NR>  (262) 
6

>  <NAR>  (262) 
4

>  <PSA>  (262) 
83.36

>  <Standard Type>  (262) 
IC50

>  <Standard Relation>  (262) 
'='

>  <Standard Units>  (262) 
nM

>  <Standard Value>  (262) 
5.1

>  <Assay ChEMBL ID>  (262) 
CHEMBL2156012

>  <Assay Description>  (262) 
Inhibition of PKCbeta-1 by scintillation proximity assay

>  <BAO Label>  (262) 
single protein format

$$$$

     RDKit          2D

 30 34  0  0  0  0  0  0  0  0999 V2000
   -3.4182    0.0420    0.0000 O   0  0  0  0  0  0  0  0  0  0  0  0
   -3.8817   -1.3846    0.0000 C   0  0  0  0  0  0  0  0  0  0  0  0
   -5.3083   -1.8481    0.0000 N   0  0  0  0  0  0  0  0  0  0  0  0
   -5.3083   -3.3481    0.0000 C   0  0  0  0  0  0  0  0  0  0  0  0
   -6.5218   -4.2298    0.0000 O   0  0  0  0  0  0  0  0  0  0  0  0
   -3.8817   -3.8116    0.0000 C   0  0  0  0  0  0  0  0  0  0  0  0
   -3.4182   -5.2382    0.0000 C   0  0  0  0  0  0  0  0  0  0  0  0
   -1.9916   -5.7017    0.0000 C   0  0  0  0  0  0  0  0  0  0  0  0
   -1.9916   -7.2017    0.0000 N   0  0  0  0  0  0  0  0  0  0  0  0
   -0.7780   -8.0834    0.0000 C   0  0  0  0  0  0  0  0  0  0  0  0
    0.5923   -7.4733    0.0000 C   0  0  0  0  0  0  0  0  0  0  0  0
    1.8058   -8.3550    0.0000 C   0  0  0  0  0  0  0  0  0  0  0  0
    3.1761   -7.7449    0.0000 O   0  0  0  0  0  0  0  0  0  0  0  0
   -3.4182   -7.6652    0.0000 C   0  0  0  0  0  0  0  0  0  0  0  0
   -4.0283   -9.0356    0.0000 N   0  0  0  0  0  0  0  0  0  0  0  0
   -5.5200   -9.1923    0.0000 C   0  0  0  0  0  0  0  0  0  0  0  0
   -6.4017   -7.9788    0.0000 C   0  0  0  0  0  0  0  0  0  0  0  0
   -5.7916   -6.6085    0.0000 C   0  0  0  0  0  0  0  0  0  0  0  0
   -4.2998   -6.4517    0.0000 C   0  0  0  0  0  0  0  0  0  0  0  0
   -3.0000   -2.5981    0.0000 C   0  0  0  0  0  0  0  0  0  0  0  0
   -1.5000   -2.5981    0.0000 C   0  0  0  0  0  0  0  0  0  0  0  0
   -0.7500   -3.8971    0.0000 C   0  0  0  0  0  0  0  0  0  0  0  0
    0.7500   -3.8971    0.0000 C   0  0  0  0  0  0  0  0  0  0  0  0
    1.5000   -2.5981    0.0000 C   0  0  0  0  0  0  0  0  0  0  0  0
    0.7500   -1.2990    0.0000 C   0  0  0  0  0  0  0  0  0  0  0  0
    1.5000    0.0000    0.0000 C   0  0  0  0  0  0  0  0  0  0  0  0
    0.7500    1.2990    0.0000 C   0  0  0  0  0  0  0  0  0  0  0  0
   -0.7500    1.2990    0.0000 C   0  0  0  0  0  0  0  0  0  0  0  0
   -1.5000    0.0000    0.0000 C   0  0  0  0  0  0  0  0  0  0  0  0
   -0.7500   -1.2990    0.0000 C   0  0  0  0  0  0  0  0  0  0  0  0
  1  2  2  0
  2  3  1  0
  3  4  1  0
  4  5  2  0
  4  6  1  0
  6  7  1  0
  7  8  2  0
  8  9  1  0
  9 10  1  0
 10 11  1  0
 11 12  1  0
 12 13  1  0
  9 14  1  0
 14 15  2  0
 15 16  1  0
 16 17  2  0
 17 18  1  0
 18 19  2  0
  6 20  2  0
 20 21  1  0
 21 22  2  0
 22 23  1  0
 23 24  2  0
 24 25  1  0
 25 26  2  0
 26 27  1  0
 27 28  2  0
 28 29  1  0
 29 30  2  0
 20  2  1  0
 30 21  1  0
 19  7  1  0
 30 25  1  0
 19 14  1  0
M  END
>  <Compound_ID>  (263) 
CHEMBL430694

>  <Active>  (263) 
1.0

>  <Smiles>  (263) 
O=C1NC(=O)C(c2cn(CCCO)c3ncccc23)=C1c1cccc2ccccc12

>  <canonical_smi>  (263) 
O=C1NC(=O)C(c2cn(CCCO)c3ncccc23)=C1c1cccc2ccccc12

>  <Set>  (263) 
G2 active

>  <Set_type>  (263) 
External

>  <MW>  (263) 
397.43

>  <HBD>  (263) 
2

>  <HBA>  (263) 
4

>  <NRB>  (263) 
5

>  <NR>  (263) 
5

>  <NAR>  (263) 
4

>  <PSA>  (263) 
84.22

>  <Standard Type>  (263) 
IC50

>  <Standard Relation>  (263) 
'='

>  <Standard Units>  (263) 
nM

>  <Standard Value>  (263) 
270.0

>  <Assay ChEMBL ID>  (263) 
CHEMBL759475

>  <Assay Description>  (263) 
Inhibitory concentration against human protein kinase C-betaII using histone as substrate

>  <BAO Label>  (263) 
single protein format

$$$$

     RDKit          2D

 41 46  0  0  0  0  0  0  0  0999 V2000
   -3.0000   -2.5981    0.0000 C   0  0  0  0  0  0  0  0  0  0  0  0
   -1.5000   -2.5981    0.0000 C   0  0  0  0  0  0  0  0  0  0  0  0
   -0.7500   -3.8971    0.0000 C   0  0  0  0  0  0  0  0  0  0  0  0
    0.7500   -3.8971    0.0000 C   0  0  0  0  0  0  0  0  0  0  0  0
    1.5000   -5.1962    0.0000 O   0  0  0  0  0  0  0  0  0  0  0  0
    1.5000   -2.5981    0.0000 N   0  0  0  0  0  0  0  0  0  0  0  0
    0.7500   -1.2990    0.0000 C   0  0  0  0  0  0  0  0  0  0  0  0
    1.5000    0.0000    0.0000 N   0  0  0  0  0  0  0  0  0  0  0  0
    0.7500    1.2990    0.0000 C   0  0  0  0  0  0  0  0  0  0  0  0
   -0.7500    1.2990    0.0000 N   0  0  0  0  0  0  0  0  0  0  0  0
   -1.5000    0.0000    0.0000 C   0  0  0  0  0  0  0  0  0  0  0  0
   -3.0000    0.0000    0.0000 N   0  0  0  0  0  0  0  0  0  0  0  0
   -3.7500    1.2990    0.0000 C   0  0  0  0  0  0  0  0  0  0  0  0
   -5.2500    1.2990    0.0000 C   0  0  0  0  0  0  0  0  0  0  0  0
   -6.0000    0.0000    0.0000 C   0  0  0  0  0  0  0  0  0  0  0  0
   -7.5000    0.0000    0.0000 C   0  0  0  0  0  0  0  0  0  0  0  0
   -8.3817   -1.2135    0.0000 N   0  0  0  0  0  0  0  0  0  0  0  0
   -9.8083   -0.7500    0.0000 C   0  0  0  0  0  0  0  0  0  0  0  0
  -11.0218   -1.6317    0.0000 C   0  0  0  0  0  0  0  0  0  0  0  0
  -12.3921   -1.0216    0.0000 C   0  0  0  0  0  0  0  0  0  0  0  0
  -13.6056   -1.9033    0.0000 C   0  0  0  0  0  0  0  0  0  0  0  0
  -13.4488   -3.3950    0.0000 C   0  0  0  0  0  0  0  0  0  0  0  0
  -14.6624   -4.2767    0.0000 F   0  0  0  0  0  0  0  0  0  0  0  0
  -12.0785   -4.0051    0.0000 C   0  0  0  0  0  0  0  0  0  0  0  0
  -11.9217   -5.4969    0.0000 C   0  0  0  0  0  0  0  0  0  0  0  0
  -11.7649   -6.9887    0.0000 F   0  0  0  0  0  0  0  0  0  0  0  0
  -10.4299   -5.3401    0.0000 F   0  0  0  0  0  0  0  0  0  0  0  0
  -13.4135   -5.6537    0.0000 F   0  0  0  0  0  0  0  0  0  0  0  0
  -10.8650   -3.1235    0.0000 C   0  0  0  0  0  0  0  0  0  0  0  0
   -9.8083    0.7500    0.0000 C   0  0  0  0  0  0  0  0  0  0  0  0
   -8.3817    1.2135    0.0000 N   0  0  0  0  0  0  0  0  0  0  0  0
   -7.9182    2.6401    0.0000 C   0  0  0  0  0  0  0  0  0  0  0  0
   -8.9218    3.7548    0.0000 C   0  0  0  0  0  0  0  0  0  0  0  0
   -8.4583    5.1814    0.0000 N   0  0  0  0  0  0  0  0  0  0  0  0
   -9.3400    6.3949    0.0000 C   0  0  0  0  0  0  0  0  0  0  0  0
   -8.4583    7.6085    0.0000 C   0  0  0  0  0  0  0  0  0  0  0  0
   -7.0317    7.1449    0.0000 C   0  0  0  0  0  0  0  0  0  0  0  0
   -7.0317    5.6449    0.0000 C   0  0  0  0  0  0  0  0  0  0  0  0
   -5.2500   -1.2990    0.0000 C   0  0  0  0  0  0  0  0  0  0  0  0
   -3.7500   -1.2990    0.0000 C   0  0  0  0  0  0  0  0  0  0  0  0
   -0.7500   -1.2990    0.0000 C   0  0  0  0  0  0  0  0  0  0  0  0
  2  1  1  1
  2  3  1  0
  3  4  1  0
  4  5  2  0
  4  6  1  0
  6  7  1  0
  7  8  2  0
  8  9  1  0
  9 10  2  0
 10 11  1  0
 11 12  1  0
 12 13  1  0
 13 14  1  0
 14 15  1  0
 15 16  1  0
 16 17  2  0
 17 18  1  0
 18 19  1  0
 19 20  2  0
 20 21  1  0
 21 22  2  0
 22 23  1  0
 22 24  1  0
 24 25  1  0
 25 26  1  0
 25 27  1  0
 25 28  1  0
 24 29  2  0
 18 30  2  0
 30 31  1  0
 31 32  1  0
 32 33  1  0
 33 34  1  0
 34 35  1  0
 35 36  1  0
 36 37  1  0
 37 38  1  0
 15 39  1  0
 39 40  1  0
 11 41  2  0
 41  2  1  0
 41  7  1  0
 40 12  1  0
 31 16  1  0
 38 34  1  0
 29 19  1  0
M  END
>  <Compound_ID>  (264) 
CHEMBL4128457

>  <Active>  (264) 
1.0

>  <Smiles>  (264) 
C[C@@H]1CC(=O)Nc2ncnc(N3CCC(c4nc(-c5ccc(F)c(C(F)(F)F)c5)cn4CCN4CCCC4)CC3)c21

>  <canonical_smi>  (264) 
C[C@@H]1CC(=O)Nc2ncnc(N3CCC(c4nc(-c5ccc(F)c(C(F)(F)F)c5)cn4CCN4CCCC4)CC3)c21

>  <Set>  (264) 
G2 active

>  <Set_type>  (264) 
External

>  <MW>  (264) 
571.62

>  <HBD>  (264) 
1

>  <HBA>  (264) 
6

>  <NRB>  (264) 
6

>  <NR>  (264) 
6

>  <NAR>  (264) 
3

>  <PSA>  (264) 
79.18

>  <Standard Type>  (264) 
IC50

>  <Standard Relation>  (264) 
'='

>  <Standard Units>  (264) 
nM

>  <Standard Value>  (264) 
36.0

>  <Assay ChEMBL ID>  (264) 
CHEMBL4121777

>  <Assay Description>  (264) 
Inhibition of human PKCbeta2 measured at apparent ATP Km level

>  <BAO Label>  (264) 
single protein format

$$$$

     RDKit          2D

 31 35  0  0  0  0  0  0  0  0999 V2000
    5.2500   -1.2990    0.0000 C   0  0  0  0  0  0  0  0  0  0  0  0
    3.7500   -1.2990    0.0000 N   0  0  0  0  0  0  0  0  0  0  0  0
    3.0000   -2.5981    0.0000 C   0  0  0  0  0  0  0  0  0  0  0  0
    3.0000   -0.0000    0.0000 C   0  0  0  0  0  0  0  0  0  0  0  0
    1.5000   -0.0000    0.0000 C   0  0  0  0  0  0  0  0  0  0  0  0
    0.7500   -1.2990    0.0000 C   0  0  0  0  0  0  0  0  0  0  0  0
   -0.7500   -1.2990    0.0000 C   0  0  0  0  0  0  0  0  0  0  0  0
   -1.5000   -0.0000    0.0000 C   0  0  0  0  0  0  0  0  0  0  0  0
   -3.0000    0.0000    0.0000 C   0  0  0  0  0  0  0  0  0  0  0  0
   -3.7500    1.2990    0.0000 C   0  0  0  0  0  0  0  0  0  0  0  0
   -3.0000    2.5981    0.0000 C   0  0  0  0  0  0  0  0  0  0  0  0
   -4.0420    3.6770    0.0000 Cl  0  0  0  0  0  0  0  0  0  0  0  0
   -1.5000    2.5981    0.0000 C   0  0  0  0  0  0  0  0  0  0  0  0
   -0.7500    3.8971    0.0000 C   0  0  0  0  0  0  0  0  0  0  0  0
   -1.3601    5.2674    0.0000 C   0  0  0  0  0  0  0  0  0  0  0  0
   -2.8273    5.5793    0.0000 C   0  0  0  0  0  0  0  0  0  0  0  0
   -3.9420    4.5756    0.0000 C   0  0  0  0  0  0  0  0  0  0  0  0
   -5.2411    5.3256    0.0000 N   0  0  0  0  0  0  0  0  0  0  0  0
   -4.9292    6.7928    0.0000 C   0  0  0  0  0  0  0  0  0  0  0  0
   -5.8109    8.0064    0.0000 C   0  0  0  0  0  0  0  0  0  0  0  0
   -5.2008    9.3767    0.0000 C   0  0  0  0  0  0  0  0  0  0  0  0
   -3.7090    9.5335    0.0000 C   0  0  0  0  0  0  0  0  0  0  0  0
   -2.8273    8.3199    0.0000 C   0  0  0  0  0  0  0  0  0  0  0  0
   -3.4374    6.9496    0.0000 C   0  0  0  0  0  0  0  0  0  0  0  0
   -0.2454    6.2711    0.0000 C   0  0  0  0  0  0  0  0  0  0  0  0
   -0.4022    7.7629    0.0000 O   0  0  0  0  0  0  0  0  0  0  0  0
    1.0537    5.5211    0.0000 N   0  0  0  0  0  0  0  0  0  0  0  0
    0.7418    4.0539    0.0000 C   0  0  0  0  0  0  0  0  0  0  0  0
    1.7455    2.9392    0.0000 O   0  0  0  0  0  0  0  0  0  0  0  0
   -0.7500    1.2990    0.0000 C   0  0  0  0  0  0  0  0  0  0  0  0
    0.7500    1.2990    0.0000 C   0  0  0  0  0  0  0  0  0  0  0  0
  1  2  1  0
  2  3  1  0
  2  4  1  0
  4  5  1  0
  5  6  2  0
  6  7  1  0
  7  8  2  0
  8  9  1  0
  9 10  2  0
 10 11  1  0
 11 12  1  0
 11 13  2  0
 13 14  1  0
 14 15  2  0
 15 16  1  0
 16 17  2  0
 17 18  1  0
 18 19  1  0
 19 20  2  0
 20 21  1  0
 21 22  2  0
 22 23  1  0
 23 24  2  0
 15 25  1  0
 25 26  2  0
 25 27  1  0
 27 28  1  0
 28 29  2  0
 13 30  1  0
 30 31  2  0
 31  5  1  0
 30  8  1  0
 28 14  1  0
 24 16  1  0
 24 19  1  0
M  END
>  <Compound_ID>  (265) 
CHEMBL4102228

>  <Active>  (265) 
1.0

>  <Smiles>  (265) 
CN(C)Cc1ccc2ccc(Cl)c(C3=C(c4c[nH]c5ccccc45)C(=O)NC3=O)c2c1

>  <canonical_smi>  (265) 
CN(C)Cc1ccc2ccc(Cl)c(C3=C(c4c[nH]c5ccccc45)C(=O)NC3=O)c2c1

>  <Set>  (265) 
G2 active

>  <Set_type>  (265) 
External

>  <MW>  (265) 
429.91

>  <HBD>  (265) 
2

>  <HBA>  (265) 
3

>  <NRB>  (265) 
4

>  <NR>  (265) 
5

>  <NAR>  (265) 
4

>  <PSA>  (265) 
65.2

>  <Standard Type>  (265) 
IC50

>  <Standard Relation>  (265) 
'='

>  <Standard Units>  (265) 
nM

>  <Standard Value>  (265) 
0.7

>  <Assay ChEMBL ID>  (265) 
CHEMBL4004541

>  <Assay Description>  (265) 
Inhibition of PKCbeta1 (unknown origin) after 60 mins in presence of [gamma33P]ATP by scintillation proximity assay

>  <BAO Label>  (265) 
single protein format

$$$$

     RDKit          2D

 38 44  0  0  0  0  0  0  0  0999 V2000
   -1.5420    6.1680    0.0000 O   0  0  0  0  0  0  0  0  0  0  0  0
   -2.9464    5.6410    0.0000 C   0  0  0  0  0  0  0  0  0  0  0  0
   -4.1982    6.4673    0.0000 N   0  0  0  0  0  0  0  0  0  0  0  0
   -5.3710    5.5321    0.0000 C   0  0  0  0  0  0  0  0  0  0  0  0
   -6.8169    5.9311    0.0000 O   0  0  0  0  0  0  0  0  0  0  0  0
   -4.8439    4.1277    0.0000 C   0  0  0  0  0  0  0  0  0  0  0  0
   -5.6703    2.8759    0.0000 C   0  0  0  0  0  0  0  0  0  0  0  0
   -5.1432    1.4715    0.0000 C   0  0  0  0  0  0  0  0  0  0  0  0
   -6.3160    0.5363    0.0000 N   0  0  0  0  0  0  0  0  0  0  0  0
   -7.5678    1.3626    0.0000 C   0  0  0  0  0  0  0  0  0  0  0  0
   -9.0196    0.9853    0.0000 C   0  0  0  0  0  0  0  0  0  0  0  0
  -10.0723    2.0538    0.0000 C   0  0  0  0  0  0  0  0  0  0  0  0
   -9.6732    3.4998    0.0000 C   0  0  0  0  0  0  0  0  0  0  0  0
   -8.2215    3.8771    0.0000 C   0  0  0  0  0  0  0  0  0  0  0  0
   -7.1688    2.8086    0.0000 N   0  0  0  0  0  0  0  0  0  0  0  0
   -3.3454    4.1950    0.0000 C   0  0  0  0  0  0  0  0  0  0  0  0
   -2.4102    3.0223    0.0000 C   0  0  0  0  0  0  0  0  0  0  0  0
   -2.8093    1.5763    0.0000 C   0  0  0  0  0  0  0  0  0  0  0  0
   -1.5574    0.7500    0.0000 N   0  0  0  0  0  0  0  0  0  0  0  0
   -0.3846    1.6852    0.0000 C   0  0  0  0  0  0  0  0  0  0  0  0
    1.0777    1.3515    0.0000 C   0  0  0  0  0  0  0  0  0  0  0  0
    2.0317    2.5098    0.0000 C   0  0  0  0  0  0  0  0  0  0  0  0
    1.5469    3.9293    0.0000 C   0  0  0  0  0  0  0  0  0  0  0  0
    2.5338    5.0589    0.0000 F   0  0  0  0  0  0  0  0  0  0  0  0
    0.0752    4.2192    0.0000 C   0  0  0  0  0  0  0  0  0  0  0  0
   -0.9117    3.0896    0.0000 C   0  0  0  0  0  0  0  0  0  0  0  0
    1.7286    0.0000    0.0000 C   0  0  0  0  0  0  0  0  0  0  0  0
    1.0777   -1.3515    0.0000 N   0  0  0  0  0  0  0  0  0  0  0  0
    2.0130   -2.5242    0.0000 C   0  0  0  0  0  0  0  0  0  0  0  0
    3.4962   -2.3006    0.0000 O   0  0  0  0  0  0  0  0  0  0  0  0
    1.4650   -3.9205    0.0000 N   0  0  0  0  0  0  0  0  0  0  0  0
   -0.0183   -4.1441    0.0000 C   0  0  0  0  0  0  0  0  0  0  0  0
   -0.5663   -5.5404    0.0000 C   0  0  0  0  0  0  0  0  0  0  0  0
    0.3689   -6.7131    0.0000 C   0  0  0  0  0  0  0  0  0  0  0  0
    1.8522   -6.4896    0.0000 C   0  0  0  0  0  0  0  0  0  0  0  0
    2.4002   -5.0933    0.0000 C   0  0  0  0  0  0  0  0  0  0  0  0
   -0.3846   -1.6852    0.0000 C   0  0  0  0  0  0  0  0  0  0  0  0
   -1.5574   -0.7500    0.0000 C   0  0  0  0  0  0  0  0  0  0  0  0
  1  2  2  0
  2  3  1  0
  3  4  1  0
  4  5  2  0
  4  6  1  0
  6  7  1  0
  7  8  2  0
  8  9  1  0
  9 10  2  0
 10 11  1  0
 11 12  2  0
 12 13  1  0
 13 14  2  0
 14 15  1  0
  6 16  2  0
 16 17  1  0
 17 18  2  0
 18 19  1  0
 19 20  1  0
 20 21  2  0
 21 22  1  0
 22 23  2  0
 23 24  1  0
 23 25  1  0
 25 26  2  0
 21 27  1  0
 27 28  1  0
 28 29  1  0
 29 30  2  0
 29 31  1  0
 31 32  1  0
 32 33  1  0
 33 34  1  0
 34 35  1  0
 35 36  1  0
 28 37  1  0
 37 38  1  0
 16  2  1  0
 26 17  1  0
 36 31  1  0
 15  7  1  0
 38 19  1  0
 15 10  1  0
 26 20  1  0
M  END
>  <Compound_ID>  (266) 
CHEMBL362558

>  <Active>  (266) 
1.0

>  <Smiles>  (266) 
O=C1NC(=O)C(c2cnc3ccccn23)=C1c1cn2c3c(cc(F)cc13)CN(C(=O)N1CCCCC1)CC2

>  <canonical_smi>  (266) 
O=C1NC(=O)C(c2cnc3ccccn23)=C1c1cn2c3c(cc(F)cc13)CN(C(=O)N1CCCCC1)CC2

>  <Set>  (266) 
G2 active

>  <Set_type>  (266) 
External

>  <MW>  (266) 
512.55

>  <HBD>  (266) 
1

>  <HBA>  (266) 
4

>  <NRB>  (266) 
2

>  <NR>  (266) 
7

>  <NAR>  (266) 
4

>  <PSA>  (266) 
91.95

>  <Standard Type>  (266) 
IC50

>  <Standard Relation>  (266) 
'='

>  <Standard Units>  (266) 
nM

>  <Standard Value>  (266) 
420.0

>  <Assay ChEMBL ID>  (266) 
CHEMBL829308

>  <Assay Description>  (266) 
Inhibition of human Protein kinase C beta 2

>  <BAO Label>  (266) 
single protein format

$$$$

     RDKit          2D

 22 24  0  0  0  0  0  0  0  0999 V2000
   -5.2500   -2.3971    0.0000 C   0  0  0  0  0  0  0  0  0  0  0  0
   -5.2500   -3.8971    0.0000 C   0  0  0  0  0  0  0  0  0  0  0  0
   -5.2500   -5.3971    0.0000 C   0  0  0  0  0  0  0  0  0  0  0  0
   -6.7500   -3.8971    0.0000 N   0  0  0  0  0  0  0  0  0  0  0  0
   -3.7500   -3.8971    0.0000 C   0  0  0  0  0  0  0  0  0  0  0  0
   -3.0000   -2.5981    0.0000 N   0  0  0  0  0  0  0  0  0  0  0  0
   -1.5000   -2.5981    0.0000 C   0  0  0  0  0  0  0  0  0  0  0  0
   -0.7500   -3.8971    0.0000 N   0  0  0  0  0  0  0  0  0  0  0  0
    0.7500   -3.8971    0.0000 C   0  0  0  0  0  0  0  0  0  0  0  0
    1.5000   -5.1962    0.0000 C   0  0  0  0  0  0  0  0  0  0  0  0
    0.7500   -6.4952    0.0000 C   0  0  0  0  0  0  0  0  0  0  0  0
    1.5000   -7.7942    0.0000 C   0  0  0  0  0  0  0  0  0  0  0  0
    3.0000   -7.7942    0.0000 N   0  0  0  0  0  0  0  0  0  0  0  0
    3.7500   -6.4952    0.0000 C   0  0  0  0  0  0  0  0  0  0  0  0
    3.0000   -5.1962    0.0000 C   0  0  0  0  0  0  0  0  0  0  0  0
    1.5000   -2.5981    0.0000 C   0  0  0  0  0  0  0  0  0  0  0  0
    0.7500   -1.2990    0.0000 C   0  0  0  0  0  0  0  0  0  0  0  0
    1.5000    0.0000    0.0000 C   0  0  0  0  0  0  0  0  0  0  0  0
    0.7500    1.2990    0.0000 N   0  0  0  0  0  0  0  0  0  0  0  0
   -0.7500    1.2990    0.0000 C   0  0  0  0  0  0  0  0  0  0  0  0
   -1.5000    0.0000    0.0000 C   0  0  0  0  0  0  0  0  0  0  0  0
   -0.7500   -1.2990    0.0000 C   0  0  0  0  0  0  0  0  0  0  0  0
  1  2  1  0
  2  3  1  0
  2  4  1  0
  2  5  1  0
  5  6  1  0
  6  7  1  0
  7  8  2  0
  8  9  1  0
  9 10  1  0
 10 11  2  0
 11 12  1  0
 12 13  2  0
 13 14  1  0
 14 15  2  0
  9 16  2  0
 16 17  1  0
 17 18  2  0
 18 19  1  0
 19 20  2  0
 20 21  1  0
 21 22  2  0
 22  7  1  0
 15 10  1  0
 22 17  1  0
M  END
>  <Compound_ID>  (267) 
CHEMBL2147538

>  <Active>  (267) 
1.0

>  <Smiles>  (267) 
CC(C)(N)CNc1nc(-c2ccncc2)cc2cnccc12

>  <canonical_smi>  (267) 
CC(C)(N)CNc1nc(-c2ccncc2)cc2cnccc12

>  <Set>  (267) 
G2 active

>  <Set_type>  (267) 
External

>  <MW>  (267) 
293.37

>  <HBD>  (267) 
2

>  <HBA>  (267) 
5

>  <NRB>  (267) 
4

>  <NR>  (267) 
3

>  <NAR>  (267) 
3

>  <PSA>  (267) 
76.72

>  <Standard Type>  (267) 
IC50

>  <Standard Relation>  (267) 
'='

>  <Standard Units>  (267) 
nM

>  <Standard Value>  (267) 
942.0

>  <Assay ChEMBL ID>  (267) 
CHEMBL2150521

>  <Assay Description>  (267) 
Inhibition of recombinant human PKCbeta1 assessed as [33P]-ATP incorporation into tridecapeptide substrate after 60 mins by scintillation proximity assay

>  <BAO Label>  (267) 
single protein format

$$$$

     RDKit          2D

 32 36  0  0  0  0  0  0  0  0999 V2000
   -8.0346   -3.5760    0.0000 N   0  0  0  0  0  0  0  0  0  0  0  0
   -7.7227   -2.1088    0.0000 C   0  0  0  0  0  0  0  0  0  0  0  0
   -8.8374   -1.1051    0.0000 N   0  0  0  0  0  0  0  0  0  0  0  0
   -6.2961   -1.6453    0.0000 S   0  0  0  0  0  0  0  0  0  0  0  0
   -5.1814   -2.6490    0.0000 C   0  0  0  0  0  0  0  0  0  0  0  0
   -3.7548   -2.1855    0.0000 C   0  0  0  0  0  0  0  0  0  0  0  0
   -2.6401   -3.1891    0.0000 C   0  0  0  0  0  0  0  0  0  0  0  0
   -1.2135   -2.7256    0.0000 N   0  0  0  0  0  0  0  0  0  0  0  0
   -0.0000   -3.6073    0.0000 C   0  0  0  0  0  0  0  0  0  0  0  0
   -0.0000   -5.1073    0.0000 C   0  0  0  0  0  0  0  0  0  0  0  0
   -1.2135   -5.9890    0.0000 C   0  0  0  0  0  0  0  0  0  0  0  0
   -0.7500   -7.4156    0.0000 C   0  0  0  0  0  0  0  0  0  0  0  0
   -1.5000   -8.7146    0.0000 C   0  0  0  0  0  0  0  0  0  0  0  0
   -0.7500  -10.0136    0.0000 C   0  0  0  0  0  0  0  0  0  0  0  0
    0.7500  -10.0136    0.0000 C   0  0  0  0  0  0  0  0  0  0  0  0
    1.5000   -8.7146    0.0000 C   0  0  0  0  0  0  0  0  0  0  0  0
    0.7500   -7.4156    0.0000 C   0  0  0  0  0  0  0  0  0  0  0  0
    1.2135   -5.9890    0.0000 S   0  0  0  0  0  0  0  0  0  0  0  0
    1.2135   -2.7256    0.0000 C   0  0  0  0  0  0  0  0  0  0  0  0
    2.6401   -3.1891    0.0000 C   0  0  0  0  0  0  0  0  0  0  0  0
    3.8536   -2.3075    0.0000 C   0  0  0  0  0  0  0  0  0  0  0  0
    5.0672   -3.1891    0.0000 C   0  0  0  0  0  0  0  0  0  0  0  0
    6.4937   -2.7256    0.0000 O   0  0  0  0  0  0  0  0  0  0  0  0
    4.6036   -4.6157    0.0000 N   0  0  0  0  0  0  0  0  0  0  0  0
    3.1036   -4.6157    0.0000 C   0  0  0  0  0  0  0  0  0  0  0  0
    2.2220   -5.8293    0.0000 O   0  0  0  0  0  0  0  0  0  0  0  0
    0.7500   -1.2990    0.0000 C   0  0  0  0  0  0  0  0  0  0  0  0
    1.5000    0.0000    0.0000 C   0  0  0  0  0  0  0  0  0  0  0  0
    0.7500    1.2990    0.0000 C   0  0  0  0  0  0  0  0  0  0  0  0
   -0.7500    1.2990    0.0000 C   0  0  0  0  0  0  0  0  0  0  0  0
   -1.5000    0.0000    0.0000 C   0  0  0  0  0  0  0  0  0  0  0  0
   -0.7500   -1.2990    0.0000 C   0  0  0  0  0  0  0  0  0  0  0  0
  1  2  2  0
  2  3  1  0
  2  4  1  0
  4  5  1  0
  5  6  1  0
  6  7  1  0
  7  8  1  0
  8  9  1  0
  9 10  1  0
 10 11  2  0
 11 12  1  0
 12 13  2  0
 13 14  1  0
 14 15  2  0
 15 16  1  0
 16 17  2  0
 17 18  1  0
  9 19  2  0
 19 20  1  0
 20 21  2  0
 21 22  1  0
 22 23  2  0
 22 24  1  0
 24 25  1  0
 25 26  2  0
 19 27  1  0
 27 28  2  0
 28 29  1  0
 29 30  2  0
 30 31  1  0
 31 32  2  0
 32  8  1  0
 18 10  1  0
 25 20  1  0
 32 27  1  0
 17 12  1  0
M  END
>  <Compound_ID>  (268) 
CHEMBL350335

>  <Active>  (268) 
1.0

>  <Smiles>  (268) 
N=C(N)SCCCn1c(-c2cc3ccccc3s2)c(C2=CC(=O)NC2=O)c2ccccc21

>  <canonical_smi>  (268) 
N=C(N)SCCCn1c(-c2cc3ccccc3s2)c(C2=CC(=O)NC2=O)c2ccccc21

>  <Set>  (268) 
G2 active

>  <Set_type>  (268) 
External

>  <MW>  (268) 
460.58

>  <HBD>  (268) 
3

>  <HBA>  (268) 
4

>  <NRB>  (268) 
6

>  <NR>  (268) 
5

>  <NAR>  (268) 
4

>  <PSA>  (268) 
100.97

>  <Standard Type>  (268) 
IC50

>  <Standard Relation>  (268) 
'='

>  <Standard Units>  (268) 
nM

>  <Standard Value>  (268) 
3.0

>  <Assay ChEMBL ID>  (268) 
CHEMBL761751

>  <Assay Description>  (268) 
Inhibition of protein kinase C beta

>  <BAO Label>  (268) 
single protein format

$$$$

     RDKit          2D

 29 32  0  0  0  0  0  0  0  0999 V2000
   -6.1170   -7.0506    0.0000 C   0  0  0  0  0  0  0  0  0  0  0  0
   -4.6904   -6.5871    0.0000 N   0  0  0  0  0  0  0  0  0  0  0  0
   -3.5757   -7.5908    0.0000 C   0  0  0  0  0  0  0  0  0  0  0  0
   -4.3786   -5.1199    0.0000 C   0  0  0  0  0  0  0  0  0  0  0  0
   -2.9520   -4.6564    0.0000 C   0  0  0  0  0  0  0  0  0  0  0  0
   -2.6401   -3.1891    0.0000 C   0  0  0  0  0  0  0  0  0  0  0  0
   -1.2135   -2.7256    0.0000 N   0  0  0  0  0  0  0  0  0  0  0  0
   -0.0000   -3.6073    0.0000 C   0  0  0  0  0  0  0  0  0  0  0  0
    1.2135   -2.7256    0.0000 C   0  0  0  0  0  0  0  0  0  0  0  0
    2.6401   -3.1891    0.0000 C   0  0  0  0  0  0  0  0  0  0  0  0
    3.8536   -2.3075    0.0000 C   0  0  0  0  0  0  0  0  0  0  0  0
    3.8536   -0.8075    0.0000 N   0  0  0  0  0  0  0  0  0  0  0  0
    5.1527   -0.0575    0.0000 C   0  0  0  0  0  0  0  0  0  0  0  0
    6.4517   -0.8075    0.0000 C   0  0  0  0  0  0  0  0  0  0  0  0
    7.7508   -0.0575    0.0000 C   0  0  0  0  0  0  0  0  0  0  0  0
    7.7508    1.4425    0.0000 C   0  0  0  0  0  0  0  0  0  0  0  0
    6.4517    2.1925    0.0000 C   0  0  0  0  0  0  0  0  0  0  0  0
    5.1527    1.4425    0.0000 C   0  0  0  0  0  0  0  0  0  0  0  0
    5.0672   -3.1891    0.0000 C   0  0  0  0  0  0  0  0  0  0  0  0
    6.4937   -2.7256    0.0000 O   0  0  0  0  0  0  0  0  0  0  0  0
    4.6036   -4.6157    0.0000 N   0  0  0  0  0  0  0  0  0  0  0  0
    3.1036   -4.6157    0.0000 C   0  0  0  0  0  0  0  0  0  0  0  0
    2.2220   -5.8293    0.0000 O   0  0  0  0  0  0  0  0  0  0  0  0
    0.7500   -1.2990    0.0000 C   0  0  0  0  0  0  0  0  0  0  0  0
    1.5000    0.0000    0.0000 C   0  0  0  0  0  0  0  0  0  0  0  0
    0.7500    1.2990    0.0000 C   0  0  0  0  0  0  0  0  0  0  0  0
   -0.7500    1.2990    0.0000 C   0  0  0  0  0  0  0  0  0  0  0  0
   -1.5000    0.0000    0.0000 C   0  0  0  0  0  0  0  0  0  0  0  0
   -0.7500   -1.2990    0.0000 C   0  0  0  0  0  0  0  0  0  0  0  0
  1  2  1  0
  2  3  1  0
  2  4  1  0
  4  5  1  0
  5  6  1  0
  6  7  1  0
  7  8  1  0
  8  9  2  0
  9 10  1  0
 10 11  2  0
 11 12  1  0
 12 13  1  0
 13 14  2  0
 14 15  1  0
 15 16  2  0
 16 17  1  0
 17 18  2  0
 11 19  1  0
 19 20  2  0
 19 21  1  0
 21 22  1  0
 22 23  2  0
  9 24  1  0
 24 25  2  0
 25 26  1  0
 26 27  2  0
 27 28  1  0
 28 29  2  0
 29  7  1  0
 22 10  1  0
 29 24  1  0
 18 13  1  0
M  END
>  <Compound_ID>  (269) 
CHEMBL365656

>  <Active>  (269) 
1.0

>  <Smiles>  (269) 
CN(C)CCCn1cc(C2=C(Nc3ccccc3)C(=O)NC2=O)c2ccccc21

>  <canonical_smi>  (269) 
CN(C)CCCn1cc(C2=C(Nc3ccccc3)C(=O)NC2=O)c2ccccc21

>  <Set>  (269) 
G2 active

>  <Set_type>  (269) 
External

>  <MW>  (269) 
388.47

>  <HBD>  (269) 
2

>  <HBA>  (269) 
4

>  <NRB>  (269) 
7

>  <NR>  (269) 
4

>  <NAR>  (269) 
3

>  <PSA>  (269) 
66.37

>  <Standard Type>  (269) 
IC50

>  <Standard Relation>  (269) 
'='

>  <Standard Units>  (269) 
nM

>  <Standard Value>  (269) 
12.01

>  <Assay ChEMBL ID>  (269) 
CHEMBL3063098

>  <Assay Description>  (269) 
Inhibition of PKCbeta2 (unknown origin)

>  <BAO Label>  (269) 
single protein format

$$$$

     RDKit          2D

 35 42  0  0  0  0  0  0  0  0999 V2000
    7.0384   -5.9220    0.0000 C   0  0  0  0  0  0  0  0  0  0  0  0
    6.3474   -4.5907    0.0000 N   0  0  0  0  0  0  0  0  0  0  0  0
    4.8489   -4.5234    0.0000 C   0  0  0  0  0  0  0  0  0  0  0  0
    4.0414   -5.7874    0.0000 C   0  0  0  0  0  0  0  0  0  0  0  0
    2.5382   -5.8249    0.0000 C   0  0  0  0  0  0  0  0  0  0  0  0
    3.2490   -4.5040    0.0000 O   0  0  0  0  0  0  0  0  0  0  0  0
    2.6595   -3.1247    0.0000 C   0  0  0  0  0  0  0  0  0  0  0  0
    3.6464   -1.9951    0.0000 C   0  0  0  0  0  0  0  0  0  0  0  0
    4.1580   -3.1920    0.0000 C   0  0  0  0  0  0  0  0  0  0  0  0
    4.9655   -1.9279    0.0000 O   0  0  0  0  0  0  0  0  0  0  0  0
    6.4640   -1.9952    0.0000 C   0  0  0  0  0  0  0  0  0  0  0  0
    1.2135   -2.7256    0.0000 N   0  0  0  0  0  0  0  0  0  0  0  0
    0.7500   -1.2990    0.0000 C   0  0  0  0  0  0  0  0  0  0  0  0
    1.5000    0.0000    0.0000 C   0  0  0  0  0  0  0  0  0  0  0  0
    0.7500    1.2990    0.0000 C   0  0  0  0  0  0  0  0  0  0  0  0
   -0.7500    1.2990    0.0000 C   0  0  0  0  0  0  0  0  0  0  0  0
   -1.5000    0.0000    0.0000 C   0  0  0  0  0  0  0  0  0  0  0  0
   -0.7500   -1.2990    0.0000 C   0  0  0  0  0  0  0  0  0  0  0  0
   -1.2135   -2.7256    0.0000 C   0  0  0  0  0  0  0  0  0  0  0  0
   -2.5518   -3.5691    0.0000 C   0  0  0  0  0  0  0  0  0  0  0  0
   -2.6191   -5.0676    0.0000 C   0  0  0  0  0  0  0  0  0  0  0  0
   -1.3550   -5.8751    0.0000 C   0  0  0  0  0  0  0  0  0  0  0  0
   -1.0212   -7.3375    0.0000 C   0  0  0  0  0  0  0  0  0  0  0  0
   -1.8846   -8.5641    0.0000 C   0  0  0  0  0  0  0  0  0  0  0  0
   -1.2541   -9.9251    0.0000 C   0  0  0  0  0  0  0  0  0  0  0  0
    0.2399  -10.0596    0.0000 C   0  0  0  0  0  0  0  0  0  0  0  0
    1.1033   -8.8330    0.0000 C   0  0  0  0  0  0  0  0  0  0  0  0
    0.4728   -7.4720    0.0000 C   0  0  0  0  0  0  0  0  0  0  0  0
    1.0623   -6.0927    0.0000 N   0  0  0  0  0  0  0  0  0  0  0  0
   -0.0673   -5.1058    0.0000 C   0  0  0  0  0  0  0  0  0  0  0  0
   -0.0000   -3.6073    0.0000 C   0  0  0  0  0  0  0  0  0  0  0  0
   -4.0650   -5.4667    0.0000 C   0  0  0  0  0  0  0  0  0  0  0  0
   -4.5921   -6.8710    0.0000 O   0  0  0  0  0  0  0  0  0  0  0  0
   -4.8913   -4.2148    0.0000 N   0  0  0  0  0  0  0  0  0  0  0  0
   -3.9561   -3.0421    0.0000 C   0  0  0  0  0  0  0  0  0  0  0  0
  1  2  1  0
  3  2  1  6
  3  4  1  0
  5  4  1  6
  5  6  1  0
  6  7  1  0
  7  8  1  1
  7  9  1  0
  9 10  1  6
 10 11  1  0
  7 12  1  0
 12 13  1  0
 13 14  2  0
 14 15  1  0
 15 16  2  0
 16 17  1  0
 17 18  2  0
 18 19  1  0
 19 20  2  0
 20 21  1  0
 21 22  2  0
 22 23  1  0
 23 24  2  0
 24 25  1  0
 25 26  2  0
 26 27  1  0
 27 28  2  0
 28 29  1  0
 29 30  1  0
 30 31  2  0
 21 32  1  0
 32 33  2  0
 32 34  1  0
 34 35  1  0
  9  3  1  0
 31 12  1  0
 29  5  1  0
 18 13  1  0
 31 19  1  0
 35 20  1  0
 30 22  1  0
 28 23  1  0
M  END
>  <Compound_ID>  (270) 
CHEMBL388978

>  <Active>  (270) 
1.0

>  <Smiles>  (270) 
CN[C@@H]1C[C@H]2O[C@@](C)([C@@H]1OC)n1c3ccccc3c3c4c(c5c6ccccc6n2c5c31)C(=O)NC4

>  <canonical_smi>  (270) 
CN[C@@H]1C[C@H]2O[C@@](C)([C@@H]1OC)n1c3ccccc3c3c4c(c5c6ccccc6n2c5c31)C(=O)NC4

>  <Set>  (270) 
G2 active

>  <Set_type>  (270) 
External

>  <MW>  (270) 
466.54

>  <HBD>  (270) 
2

>  <HBA>  (270) 
4

>  <NRB>  (270) 
2

>  <NR>  (270) 
8

>  <NAR>  (270) 
5

>  <PSA>  (270) 
69.45

>  <Standard Type>  (270) 
IC50

>  <Standard Relation>  (270) 
'='

>  <Standard Units>  (270) 
nM

>  <Standard Value>  (270) 
18.57

>  <Assay ChEMBL ID>  (270) 
CHEMBL768280

>  <Assay Description>  (270) 
Inhibition of Protein kinase C beta 2

>  <BAO Label>  (270) 
single protein format

$$$$

     RDKit          2D

 40 44  0  0  0  0  0  0  0  0999 V2000
    0.9751    3.9065    0.0000 O   0  0  0  0  0  0  0  0  0  0  0  0
   -0.4921    4.2184    0.0000 C   0  0  0  0  0  0  0  0  0  0  0  0
   -1.4958    3.1036    0.0000 N   0  0  0  0  0  0  0  0  0  0  0  0
   -1.0323    1.6771    0.0000 C   0  0  0  0  0  0  0  0  0  0  0  0
    0.3943    1.2135    0.0000 C   0  0  0  0  0  0  0  0  0  0  0  0
    1.2760    0.0000    0.0000 C   0  0  0  0  0  0  0  0  0  0  0  0
    0.3943   -1.2135    0.0000 C   0  0  0  0  0  0  0  0  0  0  0  0
   -1.0323   -0.7500    0.0000 C   0  0  0  0  0  0  0  0  0  0  0  0
   -1.0323    0.7500    0.0000 C   0  0  0  0  0  0  0  0  0  0  0  0
   -1.9140    0.4635    0.0000 C   0  0  0  0  0  0  0  0  0  0  0  0
   -3.4140    0.4635    0.0000 O   0  0  0  0  0  0  0  0  0  0  0  0
   -4.1640   -0.8355    0.0000 C   0  0  0  0  0  0  0  0  0  0  0  0
   -3.4140   -2.1346    0.0000 O   0  0  0  0  0  0  0  0  0  0  0  0
   -5.6640   -0.8355    0.0000 C   0  0  0  0  0  0  0  0  0  0  0  0
   -6.4140    0.4635    0.0000 C   0  0  0  0  0  0  0  0  0  0  0  0
   -7.9140    0.4635    0.0000 C   0  0  0  0  0  0  0  0  0  0  0  0
   -8.6640    1.7626    0.0000 O   0  0  0  0  0  0  0  0  0  0  0  0
   -8.6640   -0.8355    0.0000 C   0  0  0  0  0  0  0  0  0  0  0  0
  -10.1640   -0.8355    0.0000 C   0  0  0  0  0  0  0  0  0  0  0  0
  -10.9140    0.4635    0.0000 O   0  0  0  0  0  0  0  0  0  0  0  0
  -10.9140   -2.1346    0.0000 C   0  0  0  0  0  0  0  0  0  0  0  0
  -10.1640   -3.4336    0.0000 C   0  0  0  0  0  0  0  0  0  0  0  0
   -9.1872   -3.5536    0.0000 O   0  0  0  0  0  0  0  0  0  0  0  0
  -10.9140   -4.7326    0.0000 C   0  0  0  0  0  0  0  0  0  0  0  0
  -12.4140   -4.7326    0.0000 C   0  0  0  0  0  0  0  0  0  0  0  0
  -13.1640   -3.4336    0.0000 C   0  0  0  0  0  0  0  0  0  0  0  0
  -12.4140   -2.1346    0.0000 C   0  0  0  0  0  0  0  0  0  0  0  0
  -13.1640   -0.8355    0.0000 C   0  0  0  0  0  0  0  0  0  0  0  0
  -12.4140    0.4635    0.0000 O   0  0  0  0  0  0  0  0  0  0  0  0
  -14.6640   -0.8355    0.0000 O   0  0  0  0  0  0  0  0  0  0  0  0
   -7.9140   -2.1346    0.0000 C   0  0  0  0  0  0  0  0  0  0  0  0
   -8.2985   -3.0405    0.0000 O   0  0  0  0  0  0  0  0  0  0  0  0
   -6.4140   -2.1346    0.0000 C   0  0  0  0  0  0  0  0  0  0  0  0
   -0.9556    5.6449    0.0000 C   0  0  0  0  0  0  0  0  0  0  0  0
    0.0481    6.7597    0.0000 C   0  0  0  0  0  0  0  0  0  0  0  0
   -0.4155    8.1862    0.0000 C   0  0  0  0  0  0  0  0  0  0  0  0
   -1.8827    8.4981    0.0000 C   0  0  0  0  0  0  0  0  0  0  0  0
   -2.3462    9.9247    0.0000 O   0  0  0  0  0  0  0  0  0  0  0  0
   -2.8864    7.3834    0.0000 C   0  0  0  0  0  0  0  0  0  0  0  0
   -2.4229    5.9568    0.0000 C   0  0  0  0  0  0  0  0  0  0  0  0
  1  2  2  0
  2  3  1  0
  4  3  1  6
  4  5  1  0
  5  6  1  0
  6  7  1  0
  7  8  1  0
  8  9  1  0
  8 10  1  0
 10 11  1  1
 11 12  1  0
 12 13  2  0
 12 14  1  0
 14 15  2  0
 15 16  1  0
 16 17  1  0
 16 18  2  0
 18 19  1  0
 19 20  2  0
 19 21  1  0
 21 22  2  0
 22 23  1  0
 22 24  1  0
 24 25  2  0
 25 26  1  0
 26 27  2  0
 27 28  1  0
 28 29  2  0
 28 30  1  0
 18 31  1  0
 31 32  1  0
 31 33  2  0
  2 34  1  0
 34 35  2  0
 35 36  1  0
 36 37  2  0
 37 38  1  0
 37 39  1  0
 39 40  2  0
 10  4  1  0
 33 14  1  0
 40 34  1  0
  9  5  1  0
 27 21  1  0
M  END
>  <Compound_ID>  (271) 
CHEMBL80525

>  <Active>  (271) 
1.0

>  <Smiles>  (271) 
O=C(N[C@@H]1C2CCC(C2)[C@H]1OC(=O)c1cc(O)c(C(=O)c2c(O)cccc2C(=O)O)c(O)c1)c1ccc(O)cc1

>  <canonical_smi>  (271) 
O=C(N[C@@H]1C2CCC(C2)[C@H]1OC(=O)c1cc(O)c(C(=O)c2c(O)cccc2C(=O)O)c(O)c1)c1ccc(O)cc1

>  <Set>  (271) 
G2 active

>  <Set_type>  (271) 
External

>  <MW>  (271) 
547.52

>  <HBD>  (271) 
6

>  <HBA>  (271) 
10

>  <NRB>  (271) 
7

>  <NR>  (271) 
5

>  <NAR>  (271) 
3

>  <PSA>  (271) 
190.69

>  <Standard Type>  (271) 
IC50

>  <Standard Relation>  (271) 
'='

>  <Standard Units>  (271) 
nM

>  <Standard Value>  (271) 
40.0

>  <Assay ChEMBL ID>  (271) 
CHEMBL768098

>  <Assay Description>  (271) 
Inhibitory concentration against recombinant human Protein kinase C beta 2 isozyme

>  <BAO Label>  (271) 
single protein format

$$$$

     RDKit          2D

 29 31  0  0  0  0  0  0  0  0999 V2000
    5.2500   -1.2990    0.0000 C   0  0  0  0  0  0  0  0  0  0  0  0
    3.7500   -1.2990    0.0000 C   0  0  0  0  0  0  0  0  0  0  0  0
    3.0000   -2.5981    0.0000 C   0  0  0  0  0  0  0  0  0  0  0  0
    3.0000    0.0000    0.0000 C   0  0  0  0  0  0  0  0  0  0  0  0
    1.5000    0.0000    0.0000 C   0  0  0  0  0  0  0  0  0  0  0  0
    0.7500   -1.2990    0.0000 C   0  0  0  0  0  0  0  0  0  0  0  0
   -0.7500   -1.2990    0.0000 N   0  0  0  0  0  0  0  0  0  0  0  0
   -1.5000   -2.5981    0.0000 C   0  0  0  0  0  0  0  0  0  0  0  0
   -3.0000   -2.5981    0.0000 C   0  0  0  0  0  0  0  0  0  0  0  0
   -3.7500   -3.8971    0.0000 C   0  0  0  0  0  0  0  0  0  0  0  0
   -3.0000   -5.1962    0.0000 C   0  0  0  0  0  0  0  0  0  0  0  0
   -3.7500   -6.4952    0.0000 C   0  0  0  0  0  0  0  0  0  0  0  0
   -4.5000   -7.7942    0.0000 F   0  0  0  0  0  0  0  0  0  0  0  0
   -5.0490   -5.7452    0.0000 F   0  0  0  0  0  0  0  0  0  0  0  0
   -2.4510   -7.2452    0.0000 F   0  0  0  0  0  0  0  0  0  0  0  0
   -1.5000   -5.1962    0.0000 C   0  0  0  0  0  0  0  0  0  0  0  0
   -0.7500   -6.4952    0.0000 C   0  0  0  0  0  0  0  0  0  0  0  0
   -1.5000   -7.7942    0.0000 O   0  0  0  0  0  0  0  0  0  0  0  0
    0.7500   -6.4952    0.0000 C   0  0  0  0  0  0  0  0  0  0  0  0
    1.5000   -7.7942    0.0000 C   0  0  0  0  0  0  0  0  0  0  0  0
    3.0000   -7.7942    0.0000 C   0  0  0  0  0  0  0  0  0  0  0  0
    3.7500   -6.4952    0.0000 C   0  0  0  0  0  0  0  0  0  0  0  0
    3.0000   -5.1962    0.0000 N   0  0  0  0  0  0  0  0  0  0  0  0
    1.5000   -5.1962    0.0000 C   0  0  0  0  0  0  0  0  0  0  0  0
    0.7500   -3.8971    0.0000 N   0  0  0  0  0  0  0  0  0  0  0  0
   -0.7500   -3.8971    0.0000 N   0  0  0  0  0  0  0  0  0  0  0  0
   -1.5000    0.0000    0.0000 C   0  0  0  0  0  0  0  0  0  0  0  0
   -0.7500    1.2990    0.0000 C   0  0  0  0  0  0  0  0  0  0  0  0
    0.7500    1.2990    0.0000 N   0  0  0  0  0  0  0  0  0  0  0  0
  1  2  1  0
  2  3  1  0
  2  4  1  0
  5  4  1  1
  5  6  1  0
  6  7  1  0
  7  8  1  0
  8  9  2  0
  9 10  1  0
 10 11  2  0
 11 12  1  0
 12 13  1  0
 12 14  1  0
 12 15  1  0
 11 16  1  0
 16 17  1  0
 17 18  2  0
 17 19  1  0
 19 20  2  0
 20 21  1  0
 21 22  2  0
 22 23  1  0
 23 24  2  0
 24 25  1  0
 16 26  2  0
  7 27  1  0
 27 28  1  0
 28 29  1  0
 29  5  1  0
 26  8  1  0
 24 19  1  0
M  END
>  <Compound_ID>  (272) 
CHEMBL2046643

>  <Active>  (272) 
1.0

>  <Smiles>  (272) 
CC(C)C[C@H]1CN(c2ccc(C(F)(F)F)c(C(=O)c3cccnc3N)n2)CCN1

>  <canonical_smi>  (272) 
CC(C)C[C@H]1CN(c2ccc(C(F)(F)F)c(C(=O)c3cccnc3N)n2)CCN1

>  <Set>  (272) 
G2 active

>  <Set_type>  (272) 
External

>  <MW>  (272) 
407.44

>  <HBD>  (272) 
2

>  <HBA>  (272) 
6

>  <NRB>  (272) 
5

>  <NR>  (272) 
3

>  <NAR>  (272) 
2

>  <PSA>  (272) 
84.14

>  <Standard Type>  (272) 
Ki

>  <Standard Relation>  (272) 
'='

>  <Standard Units>  (272) 
nM

>  <Standard Value>  (272) 
260.0

>  <Assay ChEMBL ID>  (272) 
CHEMBL2049856

>  <Assay Description>  (272) 
Inhibition of PKCbeta

>  <BAO Label>  (272) 
single protein format

$$$$

     RDKit          2D

 29 31  0  0  0  0  0  0  0  0999 V2000
   13.5000   -5.1962    0.0000 C   0  0  0  0  0  0  0  0  0  0  0  0
   12.7500   -3.8971    0.0000 C   0  0  0  0  0  0  0  0  0  0  0  0
   11.2500   -3.8971    0.0000 C   0  0  0  0  0  0  0  0  0  0  0  0
   10.5000   -2.5981    0.0000 C   0  0  0  0  0  0  0  0  0  0  0  0
    9.0000   -2.5981    0.0000 C   0  0  0  0  0  0  0  0  0  0  0  0
    8.2500   -1.2990    0.0000 C   0  0  0  0  0  0  0  0  0  0  0  0
    6.7500   -1.2990    0.0000 C   0  0  0  0  0  0  0  0  0  0  0  0
    6.0000    0.0000    0.0000 C   0  0  0  0  0  0  0  0  0  0  0  0
    4.5000    0.0000    0.0000 C   0  0  0  0  0  0  0  0  0  0  0  0
    3.0000    0.0000    0.0000 C   0  0  0  0  0  0  0  0  0  0  0  0
    1.5000    0.0000    0.0000 C   0  0  0  0  0  0  0  0  0  0  0  0
    0.7500   -1.2990    0.0000 C   0  0  0  0  0  0  0  0  0  0  0  0
   -0.7500   -1.2990    0.0000 C   0  0  0  0  0  0  0  0  0  0  0  0
   -1.5000    0.0000    0.0000 C   0  0  0  0  0  0  0  0  0  0  0  0
   -0.7500    1.2990    0.0000 C   0  0  0  0  0  0  0  0  0  0  0  0
    0.7500    1.2990    0.0000 C   0  0  0  0  0  0  0  0  0  0  0  0
   -1.7537    2.4138    0.0000 C   0  0  0  0  0  0  0  0  0  0  0  0
   -0.5402    3.2954    0.0000 C   0  0  0  0  0  0  0  0  0  0  0  0
   -2.5037    3.7128    0.0000 C   0  0  0  0  0  0  0  0  0  0  0  0
   -1.7537    5.0118    0.0000 C   0  0  0  0  0  0  0  0  0  0  0  0
   -4.0037    3.7128    0.0000 C   0  0  0  0  0  0  0  0  0  0  0  0
   -3.1240    1.8037    0.0000 C   0  0  0  0  0  0  0  0  0  0  0  0
   -4.5912    2.1155    0.0000 C   0  0  0  0  0  0  0  0  0  0  0  0
   -5.2013    3.4858    0.0000 O   0  0  0  0  0  0  0  0  0  0  0  0
   -5.3412    0.8165    0.0000 N   0  0  0  0  0  0  0  0  0  0  0  0
   -4.3375   -0.2982    0.0000 C   0  0  0  0  0  0  0  0  0  0  0  0
   -4.6494   -1.7655    0.0000 C   0  0  0  0  0  0  0  0  0  0  0  0
   -6.0760   -2.2290    0.0000 O   0  0  0  0  0  0  0  0  0  0  0  0
   -2.9672    0.3119    0.0000 C   0  0  0  0  0  0  0  0  0  0  0  0
  1  2  1  0
  2  3  1  0
  3  4  1  0
  4  5  1  0
  5  6  1  0
  6  7  1  0
  7  8  1  0
  8  9  1  0
  9 10  3  0
 10 11  1  0
 11 12  2  0
 12 13  1  0
 13 14  2  0
 14 15  1  0
 15 16  2  0
 15 17  1  0
 17 18  1  6
 17 19  1  0
 19 20  1  0
 19 21  1  0
 17 22  1  0
 22 23  1  6
 23 24  2  0
 23 25  1  0
 25 26  1  0
 26 27  1  1
 27 28  1  0
 26 29  1  0
 16 11  1  0
 29 22  1  0
 29 14  1  6
M  END
>  <Compound_ID>  (273) 
CHEMBL440201

>  <Active>  (273) 
1.0

>  <Smiles>  (273) 
CCCCCCCCC#Cc1ccc2c(c1)[C@](C)(C(C)C)[C@H]1C(=O)N[C@H](CO)[C@@H]21

>  <canonical_smi>  (273) 
CCCCCCCCC#Cc1ccc2c(c1)[C@](C)(C(C)C)[C@H]1C(=O)N[C@H](CO)[C@@H]21

>  <Set>  (273) 
G2 active

>  <Set_type>  (273) 
External

>  <MW>  (273) 
395.59

>  <HBD>  (273) 
2

>  <HBA>  (273) 
2

>  <NRB>  (273) 
8

>  <NR>  (273) 
3

>  <NAR>  (273) 
1

>  <PSA>  (273) 
49.33

>  <Standard Type>  (273) 
Ki

>  <Standard Relation>  (273) 
'='

>  <Standard Units>  (273) 
nM

>  <Standard Value>  (273) 
701.0

>  <Assay ChEMBL ID>  (273) 
CHEMBL823901

>  <Assay Description>  (273) 
Inhibition of [3H]-phorbol 12,13-dibutyrate (PDBu) binding to human recombinant protein kinase C beta

>  <BAO Label>  (273) 
single protein format

$$$$

     RDKit          2D

 34 38  0  0  0  0  0  0  0  0999 V2000
    1.6078    3.5952    0.0000 C   0  0  0  0  0  0  0  0  0  0  0  0
    0.3943    2.7135    0.0000 C   0  0  0  0  0  0  0  0  0  0  0  0
    0.3943    1.2135    0.0000 C   0  0  0  0  0  0  0  0  0  0  0  0
    1.2760    0.0000    0.0000 N   0  0  0  0  0  0  0  0  0  0  0  0
    0.3943   -1.2135    0.0000 N   0  0  0  0  0  0  0  0  0  0  0  0
   -1.0323   -0.7500    0.0000 C   0  0  0  0  0  0  0  0  0  0  0  0
   -2.2458   -1.6317    0.0000 N   0  0  0  0  0  0  0  0  0  0  0  0
   -3.6161   -1.0216    0.0000 C   0  0  0  0  0  0  0  0  0  0  0  0
   -3.7729    0.4702    0.0000 O   0  0  0  0  0  0  0  0  0  0  0  0
   -4.8297   -1.9033    0.0000 C   0  0  0  0  0  0  0  0  0  0  0  0
   -6.2000   -1.2931    0.0000 C   0  0  0  0  0  0  0  0  0  0  0  0
   -7.4135   -2.1748    0.0000 C   0  0  0  0  0  0  0  0  0  0  0  0
   -7.2567   -3.6666    0.0000 C   0  0  0  0  0  0  0  0  0  0  0  0
   -5.8864   -4.2767    0.0000 C   0  0  0  0  0  0  0  0  0  0  0  0
   -4.6729   -3.3950    0.0000 C   0  0  0  0  0  0  0  0  0  0  0  0
   -1.0323    0.7500    0.0000 C   0  0  0  0  0  0  0  0  0  0  0  0
   -1.9140    1.9635    0.0000 C   0  0  0  0  0  0  0  0  0  0  0  0
   -1.0323    3.1771    0.0000 N   0  0  0  0  0  0  0  0  0  0  0  0
   -1.4958    4.6036    0.0000 C   0  0  0  0  0  0  0  0  0  0  0  0
   -0.4921    5.7184    0.0000 O   0  0  0  0  0  0  0  0  0  0  0  0
   -2.9630    4.9155    0.0000 N   0  0  0  0  0  0  0  0  0  0  0  0
   -3.9667    3.8008    0.0000 C   0  0  0  0  0  0  0  0  0  0  0  0
   -5.4340    4.1127    0.0000 C   0  0  0  0  0  0  0  0  0  0  0  0
   -5.8975    5.5392    0.0000 N   0  0  0  0  0  0  0  0  0  0  0  0
   -7.3647    5.8511    0.0000 C   0  0  0  0  0  0  0  0  0  0  0  0
   -4.8938    6.6540    0.0000 C   0  0  0  0  0  0  0  0  0  0  0  0
   -3.4266    6.3421    0.0000 C   0  0  0  0  0  0  0  0  0  0  0  0
   -2.4229    7.4568    0.0000 C   0  0  0  0  0  0  0  0  0  0  0  0
   -2.8864    8.8834    0.0000 C   0  0  0  0  0  0  0  0  0  0  0  0
   -1.8827    9.9981    0.0000 C   0  0  0  0  0  0  0  0  0  0  0  0
   -2.3462   11.4247    0.0000 C   0  0  0  0  0  0  0  0  0  0  0  0
   -3.8134   11.7366    0.0000 C   0  0  0  0  0  0  0  0  0  0  0  0
   -4.8171   10.6218    0.0000 C   0  0  0  0  0  0  0  0  0  0  0  0
   -4.3536    9.1953    0.0000 C   0  0  0  0  0  0  0  0  0  0  0  0
  1  2  1  0
  2  3  1  0
  3  4  1  0
  4  5  1  0
  5  6  2  0
  6  7  1  0
  7  8  1  0
  8  9  2  0
  8 10  1  0
 10 11  2  0
 11 12  1  0
 12 13  2  0
 13 14  1  0
 14 15  2  0
  6 16  1  0
 16 17  1  0
 17 18  1  0
 18 19  1  0
 19 20  2  0
 19 21  1  0
 21 22  1  0
 22 23  1  0
 23 24  1  0
 24 25  1  0
 24 26  1  0
 26 27  1  0
 27 28  1  6
 28 29  1  0
 29 30  2  0
 30 31  1  0
 31 32  2  0
 32 33  1  0
 33 34  2  0
 18  2  1  0
 27 21  1  0
 34 29  1  0
 16  3  2  0
 15 10  1  0
M  END
>  <Compound_ID>  (274) 
CHEMBL3901971

>  <Active>  (274) 
1.0

>  <Smiles>  (274) 
CC1c2[nH]nc(NC(=O)c3ccccc3)c2CN1C(=O)N1CCN(C)C[C@@H]1Cc1ccccc1

>  <canonical_smi>  (274) 
CC1c2[nH]nc(NC(=O)c3ccccc3)c2CN1C(=O)N1CCN(C)C[C@@H]1Cc1ccccc1

>  <Set>  (274) 
G2 active

>  <Set_type>  (274) 
External

>  <MW>  (274) 
458.57

>  <HBD>  (274) 
2

>  <HBA>  (274) 
4

>  <NRB>  (274) 
4

>  <NR>  (274) 
5

>  <NAR>  (274) 
3

>  <PSA>  (274) 
84.57

>  <Standard Type>  (274) 
Ki

>  <Standard Relation>  (274) 
'='

>  <Standard Units>  (274) 
nM

>  <Standard Value>  (274) 
189.0

>  <Assay ChEMBL ID>  (274) 
CHEMBL3705825

>  <Assay Description>  (274) 
Inhibition Assay: Protein Kinase C beta 2 (PKC beta II) catalyzes the production of ADP from ATP that accompanies the phosphoryl transfer to the PKC Pseudosubstrate peptide (A->S, RFARKGSLRQKNV). This transfer is coupled to the oxidation of p-NADH through the activities of Pyruvate Kinase (PK) and Lactate Dehydrogenase (LDH). (3-NADH conversion to NAD+ is monitored by the decrease in absorbance at 340 nm (e=6.22 cm-1 mM-1) using a Molecular Devices SPECTRA max PLUS spectrophotometer.A typical assay was carried out on a 96-well, clear microtiter plate in a Molecular Devices spectrophotometer for 20 minutes at 30 C. in 0.1 mL of assay buffer containing 50 mM HEPES, pH 7.4, 5 nM PKC, 23 units of pyruvate kinase, 33 units of lactate dehydrogenase, 0.15 mM peptide, 0.1 mM ATP, 1 mM DTT, 4 mM PEP, 8 mM MgCl2, 0.3 mM NADH, 60 mM CaCl2, 10 mg/mL PS, 50 ng/mL PMA, 7.5% DMSO and from about 10,000 nM to 0.169 nM compound inhibitor.

>  <BAO Label>  (274) 
single protein format

$$$$

     RDKit          2D

 32 36  0  0  0  0  0  0  0  0999 V2000
    1.3299    5.6152    0.0000 C   0  0  0  0  0  0  0  0  0  0  0  0
   -0.0967    5.1517    0.0000 C   0  0  0  0  0  0  0  0  0  0  0  0
   -0.4086    3.6844    0.0000 C   0  0  0  0  0  0  0  0  0  0  0  0
    0.7062    2.6807    0.0000 C   0  0  0  0  0  0  0  0  0  0  0  0
    0.3943    1.2135    0.0000 N   0  0  0  0  0  0  0  0  0  0  0  0
    1.2760    0.0000    0.0000 C   0  0  0  0  0  0  0  0  0  0  0  0
    0.3943   -1.2135    0.0000 C   0  0  0  0  0  0  0  0  0  0  0  0
   -1.0323   -0.7500    0.0000 C   0  0  0  0  0  0  0  0  0  0  0  0
   -1.0323    0.7500    0.0000 C   0  0  0  0  0  0  0  0  0  0  0  0
   -2.1470    1.7537    0.0000 C   0  0  0  0  0  0  0  0  0  0  0  0
   -1.8351    3.2209    0.0000 N   0  0  0  0  0  0  0  0  0  0  0  0
   -2.9499    4.2246    0.0000 C   0  0  0  0  0  0  0  0  0  0  0  0
   -2.6380    5.6918    0.0000 O   0  0  0  0  0  0  0  0  0  0  0  0
   -4.3764    3.7611    0.0000 N   0  0  0  0  0  0  0  0  0  0  0  0
   -4.8400    2.3345    0.0000 C   0  0  0  0  0  0  0  0  0  0  0  0
   -6.3400    2.3345    0.0000 C   0  0  0  0  0  0  0  0  0  0  0  0
   -7.5535    1.4528    0.0000 C   0  0  0  0  0  0  0  0  0  0  0  0
   -7.5535   -0.0472    0.0000 N   0  0  0  0  0  0  0  0  0  0  0  0
   -8.8525   -0.7972    0.0000 C   0  0  0  0  0  0  0  0  0  0  0  0
  -10.1516   -0.0472    0.0000 O   0  0  0  0  0  0  0  0  0  0  0  0
   -8.8525   -2.2972    0.0000 C   0  0  0  0  0  0  0  0  0  0  0  0
  -10.1516   -3.0472    0.0000 C   0  0  0  0  0  0  0  0  0  0  0  0
  -10.1516   -4.5472    0.0000 C   0  0  0  0  0  0  0  0  0  0  0  0
   -8.8525   -5.2972    0.0000 C   0  0  0  0  0  0  0  0  0  0  0  0
   -7.5535   -4.5472    0.0000 C   0  0  0  0  0  0  0  0  0  0  0  0
   -7.5535   -3.0472    0.0000 N   0  0  0  0  0  0  0  0  0  0  0  0
   -8.7670    2.3345    0.0000 N   0  0  0  0  0  0  0  0  0  0  0  0
   -8.3035    3.7611    0.0000 N   0  0  0  0  0  0  0  0  0  0  0  0
   -6.8035    3.7611    0.0000 C   0  0  0  0  0  0  0  0  0  0  0  0
   -5.5900    4.6428    0.0000 C   0  0  0  0  0  0  0  0  0  0  0  0
   -6.5937    5.7575    0.0000 C   0  0  0  0  0  0  0  0  0  0  0  0
   -4.5863    5.7575    0.0000 C   0  0  0  0  0  0  0  0  0  0  0  0
  1  2  1  0
  3  2  1  1
  3  4  1  0
  4  5  1  0
  5  6  1  0
  6  7  1  0
  7  8  1  0
  9  8  1  1
  9 10  1  0
 10 11  1  0
 11 12  1  0
 12 13  2  0
 12 14  1  0
 14 15  1  0
 15 16  1  0
 16 17  1  0
 17 18  1  0
 18 19  1  0
 19 20  2  0
 19 21  1  0
 21 22  2  0
 22 23  1  0
 23 24  2  0
 24 25  1  0
 25 26  2  0
 17 27  2  0
 27 28  1  0
 28 29  1  0
 29 30  1  0
 30 31  1  0
 30 32  1  0
 11  3  1  0
 30 14  1  0
  9  5  1  0
 29 16  2  0
 26 21  1  0
M  END
>  <Compound_ID>  (275) 
CHEMBL3662782

>  <Active>  (275) 
1.0

>  <Smiles>  (275) 
CC[C@H]1CN2CCC[C@H]2CN1C(=O)N1Cc2c(NC(=O)c3ccccn3)n[nH]c2C1(C)C

>  <canonical_smi>  (275) 
CC[C@H]1CN2CCC[C@H]2CN1C(=O)N1Cc2c(NC(=O)c3ccccn3)n[nH]c2C1(C)C

>  <Set>  (275) 
G2 active

>  <Set_type>  (275) 
External

>  <MW>  (275) 
437.55

>  <HBD>  (275) 
2

>  <HBA>  (275) 
5

>  <NRB>  (275) 
3

>  <NR>  (275) 
5

>  <NAR>  (275) 
2

>  <PSA>  (275) 
97.46

>  <Standard Type>  (275) 
Ki

>  <Standard Relation>  (275) 
'='

>  <Standard Units>  (275) 
nM

>  <Standard Value>  (275) 
46.2

>  <Assay ChEMBL ID>  (275) 
CHEMBL3705825

>  <Assay Description>  (275) 
Inhibition Assay: Protein Kinase C beta 2 (PKC beta II) catalyzes the production of ADP from ATP that accompanies the phosphoryl transfer to the PKC Pseudosubstrate peptide (A->S, RFARKGSLRQKNV). This transfer is coupled to the oxidation of p-NADH through the activities of Pyruvate Kinase (PK) and Lactate Dehydrogenase (LDH). (3-NADH conversion to NAD+ is monitored by the decrease in absorbance at 340 nm (e=6.22 cm-1 mM-1) using a Molecular Devices SPECTRA max PLUS spectrophotometer.A typical assay was carried out on a 96-well, clear microtiter plate in a Molecular Devices spectrophotometer for 20 minutes at 30 C. in 0.1 mL of assay buffer containing 50 mM HEPES, pH 7.4, 5 nM PKC, 23 units of pyruvate kinase, 33 units of lactate dehydrogenase, 0.15 mM peptide, 0.1 mM ATP, 1 mM DTT, 4 mM PEP, 8 mM MgCl2, 0.3 mM NADH, 60 mM CaCl2, 10 mg/mL PS, 50 ng/mL PMA, 7.5% DMSO and from about 10,000 nM to 0.169 nM compound inhibitor.

>  <BAO Label>  (275) 
single protein format

$$$$

     RDKit          2D

 38 42  0  0  0  0  0  0  0  0999 V2000
    5.2137    2.1950    0.0000 C   0  0  0  0  0  0  0  0  0  0  0  0
    5.3705    3.6867    0.0000 C   0  0  0  0  0  0  0  0  0  0  0  0
    6.6695    4.4367    0.0000 N   0  0  0  0  0  0  0  0  0  0  0  0
    6.3577    5.9040    0.0000 O   0  0  0  0  0  0  0  0  0  0  0  0
    4.8659    6.0607    0.0000 C   0  0  0  0  0  0  0  0  0  0  0  0
    4.1159    7.3598    0.0000 C   0  0  0  0  0  0  0  0  0  0  0  0
    4.2558    4.6904    0.0000 C   0  0  0  0  0  0  0  0  0  0  0  0
    2.7886    4.3786    0.0000 C   0  0  0  0  0  0  0  0  0  0  0  0
    2.3250    2.9520    0.0000 C   0  0  0  0  0  0  0  0  0  0  0  0
    3.3287    1.8373    0.0000 O   0  0  0  0  0  0  0  0  0  0  0  0
    0.8578    2.6401    0.0000 N   0  0  0  0  0  0  0  0  0  0  0  0
    0.3943    1.2135    0.0000 C   0  0  0  0  0  0  0  0  0  0  0  0
    1.2760    0.0000    0.0000 N   0  0  0  0  0  0  0  0  0  0  0  0
    0.3943   -1.2135    0.0000 N   0  0  0  0  0  0  0  0  0  0  0  0
   -1.0323   -0.7500    0.0000 C   0  0  0  0  0  0  0  0  0  0  0  0
   -1.0323    0.7500    0.0000 C   0  0  0  0  0  0  0  0  0  0  0  0
   -2.4589    1.2135    0.0000 C   0  0  0  0  0  0  0  0  0  0  0  0
   -3.3405    0.0000    0.0000 N   0  0  0  0  0  0  0  0  0  0  0  0
   -4.8405    0.0000    0.0000 C   0  0  0  0  0  0  0  0  0  0  0  0
   -5.5905   -1.2990    0.0000 O   0  0  0  0  0  0  0  0  0  0  0  0
   -5.5905    1.2990    0.0000 N   0  0  0  0  0  0  0  0  0  0  0  0
   -4.8405    2.5981    0.0000 C   0  0  0  0  0  0  0  0  0  0  0  0
   -5.5905    3.8971    0.0000 C   0  0  0  0  0  0  0  0  0  0  0  0
   -4.8405    5.1962    0.0000 C   0  0  0  0  0  0  0  0  0  0  0  0
   -7.0905    3.8971    0.0000 N   0  0  0  0  0  0  0  0  0  0  0  0
   -7.8405    5.1962    0.0000 C   0  0  0  0  0  0  0  0  0  0  0  0
   -9.3405    5.1962    0.0000 C   0  0  0  0  0  0  0  0  0  0  0  0
  -10.0905    6.4952    0.0000 C   0  0  0  0  0  0  0  0  0  0  0  0
  -11.5905    6.4952    0.0000 C   0  0  0  0  0  0  0  0  0  0  0  0
  -12.3405    5.1962    0.0000 O   0  0  0  0  0  0  0  0  0  0  0  0
  -11.5905    3.8971    0.0000 C   0  0  0  0  0  0  0  0  0  0  0  0
  -10.0905    3.8971    0.0000 C   0  0  0  0  0  0  0  0  0  0  0  0
   -7.8405    2.5981    0.0000 C   0  0  0  0  0  0  0  0  0  0  0  0
   -7.0905    1.2990    0.0000 C   0  0  0  0  0  0  0  0  0  0  0  0
   -7.8405    0.0000    0.0000 C   0  0  0  0  0  0  0  0  0  0  0  0
   -2.4589   -1.2135    0.0000 C   0  0  0  0  0  0  0  0  0  0  0  0
   -3.7579   -1.9635    0.0000 C   0  0  0  0  0  0  0  0  0  0  0  0
   -1.8488   -2.5838    0.0000 C   0  0  0  0  0  0  0  0  0  0  0  0
  1  2  1  0
  2  3  2  0
  3  4  1  0
  4  5  1  0
  5  6  1  0
  5  7  2  0
  7  8  1  0
  8  9  1  0
  9 10  2  0
  9 11  1  0
 11 12  1  0
 12 13  2  0
 13 14  1  0
 14 15  1  0
 15 16  2  0
 16 17  1  0
 17 18  1  0
 18 19  1  0
 19 20  2  0
 19 21  1  0
 21 22  1  0
 22 23  1  0
 23 24  1  6
 23 25  1  0
 25 26  1  0
 26 27  1  0
 27 28  1  0
 28 29  1  0
 29 30  1  0
 30 31  1  0
 31 32  1  0
 25 33  1  0
 33 34  1  0
 34 35  1  1
 18 36  1  0
 36 37  1  0
 36 38  1  0
  7  2  1  0
 16 12  1  0
 34 21  1  0
 36 15  1  0
 32 27  1  0
M  END
>  <Compound_ID>  (276) 
CHEMBL3667490

>  <Active>  (276) 
1.0

>  <Smiles>  (276) 
Cc1noc(C)c1CC(=O)Nc1n[nH]c2c1CN(C(=O)N1C[C@@H](C)N(CC3CCOCC3)C[C@@H]1C)C2(C)C

>  <canonical_smi>  (276) 
Cc1noc(C)c1CC(=O)Nc1n[nH]c2c1CN(C(=O)N1C[C@@H](C)N(CC3CCOCC3)C[C@@H]1C)C2(C)C

>  <Set>  (276) 
G2 active

>  <Set_type>  (276) 
External

>  <MW>  (276) 
527.67

>  <HBD>  (276) 
2

>  <HBA>  (276) 
7

>  <NRB>  (276) 
5

>  <NR>  (276) 
5

>  <NAR>  (276) 
2

>  <PSA>  (276) 
119.83

>  <Standard Type>  (276) 
Ki

>  <Standard Relation>  (276) 
'='

>  <Standard Units>  (276) 
nM

>  <Standard Value>  (276) 
20.0

>  <Assay ChEMBL ID>  (276) 
CHEMBL3705825

>  <Assay Description>  (276) 
Inhibition Assay: Protein Kinase C beta 2 (PKC beta II) catalyzes the production of ADP from ATP that accompanies the phosphoryl transfer to the PKC Pseudosubstrate peptide (A->S, RFARKGSLRQKNV). This transfer is coupled to the oxidation of p-NADH through the activities of Pyruvate Kinase (PK) and Lactate Dehydrogenase (LDH). (3-NADH conversion to NAD+ is monitored by the decrease in absorbance at 340 nm (e=6.22 cm-1 mM-1) using a Molecular Devices SPECTRA max PLUS spectrophotometer.A typical assay was carried out on a 96-well, clear microtiter plate in a Molecular Devices spectrophotometer for 20 minutes at 30 C. in 0.1 mL of assay buffer containing 50 mM HEPES, pH 7.4, 5 nM PKC, 23 units of pyruvate kinase, 33 units of lactate dehydrogenase, 0.15 mM peptide, 0.1 mM ATP, 1 mM DTT, 4 mM PEP, 8 mM MgCl2, 0.3 mM NADH, 60 mM CaCl2, 10 mg/mL PS, 50 ng/mL PMA, 7.5% DMSO and from about 10,000 nM to 0.169 nM compound inhibitor.

>  <BAO Label>  (276) 
single protein format

$$$$

     RDKit          2D

 31 34  0  0  0  0  0  0  0  0999 V2000
   -9.8192    2.8381    0.0000 C   0  0  0  0  0  0  0  0  0  0  0  0
   -8.4096    2.3251    0.0000 N   0  0  0  0  0  0  0  0  0  0  0  0
   -8.1492    0.8479    0.0000 C   0  0  0  0  0  0  0  0  0  0  0  0
   -6.7396    0.3349    0.0000 C   0  0  0  0  0  0  0  0  0  0  0  0
   -5.5905    1.2990    0.0000 C   0  0  0  0  0  0  0  0  0  0  0  0
   -4.1810    1.8121    0.0000 F   0  0  0  0  0  0  0  0  0  0  0  0
   -4.8405   -0.0000    0.0000 C   0  0  0  0  0  0  0  0  0  0  0  0
   -5.5905   -1.2990    0.0000 O   0  0  0  0  0  0  0  0  0  0  0  0
   -3.3405   -0.0000    0.0000 N   0  0  0  0  0  0  0  0  0  0  0  0
   -2.4589    1.2135    0.0000 C   0  0  0  0  0  0  0  0  0  0  0  0
   -1.0323    0.7500    0.0000 C   0  0  0  0  0  0  0  0  0  0  0  0
    0.3943    1.2135    0.0000 C   0  0  0  0  0  0  0  0  0  0  0  0
    0.8578    2.6401    0.0000 N   0  0  0  0  0  0  0  0  0  0  0  0
    2.3250    2.9520    0.0000 C   0  0  0  0  0  0  0  0  0  0  0  0
    3.3287    1.8373    0.0000 O   0  0  0  0  0  0  0  0  0  0  0  0
    2.7886    4.3786    0.0000 C   0  0  0  0  0  0  0  0  0  0  0  0
    4.2558    4.6904    0.0000 C   0  0  0  0  0  0  0  0  0  0  0  0
    4.7193    6.1170    0.0000 C   0  0  0  0  0  0  0  0  0  0  0  0
    3.7156    7.2317    0.0000 C   0  0  0  0  0  0  0  0  0  0  0  0
    4.1791    8.6583    0.0000 Cl  0  0  0  0  0  0  0  0  0  0  0  0
    2.2484    6.9199    0.0000 C   0  0  0  0  0  0  0  0  0  0  0  0
    1.2447    8.0346    0.0000 Cl  0  0  0  0  0  0  0  0  0  0  0  0
    1.7849    5.4933    0.0000 C   0  0  0  0  0  0  0  0  0  0  0  0
    1.2760    0.0000    0.0000 N   0  0  0  0  0  0  0  0  0  0  0  0
    0.3943   -1.2135    0.0000 N   0  0  0  0  0  0  0  0  0  0  0  0
   -1.0323   -0.7500    0.0000 C   0  0  0  0  0  0  0  0  0  0  0  0
   -2.4589   -1.2135    0.0000 C   0  0  0  0  0  0  0  0  0  0  0  0
   -1.8488   -2.5838    0.0000 C   0  0  0  0  0  0  0  0  0  0  0  0
   -3.7579   -1.9635    0.0000 C   0  0  0  0  0  0  0  0  0  0  0  0
   -5.8510    2.7762    0.0000 C   0  0  0  0  0  0  0  0  0  0  0  0
   -7.2606    3.2893    0.0000 C   0  0  0  0  0  0  0  0  0  0  0  0
  1  2  1  0
  2  3  1  0
  3  4  1  0
  4  5  1  0
  5  6  1  0
  5  7  1  0
  7  8  2  0
  7  9  1  0
  9 10  1  0
 10 11  1  0
 11 12  1  0
 12 13  1  0
 13 14  1  0
 14 15  2  0
 14 16  1  0
 16 17  2  0
 17 18  1  0
 18 19  2  0
 19 20  1  0
 19 21  1  0
 21 22  1  0
 21 23  2  0
 12 24  2  0
 24 25  1  0
 25 26  1  0
 26 27  1  0
 27 28  1  0
 27 29  1  0
  5 30  1  0
 30 31  1  0
 31  2  1  0
 27  9  1  0
 26 11  2  0
 23 16  1  0
M  END
>  <Compound_ID>  (277) 
CHEMBL3662872

>  <Active>  (277) 
1.0

>  <Smiles>  (277) 
CN1CCC(F)(C(=O)N2Cc3c(NC(=O)c4ccc(Cl)c(Cl)c4)n[nH]c3C2(C)C)CC1

>  <canonical_smi>  (277) 
CN1CCC(F)(C(=O)N2Cc3c(NC(=O)c4ccc(Cl)c(Cl)c4)n[nH]c3C2(C)C)CC1

>  <Set>  (277) 
G2 active

>  <Set_type>  (277) 
External

>  <MW>  (277) 
468.36

>  <HBD>  (277) 
2

>  <HBA>  (277) 
4

>  <NRB>  (277) 
3

>  <NR>  (277) 
4

>  <NAR>  (277) 
2

>  <PSA>  (277) 
81.33

>  <Standard Type>  (277) 
Ki

>  <Standard Relation>  (277) 
'='

>  <Standard Units>  (277) 
nM

>  <Standard Value>  (277) 
67.4

>  <Assay ChEMBL ID>  (277) 
CHEMBL3705825

>  <Assay Description>  (277) 
Inhibition Assay: Protein Kinase C beta 2 (PKC beta II) catalyzes the production of ADP from ATP that accompanies the phosphoryl transfer to the PKC Pseudosubstrate peptide (A->S, RFARKGSLRQKNV). This transfer is coupled to the oxidation of p-NADH through the activities of Pyruvate Kinase (PK) and Lactate Dehydrogenase (LDH). (3-NADH conversion to NAD+ is monitored by the decrease in absorbance at 340 nm (e=6.22 cm-1 mM-1) using a Molecular Devices SPECTRA max PLUS spectrophotometer.A typical assay was carried out on a 96-well, clear microtiter plate in a Molecular Devices spectrophotometer for 20 minutes at 30 C. in 0.1 mL of assay buffer containing 50 mM HEPES, pH 7.4, 5 nM PKC, 23 units of pyruvate kinase, 33 units of lactate dehydrogenase, 0.15 mM peptide, 0.1 mM ATP, 1 mM DTT, 4 mM PEP, 8 mM MgCl2, 0.3 mM NADH, 60 mM CaCl2, 10 mg/mL PS, 50 ng/mL PMA, 7.5% DMSO and from about 10,000 nM to 0.169 nM compound inhibitor.

>  <BAO Label>  (277) 
single protein format

$$$$

     RDKit          2D

 36 39  0  0  0  0  0  0  0  0999 V2000
    0.8660   -7.5000    0.0000 C   0  0  0  0  0  0  0  0  0  0  0  0
    0.8660   -6.0000    0.0000 C   0  0  0  0  0  0  0  0  0  0  0  0
   -0.4330   -5.2500    0.0000 C   0  0  0  0  0  0  0  0  0  0  0  0
   -0.4330   -3.7500    0.0000 C   0  0  0  0  0  0  0  0  0  0  0  0
    0.8660   -3.0000    0.0000 O   0  0  0  0  0  0  0  0  0  0  0  0
   -1.7321   -3.0000    0.0000 O   0  0  0  0  0  0  0  0  0  0  0  0
   -1.7321   -1.5000    0.0000 C   0  0  0  0  0  0  0  0  0  0  0  0
   -3.0311   -0.7500    0.0000 C   0  0  0  0  0  0  0  0  0  0  0  0
   -4.3301   -1.5000    0.0000 C   0  0  0  0  0  0  0  0  0  0  0  0
   -3.0311    0.7500    0.0000 C   0  0  0  0  0  0  0  0  0  0  0  0
   -4.2704   -0.0950    0.0000 O   0  0  0  0  0  0  0  0  0  0  0  0
   -1.7321    1.5000    0.0000 C   0  0  0  0  0  0  0  0  0  0  0  0
   -1.5085    2.9832    0.0000 C   0  0  0  0  0  0  0  0  0  0  0  0
   -2.5287    4.0828    0.0000 C   0  0  0  0  0  0  0  0  0  0  0  0
   -1.9807    5.4791    0.0000 C   0  0  0  0  0  0  0  0  0  0  0  0
   -0.4975    5.7027    0.0000 O   0  0  0  0  0  0  0  0  0  0  0  0
   -4.0246    3.9707    0.0000 C   0  0  0  0  0  0  0  0  0  0  0  0
   -4.8695    2.7314    0.0000 C   0  0  0  0  0  0  0  0  0  0  0  0
   -5.5605    4.0627    0.0000 O   0  0  0  0  0  0  0  0  0  0  0  0
   -6.3694    2.7538    0.0000 C   0  0  0  0  0  0  0  0  0  0  0  0
   -7.2328    3.9804    0.0000 O   0  0  0  0  0  0  0  0  0  0  0  0
   -6.8542    1.3343    0.0000 C   0  0  0  0  0  0  0  0  0  0  0  0
   -8.2875    0.8922    0.0000 C   0  0  0  0  0  0  0  0  0  0  0  0
   -5.6540    0.4346    0.0000 C   0  0  0  0  0  0  0  0  0  0  0  0
   -4.4274    1.2980    0.0000 C   0  0  0  0  0  0  0  0  0  0  0  0
   -0.4330    0.7500    0.0000 C   0  0  0  0  0  0  0  0  0  0  0  0
    0.8660    0.0000    0.0000 C   0  0  0  0  0  0  0  0  0  0  0  0
    1.8302    1.1491    0.0000 C   0  0  0  0  0  0  0  0  0  0  0  0
    1.8302   -1.1491    0.0000 C   0  0  0  0  0  0  0  0  0  0  0  0
   -0.4330   -0.7500    0.0000 C   0  0  0  0  0  0  0  0  0  0  0  0
    0.3170   -2.0490    0.0000 O   0  0  0  0  0  0  0  0  0  0  0  0
    1.8170   -2.0490    0.0000 C   0  0  0  0  0  0  0  0  0  0  0  0
    2.5670   -0.7500    0.0000 O   0  0  0  0  0  0  0  0  0  0  0  0
    2.5670   -3.3481    0.0000 C   0  0  0  0  0  0  0  0  0  0  0  0
    4.0670   -3.3481    0.0000 C   0  0  0  0  0  0  0  0  0  0  0  0
    4.8170   -4.6471    0.0000 C   0  0  0  0  0  0  0  0  0  0  0  0
  1  2  1  0
  2  3  1  0
  3  4  1  0
  4  5  2  0
  4  6  1  0
  7  6  1  6
  7  8  1  0
  8  9  1  1
  8 10  1  0
 10 11  1  1
 10 12  1  0
 12 13  1  1
 13 14  2  0
 14 15  1  0
 15 16  1  0
 14 17  1  0
 17 18  1  0
 18 19  1  6
 18 20  1  0
 20 21  2  0
 20 22  1  0
 22 23  1  0
 22 24  2  0
 25 24  1  6
 12 26  1  0
 26 27  1  6
 27 28  1  0
 27 29  1  0
 27 30  1  0
 30 31  1  1
 31 32  1  0
 32 33  2  0
 32 34  1  0
 34 35  1  0
 35 36  1  0
 30  7  1  0
 25 10  1  0
 30 26  1  0
 25 18  1  0
M  END
>  <Compound_ID>  (278) 
CHEMBL27768

>  <Active>  (278) 
1.0

>  <Smiles>  (278) 
CCCC(=O)O[C@@H]1[C@@H](C)[C@@]2(O)[C@@H](C=C(CO)C[C@]3(O)C(=O)C(C)=C[C@@H]23)[C@@H]2C(C)(C)[C@]12OC(=O)CCC

>  <canonical_smi>  (278) 
CCCC(=O)O[C@@H]1[C@@H](C)[C@@]2(O)[C@@H](C=C(CO)C[C@]3(O)C(=O)C(C)=C[C@@H]23)[C@@H]2C(C)(C)[C@]12OC(=O)CCC

>  <Set>  (278) 
G2 active

>  <Set_type>  (278) 
External

>  <MW>  (278) 
504.62

>  <HBD>  (278) 
3

>  <HBA>  (278) 
8

>  <NRB>  (278) 
7

>  <NR>  (278) 
4

>  <NAR>  (278) 
0

>  <PSA>  (278) 
130.36

>  <Standard Type>  (278) 
Ki

>  <Standard Relation>  (278) 
'='

>  <Standard Units>  (278) 
nM

>  <Standard Value>  (278) 
1.88

>  <Assay ChEMBL ID>  (278) 
CHEMBL768283

>  <Assay Description>  (278) 
Displacement of 3[H]PDBu from Protein kinase C beta C1a domain

>  <BAO Label>  (278) 
single protein format

$$$$

     RDKit          2D

 37 41  0  0  0  0  0  0  0  0999 V2000
   -3.5736    1.2902    0.0000 C   0  0  0  0  0  0  0  0  0  0  0  0
   -2.1470    1.7537    0.0000 C   0  0  0  0  0  0  0  0  0  0  0  0
   -1.8351    3.2209    0.0000 C   0  0  0  0  0  0  0  0  0  0  0  0
   -2.9499    4.2246    0.0000 N   0  0  0  0  0  0  0  0  0  0  0  0
   -2.6380    5.6918    0.0000 C   0  0  0  0  0  0  0  0  0  0  0  0
   -1.2114    6.1554    0.0000 C   0  0  0  0  0  0  0  0  0  0  0  0
   -0.0967    5.1517    0.0000 C   0  0  0  0  0  0  0  0  0  0  0  0
    1.0180    4.1480    0.0000 N   0  0  0  0  0  0  0  0  0  0  0  0
   -0.8995    7.6226    0.0000 C   0  0  0  0  0  0  0  0  0  0  0  0
   -2.0143    8.6263    0.0000 N   0  0  0  0  0  0  0  0  0  0  0  0
   -3.4408    8.1628    0.0000 C   0  0  0  0  0  0  0  0  0  0  0  0
   -3.7527    6.6955    0.0000 C   0  0  0  0  0  0  0  0  0  0  0  0
   -5.1793    6.2320    0.0000 C   0  0  0  0  0  0  0  0  0  0  0  0
   -6.2940    7.2357    0.0000 C   0  0  0  0  0  0  0  0  0  0  0  0
   -7.7206    6.7722    0.0000 C   0  0  0  0  0  0  0  0  0  0  0  0
   -8.8353    7.7759    0.0000 C   0  0  0  0  0  0  0  0  0  0  0  0
  -10.2619    7.3123    0.0000 C   0  0  0  0  0  0  0  0  0  0  0  0
  -10.5738    5.8451    0.0000 C   0  0  0  0  0  0  0  0  0  0  0  0
   -9.4590    4.8414    0.0000 C   0  0  0  0  0  0  0  0  0  0  0  0
   -9.7709    3.3742    0.0000 S   0  0  0  0  0  0  0  0  0  0  0  0
  -11.2381    3.6861    0.0000 O   0  0  0  0  0  0  0  0  0  0  0  0
   -8.3037    3.0623    0.0000 O   0  0  0  0  0  0  0  0  0  0  0  0
  -10.0828    1.9070    0.0000 N   0  0  0  0  0  0  0  0  0  0  0  0
  -11.5094    1.4435    0.0000 C   0  0  0  0  0  0  0  0  0  0  0  0
  -11.8212   -0.0238    0.0000 C   0  0  0  0  0  0  0  0  0  0  0  0
  -10.7065   -1.0275    0.0000 N   0  0  0  0  0  0  0  0  0  0  0  0
  -11.0184   -2.4947    0.0000 C   0  0  0  0  0  0  0  0  0  0  0  0
   -9.2799   -0.5639    0.0000 C   0  0  0  0  0  0  0  0  0  0  0  0
   -8.9681    0.9033    0.0000 C   0  0  0  0  0  0  0  0  0  0  0  0
   -8.0325    5.3050    0.0000 C   0  0  0  0  0  0  0  0  0  0  0  0
   -0.4086    3.6844    0.0000 C   0  0  0  0  0  0  0  0  0  0  0  0
    0.7062    2.6807    0.0000 C   0  0  0  0  0  0  0  0  0  0  0  0
    0.3943    1.2135    0.0000 C   0  0  0  0  0  0  0  0  0  0  0  0
    1.2760    0.0000    0.0000 N   0  0  0  0  0  0  0  0  0  0  0  0
    0.3943   -1.2135    0.0000 C   0  0  0  0  0  0  0  0  0  0  0  0
   -1.0323   -0.7500    0.0000 C   0  0  0  0  0  0  0  0  0  0  0  0
   -1.0323    0.7500    0.0000 C   0  0  0  0  0  0  0  0  0  0  0  0
  1  2  1  0
  2  3  2  0
  3  4  1  0
  4  5  1  0
  5  6  2  0
  6  7  1  0
  7  8  3  0
  6  9  1  0
  9 10  2  0
 10 11  1  0
 11 12  2  0
 12 13  1  0
 13 14  2  0
 14 15  1  0
 15 16  2  0
 16 17  1  0
 17 18  2  0
 18 19  1  0
 19 20  1  0
 20 21  2  0
 20 22  2  0
 20 23  1  0
 23 24  1  0
 24 25  1  0
 25 26  1  0
 26 27  1  0
 26 28  1  0
 28 29  1  0
 19 30  2  0
  3 31  1  0
 31 32  2  0
 32 33  1  0
 33 34  1  0
 34 35  1  0
 35 36  2  0
 36 37  1  0
 37  2  1  0
 12  5  1  0
 30 15  1  0
 37 33  2  0
 29 23  1  0
M  END
>  <Compound_ID>  (279) 
CHEMBL1080994

>  <Active>  (279) 
0.0

>  <Smiles>  (279) 
Cc1c(Nc2c(C#N)cncc2/C=C/c2cccc(S(=O)(=O)N3CCN(C)CC3)c2)ccc2[nH]ccc12

>  <canonical_smi>  (279) 
Cc1c(Nc2c(C#N)cncc2/C=C/c2cccc(S(=O)(=O)N3CCN(C)CC3)c2)ccc2[nH]ccc12

>  <Set>  (279) 
G2 inactive

>  <Set_type>  (279) 
External

>  <MW>  (279) 
512.64

>  <HBD>  (279) 
2

>  <HBA>  (279) 
6

>  <NRB>  (279) 
6

>  <NR>  (279) 
5

>  <NAR>  (279) 
4

>  <PSA>  (279) 
105.12

>  <Standard Type>  (279) 
IC50

>  <Standard Relation>  (279) 
'='

>  <Standard Units>  (279) 
nM

>  <Standard Value>  (279) 
41000.0

>  <Assay ChEMBL ID>  (279) 
CHEMBL1114002

>  <Assay Description>  (279) 
Inhibition of PKCbeta

>  <BAO Label>  (279) 
single protein format

$$$$

     RDKit          2D

 19 20  0  0  0  0  0  0  0  0999 V2000
   -0.6546  -12.7344    0.0000 N   0  0  0  0  0  0  0  0  0  0  0  0
   -0.8113  -11.2427    0.0000 C   0  0  0  0  0  0  0  0  0  0  0  0
    0.4022  -10.3610    0.0000 C   0  0  0  0  0  0  0  0  0  0  0  0
    0.2454   -8.8692    0.0000 N   0  0  0  0  0  0  0  0  0  0  0  0
   -1.0537   -8.1192    0.0000 C   0  0  0  0  0  0  0  0  0  0  0  0
   -2.4240   -8.7293    0.0000 O   0  0  0  0  0  0  0  0  0  0  0  0
   -0.7418   -6.6520    0.0000 S   0  0  0  0  0  0  0  0  0  0  0  0
    0.7500   -6.4952    0.0000 C   0  0  0  0  0  0  0  0  0  0  0  0
    1.5000   -5.1962    0.0000 C   0  0  0  0  0  0  0  0  0  0  0  0
    0.7500   -3.8971    0.0000 C   0  0  0  0  0  0  0  0  0  0  0  0
    1.5000   -2.5981    0.0000 C   0  0  0  0  0  0  0  0  0  0  0  0
    0.7500   -1.2990    0.0000 C   0  0  0  0  0  0  0  0  0  0  0  0
    1.5000    0.0000    0.0000 C   0  0  0  0  0  0  0  0  0  0  0  0
    0.7500    1.2990    0.0000 C   0  0  0  0  0  0  0  0  0  0  0  0
   -0.7500    1.2990    0.0000 C   0  0  0  0  0  0  0  0  0  0  0  0
   -1.5000    0.0000    0.0000 C   0  0  0  0  0  0  0  0  0  0  0  0
   -0.7500   -1.2990    0.0000 C   0  0  0  0  0  0  0  0  0  0  0  0
    1.3601   -7.8655    0.0000 C   0  0  0  0  0  0  0  0  0  0  0  0
    2.8273   -8.1774    0.0000 O   0  0  0  0  0  0  0  0  0  0  0  0
  1  2  1  0
  2  3  1  0
  3  4  1  0
  4  5  1  0
  5  6  2  0
  5  7  1  0
  7  8  1  0
  8  9  2  0
  9 10  1  0
 10 11  1  0
 11 12  1  0
 12 13  1  0
 13 14  1  0
 14 15  1  0
 15 16  1  0
 16 17  1  0
  8 18  1  0
 18 19  2  0
 18  4  1  0
 17 12  1  0
M  END
>  <Compound_ID>  (280) 
CHEMBL1929247

>  <Active>  (280) 
0.0

>  <Smiles>  (280) 
NCCN1C(=O)S/C(=C\CCC2CCCCC2)C1=O

>  <canonical_smi>  (280) 
NCCN1C(=O)S/C(=C\CCC2CCCCC2)C1=O

>  <Set>  (280) 
G2 inactive

>  <Set_type>  (280) 
External

>  <MW>  (280) 
282.41

>  <HBD>  (280) 
1

>  <HBA>  (280) 
4

>  <NRB>  (280) 
5

>  <NR>  (280) 
2

>  <NAR>  (280) 
0

>  <PSA>  (280) 
63.4

>  <Standard Type>  (280) 
Inhibition

>  <Standard Relation>  (280) 
'='

>  <Standard Units>  (280) 
%

>  <Standard Value>  (280) 
16.0

>  <Assay ChEMBL ID>  (280) 
CHEMBL1929909

>  <Assay Description>  (280) 
Inhibition of PKCbeta2 at 10 uM

>  <BAO Label>  (280) 
single protein format

$$$$

     RDKit          2D

 31 34  0  0  0  0  0  0  0  0999 V2000
    6.0000   -2.5981    0.0000 C   0  0  0  0  0  0  0  0  0  0  0  0
    5.2500   -1.2990    0.0000 C   0  0  0  0  0  0  0  0  0  0  0  0
    6.0000    0.0000    0.0000 C   0  0  0  0  0  0  0  0  0  0  0  0
    3.7500   -1.2990    0.0000 N   0  0  0  0  0  0  0  0  0  0  0  0
    3.0000    0.0000    0.0000 C   0  0  0  0  0  0  0  0  0  0  0  0
    1.5000    0.0000    0.0000 C   0  0  0  0  0  0  0  0  0  0  0  0
    0.7500   -1.2990    0.0000 C   0  0  0  0  0  0  0  0  0  0  0  0
   -0.7500   -1.2990    0.0000 C   0  0  0  0  0  0  0  0  0  0  0  0
   -1.5000    0.0000    0.0000 C   0  0  0  0  0  0  0  0  0  0  0  0
   -3.0000    0.0000    0.0000 N   0  0  0  0  0  0  0  0  0  0  0  0
   -3.7500    1.2990    0.0000 C   0  0  0  0  0  0  0  0  0  0  0  0
   -5.2418    1.4558    0.0000 C   0  0  0  0  0  0  0  0  0  0  0  0
   -5.5537    2.9231    0.0000 C   0  0  0  0  0  0  0  0  0  0  0  0
   -6.9240    3.5332    0.0000 C   0  0  0  0  0  0  0  0  0  0  0  0
   -7.0808    5.0249    0.0000 C   0  0  0  0  0  0  0  0  0  0  0  0
   -8.4511    5.6350    0.0000 C   0  0  0  0  0  0  0  0  0  0  0  0
   -9.6646    4.7534    0.0000 C   0  0  0  0  0  0  0  0  0  0  0  0
  -11.0349    5.3635    0.0000 C   0  0  0  0  0  0  0  0  0  0  0  0
  -11.1917    6.8553    0.0000 C   0  0  0  0  0  0  0  0  0  0  0  0
  -12.5620    7.4654    0.0000 C   0  0  0  0  0  0  0  0  0  0  0  0
  -13.7756    6.5837    0.0000 C   0  0  0  0  0  0  0  0  0  0  0  0
  -15.1459    7.1938    0.0000 O   0  0  0  0  0  0  0  0  0  0  0  0
  -13.6188    5.0919    0.0000 C   0  0  0  0  0  0  0  0  0  0  0  0
  -12.2484    4.4818    0.0000 C   0  0  0  0  0  0  0  0  0  0  0  0
  -12.0917    2.9900    0.0000 O   0  0  0  0  0  0  0  0  0  0  0  0
   -9.5078    3.2616    0.0000 C   0  0  0  0  0  0  0  0  0  0  0  0
   -8.1375    2.6515    0.0000 C   0  0  0  0  0  0  0  0  0  0  0  0
   -4.2546    3.6731    0.0000 N   0  0  0  0  0  0  0  0  0  0  0  0
   -3.1399    2.6694    0.0000 N   0  0  0  0  0  0  0  0  0  0  0  0
   -0.7500    1.2990    0.0000 C   0  0  0  0  0  0  0  0  0  0  0  0
    0.7500    1.2990    0.0000 C   0  0  0  0  0  0  0  0  0  0  0  0
  1  2  1  0
  2  3  1  0
  2  4  1  0
  4  5  1  0
  5  6  1  0
  6  7  2  0
  7  8  1  0
  8  9  2  0
  9 10  1  0
 10 11  1  0
 11 12  1  0
 12 13  2  0
 13 14  1  0
 14 15  2  0
 15 16  1  0
 16 17  2  0
 17 18  1  0
 18 19  2  0
 19 20  1  0
 20 21  2  0
 21 22  1  0
 21 23  1  0
 23 24  2  0
 24 25  1  0
 17 26  1  0
 26 27  2  0
 13 28  1  0
 28 29  1  0
  9 30  1  0
 30 31  2  0
 31  6  1  0
 29 11  2  0
 27 14  1  0
 24 18  1  0
M  END
>  <Compound_ID>  (281) 
CHEMBL398606

>  <Active>  (281) 
0.0

>  <Smiles>  (281) 
CC(C)NCc1ccc(Nc2cc(-c3ccc(-c4ccc(O)cc4O)cc3)[nH]n2)cc1

>  <canonical_smi>  (281) 
CC(C)NCc1ccc(Nc2cc(-c3ccc(-c4ccc(O)cc4O)cc3)[nH]n2)cc1

>  <Set>  (281) 
G2 inactive

>  <Set_type>  (281) 
External

>  <MW>  (281) 
414.51

>  <HBD>  (281) 
5

>  <HBA>  (281) 
5

>  <NRB>  (281) 
7

>  <NR>  (281) 
4

>  <NAR>  (281) 
4

>  <PSA>  (281) 
93.2

>  <Standard Type>  (281) 
Inhibition

>  <Standard Relation>  (281) 
'='

>  <Standard Units>  (281) 
%

>  <Standard Value>  (281) 
16.0

>  <Assay ChEMBL ID>  (281) 
CHEMBL898057

>  <Assay Description>  (281) 
Inhibition of PKCbeta at 1 uM

>  <BAO Label>  (281) 
single protein format

$$$$

     RDKit          2D

 18 19  0  0  0  0  0  0  0  0999 V2000
    6.5218   -0.9664    0.0000 O   0  0  0  0  0  0  0  0  0  0  0  0
    5.3083   -1.8481    0.0000 C   0  0  0  0  0  0  0  0  0  0  0  0
    5.3083   -3.3481    0.0000 N   0  0  0  0  0  0  0  0  0  0  0  0
    3.8817   -3.8116    0.0000 C   0  0  0  0  0  0  0  0  0  0  0  0
    3.4182   -5.2382    0.0000 O   0  0  0  0  0  0  0  0  0  0  0  0
    3.0000   -2.5981    0.0000 C   0  0  0  0  0  0  0  0  0  0  0  0
    1.5000   -2.5981    0.0000 C   0  0  0  0  0  0  0  0  0  0  0  0
    0.7500   -1.2990    0.0000 C   0  0  0  0  0  0  0  0  0  0  0  0
    1.5000    0.0000    0.0000 C   0  0  0  0  0  0  0  0  0  0  0  0
    0.7500    1.2990    0.0000 C   0  0  0  0  0  0  0  0  0  0  0  0
   -0.7500    1.2990    0.0000 C   0  0  0  0  0  0  0  0  0  0  0  0
   -1.5000    0.0000    0.0000 C   0  0  0  0  0  0  0  0  0  0  0  0
   -3.0000    0.0000    0.0000 C   0  0  0  0  0  0  0  0  0  0  0  0
   -4.5000    0.0000    0.0000 F   0  0  0  0  0  0  0  0  0  0  0  0
   -3.0000    1.5000    0.0000 F   0  0  0  0  0  0  0  0  0  0  0  0
   -3.0000   -1.5000    0.0000 F   0  0  0  0  0  0  0  0  0  0  0  0
   -0.7500   -1.2990    0.0000 C   0  0  0  0  0  0  0  0  0  0  0  0
    3.8817   -1.3846    0.0000 S   0  0  0  0  0  0  0  0  0  0  0  0
  1  2  2  0
  2  3  1  0
  3  4  1  0
  4  5  2  0
  4  6  1  0
  6  7  2  0
  7  8  1  0
  8  9  2  0
  9 10  1  0
 10 11  2  0
 11 12  1  0
 12 13  1  0
 13 14  1  0
 13 15  1  0
 13 16  1  0
 12 17  2  0
  6 18  1  0
 18  2  1  0
 17  8  1  0
M  END
>  <Compound_ID>  (282) 
CHEMBL183906

>  <Active>  (282) 
0.0

>  <Smiles>  (282) 
O=C1NC(=O)/C(=C/c2cccc(C(F)(F)F)c2)S1

>  <canonical_smi>  (282) 
O=C1NC(=O)/C(=C/c2cccc(C(F)(F)F)c2)S1

>  <Set>  (282) 
G2 inactive

>  <Set_type>  (282) 
External

>  <MW>  (282) 
273.23

>  <HBD>  (282) 
1

>  <HBA>  (282) 
3

>  <NRB>  (282) 
1

>  <NR>  (282) 
2

>  <NAR>  (282) 
1

>  <PSA>  (282) 
46.17

>  <Standard Type>  (282) 
Inhibition

>  <Standard Relation>  (282) 
'='

>  <Standard Units>  (282) 
%

>  <Standard Value>  (282) 
-2.0

>  <Assay ChEMBL ID>  (282) 
CHEMBL1012714

>  <Assay Description>  (282) 
Inhibition of PKCbeta2 at 5 uM

>  <BAO Label>  (282) 
single protein format

$$$$

     RDKit          2D

 23 25  0  0  0  0  0  0  0  0999 V2000
   -5.2500   -1.2990    0.0000 C   0  0  0  0  0  0  0  0  0  0  0  0
   -3.7500   -1.2990    0.0000 C   0  0  0  0  0  0  0  0  0  0  0  0
   -3.0000   -0.0000    0.0000 C   0  0  0  0  0  0  0  0  0  0  0  0
   -3.0000   -2.5981    0.0000 N   0  0  0  0  0  0  0  0  0  0  0  0
   -1.5000   -2.5981    0.0000 C   0  0  0  0  0  0  0  0  0  0  0  0
   -0.7500   -3.8971    0.0000 C   0  0  0  0  0  0  0  0  0  0  0  0
   -1.5000   -5.1962    0.0000 C   0  0  0  0  0  0  0  0  0  0  0  0
   -0.7500   -6.4952    0.0000 N   0  0  0  0  0  0  0  0  0  0  0  0
   -3.0000   -5.1962    0.0000 O   0  0  0  0  0  0  0  0  0  0  0  0
    0.7500   -3.8971    0.0000 N   0  0  0  0  0  0  0  0  0  0  0  0
    1.5000   -2.5981    0.0000 N   0  0  0  0  0  0  0  0  0  0  0  0
    0.7500   -1.2990    0.0000 C   0  0  0  0  0  0  0  0  0  0  0  0
    1.5000    0.0000    0.0000 C   0  0  0  0  0  0  0  0  0  0  0  0
    0.7500    1.2990    0.0000 C   0  0  0  0  0  0  0  0  0  0  0  0
    1.5000    2.5981    0.0000 C   0  0  0  0  0  0  0  0  0  0  0  0
    3.0000    2.5981    0.0000 C   0  0  0  0  0  0  0  0  0  0  0  0
    3.7500    3.8971    0.0000 C   0  0  0  0  0  0  0  0  0  0  0  0
    3.0000    5.1962    0.0000 N   0  0  0  0  0  0  0  0  0  0  0  0
    1.5000    5.1962    0.0000 C   0  0  0  0  0  0  0  0  0  0  0  0
    0.7500    3.8971    0.0000 C   0  0  0  0  0  0  0  0  0  0  0  0
   -0.7500    1.2990    0.0000 C   0  0  0  0  0  0  0  0  0  0  0  0
   -1.5000    0.0000    0.0000 C   0  0  0  0  0  0  0  0  0  0  0  0
   -0.7500   -1.2990    0.0000 C   0  0  0  0  0  0  0  0  0  0  0  0
  1  2  1  0
  2  3  1  0
  2  4  1  0
  4  5  1  0
  5  6  2  0
  6  7  1  0
  7  8  1  0
  7  9  2  0
  6 10  1  0
 10 11  2  0
 11 12  1  0
 12 13  2  0
 13 14  1  0
 14 15  1  0
 15 16  2  0
 16 17  1  0
 17 18  2  0
 18 19  1  0
 19 20  2  0
 14 21  2  0
 21 22  1  0
 22 23  2  0
 23  5  1  0
 23 12  1  0
 20 15  1  0
M  END
>  <Compound_ID>  (283) 
CHEMBL2333112

>  <Active>  (283) 
0.0

>  <Smiles>  (283) 
CC(C)Nc1c(C(N)=O)nnc2cc(-c3ccncc3)ccc12

>  <canonical_smi>  (283) 
CC(C)Nc1c(C(N)=O)nnc2cc(-c3ccncc3)ccc12

>  <Set>  (283) 
G2 inactive

>  <Set_type>  (283) 
External

>  <MW>  (283) 
307.36

>  <HBD>  (283) 
2

>  <HBA>  (283) 
5

>  <NRB>  (283) 
4

>  <NR>  (283) 
3

>  <NAR>  (283) 
3

>  <PSA>  (283) 
93.79

>  <Standard Type>  (283) 
Inhibition

>  <Standard Relation>  (283) 
'='

>  <Standard Units>  (283) 
%

>  <Standard Value>  (283) 
15.0

>  <Assay ChEMBL ID>  (283) 
CHEMBL2345064

>  <Assay Description>  (283) 
Inhibition of PRKCbeta1 (unknown origin) at 10 uM relative to control

>  <BAO Label>  (283) 
single protein format

$$$$

     RDKit          2D

 30 34  0  0  0  0  0  0  0  0999 V2000
    4.8308   -6.3240    0.0000 C   0  0  0  0  0  0  0  0  0  0  0  0
    4.6740   -4.8322    0.0000 C   0  0  0  0  0  0  0  0  0  0  0  0
    5.8875   -3.9505    0.0000 C   0  0  0  0  0  0  0  0  0  0  0  0
    3.3037   -4.2221    0.0000 N   0  0  0  0  0  0  0  0  0  0  0  0
    2.9918   -2.7549    0.0000 N   0  0  0  0  0  0  0  0  0  0  0  0
    1.5000   -2.5981    0.0000 C   0  0  0  0  0  0  0  0  0  0  0  0
    0.7500   -1.2990    0.0000 C   0  0  0  0  0  0  0  0  0  0  0  0
    1.5000    0.0000    0.0000 C   0  0  0  0  0  0  0  0  0  0  0  0
    0.7500    1.2990    0.0000 N   0  0  0  0  0  0  0  0  0  0  0  0
   -0.7500    1.2990    0.0000 C   0  0  0  0  0  0  0  0  0  0  0  0
   -1.5000    2.5981    0.0000 N   0  0  0  0  0  0  0  0  0  0  0  0
   -1.5000    0.0000    0.0000 C   0  0  0  0  0  0  0  0  0  0  0  0
   -3.0000    0.0000    0.0000 O   0  0  0  0  0  0  0  0  0  0  0  0
   -3.7500   -1.2990    0.0000 C   0  0  0  0  0  0  0  0  0  0  0  0
   -4.5000   -2.5981    0.0000 F   0  0  0  0  0  0  0  0  0  0  0  0
   -5.0490   -0.5490    0.0000 F   0  0  0  0  0  0  0  0  0  0  0  0
   -2.4510   -2.0490    0.0000 F   0  0  0  0  0  0  0  0  0  0  0  0
   -0.7500   -1.2990    0.0000 C   0  0  0  0  0  0  0  0  0  0  0  0
    0.8899   -3.9684    0.0000 C   0  0  0  0  0  0  0  0  0  0  0  0
    2.0046   -4.9721    0.0000 C   0  0  0  0  0  0  0  0  0  0  0  0
    1.8478   -6.4639    0.0000 C   0  0  0  0  0  0  0  0  0  0  0  0
    2.4579   -7.8342    0.0000 C   0  0  0  0  0  0  0  0  0  0  0  0
    2.7698   -9.3014    0.0000 C   0  0  0  0  0  0  0  0  0  0  0  0
    1.4708  -10.0514    0.0000 N   0  0  0  0  0  0  0  0  0  0  0  0
    1.3140  -11.5432    0.0000 C   0  0  0  0  0  0  0  0  0  0  0  0
    0.1482  -12.4872    0.0000 C   0  0  0  0  0  0  0  0  0  0  0  0
    1.0922  -13.6529    0.0000 O   0  0  0  0  0  0  0  0  0  0  0  0
    2.2579  -12.7089    0.0000 C   0  0  0  0  0  0  0  0  0  0  0  0
    0.3560   -9.0477    0.0000 C   0  0  0  0  0  0  0  0  0  0  0  0
    0.9661   -7.6774    0.0000 C   0  0  0  0  0  0  0  0  0  0  0  0
  1  2  1  0
  2  3  1  0
  2  4  1  0
  4  5  1  0
  5  6  2  0
  6  7  1  0
  7  8  2  0
  8  9  1  0
  9 10  2  0
 10 11  1  0
 10 12  1  0
 12 13  1  0
 13 14  1  0
 14 15  1  0
 14 16  1  0
 14 17  1  0
 12 18  2  0
  6 19  1  0
 19 20  2  0
 21 20  1  1
 21 22  1  0
 22 23  1  6
 23 24  1  0
 24 25  1  0
 25 26  1  0
 26 27  1  0
 27 28  1  0
 24 29  1  0
 30 29  1  6
 20  4  1  0
 30 21  1  0
 18  7  1  0
 30 22  1  0
 28 25  1  0
M  END
>  <Compound_ID>  (284) 
CHEMBL3719135

>  <Active>  (284) 
0.0

>  <Smiles>  (284) 
CC(C)n1nc(-c2cnc(N)c(OC(F)(F)F)c2)cc1[C@H]1[C@@H]2CN(C3COC3)C[C@@H]21

>  <canonical_smi>  (284) 
CC(C)n1nc(-c2cnc(N)c(OC(F)(F)F)c2)cc1[C@@H]1[C@H]2CN(C3COC3)C[C@H]21

>  <Set>  (284) 
G2 inactive

>  <Set_type>  (284) 
External

>  <MW>  (284) 
423.44

>  <HBD>  (284) 
1

>  <HBA>  (284) 
6

>  <NRB>  (284) 
5

>  <NR>  (284) 
5

>  <NAR>  (284) 
2

>  <PSA>  (284) 
78.43

>  <Standard Type>  (284) 
Inhibition

>  <Standard Relation>  (284) 
'='

>  <Standard Units>  (284) 
%

>  <Standard Value>  (284) 
1.1

>  <Assay ChEMBL ID>  (284) 
CHEMBL4120069

>  <Assay Description>  (284) 
Inhibition of PKCbeta1 (unknown origin) at 1 uM by FRET assay relative to control

>  <BAO Label>  (284) 
single protein format

$$$$

     RDKit          2D

 29 33  0  0  0  0  0  0  0  0999 V2000
   -3.9955   -4.2382    0.0000 O   0  0  0  0  0  0  0  0  0  0  0  0
   -2.9918   -5.3529    0.0000 C   0  0  0  0  0  0  0  0  0  0  0  0
   -3.3037   -6.8202    0.0000 N   0  0  0  0  0  0  0  0  0  0  0  0
   -2.0046   -7.5702    0.0000 N   0  0  0  0  0  0  0  0  0  0  0  0
   -0.8899   -6.5665    0.0000 C   0  0  0  0  0  0  0  0  0  0  0  0
    0.5773   -6.8783    0.0000 C   0  0  0  0  0  0  0  0  0  0  0  0
    1.0409   -8.3049    0.0000 C   0  0  0  0  0  0  0  0  0  0  0  0
    2.5081   -8.6168    0.0000 C   0  0  0  0  0  0  0  0  0  0  0  0
    3.5118   -7.5021    0.0000 N   0  0  0  0  0  0  0  0  0  0  0  0
    3.0482   -6.0755    0.0000 C   0  0  0  0  0  0  0  0  0  0  0  0
    4.0519   -4.9608    0.0000 N   0  0  0  0  0  0  0  0  0  0  0  0
    5.5192   -5.2726    0.0000 C   0  0  0  0  0  0  0  0  0  0  0  0
    5.9827   -6.6992    0.0000 C   0  0  0  0  0  0  0  0  0  0  0  0
    7.4499   -7.0111    0.0000 C   0  0  0  0  0  0  0  0  0  0  0  0
    8.4536   -5.8964    0.0000 O   0  0  0  0  0  0  0  0  0  0  0  0
    7.9901   -4.4698    0.0000 C   0  0  0  0  0  0  0  0  0  0  0  0
    6.5229   -4.1579    0.0000 C   0  0  0  0  0  0  0  0  0  0  0  0
    1.5810   -5.7636    0.0000 C   0  0  0  0  0  0  0  0  0  0  0  0
   -1.5000   -5.1962    0.0000 N   0  0  0  0  0  0  0  0  0  0  0  0
   -0.7500   -3.8971    0.0000 C   0  0  0  0  0  0  0  0  0  0  0  0
    0.7500   -3.8971    0.0000 C   0  0  0  0  0  0  0  0  0  0  0  0
    1.5000   -2.5981    0.0000 C   0  0  0  0  0  0  0  0  0  0  0  0
    0.7500   -1.2990    0.0000 C   0  0  0  0  0  0  0  0  0  0  0  0
    1.5000    0.0000    0.0000 C   0  0  0  0  0  0  0  0  0  0  0  0
    0.7500    1.2990    0.0000 C   0  0  0  0  0  0  0  0  0  0  0  0
   -0.7500    1.2990    0.0000 C   0  0  0  0  0  0  0  0  0  0  0  0
   -1.5000    0.0000    0.0000 C   0  0  0  0  0  0  0  0  0  0  0  0
   -0.7500   -1.2990    0.0000 C   0  0  0  0  0  0  0  0  0  0  0  0
   -1.5000   -2.5981    0.0000 C   0  0  0  0  0  0  0  0  0  0  0  0
  1  2  2  0
  2  3  1  0
  3  4  1  0
  4  5  2  0
  5  6  1  0
  6  7  2  0
  7  8  1  0
  8  9  2  0
  9 10  1  0
 10 11  1  0
 11 12  1  0
 12 13  1  0
 13 14  1  0
 14 15  1  0
 15 16  1  0
 16 17  1  0
 10 18  2  0
  5 19  1  0
 19 20  1  0
 20 21  2  0
 21 22  1  0
 22 23  2  0
 23 24  1  0
 24 25  2  0
 25 26  1  0
 26 27  2  0
 27 28  1  0
 28 29  2  0
 19  2  1  0
 29 20  1  0
 18  6  1  0
 28 23  1  0
 17 12  1  0
M  END
>  <Compound_ID>  (285) 
CHEMBL1644620

>  <Active>  (285) 
0.0

>  <Smiles>  (285) 
O=c1[nH]nc(-c2ccnc(NC3CCOCC3)c2)n1-c1ccc2ccccc2c1

>  <canonical_smi>  (285) 
O=c1[nH]nc(-c2ccnc(NC3CCOCC3)c2)n1-c1ccc2ccccc2c1

>  <Set>  (285) 
G2 inactive

>  <Set_type>  (285) 
External

>  <MW>  (285) 
387.44

>  <HBD>  (285) 
2

>  <HBA>  (285) 
5

>  <NRB>  (285) 
4

>  <NR>  (285) 
5

>  <NAR>  (285) 
4

>  <PSA>  (285) 
84.83

>  <Standard Type>  (285) 
Inhibition

>  <Standard Relation>  (285) 
'='

>  <Standard Units>  (285) 
%

>  <Standard Value>  (285) 
11.0

>  <Assay ChEMBL ID>  (285) 
CHEMBL1648816

>  <Assay Description>  (285) 
Inhibition of PRKCB1 at 10 uM after 60 mins by TR-FRET assay

>  <BAO Label>  (285) 
single protein format

$$$$

     RDKit          2D

 33 37  0  0  0  0  0  0  0  0999 V2000
   -4.6904   -6.5871    0.0000 C   0  0  0  0  0  0  0  0  0  0  0  0
   -4.3786   -5.1199    0.0000 C   0  0  0  0  0  0  0  0  0  0  0  0
   -2.9520   -4.6564    0.0000 N   0  0  0  0  0  0  0  0  0  0  0  0
   -2.6401   -3.1891    0.0000 C   0  0  0  0  0  0  0  0  0  0  0  0
   -3.7548   -2.1855    0.0000 O   0  0  0  0  0  0  0  0  0  0  0  0
   -1.2135   -2.7256    0.0000 C   0  0  0  0  0  0  0  0  0  0  0  0
   -0.0000   -3.6073    0.0000 C   0  0  0  0  0  0  0  0  0  0  0  0
    1.2135   -2.7256    0.0000 N   0  0  0  0  0  0  0  0  0  0  0  0
    0.7500   -1.2990    0.0000 C   0  0  0  0  0  0  0  0  0  0  0  0
    1.5000    0.0000    0.0000 N   0  0  0  0  0  0  0  0  0  0  0  0
    0.7500    1.2990    0.0000 C   0  0  0  0  0  0  0  0  0  0  0  0
   -0.7500    1.2990    0.0000 C   0  0  0  0  0  0  0  0  0  0  0  0
   -1.5000    2.5981    0.0000 C   0  0  0  0  0  0  0  0  0  0  0  0
   -2.9918    2.7549    0.0000 N   0  0  0  0  0  0  0  0  0  0  0  0
   -3.3037    4.2221    0.0000 C   0  0  0  0  0  0  0  0  0  0  0  0
   -2.0046    4.9721    0.0000 N   0  0  0  0  0  0  0  0  0  0  0  0
   -1.6927    6.4393    0.0000 C   0  0  0  0  0  0  0  0  0  0  0  0
   -0.2662    6.9028    0.0000 C   0  0  0  0  0  0  0  0  0  0  0  0
    0.0457    8.3701    0.0000 F   0  0  0  0  0  0  0  0  0  0  0  0
    0.8486    5.8991    0.0000 C   0  0  0  0  0  0  0  0  0  0  0  0
    0.5367    4.4319    0.0000 C   0  0  0  0  0  0  0  0  0  0  0  0
    1.6514    3.4282    0.0000 F   0  0  0  0  0  0  0  0  0  0  0  0
   -0.8899    3.9684    0.0000 C   0  0  0  0  0  0  0  0  0  0  0  0
   -1.5000    0.0000    0.0000 N   0  0  0  0  0  0  0  0  0  0  0  0
   -0.7500   -1.2990    0.0000 C   0  0  0  0  0  0  0  0  0  0  0  0
   -5.4933   -4.1162    0.0000 C   0  0  0  0  0  0  0  0  0  0  0  0
   -5.1814   -2.6490    0.0000 O   0  0  0  0  0  0  0  0  0  0  0  0
   -6.9199   -4.5797    0.0000 N   0  0  0  0  0  0  0  0  0  0  0  0
   -8.2564   -3.8987    0.0000 C   0  0  0  0  0  0  0  0  0  0  0  0
   -8.9374   -5.2352    0.0000 C   0  0  0  0  0  0  0  0  0  0  0  0
  -10.3639   -5.6988    0.0000 C   0  0  0  0  0  0  0  0  0  0  0  0
  -11.7905   -6.1623    0.0000 N   0  0  0  0  0  0  0  0  0  0  0  0
   -7.6009   -5.9162    0.0000 C   0  0  0  0  0  0  0  0  0  0  0  0
  2  1  1  6
  2  3  1  0
  3  4  1  0
  4  5  2  0
  4  6  1  0
  6  7  2  0
  7  8  1  0
  8  9  1  0
  9 10  2  0
 10 11  1  0
 11 12  2  0
 12 13  1  0
 13 14  1  0
 14 15  2  0
 15 16  1  0
 16 17  1  0
 17 18  2  0
 18 19  1  0
 18 20  1  0
 20 21  2  0
 21 22  1  0
 21 23  1  0
 12 24  1  0
 24 25  2  0
  2 26  1  0
 26 27  2  0
 26 28  1  0
 28 29  1  0
 29 30  1  0
 30 31  1  0
 31 32  3  0
 30 33  1  0
 25  6  1  0
 33 28  1  0
 25  9  1  0
 23 13  2  0
 23 16  1  0
M  END
>  <Compound_ID>  (286) 
CHEMBL2376158

>  <Active>  (286) 
0.0

>  <Smiles>  (286) 
C[C@@H](NC(=O)c1c[nH]c2ncc(-c3ncn4cc(F)cc(F)c34)nc12)C(=O)N1CC(C#N)C1

>  <canonical_smi>  (286) 
C[C@@H](NC(=O)c1c[nH]c2ncc(-c3ncn4cc(F)cc(F)c34)nc12)C(=O)N1CC(C#N)C1

>  <Set>  (286) 
G2 inactive

>  <Set_type>  (286) 
External

>  <MW>  (286) 
450.41

>  <HBD>  (286) 
2

>  <HBA>  (286) 
6

>  <NRB>  (286) 
4

>  <NR>  (286) 
5

>  <NAR>  (286) 
4

>  <PSA>  (286) 
132.07

>  <Standard Type>  (286) 
Inhibition

>  <Standard Relation>  (286) 
'='

>  <Standard Units>  (286) 
%

>  <Standard Value>  (286) 
9.0

>  <Assay ChEMBL ID>  (286) 
CHEMBL2378210

>  <Assay Description>  (286) 
Inhibition of protein kinase C beta (unknown origin) at 10 uM relative to control

>  <BAO Label>  (286) 
single protein format

$$$$

     RDKit          2D

 25 28  0  0  0  0  0  0  0  0999 V2000
   -3.0000   -5.1962    0.0000 O   0  0  0  0  0  0  0  0  0  0  0  0
   -3.7500   -3.8971    0.0000 C   0  0  0  0  0  0  0  0  0  0  0  0
   -3.0000   -2.5981    0.0000 C   0  0  0  0  0  0  0  0  0  0  0  0
   -1.5000   -2.5981    0.0000 C   0  0  0  0  0  0  0  0  0  0  0  0
   -0.7500   -3.8971    0.0000 C   0  0  0  0  0  0  0  0  0  0  0  0
    0.7500   -3.8971    0.0000 C   0  0  0  0  0  0  0  0  0  0  0  0
    1.5000   -2.5981    0.0000 C   0  0  0  0  0  0  0  0  0  0  0  0
    0.7500   -1.2990    0.0000 C   0  0  0  0  0  0  0  0  0  0  0  0
    1.5000    0.0000    0.0000 C   0  0  0  0  0  0  0  0  0  0  0  0
    0.7500    1.2990    0.0000 N   0  0  0  0  0  0  0  0  0  0  0  0
   -0.7500    1.2990    0.0000 C   0  0  0  0  0  0  0  0  0  0  0  0
   -1.5000    0.0000    0.0000 C   0  0  0  0  0  0  0  0  0  0  0  0
   -0.7500   -1.2990    0.0000 C   0  0  0  0  0  0  0  0  0  0  0  0
   -5.2500   -3.8971    0.0000 N   0  0  0  0  0  0  0  0  0  0  0  0
   -6.0000   -5.1962    0.0000 C   0  0  0  0  0  0  0  0  0  0  0  0
   -5.3899   -6.5665    0.0000 S   0  0  0  0  0  0  0  0  0  0  0  0
   -6.5046   -7.5702    0.0000 C   0  0  0  0  0  0  0  0  0  0  0  0
   -7.8037   -6.8202    0.0000 C   0  0  0  0  0  0  0  0  0  0  0  0
   -9.1740   -7.4303    0.0000 Cl  0  0  0  0  0  0  0  0  0  0  0  0
   -7.4918   -5.3529    0.0000 C   0  0  0  0  0  0  0  0  0  0  0  0
   -8.4955   -4.2382    0.0000 C   0  0  0  0  0  0  0  0  0  0  0  0
   -9.9873   -4.3950    0.0000 N   0  0  0  0  0  0  0  0  0  0  0  0
  -10.5974   -3.0247    0.0000 C   0  0  0  0  0  0  0  0  0  0  0  0
   -9.4826   -2.0210    0.0000 N   0  0  0  0  0  0  0  0  0  0  0  0
   -8.1836   -2.7710    0.0000 N   0  0  0  0  0  0  0  0  0  0  0  0
  1  2  2  0
  2  3  1  0
  3  4  1  0
  4  5  2  0
  5  6  1  0
  6  7  2  0
  7  8  1  0
  8  9  2  0
  9 10  1  0
 10 11  2  0
 11 12  1  0
 12 13  2  0
  2 14  1  0
 14 15  1  0
 15 16  1  0
 16 17  1  0
 17 18  2  0
 18 19  1  0
 18 20  1  0
 20 21  1  0
 21 22  2  0
 22 23  1  0
 23 24  2  0
 24 25  1  0
 13  4  1  0
 20 15  2  0
 25 21  1  0
 13  8  1  0
M  END
>  <Compound_ID>  (287) 
CHEMBL1682017

>  <Active>  (287) 
0.0

>  <Smiles>  (287) 
O=C(Cc1cccc2cnccc12)Nc1scc(Cl)c1-c1ncn[nH]1

>  <canonical_smi>  (287) 
O=C(Cc1cccc2cnccc12)Nc1scc(Cl)c1-c1ncn[nH]1

>  <Set>  (287) 
G2 inactive

>  <Set_type>  (287) 
External

>  <MW>  (287) 
369.84

>  <HBD>  (287) 
2

>  <HBA>  (287) 
4

>  <NRB>  (287) 
4

>  <NR>  (287) 
4

>  <NAR>  (287) 
4

>  <PSA>  (287) 
83.56

>  <Standard Type>  (287) 
Inhibition

>  <Standard Relation>  (287) 
'='

>  <Standard Units>  (287) 
%

>  <Standard Value>  (287) 
3.0

>  <Assay ChEMBL ID>  (287) 
CHEMBL1686797

>  <Assay Description>  (287) 
Inhibition of PRKCB1 at 10 uM

>  <BAO Label>  (287) 
single protein format

$$$$

     RDKit          2D

 21 24  0  0  0  0  0  0  0  0999 V2000
   -2.6401   -3.1891    0.0000 C   0  0  0  0  0  0  0  0  0  0  0  0
   -1.2135   -2.7256    0.0000 N   0  0  0  0  0  0  0  0  0  0  0  0
   -0.0000   -3.6073    0.0000 C   0  0  0  0  0  0  0  0  0  0  0  0
    1.2135   -2.7256    0.0000 C   0  0  0  0  0  0  0  0  0  0  0  0
    2.6401   -3.1891    0.0000 C   0  0  0  0  0  0  0  0  0  0  0  0
    2.9520   -4.6564    0.0000 C   0  0  0  0  0  0  0  0  0  0  0  0
    1.9483   -5.7711    0.0000 C   0  0  0  0  0  0  0  0  0  0  0  0
    0.4565   -5.6143    0.0000 O   0  0  0  0  0  0  0  0  0  0  0  0
    2.6983   -7.0701    0.0000 N   0  0  0  0  0  0  0  0  0  0  0  0
    4.1655   -6.7583    0.0000 C   0  0  0  0  0  0  0  0  0  0  0  0
    5.3790   -7.6399    0.0000 C   0  0  0  0  0  0  0  0  0  0  0  0
    6.7493   -7.0298    0.0000 C   0  0  0  0  0  0  0  0  0  0  0  0
    6.9061   -5.5380    0.0000 C   0  0  0  0  0  0  0  0  0  0  0  0
    5.6926   -4.6564    0.0000 N   0  0  0  0  0  0  0  0  0  0  0  0
    4.3223   -5.2665    0.0000 C   0  0  0  0  0  0  0  0  0  0  0  0
    0.7500   -1.2990    0.0000 C   0  0  0  0  0  0  0  0  0  0  0  0
    1.5000    0.0000    0.0000 C   0  0  0  0  0  0  0  0  0  0  0  0
    0.7500    1.2990    0.0000 C   0  0  0  0  0  0  0  0  0  0  0  0
   -0.7500    1.2990    0.0000 C   0  0  0  0  0  0  0  0  0  0  0  0
   -1.5000    0.0000    0.0000 C   0  0  0  0  0  0  0  0  0  0  0  0
   -0.7500   -1.2990    0.0000 C   0  0  0  0  0  0  0  0  0  0  0  0
  1  2  1  0
  2  3  1  0
  3  4  2  0
  4  5  1  0
  5  6  2  3
  6  7  1  0
  7  8  2  0
  7  9  1  0
  9 10  1  0
 10 11  2  0
 11 12  1  0
 12 13  2  0
 13 14  1  0
 14 15  2  0
  4 16  1  0
 16 17  2  0
 17 18  1  0
 18 19  2  0
 19 20  1  0
 20 21  2  0
 21  2  1  0
 15  6  1  0
 21 16  1  0
 15 10  1  0
M  END
>  <Compound_ID>  (288) 
CHEMBL1516890

>  <Active>  (288) 
0.0

>  <Smiles>  (288) 
Cn1cc(C=C2C(=O)Nc3cccnc32)c2ccccc21

>  <canonical_smi>  (288) 
Cn1cc(C=C2C(=O)Nc3cccnc32)c2ccccc21

>  <Set>  (288) 
G2 inactive

>  <Set_type>  (288) 
External

>  <MW>  (288) 
275.31

>  <HBD>  (288) 
1

>  <HBA>  (288) 
2

>  <NRB>  (288) 
1

>  <NR>  (288) 
4

>  <NAR>  (288) 
3

>  <PSA>  (288) 
46.92

>  <Standard Type>  (288) 
Inhibition

>  <Standard Relation>  (288) 
'='

>  <Standard Units>  (288) 
%

>  <Standard Value>  (288) 
0.03

>  <Assay ChEMBL ID>  (288) 
CHEMBL1961901

>  <Assay Description>  (288) 
GSK_PKIS: PKC-beta1 (splice variant) mean inhibition at 1 uM [Nanosyn]

>  <BAO Label>  (288) 
single protein format

$$$$

     RDKit          2D

 24 26  0  0  0  0  0  0  0  0999 V2000
    1.8478   -6.4639    0.0000 O   0  0  0  0  0  0  0  0  0  0  0  0
    2.0046   -4.9721    0.0000 C   0  0  0  0  0  0  0  0  0  0  0  0
    3.3037   -4.2221    0.0000 N   0  0  0  0  0  0  0  0  0  0  0  0
    2.9918   -2.7549    0.0000 C   0  0  0  0  0  0  0  0  0  0  0  0
    3.9955   -1.6402    0.0000 O   0  0  0  0  0  0  0  0  0  0  0  0
    1.5000   -2.5981    0.0000 C   0  0  0  0  0  0  0  0  0  0  0  0
    0.7500   -1.2990    0.0000 C   0  0  0  0  0  0  0  0  0  0  0  0
    1.5000    0.0000    0.0000 C   0  0  0  0  0  0  0  0  0  0  0  0
    0.7500    1.2990    0.0000 C   0  0  0  0  0  0  0  0  0  0  0  0
   -0.7500    1.2990    0.0000 C   0  0  0  0  0  0  0  0  0  0  0  0
   -1.5000    0.0000    0.0000 C   0  0  0  0  0  0  0  0  0  0  0  0
   -0.7500   -1.2990    0.0000 C   0  0  0  0  0  0  0  0  0  0  0  0
   -1.5000   -2.5981    0.0000 Cl  0  0  0  0  0  0  0  0  0  0  0  0
    0.8899   -3.9684    0.0000 C   0  0  0  0  0  0  0  0  0  0  0  0
   -0.5773   -4.2803    0.0000 N   0  0  0  0  0  0  0  0  0  0  0  0
   -1.0409   -5.7068    0.0000 C   0  0  0  0  0  0  0  0  0  0  0  0
   -2.5081   -6.0187    0.0000 C   0  0  0  0  0  0  0  0  0  0  0  0
   -2.9716   -7.4453    0.0000 C   0  0  0  0  0  0  0  0  0  0  0  0
   -4.4388   -7.7572    0.0000 Cl  0  0  0  0  0  0  0  0  0  0  0  0
   -1.9679   -8.5600    0.0000 C   0  0  0  0  0  0  0  0  0  0  0  0
   -2.4314   -9.9866    0.0000 O   0  0  0  0  0  0  0  0  0  0  0  0
   -0.5007   -8.2481    0.0000 C   0  0  0  0  0  0  0  0  0  0  0  0
    0.5030   -9.3629    0.0000 Cl  0  0  0  0  0  0  0  0  0  0  0  0
   -0.0372   -6.8216    0.0000 C   0  0  0  0  0  0  0  0  0  0  0  0
  1  2  2  0
  2  3  1  0
  3  4  1  0
  4  5  2  0
  4  6  1  0
  6  7  1  0
  7  8  2  0
  8  9  1  0
  9 10  2  0
 10 11  1  0
 11 12  2  0
 12 13  1  0
  6 14  2  0
 14 15  1  0
 15 16  1  0
 16 17  2  0
 17 18  1  0
 18 19  1  0
 18 20  2  0
 20 21  1  0
 20 22  1  0
 22 23  1  0
 22 24  2  0
 14  2  1  0
 24 16  1  0
 12  7  1  0
M  END
>  <Compound_ID>  (289) 
CHEMBL157258

>  <Active>  (289) 
0.0

>  <Smiles>  (289) 
O=C1NC(=O)C(c2ccccc2Cl)=C1Nc1cc(Cl)c(O)c(Cl)c1

>  <canonical_smi>  (289) 
O=C1NC(=O)C(c2ccccc2Cl)=C1Nc1cc(Cl)c(O)c(Cl)c1

>  <Set>  (289) 
G2 inactive

>  <Set_type>  (289) 
External

>  <MW>  (289) 
383.62

>  <HBD>  (289) 
3

>  <HBA>  (289) 
4

>  <NRB>  (289) 
3

>  <NR>  (289) 
3

>  <NAR>  (289) 
2

>  <PSA>  (289) 
78.43

>  <Standard Type>  (289) 
Inhibition

>  <Standard Relation>  (289) 
'='

>  <Standard Units>  (289) 
%

>  <Standard Value>  (289) 
2.54

>  <Assay ChEMBL ID>  (289) 
CHEMBL1961910

>  <Assay Description>  (289) 
GSK_PKIS: PKC-beta2 (splice variant) mean inhibition at 0.1 uM [Nanosyn]

>  <BAO Label>  (289) 
single protein format

$$$$

     RDKit          2D

 35 39  0  0  0  0  0  0  0  0999 V2000
   -8.2322   -0.7949    0.0000 C   0  0  0  0  0  0  0  0  0  0  0  0
   -6.8056   -1.2584    0.0000 C   0  0  0  0  0  0  0  0  0  0  0  0
   -6.4937   -2.7256    0.0000 O   0  0  0  0  0  0  0  0  0  0  0  0
   -5.0672   -3.1891    0.0000 C   0  0  0  0  0  0  0  0  0  0  0  0
   -3.8536   -2.3075    0.0000 C   0  0  0  0  0  0  0  0  0  0  0  0
   -2.6401   -3.1891    0.0000 C   0  0  0  0  0  0  0  0  0  0  0  0
   -1.2135   -2.7256    0.0000 N   0  0  0  0  0  0  0  0  0  0  0  0
   -0.0000   -3.6073    0.0000 C   0  0  0  0  0  0  0  0  0  0  0  0
    1.2135   -2.7256    0.0000 N   0  0  0  0  0  0  0  0  0  0  0  0
    0.7500   -1.2990    0.0000 C   0  0  0  0  0  0  0  0  0  0  0  0
    1.5000    0.0000    0.0000 C   0  0  0  0  0  0  0  0  0  0  0  0
    0.7500    1.2990    0.0000 C   0  0  0  0  0  0  0  0  0  0  0  0
   -0.7500    1.2990    0.0000 C   0  0  0  0  0  0  0  0  0  0  0  0
   -1.5000    2.5981    0.0000 O   0  0  0  0  0  0  0  0  0  0  0  0
   -0.7500    3.8971    0.0000 C   0  0  0  0  0  0  0  0  0  0  0  0
    0.7500    3.8971    0.0000 C   0  0  0  0  0  0  0  0  0  0  0  0
    1.5000    5.1962    0.0000 C   0  0  0  0  0  0  0  0  0  0  0  0
    0.7500    6.4952    0.0000 N   0  0  0  0  0  0  0  0  0  0  0  0
    1.5000    7.7942    0.0000 C   0  0  0  0  0  0  0  0  0  0  0  0
   -0.7500    6.4952    0.0000 C   0  0  0  0  0  0  0  0  0  0  0  0
   -1.5000    5.1962    0.0000 C   0  0  0  0  0  0  0  0  0  0  0  0
   -1.5000    0.0000    0.0000 C   0  0  0  0  0  0  0  0  0  0  0  0
   -0.7500   -1.2990    0.0000 C   0  0  0  0  0  0  0  0  0  0  0  0
   -3.1036   -4.6157    0.0000 S   0  0  0  0  0  0  0  0  0  0  0  0
   -4.6036   -4.6157    0.0000 C   0  0  0  0  0  0  0  0  0  0  0  0
   -5.4853   -5.8293    0.0000 C   0  0  0  0  0  0  0  0  0  0  0  0
   -4.8752   -7.1996    0.0000 N   0  0  0  0  0  0  0  0  0  0  0  0
   -6.9771   -5.6725    0.0000 O   0  0  0  0  0  0  0  0  0  0  0  0
   -5.6909   -0.2547    0.0000 C   0  0  0  0  0  0  0  0  0  0  0  0
   -4.2643   -0.7182    0.0000 C   0  0  0  0  0  0  0  0  0  0  0  0
   -3.1496    0.2855    0.0000 C   0  0  0  0  0  0  0  0  0  0  0  0
   -3.4615    1.7527    0.0000 C   0  0  0  0  0  0  0  0  0  0  0  0
   -4.8880    2.2162    0.0000 C   0  0  0  0  0  0  0  0  0  0  0  0
   -6.0028    1.2125    0.0000 C   0  0  0  0  0  0  0  0  0  0  0  0
   -7.4293    1.6760    0.0000 Cl  0  0  0  0  0  0  0  0  0  0  0  0
  2  1  1  6
  2  3  1  0
  3  4  1  0
  4  5  1  0
  5  6  2  0
  6  7  1  0
  7  8  1  0
  8  9  2  0
  9 10  1  0
 10 11  2  0
 11 12  1  0
 12 13  2  0
 13 14  1  0
 14 15  1  0
 15 16  1  0
 16 17  1  0
 17 18  1  0
 18 19  1  0
 18 20  1  0
 20 21  1  0
 13 22  1  0
 22 23  2  0
  6 24  1  0
 24 25  1  0
 25 26  1  0
 26 27  1  0
 26 28  2  0
  2 29  1  0
 29 30  2  0
 30 31  1  0
 31 32  2  0
 32 33  1  0
 33 34  2  0
 34 35  1  0
 25  4  2  0
 34 29  1  0
 23  7  1  0
 23 10  1  0
 21 15  1  0
M  END
>  <Compound_ID>  (290) 
CHEMBL1794070

>  <Active>  (290) 
0.0

>  <Smiles>  (290) 
C[C@@H](Oc1cc(-n2cnc3ccc(OC4CCN(C)CC4)cc32)sc1C(N)=O)c1ccccc1Cl

>  <canonical_smi>  (290) 
C[C@@H](Oc1cc(-n2cnc3ccc(OC4CCN(C)CC4)cc32)sc1C(N)=O)c1ccccc1Cl

>  <Set>  (290) 
G2 inactive

>  <Set_type>  (290) 
External

>  <MW>  (290) 
511.05

>  <HBD>  (290) 
1

>  <HBA>  (290) 
5

>  <NRB>  (290) 
7

>  <NR>  (290) 
5

>  <NAR>  (290) 
4

>  <PSA>  (290) 
82.61

>  <Standard Type>  (290) 
Inhibition

>  <Standard Relation>  (290) 
'='

>  <Standard Units>  (290) 
%

>  <Standard Value>  (290) 
3.64

>  <Assay ChEMBL ID>  (290) 
CHEMBL1961910

>  <Assay Description>  (290) 
GSK_PKIS: PKC-beta2 (splice variant) mean inhibition at 0.1 uM [Nanosyn]

>  <BAO Label>  (290) 
single protein format

$$$$

     RDKit          2D

 17 19  0  0  0  0  0  0  0  0999 V2000
   -3.7548   -2.1855    0.0000 C   0  0  0  0  0  0  0  0  0  0  0  0
   -2.6401   -3.1891    0.0000 C   0  0  0  0  0  0  0  0  0  0  0  0
   -1.2135   -2.7256    0.0000 N   0  0  0  0  0  0  0  0  0  0  0  0
   -0.0000   -3.6073    0.0000 C   0  0  0  0  0  0  0  0  0  0  0  0
   -0.0000   -5.1073    0.0000 C   0  0  0  0  0  0  0  0  0  0  0  0
    1.2135   -5.9890    0.0000 N   0  0  0  0  0  0  0  0  0  0  0  0
    0.7500   -7.4156    0.0000 O   0  0  0  0  0  0  0  0  0  0  0  0
   -0.7500   -7.4156    0.0000 N   0  0  0  0  0  0  0  0  0  0  0  0
   -1.2135   -5.9890    0.0000 C   0  0  0  0  0  0  0  0  0  0  0  0
   -2.6401   -5.5255    0.0000 N   0  0  0  0  0  0  0  0  0  0  0  0
    1.2135   -2.7256    0.0000 N   0  0  0  0  0  0  0  0  0  0  0  0
    0.7500   -1.2990    0.0000 C   0  0  0  0  0  0  0  0  0  0  0  0
    1.5000    0.0000    0.0000 C   0  0  0  0  0  0  0  0  0  0  0  0
    0.7500    1.2990    0.0000 C   0  0  0  0  0  0  0  0  0  0  0  0
   -0.7500    1.2990    0.0000 N   0  0  0  0  0  0  0  0  0  0  0  0
   -1.5000    0.0000    0.0000 C   0  0  0  0  0  0  0  0  0  0  0  0
   -0.7500   -1.2990    0.0000 C   0  0  0  0  0  0  0  0  0  0  0  0
  1  2  1  0
  2  3  1  0
  3  4  1  0
  4  5  1  0
  5  6  2  0
  6  7  1  0
  7  8  1  0
  8  9  2  0
  9 10  1  0
  4 11  2  0
 11 12  1  0
 12 13  2  0
 13 14  1  0
 14 15  2  0
 15 16  1  0
 16 17  2  0
 17  3  1  0
  9  5  1  0
 17 12  1  0
M  END
>  <Compound_ID>  (291) 
CHEMBL185710

>  <Active>  (291) 
0.0

>  <Smiles>  (291) 
CCn1c(-c2nonc2N)nc2ccncc21

>  <canonical_smi>  (291) 
CCn1c(-c2nonc2N)nc2ccncc21

>  <Set>  (291) 
G2 inactive

>  <Set_type>  (291) 
External

>  <MW>  (291) 
230.23

>  <HBD>  (291) 
1

>  <HBA>  (291) 
6

>  <NRB>  (291) 
2

>  <NR>  (291) 
3

>  <NAR>  (291) 
3

>  <PSA>  (291) 
95.65

>  <Standard Type>  (291) 
Inhibition

>  <Standard Relation>  (291) 
'='

>  <Standard Units>  (291) 
%

>  <Standard Value>  (291) 
0.38

>  <Assay ChEMBL ID>  (291) 
CHEMBL1961910

>  <Assay Description>  (291) 
GSK_PKIS: PKC-beta2 (splice variant) mean inhibition at 0.1 uM [Nanosyn]

>  <BAO Label>  (291) 
single protein format

$$$$

     RDKit          2D

 31 35  0  0  0  0  0  0  0  0999 V2000
    3.0000   -5.1962    0.0000 C   0  0  0  0  0  0  0  0  0  0  0  0
    1.5000   -5.1962    0.0000 O   0  0  0  0  0  0  0  0  0  0  0  0
    0.7500   -3.8971    0.0000 C   0  0  0  0  0  0  0  0  0  0  0  0
    1.5000   -2.5981    0.0000 C   0  0  0  0  0  0  0  0  0  0  0  0
    0.7500   -1.2990    0.0000 C   0  0  0  0  0  0  0  0  0  0  0  0
    1.5000    0.0000    0.0000 N   0  0  0  0  0  0  0  0  0  0  0  0
    0.7500    1.2990    0.0000 C   0  0  0  0  0  0  0  0  0  0  0  0
   -0.7500    1.2990    0.0000 N   0  0  0  0  0  0  0  0  0  0  0  0
   -1.5000    0.0000    0.0000 C   0  0  0  0  0  0  0  0  0  0  0  0
   -3.0000    0.0000    0.0000 N   0  0  0  0  0  0  0  0  0  0  0  0
   -3.7500    1.2990    0.0000 C   0  0  0  0  0  0  0  0  0  0  0  0
   -3.0000    2.5981    0.0000 C   0  0  0  0  0  0  0  0  0  0  0  0
   -3.7500    3.8971    0.0000 C   0  0  0  0  0  0  0  0  0  0  0  0
   -5.2500    3.8971    0.0000 C   0  0  0  0  0  0  0  0  0  0  0  0
   -6.0000    2.5981    0.0000 C   0  0  0  0  0  0  0  0  0  0  0  0
   -7.4672    2.9099    0.0000 C   0  0  0  0  0  0  0  0  0  0  0  0
   -7.6240    4.4017    0.0000 N   0  0  0  0  0  0  0  0  0  0  0  0
   -6.2537    5.0118    0.0000 N   0  0  0  0  0  0  0  0  0  0  0  0
   -5.9418    6.4791    0.0000 C   0  0  0  0  0  0  0  0  0  0  0  0
   -7.0565    7.4827    0.0000 C   0  0  0  0  0  0  0  0  0  0  0  0
   -6.7447    8.9500    0.0000 C   0  0  0  0  0  0  0  0  0  0  0  0
   -7.8594    9.9537    0.0000 C   0  0  0  0  0  0  0  0  0  0  0  0
   -9.2860    9.4901    0.0000 C   0  0  0  0  0  0  0  0  0  0  0  0
   -9.5978    8.0229    0.0000 C   0  0  0  0  0  0  0  0  0  0  0  0
   -8.4831    7.0192    0.0000 C   0  0  0  0  0  0  0  0  0  0  0  0
   -5.2500    1.2990    0.0000 C   0  0  0  0  0  0  0  0  0  0  0  0
   -0.7500   -1.2990    0.0000 C   0  0  0  0  0  0  0  0  0  0  0  0
   -1.5000   -2.5981    0.0000 C   0  0  0  0  0  0  0  0  0  0  0  0
   -0.7500   -3.8971    0.0000 C   0  0  0  0  0  0  0  0  0  0  0  0
   -1.5000   -5.1962    0.0000 O   0  0  0  0  0  0  0  0  0  0  0  0
   -3.0000   -5.1962    0.0000 C   0  0  0  0  0  0  0  0  0  0  0  0
  1  2  1  0
  2  3  1  0
  3  4  2  0
  4  5  1  0
  5  6  2  0
  6  7  1  0
  7  8  2  0
  8  9  1  0
  9 10  1  0
 10 11  1  0
 11 12  2  0
 12 13  1  0
 13 14  2  0
 14 15  1  0
 15 16  1  0
 16 17  2  0
 17 18  1  0
 18 19  1  0
 19 20  1  0
 20 21  2  0
 21 22  1  0
 22 23  2  0
 23 24  1  0
 24 25  2  0
 15 26  2  0
  9 27  2  0
 27 28  1  0
 28 29  2  0
 29 30  1  0
 30 31  1  0
 29  3  1  0
 27  5  1  0
 26 11  1  0
 18 14  1  0
 25 20  1  0
M  END
>  <Compound_ID>  (292) 
CHEMBL1909380

>  <Active>  (292) 
0.0

>  <Smiles>  (292) 
COc1cc2ncnc(Nc3ccc4c(cnn4Cc4ccccc4)c3)c2cc1OC

>  <canonical_smi>  (292) 
COc1cc2ncnc(Nc3ccc4c(cnn4Cc4ccccc4)c3)c2cc1OC

>  <Set>  (292) 
G2 inactive

>  <Set_type>  (292) 
External

>  <MW>  (292) 
411.47

>  <HBD>  (292) 
1

>  <HBA>  (292) 
6

>  <NRB>  (292) 
6

>  <NR>  (292) 
5

>  <NAR>  (292) 
5

>  <PSA>  (292) 
74.09

>  <Standard Type>  (292) 
Inhibition

>  <Standard Relation>  (292) 
'='

>  <Standard Units>  (292) 
%

>  <Standard Value>  (292) 
0.05

>  <Assay ChEMBL ID>  (292) 
CHEMBL1961901

>  <Assay Description>  (292) 
GSK_PKIS: PKC-beta1 (splice variant) mean inhibition at 1 uM [Nanosyn]

>  <BAO Label>  (292) 
single protein format

$$$$

     RDKit          2D

 39 43  0  0  0  0  0  0  0  0999 V2000
   -1.2990  -10.3573    0.0000 C   0  0  0  0  0  0  0  0  0  0  0  0
    0.0000   -9.6073    0.0000 O   0  0  0  0  0  0  0  0  0  0  0  0
    0.0000   -8.1073    0.0000 C   0  0  0  0  0  0  0  0  0  0  0  0
   -1.2990   -7.3573    0.0000 C   0  0  0  0  0  0  0  0  0  0  0  0
   -1.2990   -5.8573    0.0000 C   0  0  0  0  0  0  0  0  0  0  0  0
   -0.0000   -5.1073    0.0000 C   0  0  0  0  0  0  0  0  0  0  0  0
   -0.0000   -3.6073    0.0000 C   0  0  0  0  0  0  0  0  0  0  0  0
    1.2135   -2.7256    0.0000 O   0  0  0  0  0  0  0  0  0  0  0  0
    0.7500   -1.2990    0.0000 C   0  0  0  0  0  0  0  0  0  0  0  0
    1.5000    0.0000    0.0000 N   0  0  0  0  0  0  0  0  0  0  0  0
    0.7500    1.2990    0.0000 C   0  0  0  0  0  0  0  0  0  0  0  0
   -0.7500    1.2990    0.0000 N   0  0  0  0  0  0  0  0  0  0  0  0
   -1.5000    0.0000    0.0000 C   0  0  0  0  0  0  0  0  0  0  0  0
   -3.0000    0.0000    0.0000 N   0  0  0  0  0  0  0  0  0  0  0  0
   -0.7500   -1.2990    0.0000 C   0  0  0  0  0  0  0  0  0  0  0  0
   -1.2135   -2.7256    0.0000 C   0  0  0  0  0  0  0  0  0  0  0  0
   -2.6401   -3.1891    0.0000 C   0  0  0  0  0  0  0  0  0  0  0  0
   -3.7548   -2.1855    0.0000 C   0  0  0  0  0  0  0  0  0  0  0  0
   -5.1814   -2.6490    0.0000 C   0  0  0  0  0  0  0  0  0  0  0  0
   -5.4933   -4.1162    0.0000 C   0  0  0  0  0  0  0  0  0  0  0  0
   -6.9199   -4.5797    0.0000 N   0  0  0  0  0  0  0  0  0  0  0  0
   -8.0346   -3.5760    0.0000 C   0  0  0  0  0  0  0  0  0  0  0  0
   -7.7227   -2.1088    0.0000 O   0  0  0  0  0  0  0  0  0  0  0  0
   -9.4612   -4.0396    0.0000 N   0  0  0  0  0  0  0  0  0  0  0  0
  -10.5759   -3.0359    0.0000 C   0  0  0  0  0  0  0  0  0  0  0  0
  -10.2640   -1.5686    0.0000 C   0  0  0  0  0  0  0  0  0  0  0  0
  -11.3787   -0.5649    0.0000 C   0  0  0  0  0  0  0  0  0  0  0  0
  -11.0669    0.9023    0.0000 C   0  0  0  0  0  0  0  0  0  0  0  0
  -10.7550    2.3695    0.0000 F   0  0  0  0  0  0  0  0  0  0  0  0
   -9.5996    0.5904    0.0000 F   0  0  0  0  0  0  0  0  0  0  0  0
  -12.5341    1.2141    0.0000 F   0  0  0  0  0  0  0  0  0  0  0  0
  -12.8053   -1.0285    0.0000 C   0  0  0  0  0  0  0  0  0  0  0  0
  -13.1172   -2.4957    0.0000 C   0  0  0  0  0  0  0  0  0  0  0  0
  -12.0025   -3.4994    0.0000 C   0  0  0  0  0  0  0  0  0  0  0  0
  -12.3143   -4.9666    0.0000 F   0  0  0  0  0  0  0  0  0  0  0  0
   -4.3786   -5.1199    0.0000 C   0  0  0  0  0  0  0  0  0  0  0  0
   -2.9520   -4.6564    0.0000 C   0  0  0  0  0  0  0  0  0  0  0  0
    1.2990   -5.8573    0.0000 C   0  0  0  0  0  0  0  0  0  0  0  0
    1.2990   -7.3573    0.0000 C   0  0  0  0  0  0  0  0  0  0  0  0
  1  2  1  0
  2  3  1  0
  3  4  2  0
  4  5  1  0
  5  6  2  0
  6  7  1  0
  7  8  1  0
  8  9  1  0
  9 10  2  0
 10 11  1  0
 11 12  2  0
 12 13  1  0
 13 14  1  0
 13 15  2  0
 15 16  1  0
 16 17  1  0
 17 18  2  0
 18 19  1  0
 19 20  2  0
 20 21  1  0
 21 22  1  0
 22 23  2  0
 22 24  1  0
 24 25  1  0
 25 26  2  0
 26 27  1  0
 27 28  1  0
 28 29  1  0
 28 30  1  0
 28 31  1  0
 27 32  2  0
 32 33  1  0
 33 34  2  0
 34 35  1  0
 20 36  1  0
 36 37  2  0
  6 38  1  0
 38 39  2  0
 39  3  1  0
 16  7  2  0
 37 17  1  0
 15  9  1  0
 34 25  1  0
M  END
>  <Compound_ID>  (293) 
CHEMBL1909396

>  <Active>  (293) 
0.0

>  <Smiles>  (293) 
COc1ccc(-c2oc3ncnc(N)c3c2-c2ccc(NC(=O)Nc3cc(C(F)(F)F)ccc3F)cc2)cc1

>  <canonical_smi>  (293) 
COc1ccc(-c2oc3ncnc(N)c3c2-c2ccc(NC(=O)Nc3cc(C(F)(F)F)ccc3F)cc2)cc1

>  <Set>  (293) 
G2 inactive

>  <Set_type>  (293) 
External

>  <MW>  (293) 
537.47

>  <HBD>  (293) 
3

>  <HBA>  (293) 
6

>  <NRB>  (293) 
5

>  <NR>  (293) 
5

>  <NAR>  (293) 
5

>  <PSA>  (293) 
115.3

>  <Standard Type>  (293) 
Inhibition

>  <Standard Relation>  (293) 
'='

>  <Standard Units>  (293) 
%

>  <Standard Value>  (293) 
3.94

>  <Assay ChEMBL ID>  (293) 
CHEMBL1961911

>  <Assay Description>  (293) 
GSK_PKIS: PKC-beta2 (splice variant) mean inhibition at 1 uM [Nanosyn]

>  <BAO Label>  (293) 
single protein format

$$$$

     RDKit          2D

 31 34  0  0  0  0  0  0  0  0999 V2000
   -8.1673  -10.4486    0.0000 O   0  0  0  0  0  0  0  0  0  0  0  0
   -7.8555   -8.9814    0.0000 C   0  0  0  0  0  0  0  0  0  0  0  0
   -6.4289   -8.5179    0.0000 C   0  0  0  0  0  0  0  0  0  0  0  0
   -6.1170   -7.0506    0.0000 C   0  0  0  0  0  0  0  0  0  0  0  0
   -4.6904   -6.5871    0.0000 N   0  0  0  0  0  0  0  0  0  0  0  0
   -4.3786   -5.1199    0.0000 C   0  0  0  0  0  0  0  0  0  0  0  0
   -5.4933   -4.1162    0.0000 N   0  0  0  0  0  0  0  0  0  0  0  0
   -5.1814   -2.6490    0.0000 C   0  0  0  0  0  0  0  0  0  0  0  0
   -3.7548   -2.1855    0.0000 C   0  0  0  0  0  0  0  0  0  0  0  0
   -2.6401   -3.1891    0.0000 C   0  0  0  0  0  0  0  0  0  0  0  0
   -1.2135   -2.7256    0.0000 C   0  0  0  0  0  0  0  0  0  0  0  0
   -0.0000   -3.6073    0.0000 C   0  0  0  0  0  0  0  0  0  0  0  0
   -0.0000   -5.1073    0.0000 C   0  0  0  0  0  0  0  0  0  0  0  0
   -1.2990   -5.8573    0.0000 C   0  0  0  0  0  0  0  0  0  0  0  0
   -1.2990   -7.3573    0.0000 C   0  0  0  0  0  0  0  0  0  0  0  0
   -0.0000   -8.1073    0.0000 C   0  0  0  0  0  0  0  0  0  0  0  0
    0.0000   -9.6073    0.0000 F   0  0  0  0  0  0  0  0  0  0  0  0
    1.2990   -7.3573    0.0000 C   0  0  0  0  0  0  0  0  0  0  0  0
    1.2990   -5.8573    0.0000 C   0  0  0  0  0  0  0  0  0  0  0  0
    1.2135   -2.7256    0.0000 N   0  0  0  0  0  0  0  0  0  0  0  0
    0.7500   -1.2990    0.0000 N   0  0  0  0  0  0  0  0  0  0  0  0
    1.5000    0.0000    0.0000 C   0  0  0  0  0  0  0  0  0  0  0  0
    0.7500    1.2990    0.0000 C   0  0  0  0  0  0  0  0  0  0  0  0
    1.5000    2.5981    0.0000 C   0  0  0  0  0  0  0  0  0  0  0  0
    2.2500    3.8971    0.0000 F   0  0  0  0  0  0  0  0  0  0  0  0
    2.7990    1.8481    0.0000 F   0  0  0  0  0  0  0  0  0  0  0  0
    0.2010    3.3481    0.0000 F   0  0  0  0  0  0  0  0  0  0  0  0
   -0.7500    1.2990    0.0000 C   0  0  0  0  0  0  0  0  0  0  0  0
   -1.5000    0.0000    0.0000 C   0  0  0  0  0  0  0  0  0  0  0  0
   -0.7500   -1.2990    0.0000 C   0  0  0  0  0  0  0  0  0  0  0  0
   -2.9520   -4.6564    0.0000 N   0  0  0  0  0  0  0  0  0  0  0  0
  1  2  1  0
  2  3  1  0
  3  4  1  0
  4  5  1  0
  5  6  1  0
  6  7  2  0
  7  8  1  0
  8  9  2  0
  9 10  1  0
 10 11  1  0
 11 12  1  0
 12 13  1  0
 13 14  2  0
 14 15  1  0
 15 16  2  0
 16 17  1  0
 16 18  1  0
 18 19  2  0
 12 20  2  0
 20 21  1  0
 21 22  1  0
 22 23  2  0
 23 24  1  0
 24 25  1  0
 24 26  1  0
 24 27  1  0
 23 28  1  0
 28 29  2  0
 29 30  1  0
 10 31  2  0
 31  6  1  0
 30 11  2  0
 19 13  1  0
 30 21  1  0
M  END
>  <Compound_ID>  (294) 
CHEMBL1909403

>  <Active>  (294) 
0.0

>  <Smiles>  (294) 
OCCCNc1nccc(-c2c(-c3ccc(F)cc3)nn3cc(C(F)(F)F)ccc23)n1

>  <canonical_smi>  (294) 
OCCCNc1nccc(-c2c(-c3ccc(F)cc3)nn3cc(C(F)(F)F)ccc23)n1

>  <Set>  (294) 
G2 inactive

>  <Set_type>  (294) 
External

>  <MW>  (294) 
431.39

>  <HBD>  (294) 
2

>  <HBA>  (294) 
5

>  <NRB>  (294) 
6

>  <NR>  (294) 
4

>  <NAR>  (294) 
4

>  <PSA>  (294) 
75.34

>  <Standard Type>  (294) 
Inhibition

>  <Standard Relation>  (294) 
'='

>  <Standard Units>  (294) 
%

>  <Standard Value>  (294) 
4.45

>  <Assay ChEMBL ID>  (294) 
CHEMBL1961901

>  <Assay Description>  (294) 
GSK_PKIS: PKC-beta1 (splice variant) mean inhibition at 1 uM [Nanosyn]

>  <BAO Label>  (294) 
single protein format

$$$$

     RDKit          2D

 25 28  0  0  0  0  0  0  0  0999 V2000
    3.7500   -1.2990    0.0000 C   0  0  0  0  0  0  0  0  0  0  0  0
    3.0000    0.0000    0.0000 O   0  0  0  0  0  0  0  0  0  0  0  0
    1.5000    0.0000    0.0000 C   0  0  0  0  0  0  0  0  0  0  0  0
    0.7500   -1.2990    0.0000 C   0  0  0  0  0  0  0  0  0  0  0  0
   -0.7500   -1.2990    0.0000 C   0  0  0  0  0  0  0  0  0  0  0  0
   -1.5000    0.0000    0.0000 C   0  0  0  0  0  0  0  0  0  0  0  0
   -3.0000    0.0000    0.0000 C   0  0  0  0  0  0  0  0  0  0  0  0
   -3.7500    1.2990    0.0000 C   0  0  0  0  0  0  0  0  0  0  0  0
   -5.2500    1.2990    0.0000 C   0  0  0  0  0  0  0  0  0  0  0  0
   -6.0000    2.5981    0.0000 C   0  0  0  0  0  0  0  0  0  0  0  0
   -7.4918    2.7549    0.0000 C   0  0  0  0  0  0  0  0  0  0  0  0
   -7.8037    4.2221    0.0000 N   0  0  0  0  0  0  0  0  0  0  0  0
   -6.5046    4.9721    0.0000 N   0  0  0  0  0  0  0  0  0  0  0  0
   -5.3899    3.9684    0.0000 C   0  0  0  0  0  0  0  0  0  0  0  0
   -3.9227    4.2803    0.0000 C   0  0  0  0  0  0  0  0  0  0  0  0
   -2.9190    3.1655    0.0000 C   0  0  0  0  0  0  0  0  0  0  0  0
   -1.4518    3.4774    0.0000 C   0  0  0  0  0  0  0  0  0  0  0  0
   -0.9882    4.9040    0.0000 C   0  0  0  0  0  0  0  0  0  0  0  0
   -1.9919    6.0187    0.0000 C   0  0  0  0  0  0  0  0  0  0  0  0
   -3.4591    5.7068    0.0000 N   0  0  0  0  0  0  0  0  0  0  0  0
   -6.0000    0.0000    0.0000 C   0  0  0  0  0  0  0  0  0  0  0  0
   -5.2500   -1.2990    0.0000 C   0  0  0  0  0  0  0  0  0  0  0  0
   -3.7500   -1.2990    0.0000 N   0  0  0  0  0  0  0  0  0  0  0  0
   -0.7500    1.2990    0.0000 C   0  0  0  0  0  0  0  0  0  0  0  0
    0.7500    1.2990    0.0000 C   0  0  0  0  0  0  0  0  0  0  0  0
  1  2  1  0
  2  3  1  0
  3  4  2  0
  4  5  1  0
  5  6  2  0
  6  7  1  0
  7  8  2  0
  8  9  1  0
  9 10  1  0
 10 11  2  0
 11 12  1  0
 12 13  1  0
 13 14  2  0
 14 15  1  0
 15 16  2  0
 16 17  1  0
 17 18  2  0
 18 19  1  0
 19 20  2  0
  9 21  2  0
 21 22  1  0
 22 23  2  0
  6 24  1  0
 24 25  2  0
 25  3  1  0
 23  7  1  0
 14 10  1  0
 20 15  1  0
M  END
>  <Compound_ID>  (295) 
CHEMBL202891

>  <Active>  (295) 
0.0

>  <Smiles>  (295) 
COc1ccc(-c2cc(-c3c[nH]nc3-c3ccccn3)ccn2)cc1

>  <canonical_smi>  (295) 
COc1ccc(-c2cc(-c3c[nH]nc3-c3ccccn3)ccn2)cc1

>  <Set>  (295) 
G2 inactive

>  <Set_type>  (295) 
External

>  <MW>  (295) 
328.38

>  <HBD>  (295) 
1

>  <HBA>  (295) 
4

>  <NRB>  (295) 
4

>  <NR>  (295) 
4

>  <NAR>  (295) 
4

>  <PSA>  (295) 
63.69

>  <Standard Type>  (295) 
Inhibition

>  <Standard Relation>  (295) 
'='

>  <Standard Units>  (295) 
%

>  <Standard Value>  (295) 
1.98

>  <Assay ChEMBL ID>  (295) 
CHEMBL1961911

>  <Assay Description>  (295) 
GSK_PKIS: PKC-beta2 (splice variant) mean inhibition at 1 uM [Nanosyn]

>  <BAO Label>  (295) 
single protein format

$$$$

     RDKit          2D

 26 29  0  0  0  0  0  0  0  0999 V2000
   -9.1645    1.7722    0.0000 C   0  0  0  0  0  0  0  0  0  0  0  0
   -8.0498    0.7685    0.0000 O   0  0  0  0  0  0  0  0  0  0  0  0
   -6.6232    1.2320    0.0000 C   0  0  0  0  0  0  0  0  0  0  0  0
   -6.3114    2.6992    0.0000 C   0  0  0  0  0  0  0  0  0  0  0  0
   -4.8848    3.1627    0.0000 C   0  0  0  0  0  0  0  0  0  0  0  0
   -3.7701    2.1590    0.0000 C   0  0  0  0  0  0  0  0  0  0  0  0
   -4.0819    0.6918    0.0000 C   0  0  0  0  0  0  0  0  0  0  0  0
   -2.9672   -0.3119    0.0000 N   0  0  0  0  0  0  0  0  0  0  0  0
   -3.1240   -1.8037    0.0000 C   0  0  0  0  0  0  0  0  0  0  0  0
   -1.7537   -2.4138    0.0000 N   0  0  0  0  0  0  0  0  0  0  0  0
   -0.7500   -1.2990    0.0000 C   0  0  0  0  0  0  0  0  0  0  0  0
    0.7500   -1.2990    0.0000 C   0  0  0  0  0  0  0  0  0  0  0  0
    1.5000   -2.5981    0.0000 N   0  0  0  0  0  0  0  0  0  0  0  0
    3.0000   -2.5981    0.0000 N   0  0  0  0  0  0  0  0  0  0  0  0
    3.7500   -3.8971    0.0000 C   0  0  0  0  0  0  0  0  0  0  0  0
    5.2500   -3.8971    0.0000 C   0  0  0  0  0  0  0  0  0  0  0  0
    6.0000   -5.1962    0.0000 C   0  0  0  0  0  0  0  0  0  0  0  0
    7.5000   -5.1962    0.0000 C   0  0  0  0  0  0  0  0  0  0  0  0
    8.2500   -3.8971    0.0000 N   0  0  0  0  0  0  0  0  0  0  0  0
    7.5000   -2.5981    0.0000 C   0  0  0  0  0  0  0  0  0  0  0  0
    6.0000   -2.5981    0.0000 C   0  0  0  0  0  0  0  0  0  0  0  0
    1.5000    0.0000    0.0000 N   0  0  0  0  0  0  0  0  0  0  0  0
    0.7500    1.2990    0.0000 C   0  0  0  0  0  0  0  0  0  0  0  0
   -0.7500    1.2990    0.0000 N   0  0  0  0  0  0  0  0  0  0  0  0
   -1.5000    0.0000    0.0000 C   0  0  0  0  0  0  0  0  0  0  0  0
   -5.5085    0.2283    0.0000 C   0  0  0  0  0  0  0  0  0  0  0  0
  1  2  1  0
  2  3  1  0
  3  4  2  0
  4  5  1  0
  5  6  2  0
  6  7  1  0
  7  8  1  0
  8  9  1  0
  9 10  2  0
 10 11  1  0
 11 12  2  0
 12 13  1  0
 13 14  1  0
 14 15  2  0
 15 16  1  0
 16 17  2  0
 17 18  1  0
 18 19  2  0
 19 20  1  0
 20 21  2  0
 12 22  1  0
 22 23  2  0
 23 24  1  0
 24 25  2  0
  7 26  2  0
 26  3  1  0
 25  8  1  0
 25 11  1  0
 21 16  1  0
M  END
>  <Compound_ID>  (296) 
CHEMBL204934

>  <Active>  (296) 
0.0

>  <Smiles>  (296) 
COc1cccc(-n2cnc3c(N/N=C/c4ccncc4)ncnc32)c1

>  <canonical_smi>  (296) 
COc1cccc(-n2cnc3c(N/N=C/c4ccncc4)ncnc32)c1

>  <Set>  (296) 
G2 inactive

>  <Set_type>  (296) 
External

>  <MW>  (296) 
345.37

>  <HBD>  (296) 
1

>  <HBA>  (296) 
6

>  <NRB>  (296) 
5

>  <NR>  (296) 
4

>  <NAR>  (296) 
4

>  <PSA>  (296) 
90.11

>  <Standard Type>  (296) 
Inhibition

>  <Standard Relation>  (296) 
'='

>  <Standard Units>  (296) 
%

>  <Standard Value>  (296) 
3.38

>  <Assay ChEMBL ID>  (296) 
CHEMBL1961900

>  <Assay Description>  (296) 
GSK_PKIS: PKC-beta1 (splice variant) mean inhibition at 0.1 uM [Nanosyn]

>  <BAO Label>  (296) 
single protein format

$$$$

     RDKit          2D

 29 32  0  0  0  0  0  0  0  0999 V2000
   -7.0526  -11.4523    0.0000 C   0  0  0  0  0  0  0  0  0  0  0  0
   -5.6260  -10.9888    0.0000 C   0  0  0  0  0  0  0  0  0  0  0  0
   -5.3142   -9.5216    0.0000 N   0  0  0  0  0  0  0  0  0  0  0  0
   -6.4289   -8.5179    0.0000 C   0  0  0  0  0  0  0  0  0  0  0  0
   -6.1170   -7.0506    0.0000 C   0  0  0  0  0  0  0  0  0  0  0  0
   -4.6904   -6.5871    0.0000 C   0  0  0  0  0  0  0  0  0  0  0  0
   -4.3786   -5.1199    0.0000 C   0  0  0  0  0  0  0  0  0  0  0  0
   -2.9520   -4.6564    0.0000 C   0  0  0  0  0  0  0  0  0  0  0  0
   -1.8373   -5.6601    0.0000 O   0  0  0  0  0  0  0  0  0  0  0  0
   -2.6401   -3.1891    0.0000 N   0  0  0  0  0  0  0  0  0  0  0  0
   -1.2135   -2.7256    0.0000 C   0  0  0  0  0  0  0  0  0  0  0  0
   -0.0000   -3.6073    0.0000 N   0  0  0  0  0  0  0  0  0  0  0  0
    1.2135   -2.7256    0.0000 N   0  0  0  0  0  0  0  0  0  0  0  0
    0.7500   -1.2990    0.0000 C   0  0  0  0  0  0  0  0  0  0  0  0
    1.5000    0.0000    0.0000 N   0  0  0  0  0  0  0  0  0  0  0  0
    0.7500    1.2990    0.0000 N   0  0  0  0  0  0  0  0  0  0  0  0
   -0.7500    1.2990    0.0000 C   0  0  0  0  0  0  0  0  0  0  0  0
   -1.5000    2.5981    0.0000 C   0  0  0  0  0  0  0  0  0  0  0  0
   -0.7500    3.8971    0.0000 C   0  0  0  0  0  0  0  0  0  0  0  0
   -1.5000    5.1962    0.0000 C   0  0  0  0  0  0  0  0  0  0  0  0
   -3.0000    5.1962    0.0000 C   0  0  0  0  0  0  0  0  0  0  0  0
   -3.7500    3.8971    0.0000 C   0  0  0  0  0  0  0  0  0  0  0  0
   -5.2500    3.8971    0.0000 F   0  0  0  0  0  0  0  0  0  0  0  0
   -3.0000    2.5981    0.0000 C   0  0  0  0  0  0  0  0  0  0  0  0
   -3.7500    1.2990    0.0000 F   0  0  0  0  0  0  0  0  0  0  0  0
   -1.5000    0.0000    0.0000 C   0  0  0  0  0  0  0  0  0  0  0  0
   -0.7500   -1.2990    0.0000 C   0  0  0  0  0  0  0  0  0  0  0  0
   -3.5757   -7.5908    0.0000 C   0  0  0  0  0  0  0  0  0  0  0  0
   -3.8876   -9.0580    0.0000 C   0  0  0  0  0  0  0  0  0  0  0  0
  1  2  1  0
  2  3  1  0
  3  4  1  0
  4  5  1  0
  5  6  1  0
  6  7  1  0
  7  8  1  0
  8  9  2  0
  8 10  1  0
 10 11  1  0
 11 12  2  0
 12 13  1  0
 13 14  1  0
 14 15  2  0
 15 16  1  0
 16 17  2  0
 17 18  1  0
 18 19  2  0
 19 20  1  0
 20 21  2  0
 21 22  1  0
 22 23  1  0
 22 24  2  0
 24 25  1  0
 17 26  1  0
 26 27  2  0
  6 28  1  0
 28 29  1  0
 29  3  1  0
 27 11  1  0
 27 14  1  0
 24 18  1  0
M  END
>  <Compound_ID>  (297) 
CHEMBL2062289

>  <Active>  (297) 
0.0

>  <Smiles>  (297) 
CCN1CCC(CC(=O)Nc2n[nH]c3nnc(-c4cccc(F)c4F)cc23)CC1

>  <canonical_smi>  (297) 
CCN1CCC(CC(=O)Nc2n[nH]c3nnc(-c4cccc(F)c4F)cc23)CC1

>  <Set>  (297) 
G2 inactive

>  <Set_type>  (297) 
External

>  <MW>  (297) 
400.43

>  <HBD>  (297) 
2

>  <HBA>  (297) 
5

>  <NRB>  (297) 
5

>  <NR>  (297) 
4

>  <NAR>  (297) 
3

>  <PSA>  (297) 
86.8

>  <Standard Type>  (297) 
Inhibition

>  <Standard Relation>  (297) 
'='

>  <Standard Units>  (297) 
%

>  <Standard Value>  (297) 
0.8

>  <Assay ChEMBL ID>  (297) 
CHEMBL1961910

>  <Assay Description>  (297) 
GSK_PKIS: PKC-beta2 (splice variant) mean inhibition at 0.1 uM [Nanosyn]

>  <BAO Label>  (297) 
single protein format

$$$$

     RDKit          2D

 31 34  0  0  0  0  0  0  0  0999 V2000
    3.7500   -6.4952    0.0000 C   0  0  0  0  0  0  0  0  0  0  0  0
    3.0000   -5.1962    0.0000 O   0  0  0  0  0  0  0  0  0  0  0  0
    1.5000   -5.1962    0.0000 C   0  0  0  0  0  0  0  0  0  0  0  0
    0.7500   -3.8971    0.0000 C   0  0  0  0  0  0  0  0  0  0  0  0
   -0.7500   -3.8971    0.0000 O   0  0  0  0  0  0  0  0  0  0  0  0
    1.5000   -2.5981    0.0000 N   0  0  0  0  0  0  0  0  0  0  0  0
    0.7500   -1.2990    0.0000 C   0  0  0  0  0  0  0  0  0  0  0  0
    1.5000    0.0000    0.0000 C   0  0  0  0  0  0  0  0  0  0  0  0
    0.7500    1.2990    0.0000 C   0  0  0  0  0  0  0  0  0  0  0  0
   -0.7500    1.2990    0.0000 C   0  0  0  0  0  0  0  0  0  0  0  0
   -1.7537    2.4138    0.0000 N   0  0  0  0  0  0  0  0  0  0  0  0
   -3.1240    1.8037    0.0000 N   0  0  0  0  0  0  0  0  0  0  0  0
   -2.9672    0.3119    0.0000 C   0  0  0  0  0  0  0  0  0  0  0  0
   -4.0819   -0.6918    0.0000 C   0  0  0  0  0  0  0  0  0  0  0  0
   -5.5085   -0.2283    0.0000 C   0  0  0  0  0  0  0  0  0  0  0  0
   -6.6232   -1.2320    0.0000 C   0  0  0  0  0  0  0  0  0  0  0  0
   -6.3114   -2.6992    0.0000 C   0  0  0  0  0  0  0  0  0  0  0  0
   -4.8848   -3.1627    0.0000 C   0  0  0  0  0  0  0  0  0  0  0  0
   -4.5729   -4.6300    0.0000 S   0  0  0  0  0  0  0  0  0  0  0  0
   -4.2611   -6.0972    0.0000 N   0  0  0  0  0  0  0  0  0  0  0  0
   -6.0401   -4.9418    0.0000 O   0  0  0  0  0  0  0  0  0  0  0  0
   -3.1057   -4.3181    0.0000 O   0  0  0  0  0  0  0  0  0  0  0  0
   -3.7701   -2.1590    0.0000 C   0  0  0  0  0  0  0  0  0  0  0  0
   -1.5000    0.0000    0.0000 C   0  0  0  0  0  0  0  0  0  0  0  0
   -0.7500   -1.2990    0.0000 C   0  0  0  0  0  0  0  0  0  0  0  0
    0.7500   -6.4952    0.0000 C   0  0  0  0  0  0  0  0  0  0  0  0
   -0.7500   -6.4952    0.0000 C   0  0  0  0  0  0  0  0  0  0  0  0
   -1.5000   -7.7942    0.0000 C   0  0  0  0  0  0  0  0  0  0  0  0
   -0.7500   -9.0933    0.0000 C   0  0  0  0  0  0  0  0  0  0  0  0
    0.7500   -9.0933    0.0000 C   0  0  0  0  0  0  0  0  0  0  0  0
    1.5000   -7.7942    0.0000 C   0  0  0  0  0  0  0  0  0  0  0  0
  1  2  1  0
  2  3  1  0
  3  4  1  0
  4  5  2  0
  4  6  1  0
  6  7  1  0
  7  8  2  0
  8  9  1  0
  9 10  2  0
 10 11  1  0
 11 12  1  0
 12 13  2  0
 13 14  1  0
 14 15  2  0
 15 16  1  0
 16 17  2  0
 17 18  1  0
 18 19  1  0
 19 20  1  0
 19 21  2  0
 19 22  2  0
 18 23  2  0
 13 24  1  0
 24 25  2  0
  3 26  1  0
 26 27  2  0
 27 28  1  0
 28 29  2  0
 29 30  1  0
 30 31  2  0
 25  7  1  0
 31 26  1  0
 24 10  1  0
 23 14  1  0
M  END
>  <Compound_ID>  (298) 
CHEMBL3330401

>  <Active>  (298) 
0.0

>  <Smiles>  (298) 
COC(C(=O)Nc1ccc2[nH]nc(-c3cccc(S(N)(=O)=O)c3)c2c1)c1ccccc1

>  <canonical_smi>  (298) 
COC(C(=O)Nc1ccc2[nH]nc(-c3cccc(S(N)(=O)=O)c3)c2c1)c1ccccc1

>  <Set>  (298) 
G2 inactive

>  <Set_type>  (298) 
External

>  <MW>  (298) 
436.49

>  <HBD>  (298) 
3

>  <HBA>  (298) 
5

>  <NRB>  (298) 
6

>  <NR>  (298) 
4

>  <NAR>  (298) 
4

>  <PSA>  (298) 
127.17

>  <Standard Type>  (298) 
Inhibition

>  <Standard Relation>  (298) 
'='

>  <Standard Units>  (298) 
%

>  <Standard Value>  (298) 
-5.0

>  <Assay ChEMBL ID>  (298) 
CHEMBL3369108

>  <Assay Description>  (298) 
Inhibition of human PKCbeta1 at 1 uM by radiometric Assay

>  <BAO Label>  (298) 
single protein format

$$$$

     RDKit          2D

 25 28  0  0  0  0  0  0  0  0999 V2000
   -3.6221    4.6871    0.0000 C   0  0  0  0  0  0  0  0  0  0  0  0
   -5.0487    4.2236    0.0000 C   0  0  0  0  0  0  0  0  0  0  0  0
   -6.1634    5.2273    0.0000 C   0  0  0  0  0  0  0  0  0  0  0  0
   -5.3605    2.7564    0.0000 C   0  0  0  0  0  0  0  0  0  0  0  0
   -4.2458    1.7527    0.0000 C   0  0  0  0  0  0  0  0  0  0  0  0
   -4.5577    0.2855    0.0000 C   0  0  0  0  0  0  0  0  0  0  0  0
   -5.9843   -0.1781    0.0000 C   0  0  0  0  0  0  0  0  0  0  0  0
   -6.2961   -1.6453    0.0000 N   0  0  0  0  0  0  0  0  0  0  0  0
   -5.1814   -2.6490    0.0000 C   0  0  0  0  0  0  0  0  0  0  0  0
   -5.4933   -4.1162    0.0000 N   0  0  0  0  0  0  0  0  0  0  0  0
   -4.3786   -5.1199    0.0000 C   0  0  0  0  0  0  0  0  0  0  0  0
   -2.9520   -4.6564    0.0000 C   0  0  0  0  0  0  0  0  0  0  0  0
   -2.6401   -3.1891    0.0000 C   0  0  0  0  0  0  0  0  0  0  0  0
   -1.2135   -2.7256    0.0000 C   0  0  0  0  0  0  0  0  0  0  0  0
   -0.0000   -3.6073    0.0000 C   0  0  0  0  0  0  0  0  0  0  0  0
    1.2135   -2.7256    0.0000 N   0  0  0  0  0  0  0  0  0  0  0  0
    0.7500   -1.2990    0.0000 N   0  0  0  0  0  0  0  0  0  0  0  0
    1.5000    0.0000    0.0000 N   0  0  0  0  0  0  0  0  0  0  0  0
    0.7500    1.2990    0.0000 C   0  0  0  0  0  0  0  0  0  0  0  0
   -0.7500    1.2990    0.0000 C   0  0  0  0  0  0  0  0  0  0  0  0
   -1.5000    0.0000    0.0000 C   0  0  0  0  0  0  0  0  0  0  0  0
   -0.7500   -1.2990    0.0000 C   0  0  0  0  0  0  0  0  0  0  0  0
   -3.7548   -2.1855    0.0000 N   0  0  0  0  0  0  0  0  0  0  0  0
   -7.0990    0.8256    0.0000 C   0  0  0  0  0  0  0  0  0  0  0  0
   -6.7871    2.2929    0.0000 C   0  0  0  0  0  0  0  0  0  0  0  0
  1  2  1  0
  2  3  1  0
  2  4  1  0
  4  5  2  0
  5  6  1  0
  6  7  2  0
  7  8  1  0
  8  9  1  0
  9 10  2  0
 10 11  1  0
 11 12  2  0
 12 13  1  0
 13 14  1  0
 14 15  1  0
 15 16  2  0
 16 17  1  0
 17 18  1  0
 18 19  2  0
 19 20  1  0
 20 21  2  0
 21 22  1  0
 13 23  2  0
  7 24  1  0
 24 25  2  0
 25  4  1  0
 23  9  1  0
 22 14  2  0
 22 17  1  0
M  END
>  <Compound_ID>  (299) 
CHEMBL359963

>  <Active>  (299) 
0.0

>  <Smiles>  (299) 
CC(C)c1ccc(Nc2nccc(-c3cnn4ncccc34)n2)cc1

>  <canonical_smi>  (299) 
CC(C)c1ccc(Nc2nccc(-c3cnn4ncccc34)n2)cc1

>  <Set>  (299) 
G2 inactive

>  <Set_type>  (299) 
External

>  <MW>  (299) 
330.4

>  <HBD>  (299) 
1

>  <HBA>  (299) 
5

>  <NRB>  (299) 
4

>  <NR>  (299) 
4

>  <NAR>  (299) 
4

>  <PSA>  (299) 
68.0

>  <Standard Type>  (299) 
Inhibition

>  <Standard Relation>  (299) 
'='

>  <Standard Units>  (299) 
%

>  <Standard Value>  (299) 
1.04

>  <Assay ChEMBL ID>  (299) 
CHEMBL1961900

>  <Assay Description>  (299) 
GSK_PKIS: PKC-beta1 (splice variant) mean inhibition at 0.1 uM [Nanosyn]

>  <BAO Label>  (299) 
single protein format

$$$$

     RDKit          2D

 23 26  0  0  0  0  0  0  0  0999 V2000
   -4.6740   -7.4303    0.0000 N   0  0  0  0  0  0  0  0  0  0  0  0
   -3.3037   -6.8202    0.0000 C   0  0  0  0  0  0  0  0  0  0  0  0
   -2.0046   -7.5702    0.0000 N   0  0  0  0  0  0  0  0  0  0  0  0
   -0.8899   -6.5665    0.0000 C   0  0  0  0  0  0  0  0  0  0  0  0
    0.5773   -6.8783    0.0000 C   0  0  0  0  0  0  0  0  0  0  0  0
    1.0409   -8.3049    0.0000 C   0  0  0  0  0  0  0  0  0  0  0  0
    2.5081   -8.6168    0.0000 C   0  0  0  0  0  0  0  0  0  0  0  0
    3.5118   -7.5021    0.0000 C   0  0  0  0  0  0  0  0  0  0  0  0
    3.0482   -6.0755    0.0000 C   0  0  0  0  0  0  0  0  0  0  0  0
    4.0519   -4.9608    0.0000 Cl  0  0  0  0  0  0  0  0  0  0  0  0
    1.5810   -5.7636    0.0000 C   0  0  0  0  0  0  0  0  0  0  0  0
   -1.5000   -5.1962    0.0000 C   0  0  0  0  0  0  0  0  0  0  0  0
   -0.7500   -3.8971    0.0000 C   0  0  0  0  0  0  0  0  0  0  0  0
    0.7500   -3.8971    0.0000 C   0  0  0  0  0  0  0  0  0  0  0  0
    1.5000   -2.5981    0.0000 C   0  0  0  0  0  0  0  0  0  0  0  0
    0.7500   -1.2990    0.0000 C   0  0  0  0  0  0  0  0  0  0  0  0
    1.5000    0.0000    0.0000 N   0  0  0  0  0  0  0  0  0  0  0  0
    0.7500    1.2990    0.0000 C   0  0  0  0  0  0  0  0  0  0  0  0
   -0.7500    1.2990    0.0000 C   0  0  0  0  0  0  0  0  0  0  0  0
   -1.5000    0.0000    0.0000 C   0  0  0  0  0  0  0  0  0  0  0  0
   -0.7500   -1.2990    0.0000 C   0  0  0  0  0  0  0  0  0  0  0  0
   -1.5000   -2.5981    0.0000 N   0  0  0  0  0  0  0  0  0  0  0  0
   -2.9918   -5.3529    0.0000 S   0  0  0  0  0  0  0  0  0  0  0  0
  1  2  1  0
  2  3  2  0
  3  4  1  0
  4  5  1  0
  5  6  2  0
  6  7  1  0
  7  8  2  0
  8  9  1  0
  9 10  1  0
  9 11  2  0
  4 12  2  0
 12 13  1  0
 13 14  2  0
 14 15  1  0
 15 16  2  0
 16 17  1  0
 17 18  2  0
 18 19  1  0
 19 20  2  0
 20 21  1  0
 21 22  2  0
 12 23  1  0
 23  2  1  0
 11  5  1  0
 22 13  1  0
 21 16  1  0
M  END
>  <Compound_ID>  (300) 
CHEMBL365663

>  <Active>  (300) 
0.0

>  <Smiles>  (300) 
Nc1nc(-c2cccc(Cl)c2)c(-c2ccc3ncccc3n2)s1

>  <canonical_smi>  (300) 
Nc1nc(-c2cccc(Cl)c2)c(-c2ccc3ncccc3n2)s1

>  <Set>  (300) 
G2 inactive

>  <Set_type>  (300) 
External

>  <MW>  (300) 
338.82

>  <HBD>  (300) 
1

>  <HBA>  (300) 
4

>  <NRB>  (300) 
2

>  <NR>  (300) 
4

>  <NAR>  (300) 
4

>  <PSA>  (300) 
64.69

>  <Standard Type>  (300) 
Inhibition

>  <Standard Relation>  (300) 
'='

>  <Standard Units>  (300) 
%

>  <Standard Value>  (300) 
3.03

>  <Assay ChEMBL ID>  (300) 
CHEMBL1961910

>  <Assay Description>  (300) 
GSK_PKIS: PKC-beta2 (splice variant) mean inhibition at 0.1 uM [Nanosyn]

>  <BAO Label>  (300) 
single protein format

$$$$

     RDKit          2D

 21 23  0  0  0  0  0  0  0  0999 V2000
    4.0667   -3.6527    0.0000 N   0  0  0  0  0  0  0  0  0  0  0  0
    2.6401   -3.1891    0.0000 C   0  0  0  0  0  0  0  0  0  0  0  0
    1.2135   -2.7256    0.0000 C   0  0  0  0  0  0  0  0  0  0  0  0
   -0.0000   -3.6073    0.0000 C   0  0  0  0  0  0  0  0  0  0  0  0
   -0.0000   -5.1073    0.0000 N   0  0  0  0  0  0  0  0  0  0  0  0
   -1.2990   -5.8573    0.0000 C   0  0  0  0  0  0  0  0  0  0  0  0
   -2.5981   -5.1073    0.0000 O   0  0  0  0  0  0  0  0  0  0  0  0
   -1.2990   -7.3573    0.0000 C   0  0  0  0  0  0  0  0  0  0  0  0
   -2.5981   -8.1073    0.0000 C   0  0  0  0  0  0  0  0  0  0  0  0
   -2.5981   -9.6073    0.0000 C   0  0  0  0  0  0  0  0  0  0  0  0
   -1.2990  -10.3573    0.0000 C   0  0  0  0  0  0  0  0  0  0  0  0
   -1.2990  -11.8573    0.0000 F   0  0  0  0  0  0  0  0  0  0  0  0
    0.0000   -9.6073    0.0000 C   0  0  0  0  0  0  0  0  0  0  0  0
    0.0000   -8.1073    0.0000 C   0  0  0  0  0  0  0  0  0  0  0  0
   -1.2135   -2.7256    0.0000 S   0  0  0  0  0  0  0  0  0  0  0  0
   -0.7500   -1.2990    0.0000 C   0  0  0  0  0  0  0  0  0  0  0  0
    0.7500   -1.2990    0.0000 C   0  0  0  0  0  0  0  0  0  0  0  0
    1.5000    0.0000    0.0000 C   0  0  0  0  0  0  0  0  0  0  0  0
    0.7500    1.2990    0.0000 C   0  0  0  0  0  0  0  0  0  0  0  0
   -0.7500    1.2990    0.0000 C   0  0  0  0  0  0  0  0  0  0  0  0
   -1.5000    0.0000    0.0000 C   0  0  0  0  0  0  0  0  0  0  0  0
  1  2  3  0
  2  3  1  0
  3  4  2  0
  4  5  1  0
  5  6  1  0
  6  7  2  0
  6  8  1  0
  8  9  2  0
  9 10  1  0
 10 11  2  0
 11 12  1  0
 11 13  1  0
 13 14  2  0
  4 15  1  0
 15 16  1  0
 16 17  2  0
 17 18  1  0
 18 19  1  0
 19 20  1  0
 20 21  1  0
 17  3  1  0
 14  8  1  0
 21 16  1  0
M  END
>  <Compound_ID>  (301) 
CHEMBL397570

>  <Active>  (301) 
0.0

>  <Smiles>  (301) 
N#Cc1c(NC(=O)c2ccc(F)cc2)sc2c1CCCC2

>  <canonical_smi>  (301) 
N#Cc1c(NC(=O)c2ccc(F)cc2)sc2c1CCCC2

>  <Set>  (301) 
G2 inactive

>  <Set_type>  (301) 
External

>  <MW>  (301) 
300.36

>  <HBD>  (301) 
1

>  <HBA>  (301) 
2

>  <NRB>  (301) 
2

>  <NR>  (301) 
3

>  <NAR>  (301) 
2

>  <PSA>  (301) 
52.89

>  <Standard Type>  (301) 
Inhibition

>  <Standard Relation>  (301) 
'='

>  <Standard Units>  (301) 
%

>  <Standard Value>  (301) 
0.61

>  <Assay ChEMBL ID>  (301) 
CHEMBL1961911

>  <Assay Description>  (301) 
GSK_PKIS: PKC-beta2 (splice variant) mean inhibition at 1 uM [Nanosyn]

>  <BAO Label>  (301) 
single protein format

$$$$

     RDKit          2D

 34 39  0  0  0  0  0  0  0  0999 V2000
   -9.5663  -10.9485    0.0000 N   0  0  0  0  0  0  0  0  0  0  0  0
  -10.5700   -9.8338    0.0000 C   0  0  0  0  0  0  0  0  0  0  0  0
   -9.4553   -8.8301    0.0000 C   0  0  0  0  0  0  0  0  0  0  0  0
   -8.0287   -9.2936    0.0000 C   0  0  0  0  0  0  0  0  0  0  0  0
   -6.9140   -8.2899    0.0000 C   0  0  0  0  0  0  0  0  0  0  0  0
   -7.2258   -6.8227    0.0000 C   0  0  0  0  0  0  0  0  0  0  0  0
   -6.1111   -5.8190    0.0000 C   0  0  0  0  0  0  0  0  0  0  0  0
   -4.6845   -6.2825    0.0000 C   0  0  0  0  0  0  0  0  0  0  0  0
   -3.5698   -5.2788    0.0000 N   0  0  0  0  0  0  0  0  0  0  0  0
   -3.8817   -3.8116    0.0000 C   0  0  0  0  0  0  0  0  0  0  0  0
   -3.0000   -2.5981    0.0000 C   0  0  0  0  0  0  0  0  0  0  0  0
   -1.5000   -2.5981    0.0000 C   0  0  0  0  0  0  0  0  0  0  0  0
   -0.7500   -3.8971    0.0000 C   0  0  0  0  0  0  0  0  0  0  0  0
    0.7500   -3.8971    0.0000 C   0  0  0  0  0  0  0  0  0  0  0  0
    1.5000   -2.5981    0.0000 C   0  0  0  0  0  0  0  0  0  0  0  0
    3.0000   -2.5981    0.0000 S   0  0  0  0  0  0  0  0  0  0  0  0
    4.5000   -2.5981    0.0000 N   0  0  0  0  0  0  0  0  0  0  0  0
    3.0000   -4.0981    0.0000 O   0  0  0  0  0  0  0  0  0  0  0  0
    3.0000   -1.0981    0.0000 O   0  0  0  0  0  0  0  0  0  0  0  0
    0.7500   -1.2990    0.0000 C   0  0  0  0  0  0  0  0  0  0  0  0
    1.5000    0.0000    0.0000 C   0  0  0  0  0  0  0  0  0  0  0  0
    0.7500    1.2990    0.0000 C   0  0  0  0  0  0  0  0  0  0  0  0
   -0.7500    1.2990    0.0000 C   0  0  0  0  0  0  0  0  0  0  0  0
   -1.5000    0.0000    0.0000 C   0  0  0  0  0  0  0  0  0  0  0  0
   -0.7500   -1.2990    0.0000 C   0  0  0  0  0  0  0  0  0  0  0  0
   -3.8817   -1.3846    0.0000 C   0  0  0  0  0  0  0  0  0  0  0  0
   -5.3083   -1.8481    0.0000 N   0  0  0  0  0  0  0  0  0  0  0  0
   -5.3083   -3.3481    0.0000 N   0  0  0  0  0  0  0  0  0  0  0  0
   -6.4230   -4.3518    0.0000 C   0  0  0  0  0  0  0  0  0  0  0  0
   -8.6524   -6.3592    0.0000 C   0  0  0  0  0  0  0  0  0  0  0  0
   -9.7671   -7.3629    0.0000 C   0  0  0  0  0  0  0  0  0  0  0  0
  -11.5737   -8.7191    0.0000 C   0  0  0  0  0  0  0  0  0  0  0  0
  -12.6884   -9.7228    0.0000 C   0  0  0  0  0  0  0  0  0  0  0  0
  -11.6847  -10.8375    0.0000 C   0  0  0  0  0  0  0  0  0  0  0  0
  1  2  1  0
  2  3  1  0
  3  4  2  0
  4  5  1  0
  5  6  2  0
  6  7  1  0
  7  8  1  0
  8  9  2  0
  9 10  1  0
 10 11  2  0
 11 12  1  0
 12 13  2  0
 13 14  1  0
 14 15  2  0
 15 16  1  0
 16 17  1  0
 16 18  2  0
 16 19  2  0
 15 20  1  0
 20 21  2  0
 21 22  1  0
 22 23  2  0
 23 24  1  0
 24 25  2  0
 11 26  1  0
 26 27  2  0
 27 28  1  0
 28 29  1  0
  6 30  1  0
 30 31  2  0
  2 32  1  0
 32 33  1  0
 33 34  1  0
 34  2  1  0
 31  3  1  0
 29  7  2  0
 28 10  1  0
 25 12  1  0
 25 20  1  0
M  END
>  <Compound_ID>  (302) 
CHEMBL4278763

>  <Active>  (302) 
0.0

>  <Smiles>  (302) 
NC1(c2ccc(-c3cnc4c(-c5ccc(S(N)(=O)=O)c6ccccc56)cnn4c3)cc2)CCC1

>  <canonical_smi>  (302) 
NC1(c2ccc(-c3cnc4c(-c5ccc(S(N)(=O)=O)c6ccccc56)cnn4c3)cc2)CCC1

>  <Set>  (302) 
G2 inactive

>  <Set_type>  (302) 
External

>  <MW>  (302) 
469.57

>  <HBD>  (302) 
2

>  <HBA>  (302) 
5

>  <NRB>  (302) 
4

>  <NR>  (302) 
6

>  <NAR>  (302) 
5

>  <PSA>  (302) 
116.37

>  <Standard Type>  (302) 
Inhibition

>  <Standard Relation>  (302) 
'='

>  <Standard Units>  (302) 
%

>  <Standard Value>  (302) 
2.0

>  <Assay ChEMBL ID>  (302) 
CHEMBL4263911

>  <Assay Description>  (302) 
Inhibition of PKC-BETA2 (unknown origin) at 1 uM relative to control

>  <BAO Label>  (302) 
single protein format

$$$$

     RDKit          2D

 22 25  0  0  0  0  0  0  0  0999 V2000
   -4.6883    2.2939    0.0000 C   0  0  0  0  0  0  0  0  0  0  0  0
   -4.3764    3.7611    0.0000 C   0  0  0  0  0  0  0  0  0  0  0  0
   -5.4912    4.7648    0.0000 C   0  0  0  0  0  0  0  0  0  0  0  0
   -5.1793    6.2320    0.0000 C   0  0  0  0  0  0  0  0  0  0  0  0
   -3.7527    6.6955    0.0000 C   0  0  0  0  0  0  0  0  0  0  0  0
   -3.4408    8.1628    0.0000 C   0  0  0  0  0  0  0  0  0  0  0  0
   -4.5556    9.1664    0.0000 O   0  0  0  0  0  0  0  0  0  0  0  0
   -2.0143    8.6263    0.0000 N   0  0  0  0  0  0  0  0  0  0  0  0
   -1.7024   10.0935    0.0000 C   0  0  0  0  0  0  0  0  0  0  0  0
   -2.1659   11.5201    0.0000 C   0  0  0  0  0  0  0  0  0  0  0  0
   -0.6987   11.2082    0.0000 C   0  0  0  0  0  0  0  0  0  0  0  0
   -2.6380    5.6918    0.0000 C   0  0  0  0  0  0  0  0  0  0  0  0
   -2.9499    4.2246    0.0000 C   0  0  0  0  0  0  0  0  0  0  0  0
   -1.8351    3.2209    0.0000 C   0  0  0  0  0  0  0  0  0  0  0  0
   -0.4086    3.6844    0.0000 C   0  0  0  0  0  0  0  0  0  0  0  0
    0.7062    2.6807    0.0000 C   0  0  0  0  0  0  0  0  0  0  0  0
    0.3943    1.2135    0.0000 C   0  0  0  0  0  0  0  0  0  0  0  0
    1.2760    0.0000    0.0000 N   0  0  0  0  0  0  0  0  0  0  0  0
    0.3943   -1.2135    0.0000 N   0  0  0  0  0  0  0  0  0  0  0  0
   -1.0323   -0.7500    0.0000 C   0  0  0  0  0  0  0  0  0  0  0  0
   -1.0323    0.7500    0.0000 C   0  0  0  0  0  0  0  0  0  0  0  0
   -2.1470    1.7537    0.0000 C   0  0  0  0  0  0  0  0  0  0  0  0
  1  2  1  0
  2  3  2  0
  3  4  1  0
  4  5  2  0
  5  6  1  0
  6  7  2  0
  6  8  1  0
  8  9  1  0
  9 10  1  0
 10 11  1  0
  5 12  1  0
 12 13  2  0
 13 14  1  0
 14 15  2  0
 15 16  1  0
 16 17  2  0
 17 18  1  0
 18 19  1  0
 19 20  2  0
 20 21  1  0
 21 22  2  0
 13  2  1  0
 22 14  1  0
 11  9  1  0
 21 17  1  0
M  END
>  <Compound_ID>  (303) 
CHEMBL495902

>  <Active>  (303) 
0.0

>  <Smiles>  (303) 
Cc1ccc(C(=O)NC2CC2)cc1-c1ccc2[nH]ncc2c1

>  <canonical_smi>  (303) 
Cc1ccc(C(=O)NC2CC2)cc1-c1ccc2[nH]ncc2c1

>  <Set>  (303) 
G2 inactive

>  <Set_type>  (303) 
External

>  <MW>  (303) 
291.35

>  <HBD>  (303) 
2

>  <HBA>  (303) 
2

>  <NRB>  (303) 
3

>  <NR>  (303) 
4

>  <NAR>  (303) 
3

>  <PSA>  (303) 
57.78

>  <Standard Type>  (303) 
Inhibition

>  <Standard Relation>  (303) 
'='

>  <Standard Units>  (303) 
%

>  <Standard Value>  (303) 
-0.59

>  <Assay ChEMBL ID>  (303) 
CHEMBL1961901

>  <Assay Description>  (303) 
GSK_PKIS: PKC-beta1 (splice variant) mean inhibition at 1 uM [Nanosyn]

>  <BAO Label>  (303) 
single protein format

$$$$
