
     RDKit          2D

 21 23  0  0  0  0  0  0  0  0999 V2000
    8.2500   -6.4952    0.0000 C   0  0  0  0  0  0  0  0  0  0  0  0
    7.5000   -5.1962    0.0000 C   0  0  0  0  0  0  0  0  0  0  0  0
    6.0000   -5.1962    0.0000 C   0  0  0  0  0  0  0  0  0  0  0  0
    5.2500   -6.4952    0.0000 O   0  0  0  0  0  0  0  0  0  0  0  0
    5.2500   -3.8971    0.0000 N   0  0  0  0  0  0  0  0  0  0  0  0
    3.7500   -3.8971    0.0000 C   0  0  0  0  0  0  0  0  0  0  0  0
    3.0000   -5.1962    0.0000 C   0  0  0  0  0  0  0  0  0  0  0  0
    1.5000   -5.1962    0.0000 C   0  0  0  0  0  0  0  0  0  0  0  0
    0.7500   -3.8971    0.0000 C   0  0  0  0  0  0  0  0  0  0  0  0
    1.5000   -2.5981    0.0000 C   0  0  0  0  0  0  0  0  0  0  0  0
    0.7500   -1.2990    0.0000 C   0  0  0  0  0  0  0  0  0  0  0  0
    1.5000    0.0000    0.0000 C   0  0  0  0  0  0  0  0  0  0  0  0
    0.7500    1.2990    0.0000 N   0  0  0  0  0  0  0  0  0  0  0  0
   -0.7500    1.2990    0.0000 C   0  0  0  0  0  0  0  0  0  0  0  0
   -1.7537    2.4138    0.0000 N   0  0  0  0  0  0  0  0  0  0  0  0
   -3.1240    1.8037    0.0000 C   0  0  0  0  0  0  0  0  0  0  0  0
   -2.9672    0.3119    0.0000 C   0  0  0  0  0  0  0  0  0  0  0  0
   -4.0819   -0.6918    0.0000 Cl  0  0  0  0  0  0  0  0  0  0  0  0
   -1.5000    0.0000    0.0000 C   0  0  0  0  0  0  0  0  0  0  0  0
   -0.7500   -1.2990    0.0000 C   0  0  0  0  0  0  0  0  0  0  0  0
    3.0000   -2.5981    0.0000 C   0  0  0  0  0  0  0  0  0  0  0  0
  1  2  2  0
  2  3  1  0
  3  4  2  0
  3  5  1  0
  5  6  1  0
  6  7  2  0
  7  8  1  0
  8  9  2  0
  9 10  1  0
 10 11  1  0
 11 12  2  0
 12 13  1  0
 13 14  2  0
 14 15  1  0
 15 16  1  0
 16 17  2  0
 17 18  1  0
 17 19  1  0
 19 20  2  0
 10 21  2  0
 21  6  1  0
 20 11  1  0
 19 14  1  0
M  END
>  <Compound_ID>  (1) 
CHEMBL3963521

>  <Molecule Name>  (1) 
nan

>  <Molecular Weight>  (1) 
297.75

>  <AlogP>  (1) 
4.01

>  <Smiles>  (1) 
C=CC(=O)Nc1cccc(-c2cnc3[nH]cc(Cl)c3c2)c1

>  <Standard Type>  (1) 
IC50

>  <Standard Relation>  (1) 
'='

>  <Standard Units>  (1) 
nM

>  <Standard Value>  (1) 
30.0

>  <Assay ChEMBL ID>  (1) 
CHEMBL3887687

>  <Assay Description>  (1) 
Biochemical Inhibition Assay: 1H-pyrrolo[2,3-b]pyridine, 1H-pyrazolo[3,4-b]pyridine and 5H-pyrrolo[2,3-b]pyrazine series of compounds exhibited over >100 fold selective against Janus and TEC family of kinases except for the BMX and TXK it had activity of 30 and 45 nM respectively.

>  <BAO Format ID>  (1) 
BAO_0000357

>  <BAO Label>  (1) 
single protein format

>  <Assay Organism>  (1) 
Homo sapiens

>  <Target ChEMBL ID>  (1) 
CHEMBL2959

>  <Target Name>  (1) 
Tyrosine-protein kinase ITK/TSK

>  <Target Organism>  (1) 
Homo sapiens

>  <Target Type>  (1) 
SINGLE PROTEIN

>  <Document ChEMBL ID>  (1) 
CHEMBL3886406

>  <Source Description>  (1) 
BindingDB Database

>  <Document Journal>  (1) 
nan

>  <Document Year>  (1) 
2015.0

>  <Active>  (1) 
1.0

$$$$

     RDKit          2D

 34 37  0  0  0  0  0  0  0  0999 V2000
   -2.1491   -7.1273    0.0000 C   0  0  0  0  0  0  0  0  0  0  0  0
   -1.8373   -5.6601    0.0000 O   0  0  0  0  0  0  0  0  0  0  0  0
   -2.9520   -4.6564    0.0000 C   0  0  0  0  0  0  0  0  0  0  0  0
   -4.3786   -5.1199    0.0000 C   0  0  0  0  0  0  0  0  0  0  0  0
   -5.4933   -4.1162    0.0000 C   0  0  0  0  0  0  0  0  0  0  0  0
   -6.9199   -4.5797    0.0000 F   0  0  0  0  0  0  0  0  0  0  0  0
   -5.1814   -2.6490    0.0000 C   0  0  0  0  0  0  0  0  0  0  0  0
   -6.2961   -1.6453    0.0000 C   0  0  0  0  0  0  0  0  0  0  0  0
   -3.7548   -2.1855    0.0000 C   0  0  0  0  0  0  0  0  0  0  0  0
   -2.6401   -3.1891    0.0000 C   0  0  0  0  0  0  0  0  0  0  0  0
   -1.2135   -2.7256    0.0000 C   0  0  0  0  0  0  0  0  0  0  0  0
   -0.0000   -3.6073    0.0000 C   0  0  0  0  0  0  0  0  0  0  0  0
    1.2135   -2.7256    0.0000 N   0  0  0  0  0  0  0  0  0  0  0  0
    0.7500   -1.2990    0.0000 C   0  0  0  0  0  0  0  0  0  0  0  0
    1.5000    0.0000    0.0000 N   0  0  0  0  0  0  0  0  0  0  0  0
    0.7500    1.2990    0.0000 C   0  0  0  0  0  0  0  0  0  0  0  0
   -0.7500    1.2990    0.0000 C   0  0  0  0  0  0  0  0  0  0  0  0
   -1.5000    2.5981    0.0000 C   0  0  0  0  0  0  0  0  0  0  0  0
   -0.7500    3.8971    0.0000 C   0  0  0  0  0  0  0  0  0  0  0  0
   -1.5000    5.1962    0.0000 C   0  0  0  0  0  0  0  0  0  0  0  0
   -3.0000    5.1962    0.0000 C   0  0  0  0  0  0  0  0  0  0  0  0
   -3.7500    3.8971    0.0000 C   0  0  0  0  0  0  0  0  0  0  0  0
   -5.2500    3.8971    0.0000 N   0  0  0  0  0  0  0  0  0  0  0  0
   -6.0000    5.1962    0.0000 C   0  0  0  0  0  0  0  0  0  0  0  0
   -5.2500    6.4952    0.0000 O   0  0  0  0  0  0  0  0  0  0  0  0
   -7.5000    5.1962    0.0000 C   0  0  0  0  0  0  0  0  0  0  0  0
   -8.2500    6.4952    0.0000 C   0  0  0  0  0  0  0  0  0  0  0  0
   -9.7500    6.4952    0.0000 C   0  0  0  0  0  0  0  0  0  0  0  0
  -10.5000    7.7942    0.0000 N   0  0  0  0  0  0  0  0  0  0  0  0
  -12.0000    7.7942    0.0000 C   0  0  0  0  0  0  0  0  0  0  0  0
   -9.7500    9.0933    0.0000 C   0  0  0  0  0  0  0  0  0  0  0  0
   -3.0000    2.5981    0.0000 C   0  0  0  0  0  0  0  0  0  0  0  0
   -1.5000    0.0000    0.0000 C   0  0  0  0  0  0  0  0  0  0  0  0
   -0.7500   -1.2990    0.0000 C   0  0  0  0  0  0  0  0  0  0  0  0
  1  2  1  0
  2  3  1  0
  3  4  2  0
  4  5  1  0
  5  6  1  0
  5  7  2  0
  7  8  1  0
  7  9  1  0
  9 10  2  0
 10 11  1  0
 11 12  2  0
 12 13  1  0
 13 14  1  0
 14 15  2  0
 15 16  1  0
 16 17  2  0
 17 18  1  0
 18 19  2  0
 19 20  1  0
 20 21  2  0
 21 22  1  0
 22 23  1  0
 23 24  1  0
 24 25  2  0
 24 26  1  0
 26 27  2  0
 27 28  1  0
 28 29  1  0
 29 30  1  0
 29 31  1  0
 22 32  2  0
 17 33  1  0
 33 34  2  0
 10  3  1  0
 34 11  1  0
 34 14  1  0
 32 18  1  0
M  END
>  <Compound_ID>  (2) 
CHEMBL3948029

>  <Molecule Name>  (2) 
nan

>  <Molecular Weight>  (2) 
458.54

>  <AlogP>  (2) 
5.41

>  <Smiles>  (2) 
COc1cc(F)c(C)cc1-c1c[nH]c2ncc(-c3cccc(NC(=O)/C=C/CN(C)C)c3)cc12

>  <Standard Type>  (2) 
IC50

>  <Standard Relation>  (2) 
'='

>  <Standard Units>  (2) 
nM

>  <Standard Value>  (2) 
72.4

>  <Assay ChEMBL ID>  (2) 
CHEMBL3887687

>  <Assay Description>  (2) 
Biochemical Inhibition Assay: 1H-pyrrolo[2,3-b]pyridine, 1H-pyrazolo[3,4-b]pyridine and 5H-pyrrolo[2,3-b]pyrazine series of compounds exhibited over >100 fold selective against Janus and TEC family of kinases except for the BMX and TXK it had activity of 30 and 45 nM respectively.

>  <BAO Format ID>  (2) 
BAO_0000357

>  <BAO Label>  (2) 
single protein format

>  <Assay Organism>  (2) 
Homo sapiens

>  <Target ChEMBL ID>  (2) 
CHEMBL2959

>  <Target Name>  (2) 
Tyrosine-protein kinase ITK/TSK

>  <Target Organism>  (2) 
Homo sapiens

>  <Target Type>  (2) 
SINGLE PROTEIN

>  <Document ChEMBL ID>  (2) 
CHEMBL3886406

>  <Source Description>  (2) 
BindingDB Database

>  <Document Journal>  (2) 
nan

>  <Document Year>  (2) 
2015.0

>  <Active>  (2) 
1.0

$$$$

     RDKit          2D

 30 33  0  0  0  0  0  0  0  0999 V2000
   -7.7227   -2.1088    0.0000 C   0  0  0  0  0  0  0  0  0  0  0  0
   -6.2961   -1.6453    0.0000 O   0  0  0  0  0  0  0  0  0  0  0  0
   -5.1814   -2.6490    0.0000 C   0  0  0  0  0  0  0  0  0  0  0  0
   -3.7548   -2.1855    0.0000 C   0  0  0  0  0  0  0  0  0  0  0  0
   -2.6401   -3.1891    0.0000 C   0  0  0  0  0  0  0  0  0  0  0  0
   -1.2135   -2.7256    0.0000 N   0  0  0  0  0  0  0  0  0  0  0  0
   -0.0000   -3.6073    0.0000 C   0  0  0  0  0  0  0  0  0  0  0  0
   -0.0000   -5.1073    0.0000 N   0  0  0  0  0  0  0  0  0  0  0  0
   -1.2990   -5.8573    0.0000 C   0  0  0  0  0  0  0  0  0  0  0  0
   -2.5981   -5.1073    0.0000 O   0  0  0  0  0  0  0  0  0  0  0  0
   -1.2990   -7.3573    0.0000 C   0  0  0  0  0  0  0  0  0  0  0  0
   -0.0855   -8.2390    0.0000 C   0  0  0  0  0  0  0  0  0  0  0  0
   -0.5490   -9.6656    0.0000 C   0  0  0  0  0  0  0  0  0  0  0  0
   -2.0490   -9.6656    0.0000 N   0  0  0  0  0  0  0  0  0  0  0  0
   -2.5126   -8.2390    0.0000 O   0  0  0  0  0  0  0  0  0  0  0  0
    1.2135   -2.7256    0.0000 N   0  0  0  0  0  0  0  0  0  0  0  0
    0.7500   -1.2990    0.0000 C   0  0  0  0  0  0  0  0  0  0  0  0
    1.5000    0.0000    0.0000 C   0  0  0  0  0  0  0  0  0  0  0  0
    0.7500    1.2990    0.0000 C   0  0  0  0  0  0  0  0  0  0  0  0
    1.5000    2.5981    0.0000 C   0  0  0  0  0  0  0  0  0  0  0  0
    3.0000    2.5981    0.0000 N   0  0  0  0  0  0  0  0  0  0  0  0
    3.7500    3.8971    0.0000 C   0  0  0  0  0  0  0  0  0  0  0  0
    5.2500    3.8971    0.0000 C   0  0  0  0  0  0  0  0  0  0  0  0
    6.0000    5.1962    0.0000 C   0  0  0  0  0  0  0  0  0  0  0  0
    5.2500    6.4952    0.0000 C   0  0  0  0  0  0  0  0  0  0  0  0
    3.7500    6.4952    0.0000 C   0  0  0  0  0  0  0  0  0  0  0  0
    3.0000    5.1962    0.0000 C   0  0  0  0  0  0  0  0  0  0  0  0
   -0.7500    1.2990    0.0000 C   0  0  0  0  0  0  0  0  0  0  0  0
   -1.5000    0.0000    0.0000 C   0  0  0  0  0  0  0  0  0  0  0  0
   -0.7500   -1.2990    0.0000 C   0  0  0  0  0  0  0  0  0  0  0  0
  1  2  1  0
  2  3  1  0
  3  4  1  0
  4  5  1  0
  5  6  1  0
  6  7  1  0
  7  8  1  0
  8  9  1  0
  9 10  2  0
  9 11  1  0
 11 12  2  0
 12 13  1  0
 13 14  2  0
 14 15  1  0
  7 16  2  0
 16 17  1  0
 17 18  2  0
 18 19  1  0
 19 20  1  0
 20 21  1  0
 21 22  1  0
 22 23  1  0
 23 24  1  0
 24 25  1  0
 25 26  1  0
 26 27  1  0
 19 28  2  0
 28 29  1  0
 29 30  2  0
 30  6  1  0
 15 11  1  0
 30 17  1  0
 27 22  1  0
M  END
>  <Compound_ID>  (3) 
CHEMBL488399

>  <Molecule Name>  (3) 
nan

>  <Molecular Weight>  (3) 
411.51

>  <AlogP>  (3) 
3.74

>  <Smiles>  (3) 
COCCCn1c(NC(=O)c2ccno2)nc2cc(CNC3CCCCC3)ccc21

>  <Standard Type>  (3) 
IC50

>  <Standard Relation>  (3) 
'='

>  <Standard Units>  (3) 
nM

>  <Standard Value>  (3) 
53.0

>  <Assay ChEMBL ID>  (3) 
CHEMBL1006237

>  <Assay Description>  (3) 
Inhibition of ITK by DELPHIA assay

>  <BAO Format ID>  (3) 
BAO_0000357

>  <BAO Label>  (3) 
single protein format

>  <Assay Organism>  (3) 
None

>  <Target ChEMBL ID>  (3) 
CHEMBL2959

>  <Target Name>  (3) 
Tyrosine-protein kinase ITK/TSK

>  <Target Organism>  (3) 
Homo sapiens

>  <Target Type>  (3) 
SINGLE PROTEIN

>  <Document ChEMBL ID>  (3) 
CHEMBL1152240

>  <Source Description>  (3) 
Scientific Literature

>  <Document Journal>  (3) 
Bioorg Med Chem Lett

>  <Document Year>  (3) 
2008.0

>  <Active>  (3) 
1.0

$$$$

     RDKit          2D

 29 33  0  0  0  0  0  0  0  0999 V2000
    8.2500   -6.4952    0.0000 C   0  0  0  0  0  0  0  0  0  0  0  0
    7.5000   -5.1962    0.0000 C   0  0  0  0  0  0  0  0  0  0  0  0
    6.0000   -5.1962    0.0000 C   0  0  0  0  0  0  0  0  0  0  0  0
    5.2500   -6.4952    0.0000 O   0  0  0  0  0  0  0  0  0  0  0  0
    5.2500   -3.8971    0.0000 N   0  0  0  0  0  0  0  0  0  0  0  0
    3.7500   -3.8971    0.0000 C   0  0  0  0  0  0  0  0  0  0  0  0
    3.0000   -5.1962    0.0000 C   0  0  0  0  0  0  0  0  0  0  0  0
    1.5000   -5.1962    0.0000 C   0  0  0  0  0  0  0  0  0  0  0  0
    0.7500   -3.8971    0.0000 C   0  0  0  0  0  0  0  0  0  0  0  0
    1.5000   -2.5981    0.0000 C   0  0  0  0  0  0  0  0  0  0  0  0
    0.7500   -1.2990    0.0000 C   0  0  0  0  0  0  0  0  0  0  0  0
    1.5000    0.0000    0.0000 C   0  0  0  0  0  0  0  0  0  0  0  0
    0.7500    1.2990    0.0000 N   0  0  0  0  0  0  0  0  0  0  0  0
   -0.7500    1.2990    0.0000 C   0  0  0  0  0  0  0  0  0  0  0  0
   -1.7537    2.4138    0.0000 N   0  0  0  0  0  0  0  0  0  0  0  0
   -3.1240    1.8037    0.0000 C   0  0  0  0  0  0  0  0  0  0  0  0
   -2.9672    0.3119    0.0000 C   0  0  0  0  0  0  0  0  0  0  0  0
   -4.0819   -0.6918    0.0000 C   0  0  0  0  0  0  0  0  0  0  0  0
   -5.5492   -0.3800    0.0000 C   0  0  0  0  0  0  0  0  0  0  0  0
   -6.2992   -1.6790    0.0000 C   0  0  0  0  0  0  0  0  0  0  0  0
   -7.7664   -1.9909    0.0000 C   0  0  0  0  0  0  0  0  0  0  0  0
   -8.2299   -3.4175    0.0000 C   0  0  0  0  0  0  0  0  0  0  0  0
   -7.2262   -4.5322    0.0000 C   0  0  0  0  0  0  0  0  0  0  0  0
   -5.7590   -4.2203    0.0000 C   0  0  0  0  0  0  0  0  0  0  0  0
   -5.2955   -2.7937    0.0000 C   0  0  0  0  0  0  0  0  0  0  0  0
   -3.9251   -2.1836    0.0000 N   0  0  0  0  0  0  0  0  0  0  0  0
   -1.5000    0.0000    0.0000 C   0  0  0  0  0  0  0  0  0  0  0  0
   -0.7500   -1.2990    0.0000 N   0  0  0  0  0  0  0  0  0  0  0  0
    3.0000   -2.5981    0.0000 C   0  0  0  0  0  0  0  0  0  0  0  0
  1  2  2  0
  2  3  1  0
  3  4  2  0
  3  5  1  0
  5  6  1  0
  6  7  2  0
  7  8  1  0
  8  9  2  0
  9 10  1  0
 10 11  1  0
 11 12  2  0
 12 13  1  0
 13 14  2  0
 14 15  1  0
 15 16  1  0
 16 17  2  0
 17 18  1  0
 18 19  2  0
 19 20  1  0
 20 21  2  0
 21 22  1  0
 22 23  2  0
 23 24  1  0
 24 25  2  0
 25 26  1  0
 17 27  1  0
 27 28  2  0
 10 29  2  0
 29  6  1  0
 28 11  1  0
 27 14  1  0
 26 18  1  0
 25 20  1  0
M  END
>  <Compound_ID>  (4) 
CHEMBL3984768

>  <Molecule Name>  (4) 
nan

>  <Molecular Weight>  (4) 
379.42

>  <AlogP>  (4) 
4.90

>  <Smiles>  (4) 
C=CC(=O)Nc1cccc(-c2cnc3[nH]cc(-c4cc5ccccc5[nH]4)c3n2)c1

>  <Standard Type>  (4) 
IC50

>  <Standard Relation>  (4) 
'='

>  <Standard Units>  (4) 
nM

>  <Standard Value>  (4) 
35.0

>  <Assay ChEMBL ID>  (4) 
CHEMBL3887687

>  <Assay Description>  (4) 
Biochemical Inhibition Assay: 1H-pyrrolo[2,3-b]pyridine, 1H-pyrazolo[3,4-b]pyridine and 5H-pyrrolo[2,3-b]pyrazine series of compounds exhibited over >100 fold selective against Janus and TEC family of kinases except for the BMX and TXK it had activity of 30 and 45 nM respectively.

>  <BAO Format ID>  (4) 
BAO_0000357

>  <BAO Label>  (4) 
single protein format

>  <Assay Organism>  (4) 
Homo sapiens

>  <Target ChEMBL ID>  (4) 
CHEMBL2959

>  <Target Name>  (4) 
Tyrosine-protein kinase ITK/TSK

>  <Target Organism>  (4) 
Homo sapiens

>  <Target Type>  (4) 
SINGLE PROTEIN

>  <Document ChEMBL ID>  (4) 
CHEMBL3886406

>  <Source Description>  (4) 
BindingDB Database

>  <Document Journal>  (4) 
nan

>  <Document Year>  (4) 
2015.0

>  <Active>  (4) 
1.0

$$$$

     RDKit          2D

 25 27  0  0  0  0  0  0  0  0999 V2000
   -2.6401   -3.1891    0.0000 C   0  0  0  0  0  0  0  0  0  0  0  0
   -1.2135   -2.7256    0.0000 C   0  0  0  0  0  0  0  0  0  0  0  0
   -0.0000   -3.6073    0.0000 N   0  0  0  0  0  0  0  0  0  0  0  0
    1.2135   -2.7256    0.0000 N   0  0  0  0  0  0  0  0  0  0  0  0
    0.7500   -1.2990    0.0000 C   0  0  0  0  0  0  0  0  0  0  0  0
    1.5000    0.0000    0.0000 N   0  0  0  0  0  0  0  0  0  0  0  0
    0.7500    1.2990    0.0000 C   0  0  0  0  0  0  0  0  0  0  0  0
   -0.7500    1.2990    0.0000 C   0  0  0  0  0  0  0  0  0  0  0  0
   -1.5000    2.5981    0.0000 C   0  0  0  0  0  0  0  0  0  0  0  0
   -0.7500    3.8971    0.0000 C   0  0  0  0  0  0  0  0  0  0  0  0
   -1.5000    5.1962    0.0000 C   0  0  0  0  0  0  0  0  0  0  0  0
   -3.0000    5.1962    0.0000 C   0  0  0  0  0  0  0  0  0  0  0  0
   -3.7500    6.4952    0.0000 Cl  0  0  0  0  0  0  0  0  0  0  0  0
   -3.7500    3.8971    0.0000 C   0  0  0  0  0  0  0  0  0  0  0  0
   -5.2500    3.8971    0.0000 N   0  0  0  0  0  0  0  0  0  0  0  0
   -6.0000    2.5981    0.0000 C   0  0  0  0  0  0  0  0  0  0  0  0
   -5.2500    1.2990    0.0000 O   0  0  0  0  0  0  0  0  0  0  0  0
   -7.5000    2.5981    0.0000 C   0  0  0  0  0  0  0  0  0  0  0  0
   -8.2500    1.2990    0.0000 C   0  0  0  0  0  0  0  0  0  0  0  0
   -9.7500    1.2990    0.0000 N   0  0  0  0  0  0  0  0  0  0  0  0
  -10.5000   -0.0000    0.0000 C   0  0  0  0  0  0  0  0  0  0  0  0
  -10.5000    2.5981    0.0000 C   0  0  0  0  0  0  0  0  0  0  0  0
   -3.0000    2.5981    0.0000 C   0  0  0  0  0  0  0  0  0  0  0  0
   -1.5000    0.0000    0.0000 C   0  0  0  0  0  0  0  0  0  0  0  0
   -0.7500   -1.2990    0.0000 C   0  0  0  0  0  0  0  0  0  0  0  0
  1  2  1  0
  2  3  2  0
  3  4  1  0
  4  5  1  0
  5  6  2  0
  6  7  1  0
  7  8  2  0
  8  9  1  0
  9 10  2  0
 10 11  1  0
 11 12  2  0
 12 13  1  0
 12 14  1  0
 14 15  1  0
 15 16  1  0
 16 17  2  0
 16 18  1  0
 18 19  2  0
 19 20  1  0
 20 21  1  0
 20 22  1  0
 14 23  2  0
  8 24  1  0
 24 25  2  0
 25  2  1  0
 25  5  1  0
 23  9  1  0
M  END
>  <Compound_ID>  (5) 
CHEMBL3942125

>  <Molecule Name>  (5) 
nan

>  <Molecular Weight>  (5) 
355.83

>  <AlogP>  (5) 
3.60

>  <Smiles>  (5) 
Cc1n[nH]c2ncc(-c3ccc(Cl)c(NC(=O)/C=C/N(C)C)c3)cc12

>  <Standard Type>  (5) 
IC50

>  <Standard Relation>  (5) 
'='

>  <Standard Units>  (5) 
nM

>  <Standard Value>  (5) 
35.0

>  <Assay ChEMBL ID>  (5) 
CHEMBL3887687

>  <Assay Description>  (5) 
Biochemical Inhibition Assay: 1H-pyrrolo[2,3-b]pyridine, 1H-pyrazolo[3,4-b]pyridine and 5H-pyrrolo[2,3-b]pyrazine series of compounds exhibited over >100 fold selective against Janus and TEC family of kinases except for the BMX and TXK it had activity of 30 and 45 nM respectively.

>  <BAO Format ID>  (5) 
BAO_0000357

>  <BAO Label>  (5) 
single protein format

>  <Assay Organism>  (5) 
Homo sapiens

>  <Target ChEMBL ID>  (5) 
CHEMBL2959

>  <Target Name>  (5) 
Tyrosine-protein kinase ITK/TSK

>  <Target Organism>  (5) 
Homo sapiens

>  <Target Type>  (5) 
SINGLE PROTEIN

>  <Document ChEMBL ID>  (5) 
CHEMBL3886406

>  <Source Description>  (5) 
BindingDB Database

>  <Document Journal>  (5) 
nan

>  <Document Year>  (5) 
2015.0

>  <Active>  (5) 
1.0

$$$$

     RDKit          2D

 33 37  0  0  0  0  0  0  0  0999 V2000
   -6.4289   -8.5179    0.0000 C   0  0  0  0  0  0  0  0  0  0  0  0
   -6.1170   -7.0506    0.0000 C   0  0  0  0  0  0  0  0  0  0  0  0
   -4.6904   -6.5871    0.0000 C   0  0  0  0  0  0  0  0  0  0  0  0
   -3.5757   -7.5908    0.0000 O   0  0  0  0  0  0  0  0  0  0  0  0
   -4.3786   -5.1199    0.0000 N   0  0  0  0  0  0  0  0  0  0  0  0
   -5.4933   -4.1162    0.0000 C   0  0  0  0  0  0  0  0  0  0  0  0
   -5.1814   -2.6490    0.0000 C   0  0  0  0  0  0  0  0  0  0  0  0
   -3.7548   -2.1855    0.0000 C   0  0  0  0  0  0  0  0  0  0  0  0
   -2.6401   -3.1891    0.0000 C   0  0  0  0  0  0  0  0  0  0  0  0
   -1.2135   -2.7256    0.0000 N   0  0  0  0  0  0  0  0  0  0  0  0
   -0.0000   -3.6073    0.0000 N   0  0  0  0  0  0  0  0  0  0  0  0
    1.2135   -2.7256    0.0000 C   0  0  0  0  0  0  0  0  0  0  0  0
    2.6401   -3.1891    0.0000 C   0  0  0  0  0  0  0  0  0  0  0  0
    2.9520   -4.6564    0.0000 C   0  0  0  0  0  0  0  0  0  0  0  0
    4.3786   -5.1199    0.0000 C   0  0  0  0  0  0  0  0  0  0  0  0
    5.4933   -4.1162    0.0000 C   0  0  0  0  0  0  0  0  0  0  0  0
    6.9199   -4.5797    0.0000 O   0  0  0  0  0  0  0  0  0  0  0  0
    7.2317   -6.0469    0.0000 C   0  0  0  0  0  0  0  0  0  0  0  0
    6.1170   -7.0506    0.0000 C   0  0  0  0  0  0  0  0  0  0  0  0
    6.4289   -8.5179    0.0000 C   0  0  0  0  0  0  0  0  0  0  0  0
    7.8555   -8.9814    0.0000 C   0  0  0  0  0  0  0  0  0  0  0  0
    8.9702   -7.9777    0.0000 C   0  0  0  0  0  0  0  0  0  0  0  0
    8.6583   -6.5105    0.0000 C   0  0  0  0  0  0  0  0  0  0  0  0
    5.1814   -2.6490    0.0000 C   0  0  0  0  0  0  0  0  0  0  0  0
    3.7548   -2.1855    0.0000 C   0  0  0  0  0  0  0  0  0  0  0  0
    0.7500   -1.2990    0.0000 C   0  0  0  0  0  0  0  0  0  0  0  0
    1.5000    0.0000    0.0000 C   0  0  0  0  0  0  0  0  0  0  0  0
    3.0000    0.0000    0.0000 N   0  0  0  0  0  0  0  0  0  0  0  0
    0.7500    1.2990    0.0000 N   0  0  0  0  0  0  0  0  0  0  0  0
   -0.7500    1.2990    0.0000 C   0  0  0  0  0  0  0  0  0  0  0  0
   -1.5000    0.0000    0.0000 N   0  0  0  0  0  0  0  0  0  0  0  0
   -0.7500   -1.2990    0.0000 C   0  0  0  0  0  0  0  0  0  0  0  0
   -2.9520   -4.6564    0.0000 C   0  0  0  0  0  0  0  0  0  0  0  0
  1  2  2  0
  2  3  1  0
  3  4  2  0
  3  5  1  0
  5  6  1  0
  6  7  1  0
  7  8  1  0
  8  9  1  0
  9 10  1  1
 10 11  1  0
 11 12  2  0
 12 13  1  0
 13 14  2  0
 14 15  1  0
 15 16  2  0
 16 17  1  0
 17 18  1  0
 18 19  2  0
 19 20  1  0
 20 21  2  0
 21 22  1  0
 22 23  2  0
 16 24  1  0
 24 25  2  0
 12 26  1  0
 26 27  2  0
 27 28  1  0
 27 29  1  0
 29 30  2  0
 30 31  1  0
 31 32  2  0
  9 33  1  0
 33  5  1  0
 32 10  1  0
 25 13  1  0
 32 26  1  0
 23 18  1  0
M  END
>  <Compound_ID>  (6) 
CHEMBL1873475

>  <Molecule Name>  (6) 
IBRUTINIB

>  <Molecular Weight>  (6) 
440.51

>  <AlogP>  (6) 
4.22

>  <Smiles>  (6) 
C=CC(=O)N1CCC[C@@H](n2nc(-c3ccc(Oc4ccccc4)cc3)c3c(N)ncnc32)C1

>  <Standard Type>  (6) 
IC50

>  <Standard Relation>  (6) 
'='

>  <Standard Units>  (6) 
nM

>  <Standard Value>  (6) 
11.7

>  <Assay ChEMBL ID>  (6) 
CHEMBL3887530

>  <Assay Description>  (6) 
HotSpot kinase assay: IC50s were determined using the in vitro HotSpot kinase assay (purified enzymes, 33P-ATP, an appropriate substrate and 1 Î¼M ATP.). For enzyme inhibition assays, compounds were tested in range of ten concentrations from 10 uM to 0.0005 uM using purified enzymes and the Hotspot kinase assay. Reaction conditions were 1 uM ATP, one hour incubation with inhibitor, and kinase activity detected using 33-ATP phosphorylation of an appropriately selected peptide substrate.

>  <BAO Format ID>  (6) 
BAO_0000357

>  <BAO Label>  (6) 
single protein format

>  <Assay Organism>  (6) 
Homo sapiens

>  <Target ChEMBL ID>  (6) 
CHEMBL2959

>  <Target Name>  (6) 
Tyrosine-protein kinase ITK/TSK

>  <Target Organism>  (6) 
Homo sapiens

>  <Target Type>  (6) 
SINGLE PROTEIN

>  <Document ChEMBL ID>  (6) 
CHEMBL3886356

>  <Source Description>  (6) 
BindingDB Database

>  <Document Journal>  (6) 
nan

>  <Document Year>  (6) 
2015.0

>  <Active>  (6) 
1.0

$$$$

     RDKit          2D

 37 41  0  0  0  0  0  0  0  0999 V2000
    3.6807  -14.6874    0.0000 C   0  0  0  0  0  0  0  0  0  0  0  0
    3.6807  -13.1874    0.0000 C   0  0  0  0  0  0  0  0  0  0  0  0
    4.8942  -12.3057    0.0000 N   0  0  0  0  0  0  0  0  0  0  0  0
    4.4307  -10.8791    0.0000 C   0  0  0  0  0  0  0  0  0  0  0  0
    2.9307  -10.8791    0.0000 C   0  0  0  0  0  0  0  0  0  0  0  0
    2.0490   -9.6656    0.0000 C   0  0  0  0  0  0  0  0  0  0  0  0
    0.5490   -9.6656    0.0000 C   0  0  0  0  0  0  0  0  0  0  0  0
    0.0855   -8.2390    0.0000 C   0  0  0  0  0  0  0  0  0  0  0  0
    1.2990   -7.3573    0.0000 C   0  0  0  0  0  0  0  0  0  0  0  0
    1.2990   -5.8573    0.0000 C   0  0  0  0  0  0  0  0  0  0  0  0
    2.5981   -5.1073    0.0000 O   0  0  0  0  0  0  0  0  0  0  0  0
   -0.0000   -5.1073    0.0000 N   0  0  0  0  0  0  0  0  0  0  0  0
   -0.0000   -3.6073    0.0000 C   0  0  0  0  0  0  0  0  0  0  0  0
    1.2135   -2.7256    0.0000 N   0  0  0  0  0  0  0  0  0  0  0  0
    0.7500   -1.2990    0.0000 C   0  0  0  0  0  0  0  0  0  0  0  0
    1.5000    0.0000    0.0000 C   0  0  0  0  0  0  0  0  0  0  0  0
    0.7500    1.2990    0.0000 C   0  0  0  0  0  0  0  0  0  0  0  0
    1.5000    2.5981    0.0000 C   0  0  0  0  0  0  0  0  0  0  0  0
    3.0000    2.5981    0.0000 N   0  0  0  0  0  0  0  0  0  0  0  0
    3.7500    3.8971    0.0000 C   0  0  0  0  0  0  0  0  0  0  0  0
    3.7500    1.2990    0.0000 C   0  0  0  0  0  0  0  0  0  0  0  0
    3.0000   -0.0000    0.0000 C   0  0  0  0  0  0  0  0  0  0  0  0
    3.7500   -1.2990    0.0000 C   0  0  0  0  0  0  0  0  0  0  0  0
    5.2500   -1.2990    0.0000 C   0  0  0  0  0  0  0  0  0  0  0  0
    6.0000   -0.0000    0.0000 C   0  0  0  0  0  0  0  0  0  0  0  0
    5.2500    1.2990    0.0000 C   0  0  0  0  0  0  0  0  0  0  0  0
   -0.7500    1.2990    0.0000 C   0  0  0  0  0  0  0  0  0  0  0  0
   -1.5000    0.0000    0.0000 C   0  0  0  0  0  0  0  0  0  0  0  0
   -0.7500   -1.2990    0.0000 C   0  0  0  0  0  0  0  0  0  0  0  0
   -1.2135   -2.7256    0.0000 N   0  0  0  0  0  0  0  0  0  0  0  0
   -2.6401   -3.1891    0.0000 C   0  0  0  0  0  0  0  0  0  0  0  0
   -3.7548   -2.1855    0.0000 C   0  0  0  0  0  0  0  0  0  0  0  0
   -2.7511   -1.0707    0.0000 C   0  0  0  0  0  0  0  0  0  0  0  0
   -4.7585   -3.3002    0.0000 C   0  0  0  0  0  0  0  0  0  0  0  0
   -4.8695   -1.1818    0.0000 O   0  0  0  0  0  0  0  0  0  0  0  0
    2.5126   -8.2390    0.0000 S   0  0  0  0  0  0  0  0  0  0  0  0
    2.4672  -12.3057    0.0000 O   0  0  0  0  0  0  0  0  0  0  0  0
  1  2  1  0
  2  3  2  0
  3  4  1  0
  4  5  2  0
  5  6  1  0
  6  7  2  0
  7  8  1  0
  8  9  2  0
  9 10  1  0
 10 11  2  0
 10 12  1  0
 12 13  2  0
 13 14  1  0
 14 15  1  0
 15 16  2  0
 16 17  1  0
 17 18  1  0
 18 19  1  0
 19 20  1  0
 19 21  1  0
 21 22  1  0
 22 23  1  0
 23 24  1  0
 24 25  1  0
 25 26  1  0
 17 27  2  0
 27 28  1  0
 28 29  2  0
 29 30  1  0
 30 31  1  0
 31 32  1  0
 32 33  1  0
 32 34  1  0
 32 35  1  0
  9 36  1  0
  5 37  1  0
 37  2  1  0
 36  6  1  0
 30 13  1  0
 29 15  1  0
 26 21  1  0
M  END
>  <Compound_ID>  (7) 
CHEMBL493106

>  <Molecule Name>  (7) 
nan

>  <Molecular Weight>  (7) 
521.69

>  <AlogP>  (7) 
5.27

>  <Smiles>  (7) 
Cc1ncc(-c2ccc(C(=O)/N=c3\[nH]c4cc(CN(C)C5CCCCC5)ccc4n3CC(C)(C)O)s2)o1

>  <Standard Type>  (7) 
IC50

>  <Standard Relation>  (7) 
'='

>  <Standard Units>  (7) 
nM

>  <Standard Value>  (7) 
8.0

>  <Assay ChEMBL ID>  (7) 
CHEMBL1018826

>  <Assay Description>  (7) 
Binding affinity to ITK by DELFIA-based molecular assay

>  <BAO Format ID>  (7) 
BAO_0000357

>  <BAO Label>  (7) 
single protein format

>  <Assay Organism>  (7) 
None

>  <Target ChEMBL ID>  (7) 
CHEMBL2959

>  <Target Name>  (7) 
Tyrosine-protein kinase ITK/TSK

>  <Target Organism>  (7) 
Homo sapiens

>  <Target Type>  (7) 
SINGLE PROTEIN

>  <Document ChEMBL ID>  (7) 
CHEMBL1153328

>  <Source Description>  (7) 
Scientific Literature

>  <Document Journal>  (7) 
Bioorg Med Chem Lett

>  <Document Year>  (7) 
2009.0

>  <Active>  (7) 
1.0

$$$$

     RDKit          2D

 36 40  0  0  0  0  0  0  0  0999 V2000
    3.6807  -14.6874    0.0000 C   0  0  0  0  0  0  0  0  0  0  0  0
    3.6807  -13.1874    0.0000 C   0  0  0  0  0  0  0  0  0  0  0  0
    4.8942  -12.3057    0.0000 N   0  0  0  0  0  0  0  0  0  0  0  0
    4.4307  -10.8791    0.0000 C   0  0  0  0  0  0  0  0  0  0  0  0
    2.9307  -10.8791    0.0000 C   0  0  0  0  0  0  0  0  0  0  0  0
    2.0490   -9.6656    0.0000 C   0  0  0  0  0  0  0  0  0  0  0  0
    0.5490   -9.6656    0.0000 C   0  0  0  0  0  0  0  0  0  0  0  0
    0.0855   -8.2390    0.0000 C   0  0  0  0  0  0  0  0  0  0  0  0
    1.2990   -7.3573    0.0000 C   0  0  0  0  0  0  0  0  0  0  0  0
    1.2990   -5.8573    0.0000 C   0  0  0  0  0  0  0  0  0  0  0  0
    2.5981   -5.1073    0.0000 O   0  0  0  0  0  0  0  0  0  0  0  0
   -0.0000   -5.1073    0.0000 N   0  0  0  0  0  0  0  0  0  0  0  0
   -0.0000   -3.6073    0.0000 C   0  0  0  0  0  0  0  0  0  0  0  0
    1.2135   -2.7256    0.0000 N   0  0  0  0  0  0  0  0  0  0  0  0
    0.7500   -1.2990    0.0000 C   0  0  0  0  0  0  0  0  0  0  0  0
    1.5000    0.0000    0.0000 C   0  0  0  0  0  0  0  0  0  0  0  0
    0.7500    1.2990    0.0000 C   0  0  0  0  0  0  0  0  0  0  0  0
    1.5000    2.5981    0.0000 C   0  0  0  0  0  0  0  0  0  0  0  0
    3.0000    2.5981    0.0000 N   0  0  0  0  0  0  0  0  0  0  0  0
    3.7500    3.8971    0.0000 C   0  0  0  0  0  0  0  0  0  0  0  0
    5.2500    3.8971    0.0000 C   0  0  0  0  0  0  0  0  0  0  0  0
    6.0000    5.1962    0.0000 C   0  0  0  0  0  0  0  0  0  0  0  0
    5.2500    6.4952    0.0000 C   0  0  0  0  0  0  0  0  0  0  0  0
    3.7500    6.4952    0.0000 C   0  0  0  0  0  0  0  0  0  0  0  0
    3.0000    5.1962    0.0000 C   0  0  0  0  0  0  0  0  0  0  0  0
   -0.7500    1.2990    0.0000 C   0  0  0  0  0  0  0  0  0  0  0  0
   -1.5000    0.0000    0.0000 C   0  0  0  0  0  0  0  0  0  0  0  0
   -0.7500   -1.2990    0.0000 C   0  0  0  0  0  0  0  0  0  0  0  0
   -1.2135   -2.7256    0.0000 N   0  0  0  0  0  0  0  0  0  0  0  0
   -2.6401   -3.1891    0.0000 C   0  0  0  0  0  0  0  0  0  0  0  0
   -3.7548   -2.1855    0.0000 C   0  0  0  0  0  0  0  0  0  0  0  0
   -2.7511   -1.0707    0.0000 C   0  0  0  0  0  0  0  0  0  0  0  0
   -4.7585   -3.3002    0.0000 C   0  0  0  0  0  0  0  0  0  0  0  0
   -4.8695   -1.1818    0.0000 O   0  0  0  0  0  0  0  0  0  0  0  0
    2.5126   -8.2390    0.0000 S   0  0  0  0  0  0  0  0  0  0  0  0
    2.4672  -12.3057    0.0000 O   0  0  0  0  0  0  0  0  0  0  0  0
  1  2  1  0
  2  3  2  0
  3  4  1  0
  4  5  2  0
  5  6  1  0
  6  7  2  0
  7  8  1  0
  8  9  2  0
  9 10  1  0
 10 11  2  0
 10 12  1  0
 12 13  2  0
 13 14  1  0
 14 15  1  0
 15 16  2  0
 16 17  1  0
 17 18  1  0
 18 19  1  0
 19 20  1  0
 20 21  1  0
 21 22  1  0
 22 23  1  0
 23 24  1  0
 24 25  1  0
 17 26  2  0
 26 27  1  0
 27 28  2  0
 28 29  1  0
 29 30  1  0
 30 31  1  0
 31 32  1  0
 31 33  1  0
 31 34  1  0
  9 35  1  0
  5 36  1  0
 36  2  1  0
 35  6  1  0
 29 13  1  0
 28 15  1  0
 25 20  1  0
M  END
>  <Compound_ID>  (8) 
CHEMBL493107

>  <Molecule Name>  (8) 
nan

>  <Molecular Weight>  (8) 
507.66

>  <AlogP>  (8) 
4.93

>  <Smiles>  (8) 
Cc1ncc(-c2ccc(C(=O)/N=c3\[nH]c4cc(CNC5CCCCC5)ccc4n3CC(C)(C)O)s2)o1

>  <Standard Type>  (8) 
IC50

>  <Standard Relation>  (8) 
'='

>  <Standard Units>  (8) 
nM

>  <Standard Value>  (8) 
8.0

>  <Assay ChEMBL ID>  (8) 
CHEMBL1018826

>  <Assay Description>  (8) 
Binding affinity to ITK by DELFIA-based molecular assay

>  <BAO Format ID>  (8) 
BAO_0000357

>  <BAO Label>  (8) 
single protein format

>  <Assay Organism>  (8) 
None

>  <Target ChEMBL ID>  (8) 
CHEMBL2959

>  <Target Name>  (8) 
Tyrosine-protein kinase ITK/TSK

>  <Target Organism>  (8) 
Homo sapiens

>  <Target Type>  (8) 
SINGLE PROTEIN

>  <Document ChEMBL ID>  (8) 
CHEMBL1153328

>  <Source Description>  (8) 
Scientific Literature

>  <Document Journal>  (8) 
Bioorg Med Chem Lett

>  <Document Year>  (8) 
2009.0

>  <Active>  (8) 
1.0

$$$$

     RDKit          2D

 30 33  0  0  0  0  0  0  0  0999 V2000
    5.2500   -1.2990    0.0000 C   0  0  0  0  0  0  0  0  0  0  0  0
    3.7500   -1.2990    0.0000 N   0  0  0  0  0  0  0  0  0  0  0  0
    3.0000    0.0000    0.0000 C   0  0  0  0  0  0  0  0  0  0  0  0
    1.5000    0.0000    0.0000 C   0  0  0  0  0  0  0  0  0  0  0  0
    0.7500   -1.2990    0.0000 C   0  0  0  0  0  0  0  0  0  0  0  0
   -0.7500   -1.2990    0.0000 C   0  0  0  0  0  0  0  0  0  0  0  0
   -1.5000    0.0000    0.0000 C   0  0  0  0  0  0  0  0  0  0  0  0
   -0.7500    1.2990    0.0000 C   0  0  0  0  0  0  0  0  0  0  0  0
    0.7500    1.2990    0.0000 C   0  0  0  0  0  0  0  0  0  0  0  0
   -1.7537    2.4138    0.0000 N   0  0  0  0  0  0  0  0  0  0  0  0
   -3.1240    1.8037    0.0000 C   0  0  0  0  0  0  0  0  0  0  0  0
   -4.4231    2.5537    0.0000 N   0  0  0  0  0  0  0  0  0  0  0  0
   -4.4231    4.0537    0.0000 C   0  0  0  0  0  0  0  0  0  0  0  0
   -3.1240    4.8037    0.0000 O   0  0  0  0  0  0  0  0  0  0  0  0
   -5.7221    4.8037    0.0000 C   0  0  0  0  0  0  0  0  0  0  0  0
   -7.0924    4.1935    0.0000 C   0  0  0  0  0  0  0  0  0  0  0  0
   -8.0961    5.3083    0.0000 C   0  0  0  0  0  0  0  0  0  0  0  0
   -7.3461    6.6073    0.0000 C   0  0  0  0  0  0  0  0  0  0  0  0
   -7.9562    7.9776    0.0000 C   0  0  0  0  0  0  0  0  0  0  0  0
   -9.4234    8.2895    0.0000 C   0  0  0  0  0  0  0  0  0  0  0  0
   -9.5802    9.7813    0.0000 N   0  0  0  0  0  0  0  0  0  0  0  0
   -8.2099   10.3914    0.0000 N   0  0  0  0  0  0  0  0  0  0  0  0
   -7.2062    9.2767    0.0000 C   0  0  0  0  0  0  0  0  0  0  0  0
   -5.8789    6.2954    0.0000 S   0  0  0  0  0  0  0  0  0  0  0  0
   -2.9672    0.3119    0.0000 N   0  0  0  0  0  0  0  0  0  0  0  0
   -4.0819   -0.6918    0.0000 C   0  0  0  0  0  0  0  0  0  0  0  0
   -5.5085   -0.2283    0.0000 C   0  0  0  0  0  0  0  0  0  0  0  0
   -5.0450    1.1983    0.0000 C   0  0  0  0  0  0  0  0  0  0  0  0
   -5.9720   -1.6549    0.0000 C   0  0  0  0  0  0  0  0  0  0  0  0
   -6.9351    0.2352    0.0000 O   0  0  0  0  0  0  0  0  0  0  0  0
  1  2  1  0
  2  3  1  0
  3  4  1  0
  4  5  2  0
  5  6  1  0
  6  7  2  0
  7  8  1  0
  8  9  2  0
  8 10  1  0
 10 11  1  0
 11 12  2  0
 12 13  1  0
 13 14  2  0
 13 15  1  0
 15 16  2  0
 16 17  1  0
 17 18  2  0
 18 19  1  0
 19 20  1  0
 20 21  2  0
 21 22  1  0
 22 23  1  0
 18 24  1  0
 11 25  1  0
 25 26  1  0
 26 27  1  0
 27 28  1  0
 27 29  1  0
 27 30  1  0
  9  4  1  0
 24 15  1  0
 25  7  1  0
 23 19  2  0
M  END
>  <Compound_ID>  (9) 
CHEMBL494135

>  <Molecule Name>  (9) 
nan

>  <Molecular Weight>  (9) 
424.53

>  <AlogP>  (9) 
2.65

>  <Smiles>  (9) 
CNCc1ccc2c(c1)[nH]/c(=N\C(=O)c1ccc(-c3cn[nH]c3)s1)n2CC(C)(C)O

>  <Standard Type>  (9) 
IC50

>  <Standard Relation>  (9) 
'='

>  <Standard Units>  (9) 
nM

>  <Standard Value>  (9) 
2.0

>  <Assay ChEMBL ID>  (9) 
CHEMBL1018826

>  <Assay Description>  (9) 
Binding affinity to ITK by DELFIA-based molecular assay

>  <BAO Format ID>  (9) 
BAO_0000357

>  <BAO Label>  (9) 
single protein format

>  <Assay Organism>  (9) 
None

>  <Target ChEMBL ID>  (9) 
CHEMBL2959

>  <Target Name>  (9) 
Tyrosine-protein kinase ITK/TSK

>  <Target Organism>  (9) 
Homo sapiens

>  <Target Type>  (9) 
SINGLE PROTEIN

>  <Document ChEMBL ID>  (9) 
CHEMBL1153328

>  <Source Description>  (9) 
Scientific Literature

>  <Document Journal>  (9) 
Bioorg Med Chem Lett

>  <Document Year>  (9) 
2009.0

>  <Active>  (9) 
1.0

$$$$

     RDKit          2D

 29 33  0  0  0  0  0  0  0  0999 V2000
    4.6471  -13.1563    0.0000 C   0  0  0  0  0  0  0  0  0  0  0  0
    4.6471  -11.6563    0.0000 O   0  0  0  0  0  0  0  0  0  0  0  0
    3.3481  -10.9063    0.0000 C   0  0  0  0  0  0  0  0  0  0  0  0
    2.0490  -11.6563    0.0000 C   0  0  0  0  0  0  0  0  0  0  0  0
    0.7500  -10.9063    0.0000 C   0  0  0  0  0  0  0  0  0  0  0  0
    0.7500   -9.4063    0.0000 C   0  0  0  0  0  0  0  0  0  0  0  0
   -0.5490   -8.6563    0.0000 C   0  0  0  0  0  0  0  0  0  0  0  0
   -2.0490   -8.6563    0.0000 C   0  0  0  0  0  0  0  0  0  0  0  0
   -1.2990   -7.3573    0.0000 C   0  0  0  0  0  0  0  0  0  0  0  0
   -1.2990   -5.8573    0.0000 C   0  0  0  0  0  0  0  0  0  0  0  0
   -2.5981   -5.1073    0.0000 O   0  0  0  0  0  0  0  0  0  0  0  0
   -0.0000   -5.1073    0.0000 N   0  0  0  0  0  0  0  0  0  0  0  0
   -0.0000   -3.6073    0.0000 C   0  0  0  0  0  0  0  0  0  0  0  0
    1.2135   -2.7256    0.0000 N   0  0  0  0  0  0  0  0  0  0  0  0
    0.7500   -1.2990    0.0000 C   0  0  0  0  0  0  0  0  0  0  0  0
    1.5000    0.0000    0.0000 C   0  0  0  0  0  0  0  0  0  0  0  0
    0.7500    1.2990    0.0000 C   0  0  0  0  0  0  0  0  0  0  0  0
   -0.7500    1.2990    0.0000 C   0  0  0  0  0  0  0  0  0  0  0  0
   -1.5000    2.5981    0.0000 C   0  0  0  0  0  0  0  0  0  0  0  0
   -2.9918    2.7549    0.0000 C   0  0  0  0  0  0  0  0  0  0  0  0
   -3.3037    4.2221    0.0000 N   0  0  0  0  0  0  0  0  0  0  0  0
   -2.0046    4.9721    0.0000 N   0  0  0  0  0  0  0  0  0  0  0  0
   -0.8899    3.9684    0.0000 C   0  0  0  0  0  0  0  0  0  0  0  0
    0.5773    4.2803    0.0000 C   0  0  0  0  0  0  0  0  0  0  0  0
   -1.5000    0.0000    0.0000 C   0  0  0  0  0  0  0  0  0  0  0  0
   -0.7500   -1.2990    0.0000 C   0  0  0  0  0  0  0  0  0  0  0  0
   -1.2135   -2.7256    0.0000 S   0  0  0  0  0  0  0  0  0  0  0  0
    2.0490   -8.6563    0.0000 C   0  0  0  0  0  0  0  0  0  0  0  0
    3.3481   -9.4063    0.0000 C   0  0  0  0  0  0  0  0  0  0  0  0
  1  2  1  0
  2  3  1  0
  3  4  2  0
  4  5  1  0
  5  6  2  0
  7  6  1  1
  7  8  1  0
  8  9  1  0
  9 10  1  6
 10 11  2  0
 10 12  1  0
 12 13  1  0
 13 14  2  0
 14 15  1  0
 15 16  2  0
 16 17  1  0
 17 18  2  0
 18 19  1  0
 19 20  1  0
 20 21  2  0
 21 22  1  0
 22 23  1  0
 23 24  1  0
 18 25  1  0
 25 26  2  0
 26 27  1  0
  6 28  1  0
 28 29  2  0
 29  3  1  0
  9  7  1  0
 27 13  1  0
 26 15  1  0
 23 19  2  0
M  END
>  <Compound_ID>  (10) 
CHEMBL3086331

>  <Molecule Name>  (10) 
nan

>  <Molecular Weight>  (10) 
404.5

>  <AlogP>  (10) 
4.75

>  <Smiles>  (10) 
COc1ccc([C@H]2C[C@@H]2C(=O)Nc2nc3ccc(-c4cn[nH]c4C)cc3s2)cc1

>  <Standard Type>  (10) 
Ki

>  <Standard Relation>  (10) 
'='

>  <Standard Units>  (10) 
nM

>  <Standard Value>  (10) 
30.0

>  <Assay ChEMBL ID>  (10) 
CHEMBL3088400

>  <Assay Description>  (10) 
Inhibition of full length GST-tagged ITK (unknown origin) using Ac-EFPIYDFLPAKKK-NH2 as substrate after 35 mins by LC/MS analysis

>  <BAO Format ID>  (10) 
BAO_0000357

>  <BAO Label>  (10) 
single protein format

>  <Assay Organism>  (10) 
Homo sapiens

>  <Target ChEMBL ID>  (10) 
CHEMBL2959

>  <Target Name>  (10) 
Tyrosine-protein kinase ITK/TSK

>  <Target Organism>  (10) 
Homo sapiens

>  <Target Type>  (10) 
SINGLE PROTEIN

>  <Document ChEMBL ID>  (10) 
CHEMBL3085719

>  <Source Description>  (10) 
Scientific Literature

>  <Document Journal>  (10) 
Bioorg Med Chem Lett

>  <Document Year>  (10) 
2013.0

>  <Active>  (10) 
1.0

$$$$

     RDKit          2D

 30 33  0  0  0  0  0  0  0  0999 V2000
    3.7500   -1.2990    0.0000 C   0  0  0  0  0  0  0  0  0  0  0  0
    3.0000    0.0000    0.0000 N   0  0  0  0  0  0  0  0  0  0  0  0
    1.5000    0.0000    0.0000 C   0  0  0  0  0  0  0  0  0  0  0  0
    0.7500   -1.2990    0.0000 C   0  0  0  0  0  0  0  0  0  0  0  0
   -0.7500   -1.2990    0.0000 N   0  0  0  0  0  0  0  0  0  0  0  0
   -1.5000    0.0000    0.0000 C   0  0  0  0  0  0  0  0  0  0  0  0
   -0.7500    1.2990    0.0000 C   0  0  0  0  0  0  0  0  0  0  0  0
   -1.5000    2.5981    0.0000 C   0  0  0  0  0  0  0  0  0  0  0  0
   -0.7500    3.8971    0.0000 C   0  0  0  0  0  0  0  0  0  0  0  0
   -1.5000    5.1962    0.0000 N   0  0  0  0  0  0  0  0  0  0  0  0
   -3.0000    5.1962    0.0000 C   0  0  0  0  0  0  0  0  0  0  0  0
   -3.7500    6.4952    0.0000 O   0  0  0  0  0  0  0  0  0  0  0  0
   -3.7500    3.8971    0.0000 C   0  0  0  0  0  0  0  0  0  0  0  0
   -5.2500    3.8971    0.0000 N   0  0  0  0  0  0  0  0  0  0  0  0
   -6.0000    2.5981    0.0000 C   0  0  0  0  0  0  0  0  0  0  0  0
   -5.2500    1.2990    0.0000 O   0  0  0  0  0  0  0  0  0  0  0  0
   -7.5000    2.5981    0.0000 C   0  0  0  0  0  0  0  0  0  0  0  0
   -8.2500    3.8971    0.0000 C   0  0  0  0  0  0  0  0  0  0  0  0
   -9.7500    3.8971    0.0000 C   0  0  0  0  0  0  0  0  0  0  0  0
  -10.5000    2.5981    0.0000 C   0  0  0  0  0  0  0  0  0  0  0  0
  -12.0000    2.5981    0.0000 N   0  0  0  0  0  0  0  0  0  0  0  0
  -12.7500    3.8971    0.0000 C   0  0  0  0  0  0  0  0  0  0  0  0
  -14.2500    3.8971    0.0000 C   0  0  0  0  0  0  0  0  0  0  0  0
  -15.0000    2.5981    0.0000 C   0  0  0  0  0  0  0  0  0  0  0  0
  -14.2500    1.2990    0.0000 C   0  0  0  0  0  0  0  0  0  0  0  0
  -12.7500    1.2990    0.0000 C   0  0  0  0  0  0  0  0  0  0  0  0
   -9.7500    1.2990    0.0000 C   0  0  0  0  0  0  0  0  0  0  0  0
   -8.2500    1.2990    0.0000 C   0  0  0  0  0  0  0  0  0  0  0  0
   -3.0000    2.5981    0.0000 C   0  0  0  0  0  0  0  0  0  0  0  0
    0.7500    1.2990    0.0000 N   0  0  0  0  0  0  0  0  0  0  0  0
  1  2  1  0
  2  3  1  0
  3  4  2  0
  4  5  1  0
  5  6  2  0
  6  7  1  0
  7  8  1  0
  8  9  2  0
  9 10  1  0
 10 11  1  0
 11 12  2  0
 11 13  1  0
 13 14  1  0
 14 15  1  0
 15 16  2  0
 15 17  1  0
 17 18  2  0
 18 19  1  0
 19 20  2  0
 20 21  1  0
 21 22  1  0
 22 23  1  0
 23 24  1  0
 24 25  1  0
 25 26  1  0
 20 27  1  0
 27 28  2  0
 13 29  2  0
  7 30  2  0
 30  3  1  0
 29  8  1  0
 28 17  1  0
 26 21  1  0
M  END
>  <Compound_ID>  (11) 
CHEMBL1765779

>  <Molecule Name>  (11) 
nan

>  <Molecular Weight>  (11) 
404.47

>  <AlogP>  (11) 
3.12

>  <Smiles>  (11) 
CNc1cncc(-c2c[nH]c(=O)c(NC(=O)c3ccc(N4CCCCC4)cc3)c2)n1

>  <Standard Type>  (11) 
Ki

>  <Standard Relation>  (11) 
'='

>  <Standard Units>  (11) 
nM

>  <Standard Value>  (11) 
11.0

>  <Assay ChEMBL ID>  (11) 
CHEMBL1768448

>  <Assay Description>  (11) 
Inhibition of Itk after 40 mins by radiometric phosphate incorporation assay

>  <BAO Format ID>  (11) 
BAO_0000357

>  <BAO Label>  (11) 
single protein format

>  <Assay Organism>  (11) 
None

>  <Target ChEMBL ID>  (11) 
CHEMBL2959

>  <Target Name>  (11) 
Tyrosine-protein kinase ITK/TSK

>  <Target Organism>  (11) 
Homo sapiens

>  <Target Type>  (11) 
SINGLE PROTEIN

>  <Document ChEMBL ID>  (11) 
CHEMBL1765075

>  <Source Description>  (11) 
Scientific Literature

>  <Document Journal>  (11) 
J Med Chem

>  <Document Year>  (11) 
2011.0

>  <Active>  (11) 
1.0

$$$$

     RDKit          2D

 30 33  0  0  0  0  0  0  0  0999 V2000
   -7.7227   -2.1088    0.0000 C   0  0  0  0  0  0  0  0  0  0  0  0
   -6.2961   -1.6453    0.0000 O   0  0  0  0  0  0  0  0  0  0  0  0
   -5.1814   -2.6490    0.0000 C   0  0  0  0  0  0  0  0  0  0  0  0
   -3.7548   -2.1855    0.0000 C   0  0  0  0  0  0  0  0  0  0  0  0
   -2.6401   -3.1891    0.0000 C   0  0  0  0  0  0  0  0  0  0  0  0
   -1.2135   -2.7256    0.0000 N   0  0  0  0  0  0  0  0  0  0  0  0
   -0.0000   -3.6073    0.0000 C   0  0  0  0  0  0  0  0  0  0  0  0
   -0.0000   -5.1073    0.0000 N   0  0  0  0  0  0  0  0  0  0  0  0
   -1.2990   -5.8573    0.0000 C   0  0  0  0  0  0  0  0  0  0  0  0
   -2.5981   -5.1073    0.0000 O   0  0  0  0  0  0  0  0  0  0  0  0
   -1.2990   -7.3573    0.0000 C   0  0  0  0  0  0  0  0  0  0  0  0
   -0.0855   -8.2390    0.0000 C   0  0  0  0  0  0  0  0  0  0  0  0
   -0.5490   -9.6656    0.0000 C   0  0  0  0  0  0  0  0  0  0  0  0
   -2.0490   -9.6656    0.0000 N   0  0  0  0  0  0  0  0  0  0  0  0
   -2.5126   -8.2390    0.0000 O   0  0  0  0  0  0  0  0  0  0  0  0
    1.2135   -2.7256    0.0000 N   0  0  0  0  0  0  0  0  0  0  0  0
    0.7500   -1.2990    0.0000 C   0  0  0  0  0  0  0  0  0  0  0  0
    1.5000    0.0000    0.0000 C   0  0  0  0  0  0  0  0  0  0  0  0
    0.7500    1.2990    0.0000 C   0  0  0  0  0  0  0  0  0  0  0  0
    1.5000    2.5981    0.0000 C   0  0  0  0  0  0  0  0  0  0  0  0
    3.0000    2.5981    0.0000 N   0  0  0  0  0  0  0  0  0  0  0  0
    3.7500    3.8971    0.0000 C   0  0  0  0  0  0  0  0  0  0  0  0
    5.2500    3.8971    0.0000 C   0  0  0  0  0  0  0  0  0  0  0  0
    6.0000    5.1962    0.0000 C   0  0  0  0  0  0  0  0  0  0  0  0
    5.2500    6.4952    0.0000 C   0  0  0  0  0  0  0  0  0  0  0  0
    3.7500    6.4952    0.0000 C   0  0  0  0  0  0  0  0  0  0  0  0
    3.0000    5.1962    0.0000 C   0  0  0  0  0  0  0  0  0  0  0  0
   -0.7500    1.2990    0.0000 C   0  0  0  0  0  0  0  0  0  0  0  0
   -1.5000    0.0000    0.0000 C   0  0  0  0  0  0  0  0  0  0  0  0
   -0.7500   -1.2990    0.0000 C   0  0  0  0  0  0  0  0  0  0  0  0
  1  2  1  0
  2  3  1  0
  3  4  1  0
  4  5  1  0
  5  6  1  0
  6  7  1  0
  7  8  1  0
  8  9  1  0
  9 10  2  0
  9 11  1  0
 11 12  2  0
 12 13  1  0
 13 14  2  0
 14 15  1  0
  7 16  2  0
 16 17  1  0
 17 18  2  0
 18 19  1  0
 19 20  1  0
 20 21  1  0
 21 22  1  0
 22 23  2  0
 23 24  1  0
 24 25  2  0
 25 26  1  0
 26 27  2  0
 19 28  2  0
 28 29  1  0
 29 30  2  0
 30  6  1  0
 15 11  1  0
 30 17  1  0
 27 22  1  0
M  END
>  <Compound_ID>  (12) 
CHEMBL528989

>  <Molecule Name>  (12) 
nan

>  <Molecular Weight>  (12) 
405.46

>  <AlogP>  (12) 
3.93

>  <Smiles>  (12) 
COCCCn1c(NC(=O)c2ccno2)nc2cc(CNc3ccccc3)ccc21

>  <Standard Type>  (12) 
IC50

>  <Standard Relation>  (12) 
'='

>  <Standard Units>  (12) 
nM

>  <Standard Value>  (12) 
3.0

>  <Assay ChEMBL ID>  (12) 
CHEMBL1006237

>  <Assay Description>  (12) 
Inhibition of ITK by DELPHIA assay

>  <BAO Format ID>  (12) 
BAO_0000357

>  <BAO Label>  (12) 
single protein format

>  <Assay Organism>  (12) 
None

>  <Target ChEMBL ID>  (12) 
CHEMBL2959

>  <Target Name>  (12) 
Tyrosine-protein kinase ITK/TSK

>  <Target Organism>  (12) 
Homo sapiens

>  <Target Type>  (12) 
SINGLE PROTEIN

>  <Document ChEMBL ID>  (12) 
CHEMBL1152240

>  <Source Description>  (12) 
Scientific Literature

>  <Document Journal>  (12) 
Bioorg Med Chem Lett

>  <Document Year>  (12) 
2008.0

>  <Active>  (12) 
1.0

$$$$

     RDKit          2D

 36 41  0  0  0  0  0  0  0  0999 V2000
  -10.2497   -1.4504    0.0000 C   0  0  0  0  0  0  0  0  0  0  0  0
   -8.8231   -1.9139    0.0000 C   0  0  0  0  0  0  0  0  0  0  0  0
   -8.5112   -3.3811    0.0000 C   0  0  0  0  0  0  0  0  0  0  0  0
   -9.6260   -4.3848    0.0000 O   0  0  0  0  0  0  0  0  0  0  0  0
   -7.0847   -3.8447    0.0000 N   0  0  0  0  0  0  0  0  0  0  0  0
   -6.6211   -5.2713    0.0000 C   0  0  0  0  0  0  0  0  0  0  0  0
   -5.1211   -5.2713    0.0000 C   0  0  0  0  0  0  0  0  0  0  0  0
   -4.6576   -3.8447    0.0000 C   0  0  0  0  0  0  0  0  0  0  0  0
   -5.8711   -2.9630    0.0000 C   0  0  0  0  0  0  0  0  0  0  0  0
   -3.3211   -4.5257    0.0000 C   0  0  0  0  0  0  0  0  0  0  0  0
   -2.6401   -3.1891    0.0000 C   0  0  0  0  0  0  0  0  0  0  0  0
   -1.2135   -2.7256    0.0000 N   0  0  0  0  0  0  0  0  0  0  0  0
   -0.0000   -3.6073    0.0000 C   0  0  0  0  0  0  0  0  0  0  0  0
   -0.0000   -5.1073    0.0000 N   0  0  0  0  0  0  0  0  0  0  0  0
   -1.2990   -5.8573    0.0000 C   0  0  0  0  0  0  0  0  0  0  0  0
   -2.5981   -5.1073    0.0000 O   0  0  0  0  0  0  0  0  0  0  0  0
   -1.2990   -7.3573    0.0000 C   0  0  0  0  0  0  0  0  0  0  0  0
   -0.0855   -8.2390    0.0000 C   0  0  0  0  0  0  0  0  0  0  0  0
   -0.5490   -9.6656    0.0000 C   0  0  0  0  0  0  0  0  0  0  0  0
   -2.0490   -9.6656    0.0000 C   0  0  0  0  0  0  0  0  0  0  0  0
   -2.9307  -10.8791    0.0000 C   0  0  0  0  0  0  0  0  0  0  0  0
   -2.4672  -12.3057    0.0000 C   0  0  0  0  0  0  0  0  0  0  0  0
   -3.6807  -13.1874    0.0000 N   0  0  0  0  0  0  0  0  0  0  0  0
   -4.8942  -12.3057    0.0000 C   0  0  0  0  0  0  0  0  0  0  0  0
   -4.4307  -10.8791    0.0000 O   0  0  0  0  0  0  0  0  0  0  0  0
   -2.5126   -8.2390    0.0000 S   0  0  0  0  0  0  0  0  0  0  0  0
    1.2135   -2.7256    0.0000 N   0  0  0  0  0  0  0  0  0  0  0  0
    0.7500   -1.2990    0.0000 C   0  0  0  0  0  0  0  0  0  0  0  0
    1.5000    0.0000    0.0000 C   0  0  0  0  0  0  0  0  0  0  0  0
    0.7500    1.2990    0.0000 C   0  0  0  0  0  0  0  0  0  0  0  0
    1.5000    2.5981    0.0000 N   0  0  0  0  0  0  0  0  0  0  0  0
    3.0000    2.5981    0.0000 C   0  0  0  0  0  0  0  0  0  0  0  0
   -0.7500    1.2990    0.0000 C   0  0  0  0  0  0  0  0  0  0  0  0
   -1.5000    0.0000    0.0000 C   0  0  0  0  0  0  0  0  0  0  0  0
   -0.7500   -1.2990    0.0000 C   0  0  0  0  0  0  0  0  0  0  0  0
   -3.9766   -2.5082    0.0000 C   0  0  0  0  0  0  0  0  0  0  0  0
  1  2  2  0
  2  3  1  0
  3  4  2  0
  3  5  1  0
  5  6  1  0
  6  7  1  0
  8  7  1  1
  8  9  1  0
  8 10  1  0
 10 11  1  0
 11 12  1  1
 12 13  1  0
 13 14  1  0
 14 15  1  0
 15 16  2  0
 15 17  1  0
 17 18  2  0
 18 19  1  0
 19 20  2  0
 20 21  1  0
 21 22  2  0
 22 23  1  0
 23 24  2  0
 24 25  1  0
 20 26  1  0
 13 27  2  0
 27 28  1  0
 28 29  2  0
 29 30  1  0
 30 31  1  0
 31 32  1  0
 30 33  2  0
 33 34  1  0
 34 35  2  0
 11 36  1  0
  9  5  1  0
 35 12  1  0
 36  8  1  0
 26 17  1  0
 35 28  1  0
 25 21  1  0
M  END
>  <Compound_ID>  (13) 
CHEMBL4216187

>  <Molecule Name>  (13) 
nan

>  <Molecular Weight>  (13) 
502.6

>  <AlogP>  (13) 
4.79

>  <Smiles>  (13) 
C=CC(=O)N1CC[C@]2(C1)C[C@H](n1c(NC(=O)c3ccc(-c4cnco4)s3)nc3cc(NC)ccc31)C2

>  <Standard Type>  (13) 
IC50

>  <Standard Relation>  (13) 
'='

>  <Standard Units>  (13) 
nM

>  <Standard Value>  (13) 
0.72

>  <Assay ChEMBL ID>  (13) 
CHEMBL4199503

>  <Assay Description>  (13) 
Inhibition of ITK (unknown origin) using fluorescently labeled peptide as substrate after 3 hrs by microfluidic mobility shift assay

>  <BAO Format ID>  (13) 
BAO_0000357

>  <BAO Label>  (13) 
single protein format

>  <Assay Organism>  (13) 
Homo sapiens

>  <Target ChEMBL ID>  (13) 
CHEMBL2959

>  <Target Name>  (13) 
Tyrosine-protein kinase ITK/TSK

>  <Target Organism>  (13) 
Homo sapiens

>  <Target Type>  (13) 
SINGLE PROTEIN

>  <Document ChEMBL ID>  (13) 
CHEMBL4196110

>  <Source Description>  (13) 
Scientific Literature

>  <Document Journal>  (13) 
ACS Med Chem Lett

>  <Document Year>  (13) 
2018.0

>  <Active>  (13) 
1.0

$$$$

     RDKit          2D

 31 35  0  0  0  0  0  0  0  0999 V2000
  -13.1357   -0.3314    0.0000 N   0  0  0  0  0  0  0  0  0  0  0  0
  -11.7091   -0.7949    0.0000 C   0  0  0  0  0  0  0  0  0  0  0  0
  -10.2825   -1.2584    0.0000 C   0  0  0  0  0  0  0  0  0  0  0  0
   -9.1678   -0.2547    0.0000 C   0  0  0  0  0  0  0  0  0  0  0  0
   -7.7412   -0.7182    0.0000 C   0  0  0  0  0  0  0  0  0  0  0  0
   -7.4293   -2.1855    0.0000 C   0  0  0  0  0  0  0  0  0  0  0  0
   -8.5441   -3.1891    0.0000 C   0  0  0  0  0  0  0  0  0  0  0  0
   -8.2322   -4.6564    0.0000 C   0  0  0  0  0  0  0  0  0  0  0  0
   -6.8056   -5.1199    0.0000 N   0  0  0  0  0  0  0  0  0  0  0  0
   -5.5921   -4.2382    0.0000 C   0  0  0  0  0  0  0  0  0  0  0  0
   -4.3786   -5.1199    0.0000 C   0  0  0  0  0  0  0  0  0  0  0  0
   -2.9520   -4.6564    0.0000 N   0  0  0  0  0  0  0  0  0  0  0  0
   -2.6401   -3.1891    0.0000 C   0  0  0  0  0  0  0  0  0  0  0  0
   -3.7548   -2.1855    0.0000 O   0  0  0  0  0  0  0  0  0  0  0  0
   -1.2135   -2.7256    0.0000 C   0  0  0  0  0  0  0  0  0  0  0  0
   -0.0000   -3.6073    0.0000 N   0  0  0  0  0  0  0  0  0  0  0  0
    1.2135   -2.7256    0.0000 N   0  0  0  0  0  0  0  0  0  0  0  0
    0.7500   -1.2990    0.0000 C   0  0  0  0  0  0  0  0  0  0  0  0
    1.5000    0.0000    0.0000 C   0  0  0  0  0  0  0  0  0  0  0  0
    0.7500    1.2990    0.0000 C   0  0  0  0  0  0  0  0  0  0  0  0
    1.5000    2.5981    0.0000 C   0  0  0  0  0  0  0  0  0  0  0  0
    0.8899    3.9684    0.0000 C   0  0  0  0  0  0  0  0  0  0  0  0
    2.0046    4.9721    0.0000 C   0  0  0  0  0  0  0  0  0  0  0  0
    3.3037    4.2221    0.0000 N   0  0  0  0  0  0  0  0  0  0  0  0
    2.9918    2.7549    0.0000 N   0  0  0  0  0  0  0  0  0  0  0  0
   -0.7500    1.2990    0.0000 C   0  0  0  0  0  0  0  0  0  0  0  0
   -1.5000    0.0000    0.0000 C   0  0  0  0  0  0  0  0  0  0  0  0
   -0.7500   -1.2990    0.0000 C   0  0  0  0  0  0  0  0  0  0  0  0
   -4.8421   -6.5465    0.0000 C   0  0  0  0  0  0  0  0  0  0  0  0
   -6.3421   -6.5465    0.0000 N   0  0  0  0  0  0  0  0  0  0  0  0
   -9.9707   -2.7256    0.0000 C   0  0  0  0  0  0  0  0  0  0  0  0
  1  2  3  0
  2  3  1  0
  3  4  2  0
  4  5  1  0
  5  6  2  0
  6  7  1  0
  7  8  1  0
  8  9  1  0
  9 10  1  0
 10 11  2  0
 11 12  1  0
 12 13  1  0
 13 14  2  0
 13 15  1  0
 15 16  2  0
 16 17  1  0
 17 18  1  0
 18 19  2  0
 19 20  1  0
 20 21  1  0
 21 22  1  0
 22 23  2  0
 23 24  1  0
 24 25  1  0
 20 26  2  0
 26 27  1  0
 27 28  2  0
 11 29  1  0
 29 30  2  0
  7 31  2  0
 31  3  1  0
 30  9  1  0
 28 15  1  0
 28 18  1  0
 25 21  2  0
M  END
>  <Compound_ID>  (14) 
CHEMBL3263037

>  <Molecule Name>  (14) 
nan

>  <Molecular Weight>  (14) 
408.43

>  <AlogP>  (14) 
3.32

>  <Smiles>  (14) 
N#Cc1cccc(Cn2cc(NC(=O)c3n[nH]c4cc(-c5cc[nH]n5)ccc34)cn2)c1

>  <Standard Type>  (14) 
Ki

>  <Standard Relation>  (14) 
'='

>  <Standard Units>  (14) 
nM

>  <Standard Value>  (14) 
7.8

>  <Assay ChEMBL ID>  (14) 
CHEMBL3267591

>  <Assay Description>  (14) 
Inhibition of full-length ITK (unknown origin) using biotin-EQEDEPEGIYGVLF-NH2 as substrate by plate reader analysis

>  <BAO Format ID>  (14) 
BAO_0000357

>  <BAO Label>  (14) 
single protein format

>  <Assay Organism>  (14) 
Homo sapiens

>  <Target ChEMBL ID>  (14) 
CHEMBL2959

>  <Target Name>  (14) 
Tyrosine-protein kinase ITK/TSK

>  <Target Organism>  (14) 
Homo sapiens

>  <Target Type>  (14) 
SINGLE PROTEIN

>  <Document ChEMBL ID>  (14) 
CHEMBL3259776

>  <Source Description>  (14) 
Scientific Literature

>  <Document Journal>  (14) 
Bioorg Med Chem Lett

>  <Document Year>  (14) 
2014.0

>  <Active>  (14) 
1.0

$$$$

     RDKit          2D

 35 39  0  0  0  0  0  0  0  0999 V2000
   -1.5000  -15.5885    0.0000 O   0  0  0  0  0  0  0  0  0  0  0  0
   -0.7500  -14.2894    0.0000 C   0  0  0  0  0  0  0  0  0  0  0  0
   -1.5000  -12.9904    0.0000 C   0  0  0  0  0  0  0  0  0  0  0  0
   -0.7500  -11.6913    0.0000 C   0  0  0  0  0  0  0  0  0  0  0  0
    0.7500  -11.6913    0.0000 C   0  0  0  0  0  0  0  0  0  0  0  0
    1.5000  -10.3923    0.0000 N   0  0  0  0  0  0  0  0  0  0  0  0
    0.7500   -9.0933    0.0000 C   0  0  0  0  0  0  0  0  0  0  0  0
    1.5000   -7.7942    0.0000 N   0  0  0  0  0  0  0  0  0  0  0  0
    0.7500   -6.4952    0.0000 C   0  0  0  0  0  0  0  0  0  0  0  0
    1.5000   -5.1962    0.0000 N   0  0  0  0  0  0  0  0  0  0  0  0
    0.7500   -3.8971    0.0000 C   0  0  0  0  0  0  0  0  0  0  0  0
    1.5000   -2.5981    0.0000 C   0  0  0  0  0  0  0  0  0  0  0  0
    0.7500   -1.2990    0.0000 C   0  0  0  0  0  0  0  0  0  0  0  0
    1.5000    0.0000    0.0000 C   0  0  0  0  0  0  0  0  0  0  0  0
    0.7500    1.2990    0.0000 C   0  0  0  0  0  0  0  0  0  0  0  0
   -0.7500    1.2990    0.0000 C   0  0  0  0  0  0  0  0  0  0  0  0
   -1.5000    0.0000    0.0000 C   0  0  0  0  0  0  0  0  0  0  0  0
   -0.7500   -1.2990    0.0000 C   0  0  0  0  0  0  0  0  0  0  0  0
   -1.5000   -2.5981    0.0000 C   0  0  0  0  0  0  0  0  0  0  0  0
   -0.7500   -3.8971    0.0000 N   0  0  0  0  0  0  0  0  0  0  0  0
   -0.7500   -6.4952    0.0000 C   0  0  0  0  0  0  0  0  0  0  0  0
   -1.5000   -7.7942    0.0000 C   0  0  0  0  0  0  0  0  0  0  0  0
   -3.0000   -7.7942    0.0000 C   0  0  0  0  0  0  0  0  0  0  0  0
   -3.0000   -9.2942    0.0000 F   0  0  0  0  0  0  0  0  0  0  0  0
   -3.0000   -6.2942    0.0000 F   0  0  0  0  0  0  0  0  0  0  0  0
   -4.5000   -7.7942    0.0000 C   0  0  0  0  0  0  0  0  0  0  0  0
   -5.2500   -6.4952    0.0000 C   0  0  0  0  0  0  0  0  0  0  0  0
   -6.7500   -6.4952    0.0000 C   0  0  0  0  0  0  0  0  0  0  0  0
   -7.5000   -7.7942    0.0000 C   0  0  0  0  0  0  0  0  0  0  0  0
   -9.0000   -7.7942    0.0000 F   0  0  0  0  0  0  0  0  0  0  0  0
   -6.7500   -9.0933    0.0000 C   0  0  0  0  0  0  0  0  0  0  0  0
   -5.2500   -9.0933    0.0000 C   0  0  0  0  0  0  0  0  0  0  0  0
   -0.7500   -9.0933    0.0000 N   0  0  0  0  0  0  0  0  0  0  0  0
    1.5000  -12.9904    0.0000 C   0  0  0  0  0  0  0  0  0  0  0  0
    0.7500  -14.2894    0.0000 C   0  0  0  0  0  0  0  0  0  0  0  0
  2  1  1  1
  2  3  1  0
  3  4  1  0
  4  5  1  0
  5  6  1  6
  6  7  1  0
  7  8  2  0
  8  9  1  0
  9 10  1  0
 10 11  1  0
 11 12  2  0
 12 13  1  0
 13 14  2  0
 14 15  1  0
 15 16  2  0
 16 17  1  0
 17 18  2  0
 18 19  1  0
 19 20  2  0
  9 21  2  0
 21 22  1  0
 22 23  1  0
 23 24  1  0
 23 25  1  0
 23 26  1  0
 26 27  2  0
 27 28  1  0
 28 29  2  0
 29 30  1  0
 29 31  1  0
 31 32  2  0
 22 33  2  0
  5 34  1  0
 34 35  1  0
 35  2  1  0
 33  7  1  0
 20 11  1  0
 32 26  1  0
 18 13  1  0
M  END
>  <Compound_ID>  (15) 
CHEMBL2441281

>  <Molecule Name>  (15) 
nan

>  <Molecular Weight>  (15) 
479.51

>  <AlogP>  (15) 
5.76

>  <Smiles>  (15) 
O[C@H]1CC[C@H](Nc2nc(Nc3cc4ccccc4cn3)cc(C(F)(F)c3ccc(F)cc3)n2)CC1

>  <Standard Type>  (15) 
Ki

>  <Standard Relation>  (15) 
'='

>  <Standard Units>  (15) 
nM

>  <Standard Value>  (15) 
6.31

>  <Assay ChEMBL ID>  (15) 
CHEMBL2446687

>  <Assay Description>  (15) 
Inhibition of recombinant human FLAG-tagged ITK using biotinylated GST-SAM68 as substrate after 30 mins

>  <BAO Format ID>  (15) 
BAO_0000357

>  <BAO Label>  (15) 
single protein format

>  <Assay Organism>  (15) 
Homo sapiens

>  <Target ChEMBL ID>  (15) 
CHEMBL2959

>  <Target Name>  (15) 
Tyrosine-protein kinase ITK/TSK

>  <Target Organism>  (15) 
Homo sapiens

>  <Target Type>  (15) 
SINGLE PROTEIN

>  <Document ChEMBL ID>  (15) 
CHEMBL2440060

>  <Source Description>  (15) 
Scientific Literature

>  <Document Journal>  (15) 
ACS Med Chem Lett

>  <Document Year>  (15) 
2013.0

>  <Active>  (15) 
1.0

$$$$

     RDKit          2D

 30 34  0  0  0  0  0  0  0  0999 V2000
    4.6471  -13.1563    0.0000 C   0  0  0  0  0  0  0  0  0  0  0  0
    4.6471  -11.6563    0.0000 O   0  0  0  0  0  0  0  0  0  0  0  0
    3.3481  -10.9063    0.0000 C   0  0  0  0  0  0  0  0  0  0  0  0
    2.0490  -11.6563    0.0000 C   0  0  0  0  0  0  0  0  0  0  0  0
    0.7500  -10.9063    0.0000 C   0  0  0  0  0  0  0  0  0  0  0  0
    0.7500   -9.4063    0.0000 C   0  0  0  0  0  0  0  0  0  0  0  0
   -0.5490   -8.6563    0.0000 C   0  0  0  0  0  0  0  0  0  0  0  0
   -2.0490   -8.6563    0.0000 C   0  0  0  0  0  0  0  0  0  0  0  0
   -1.2990   -7.3573    0.0000 C   0  0  0  0  0  0  0  0  0  0  0  0
   -1.2990   -5.8573    0.0000 C   0  0  0  0  0  0  0  0  0  0  0  0
   -2.5981   -5.1073    0.0000 O   0  0  0  0  0  0  0  0  0  0  0  0
   -0.0000   -5.1073    0.0000 N   0  0  0  0  0  0  0  0  0  0  0  0
   -0.0000   -3.6073    0.0000 C   0  0  0  0  0  0  0  0  0  0  0  0
    1.2135   -2.7256    0.0000 N   0  0  0  0  0  0  0  0  0  0  0  0
    0.7500   -1.2990    0.0000 C   0  0  0  0  0  0  0  0  0  0  0  0
    1.5000    0.0000    0.0000 C   0  0  0  0  0  0  0  0  0  0  0  0
    0.7500    1.2990    0.0000 C   0  0  0  0  0  0  0  0  0  0  0  0
   -0.7500    1.2990    0.0000 C   0  0  0  0  0  0  0  0  0  0  0  0
   -1.5000    2.5981    0.0000 C   0  0  0  0  0  0  0  0  0  0  0  0
   -0.7500    3.8971    0.0000 C   0  0  0  0  0  0  0  0  0  0  0  0
   -1.5000    5.1962    0.0000 C   0  0  0  0  0  0  0  0  0  0  0  0
   -3.0000    5.1962    0.0000 N   0  0  0  0  0  0  0  0  0  0  0  0
   -3.7500    3.8971    0.0000 C   0  0  0  0  0  0  0  0  0  0  0  0
   -5.2500    3.8971    0.0000 O   0  0  0  0  0  0  0  0  0  0  0  0
   -3.0000    2.5981    0.0000 C   0  0  0  0  0  0  0  0  0  0  0  0
   -1.5000    0.0000    0.0000 C   0  0  0  0  0  0  0  0  0  0  0  0
   -0.7500   -1.2990    0.0000 C   0  0  0  0  0  0  0  0  0  0  0  0
   -1.2135   -2.7256    0.0000 S   0  0  0  0  0  0  0  0  0  0  0  0
    2.0490   -8.6563    0.0000 C   0  0  0  0  0  0  0  0  0  0  0  0
    3.3481   -9.4063    0.0000 C   0  0  0  0  0  0  0  0  0  0  0  0
  1  2  1  0
  2  3  1  0
  3  4  2  0
  4  5  1  0
  5  6  2  0
  7  6  1  1
  7  8  1  0
  8  9  1  0
  9 10  1  6
 10 11  2  0
 10 12  1  0
 12 13  1  0
 13 14  2  0
 14 15  1  0
 15 16  2  0
 16 17  1  0
 17 18  2  0
 18 19  1  0
 19 20  1  0
 20 21  2  0
 21 22  1  0
 22 23  1  0
 23 24  2  0
 23 25  1  0
 18 26  1  0
 26 27  2  0
 27 28  1  0
  6 29  1  0
 29 30  2  0
 30  3  1  0
  9  7  1  0
 28 13  1  0
 27 15  1  0
 25 19  2  0
M  END
>  <Compound_ID>  (16) 
CHEMBL3086328

>  <Molecule Name>  (16) 
nan

>  <Molecular Weight>  (16) 
417.49

>  <AlogP>  (16) 
4.40

>  <Smiles>  (16) 
COc1ccc([C@H]2C[C@@H]2C(=O)Nc2nc3ccc(-c4cc[nH]c(=O)c4)cc3s2)cc1

>  <Standard Type>  (16) 
Ki

>  <Standard Relation>  (16) 
'='

>  <Standard Units>  (16) 
nM

>  <Standard Value>  (16) 
6.6

>  <Assay ChEMBL ID>  (16) 
CHEMBL3088400

>  <Assay Description>  (16) 
Inhibition of full length GST-tagged ITK (unknown origin) using Ac-EFPIYDFLPAKKK-NH2 as substrate after 35 mins by LC/MS analysis

>  <BAO Format ID>  (16) 
BAO_0000357

>  <BAO Label>  (16) 
single protein format

>  <Assay Organism>  (16) 
Homo sapiens

>  <Target ChEMBL ID>  (16) 
CHEMBL2959

>  <Target Name>  (16) 
Tyrosine-protein kinase ITK/TSK

>  <Target Organism>  (16) 
Homo sapiens

>  <Target Type>  (16) 
SINGLE PROTEIN

>  <Document ChEMBL ID>  (16) 
CHEMBL3085719

>  <Source Description>  (16) 
Scientific Literature

>  <Document Journal>  (16) 
Bioorg Med Chem Lett

>  <Document Year>  (16) 
2013.0

>  <Active>  (16) 
1.0

$$$$

     RDKit          2D

 40 44  0  0  0  0  0  0  0  0999 V2000
  -10.2497   -1.4504    0.0000 C   0  0  0  0  0  0  0  0  0  0  0  0
   -8.8231   -1.9139    0.0000 C   0  0  0  0  0  0  0  0  0  0  0  0
   -8.5112   -3.3811    0.0000 C   0  0  0  0  0  0  0  0  0  0  0  0
   -9.6260   -4.3848    0.0000 O   0  0  0  0  0  0  0  0  0  0  0  0
   -7.0847   -3.8447    0.0000 N   0  0  0  0  0  0  0  0  0  0  0  0
   -6.6211   -5.2713    0.0000 C   0  0  0  0  0  0  0  0  0  0  0  0
   -5.1211   -5.2713    0.0000 C   0  0  0  0  0  0  0  0  0  0  0  0
   -4.6576   -3.8447    0.0000 C   0  0  0  0  0  0  0  0  0  0  0  0
   -5.8711   -2.9630    0.0000 C   0  0  0  0  0  0  0  0  0  0  0  0
   -3.3211   -4.5257    0.0000 C   0  0  0  0  0  0  0  0  0  0  0  0
   -2.6401   -3.1891    0.0000 C   0  0  0  0  0  0  0  0  0  0  0  0
   -1.2135   -2.7256    0.0000 N   0  0  0  0  0  0  0  0  0  0  0  0
   -0.0000   -3.6073    0.0000 C   0  0  0  0  0  0  0  0  0  0  0  0
   -0.0000   -5.1073    0.0000 N   0  0  0  0  0  0  0  0  0  0  0  0
   -1.2990   -5.8573    0.0000 C   0  0  0  0  0  0  0  0  0  0  0  0
   -2.5981   -5.1073    0.0000 O   0  0  0  0  0  0  0  0  0  0  0  0
   -1.2990   -7.3573    0.0000 C   0  0  0  0  0  0  0  0  0  0  0  0
   -0.0855   -8.2390    0.0000 C   0  0  0  0  0  0  0  0  0  0  0  0
   -0.5490   -9.6656    0.0000 C   0  0  0  0  0  0  0  0  0  0  0  0
   -2.0490   -9.6656    0.0000 C   0  0  0  0  0  0  0  0  0  0  0  0
   -2.9307  -10.8791    0.0000 C   0  0  0  0  0  0  0  0  0  0  0  0
   -4.4225  -10.7223    0.0000 F   0  0  0  0  0  0  0  0  0  0  0  0
   -2.3206  -12.2494    0.0000 F   0  0  0  0  0  0  0  0  0  0  0  0
   -2.5126   -8.2390    0.0000 S   0  0  0  0  0  0  0  0  0  0  0  0
    1.2135   -2.7256    0.0000 N   0  0  0  0  0  0  0  0  0  0  0  0
    0.7500   -1.2990    0.0000 C   0  0  0  0  0  0  0  0  0  0  0  0
    1.5000    0.0000    0.0000 C   0  0  0  0  0  0  0  0  0  0  0  0
    0.7500    1.2990    0.0000 C   0  0  0  0  0  0  0  0  0  0  0  0
    1.5000    2.5981    0.0000 C   0  0  0  0  0  0  0  0  0  0  0  0
    3.0000    2.5981    0.0000 N   0  0  0  0  0  0  0  0  0  0  0  0
    3.7500    3.8971    0.0000 C   0  0  0  0  0  0  0  0  0  0  0  0
    5.2500    3.8971    0.0000 C   0  0  0  0  0  0  0  0  0  0  0  0
    5.2500    2.3971    0.0000 C   0  0  0  0  0  0  0  0  0  0  0  0
    5.2500    5.3971    0.0000 C   0  0  0  0  0  0  0  0  0  0  0  0
    6.7500    3.8971    0.0000 C   0  0  0  0  0  0  0  0  0  0  0  0
    7.5000    2.5981    0.0000 O   0  0  0  0  0  0  0  0  0  0  0  0
   -0.7500    1.2990    0.0000 C   0  0  0  0  0  0  0  0  0  0  0  0
   -1.5000    0.0000    0.0000 C   0  0  0  0  0  0  0  0  0  0  0  0
   -0.7500   -1.2990    0.0000 C   0  0  0  0  0  0  0  0  0  0  0  0
   -3.9766   -2.5082    0.0000 C   0  0  0  0  0  0  0  0  0  0  0  0
  1  2  2  0
  2  3  1  0
  3  4  2  0
  3  5  1  0
  5  6  1  0
  6  7  1  0
  8  7  1  1
  8  9  1  0
  8 10  1  0
 10 11  1  0
 11 12  1  1
 12 13  1  0
 13 14  1  0
 14 15  1  0
 15 16  2  0
 15 17  1  0
 17 18  2  0
 18 19  1  0
 19 20  2  0
 20 21  1  0
 21 22  1  0
 21 23  1  0
 20 24  1  0
 13 25  2  0
 25 26  1  0
 26 27  2  0
 27 28  1  0
 28 29  1  0
 29 30  1  0
 30 31  1  0
 31 32  1  0
 32 33  1  0
 32 34  1  0
 32 35  1  0
 35 36  1  0
 28 37  2  0
 37 38  1  0
 38 39  2  0
 11 40  1  0
  9  5  1  0
 39 12  1  0
 40  8  1  0
 24 17  1  0
 39 26  1  0
M  END
>  <Compound_ID>  (17) 
CHEMBL4202941

>  <Molecule Name>  (17) 
nan

>  <Molecular Weight>  (17) 
571.69

>  <AlogP>  (17) 
5.14

>  <Smiles>  (17) 
C=CC(=O)N1CC[C@]2(C1)C[C@H](n1c(NC(=O)c3ccc(C(F)F)s3)nc3cc(CNCC(C)(C)CO)ccc31)C2

>  <Standard Type>  (17) 
IC50

>  <Standard Relation>  (17) 
'='

>  <Standard Units>  (17) 
nM

>  <Standard Value>  (17) 
0.87

>  <Assay ChEMBL ID>  (17) 
CHEMBL4199503

>  <Assay Description>  (17) 
Inhibition of ITK (unknown origin) using fluorescently labeled peptide as substrate after 3 hrs by microfluidic mobility shift assay

>  <BAO Format ID>  (17) 
BAO_0000357

>  <BAO Label>  (17) 
single protein format

>  <Assay Organism>  (17) 
Homo sapiens

>  <Target ChEMBL ID>  (17) 
CHEMBL2959

>  <Target Name>  (17) 
Tyrosine-protein kinase ITK/TSK

>  <Target Organism>  (17) 
Homo sapiens

>  <Target Type>  (17) 
SINGLE PROTEIN

>  <Document ChEMBL ID>  (17) 
CHEMBL4196110

>  <Source Description>  (17) 
Scientific Literature

>  <Document Journal>  (17) 
ACS Med Chem Lett

>  <Document Year>  (17) 
2018.0

>  <Active>  (17) 
1.0

$$$$

     RDKit          2D

 23 25  0  0  0  0  0  0  0  0999 V2000
   11.2500   -6.4952    0.0000 C   0  0  0  0  0  0  0  0  0  0  0  0
   10.5000   -5.1962    0.0000 C   0  0  0  0  0  0  0  0  0  0  0  0
    9.0000   -5.1962    0.0000 C   0  0  0  0  0  0  0  0  0  0  0  0
    7.5000   -5.1962    0.0000 C   0  0  0  0  0  0  0  0  0  0  0  0
    6.0000   -5.1962    0.0000 C   0  0  0  0  0  0  0  0  0  0  0  0
    5.2500   -6.4952    0.0000 O   0  0  0  0  0  0  0  0  0  0  0  0
    5.2500   -3.8971    0.0000 N   0  0  0  0  0  0  0  0  0  0  0  0
    3.7500   -3.8971    0.0000 C   0  0  0  0  0  0  0  0  0  0  0  0
    3.0000   -5.1962    0.0000 C   0  0  0  0  0  0  0  0  0  0  0  0
    1.5000   -5.1962    0.0000 C   0  0  0  0  0  0  0  0  0  0  0  0
    0.7500   -3.8971    0.0000 C   0  0  0  0  0  0  0  0  0  0  0  0
    1.5000   -2.5981    0.0000 C   0  0  0  0  0  0  0  0  0  0  0  0
    0.7500   -1.2990    0.0000 C   0  0  0  0  0  0  0  0  0  0  0  0
    1.5000    0.0000    0.0000 C   0  0  0  0  0  0  0  0  0  0  0  0
    0.7500    1.2990    0.0000 N   0  0  0  0  0  0  0  0  0  0  0  0
   -0.7500    1.2990    0.0000 C   0  0  0  0  0  0  0  0  0  0  0  0
   -1.7537    2.4138    0.0000 N   0  0  0  0  0  0  0  0  0  0  0  0
   -3.1240    1.8037    0.0000 C   0  0  0  0  0  0  0  0  0  0  0  0
   -2.9672    0.3119    0.0000 C   0  0  0  0  0  0  0  0  0  0  0  0
   -4.0819   -0.6918    0.0000 Cl  0  0  0  0  0  0  0  0  0  0  0  0
   -1.5000    0.0000    0.0000 C   0  0  0  0  0  0  0  0  0  0  0  0
   -0.7500   -1.2990    0.0000 C   0  0  0  0  0  0  0  0  0  0  0  0
    3.0000   -2.5981    0.0000 C   0  0  0  0  0  0  0  0  0  0  0  0
  1  2  1  0
  2  3  1  0
  3  4  3  0
  4  5  1  0
  5  6  2  0
  5  7  1  0
  7  8  1  0
  8  9  2  0
  9 10  1  0
 10 11  2  0
 11 12  1  0
 12 13  1  0
 13 14  2  0
 14 15  1  0
 15 16  2  0
 16 17  1  0
 17 18  1  0
 18 19  2  0
 19 20  1  0
 19 21  1  0
 21 22  2  0
 12 23  2  0
 23  8  1  0
 22 13  1  0
 21 16  1  0
M  END
>  <Compound_ID>  (18) 
CHEMBL3926317

>  <Molecule Name>  (18) 
nan

>  <Molecular Weight>  (18) 
323.78

>  <AlogP>  (18) 
4.24

>  <Smiles>  (18) 
CCC#CC(=O)Nc1cccc(-c2cnc3[nH]cc(Cl)c3c2)c1

>  <Standard Type>  (18) 
IC50

>  <Standard Relation>  (18) 
'='

>  <Standard Units>  (18) 
nM

>  <Standard Value>  (18) 
30.0

>  <Assay ChEMBL ID>  (18) 
CHEMBL3887687

>  <Assay Description>  (18) 
Biochemical Inhibition Assay: 1H-pyrrolo[2,3-b]pyridine, 1H-pyrazolo[3,4-b]pyridine and 5H-pyrrolo[2,3-b]pyrazine series of compounds exhibited over >100 fold selective against Janus and TEC family of kinases except for the BMX and TXK it had activity of 30 and 45 nM respectively.

>  <BAO Format ID>  (18) 
BAO_0000357

>  <BAO Label>  (18) 
single protein format

>  <Assay Organism>  (18) 
Homo sapiens

>  <Target ChEMBL ID>  (18) 
CHEMBL2959

>  <Target Name>  (18) 
Tyrosine-protein kinase ITK/TSK

>  <Target Organism>  (18) 
Homo sapiens

>  <Target Type>  (18) 
SINGLE PROTEIN

>  <Document ChEMBL ID>  (18) 
CHEMBL3886406

>  <Source Description>  (18) 
BindingDB Database

>  <Document Journal>  (18) 
nan

>  <Document Year>  (18) 
2015.0

>  <Active>  (18) 
1.0

$$$$

     RDKit          2D

 24 26  0  0  0  0  0  0  0  0999 V2000
   -4.5000  -10.3923    0.0000 C   0  0  0  0  0  0  0  0  0  0  0  0
   -3.0000  -10.3923    0.0000 C   0  0  0  0  0  0  0  0  0  0  0  0
   -2.2500   -9.0933    0.0000 C   0  0  0  0  0  0  0  0  0  0  0  0
   -1.5000   -7.7942    0.0000 C   0  0  0  0  0  0  0  0  0  0  0  0
   -0.7500   -6.4952    0.0000 C   0  0  0  0  0  0  0  0  0  0  0  0
   -1.5000   -5.1962    0.0000 O   0  0  0  0  0  0  0  0  0  0  0  0
    0.7500   -6.4952    0.0000 N   0  0  0  0  0  0  0  0  0  0  0  0
    1.5000   -5.1962    0.0000 C   0  0  0  0  0  0  0  0  0  0  0  0
    0.7500   -3.8971    0.0000 C   0  0  0  0  0  0  0  0  0  0  0  0
    1.5000   -2.5981    0.0000 C   0  0  0  0  0  0  0  0  0  0  0  0
    0.7500   -1.2990    0.0000 C   0  0  0  0  0  0  0  0  0  0  0  0
    1.5000    0.0000    0.0000 C   0  0  0  0  0  0  0  0  0  0  0  0
    0.7500    1.2990    0.0000 N   0  0  0  0  0  0  0  0  0  0  0  0
   -0.7500    1.2990    0.0000 C   0  0  0  0  0  0  0  0  0  0  0  0
   -1.7537    2.4138    0.0000 N   0  0  0  0  0  0  0  0  0  0  0  0
   -3.1240    1.8037    0.0000 C   0  0  0  0  0  0  0  0  0  0  0  0
   -2.9672    0.3119    0.0000 C   0  0  0  0  0  0  0  0  0  0  0  0
   -4.0819   -0.6918    0.0000 C   0  0  0  0  0  0  0  0  0  0  0  0
   -1.5000    0.0000    0.0000 C   0  0  0  0  0  0  0  0  0  0  0  0
   -0.7500   -1.2990    0.0000 C   0  0  0  0  0  0  0  0  0  0  0  0
    3.0000   -2.5981    0.0000 C   0  0  0  0  0  0  0  0  0  0  0  0
    3.7500   -3.8971    0.0000 C   0  0  0  0  0  0  0  0  0  0  0  0
    3.0000   -5.1962    0.0000 C   0  0  0  0  0  0  0  0  0  0  0  0
    3.7500   -6.4952    0.0000 F   0  0  0  0  0  0  0  0  0  0  0  0
  1  2  1  0
  2  3  1  0
  3  4  3  0
  4  5  1  0
  5  6  2  0
  5  7  1  0
  7  8  1  0
  8  9  2  0
  9 10  1  0
 10 11  1  0
 11 12  2  0
 12 13  1  0
 13 14  2  0
 14 15  1  0
 15 16  1  0
 16 17  2  0
 17 18  1  0
 17 19  1  0
 19 20  2  0
 10 21  2  0
 21 22  1  0
 22 23  2  0
 23 24  1  0
 23  8  1  0
 20 11  1  0
 19 14  1  0
M  END
>  <Compound_ID>  (19) 
CHEMBL3909234

>  <Molecule Name>  (19) 
nan

>  <Molecular Weight>  (19) 
321.36

>  <AlogP>  (19) 
4.03

>  <Smiles>  (19) 
CCC#CC(=O)Nc1cc(-c2cnc3[nH]cc(C)c3c2)ccc1F

>  <Standard Type>  (19) 
IC50

>  <Standard Relation>  (19) 
'='

>  <Standard Units>  (19) 
nM

>  <Standard Value>  (19) 
30.0

>  <Assay ChEMBL ID>  (19) 
CHEMBL3887687

>  <Assay Description>  (19) 
Biochemical Inhibition Assay: 1H-pyrrolo[2,3-b]pyridine, 1H-pyrazolo[3,4-b]pyridine and 5H-pyrrolo[2,3-b]pyrazine series of compounds exhibited over >100 fold selective against Janus and TEC family of kinases except for the BMX and TXK it had activity of 30 and 45 nM respectively.

>  <BAO Format ID>  (19) 
BAO_0000357

>  <BAO Label>  (19) 
single protein format

>  <Assay Organism>  (19) 
Homo sapiens

>  <Target ChEMBL ID>  (19) 
CHEMBL2959

>  <Target Name>  (19) 
Tyrosine-protein kinase ITK/TSK

>  <Target Organism>  (19) 
Homo sapiens

>  <Target Type>  (19) 
SINGLE PROTEIN

>  <Document ChEMBL ID>  (19) 
CHEMBL3886406

>  <Source Description>  (19) 
BindingDB Database

>  <Document Journal>  (19) 
nan

>  <Document Year>  (19) 
2015.0

>  <Active>  (19) 
1.0

$$$$

     RDKit          2D

 25 27  0  0  0  0  0  0  0  0999 V2000
   -2.6401   -3.1891    0.0000 C   0  0  0  0  0  0  0  0  0  0  0  0
   -1.2135   -2.7256    0.0000 C   0  0  0  0  0  0  0  0  0  0  0  0
   -0.0000   -3.6073    0.0000 C   0  0  0  0  0  0  0  0  0  0  0  0
    1.2135   -2.7256    0.0000 N   0  0  0  0  0  0  0  0  0  0  0  0
    0.7500   -1.2990    0.0000 C   0  0  0  0  0  0  0  0  0  0  0  0
    1.5000    0.0000    0.0000 N   0  0  0  0  0  0  0  0  0  0  0  0
    0.7500    1.2990    0.0000 C   0  0  0  0  0  0  0  0  0  0  0  0
   -0.7500    1.2990    0.0000 C   0  0  0  0  0  0  0  0  0  0  0  0
   -1.5000    2.5981    0.0000 C   0  0  0  0  0  0  0  0  0  0  0  0
   -0.7500    3.8971    0.0000 C   0  0  0  0  0  0  0  0  0  0  0  0
   -1.5000    5.1962    0.0000 C   0  0  0  0  0  0  0  0  0  0  0  0
   -3.0000    5.1962    0.0000 C   0  0  0  0  0  0  0  0  0  0  0  0
   -3.7500    3.8971    0.0000 C   0  0  0  0  0  0  0  0  0  0  0  0
   -5.2500    3.8971    0.0000 N   0  0  0  0  0  0  0  0  0  0  0  0
   -6.0000    5.1962    0.0000 C   0  0  0  0  0  0  0  0  0  0  0  0
   -5.2500    6.4952    0.0000 O   0  0  0  0  0  0  0  0  0  0  0  0
   -7.5000    5.1962    0.0000 C   0  0  0  0  0  0  0  0  0  0  0  0
   -8.2500    6.4952    0.0000 C   0  0  0  0  0  0  0  0  0  0  0  0
   -9.7500    6.4952    0.0000 C   0  0  0  0  0  0  0  0  0  0  0  0
  -10.5000    7.7942    0.0000 N   0  0  0  0  0  0  0  0  0  0  0  0
  -12.0000    7.7942    0.0000 C   0  0  0  0  0  0  0  0  0  0  0  0
   -9.7500    9.0933    0.0000 C   0  0  0  0  0  0  0  0  0  0  0  0
   -3.0000    2.5981    0.0000 C   0  0  0  0  0  0  0  0  0  0  0  0
   -1.5000    0.0000    0.0000 C   0  0  0  0  0  0  0  0  0  0  0  0
   -0.7500   -1.2990    0.0000 C   0  0  0  0  0  0  0  0  0  0  0  0
  1  2  1  0
  2  3  2  0
  3  4  1  0
  4  5  1  0
  5  6  2  0
  6  7  1  0
  7  8  2  0
  8  9  1  0
  9 10  2  0
 10 11  1  0
 11 12  2  0
 12 13  1  0
 13 14  1  0
 14 15  1  0
 15 16  2  0
 15 17  1  0
 17 18  2  0
 18 19  1  0
 19 20  1  0
 20 21  1  0
 20 22  1  0
 13 23  2  0
  8 24  1  0
 24 25  2  0
 25  2  1  0
 25  5  1  0
 23  9  1  0
M  END
>  <Compound_ID>  (20) 
CHEMBL3906494

>  <Molecule Name>  (20) 
nan

>  <Molecular Weight>  (20) 
334.42

>  <AlogP>  (20) 
3.59

>  <Smiles>  (20) 
Cc1c[nH]c2ncc(-c3cccc(NC(=O)/C=C/CN(C)C)c3)cc12

>  <Standard Type>  (20) 
IC50

>  <Standard Relation>  (20) 
'='

>  <Standard Units>  (20) 
nM

>  <Standard Value>  (20) 
72.4

>  <Assay ChEMBL ID>  (20) 
CHEMBL3887687

>  <Assay Description>  (20) 
Biochemical Inhibition Assay: 1H-pyrrolo[2,3-b]pyridine, 1H-pyrazolo[3,4-b]pyridine and 5H-pyrrolo[2,3-b]pyrazine series of compounds exhibited over >100 fold selective against Janus and TEC family of kinases except for the BMX and TXK it had activity of 30 and 45 nM respectively.

>  <BAO Format ID>  (20) 
BAO_0000357

>  <BAO Label>  (20) 
single protein format

>  <Assay Organism>  (20) 
Homo sapiens

>  <Target ChEMBL ID>  (20) 
CHEMBL2959

>  <Target Name>  (20) 
Tyrosine-protein kinase ITK/TSK

>  <Target Organism>  (20) 
Homo sapiens

>  <Target Type>  (20) 
SINGLE PROTEIN

>  <Document ChEMBL ID>  (20) 
CHEMBL3886406

>  <Source Description>  (20) 
BindingDB Database

>  <Document Journal>  (20) 
nan

>  <Document Year>  (20) 
2015.0

>  <Active>  (20) 
1.0

$$$$

     RDKit          2D

 21 23  0  0  0  0  0  0  0  0999 V2000
   -1.3905   11.5607    0.0000 C   0  0  0  0  0  0  0  0  0  0  0  0
   -1.7024   10.0935    0.0000 C   0  0  0  0  0  0  0  0  0  0  0  0
   -2.0143    8.6263    0.0000 C   0  0  0  0  0  0  0  0  0  0  0  0
   -0.8995    7.6226    0.0000 O   0  0  0  0  0  0  0  0  0  0  0  0
   -3.4408    8.1628    0.0000 N   0  0  0  0  0  0  0  0  0  0  0  0
   -3.7527    6.6955    0.0000 C   0  0  0  0  0  0  0  0  0  0  0  0
   -2.6380    5.6918    0.0000 C   0  0  0  0  0  0  0  0  0  0  0  0
   -2.9499    4.2246    0.0000 C   0  0  0  0  0  0  0  0  0  0  0  0
   -1.8351    3.2209    0.0000 C   0  0  0  0  0  0  0  0  0  0  0  0
   -0.4086    3.6844    0.0000 C   0  0  0  0  0  0  0  0  0  0  0  0
    0.7062    2.6807    0.0000 N   0  0  0  0  0  0  0  0  0  0  0  0
    0.3943    1.2135    0.0000 C   0  0  0  0  0  0  0  0  0  0  0  0
    1.2760    0.0000    0.0000 N   0  0  0  0  0  0  0  0  0  0  0  0
    0.3943   -1.2135    0.0000 C   0  0  0  0  0  0  0  0  0  0  0  0
   -1.0323   -0.7500    0.0000 C   0  0  0  0  0  0  0  0  0  0  0  0
   -1.0323    0.7500    0.0000 C   0  0  0  0  0  0  0  0  0  0  0  0
   -2.1470    1.7537    0.0000 C   0  0  0  0  0  0  0  0  0  0  0  0
   -4.3764    3.7611    0.0000 C   0  0  0  0  0  0  0  0  0  0  0  0
   -5.4912    4.7648    0.0000 C   0  0  0  0  0  0  0  0  0  0  0  0
   -5.1793    6.2320    0.0000 C   0  0  0  0  0  0  0  0  0  0  0  0
   -6.2940    7.2357    0.0000 F   0  0  0  0  0  0  0  0  0  0  0  0
  1  2  3  0
  2  3  1  0
  3  4  2  0
  3  5  1  0
  5  6  1  0
  6  7  2  0
  7  8  1  0
  8  9  1  0
  9 10  2  0
 10 11  1  0
 11 12  2  0
 12 13  1  0
 13 14  1  0
 14 15  2  0
 15 16  1  0
 16 17  2  0
  8 18  2  0
 18 19  1  0
 19 20  2  0
 20 21  1  0
 20  6  1  0
 17  9  1  0
 16 12  1  0
M  END
>  <Compound_ID>  (21) 
CHEMBL3986267

>  <Molecule Name>  (21) 
nan

>  <Molecular Weight>  (21) 
279.27

>  <AlogP>  (21) 
2.94

>  <Smiles>  (21) 
C#CC(=O)Nc1cc(-c2cnc3[nH]ccc3c2)ccc1F

>  <Standard Type>  (21) 
IC50

>  <Standard Relation>  (21) 
'='

>  <Standard Units>  (21) 
nM

>  <Standard Value>  (21) 
30.0

>  <Assay ChEMBL ID>  (21) 
CHEMBL3887687

>  <Assay Description>  (21) 
Biochemical Inhibition Assay: 1H-pyrrolo[2,3-b]pyridine, 1H-pyrazolo[3,4-b]pyridine and 5H-pyrrolo[2,3-b]pyrazine series of compounds exhibited over >100 fold selective against Janus and TEC family of kinases except for the BMX and TXK it had activity of 30 and 45 nM respectively.

>  <BAO Format ID>  (21) 
BAO_0000357

>  <BAO Label>  (21) 
single protein format

>  <Assay Organism>  (21) 
Homo sapiens

>  <Target ChEMBL ID>  (21) 
CHEMBL2959

>  <Target Name>  (21) 
Tyrosine-protein kinase ITK/TSK

>  <Target Organism>  (21) 
Homo sapiens

>  <Target Type>  (21) 
SINGLE PROTEIN

>  <Document ChEMBL ID>  (21) 
CHEMBL3886406

>  <Source Description>  (21) 
BindingDB Database

>  <Document Journal>  (21) 
nan

>  <Document Year>  (21) 
2015.0

>  <Active>  (21) 
1.0

$$$$

     RDKit          2D

 21 23  0  0  0  0  0  0  0  0999 V2000
    9.0000   -5.1962    0.0000 C   0  0  0  0  0  0  0  0  0  0  0  0
    7.5000   -5.1962    0.0000 C   0  0  0  0  0  0  0  0  0  0  0  0
    6.0000   -5.1962    0.0000 C   0  0  0  0  0  0  0  0  0  0  0  0
    5.2500   -6.4952    0.0000 O   0  0  0  0  0  0  0  0  0  0  0  0
    5.2500   -3.8971    0.0000 N   0  0  0  0  0  0  0  0  0  0  0  0
    3.7500   -3.8971    0.0000 C   0  0  0  0  0  0  0  0  0  0  0  0
    3.0000   -5.1962    0.0000 C   0  0  0  0  0  0  0  0  0  0  0  0
    1.5000   -5.1962    0.0000 C   0  0  0  0  0  0  0  0  0  0  0  0
    0.7500   -3.8971    0.0000 C   0  0  0  0  0  0  0  0  0  0  0  0
    1.5000   -2.5981    0.0000 C   0  0  0  0  0  0  0  0  0  0  0  0
    0.7500   -1.2990    0.0000 C   0  0  0  0  0  0  0  0  0  0  0  0
    1.5000    0.0000    0.0000 C   0  0  0  0  0  0  0  0  0  0  0  0
    0.7500    1.2990    0.0000 N   0  0  0  0  0  0  0  0  0  0  0  0
   -0.7500    1.2990    0.0000 C   0  0  0  0  0  0  0  0  0  0  0  0
   -1.7537    2.4138    0.0000 N   0  0  0  0  0  0  0  0  0  0  0  0
   -3.1240    1.8037    0.0000 C   0  0  0  0  0  0  0  0  0  0  0  0
   -2.9672    0.3119    0.0000 C   0  0  0  0  0  0  0  0  0  0  0  0
   -4.0819   -0.6918    0.0000 Cl  0  0  0  0  0  0  0  0  0  0  0  0
   -1.5000    0.0000    0.0000 C   0  0  0  0  0  0  0  0  0  0  0  0
   -0.7500   -1.2990    0.0000 C   0  0  0  0  0  0  0  0  0  0  0  0
    3.0000   -2.5981    0.0000 N   0  0  0  0  0  0  0  0  0  0  0  0
  1  2  3  0
  2  3  1  0
  3  4  2  0
  3  5  1  0
  5  6  1  0
  6  7  2  0
  7  8  1  0
  8  9  2  0
  9 10  1  0
 10 11  1  0
 11 12  2  0
 12 13  1  0
 13 14  2  0
 14 15  1  0
 15 16  1  0
 16 17  2  0
 17 18  1  0
 17 19  1  0
 19 20  2  0
 10 21  2  0
 21  6  1  0
 20 11  1  0
 19 14  1  0
M  END
>  <Compound_ID>  (22) 
CHEMBL3937076

>  <Molecule Name>  (22) 
nan

>  <Molecular Weight>  (22) 
296.72

>  <AlogP>  (22) 
2.85

>  <Smiles>  (22) 
C#CC(=O)Nc1cccc(-c2cnc3[nH]cc(Cl)c3c2)n1

>  <Standard Type>  (22) 
IC50

>  <Standard Relation>  (22) 
'='

>  <Standard Units>  (22) 
nM

>  <Standard Value>  (22) 
35.0

>  <Assay ChEMBL ID>  (22) 
CHEMBL3887687

>  <Assay Description>  (22) 
Biochemical Inhibition Assay: 1H-pyrrolo[2,3-b]pyridine, 1H-pyrazolo[3,4-b]pyridine and 5H-pyrrolo[2,3-b]pyrazine series of compounds exhibited over >100 fold selective against Janus and TEC family of kinases except for the BMX and TXK it had activity of 30 and 45 nM respectively.

>  <BAO Format ID>  (22) 
BAO_0000357

>  <BAO Label>  (22) 
single protein format

>  <Assay Organism>  (22) 
Homo sapiens

>  <Target ChEMBL ID>  (22) 
CHEMBL2959

>  <Target Name>  (22) 
Tyrosine-protein kinase ITK/TSK

>  <Target Organism>  (22) 
Homo sapiens

>  <Target Type>  (22) 
SINGLE PROTEIN

>  <Document ChEMBL ID>  (22) 
CHEMBL3886406

>  <Source Description>  (22) 
BindingDB Database

>  <Document Journal>  (22) 
nan

>  <Document Year>  (22) 
2015.0

>  <Active>  (22) 
1.0

$$$$

     RDKit          2D

 21 23  0  0  0  0  0  0  0  0999 V2000
  -12.3122    3.9144    0.0000 C   0  0  0  0  0  0  0  0  0  0  0  0
  -10.8856    4.3779    0.0000 C   0  0  0  0  0  0  0  0  0  0  0  0
   -9.4590    4.8414    0.0000 C   0  0  0  0  0  0  0  0  0  0  0  0
   -8.0325    5.3050    0.0000 C   0  0  0  0  0  0  0  0  0  0  0  0
   -7.7206    6.7722    0.0000 O   0  0  0  0  0  0  0  0  0  0  0  0
   -6.9177    4.3013    0.0000 N   0  0  0  0  0  0  0  0  0  0  0  0
   -5.4912    4.7648    0.0000 C   0  0  0  0  0  0  0  0  0  0  0  0
   -5.1793    6.2320    0.0000 C   0  0  0  0  0  0  0  0  0  0  0  0
   -3.7527    6.6955    0.0000 C   0  0  0  0  0  0  0  0  0  0  0  0
   -2.6380    5.6918    0.0000 C   0  0  0  0  0  0  0  0  0  0  0  0
   -2.9499    4.2246    0.0000 C   0  0  0  0  0  0  0  0  0  0  0  0
   -1.8351    3.2209    0.0000 C   0  0  0  0  0  0  0  0  0  0  0  0
   -0.4086    3.6844    0.0000 C   0  0  0  0  0  0  0  0  0  0  0  0
    0.7062    2.6807    0.0000 N   0  0  0  0  0  0  0  0  0  0  0  0
    0.3943    1.2135    0.0000 C   0  0  0  0  0  0  0  0  0  0  0  0
    1.2760    0.0000    0.0000 N   0  0  0  0  0  0  0  0  0  0  0  0
    0.3943   -1.2135    0.0000 C   0  0  0  0  0  0  0  0  0  0  0  0
   -1.0323   -0.7500    0.0000 C   0  0  0  0  0  0  0  0  0  0  0  0
   -1.0323    0.7500    0.0000 C   0  0  0  0  0  0  0  0  0  0  0  0
   -2.1470    1.7537    0.0000 C   0  0  0  0  0  0  0  0  0  0  0  0
   -4.3764    3.7611    0.0000 N   0  0  0  0  0  0  0  0  0  0  0  0
  1  2  1  0
  2  3  3  0
  3  4  1  0
  4  5  2  0
  4  6  1  0
  6  7  1  0
  7  8  2  0
  8  9  1  0
  9 10  2  0
 10 11  1  0
 11 12  1  0
 12 13  2  0
 13 14  1  0
 14 15  2  0
 15 16  1  0
 16 17  1  0
 17 18  2  0
 18 19  1  0
 19 20  2  0
 11 21  2  0
 21  7  1  0
 20 12  1  0
 19 15  1  0
M  END
>  <Compound_ID>  (23) 
CHEMBL3968455

>  <Molecule Name>  (23) 
nan

>  <Molecular Weight>  (23) 
276.3

>  <AlogP>  (23) 
2.59

>  <Smiles>  (23) 
CC#CC(=O)Nc1cccc(-c2cnc3[nH]ccc3c2)n1

>  <Standard Type>  (23) 
IC50

>  <Standard Relation>  (23) 
'='

>  <Standard Units>  (23) 
nM

>  <Standard Value>  (23) 
30.0

>  <Assay ChEMBL ID>  (23) 
CHEMBL3887687

>  <Assay Description>  (23) 
Biochemical Inhibition Assay: 1H-pyrrolo[2,3-b]pyridine, 1H-pyrazolo[3,4-b]pyridine and 5H-pyrrolo[2,3-b]pyrazine series of compounds exhibited over >100 fold selective against Janus and TEC family of kinases except for the BMX and TXK it had activity of 30 and 45 nM respectively.

>  <BAO Format ID>  (23) 
BAO_0000357

>  <BAO Label>  (23) 
single protein format

>  <Assay Organism>  (23) 
Homo sapiens

>  <Target ChEMBL ID>  (23) 
CHEMBL2959

>  <Target Name>  (23) 
Tyrosine-protein kinase ITK/TSK

>  <Target Organism>  (23) 
Homo sapiens

>  <Target Type>  (23) 
SINGLE PROTEIN

>  <Document ChEMBL ID>  (23) 
CHEMBL3886406

>  <Source Description>  (23) 
BindingDB Database

>  <Document Journal>  (23) 
nan

>  <Document Year>  (23) 
2015.0

>  <Active>  (23) 
1.0

$$$$

     RDKit          2D

 33 36  0  0  0  0  0  0  0  0999 V2000
   -7.7227   -2.1088    0.0000 C   0  0  0  0  0  0  0  0  0  0  0  0
   -6.2961   -1.6453    0.0000 O   0  0  0  0  0  0  0  0  0  0  0  0
   -5.1814   -2.6490    0.0000 C   0  0  0  0  0  0  0  0  0  0  0  0
   -3.7548   -2.1855    0.0000 C   0  0  0  0  0  0  0  0  0  0  0  0
   -2.6401   -3.1891    0.0000 C   0  0  0  0  0  0  0  0  0  0  0  0
   -1.2135   -2.7256    0.0000 N   0  0  0  0  0  0  0  0  0  0  0  0
   -0.0000   -3.6073    0.0000 C   0  0  0  0  0  0  0  0  0  0  0  0
   -0.0000   -5.1073    0.0000 N   0  0  0  0  0  0  0  0  0  0  0  0
   -1.2990   -5.8573    0.0000 C   0  0  0  0  0  0  0  0  0  0  0  0
   -2.5981   -5.1073    0.0000 O   0  0  0  0  0  0  0  0  0  0  0  0
   -1.2990   -7.3573    0.0000 C   0  0  0  0  0  0  0  0  0  0  0  0
   -2.5981   -8.1073    0.0000 C   0  0  0  0  0  0  0  0  0  0  0  0
   -2.5981   -9.6073    0.0000 C   0  0  0  0  0  0  0  0  0  0  0  0
   -1.2990  -10.3573    0.0000 C   0  0  0  0  0  0  0  0  0  0  0  0
   -1.2990  -11.8573    0.0000 C   0  0  0  0  0  0  0  0  0  0  0  0
   -1.2990  -13.3573    0.0000 N   0  0  0  0  0  0  0  0  0  0  0  0
   -0.0000   -9.6073    0.0000 C   0  0  0  0  0  0  0  0  0  0  0  0
   -0.0000   -8.1073    0.0000 C   0  0  0  0  0  0  0  0  0  0  0  0
    1.2135   -2.7256    0.0000 N   0  0  0  0  0  0  0  0  0  0  0  0
    0.7500   -1.2990    0.0000 C   0  0  0  0  0  0  0  0  0  0  0  0
    1.5000    0.0000    0.0000 C   0  0  0  0  0  0  0  0  0  0  0  0
    0.7500    1.2990    0.0000 C   0  0  0  0  0  0  0  0  0  0  0  0
    1.5000    2.5981    0.0000 C   0  0  0  0  0  0  0  0  0  0  0  0
    3.0000    2.5981    0.0000 N   0  0  0  0  0  0  0  0  0  0  0  0
    3.7500    3.8971    0.0000 C   0  0  0  0  0  0  0  0  0  0  0  0
    5.2500    3.8971    0.0000 C   0  0  0  0  0  0  0  0  0  0  0  0
    6.0000    5.1962    0.0000 C   0  0  0  0  0  0  0  0  0  0  0  0
    5.2500    6.4952    0.0000 C   0  0  0  0  0  0  0  0  0  0  0  0
    3.7500    6.4952    0.0000 C   0  0  0  0  0  0  0  0  0  0  0  0
    3.0000    5.1962    0.0000 C   0  0  0  0  0  0  0  0  0  0  0  0
   -0.7500    1.2990    0.0000 C   0  0  0  0  0  0  0  0  0  0  0  0
   -1.5000    0.0000    0.0000 C   0  0  0  0  0  0  0  0  0  0  0  0
   -0.7500   -1.2990    0.0000 C   0  0  0  0  0  0  0  0  0  0  0  0
  1  2  1  0
  2  3  1  0
  3  4  1  0
  4  5  1  0
  5  6  1  0
  6  7  1  0
  7  8  1  0
  8  9  1  0
  9 10  2  0
  9 11  1  0
 11 12  2  0
 12 13  1  0
 13 14  2  0
 14 15  1  0
 15 16  3  0
 14 17  1  0
 17 18  2  0
  7 19  2  0
 19 20  1  0
 20 21  2  0
 21 22  1  0
 22 23  1  0
 23 24  1  0
 24 25  1  0
 25 26  2  0
 26 27  1  0
 27 28  2  0
 28 29  1  0
 29 30  2  0
 22 31  2  0
 31 32  1  0
 32 33  2  0
 33  6  1  0
 18 11  1  0
 33 20  1  0
 30 25  1  0
M  END
>  <Compound_ID>  (24) 
CHEMBL518932

>  <Molecule Name>  (24) 
nan

>  <Molecular Weight>  (24) 
439.52

>  <AlogP>  (24) 
4.81

>  <Smiles>  (24) 
COCCCn1c(NC(=O)c2ccc(C#N)cc2)nc2cc(CNc3ccccc3)ccc21

>  <Standard Type>  (24) 
IC50

>  <Standard Relation>  (24) 
'='

>  <Standard Units>  (24) 
nM

>  <Standard Value>  (24) 
48.0

>  <Assay ChEMBL ID>  (24) 
CHEMBL1006237

>  <Assay Description>  (24) 
Inhibition of ITK by DELPHIA assay

>  <BAO Format ID>  (24) 
BAO_0000357

>  <BAO Label>  (24) 
single protein format

>  <Assay Organism>  (24) 
None

>  <Target ChEMBL ID>  (24) 
CHEMBL2959

>  <Target Name>  (24) 
Tyrosine-protein kinase ITK/TSK

>  <Target Organism>  (24) 
Homo sapiens

>  <Target Type>  (24) 
SINGLE PROTEIN

>  <Document ChEMBL ID>  (24) 
CHEMBL1152240

>  <Source Description>  (24) 
Scientific Literature

>  <Document Journal>  (24) 
Bioorg Med Chem Lett

>  <Document Year>  (24) 
2008.0

>  <Active>  (24) 
1.0

$$$$

     RDKit          2D

 33 37  0  0  0  0  0  0  0  0999 V2000
   -8.3432   -6.7748    0.0000 C   0  0  0  0  0  0  0  0  0  0  0  0
   -9.3469   -5.6601    0.0000 C   0  0  0  0  0  0  0  0  0  0  0  0
  -10.3506   -4.5453    0.0000 C   0  0  0  0  0  0  0  0  0  0  0  0
  -10.4616   -6.6638    0.0000 O   0  0  0  0  0  0  0  0  0  0  0  0
   -8.2322   -4.6564    0.0000 C   0  0  0  0  0  0  0  0  0  0  0  0
   -8.5441   -3.1891    0.0000 C   0  0  0  0  0  0  0  0  0  0  0  0
   -7.4293   -2.1855    0.0000 C   0  0  0  0  0  0  0  0  0  0  0  0
   -7.7412   -0.7182    0.0000 C   0  0  0  0  0  0  0  0  0  0  0  0
   -9.1678   -0.2547    0.0000 C   0  0  0  0  0  0  0  0  0  0  0  0
  -10.2825   -1.2584    0.0000 C   0  0  0  0  0  0  0  0  0  0  0  0
   -9.9707   -2.7256    0.0000 C   0  0  0  0  0  0  0  0  0  0  0  0
   -6.8056   -5.1199    0.0000 N   0  0  0  0  0  0  0  0  0  0  0  0
   -5.5921   -4.2382    0.0000 C   0  0  0  0  0  0  0  0  0  0  0  0
   -4.3786   -5.1199    0.0000 C   0  0  0  0  0  0  0  0  0  0  0  0
   -2.9520   -4.6564    0.0000 N   0  0  0  0  0  0  0  0  0  0  0  0
   -2.6401   -3.1891    0.0000 C   0  0  0  0  0  0  0  0  0  0  0  0
   -3.7548   -2.1855    0.0000 O   0  0  0  0  0  0  0  0  0  0  0  0
   -1.2135   -2.7256    0.0000 C   0  0  0  0  0  0  0  0  0  0  0  0
   -0.0000   -3.6073    0.0000 N   0  0  0  0  0  0  0  0  0  0  0  0
    1.2135   -2.7256    0.0000 N   0  0  0  0  0  0  0  0  0  0  0  0
    0.7500   -1.2990    0.0000 C   0  0  0  0  0  0  0  0  0  0  0  0
    1.5000    0.0000    0.0000 C   0  0  0  0  0  0  0  0  0  0  0  0
    0.7500    1.2990    0.0000 C   0  0  0  0  0  0  0  0  0  0  0  0
    1.5000    2.5981    0.0000 C   0  0  0  0  0  0  0  0  0  0  0  0
    0.8899    3.9684    0.0000 C   0  0  0  0  0  0  0  0  0  0  0  0
    2.0046    4.9721    0.0000 N   0  0  0  0  0  0  0  0  0  0  0  0
    3.3037    4.2221    0.0000 N   0  0  0  0  0  0  0  0  0  0  0  0
    2.9918    2.7549    0.0000 C   0  0  0  0  0  0  0  0  0  0  0  0
   -0.7500    1.2990    0.0000 C   0  0  0  0  0  0  0  0  0  0  0  0
   -1.5000    0.0000    0.0000 C   0  0  0  0  0  0  0  0  0  0  0  0
   -0.7500   -1.2990    0.0000 C   0  0  0  0  0  0  0  0  0  0  0  0
   -4.8421   -6.5465    0.0000 C   0  0  0  0  0  0  0  0  0  0  0  0
   -6.3421   -6.5465    0.0000 N   0  0  0  0  0  0  0  0  0  0  0  0
  1  2  1  0
  2  3  1  0
  2  4  1  0
  5  2  1  6
  5  6  1  0
  6  7  2  0
  7  8  1  0
  8  9  2  0
  9 10  1  0
 10 11  2  0
  5 12  1  0
 12 13  1  0
 13 14  2  0
 14 15  1  0
 15 16  1  0
 16 17  2  0
 16 18  1  0
 18 19  2  0
 19 20  1  0
 20 21  1  0
 21 22  2  0
 22 23  1  0
 23 24  1  0
 24 25  1  0
 25 26  2  0
 26 27  1  0
 27 28  1  0
 23 29  2  0
 29 30  1  0
 30 31  2  0
 14 32  1  0
 32 33  2  0
 11  6  1  0
 33 12  1  0
 31 18  1  0
 31 21  1  0
 28 24  2  0
M  END
>  <Compound_ID>  (25) 
CHEMBL3263054

>  <Molecule Name>  (25) 
nan

>  <Molecular Weight>  (25) 
441.5

>  <AlogP>  (25) 
3.76

>  <Smiles>  (25) 
CC(C)(O)[C@H](c1ccccc1)n1cc(NC(=O)c2n[nH]c3cc(-c4cn[nH]c4)ccc23)cn1

>  <Standard Type>  (25) 
Ki

>  <Standard Relation>  (25) 
'='

>  <Standard Units>  (25) 
nM

>  <Standard Value>  (25) 
0.8

>  <Assay ChEMBL ID>  (25) 
CHEMBL3267591

>  <Assay Description>  (25) 
Inhibition of full-length ITK (unknown origin) using biotin-EQEDEPEGIYGVLF-NH2 as substrate by plate reader analysis

>  <BAO Format ID>  (25) 
BAO_0000357

>  <BAO Label>  (25) 
single protein format

>  <Assay Organism>  (25) 
Homo sapiens

>  <Target ChEMBL ID>  (25) 
CHEMBL2959

>  <Target Name>  (25) 
Tyrosine-protein kinase ITK/TSK

>  <Target Organism>  (25) 
Homo sapiens

>  <Target Type>  (25) 
SINGLE PROTEIN

>  <Document ChEMBL ID>  (25) 
CHEMBL3259776

>  <Source Description>  (25) 
Scientific Literature

>  <Document Journal>  (25) 
Bioorg Med Chem Lett

>  <Document Year>  (25) 
2014.0

>  <Active>  (25) 
1.0

$$$$

     RDKit          2D

 34 37  0  0  0  0  0  0  0  0999 V2000
   -7.7227   -2.1088    0.0000 C   0  0  0  0  0  0  0  0  0  0  0  0
   -6.2961   -1.6453    0.0000 O   0  0  0  0  0  0  0  0  0  0  0  0
   -5.1814   -2.6490    0.0000 C   0  0  0  0  0  0  0  0  0  0  0  0
   -3.7548   -2.1855    0.0000 C   0  0  0  0  0  0  0  0  0  0  0  0
   -2.6401   -3.1891    0.0000 C   0  0  0  0  0  0  0  0  0  0  0  0
   -1.2135   -2.7256    0.0000 N   0  0  0  0  0  0  0  0  0  0  0  0
   -0.0000   -3.6073    0.0000 C   0  0  0  0  0  0  0  0  0  0  0  0
   -0.0000   -5.1073    0.0000 N   0  0  0  0  0  0  0  0  0  0  0  0
   -1.2990   -5.8573    0.0000 C   0  0  0  0  0  0  0  0  0  0  0  0
   -2.5981   -5.1073    0.0000 O   0  0  0  0  0  0  0  0  0  0  0  0
   -1.2990   -7.3573    0.0000 C   0  0  0  0  0  0  0  0  0  0  0  0
   -2.5981   -8.1073    0.0000 C   0  0  0  0  0  0  0  0  0  0  0  0
   -2.5981   -9.6073    0.0000 C   0  0  0  0  0  0  0  0  0  0  0  0
   -1.2990  -10.3573    0.0000 C   0  0  0  0  0  0  0  0  0  0  0  0
   -1.2990  -11.8573    0.0000 C   0  0  0  0  0  0  0  0  0  0  0  0
   -1.2990  -13.3573    0.0000 N   0  0  0  0  0  0  0  0  0  0  0  0
   -0.0000   -9.6073    0.0000 C   0  0  0  0  0  0  0  0  0  0  0  0
   -0.0000   -8.1073    0.0000 C   0  0  0  0  0  0  0  0  0  0  0  0
    1.2135   -2.7256    0.0000 N   0  0  0  0  0  0  0  0  0  0  0  0
    0.7500   -1.2990    0.0000 C   0  0  0  0  0  0  0  0  0  0  0  0
    1.5000    0.0000    0.0000 C   0  0  0  0  0  0  0  0  0  0  0  0
    0.7500    1.2990    0.0000 C   0  0  0  0  0  0  0  0  0  0  0  0
    1.5000    2.5981    0.0000 C   0  0  0  0  0  0  0  0  0  0  0  0
    3.0000    2.5981    0.0000 N   0  0  0  0  0  0  0  0  0  0  0  0
    3.7500    3.8971    0.0000 C   0  0  0  0  0  0  0  0  0  0  0  0
    3.7500    1.2990    0.0000 C   0  0  0  0  0  0  0  0  0  0  0  0
    3.0000   -0.0000    0.0000 C   0  0  0  0  0  0  0  0  0  0  0  0
    3.7500   -1.2990    0.0000 C   0  0  0  0  0  0  0  0  0  0  0  0
    5.2500   -1.2990    0.0000 C   0  0  0  0  0  0  0  0  0  0  0  0
    6.0000   -0.0000    0.0000 C   0  0  0  0  0  0  0  0  0  0  0  0
    5.2500    1.2990    0.0000 C   0  0  0  0  0  0  0  0  0  0  0  0
   -0.7500    1.2990    0.0000 C   0  0  0  0  0  0  0  0  0  0  0  0
   -1.5000    0.0000    0.0000 C   0  0  0  0  0  0  0  0  0  0  0  0
   -0.7500   -1.2990    0.0000 C   0  0  0  0  0  0  0  0  0  0  0  0
  1  2  1  0
  2  3  1  0
  3  4  1  0
  4  5  1  0
  5  6  1  0
  6  7  1  0
  7  8  1  0
  8  9  1  0
  9 10  2  0
  9 11  1  0
 11 12  2  0
 12 13  1  0
 13 14  2  0
 14 15  1  0
 15 16  3  0
 14 17  1  0
 17 18  2  0
  7 19  2  0
 19 20  1  0
 20 21  2  0
 21 22  1  0
 22 23  1  0
 23 24  1  0
 24 25  1  0
 24 26  1  0
 26 27  1  0
 27 28  1  0
 28 29  1  0
 29 30  1  0
 30 31  1  0
 22 32  2  0
 32 33  1  0
 33 34  2  0
 34  6  1  0
 18 11  1  0
 34 20  1  0
 31 26  1  0
M  END
>  <Compound_ID>  (26) 
CHEMBL486757

>  <Molecule Name>  (26) 
nan

>  <Molecular Weight>  (26) 
459.59

>  <AlogP>  (26) 
4.96

>  <Smiles>  (26) 
COCCCn1c(NC(=O)c2ccc(C#N)cc2)nc2cc(CN(C)C3CCCCC3)ccc21

>  <Standard Type>  (26) 
IC50

>  <Standard Relation>  (26) 
'='

>  <Standard Units>  (26) 
nM

>  <Standard Value>  (26) 
46.0

>  <Assay ChEMBL ID>  (26) 
CHEMBL1006237

>  <Assay Description>  (26) 
Inhibition of ITK by DELPHIA assay

>  <BAO Format ID>  (26) 
BAO_0000357

>  <BAO Label>  (26) 
single protein format

>  <Assay Organism>  (26) 
None

>  <Target ChEMBL ID>  (26) 
CHEMBL2959

>  <Target Name>  (26) 
Tyrosine-protein kinase ITK/TSK

>  <Target Organism>  (26) 
Homo sapiens

>  <Target Type>  (26) 
SINGLE PROTEIN

>  <Document ChEMBL ID>  (26) 
CHEMBL1152240

>  <Source Description>  (26) 
Scientific Literature

>  <Document Journal>  (26) 
Bioorg Med Chem Lett

>  <Document Year>  (26) 
2008.0

>  <Active>  (26) 
1.0

$$$$

     RDKit          2D

 40 44  0  0  0  0  0  0  0  0999 V2000
    0.7500   -3.8971    0.0000 C   0  0  0  0  0  0  0  0  0  0  0  0
    1.5000   -2.5981    0.0000 N   0  0  0  0  0  0  0  0  0  0  0  0
    3.0000   -2.5981    0.0000 C   0  0  0  0  0  0  0  0  0  0  0  0
    3.7500   -1.2990    0.0000 O   0  0  0  0  0  0  0  0  0  0  0  0
    3.7500   -3.8971    0.0000 C   0  0  0  0  0  0  0  0  0  0  0  0
    3.0000   -5.1962    0.0000 C   0  0  0  0  0  0  0  0  0  0  0  0
    3.7500   -6.4952    0.0000 C   0  0  0  0  0  0  0  0  0  0  0  0
    5.2500   -6.4952    0.0000 C   0  0  0  0  0  0  0  0  0  0  0  0
    6.0000   -5.1962    0.0000 C   0  0  0  0  0  0  0  0  0  0  0  0
    5.2500   -3.8971    0.0000 C   0  0  0  0  0  0  0  0  0  0  0  0
    0.7500   -1.2990    0.0000 C   0  0  0  0  0  0  0  0  0  0  0  0
    1.5000    0.0000    0.0000 C   0  0  0  0  0  0  0  0  0  0  0  0
    0.7500    1.2990    0.0000 C   0  0  0  0  0  0  0  0  0  0  0  0
   -0.7500    1.2990    0.0000 C   0  0  0  0  0  0  0  0  0  0  0  0
   -1.5000    0.0000    0.0000 C   0  0  0  0  0  0  0  0  0  0  0  0
   -0.7500   -1.2990    0.0000 C   0  0  0  0  0  0  0  0  0  0  0  0
   -2.9672    0.3119    0.0000 N   0  0  0  0  0  0  0  0  0  0  0  0
   -3.1240    1.8037    0.0000 C   0  0  0  0  0  0  0  0  0  0  0  0
   -4.4231    2.5537    0.0000 N   0  0  0  0  0  0  0  0  0  0  0  0
   -5.7221    1.8037    0.0000 C   0  0  0  0  0  0  0  0  0  0  0  0
   -5.7221    0.3037    0.0000 O   0  0  0  0  0  0  0  0  0  0  0  0
   -7.0211    2.5537    0.0000 C   0  0  0  0  0  0  0  0  0  0  0  0
   -8.3914    1.9435    0.0000 C   0  0  0  0  0  0  0  0  0  0  0  0
   -9.3951    3.0583    0.0000 C   0  0  0  0  0  0  0  0  0  0  0  0
   -8.6451    4.3573    0.0000 C   0  0  0  0  0  0  0  0  0  0  0  0
   -9.2552    5.7276    0.0000 C   0  0  0  0  0  0  0  0  0  0  0  0
  -10.7470    5.8844    0.0000 C   0  0  0  0  0  0  0  0  0  0  0  0
  -11.3571    7.2547    0.0000 C   0  0  0  0  0  0  0  0  0  0  0  0
  -10.4755    8.4683    0.0000 C   0  0  0  0  0  0  0  0  0  0  0  0
  -11.0856    9.8386    0.0000 C   0  0  0  0  0  0  0  0  0  0  0  0
  -12.5773    9.9954    0.0000 C   0  0  0  0  0  0  0  0  0  0  0  0
  -13.4590    8.7818    0.0000 N   0  0  0  0  0  0  0  0  0  0  0  0
  -12.8489    7.4115    0.0000 C   0  0  0  0  0  0  0  0  0  0  0  0
   -7.1779    4.0454    0.0000 S   0  0  0  0  0  0  0  0  0  0  0  0
   -1.7537    2.4138    0.0000 N   0  0  0  0  0  0  0  0  0  0  0  0
   -1.4418    3.8810    0.0000 C   0  0  0  0  0  0  0  0  0  0  0  0
   -0.0152    4.3445    0.0000 C   0  0  0  0  0  0  0  0  0  0  0  0
    0.2966    5.8117    0.0000 C   0  0  0  0  0  0  0  0  0  0  0  0
    1.7232    6.2752    0.0000 N   0  0  0  0  0  0  0  0  0  0  0  0
   -0.8181    6.8154    0.0000 O   0  0  0  0  0  0  0  0  0  0  0  0
  1  2  1  0
  2  3  1  0
  3  4  2  0
  3  5  1  0
  5  6  2  0
  6  7  1  0
  7  8  2  0
  8  9  1  0
  9 10  2  0
  2 11  1  0
 11 12  2  0
 12 13  1  0
 13 14  2  0
 14 15  1  0
 15 16  2  0
 15 17  1  0
 17 18  1  0
 18 19  2  0
 19 20  1  0
 20 21  2  0
 20 22  1  0
 22 23  2  0
 23 24  1  0
 24 25  2  0
 25 26  1  0
 26 27  2  0
 27 28  1  0
 28 29  2  0
 29 30  1  0
 30 31  2  0
 31 32  1  0
 32 33  2  0
 25 34  1  0
 18 35  1  0
 35 36  1  0
 36 37  1  0
 37 38  1  0
 38 39  1  0
 38 40  2  0
 10  5  1  0
 16 11  1  0
 34 22  1  0
 35 14  1  0
 33 28  1  0
M  END
>  <Compound_ID>  (27) 
CHEMBL485922

>  <Molecule Name>  (27) 
nan

>  <Molecular Weight>  (27) 
550.64

>  <AlogP>  (27) 
4.49

>  <Smiles>  (27) 
CN(C(=O)c1ccccc1)c1ccc2c(c1)[nH]/c(=N\C(=O)c1ccc(/C=C/c3cccnc3)s1)n2CCC(N)=O

>  <Standard Type>  (27) 
IC50

>  <Standard Relation>  (27) 
'='

>  <Standard Units>  (27) 
nM

>  <Standard Value>  (27) 
5.0

>  <Assay ChEMBL ID>  (27) 
CHEMBL942219

>  <Assay Description>  (27) 
Inhibition of ITK by DELPHIA

>  <BAO Format ID>  (27) 
BAO_0000357

>  <BAO Label>  (27) 
single protein format

>  <Assay Organism>  (27) 
None

>  <Target ChEMBL ID>  (27) 
CHEMBL2959

>  <Target Name>  (27) 
Tyrosine-protein kinase ITK/TSK

>  <Target Organism>  (27) 
Homo sapiens

>  <Target Type>  (27) 
SINGLE PROTEIN

>  <Document ChEMBL ID>  (27) 
CHEMBL1152261

>  <Source Description>  (27) 
Scientific Literature

>  <Document Journal>  (27) 
Bioorg Med Chem Lett

>  <Document Year>  (27) 
2008.0

>  <Active>  (27) 
1.0

$$$$

     RDKit          2D

 36 40  0  0  0  0  0  0  0  0999 V2000
    1.5000   -5.1962    0.0000 C   0  0  0  0  0  0  0  0  0  0  0  0
    0.7500   -3.8971    0.0000 N   0  0  0  0  0  0  0  0  0  0  0  0
    1.5000   -2.5981    0.0000 C   0  0  0  0  0  0  0  0  0  0  0  0
    0.7500   -1.2990    0.0000 C   0  0  0  0  0  0  0  0  0  0  0  0
    1.5000    0.0000    0.0000 C   0  0  0  0  0  0  0  0  0  0  0  0
    0.7500    1.2990    0.0000 C   0  0  0  0  0  0  0  0  0  0  0  0
   -0.7500    1.2990    0.0000 C   0  0  0  0  0  0  0  0  0  0  0  0
   -1.5000    0.0000    0.0000 C   0  0  0  0  0  0  0  0  0  0  0  0
   -0.7500   -1.2990    0.0000 C   0  0  0  0  0  0  0  0  0  0  0  0
   -2.9672    0.3119    0.0000 N   0  0  0  0  0  0  0  0  0  0  0  0
   -3.1240    1.8037    0.0000 C   0  0  0  0  0  0  0  0  0  0  0  0
   -4.4231    2.5537    0.0000 N   0  0  0  0  0  0  0  0  0  0  0  0
   -5.7221    1.8037    0.0000 C   0  0  0  0  0  0  0  0  0  0  0  0
   -5.7221    0.3037    0.0000 O   0  0  0  0  0  0  0  0  0  0  0  0
   -7.0211    2.5537    0.0000 C   0  0  0  0  0  0  0  0  0  0  0  0
   -8.3914    1.9435    0.0000 C   0  0  0  0  0  0  0  0  0  0  0  0
   -9.3951    3.0583    0.0000 C   0  0  0  0  0  0  0  0  0  0  0  0
   -8.6451    4.3573    0.0000 C   0  0  0  0  0  0  0  0  0  0  0  0
   -9.2552    5.7276    0.0000 C   0  0  0  0  0  0  0  0  0  0  0  0
  -10.7225    6.0395    0.0000 C   0  0  0  0  0  0  0  0  0  0  0  0
  -10.8793    7.5313    0.0000 N   0  0  0  0  0  0  0  0  0  0  0  0
   -9.5089    8.1414    0.0000 N   0  0  0  0  0  0  0  0  0  0  0  0
   -8.5052    7.0267    0.0000 C   0  0  0  0  0  0  0  0  0  0  0  0
   -7.1779    4.0454    0.0000 S   0  0  0  0  0  0  0  0  0  0  0  0
   -1.7537    2.4138    0.0000 N   0  0  0  0  0  0  0  0  0  0  0  0
   -1.4418    3.8810    0.0000 C   0  0  0  0  0  0  0  0  0  0  0  0
   -0.0152    4.3445    0.0000 C   0  0  0  0  0  0  0  0  0  0  0  0
    0.4483    2.9179    0.0000 C   0  0  0  0  0  0  0  0  0  0  0  0
   -0.4788    5.7711    0.0000 C   0  0  0  0  0  0  0  0  0  0  0  0
    1.4113    4.8080    0.0000 O   0  0  0  0  0  0  0  0  0  0  0  0
   -0.7500   -3.8971    0.0000 C   0  0  0  0  0  0  0  0  0  0  0  0
   -1.5000   -2.5981    0.0000 C   0  0  0  0  0  0  0  0  0  0  0  0
   -3.0000   -2.5981    0.0000 C   0  0  0  0  0  0  0  0  0  0  0  0
   -3.7500   -3.8971    0.0000 C   0  0  0  0  0  0  0  0  0  0  0  0
   -3.0000   -5.1962    0.0000 C   0  0  0  0  0  0  0  0  0  0  0  0
   -1.5000   -5.1962    0.0000 C   0  0  0  0  0  0  0  0  0  0  0  0
  1  2  1  0
  2  3  1  0
  3  4  1  0
  4  5  2  0
  5  6  1  0
  6  7  2  0
  7  8  1  0
  8  9  2  0
  8 10  1  0
 10 11  1  0
 11 12  2  0
 12 13  1  0
 13 14  2  0
 13 15  1  0
 15 16  2  0
 16 17  1  0
 17 18  2  0
 18 19  1  0
 19 20  1  0
 20 21  2  0
 21 22  1  0
 22 23  1  0
 18 24  1  0
 11 25  1  0
 25 26  1  0
 26 27  1  0
 27 28  1  0
 27 29  1  0
 27 30  1  0
  2 31  1  0
 31 32  1  0
 32 33  1  0
 33 34  1  0
 34 35  1  0
 35 36  1  0
  9  4  1  0
 24 15  1  0
 36 31  1  0
 25  7  1  0
 23 19  2  0
M  END
>  <Compound_ID>  (28) 
CHEMBL522849

>  <Molecule Name>  (28) 
nan

>  <Molecular Weight>  (28) 
506.68

>  <AlogP>  (28) 
4.70

>  <Smiles>  (28) 
CN(Cc1ccc2c(c1)[nH]/c(=N\C(=O)c1ccc(-c3cn[nH]c3)s1)n2CC(C)(C)O)C1CCCCC1

>  <Standard Type>  (28) 
IC50

>  <Standard Relation>  (28) 
'='

>  <Standard Units>  (28) 
nM

>  <Standard Value>  (28) 
2.0

>  <Assay ChEMBL ID>  (28) 
CHEMBL1018826

>  <Assay Description>  (28) 
Binding affinity to ITK by DELFIA-based molecular assay

>  <BAO Format ID>  (28) 
BAO_0000357

>  <BAO Label>  (28) 
single protein format

>  <Assay Organism>  (28) 
None

>  <Target ChEMBL ID>  (28) 
CHEMBL2959

>  <Target Name>  (28) 
Tyrosine-protein kinase ITK/TSK

>  <Target Organism>  (28) 
Homo sapiens

>  <Target Type>  (28) 
SINGLE PROTEIN

>  <Document ChEMBL ID>  (28) 
CHEMBL1153328

>  <Source Description>  (28) 
Scientific Literature

>  <Document Journal>  (28) 
Bioorg Med Chem Lett

>  <Document Year>  (28) 
2009.0

>  <Active>  (28) 
1.0

$$$$

     RDKit          2D

 35 39  0  0  0  0  0  0  0  0999 V2000
   -2.7511   -1.0707    0.0000 C   0  0  0  0  0  0  0  0  0  0  0  0
   -3.7548   -2.1855    0.0000 C   0  0  0  0  0  0  0  0  0  0  0  0
   -4.7585   -3.3002    0.0000 C   0  0  0  0  0  0  0  0  0  0  0  0
   -4.8695   -1.1818    0.0000 O   0  0  0  0  0  0  0  0  0  0  0  0
   -2.6401   -3.1891    0.0000 C   0  0  0  0  0  0  0  0  0  0  0  0
   -1.2135   -2.7256    0.0000 N   0  0  0  0  0  0  0  0  0  0  0  0
   -0.0000   -3.6073    0.0000 C   0  0  0  0  0  0  0  0  0  0  0  0
   -0.0000   -5.1073    0.0000 N   0  0  0  0  0  0  0  0  0  0  0  0
    1.2990   -5.8573    0.0000 C   0  0  0  0  0  0  0  0  0  0  0  0
    2.5981   -5.1073    0.0000 O   0  0  0  0  0  0  0  0  0  0  0  0
    1.2990   -7.3573    0.0000 C   0  0  0  0  0  0  0  0  0  0  0  0
    2.5126   -8.2390    0.0000 C   0  0  0  0  0  0  0  0  0  0  0  0
    2.0490   -9.6656    0.0000 C   0  0  0  0  0  0  0  0  0  0  0  0
    0.5490   -9.6656    0.0000 C   0  0  0  0  0  0  0  0  0  0  0  0
   -0.3326  -10.8791    0.0000 C   0  0  0  0  0  0  0  0  0  0  0  0
    0.1309  -12.3057    0.0000 C   0  0  0  0  0  0  0  0  0  0  0  0
   -1.0826  -13.1874    0.0000 N   0  0  0  0  0  0  0  0  0  0  0  0
   -2.2962  -12.3057    0.0000 N   0  0  0  0  0  0  0  0  0  0  0  0
   -1.8326  -10.8791    0.0000 C   0  0  0  0  0  0  0  0  0  0  0  0
    0.0855   -8.2390    0.0000 S   0  0  0  0  0  0  0  0  0  0  0  0
    1.2135   -2.7256    0.0000 N   0  0  0  0  0  0  0  0  0  0  0  0
    0.7500   -1.2990    0.0000 C   0  0  0  0  0  0  0  0  0  0  0  0
    1.5000    0.0000    0.0000 C   0  0  0  0  0  0  0  0  0  0  0  0
    0.7500    1.2990    0.0000 C   0  0  0  0  0  0  0  0  0  0  0  0
    1.5000    2.5981    0.0000 C   0  0  0  0  0  0  0  0  0  0  0  0
    3.0000    2.5981    0.0000 N   0  0  0  0  0  0  0  0  0  0  0  0
    3.7500    3.8971    0.0000 C   0  0  0  0  0  0  0  0  0  0  0  0
    5.2500    3.8971    0.0000 C   0  0  0  0  0  0  0  0  0  0  0  0
    6.0000    5.1962    0.0000 C   0  0  0  0  0  0  0  0  0  0  0  0
    5.2500    6.4952    0.0000 C   0  0  0  0  0  0  0  0  0  0  0  0
    3.7500    6.4952    0.0000 C   0  0  0  0  0  0  0  0  0  0  0  0
    3.0000    5.1962    0.0000 C   0  0  0  0  0  0  0  0  0  0  0  0
   -0.7500    1.2990    0.0000 C   0  0  0  0  0  0  0  0  0  0  0  0
   -1.5000    0.0000    0.0000 C   0  0  0  0  0  0  0  0  0  0  0  0
   -0.7500   -1.2990    0.0000 C   0  0  0  0  0  0  0  0  0  0  0  0
  1  2  1  0
  2  3  1  0
  2  4  1  0
  2  5  1  0
  5  6  1  0
  6  7  1  0
  7  8  2  0
  8  9  1  0
  9 10  2  0
  9 11  1  0
 11 12  2  0
 12 13  1  0
 13 14  2  0
 14 15  1  0
 15 16  1  0
 16 17  2  0
 17 18  1  0
 18 19  1  0
 14 20  1  0
  7 21  1  0
 21 22  1  0
 22 23  2  0
 23 24  1  0
 24 25  1  0
 25 26  1  0
 26 27  1  0
 27 28  1  0
 28 29  1  0
 29 30  1  0
 30 31  1  0
 31 32  1  0
 24 33  2  0
 33 34  1  0
 34 35  2  0
 35  6  1  0
 20 11  1  0
 35 22  1  0
 19 15  2  0
 32 27  1  0
M  END
>  <Compound_ID>  (29) 
CHEMBL493928

>  <Molecule Name>  (29) 
nan

>  <Molecular Weight>  (29) 
492.65

>  <AlogP>  (29) 
4.36

>  <Smiles>  (29) 
CC(C)(O)Cn1/c(=N/C(=O)c2ccc(-c3cn[nH]c3)s2)[nH]c2cc(CNC3CCCCC3)ccc21

>  <Standard Type>  (29) 
IC50

>  <Standard Relation>  (29) 
'='

>  <Standard Units>  (29) 
nM

>  <Standard Value>  (29) 
99.0

>  <Assay ChEMBL ID>  (29) 
CHEMBL1018827

>  <Assay Description>  (29) 
Inhibition of ITK in presence of 1 mM ATP

>  <BAO Format ID>  (29) 
BAO_0000357

>  <BAO Label>  (29) 
single protein format

>  <Assay Organism>  (29) 
None

>  <Target ChEMBL ID>  (29) 
CHEMBL2959

>  <Target Name>  (29) 
Tyrosine-protein kinase ITK/TSK

>  <Target Organism>  (29) 
Homo sapiens

>  <Target Type>  (29) 
SINGLE PROTEIN

>  <Document ChEMBL ID>  (29) 
CHEMBL1153328

>  <Source Description>  (29) 
Scientific Literature

>  <Document Journal>  (29) 
Bioorg Med Chem Lett

>  <Document Year>  (29) 
2009.0

>  <Active>  (29) 
1.0

$$$$

     RDKit          2D

 26 29  0  0  0  0  0  0  0  0999 V2000
  -13.1357   -0.3314    0.0000 N   0  0  0  0  0  0  0  0  0  0  0  0
  -11.7091   -0.7949    0.0000 C   0  0  0  0  0  0  0  0  0  0  0  0
  -10.2825   -1.2584    0.0000 C   0  0  0  0  0  0  0  0  0  0  0  0
   -9.1678   -0.2547    0.0000 C   0  0  0  0  0  0  0  0  0  0  0  0
   -7.7412   -0.7182    0.0000 C   0  0  0  0  0  0  0  0  0  0  0  0
   -7.4293   -2.1855    0.0000 C   0  0  0  0  0  0  0  0  0  0  0  0
   -8.5441   -3.1891    0.0000 C   0  0  0  0  0  0  0  0  0  0  0  0
   -8.2322   -4.6564    0.0000 C   0  0  0  0  0  0  0  0  0  0  0  0
   -6.8056   -5.1199    0.0000 N   0  0  0  0  0  0  0  0  0  0  0  0
   -5.5921   -4.2382    0.0000 C   0  0  0  0  0  0  0  0  0  0  0  0
   -4.3786   -5.1199    0.0000 C   0  0  0  0  0  0  0  0  0  0  0  0
   -2.9520   -4.6564    0.0000 N   0  0  0  0  0  0  0  0  0  0  0  0
   -2.6401   -3.1891    0.0000 C   0  0  0  0  0  0  0  0  0  0  0  0
   -3.7548   -2.1855    0.0000 O   0  0  0  0  0  0  0  0  0  0  0  0
   -1.2135   -2.7256    0.0000 C   0  0  0  0  0  0  0  0  0  0  0  0
   -0.0000   -3.6073    0.0000 N   0  0  0  0  0  0  0  0  0  0  0  0
    1.2135   -2.7256    0.0000 N   0  0  0  0  0  0  0  0  0  0  0  0
    0.7500   -1.2990    0.0000 C   0  0  0  0  0  0  0  0  0  0  0  0
    1.5000    0.0000    0.0000 C   0  0  0  0  0  0  0  0  0  0  0  0
    0.7500    1.2990    0.0000 C   0  0  0  0  0  0  0  0  0  0  0  0
   -0.7500    1.2990    0.0000 C   0  0  0  0  0  0  0  0  0  0  0  0
   -1.5000    0.0000    0.0000 C   0  0  0  0  0  0  0  0  0  0  0  0
   -0.7500   -1.2990    0.0000 C   0  0  0  0  0  0  0  0  0  0  0  0
   -4.8421   -6.5465    0.0000 C   0  0  0  0  0  0  0  0  0  0  0  0
   -6.3421   -6.5465    0.0000 N   0  0  0  0  0  0  0  0  0  0  0  0
   -9.9707   -2.7256    0.0000 C   0  0  0  0  0  0  0  0  0  0  0  0
  1  2  3  0
  2  3  1  0
  3  4  2  0
  4  5  1  0
  5  6  2  0
  6  7  1  0
  7  8  1  0
  8  9  1  0
  9 10  1  0
 10 11  2  0
 11 12  1  0
 12 13  1  0
 13 14  2  0
 13 15  1  0
 15 16  2  0
 16 17  1  0
 17 18  1  0
 18 19  2  0
 19 20  1  0
 20 21  2  0
 21 22  1  0
 22 23  2  0
 11 24  1  0
 24 25  2  0
  7 26  2  0
 26  3  1  0
 25  9  1  0
 23 15  1  0
 23 18  1  0
M  END
>  <Compound_ID>  (30) 
CHEMBL3262780

>  <Molecule Name>  (30) 
nan

>  <Molecular Weight>  (30) 
342.36

>  <AlogP>  (30) 
2.93

>  <Smiles>  (30) 
N#Cc1cccc(Cn2cc(NC(=O)c3n[nH]c4ccccc34)cn2)c1

>  <Standard Type>  (30) 
Ki

>  <Standard Relation>  (30) 
'='

>  <Standard Units>  (30) 
nM

>  <Standard Value>  (30) 
15.0

>  <Assay ChEMBL ID>  (30) 
CHEMBL3267591

>  <Assay Description>  (30) 
Inhibition of full-length ITK (unknown origin) using biotin-EQEDEPEGIYGVLF-NH2 as substrate by plate reader analysis

>  <BAO Format ID>  (30) 
BAO_0000357

>  <BAO Label>  (30) 
single protein format

>  <Assay Organism>  (30) 
Homo sapiens

>  <Target ChEMBL ID>  (30) 
CHEMBL2959

>  <Target Name>  (30) 
Tyrosine-protein kinase ITK/TSK

>  <Target Organism>  (30) 
Homo sapiens

>  <Target Type>  (30) 
SINGLE PROTEIN

>  <Document ChEMBL ID>  (30) 
CHEMBL3259776

>  <Source Description>  (30) 
Scientific Literature

>  <Document Journal>  (30) 
Bioorg Med Chem Lett

>  <Document Year>  (30) 
2014.0

>  <Active>  (30) 
1.0

$$$$

     RDKit          2D

 26 28  0  0  0  0  0  0  0  0999 V2000
    8.2500   -6.4952    0.0000 C   0  0  0  0  0  0  0  0  0  0  0  0
    7.5000   -5.1962    0.0000 C   0  0  0  0  0  0  0  0  0  0  0  0
    6.0000   -5.1962    0.0000 C   0  0  0  0  0  0  0  0  0  0  0  0
    5.2500   -6.4952    0.0000 O   0  0  0  0  0  0  0  0  0  0  0  0
    5.2500   -3.8971    0.0000 N   0  0  0  0  0  0  0  0  0  0  0  0
    3.7500   -3.8971    0.0000 C   0  0  0  0  0  0  0  0  0  0  0  0
    3.0000   -5.1962    0.0000 C   0  0  0  0  0  0  0  0  0  0  0  0
    1.5000   -5.1962    0.0000 C   0  0  0  0  0  0  0  0  0  0  0  0
    0.7500   -3.8971    0.0000 C   0  0  0  0  0  0  0  0  0  0  0  0
    1.5000   -2.5981    0.0000 C   0  0  0  0  0  0  0  0  0  0  0  0
    0.7500   -1.2990    0.0000 C   0  0  0  0  0  0  0  0  0  0  0  0
    1.5000    0.0000    0.0000 C   0  0  0  0  0  0  0  0  0  0  0  0
    0.7500    1.2990    0.0000 C   0  0  0  0  0  0  0  0  0  0  0  0
   -0.7500    1.2990    0.0000 C   0  0  0  0  0  0  0  0  0  0  0  0
   -1.5000    2.5981    0.0000 C   0  0  0  0  0  0  0  0  0  0  0  0
   -0.7500    3.8971    0.0000 N   0  0  0  0  0  0  0  0  0  0  0  0
   -3.0000    2.5981    0.0000 O   0  0  0  0  0  0  0  0  0  0  0  0
   -1.5000    0.0000    0.0000 C   0  0  0  0  0  0  0  0  0  0  0  0
   -2.9672   -0.3119    0.0000 N   0  0  0  0  0  0  0  0  0  0  0  0
   -3.1240   -1.8037    0.0000 C   0  0  0  0  0  0  0  0  0  0  0  0
   -4.4231   -2.5537    0.0000 C   0  0  0  0  0  0  0  0  0  0  0  0
   -1.7537   -2.4138    0.0000 C   0  0  0  0  0  0  0  0  0  0  0  0
   -1.4418   -3.8810    0.0000 C   0  0  0  0  0  0  0  0  0  0  0  0
   -0.7500   -1.2990    0.0000 C   0  0  0  0  0  0  0  0  0  0  0  0
    3.0000   -2.5981    0.0000 C   0  0  0  0  0  0  0  0  0  0  0  0
    3.7500   -1.2990    0.0000 C   0  0  0  0  0  0  0  0  0  0  0  0
  1  2  2  0
  2  3  1  0
  3  4  2  0
  3  5  1  0
  5  6  1  0
  6  7  2  0
  7  8  1  0
  8  9  2  0
  9 10  1  0
 10 11  1  0
 11 12  2  0
 12 13  1  0
 13 14  2  0
 14 15  1  0
 15 16  1  0
 15 17  2  0
 14 18  1  0
 18 19  1  0
 19 20  1  0
 20 21  1  0
 20 22  2  0
 22 23  1  0
 22 24  1  0
 10 25  2  0
 25 26  1  0
 25  6  1  0
 24 11  1  0
 24 18  2  0
M  END
>  <Compound_ID>  (31) 
CHEMBL4237557

>  <Molecule Name>  (31) 
nan

>  <Molecular Weight>  (31) 
347.42

>  <AlogP>  (31) 
3.98

>  <Smiles>  (31) 
C=CC(=O)Nc1cccc(-c2ccc(C(N)=O)c3[nH]c(C)c(C)c23)c1C

>  <Standard Type>  (31) 
IC50

>  <Standard Relation>  (31) 
'='

>  <Standard Units>  (31) 
nM

>  <Standard Value>  (31) 
88.0

>  <Assay ChEMBL ID>  (31) 
CHEMBL4235701

>  <Assay Description>  (31) 
Inhibition of ITK (unknown origin)

>  <BAO Format ID>  (31) 
BAO_0000357

>  <BAO Label>  (31) 
single protein format

>  <Assay Organism>  (31) 
Homo sapiens

>  <Target ChEMBL ID>  (31) 
CHEMBL2959

>  <Target Name>  (31) 
Tyrosine-protein kinase ITK/TSK

>  <Target Organism>  (31) 
Homo sapiens

>  <Target Type>  (31) 
SINGLE PROTEIN

>  <Document ChEMBL ID>  (31) 
CHEMBL4229517

>  <Source Description>  (31) 
Scientific Literature

>  <Document Journal>  (31) 
Bioorg Med Chem Lett

>  <Document Year>  (31) 
2018.0

>  <Active>  (31) 
1.0

$$$$

     RDKit          2D

 26 29  0  0  0  0  0  0  0  0999 V2000
   -9.7915    2.6797    0.0000 N   0  0  0  0  0  0  0  0  0  0  0  0
   -9.4797    1.2125    0.0000 C   0  0  0  0  0  0  0  0  0  0  0  0
   -9.1678   -0.2547    0.0000 C   0  0  0  0  0  0  0  0  0  0  0  0
   -7.7412   -0.7182    0.0000 C   0  0  0  0  0  0  0  0  0  0  0  0
   -7.4293   -2.1855    0.0000 C   0  0  0  0  0  0  0  0  0  0  0  0
   -8.5441   -3.1891    0.0000 C   0  0  0  0  0  0  0  0  0  0  0  0
   -8.2322   -4.6564    0.0000 C   0  0  0  0  0  0  0  0  0  0  0  0
   -6.8056   -5.1199    0.0000 N   0  0  0  0  0  0  0  0  0  0  0  0
   -5.5921   -4.2382    0.0000 C   0  0  0  0  0  0  0  0  0  0  0  0
   -4.3786   -5.1199    0.0000 C   0  0  0  0  0  0  0  0  0  0  0  0
   -2.9520   -4.6564    0.0000 N   0  0  0  0  0  0  0  0  0  0  0  0
   -2.6401   -3.1891    0.0000 C   0  0  0  0  0  0  0  0  0  0  0  0
   -3.7548   -2.1855    0.0000 O   0  0  0  0  0  0  0  0  0  0  0  0
   -1.2135   -2.7256    0.0000 C   0  0  0  0  0  0  0  0  0  0  0  0
   -0.0000   -3.6073    0.0000 N   0  0  0  0  0  0  0  0  0  0  0  0
    1.2135   -2.7256    0.0000 N   0  0  0  0  0  0  0  0  0  0  0  0
    0.7500   -1.2990    0.0000 C   0  0  0  0  0  0  0  0  0  0  0  0
    1.5000    0.0000    0.0000 C   0  0  0  0  0  0  0  0  0  0  0  0
    0.7500    1.2990    0.0000 C   0  0  0  0  0  0  0  0  0  0  0  0
   -0.7500    1.2990    0.0000 C   0  0  0  0  0  0  0  0  0  0  0  0
   -1.5000    0.0000    0.0000 C   0  0  0  0  0  0  0  0  0  0  0  0
   -0.7500   -1.2990    0.0000 C   0  0  0  0  0  0  0  0  0  0  0  0
   -4.8421   -6.5465    0.0000 C   0  0  0  0  0  0  0  0  0  0  0  0
   -6.3421   -6.5465    0.0000 N   0  0  0  0  0  0  0  0  0  0  0  0
   -9.9707   -2.7256    0.0000 C   0  0  0  0  0  0  0  0  0  0  0  0
  -10.2825   -1.2584    0.0000 C   0  0  0  0  0  0  0  0  0  0  0  0
  1  2  3  0
  2  3  1  0
  3  4  2  0
  4  5  1  0
  5  6  2  0
  6  7  1  0
  7  8  1  0
  8  9  1  0
  9 10  2  0
 10 11  1  0
 11 12  1  0
 12 13  2  0
 12 14  1  0
 14 15  2  0
 15 16  1  0
 16 17  1  0
 17 18  2  0
 18 19  1  0
 19 20  2  0
 20 21  1  0
 21 22  2  0
 10 23  1  0
 23 24  2  0
  6 25  1  0
 25 26  2  0
 26  3  1  0
 24  8  1  0
 22 14  1  0
 22 17  1  0
M  END
>  <Compound_ID>  (32) 
CHEMBL3263046

>  <Molecule Name>  (32) 
nan

>  <Molecular Weight>  (32) 
342.36

>  <AlogP>  (32) 
2.93

>  <Smiles>  (32) 
N#Cc1ccc(Cn2cc(NC(=O)c3n[nH]c4ccccc34)cn2)cc1

>  <Standard Type>  (32) 
Ki

>  <Standard Relation>  (32) 
'='

>  <Standard Units>  (32) 
nM

>  <Standard Value>  (32) 
27.0

>  <Assay ChEMBL ID>  (32) 
CHEMBL3267591

>  <Assay Description>  (32) 
Inhibition of full-length ITK (unknown origin) using biotin-EQEDEPEGIYGVLF-NH2 as substrate by plate reader analysis

>  <BAO Format ID>  (32) 
BAO_0000357

>  <BAO Label>  (32) 
single protein format

>  <Assay Organism>  (32) 
Homo sapiens

>  <Target ChEMBL ID>  (32) 
CHEMBL2959

>  <Target Name>  (32) 
Tyrosine-protein kinase ITK/TSK

>  <Target Organism>  (32) 
Homo sapiens

>  <Target Type>  (32) 
SINGLE PROTEIN

>  <Document ChEMBL ID>  (32) 
CHEMBL3259776

>  <Source Description>  (32) 
Scientific Literature

>  <Document Journal>  (32) 
Bioorg Med Chem Lett

>  <Document Year>  (32) 
2014.0

>  <Active>  (32) 
1.0

$$$$

     RDKit          2D

 30 34  0  0  0  0  0  0  0  0999 V2000
    8.2500   -6.4952    0.0000 C   0  0  0  0  0  0  0  0  0  0  0  0
    7.5000   -5.1962    0.0000 C   0  0  0  0  0  0  0  0  0  0  0  0
    6.0000   -5.1962    0.0000 C   0  0  0  0  0  0  0  0  0  0  0  0
    5.2500   -6.4952    0.0000 O   0  0  0  0  0  0  0  0  0  0  0  0
    5.2500   -3.8971    0.0000 N   0  0  0  0  0  0  0  0  0  0  0  0
    3.7500   -3.8971    0.0000 C   0  0  0  0  0  0  0  0  0  0  0  0
    3.0000   -5.1962    0.0000 C   0  0  0  0  0  0  0  0  0  0  0  0
    1.5000   -5.1962    0.0000 C   0  0  0  0  0  0  0  0  0  0  0  0
    0.7500   -3.8971    0.0000 C   0  0  0  0  0  0  0  0  0  0  0  0
    1.5000   -2.5981    0.0000 C   0  0  0  0  0  0  0  0  0  0  0  0
    0.7500   -1.2990    0.0000 C   0  0  0  0  0  0  0  0  0  0  0  0
    1.5000    0.0000    0.0000 C   0  0  0  0  0  0  0  0  0  0  0  0
    0.7500    1.2990    0.0000 N   0  0  0  0  0  0  0  0  0  0  0  0
   -0.7500    1.2990    0.0000 C   0  0  0  0  0  0  0  0  0  0  0  0
   -1.7537    2.4138    0.0000 N   0  0  0  0  0  0  0  0  0  0  0  0
   -3.1240    1.8037    0.0000 C   0  0  0  0  0  0  0  0  0  0  0  0
   -2.9672    0.3119    0.0000 C   0  0  0  0  0  0  0  0  0  0  0  0
   -4.0819   -0.6918    0.0000 C   0  0  0  0  0  0  0  0  0  0  0  0
   -5.5492   -0.3800    0.0000 C   0  0  0  0  0  0  0  0  0  0  0  0
   -6.2992   -1.6790    0.0000 C   0  0  0  0  0  0  0  0  0  0  0  0
   -7.7664   -1.9909    0.0000 C   0  0  0  0  0  0  0  0  0  0  0  0
   -8.2299   -3.4175    0.0000 C   0  0  0  0  0  0  0  0  0  0  0  0
   -7.2262   -4.5322    0.0000 C   0  0  0  0  0  0  0  0  0  0  0  0
   -7.6897   -5.9588    0.0000 C   0  0  0  0  0  0  0  0  0  0  0  0
   -5.7590   -4.2203    0.0000 C   0  0  0  0  0  0  0  0  0  0  0  0
   -5.2955   -2.7937    0.0000 C   0  0  0  0  0  0  0  0  0  0  0  0
   -3.9251   -2.1836    0.0000 N   0  0  0  0  0  0  0  0  0  0  0  0
   -1.5000    0.0000    0.0000 C   0  0  0  0  0  0  0  0  0  0  0  0
   -0.7500   -1.2990    0.0000 C   0  0  0  0  0  0  0  0  0  0  0  0
    3.0000   -2.5981    0.0000 C   0  0  0  0  0  0  0  0  0  0  0  0
  1  2  2  0
  2  3  1  0
  3  4  2  0
  3  5  1  0
  5  6  1  0
  6  7  2  0
  7  8  1  0
  8  9  2  0
  9 10  1  0
 10 11  1  0
 11 12  2  0
 12 13  1  0
 13 14  2  0
 14 15  1  0
 15 16  1  0
 16 17  2  0
 17 18  1  0
 18 19  2  0
 19 20  1  0
 20 21  2  0
 21 22  1  0
 22 23  2  0
 23 24  1  0
 23 25  1  0
 25 26  2  0
 26 27  1  0
 17 28  1  0
 28 29  2  0
 10 30  2  0
 30  6  1  0
 29 11  1  0
 28 14  1  0
 27 18  1  0
 26 20  1  0
M  END
>  <Compound_ID>  (33) 
CHEMBL3914851

>  <Molecule Name>  (33) 
nan

>  <Molecular Weight>  (33) 
392.46

>  <AlogP>  (33) 
5.81

>  <Smiles>  (33) 
C=CC(=O)Nc1cccc(-c2cnc3[nH]cc(-c4cc5ccc(C)cc5[nH]4)c3c2)c1

>  <Standard Type>  (33) 
IC50

>  <Standard Relation>  (33) 
'='

>  <Standard Units>  (33) 
nM

>  <Standard Value>  (33) 
30.0

>  <Assay ChEMBL ID>  (33) 
CHEMBL3887687

>  <Assay Description>  (33) 
Biochemical Inhibition Assay: 1H-pyrrolo[2,3-b]pyridine, 1H-pyrazolo[3,4-b]pyridine and 5H-pyrrolo[2,3-b]pyrazine series of compounds exhibited over >100 fold selective against Janus and TEC family of kinases except for the BMX and TXK it had activity of 30 and 45 nM respectively.

>  <BAO Format ID>  (33) 
BAO_0000357

>  <BAO Label>  (33) 
single protein format

>  <Assay Organism>  (33) 
Homo sapiens

>  <Target ChEMBL ID>  (33) 
CHEMBL2959

>  <Target Name>  (33) 
Tyrosine-protein kinase ITK/TSK

>  <Target Organism>  (33) 
Homo sapiens

>  <Target Type>  (33) 
SINGLE PROTEIN

>  <Document ChEMBL ID>  (33) 
CHEMBL3886406

>  <Source Description>  (33) 
BindingDB Database

>  <Document Journal>  (33) 
nan

>  <Document Year>  (33) 
2015.0

>  <Active>  (33) 
1.0

$$$$

     RDKit          2D

 32 36  0  0  0  0  0  0  0  0999 V2000
   -5.1962    0.8927    0.0000 O   0  0  0  0  0  0  0  0  0  0  0  0
   -5.1962   -0.6073    0.0000 C   0  0  0  0  0  0  0  0  0  0  0  0
   -3.8971   -1.3573    0.0000 C   0  0  0  0  0  0  0  0  0  0  0  0
   -3.8971   -2.8573    0.0000 C   0  0  0  0  0  0  0  0  0  0  0  0
   -5.1962   -3.6073    0.0000 C   0  0  0  0  0  0  0  0  0  0  0  0
   -5.1962   -5.1073    0.0000 N   0  0  0  0  0  0  0  0  0  0  0  0
   -3.8971   -5.8573    0.0000 C   0  0  0  0  0  0  0  0  0  0  0  0
   -3.8971   -7.3573    0.0000 N   0  0  0  0  0  0  0  0  0  0  0  0
   -2.5981   -8.1073    0.0000 C   0  0  0  0  0  0  0  0  0  0  0  0
   -2.5981   -9.6073    0.0000 C   0  0  0  0  0  0  0  0  0  0  0  0
   -3.8971  -10.3573    0.0000 C   0  0  0  0  0  0  0  0  0  0  0  0
   -5.1962   -9.6073    0.0000 C   0  0  0  0  0  0  0  0  0  0  0  0
   -6.4952  -10.3573    0.0000 C   0  0  0  0  0  0  0  0  0  0  0  0
   -6.4952  -11.8573    0.0000 C   0  0  0  0  0  0  0  0  0  0  0  0
   -5.1962  -12.6073    0.0000 C   0  0  0  0  0  0  0  0  0  0  0  0
   -3.8971  -11.8573    0.0000 C   0  0  0  0  0  0  0  0  0  0  0  0
   -1.2990   -7.3573    0.0000 C   0  0  0  0  0  0  0  0  0  0  0  0
   -1.2990   -5.8573    0.0000 C   0  0  0  0  0  0  0  0  0  0  0  0
   -0.0000   -5.1073    0.0000 N   0  0  0  0  0  0  0  0  0  0  0  0
   -0.0000   -3.6073    0.0000 C   0  0  0  0  0  0  0  0  0  0  0  0
    1.2135   -2.7256    0.0000 N   0  0  0  0  0  0  0  0  0  0  0  0
    0.7500   -1.2990    0.0000 C   0  0  0  0  0  0  0  0  0  0  0  0
    1.5000    0.0000    0.0000 C   0  0  0  0  0  0  0  0  0  0  0  0
    0.7500    1.2990    0.0000 C   0  0  0  0  0  0  0  0  0  0  0  0
   -0.7500    1.2990    0.0000 C   0  0  0  0  0  0  0  0  0  0  0  0
   -1.5000    2.5981    0.0000 Cl  0  0  0  0  0  0  0  0  0  0  0  0
   -1.5000    0.0000    0.0000 C   0  0  0  0  0  0  0  0  0  0  0  0
   -0.7500   -1.2990    0.0000 C   0  0  0  0  0  0  0  0  0  0  0  0
   -1.2135   -2.7256    0.0000 S   0  0  0  0  0  0  0  0  0  0  0  0
   -2.5981   -5.1073    0.0000 N   0  0  0  0  0  0  0  0  0  0  0  0
   -6.4952   -2.8573    0.0000 C   0  0  0  0  0  0  0  0  0  0  0  0
   -6.4952   -1.3573    0.0000 C   0  0  0  0  0  0  0  0  0  0  0  0
  2  1  1  1
  2  3  1  0
  3  4  1  0
  4  5  1  0
  5  6  1  6
  6  7  1  0
  7  8  2  0
  8  9  1  0
  9 10  1  0
 10 11  1  0
 11 12  2  0
 12 13  1  0
 13 14  2  0
 14 15  1  0
 15 16  2  0
  9 17  2  0
 17 18  1  0
 18 19  1  0
 19 20  1  0
 20 21  2  0
 21 22  1  0
 22 23  2  0
 23 24  1  0
 24 25  2  0
 25 26  1  0
 25 27  1  0
 27 28  2  0
 28 29  1  0
 18 30  2  0
  5 31  1  0
 31 32  1  0
 32  2  1  0
 30  7  1  0
 16 11  1  0
 29 20  1  0
 28 22  1  0
M  END
>  <Compound_ID>  (34) 
CHEMBL2441271

>  <Molecule Name>  (34) 
nan

>  <Molecular Weight>  (34) 
466.01

>  <AlogP>  (34) 
5.79

>  <Smiles>  (34) 
O[C@H]1CC[C@H](Nc2nc(Cc3ccccc3)cc(Nc3nc4ccc(Cl)cc4s3)n2)CC1

>  <Standard Type>  (34) 
Ki

>  <Standard Relation>  (34) 
'='

>  <Standard Units>  (34) 
nM

>  <Standard Value>  (34) 
0.3162

>  <Assay ChEMBL ID>  (34) 
CHEMBL2446687

>  <Assay Description>  (34) 
Inhibition of recombinant human FLAG-tagged ITK using biotinylated GST-SAM68 as substrate after 30 mins

>  <BAO Format ID>  (34) 
BAO_0000357

>  <BAO Label>  (34) 
single protein format

>  <Assay Organism>  (34) 
Homo sapiens

>  <Target ChEMBL ID>  (34) 
CHEMBL2959

>  <Target Name>  (34) 
Tyrosine-protein kinase ITK/TSK

>  <Target Organism>  (34) 
Homo sapiens

>  <Target Type>  (34) 
SINGLE PROTEIN

>  <Document ChEMBL ID>  (34) 
CHEMBL2440060

>  <Source Description>  (34) 
Scientific Literature

>  <Document Journal>  (34) 
ACS Med Chem Lett

>  <Document Year>  (34) 
2013.0

>  <Active>  (34) 
1.0

$$$$

     RDKit          2D

 28 31  0  0  0  0  0  0  0  0999 V2000
   -2.4240   -6.1312    0.0000 C   0  0  0  0  0  0  0  0  0  0  0  0
   -1.0537   -5.5211    0.0000 C   0  0  0  0  0  0  0  0  0  0  0  0
    0.2454   -6.2711    0.0000 C   0  0  0  0  0  0  0  0  0  0  0  0
    1.3601   -5.2674    0.0000 N   0  0  0  0  0  0  0  0  0  0  0  0
    0.7500   -3.8971    0.0000 C   0  0  0  0  0  0  0  0  0  0  0  0
    1.5000   -2.5981    0.0000 N   0  0  0  0  0  0  0  0  0  0  0  0
    0.7500   -1.2990    0.0000 C   0  0  0  0  0  0  0  0  0  0  0  0
    1.5000    0.0000    0.0000 C   0  0  0  0  0  0  0  0  0  0  0  0
    0.7500    1.2990    0.0000 C   0  0  0  0  0  0  0  0  0  0  0  0
    1.5000    2.5981    0.0000 C   0  0  0  0  0  0  0  0  0  0  0  0
    3.0000    2.5981    0.0000 C   0  0  0  0  0  0  0  0  0  0  0  0
    3.7500    1.2990    0.0000 C   0  0  0  0  0  0  0  0  0  0  0  0
    5.2500    1.2990    0.0000 C   0  0  0  0  0  0  0  0  0  0  0  0
    6.0000    2.5981    0.0000 C   0  0  0  0  0  0  0  0  0  0  0  0
    5.2500    3.8971    0.0000 C   0  0  0  0  0  0  0  0  0  0  0  0
    3.7500    3.8971    0.0000 C   0  0  0  0  0  0  0  0  0  0  0  0
   -0.7500    1.2990    0.0000 N   0  0  0  0  0  0  0  0  0  0  0  0
   -1.5000    0.0000    0.0000 C   0  0  0  0  0  0  0  0  0  0  0  0
   -3.0000    0.0000    0.0000 N   0  0  0  0  0  0  0  0  0  0  0  0
   -3.7500    1.2990    0.0000 C   0  0  0  0  0  0  0  0  0  0  0  0
   -3.0000    2.5981    0.0000 C   0  0  0  0  0  0  0  0  0  0  0  0
   -3.7500    3.8971    0.0000 C   0  0  0  0  0  0  0  0  0  0  0  0
   -5.2500    3.8971    0.0000 C   0  0  0  0  0  0  0  0  0  0  0  0
   -6.0000    5.1962    0.0000 O   0  0  0  0  0  0  0  0  0  0  0  0
   -6.0000    2.5981    0.0000 C   0  0  0  0  0  0  0  0  0  0  0  0
   -5.2500    1.2990    0.0000 C   0  0  0  0  0  0  0  0  0  0  0  0
   -0.7500   -1.2990    0.0000 N   0  0  0  0  0  0  0  0  0  0  0  0
   -0.7418   -4.0539    0.0000 S   0  0  0  0  0  0  0  0  0  0  0  0
  1  2  1  0
  2  3  2  0
  3  4  1  0
  4  5  2  0
  5  6  1  0
  6  7  1  0
  7  8  2  0
  8  9  1  0
  9 10  1  0
 10 11  1  0
 11 12  2  0
 12 13  1  0
 13 14  2  0
 14 15  1  0
 15 16  2  0
  9 17  2  0
 17 18  1  0
 18 19  1  0
 20 19  1  6
 20 21  1  0
 21 22  1  0
 22 23  1  0
 23 24  1  1
 23 25  1  0
 25 26  1  0
 18 27  2  0
  5 28  1  0
 28  2  1  0
 27  7  1  0
 16 11  1  0
 26 20  1  0
M  END
>  <Compound_ID>  (35) 
CHEMBL2441267

>  <Molecule Name>  (35) 
nan

>  <Molecular Weight>  (35) 
395.53

>  <AlogP>  (35) 
4.29

>  <Smiles>  (35) 
Cc1cnc(Nc2cc(Cc3ccccc3)nc(N[C@H]3CC[C@H](O)CC3)n2)s1

>  <Standard Type>  (35) 
Ki

>  <Standard Relation>  (35) 
'='

>  <Standard Units>  (35) 
nM

>  <Standard Value>  (35) 
1.995

>  <Assay ChEMBL ID>  (35) 
CHEMBL2446687

>  <Assay Description>  (35) 
Inhibition of recombinant human FLAG-tagged ITK using biotinylated GST-SAM68 as substrate after 30 mins

>  <BAO Format ID>  (35) 
BAO_0000357

>  <BAO Label>  (35) 
single protein format

>  <Assay Organism>  (35) 
Homo sapiens

>  <Target ChEMBL ID>  (35) 
CHEMBL2959

>  <Target Name>  (35) 
Tyrosine-protein kinase ITK/TSK

>  <Target Organism>  (35) 
Homo sapiens

>  <Target Type>  (35) 
SINGLE PROTEIN

>  <Document ChEMBL ID>  (35) 
CHEMBL2440060

>  <Source Description>  (35) 
Scientific Literature

>  <Document Journal>  (35) 
ACS Med Chem Lett

>  <Document Year>  (35) 
2013.0

>  <Active>  (35) 
1.0

$$$$

     RDKit          2D

 31 35  0  0  0  0  0  0  0  0999 V2000
    5.9462  -13.9063    0.0000 C   0  0  0  0  0  0  0  0  0  0  0  0
    4.6471  -13.1563    0.0000 N   0  0  0  0  0  0  0  0  0  0  0  0
    3.3481  -13.9063    0.0000 C   0  0  0  0  0  0  0  0  0  0  0  0
    4.6471  -11.6563    0.0000 C   0  0  0  0  0  0  0  0  0  0  0  0
    3.3481  -10.9063    0.0000 C   0  0  0  0  0  0  0  0  0  0  0  0
    2.0490  -11.6563    0.0000 C   0  0  0  0  0  0  0  0  0  0  0  0
    0.7500  -10.9063    0.0000 C   0  0  0  0  0  0  0  0  0  0  0  0
    0.7500   -9.4063    0.0000 C   0  0  0  0  0  0  0  0  0  0  0  0
   -0.5490   -8.6563    0.0000 C   0  0  0  0  0  0  0  0  0  0  0  0
   -2.0490   -8.6563    0.0000 C   0  0  0  0  0  0  0  0  0  0  0  0
   -1.2990   -7.3573    0.0000 C   0  0  0  0  0  0  0  0  0  0  0  0
   -1.2990   -5.8573    0.0000 C   0  0  0  0  0  0  0  0  0  0  0  0
   -2.5981   -5.1073    0.0000 O   0  0  0  0  0  0  0  0  0  0  0  0
   -0.0000   -5.1073    0.0000 N   0  0  0  0  0  0  0  0  0  0  0  0
   -0.0000   -3.6073    0.0000 C   0  0  0  0  0  0  0  0  0  0  0  0
    1.2135   -2.7256    0.0000 N   0  0  0  0  0  0  0  0  0  0  0  0
    0.7500   -1.2990    0.0000 C   0  0  0  0  0  0  0  0  0  0  0  0
    1.5000    0.0000    0.0000 C   0  0  0  0  0  0  0  0  0  0  0  0
    0.7500    1.2990    0.0000 C   0  0  0  0  0  0  0  0  0  0  0  0
   -0.7500    1.2990    0.0000 C   0  0  0  0  0  0  0  0  0  0  0  0
   -1.5000    2.5981    0.0000 C   0  0  0  0  0  0  0  0  0  0  0  0
   -0.7500    3.8971    0.0000 C   0  0  0  0  0  0  0  0  0  0  0  0
   -1.5000    5.1962    0.0000 C   0  0  0  0  0  0  0  0  0  0  0  0
   -3.0000    5.1962    0.0000 C   0  0  0  0  0  0  0  0  0  0  0  0
   -3.7500    3.8971    0.0000 N   0  0  0  0  0  0  0  0  0  0  0  0
   -3.0000    2.5981    0.0000 C   0  0  0  0  0  0  0  0  0  0  0  0
   -1.5000    0.0000    0.0000 C   0  0  0  0  0  0  0  0  0  0  0  0
   -0.7500   -1.2990    0.0000 C   0  0  0  0  0  0  0  0  0  0  0  0
   -1.2135   -2.7256    0.0000 S   0  0  0  0  0  0  0  0  0  0  0  0
    2.0490   -8.6563    0.0000 C   0  0  0  0  0  0  0  0  0  0  0  0
    3.3481   -9.4063    0.0000 C   0  0  0  0  0  0  0  0  0  0  0  0
  1  2  1  0
  2  3  1  0
  2  4  1  0
  4  5  1  0
  5  6  2  0
  6  7  1  0
  7  8  2  0
  9  8  1  1
  9 10  1  0
 10 11  1  0
 11 12  1  6
 12 13  2  0
 12 14  1  0
 14 15  1  0
 15 16  2  0
 16 17  1  0
 17 18  2  0
 18 19  1  0
 19 20  2  0
 20 21  1  0
 21 22  2  0
 22 23  1  0
 23 24  2  0
 24 25  1  0
 25 26  2  0
 20 27  1  0
 27 28  2  0
 28 29  1  0
  8 30  1  0
 30 31  2  0
 31  5  1  0
 11  9  1  0
 29 15  1  0
 28 17  1  0
 26 21  1  0
M  END
>  <Compound_ID>  (36) 
CHEMBL3086534

>  <Molecule Name>  (36) 
nan

>  <Molecular Weight>  (36) 
428.56

>  <AlogP>  (36) 
5.16

>  <Smiles>  (36) 
CN(C)Cc1ccc([C@H]2C[C@@H]2C(=O)Nc2nc3ccc(-c4cccnc4)cc3s2)cc1

>  <Standard Type>  (36) 
Ki

>  <Standard Relation>  (36) 
'='

>  <Standard Units>  (36) 
nM

>  <Standard Value>  (36) 
8.4

>  <Assay ChEMBL ID>  (36) 
CHEMBL3088400

>  <Assay Description>  (36) 
Inhibition of full length GST-tagged ITK (unknown origin) using Ac-EFPIYDFLPAKKK-NH2 as substrate after 35 mins by LC/MS analysis

>  <BAO Format ID>  (36) 
BAO_0000357

>  <BAO Label>  (36) 
single protein format

>  <Assay Organism>  (36) 
Homo sapiens

>  <Target ChEMBL ID>  (36) 
CHEMBL2959

>  <Target Name>  (36) 
Tyrosine-protein kinase ITK/TSK

>  <Target Organism>  (36) 
Homo sapiens

>  <Target Type>  (36) 
SINGLE PROTEIN

>  <Document ChEMBL ID>  (36) 
CHEMBL3085719

>  <Source Description>  (36) 
Scientific Literature

>  <Document Journal>  (36) 
Bioorg Med Chem Lett

>  <Document Year>  (36) 
2013.0

>  <Active>  (36) 
1.0

$$$$

     RDKit          2D

 43 46  0  0  0  0  0  0  0  0999 V2000
    3.7500   -1.2990    0.0000 C   0  0  0  0  0  0  0  0  0  0  0  0
    3.0000    0.0000    0.0000 C   0  0  0  0  0  0  0  0  0  0  0  0
    3.7500    1.2990    0.0000 O   0  0  0  0  0  0  0  0  0  0  0  0
    1.5000    0.0000    0.0000 N   0  0  0  0  0  0  0  0  0  0  0  0
    0.7500   -1.2990    0.0000 C   0  0  0  0  0  0  0  0  0  0  0  0
   -0.7500   -1.2990    0.0000 C   0  0  0  0  0  0  0  0  0  0  0  0
   -1.5000    0.0000    0.0000 N   0  0  0  0  0  0  0  0  0  0  0  0
   -3.0000    0.0000    0.0000 C   0  0  0  0  0  0  0  0  0  0  0  0
   -3.7500   -1.2990    0.0000 O   0  0  0  0  0  0  0  0  0  0  0  0
   -3.7500    1.2990    0.0000 C   0  0  0  0  0  0  0  0  0  0  0  0
   -3.0000    2.5981    0.0000 C   0  0  0  0  0  0  0  0  0  0  0  0
   -3.7500    3.8971    0.0000 C   0  0  0  0  0  0  0  0  0  0  0  0
   -3.0000    5.1962    0.0000 C   0  0  0  0  0  0  0  0  0  0  0  0
   -1.5000    5.1962    0.0000 S   0  0  0  0  0  0  0  0  0  0  0  0
   -0.7500    6.4952    0.0000 C   0  0  0  0  0  0  0  0  0  0  0  0
   -1.3601    7.8655    0.0000 C   0  0  0  0  0  0  0  0  0  0  0  0
   -0.2454    8.8692    0.0000 N   0  0  0  0  0  0  0  0  0  0  0  0
    1.0537    8.1192    0.0000 C   0  0  0  0  0  0  0  0  0  0  0  0
    2.4240    8.7293    0.0000 N   0  0  0  0  0  0  0  0  0  0  0  0
    3.6375    7.8476    0.0000 C   0  0  0  0  0  0  0  0  0  0  0  0
    3.4807    6.3558    0.0000 O   0  0  0  0  0  0  0  0  0  0  0  0
    5.0078    8.4577    0.0000 C   0  0  0  0  0  0  0  0  0  0  0  0
    6.2213    7.5761    0.0000 C   0  0  0  0  0  0  0  0  0  0  0  0
    7.5917    8.1862    0.0000 C   0  0  0  0  0  0  0  0  0  0  0  0
    7.7484    9.6779    0.0000 C   0  0  0  0  0  0  0  0  0  0  0  0
    9.1188   10.2881    0.0000 C   0  0  0  0  0  0  0  0  0  0  0  0
   10.3323    9.4064    0.0000 N   0  0  0  0  0  0  0  0  0  0  0  0
   11.7026   10.0165    0.0000 C   0  0  0  0  0  0  0  0  0  0  0  0
   11.8594   11.5083    0.0000 C   0  0  0  0  0  0  0  0  0  0  0  0
   13.2297   12.1184    0.0000 O   0  0  0  0  0  0  0  0  0  0  0  0
   12.9161    9.1348    0.0000 C   0  0  0  0  0  0  0  0  0  0  0  0
   14.2865    9.7449    0.0000 C   0  0  0  0  0  0  0  0  0  0  0  0
   12.7593    7.6430    0.0000 C   0  0  0  0  0  0  0  0  0  0  0  0
    6.5349   10.5596    0.0000 C   0  0  0  0  0  0  0  0  0  0  0  0
    5.1646    9.9495    0.0000 C   0  0  0  0  0  0  0  0  0  0  0  0
    0.7418    6.6520    0.0000 S   0  0  0  0  0  0  0  0  0  0  0  0
   -5.2500    3.8971    0.0000 C   0  0  0  0  0  0  0  0  0  0  0  0
   -6.0000    2.5981    0.0000 C   0  0  0  0  0  0  0  0  0  0  0  0
   -7.5000    2.5981    0.0000 C   0  0  0  0  0  0  0  0  0  0  0  0
   -5.2500    1.2990    0.0000 C   0  0  0  0  0  0  0  0  0  0  0  0
   -6.0000    0.0000    0.0000 C   0  0  0  0  0  0  0  0  0  0  0  0
   -0.7500    1.2990    0.0000 C   0  0  0  0  0  0  0  0  0  0  0  0
    0.7500    1.2990    0.0000 C   0  0  0  0  0  0  0  0  0  0  0  0
  1  2  1  0
  2  3  2  0
  2  4  1  0
  4  5  1  0
  5  6  1  0
  6  7  1  0
  7  8  1  0
  8  9  2  0
  8 10  1  0
 10 11  2  0
 11 12  1  0
 12 13  1  0
 13 14  1  0
 14 15  1  0
 15 16  2  0
 16 17  1  0
 17 18  2  0
 18 19  1  0
 19 20  1  0
 20 21  2  0
 20 22  1  0
 22 23  2  0
 23 24  1  0
 24 25  2  0
 25 26  1  0
 26 27  1  0
 27 28  1  0
 28 29  1  0
 29 30  1  0
 28 31  1  0
 31 32  1  0
 31 33  1  0
 25 34  1  0
 34 35  2  0
 18 36  1  0
 12 37  2  0
 37 38  1  0
 38 39  1  0
 38 40  2  0
 40 41  1  0
  7 42  1  0
 42 43  1  0
 43  4  1  0
 40 10  1  0
 36 15  1  0
 35 22  1  0
M  END
>  <Compound_ID>  (37) 
CHEMBL383129

>  <Molecule Name>  (37) 
nan

>  <Molecular Weight>  (37) 
623.85

>  <AlogP>  (37) 
4.72

>  <Smiles>  (37) 
CC(=O)N1CCN(C(=O)c2cc(CSc3cnc(NC(=O)c4ccc(CNC(CO)C(C)C)cc4)s3)cc(C)c2C)CC1

>  <Standard Type>  (37) 
IC50

>  <Standard Relation>  (37) 
'='

>  <Standard Units>  (37) 
nM

>  <Standard Value>  (37) 
96.0

>  <Assay ChEMBL ID>  (37) 
CHEMBL861556

>  <Assay Description>  (37) 
Inhibition of Itk

>  <BAO Format ID>  (37) 
BAO_0000357

>  <BAO Label>  (37) 
single protein format

>  <Assay Organism>  (37) 
Homo sapiens

>  <Target ChEMBL ID>  (37) 
CHEMBL2959

>  <Target Name>  (37) 
Tyrosine-protein kinase ITK/TSK

>  <Target Organism>  (37) 
Homo sapiens

>  <Target Type>  (37) 
SINGLE PROTEIN

>  <Document ChEMBL ID>  (37) 
CHEMBL1147005

>  <Source Description>  (37) 
Scientific Literature

>  <Document Journal>  (37) 
Bioorg Med Chem Lett

>  <Document Year>  (37) 
2006.0

>  <Active>  (37) 
1.0

$$$$

     RDKit          2D

 30 33  0  0  0  0  0  0  0  0999 V2000
    3.7500   -1.2990    0.0000 C   0  0  0  0  0  0  0  0  0  0  0  0
    3.0000    0.0000    0.0000 N   0  0  0  0  0  0  0  0  0  0  0  0
    1.5000    0.0000    0.0000 C   0  0  0  0  0  0  0  0  0  0  0  0
    0.7500   -1.2990    0.0000 N   0  0  0  0  0  0  0  0  0  0  0  0
   -0.7500   -1.2990    0.0000 C   0  0  0  0  0  0  0  0  0  0  0  0
   -1.5000    0.0000    0.0000 C   0  0  0  0  0  0  0  0  0  0  0  0
   -0.7500    1.2990    0.0000 C   0  0  0  0  0  0  0  0  0  0  0  0
   -1.5000    2.5981    0.0000 C   0  0  0  0  0  0  0  0  0  0  0  0
   -0.7500    3.8971    0.0000 C   0  0  0  0  0  0  0  0  0  0  0  0
   -1.5000    5.1962    0.0000 N   0  0  0  0  0  0  0  0  0  0  0  0
   -3.0000    5.1962    0.0000 C   0  0  0  0  0  0  0  0  0  0  0  0
   -3.7500    6.4952    0.0000 O   0  0  0  0  0  0  0  0  0  0  0  0
   -3.7500    3.8971    0.0000 C   0  0  0  0  0  0  0  0  0  0  0  0
   -5.2500    3.8971    0.0000 N   0  0  0  0  0  0  0  0  0  0  0  0
   -6.0000    2.5981    0.0000 C   0  0  0  0  0  0  0  0  0  0  0  0
   -5.2500    1.2990    0.0000 O   0  0  0  0  0  0  0  0  0  0  0  0
   -7.5000    2.5981    0.0000 C   0  0  0  0  0  0  0  0  0  0  0  0
   -8.2500    3.8971    0.0000 C   0  0  0  0  0  0  0  0  0  0  0  0
   -9.7500    3.8971    0.0000 C   0  0  0  0  0  0  0  0  0  0  0  0
  -10.5000    2.5981    0.0000 C   0  0  0  0  0  0  0  0  0  0  0  0
  -12.0000    2.5981    0.0000 N   0  0  0  0  0  0  0  0  0  0  0  0
  -12.7500    3.8971    0.0000 C   0  0  0  0  0  0  0  0  0  0  0  0
  -14.2500    3.8971    0.0000 C   0  0  0  0  0  0  0  0  0  0  0  0
  -15.0000    2.5981    0.0000 C   0  0  0  0  0  0  0  0  0  0  0  0
  -14.2500    1.2990    0.0000 C   0  0  0  0  0  0  0  0  0  0  0  0
  -12.7500    1.2990    0.0000 C   0  0  0  0  0  0  0  0  0  0  0  0
   -9.7500    1.2990    0.0000 C   0  0  0  0  0  0  0  0  0  0  0  0
   -8.2500    1.2990    0.0000 C   0  0  0  0  0  0  0  0  0  0  0  0
   -3.0000    2.5981    0.0000 C   0  0  0  0  0  0  0  0  0  0  0  0
    0.7500    1.2990    0.0000 N   0  0  0  0  0  0  0  0  0  0  0  0
  1  2  1  0
  2  3  1  0
  3  4  2  0
  4  5  1  0
  5  6  2  0
  6  7  1  0
  7  8  1  0
  8  9  2  0
  9 10  1  0
 10 11  1  0
 11 12  2  0
 11 13  1  0
 13 14  1  0
 14 15  1  0
 15 16  2  0
 15 17  1  0
 17 18  2  0
 18 19  1  0
 19 20  2  0
 20 21  1  0
 21 22  1  0
 22 23  1  0
 23 24  1  0
 24 25  1  0
 25 26  1  0
 20 27  1  0
 27 28  2  0
 13 29  2  0
  7 30  2  0
 30  3  1  0
 29  8  1  0
 28 17  1  0
 26 21  1  0
M  END
>  <Compound_ID>  (38) 
CHEMBL1738829

>  <Molecule Name>  (38) 
nan

>  <Molecular Weight>  (38) 
404.47

>  <AlogP>  (38) 
3.12

>  <Smiles>  (38) 
CNc1nccc(-c2c[nH]c(=O)c(NC(=O)c3ccc(N4CCCCC4)cc3)c2)n1

>  <Standard Type>  (38) 
Ki

>  <Standard Relation>  (38) 
'='

>  <Standard Units>  (38) 
nM

>  <Standard Value>  (38) 
16.0

>  <Assay ChEMBL ID>  (38) 
CHEMBL1768448

>  <Assay Description>  (38) 
Inhibition of Itk after 40 mins by radiometric phosphate incorporation assay

>  <BAO Format ID>  (38) 
BAO_0000357

>  <BAO Label>  (38) 
single protein format

>  <Assay Organism>  (38) 
None

>  <Target ChEMBL ID>  (38) 
CHEMBL2959

>  <Target Name>  (38) 
Tyrosine-protein kinase ITK/TSK

>  <Target Organism>  (38) 
Homo sapiens

>  <Target Type>  (38) 
SINGLE PROTEIN

>  <Document ChEMBL ID>  (38) 
CHEMBL1765075

>  <Source Description>  (38) 
Scientific Literature

>  <Document Journal>  (38) 
J Med Chem

>  <Document Year>  (38) 
2011.0

>  <Active>  (38) 
1.0

$$$$

     RDKit          2D

 42 46  0  0  0  0  0  0  0  0999 V2000
    7.9492  -15.5764    0.0000 C   0  0  0  0  0  0  0  0  0  0  0  0
    7.0675  -14.3629    0.0000 O   0  0  0  0  0  0  0  0  0  0  0  0
    5.5757  -14.5197    0.0000 C   0  0  0  0  0  0  0  0  0  0  0  0
    4.9656  -15.8900    0.0000 C   0  0  0  0  0  0  0  0  0  0  0  0
    3.4739  -16.0468    0.0000 C   0  0  0  0  0  0  0  0  0  0  0  0
    2.5922  -14.8333    0.0000 C   0  0  0  0  0  0  0  0  0  0  0  0
    3.2023  -13.4629    0.0000 C   0  0  0  0  0  0  0  0  0  0  0  0
    2.3206  -12.2494    0.0000 C   0  0  0  0  0  0  0  0  0  0  0  0
    2.9307  -10.8791    0.0000 C   0  0  0  0  0  0  0  0  0  0  0  0
    2.0490   -9.6656    0.0000 C   0  0  0  0  0  0  0  0  0  0  0  0
    0.5490   -9.6656    0.0000 C   0  0  0  0  0  0  0  0  0  0  0  0
    0.0855   -8.2390    0.0000 C   0  0  0  0  0  0  0  0  0  0  0  0
    1.2990   -7.3573    0.0000 C   0  0  0  0  0  0  0  0  0  0  0  0
    1.2990   -5.8573    0.0000 C   0  0  0  0  0  0  0  0  0  0  0  0
    2.5981   -5.1073    0.0000 O   0  0  0  0  0  0  0  0  0  0  0  0
   -0.0000   -5.1073    0.0000 N   0  0  0  0  0  0  0  0  0  0  0  0
   -0.0000   -3.6073    0.0000 C   0  0  0  0  0  0  0  0  0  0  0  0
    1.2135   -2.7256    0.0000 N   0  0  0  0  0  0  0  0  0  0  0  0
    0.7500   -1.2990    0.0000 C   0  0  0  0  0  0  0  0  0  0  0  0
    1.5000    0.0000    0.0000 C   0  0  0  0  0  0  0  0  0  0  0  0
    0.7500    1.2990    0.0000 C   0  0  0  0  0  0  0  0  0  0  0  0
    1.5000    2.5981    0.0000 N   0  0  0  0  0  0  0  0  0  0  0  0
    3.0000    2.5981    0.0000 C   0  0  0  0  0  0  0  0  0  0  0  0
    0.7500    3.8971    0.0000 C   0  0  0  0  0  0  0  0  0  0  0  0
   -0.7500    3.8971    0.0000 O   0  0  0  0  0  0  0  0  0  0  0  0
    1.5000    5.1962    0.0000 C   0  0  0  0  0  0  0  0  0  0  0  0
    3.0000    5.1962    0.0000 C   0  0  0  0  0  0  0  0  0  0  0  0
    3.7500    6.4952    0.0000 C   0  0  0  0  0  0  0  0  0  0  0  0
    3.0000    7.7942    0.0000 C   0  0  0  0  0  0  0  0  0  0  0  0
    1.5000    7.7942    0.0000 C   0  0  0  0  0  0  0  0  0  0  0  0
    0.7500    6.4952    0.0000 C   0  0  0  0  0  0  0  0  0  0  0  0
   -0.7500    1.2990    0.0000 C   0  0  0  0  0  0  0  0  0  0  0  0
   -1.5000    0.0000    0.0000 C   0  0  0  0  0  0  0  0  0  0  0  0
   -0.7500   -1.2990    0.0000 C   0  0  0  0  0  0  0  0  0  0  0  0
   -1.2135   -2.7256    0.0000 N   0  0  0  0  0  0  0  0  0  0  0  0
   -2.6401   -3.1891    0.0000 C   0  0  0  0  0  0  0  0  0  0  0  0
   -3.7548   -2.1855    0.0000 C   0  0  0  0  0  0  0  0  0  0  0  0
   -5.1814   -2.6490    0.0000 C   0  0  0  0  0  0  0  0  0  0  0  0
   -6.2961   -1.6453    0.0000 N   0  0  0  0  0  0  0  0  0  0  0  0
   -5.4933   -4.1162    0.0000 O   0  0  0  0  0  0  0  0  0  0  0  0
    2.5126   -8.2390    0.0000 S   0  0  0  0  0  0  0  0  0  0  0  0
    4.6941  -13.3061    0.0000 C   0  0  0  0  0  0  0  0  0  0  0  0
  1  2  1  0
  2  3  1  0
  3  4  2  0
  4  5  1  0
  5  6  2  0
  6  7  1  0
  7  8  1  0
  8  9  2  0
  9 10  1  0
 10 11  2  0
 11 12  1  0
 12 13  2  0
 13 14  1  0
 14 15  2  0
 14 16  1  0
 16 17  2  0
 17 18  1  0
 18 19  1  0
 19 20  2  0
 20 21  1  0
 21 22  1  0
 22 23  1  0
 22 24  1  0
 24 25  2  0
 24 26  1  0
 26 27  2  0
 27 28  1  0
 28 29  2  0
 29 30  1  0
 30 31  2  0
 21 32  2  0
 32 33  1  0
 33 34  2  0
 34 35  1  0
 35 36  1  0
 36 37  1  0
 37 38  1  0
 38 39  1  0
 38 40  2  0
 13 41  1  0
  7 42  2  0
 42  3  1  0
 41 10  1  0
 35 17  1  0
 34 19  1  0
 31 26  1  0
M  END
>  <Compound_ID>  (39) 
CHEMBL454220

>  <Molecule Name>  (39) 
nan

>  <Molecular Weight>  (39) 
579.68

>  <AlogP>  (39) 
5.10

>  <Smiles>  (39) 
COc1cccc(/C=C/c2ccc(C(=O)/N=c3\[nH]c4cc(N(C)C(=O)c5ccccc5)ccc4n3CCC(N)=O)s2)c1

>  <Standard Type>  (39) 
IC50

>  <Standard Relation>  (39) 
'='

>  <Standard Units>  (39) 
nM

>  <Standard Value>  (39) 
13.0

>  <Assay ChEMBL ID>  (39) 
CHEMBL942219

>  <Assay Description>  (39) 
Inhibition of ITK by DELPHIA

>  <BAO Format ID>  (39) 
BAO_0000357

>  <BAO Label>  (39) 
single protein format

>  <Assay Organism>  (39) 
None

>  <Target ChEMBL ID>  (39) 
CHEMBL2959

>  <Target Name>  (39) 
Tyrosine-protein kinase ITK/TSK

>  <Target Organism>  (39) 
Homo sapiens

>  <Target Type>  (39) 
SINGLE PROTEIN

>  <Document ChEMBL ID>  (39) 
CHEMBL1152261

>  <Source Description>  (39) 
Scientific Literature

>  <Document Journal>  (39) 
Bioorg Med Chem Lett

>  <Document Year>  (39) 
2008.0

>  <Active>  (39) 
1.0

$$$$

     RDKit          2D

 41 45  0  0  0  0  0  0  0  0999 V2000
    0.7500   -3.8971    0.0000 C   0  0  0  0  0  0  0  0  0  0  0  0
    1.5000   -2.5981    0.0000 N   0  0  0  0  0  0  0  0  0  0  0  0
    3.0000   -2.5981    0.0000 C   0  0  0  0  0  0  0  0  0  0  0  0
    3.7500   -1.2990    0.0000 O   0  0  0  0  0  0  0  0  0  0  0  0
    3.7500   -3.8971    0.0000 C   0  0  0  0  0  0  0  0  0  0  0  0
    3.0000   -5.1962    0.0000 C   0  0  0  0  0  0  0  0  0  0  0  0
    3.7500   -6.4952    0.0000 C   0  0  0  0  0  0  0  0  0  0  0  0
    5.2500   -6.4952    0.0000 C   0  0  0  0  0  0  0  0  0  0  0  0
    6.0000   -5.1962    0.0000 C   0  0  0  0  0  0  0  0  0  0  0  0
    5.2500   -3.8971    0.0000 C   0  0  0  0  0  0  0  0  0  0  0  0
    0.7500   -1.2990    0.0000 C   0  0  0  0  0  0  0  0  0  0  0  0
    1.5000    0.0000    0.0000 C   0  0  0  0  0  0  0  0  0  0  0  0
    0.7500    1.2990    0.0000 C   0  0  0  0  0  0  0  0  0  0  0  0
   -0.7500    1.2990    0.0000 C   0  0  0  0  0  0  0  0  0  0  0  0
   -1.5000    0.0000    0.0000 C   0  0  0  0  0  0  0  0  0  0  0  0
   -0.7500   -1.2990    0.0000 C   0  0  0  0  0  0  0  0  0  0  0  0
   -2.9672    0.3119    0.0000 N   0  0  0  0  0  0  0  0  0  0  0  0
   -3.1240    1.8037    0.0000 C   0  0  0  0  0  0  0  0  0  0  0  0
   -4.4231    2.5537    0.0000 N   0  0  0  0  0  0  0  0  0  0  0  0
   -5.7221    1.8037    0.0000 C   0  0  0  0  0  0  0  0  0  0  0  0
   -5.7221    0.3037    0.0000 O   0  0  0  0  0  0  0  0  0  0  0  0
   -7.0211    2.5537    0.0000 C   0  0  0  0  0  0  0  0  0  0  0  0
   -8.3914    1.9435    0.0000 C   0  0  0  0  0  0  0  0  0  0  0  0
   -9.3951    3.0583    0.0000 C   0  0  0  0  0  0  0  0  0  0  0  0
   -8.6451    4.3573    0.0000 C   0  0  0  0  0  0  0  0  0  0  0  0
   -9.2552    5.7276    0.0000 C   0  0  0  0  0  0  0  0  0  0  0  0
  -10.7470    5.8844    0.0000 C   0  0  0  0  0  0  0  0  0  0  0  0
  -11.3571    7.2547    0.0000 C   0  0  0  0  0  0  0  0  0  0  0  0
  -10.4755    8.4683    0.0000 C   0  0  0  0  0  0  0  0  0  0  0  0
  -11.0856    9.8386    0.0000 C   0  0  0  0  0  0  0  0  0  0  0  0
  -12.5773    9.9954    0.0000 C   0  0  0  0  0  0  0  0  0  0  0  0
  -13.4590    8.7818    0.0000 C   0  0  0  0  0  0  0  0  0  0  0  0
  -14.9508    8.9386    0.0000 N   0  0  0  0  0  0  0  0  0  0  0  0
  -12.8489    7.4115    0.0000 N   0  0  0  0  0  0  0  0  0  0  0  0
   -7.1779    4.0454    0.0000 S   0  0  0  0  0  0  0  0  0  0  0  0
   -1.7537    2.4138    0.0000 N   0  0  0  0  0  0  0  0  0  0  0  0
   -1.4418    3.8810    0.0000 C   0  0  0  0  0  0  0  0  0  0  0  0
   -0.0152    4.3445    0.0000 C   0  0  0  0  0  0  0  0  0  0  0  0
    0.2966    5.8117    0.0000 C   0  0  0  0  0  0  0  0  0  0  0  0
    1.7232    6.2752    0.0000 N   0  0  0  0  0  0  0  0  0  0  0  0
   -0.8181    6.8154    0.0000 O   0  0  0  0  0  0  0  0  0  0  0  0
  1  2  1  0
  2  3  1  0
  3  4  2  0
  3  5  1  0
  5  6  2  0
  6  7  1  0
  7  8  2  0
  8  9  1  0
  9 10  2  0
  2 11  1  0
 11 12  2  0
 12 13  1  0
 13 14  2  0
 14 15  1  0
 15 16  2  0
 15 17  1  0
 17 18  1  0
 18 19  2  0
 19 20  1  0
 20 21  2  0
 20 22  1  0
 22 23  2  0
 23 24  1  0
 24 25  2  0
 25 26  1  0
 26 27  2  0
 27 28  1  0
 28 29  2  0
 29 30  1  0
 30 31  2  0
 31 32  1  0
 32 33  1  0
 32 34  2  0
 25 35  1  0
 18 36  1  0
 36 37  1  0
 37 38  1  0
 38 39  1  0
 39 40  1  0
 39 41  2  0
 10  5  1  0
 16 11  1  0
 35 22  1  0
 36 14  1  0
 34 28  1  0
M  END
>  <Compound_ID>  (40) 
CHEMBL501661

>  <Molecule Name>  (40) 
nan

>  <Molecular Weight>  (40) 
565.66

>  <AlogP>  (40) 
4.07

>  <Smiles>  (40) 
CN(C(=O)c1ccccc1)c1ccc2c(c1)[nH]/c(=N\C(=O)c1ccc(/C=C/c3cccc(N)n3)s1)n2CCC(N)=O

>  <Standard Type>  (40) 
IC50

>  <Standard Relation>  (40) 
'='

>  <Standard Units>  (40) 
nM

>  <Standard Value>  (40) 
7.0

>  <Assay ChEMBL ID>  (40) 
CHEMBL942219

>  <Assay Description>  (40) 
Inhibition of ITK by DELPHIA

>  <BAO Format ID>  (40) 
BAO_0000357

>  <BAO Label>  (40) 
single protein format

>  <Assay Organism>  (40) 
None

>  <Target ChEMBL ID>  (40) 
CHEMBL2959

>  <Target Name>  (40) 
Tyrosine-protein kinase ITK/TSK

>  <Target Organism>  (40) 
Homo sapiens

>  <Target Type>  (40) 
SINGLE PROTEIN

>  <Document ChEMBL ID>  (40) 
CHEMBL1152261

>  <Source Description>  (40) 
Scientific Literature

>  <Document Journal>  (40) 
Bioorg Med Chem Lett

>  <Document Year>  (40) 
2008.0

>  <Active>  (40) 
1.0

$$$$

     RDKit          2D

 31 33  0  0  0  0  0  0  0  0999 V2000
   -7.7227   -2.1088    0.0000 C   0  0  0  0  0  0  0  0  0  0  0  0
   -6.2961   -1.6453    0.0000 O   0  0  0  0  0  0  0  0  0  0  0  0
   -5.1814   -2.6490    0.0000 C   0  0  0  0  0  0  0  0  0  0  0  0
   -3.7548   -2.1855    0.0000 C   0  0  0  0  0  0  0  0  0  0  0  0
   -2.6401   -3.1891    0.0000 C   0  0  0  0  0  0  0  0  0  0  0  0
   -1.2135   -2.7256    0.0000 N   0  0  0  0  0  0  0  0  0  0  0  0
   -0.0000   -3.6073    0.0000 C   0  0  0  0  0  0  0  0  0  0  0  0
   -0.0000   -5.1073    0.0000 N   0  0  0  0  0  0  0  0  0  0  0  0
   -1.2990   -5.8573    0.0000 C   0  0  0  0  0  0  0  0  0  0  0  0
   -2.5981   -5.1073    0.0000 O   0  0  0  0  0  0  0  0  0  0  0  0
   -1.2990   -7.3573    0.0000 C   0  0  0  0  0  0  0  0  0  0  0  0
   -2.5981   -8.1073    0.0000 C   0  0  0  0  0  0  0  0  0  0  0  0
   -2.5981   -9.6073    0.0000 C   0  0  0  0  0  0  0  0  0  0  0  0
   -1.2990  -10.3573    0.0000 C   0  0  0  0  0  0  0  0  0  0  0  0
   -1.2990  -11.8573    0.0000 C   0  0  0  0  0  0  0  0  0  0  0  0
   -1.2990  -13.3573    0.0000 N   0  0  0  0  0  0  0  0  0  0  0  0
   -0.0000   -9.6073    0.0000 C   0  0  0  0  0  0  0  0  0  0  0  0
   -0.0000   -8.1073    0.0000 C   0  0  0  0  0  0  0  0  0  0  0  0
    1.2135   -2.7256    0.0000 N   0  0  0  0  0  0  0  0  0  0  0  0
    0.7500   -1.2990    0.0000 C   0  0  0  0  0  0  0  0  0  0  0  0
    1.5000    0.0000    0.0000 C   0  0  0  0  0  0  0  0  0  0  0  0
    0.7500    1.2990    0.0000 C   0  0  0  0  0  0  0  0  0  0  0  0
    1.5000    2.5981    0.0000 C   0  0  0  0  0  0  0  0  0  0  0  0
    3.0000    2.5981    0.0000 N   0  0  0  0  0  0  0  0  0  0  0  0
    3.7500    3.8971    0.0000 C   0  0  0  0  0  0  0  0  0  0  0  0
    5.2500    3.8971    0.0000 C   0  0  0  0  0  0  0  0  0  0  0  0
    6.0000    5.1962    0.0000 O   0  0  0  0  0  0  0  0  0  0  0  0
    7.5000    5.1962    0.0000 C   0  0  0  0  0  0  0  0  0  0  0  0
   -0.7500    1.2990    0.0000 C   0  0  0  0  0  0  0  0  0  0  0  0
   -1.5000    0.0000    0.0000 C   0  0  0  0  0  0  0  0  0  0  0  0
   -0.7500   -1.2990    0.0000 C   0  0  0  0  0  0  0  0  0  0  0  0
  1  2  1  0
  2  3  1  0
  3  4  1  0
  4  5  1  0
  5  6  1  0
  6  7  1  0
  7  8  1  0
  8  9  1  0
  9 10  2  0
  9 11  1  0
 11 12  2  0
 12 13  1  0
 13 14  2  0
 14 15  1  0
 15 16  3  0
 14 17  1  0
 17 18  2  0
  7 19  2  0
 19 20  1  0
 20 21  2  0
 21 22  1  0
 22 23  1  0
 23 24  1  0
 24 25  1  0
 25 26  1  0
 26 27  1  0
 27 28  1  0
 22 29  2  0
 29 30  1  0
 30 31  2  0
 31  6  1  0
 18 11  1  0
 31 20  1  0
M  END
>  <Compound_ID>  (41) 
CHEMBL487987

>  <Molecule Name>  (41) 
nan

>  <Molecular Weight>  (41) 
421.5

>  <AlogP>  (41) 
2.93

>  <Smiles>  (41) 
COCCCn1c(NC(=O)c2ccc(C#N)cc2)nc2cc(CNCCOC)ccc21

>  <Standard Type>  (41) 
IC50

>  <Standard Relation>  (41) 
'='

>  <Standard Units>  (41) 
nM

>  <Standard Value>  (41) 
81.0

>  <Assay ChEMBL ID>  (41) 
CHEMBL1006237

>  <Assay Description>  (41) 
Inhibition of ITK by DELPHIA assay

>  <BAO Format ID>  (41) 
BAO_0000357

>  <BAO Label>  (41) 
single protein format

>  <Assay Organism>  (41) 
None

>  <Target ChEMBL ID>  (41) 
CHEMBL2959

>  <Target Name>  (41) 
Tyrosine-protein kinase ITK/TSK

>  <Target Organism>  (41) 
Homo sapiens

>  <Target Type>  (41) 
SINGLE PROTEIN

>  <Document ChEMBL ID>  (41) 
CHEMBL1152240

>  <Source Description>  (41) 
Scientific Literature

>  <Document Journal>  (41) 
Bioorg Med Chem Lett

>  <Document Year>  (41) 
2008.0

>  <Active>  (41) 
1.0

$$$$

     RDKit          2D

 33 36  0  0  0  0  0  0  0  0999 V2000
    0.7500   -3.8971    0.0000 C   0  0  0  0  0  0  0  0  0  0  0  0
    1.5000   -2.5981    0.0000 N   0  0  0  0  0  0  0  0  0  0  0  0
    3.0000   -2.5981    0.0000 C   0  0  0  0  0  0  0  0  0  0  0  0
    3.7500   -1.2990    0.0000 O   0  0  0  0  0  0  0  0  0  0  0  0
    3.7500   -3.8971    0.0000 C   0  0  0  0  0  0  0  0  0  0  0  0
    3.0000   -5.1962    0.0000 C   0  0  0  0  0  0  0  0  0  0  0  0
    3.7500   -6.4952    0.0000 C   0  0  0  0  0  0  0  0  0  0  0  0
    5.2500   -6.4952    0.0000 C   0  0  0  0  0  0  0  0  0  0  0  0
    6.0000   -5.1962    0.0000 C   0  0  0  0  0  0  0  0  0  0  0  0
    5.2500   -3.8971    0.0000 C   0  0  0  0  0  0  0  0  0  0  0  0
    0.7500   -1.2990    0.0000 C   0  0  0  0  0  0  0  0  0  0  0  0
    1.5000    0.0000    0.0000 C   0  0  0  0  0  0  0  0  0  0  0  0
    0.7500    1.2990    0.0000 C   0  0  0  0  0  0  0  0  0  0  0  0
   -0.7500    1.2990    0.0000 C   0  0  0  0  0  0  0  0  0  0  0  0
   -1.5000    0.0000    0.0000 C   0  0  0  0  0  0  0  0  0  0  0  0
   -0.7500   -1.2990    0.0000 C   0  0  0  0  0  0  0  0  0  0  0  0
   -2.9672    0.3119    0.0000 N   0  0  0  0  0  0  0  0  0  0  0  0
   -3.1240    1.8037    0.0000 C   0  0  0  0  0  0  0  0  0  0  0  0
   -4.4231    2.5537    0.0000 N   0  0  0  0  0  0  0  0  0  0  0  0
   -4.4231    4.0537    0.0000 C   0  0  0  0  0  0  0  0  0  0  0  0
   -3.1240    4.8037    0.0000 O   0  0  0  0  0  0  0  0  0  0  0  0
   -5.7221    4.8037    0.0000 C   0  0  0  0  0  0  0  0  0  0  0  0
   -5.7221    6.3037    0.0000 C   0  0  0  0  0  0  0  0  0  0  0  0
   -7.0211    7.0537    0.0000 C   0  0  0  0  0  0  0  0  0  0  0  0
   -8.3202    6.3037    0.0000 N   0  0  0  0  0  0  0  0  0  0  0  0
   -8.3202    4.8037    0.0000 C   0  0  0  0  0  0  0  0  0  0  0  0
   -7.0211    4.0537    0.0000 C   0  0  0  0  0  0  0  0  0  0  0  0
   -1.7537    2.4138    0.0000 N   0  0  0  0  0  0  0  0  0  0  0  0
   -1.4418    3.8810    0.0000 C   0  0  0  0  0  0  0  0  0  0  0  0
   -0.0152    4.3445    0.0000 C   0  0  0  0  0  0  0  0  0  0  0  0
    0.2966    5.8117    0.0000 C   0  0  0  0  0  0  0  0  0  0  0  0
    1.7232    6.2752    0.0000 N   0  0  0  0  0  0  0  0  0  0  0  0
   -0.8181    6.8154    0.0000 O   0  0  0  0  0  0  0  0  0  0  0  0
  1  2  1  0
  2  3  1  0
  3  4  2  0
  3  5  1  0
  5  6  1  0
  6  7  1  0
  7  8  1  0
  8  9  1  0
  9 10  1  0
  2 11  1  0
 11 12  2  0
 12 13  1  0
 13 14  2  0
 14 15  1  0
 15 16  2  0
 15 17  1  0
 17 18  2  0
 18 19  1  0
 19 20  1  0
 20 21  2  0
 20 22  1  0
 22 23  2  0
 23 24  1  0
 24 25  2  0
 25 26  1  0
 26 27  2  0
 18 28  1  0
 28 29  1  0
 29 30  1  0
 30 31  1  0
 31 32  1  0
 31 33  2  0
 10  5  1  0
 16 11  1  0
 27 22  1  0
 28 14  1  0
M  END
>  <Compound_ID>  (42) 
CHEMBL485402

>  <Molecule Name>  (42) 
nan

>  <Molecular Weight>  (42) 
448.53

>  <AlogP>  (42) 
3.10

>  <Smiles>  (42) 
CN(C(=O)C1CCCCC1)c1ccc2c(c1)nc(NC(=O)c1ccncc1)n2CCC(N)=O

>  <Standard Type>  (42) 
IC50

>  <Standard Relation>  (42) 
'='

>  <Standard Units>  (42) 
nM

>  <Standard Value>  (42) 
25.0

>  <Assay ChEMBL ID>  (42) 
CHEMBL992563

>  <Assay Description>  (42) 
Inhibition of ITK by DELFIA assay

>  <BAO Format ID>  (42) 
BAO_0000357

>  <BAO Label>  (42) 
single protein format

>  <Assay Organism>  (42) 
None

>  <Target ChEMBL ID>  (42) 
CHEMBL2959

>  <Target Name>  (42) 
Tyrosine-protein kinase ITK/TSK

>  <Target Organism>  (42) 
Homo sapiens

>  <Target Type>  (42) 
SINGLE PROTEIN

>  <Document ChEMBL ID>  (42) 
CHEMBL1142468

>  <Source Description>  (42) 
Scientific Literature

>  <Document Journal>  (42) 
Bioorg Med Chem Lett

>  <Document Year>  (42) 
2008.0

>  <Active>  (42) 
1.0

$$$$

     RDKit          2D

 35 42  0  0  0  0  0  0  0  0999 V2000
    7.0384   -5.9220    0.0000 C   0  0  0  0  0  0  0  0  0  0  0  0
    6.3474   -4.5907    0.0000 N   0  0  0  0  0  0  0  0  0  0  0  0
    4.8489   -4.5234    0.0000 C   0  0  0  0  0  0  0  0  0  0  0  0
    4.0414   -5.7874    0.0000 C   0  0  0  0  0  0  0  0  0  0  0  0
    2.5382   -5.8249    0.0000 C   0  0  0  0  0  0  0  0  0  0  0  0
    3.2490   -4.5040    0.0000 O   0  0  0  0  0  0  0  0  0  0  0  0
    2.6595   -3.1247    0.0000 C   0  0  0  0  0  0  0  0  0  0  0  0
    3.6464   -1.9951    0.0000 C   0  0  0  0  0  0  0  0  0  0  0  0
    4.1580   -3.1920    0.0000 C   0  0  0  0  0  0  0  0  0  0  0  0
    4.9655   -1.9279    0.0000 O   0  0  0  0  0  0  0  0  0  0  0  0
    6.4640   -1.9952    0.0000 C   0  0  0  0  0  0  0  0  0  0  0  0
    1.2135   -2.7256    0.0000 N   0  0  0  0  0  0  0  0  0  0  0  0
    0.7500   -1.2990    0.0000 C   0  0  0  0  0  0  0  0  0  0  0  0
    1.5000    0.0000    0.0000 C   0  0  0  0  0  0  0  0  0  0  0  0
    0.7500    1.2990    0.0000 C   0  0  0  0  0  0  0  0  0  0  0  0
   -0.7500    1.2990    0.0000 C   0  0  0  0  0  0  0  0  0  0  0  0
   -1.5000    0.0000    0.0000 C   0  0  0  0  0  0  0  0  0  0  0  0
   -0.7500   -1.2990    0.0000 C   0  0  0  0  0  0  0  0  0  0  0  0
   -1.2135   -2.7256    0.0000 C   0  0  0  0  0  0  0  0  0  0  0  0
   -2.5518   -3.5691    0.0000 C   0  0  0  0  0  0  0  0  0  0  0  0
   -2.6191   -5.0676    0.0000 C   0  0  0  0  0  0  0  0  0  0  0  0
   -1.3550   -5.8751    0.0000 C   0  0  0  0  0  0  0  0  0  0  0  0
   -1.0212   -7.3375    0.0000 C   0  0  0  0  0  0  0  0  0  0  0  0
   -1.8846   -8.5641    0.0000 C   0  0  0  0  0  0  0  0  0  0  0  0
   -1.2541   -9.9251    0.0000 C   0  0  0  0  0  0  0  0  0  0  0  0
    0.2399  -10.0596    0.0000 C   0  0  0  0  0  0  0  0  0  0  0  0
    1.1033   -8.8330    0.0000 C   0  0  0  0  0  0  0  0  0  0  0  0
    0.4728   -7.4720    0.0000 C   0  0  0  0  0  0  0  0  0  0  0  0
    1.0623   -6.0927    0.0000 N   0  0  0  0  0  0  0  0  0  0  0  0
   -0.0673   -5.1058    0.0000 C   0  0  0  0  0  0  0  0  0  0  0  0
   -0.0000   -3.6073    0.0000 C   0  0  0  0  0  0  0  0  0  0  0  0
   -4.0650   -5.4667    0.0000 C   0  0  0  0  0  0  0  0  0  0  0  0
   -4.5921   -6.8710    0.0000 O   0  0  0  0  0  0  0  0  0  0  0  0
   -4.8913   -4.2148    0.0000 N   0  0  0  0  0  0  0  0  0  0  0  0
   -3.9561   -3.0421    0.0000 C   0  0  0  0  0  0  0  0  0  0  0  0
  1  2  1  0
  3  2  1  6
  3  4  1  0
  5  4  1  6
  5  6  1  0
  6  7  1  0
  7  8  1  1
  7  9  1  0
  9 10  1  6
 10 11  1  0
  7 12  1  0
 12 13  1  0
 13 14  2  0
 14 15  1  0
 15 16  2  0
 16 17  1  0
 17 18  2  0
 18 19  1  0
 19 20  2  0
 20 21  1  0
 21 22  2  0
 22 23  1  0
 23 24  2  0
 24 25  1  0
 25 26  2  0
 26 27  1  0
 27 28  2  0
 28 29  1  0
 29 30  1  0
 30 31  2  0
 21 32  1  0
 32 33  2  0
 32 34  1  0
 34 35  1  0
  9  3  1  0
 31 12  1  0
 29  5  1  0
 18 13  1  0
 31 19  1  0
 35 20  1  0
 30 22  1  0
 28 23  1  0
M  END
>  <Compound_ID>  (43) 
CHEMBL388978

>  <Molecule Name>  (43) 
STAUROSPORINE

>  <Molecular Weight>  (43) 
466.54

>  <AlogP>  (43) 
4.35

>  <Smiles>  (43) 
CN[C@@H]1C[C@H]2O[C@@](C)([C@@H]1OC)n1c3ccccc3c3c4c(c5c6ccccc6n2c5c31)C(=O)NC4

>  <Standard Type>  (43) 
IC50

>  <Standard Relation>  (43) 
'='

>  <Standard Units>  (43) 
nM

>  <Standard Value>  (43) 
12.02

>  <Assay ChEMBL ID>  (43) 
CHEMBL3887687

>  <Assay Description>  (43) 
Biochemical Inhibition Assay: 1H-pyrrolo[2,3-b]pyridine, 1H-pyrazolo[3,4-b]pyridine and 5H-pyrrolo[2,3-b]pyrazine series of compounds exhibited over >100 fold selective against Janus and TEC family of kinases except for the BMX and TXK it had activity of 30 and 45 nM respectively.

>  <BAO Format ID>  (43) 
BAO_0000357

>  <BAO Label>  (43) 
single protein format

>  <Assay Organism>  (43) 
Homo sapiens

>  <Target ChEMBL ID>  (43) 
CHEMBL2959

>  <Target Name>  (43) 
Tyrosine-protein kinase ITK/TSK

>  <Target Organism>  (43) 
Homo sapiens

>  <Target Type>  (43) 
SINGLE PROTEIN

>  <Document ChEMBL ID>  (43) 
CHEMBL3886406

>  <Source Description>  (43) 
BindingDB Database

>  <Document Journal>  (43) 
nan

>  <Document Year>  (43) 
2015.0

>  <Active>  (43) 
1.0

$$$$

     RDKit          2D

 22 24  0  0  0  0  0  0  0  0999 V2000
   -1.0786   13.0279    0.0000 C   0  0  0  0  0  0  0  0  0  0  0  0
   -1.3905   11.5607    0.0000 C   0  0  0  0  0  0  0  0  0  0  0  0
   -1.7024   10.0935    0.0000 C   0  0  0  0  0  0  0  0  0  0  0  0
   -2.0143    8.6263    0.0000 C   0  0  0  0  0  0  0  0  0  0  0  0
   -0.8995    7.6226    0.0000 O   0  0  0  0  0  0  0  0  0  0  0  0
   -3.4408    8.1628    0.0000 N   0  0  0  0  0  0  0  0  0  0  0  0
   -3.7527    6.6955    0.0000 C   0  0  0  0  0  0  0  0  0  0  0  0
   -2.6380    5.6918    0.0000 C   0  0  0  0  0  0  0  0  0  0  0  0
   -2.9499    4.2246    0.0000 C   0  0  0  0  0  0  0  0  0  0  0  0
   -1.8351    3.2209    0.0000 C   0  0  0  0  0  0  0  0  0  0  0  0
   -0.4086    3.6844    0.0000 C   0  0  0  0  0  0  0  0  0  0  0  0
    0.7062    2.6807    0.0000 N   0  0  0  0  0  0  0  0  0  0  0  0
    0.3943    1.2135    0.0000 C   0  0  0  0  0  0  0  0  0  0  0  0
    1.2760    0.0000    0.0000 N   0  0  0  0  0  0  0  0  0  0  0  0
    0.3943   -1.2135    0.0000 C   0  0  0  0  0  0  0  0  0  0  0  0
   -1.0323   -0.7500    0.0000 C   0  0  0  0  0  0  0  0  0  0  0  0
   -1.0323    0.7500    0.0000 C   0  0  0  0  0  0  0  0  0  0  0  0
   -2.1470    1.7537    0.0000 C   0  0  0  0  0  0  0  0  0  0  0  0
   -4.3764    3.7611    0.0000 C   0  0  0  0  0  0  0  0  0  0  0  0
   -5.4912    4.7648    0.0000 C   0  0  0  0  0  0  0  0  0  0  0  0
   -5.1793    6.2320    0.0000 C   0  0  0  0  0  0  0  0  0  0  0  0
   -6.2940    7.2357    0.0000 F   0  0  0  0  0  0  0  0  0  0  0  0
  1  2  1  0
  2  3  3  0
  3  4  1  0
  4  5  2  0
  4  6  1  0
  6  7  1  0
  7  8  2  0
  8  9  1  0
  9 10  1  0
 10 11  2  0
 11 12  1  0
 12 13  2  0
 13 14  1  0
 14 15  1  0
 15 16  2  0
 16 17  1  0
 17 18  2  0
  9 19  2  0
 19 20  1  0
 20 21  2  0
 21 22  1  0
 21  7  1  0
 18 10  1  0
 17 13  1  0
M  END
>  <Compound_ID>  (44) 
CHEMBL3973770

>  <Molecule Name>  (44) 
nan

>  <Molecular Weight>  (44) 
293.3

>  <AlogP>  (44) 
3.33

>  <Smiles>  (44) 
CC#CC(=O)Nc1cc(-c2cnc3[nH]ccc3c2)ccc1F

>  <Standard Type>  (44) 
IC50

>  <Standard Relation>  (44) 
'='

>  <Standard Units>  (44) 
nM

>  <Standard Value>  (44) 
30.0

>  <Assay ChEMBL ID>  (44) 
CHEMBL3887687

>  <Assay Description>  (44) 
Biochemical Inhibition Assay: 1H-pyrrolo[2,3-b]pyridine, 1H-pyrazolo[3,4-b]pyridine and 5H-pyrrolo[2,3-b]pyrazine series of compounds exhibited over >100 fold selective against Janus and TEC family of kinases except for the BMX and TXK it had activity of 30 and 45 nM respectively.

>  <BAO Format ID>  (44) 
BAO_0000357

>  <BAO Label>  (44) 
single protein format

>  <Assay Organism>  (44) 
Homo sapiens

>  <Target ChEMBL ID>  (44) 
CHEMBL2959

>  <Target Name>  (44) 
Tyrosine-protein kinase ITK/TSK

>  <Target Organism>  (44) 
Homo sapiens

>  <Target Type>  (44) 
SINGLE PROTEIN

>  <Document ChEMBL ID>  (44) 
CHEMBL3886406

>  <Source Description>  (44) 
BindingDB Database

>  <Document Journal>  (44) 
nan

>  <Document Year>  (44) 
2015.0

>  <Active>  (44) 
1.0

$$$$

     RDKit          2D

 32 35  0  0  0  0  0  0  0  0999 V2000
   -4.6904   -6.5871    0.0000 C   0  0  0  0  0  0  0  0  0  0  0  0
   -4.3786   -5.1199    0.0000 C   0  0  0  0  0  0  0  0  0  0  0  0
   -5.4933   -4.1162    0.0000 C   0  0  0  0  0  0  0  0  0  0  0  0
   -5.1814   -2.6490    0.0000 C   0  0  0  0  0  0  0  0  0  0  0  0
   -3.7548   -2.1855    0.0000 C   0  0  0  0  0  0  0  0  0  0  0  0
   -2.6401   -3.1891    0.0000 C   0  0  0  0  0  0  0  0  0  0  0  0
   -1.2135   -2.7256    0.0000 C   0  0  0  0  0  0  0  0  0  0  0  0
   -0.0000   -3.6073    0.0000 C   0  0  0  0  0  0  0  0  0  0  0  0
    1.2135   -2.7256    0.0000 N   0  0  0  0  0  0  0  0  0  0  0  0
    0.7500   -1.2990    0.0000 C   0  0  0  0  0  0  0  0  0  0  0  0
    1.5000    0.0000    0.0000 N   0  0  0  0  0  0  0  0  0  0  0  0
    0.7500    1.2990    0.0000 C   0  0  0  0  0  0  0  0  0  0  0  0
   -0.7500    1.2990    0.0000 C   0  0  0  0  0  0  0  0  0  0  0  0
   -1.5000    2.5981    0.0000 C   0  0  0  0  0  0  0  0  0  0  0  0
   -0.7500    3.8971    0.0000 C   0  0  0  0  0  0  0  0  0  0  0  0
   -1.5000    5.1962    0.0000 C   0  0  0  0  0  0  0  0  0  0  0  0
   -3.0000    5.1962    0.0000 C   0  0  0  0  0  0  0  0  0  0  0  0
   -3.7500    3.8971    0.0000 C   0  0  0  0  0  0  0  0  0  0  0  0
   -5.2500    3.8971    0.0000 N   0  0  0  0  0  0  0  0  0  0  0  0
   -6.0000    5.1962    0.0000 C   0  0  0  0  0  0  0  0  0  0  0  0
   -5.2500    6.4952    0.0000 O   0  0  0  0  0  0  0  0  0  0  0  0
   -7.5000    5.1962    0.0000 C   0  0  0  0  0  0  0  0  0  0  0  0
   -8.2500    6.4952    0.0000 C   0  0  0  0  0  0  0  0  0  0  0  0
   -9.7500    6.4952    0.0000 C   0  0  0  0  0  0  0  0  0  0  0  0
  -10.5000    7.7942    0.0000 N   0  0  0  0  0  0  0  0  0  0  0  0
  -12.0000    7.7942    0.0000 C   0  0  0  0  0  0  0  0  0  0  0  0
   -9.7500    9.0933    0.0000 C   0  0  0  0  0  0  0  0  0  0  0  0
   -3.0000    2.5981    0.0000 C   0  0  0  0  0  0  0  0  0  0  0  0
   -1.5000    0.0000    0.0000 C   0  0  0  0  0  0  0  0  0  0  0  0
   -0.7500   -1.2990    0.0000 C   0  0  0  0  0  0  0  0  0  0  0  0
   -2.9520   -4.6564    0.0000 C   0  0  0  0  0  0  0  0  0  0  0  0
   -1.8373   -5.6601    0.0000 F   0  0  0  0  0  0  0  0  0  0  0  0
  1  2  1  0
  2  3  2  0
  3  4  1  0
  4  5  2  0
  5  6  1  0
  6  7  1  0
  7  8  2  0
  8  9  1  0
  9 10  1  0
 10 11  2  0
 11 12  1  0
 12 13  2  0
 13 14  1  0
 14 15  2  0
 15 16  1  0
 16 17  2  0
 17 18  1  0
 18 19  1  0
 19 20  1  0
 20 21  2  0
 20 22  1  0
 22 23  2  0
 23 24  1  0
 24 25  1  0
 25 26  1  0
 25 27  1  0
 18 28  2  0
 13 29  1  0
 29 30  2  0
  6 31  2  0
 31 32  1  0
 31  2  1  0
 30  7  1  0
 30 10  1  0
 28 14  1  0
M  END
>  <Compound_ID>  (45) 
CHEMBL3943435

>  <Molecule Name>  (45) 
nan

>  <Molecular Weight>  (45) 
428.51

>  <AlogP>  (45) 
5.40

>  <Smiles>  (45) 
Cc1cccc(-c2c[nH]c3ncc(-c4cccc(NC(=O)/C=C/CN(C)C)c4)cc23)c1F

>  <Standard Type>  (45) 
IC50

>  <Standard Relation>  (45) 
'='

>  <Standard Units>  (45) 
nM

>  <Standard Value>  (45) 
72.4

>  <Assay ChEMBL ID>  (45) 
CHEMBL3887687

>  <Assay Description>  (45) 
Biochemical Inhibition Assay: 1H-pyrrolo[2,3-b]pyridine, 1H-pyrazolo[3,4-b]pyridine and 5H-pyrrolo[2,3-b]pyrazine series of compounds exhibited over >100 fold selective against Janus and TEC family of kinases except for the BMX and TXK it had activity of 30 and 45 nM respectively.

>  <BAO Format ID>  (45) 
BAO_0000357

>  <BAO Label>  (45) 
single protein format

>  <Assay Organism>  (45) 
Homo sapiens

>  <Target ChEMBL ID>  (45) 
CHEMBL2959

>  <Target Name>  (45) 
Tyrosine-protein kinase ITK/TSK

>  <Target Organism>  (45) 
Homo sapiens

>  <Target Type>  (45) 
SINGLE PROTEIN

>  <Document ChEMBL ID>  (45) 
CHEMBL3886406

>  <Source Description>  (45) 
BindingDB Database

>  <Document Journal>  (45) 
nan

>  <Document Year>  (45) 
2015.0

>  <Active>  (45) 
1.0

$$$$

     RDKit          2D

 24 27  0  0  0  0  0  0  0  0999 V2000
   -3.7548   -2.1855    0.0000 O   0  0  0  0  0  0  0  0  0  0  0  0
   -2.6401   -3.1891    0.0000 C   0  0  0  0  0  0  0  0  0  0  0  0
   -2.9520   -4.6564    0.0000 N   0  0  0  0  0  0  0  0  0  0  0  0
   -4.3786   -5.1199    0.0000 C   0  0  0  0  0  0  0  0  0  0  0  0
   -4.8421   -6.5465    0.0000 C   0  0  0  0  0  0  0  0  0  0  0  0
   -6.3421   -6.5465    0.0000 N   0  0  0  0  0  0  0  0  0  0  0  0
   -6.8056   -5.1199    0.0000 N   0  0  0  0  0  0  0  0  0  0  0  0
   -8.2322   -4.6564    0.0000 C   0  0  0  0  0  0  0  0  0  0  0  0
   -8.5441   -3.1891    0.0000 C   0  0  0  0  0  0  0  0  0  0  0  0
   -7.4293   -2.1855    0.0000 C   0  0  0  0  0  0  0  0  0  0  0  0
   -7.7412   -0.7182    0.0000 C   0  0  0  0  0  0  0  0  0  0  0  0
   -9.1678   -0.2547    0.0000 C   0  0  0  0  0  0  0  0  0  0  0  0
  -10.2825   -1.2584    0.0000 C   0  0  0  0  0  0  0  0  0  0  0  0
   -9.9707   -2.7256    0.0000 C   0  0  0  0  0  0  0  0  0  0  0  0
   -5.5921   -4.2382    0.0000 C   0  0  0  0  0  0  0  0  0  0  0  0
   -1.2135   -2.7256    0.0000 C   0  0  0  0  0  0  0  0  0  0  0  0
   -0.0000   -3.6073    0.0000 N   0  0  0  0  0  0  0  0  0  0  0  0
    1.2135   -2.7256    0.0000 N   0  0  0  0  0  0  0  0  0  0  0  0
    0.7500   -1.2990    0.0000 C   0  0  0  0  0  0  0  0  0  0  0  0
    1.5000    0.0000    0.0000 C   0  0  0  0  0  0  0  0  0  0  0  0
    0.7500    1.2990    0.0000 C   0  0  0  0  0  0  0  0  0  0  0  0
   -0.7500    1.2990    0.0000 C   0  0  0  0  0  0  0  0  0  0  0  0
   -1.5000    0.0000    0.0000 C   0  0  0  0  0  0  0  0  0  0  0  0
   -0.7500   -1.2990    0.0000 C   0  0  0  0  0  0  0  0  0  0  0  0
  1  2  2  0
  2  3  1  0
  3  4  1  0
  4  5  1  0
  5  6  2  0
  6  7  1  0
  7  8  1  0
  8  9  1  0
  9 10  2  0
 10 11  1  0
 11 12  2  0
 12 13  1  0
 13 14  2  0
  7 15  1  0
  2 16  1  0
 16 17  2  0
 17 18  1  0
 18 19  1  0
 19 20  2  0
 20 21  1  0
 21 22  2  0
 22 23  1  0
 23 24  2  0
 15  4  2  0
 24 16  1  0
 14  9  1  0
 24 19  1  0
M  END
>  <Compound_ID>  (46) 
CHEMBL3263045

>  <Molecule Name>  (46) 
nan

>  <Molecular Weight>  (46) 
317.35

>  <AlogP>  (46) 
3.06

>  <Smiles>  (46) 
O=C(Nc1cnn(Cc2ccccc2)c1)c1n[nH]c2ccccc12

>  <Standard Type>  (46) 
Ki

>  <Standard Relation>  (46) 
'='

>  <Standard Units>  (46) 
nM

>  <Standard Value>  (46) 
36.0

>  <Assay ChEMBL ID>  (46) 
CHEMBL3267591

>  <Assay Description>  (46) 
Inhibition of full-length ITK (unknown origin) using biotin-EQEDEPEGIYGVLF-NH2 as substrate by plate reader analysis

>  <BAO Format ID>  (46) 
BAO_0000357

>  <BAO Label>  (46) 
single protein format

>  <Assay Organism>  (46) 
Homo sapiens

>  <Target ChEMBL ID>  (46) 
CHEMBL2959

>  <Target Name>  (46) 
Tyrosine-protein kinase ITK/TSK

>  <Target Organism>  (46) 
Homo sapiens

>  <Target Type>  (46) 
SINGLE PROTEIN

>  <Document ChEMBL ID>  (46) 
CHEMBL3259776

>  <Source Description>  (46) 
Scientific Literature

>  <Document Journal>  (46) 
Bioorg Med Chem Lett

>  <Document Year>  (46) 
2014.0

>  <Active>  (46) 
1.0

$$$$

     RDKit          2D

 40 44  0  0  0  0  0  0  0  0999 V2000
   -6.4289   -8.5179    0.0000 C   0  0  0  0  0  0  0  0  0  0  0  0
   -6.1170   -7.0506    0.0000 C   0  0  0  0  0  0  0  0  0  0  0  0
   -4.6904   -6.5871    0.0000 C   0  0  0  0  0  0  0  0  0  0  0  0
   -3.5757   -7.5908    0.0000 O   0  0  0  0  0  0  0  0  0  0  0  0
   -4.3786   -5.1199    0.0000 N   0  0  0  0  0  0  0  0  0  0  0  0
   -5.4933   -4.1162    0.0000 C   0  0  0  0  0  0  0  0  0  0  0  0
   -5.1814   -2.6490    0.0000 C   0  0  0  0  0  0  0  0  0  0  0  0
   -3.7548   -2.1855    0.0000 C   0  0  0  0  0  0  0  0  0  0  0  0
   -2.6401   -3.1891    0.0000 C   0  0  0  0  0  0  0  0  0  0  0  0
   -1.2135   -2.7256    0.0000 N   0  0  0  0  0  0  0  0  0  0  0  0
   -0.0000   -3.6073    0.0000 N   0  0  0  0  0  0  0  0  0  0  0  0
    1.2135   -2.7256    0.0000 C   0  0  0  0  0  0  0  0  0  0  0  0
    2.6401   -3.1891    0.0000 C   0  0  0  0  0  0  0  0  0  0  0  0
    2.9520   -4.6564    0.0000 C   0  0  0  0  0  0  0  0  0  0  0  0
    4.3786   -5.1199    0.0000 C   0  0  0  0  0  0  0  0  0  0  0  0
    5.4933   -4.1162    0.0000 C   0  0  0  0  0  0  0  0  0  0  0  0
    5.1814   -2.6490    0.0000 C   0  0  0  0  0  0  0  0  0  0  0  0
    6.2961   -1.6453    0.0000 C   0  0  0  0  0  0  0  0  0  0  0  0
    5.9843   -0.1781    0.0000 O   0  0  0  0  0  0  0  0  0  0  0  0
    7.7227   -2.1088    0.0000 N   0  0  0  0  0  0  0  0  0  0  0  0
    8.8374   -1.1051    0.0000 C   0  0  0  0  0  0  0  0  0  0  0  0
   10.2640   -1.5686    0.0000 C   0  0  0  0  0  0  0  0  0  0  0  0
   10.5759   -3.0359    0.0000 C   0  0  0  0  0  0  0  0  0  0  0  0
   12.0025   -3.4994    0.0000 C   0  0  0  0  0  0  0  0  0  0  0  0
   13.1172   -2.4957    0.0000 C   0  0  0  0  0  0  0  0  0  0  0  0
   14.5438   -2.9592    0.0000 C   0  0  0  0  0  0  0  0  0  0  0  0
   14.0802   -4.3858    0.0000 C   0  0  0  0  0  0  0  0  0  0  0  0
   15.0073   -1.5326    0.0000 C   0  0  0  0  0  0  0  0  0  0  0  0
   15.9704   -3.4227    0.0000 C   0  0  0  0  0  0  0  0  0  0  0  0
   12.8053   -1.0285    0.0000 C   0  0  0  0  0  0  0  0  0  0  0  0
   11.3787   -0.5649    0.0000 C   0  0  0  0  0  0  0  0  0  0  0  0
    3.7548   -2.1855    0.0000 C   0  0  0  0  0  0  0  0  0  0  0  0
    0.7500   -1.2990    0.0000 C   0  0  0  0  0  0  0  0  0  0  0  0
    1.5000    0.0000    0.0000 C   0  0  0  0  0  0  0  0  0  0  0  0
    3.0000    0.0000    0.0000 N   0  0  0  0  0  0  0  0  0  0  0  0
    0.7500    1.2990    0.0000 N   0  0  0  0  0  0  0  0  0  0  0  0
   -0.7500    1.2990    0.0000 C   0  0  0  0  0  0  0  0  0  0  0  0
   -1.5000    0.0000    0.0000 N   0  0  0  0  0  0  0  0  0  0  0  0
   -0.7500   -1.2990    0.0000 C   0  0  0  0  0  0  0  0  0  0  0  0
   -2.9520   -4.6564    0.0000 C   0  0  0  0  0  0  0  0  0  0  0  0
  1  2  2  0
  2  3  1  0
  3  4  2  0
  3  5  1  0
  5  6  1  0
  6  7  1  0
  7  8  1  0
  8  9  1  0
  9 10  1  1
 10 11  1  0
 11 12  2  0
 12 13  1  0
 13 14  2  0
 14 15  1  0
 15 16  2  0
 16 17  1  0
 17 18  1  0
 18 19  2  0
 18 20  1  0
 20 21  1  0
 21 22  1  0
 22 23  2  0
 23 24  1  0
 24 25  2  0
 25 26  1  0
 26 27  1  0
 26 28  1  0
 26 29  1  0
 25 30  1  0
 30 31  2  0
 17 32  2  0
 12 33  1  0
 33 34  2  0
 34 35  1  0
 34 36  1  0
 36 37  2  0
 37 38  1  0
 38 39  2  0
  9 40  1  0
 40  5  1  0
 39 10  1  0
 32 13  1  0
 39 33  1  0
 31 22  1  0
M  END
>  <Compound_ID>  (47) 
CHEMBL2179806

>  <Molecule Name>  (47) 
nan

>  <Molecular Weight>  (47) 
537.67

>  <AlogP>  (47) 
4.65

>  <Smiles>  (47) 
C=CC(=O)N1CCC[C@@H](n2nc(-c3cccc(C(=O)NCc4ccc(C(C)(C)C)cc4)c3)c3c(N)ncnc32)C1

>  <Standard Type>  (47) 
IC50

>  <Standard Relation>  (47) 
'='

>  <Standard Units>  (47) 
nM

>  <Standard Value>  (47) 
10.0

>  <Assay ChEMBL ID>  (47) 
CHEMBL2185029

>  <Assay Description>  (47) 
Covalent inhibition of ITK in presence of 1 mM ATP

>  <BAO Format ID>  (47) 
BAO_0000357

>  <BAO Label>  (47) 
single protein format

>  <Assay Organism>  (47) 
None

>  <Target ChEMBL ID>  (47) 
CHEMBL2959

>  <Target Name>  (47) 
Tyrosine-protein kinase ITK/TSK

>  <Target Organism>  (47) 
Homo sapiens

>  <Target Type>  (47) 
SINGLE PROTEIN

>  <Document ChEMBL ID>  (47) 
CHEMBL2177048

>  <Source Description>  (47) 
Scientific Literature

>  <Document Journal>  (47) 
J Med Chem

>  <Document Year>  (47) 
2012.0

>  <Active>  (47) 
1.0

$$$$

     RDKit          2D

 36 39  0  0  0  0  0  0  0  0999 V2000
    0.7500   -3.8971    0.0000 C   0  0  0  0  0  0  0  0  0  0  0  0
    1.5000   -2.5981    0.0000 N   0  0  0  0  0  0  0  0  0  0  0  0
    3.0000   -2.5981    0.0000 C   0  0  0  0  0  0  0  0  0  0  0  0
    3.7500   -1.2990    0.0000 O   0  0  0  0  0  0  0  0  0  0  0  0
    3.7500   -3.8971    0.0000 C   0  0  0  0  0  0  0  0  0  0  0  0
    3.0000   -5.1962    0.0000 C   0  0  0  0  0  0  0  0  0  0  0  0
    3.7500   -6.4952    0.0000 C   0  0  0  0  0  0  0  0  0  0  0  0
    5.2500   -6.4952    0.0000 C   0  0  0  0  0  0  0  0  0  0  0  0
    6.0000   -7.7942    0.0000 F   0  0  0  0  0  0  0  0  0  0  0  0
    6.0000   -5.1962    0.0000 C   0  0  0  0  0  0  0  0  0  0  0  0
    5.2500   -3.8971    0.0000 C   0  0  0  0  0  0  0  0  0  0  0  0
    0.7500   -1.2990    0.0000 C   0  0  0  0  0  0  0  0  0  0  0  0
    1.5000    0.0000    0.0000 C   0  0  0  0  0  0  0  0  0  0  0  0
    0.7500    1.2990    0.0000 C   0  0  0  0  0  0  0  0  0  0  0  0
   -0.7500    1.2990    0.0000 C   0  0  0  0  0  0  0  0  0  0  0  0
   -1.5000    0.0000    0.0000 C   0  0  0  0  0  0  0  0  0  0  0  0
   -0.7500   -1.2990    0.0000 C   0  0  0  0  0  0  0  0  0  0  0  0
   -2.9672    0.3119    0.0000 N   0  0  0  0  0  0  0  0  0  0  0  0
   -3.1240    1.8037    0.0000 C   0  0  0  0  0  0  0  0  0  0  0  0
   -4.4231    2.5537    0.0000 N   0  0  0  0  0  0  0  0  0  0  0  0
   -4.4231    4.0537    0.0000 C   0  0  0  0  0  0  0  0  0  0  0  0
   -3.1240    4.8037    0.0000 O   0  0  0  0  0  0  0  0  0  0  0  0
   -5.7221    4.8037    0.0000 C   0  0  0  0  0  0  0  0  0  0  0  0
   -5.7221    6.3037    0.0000 C   0  0  0  0  0  0  0  0  0  0  0  0
   -7.0211    7.0537    0.0000 C   0  0  0  0  0  0  0  0  0  0  0  0
   -8.3202    6.3037    0.0000 C   0  0  0  0  0  0  0  0  0  0  0  0
   -9.6192    7.0537    0.0000 C   0  0  0  0  0  0  0  0  0  0  0  0
  -10.9182    7.8037    0.0000 N   0  0  0  0  0  0  0  0  0  0  0  0
   -8.3202    4.8037    0.0000 C   0  0  0  0  0  0  0  0  0  0  0  0
   -7.0211    4.0537    0.0000 C   0  0  0  0  0  0  0  0  0  0  0  0
   -1.7537    2.4138    0.0000 N   0  0  0  0  0  0  0  0  0  0  0  0
   -1.4418    3.8810    0.0000 C   0  0  0  0  0  0  0  0  0  0  0  0
   -0.0152    4.3445    0.0000 C   0  0  0  0  0  0  0  0  0  0  0  0
    0.2966    5.8117    0.0000 C   0  0  0  0  0  0  0  0  0  0  0  0
    1.7232    6.2752    0.0000 N   0  0  0  0  0  0  0  0  0  0  0  0
   -0.8181    6.8154    0.0000 O   0  0  0  0  0  0  0  0  0  0  0  0
  1  2  1  0
  2  3  1  0
  3  4  2  0
  3  5  1  0
  5  6  2  0
  6  7  1  0
  7  8  2  0
  8  9  1  0
  8 10  1  0
 10 11  2  0
  2 12  1  0
 12 13  2  0
 13 14  1  0
 14 15  2  0
 15 16  1  0
 16 17  2  0
 16 18  1  0
 18 19  2  0
 19 20  1  0
 20 21  1  0
 21 22  2  0
 21 23  1  0
 23 24  2  0
 24 25  1  0
 25 26  2  0
 26 27  1  0
 27 28  3  0
 26 29  1  0
 29 30  2  0
 19 31  1  0
 31 32  1  0
 32 33  1  0
 33 34  1  0
 34 35  1  0
 34 36  2  0
 11  5  1  0
 17 12  1  0
 30 23  1  0
 31 15  1  0
M  END
>  <Compound_ID>  (48) 
CHEMBL483581

>  <Molecule Name>  (48) 
nan

>  <Molecular Weight>  (48) 
484.49

>  <AlogP>  (48) 
3.45

>  <Smiles>  (48) 
CN(C(=O)c1ccc(F)cc1)c1ccc2c(c1)nc(NC(=O)c1ccc(C#N)cc1)n2CCC(N)=O

>  <Standard Type>  (48) 
IC50

>  <Standard Relation>  (48) 
'='

>  <Standard Units>  (48) 
nM

>  <Standard Value>  (48) 
2.0

>  <Assay ChEMBL ID>  (48) 
CHEMBL992543

>  <Assay Description>  (48) 
Inhibition of recombinant ITK by DELFIA assay

>  <BAO Format ID>  (48) 
BAO_0000357

>  <BAO Label>  (48) 
single protein format

>  <Assay Organism>  (48) 
None

>  <Target ChEMBL ID>  (48) 
CHEMBL2959

>  <Target Name>  (48) 
Tyrosine-protein kinase ITK/TSK

>  <Target Organism>  (48) 
Homo sapiens

>  <Target Type>  (48) 
SINGLE PROTEIN

>  <Document ChEMBL ID>  (48) 
CHEMBL1142466

>  <Source Description>  (48) 
Scientific Literature

>  <Document Journal>  (48) 
Bioorg Med Chem Lett

>  <Document Year>  (48) 
2008.0

>  <Active>  (48) 
1.0

$$$$

     RDKit          2D

 44 49  0  0  0  0  0  0  0  0999 V2000
   -4.6883    2.2939    0.0000 C   0  0  0  0  0  0  0  0  0  0  0  0
   -4.3764    3.7611    0.0000 C   0  0  0  0  0  0  0  0  0  0  0  0
   -5.4912    4.7648    0.0000 C   0  0  0  0  0  0  0  0  0  0  0  0
   -6.9177    4.3013    0.0000 N   0  0  0  0  0  0  0  0  0  0  0  0
   -8.0325    5.3050    0.0000 C   0  0  0  0  0  0  0  0  0  0  0  0
   -7.7206    6.7722    0.0000 O   0  0  0  0  0  0  0  0  0  0  0  0
   -9.4590    4.8414    0.0000 C   0  0  0  0  0  0  0  0  0  0  0  0
  -10.5738    5.8451    0.0000 C   0  0  0  0  0  0  0  0  0  0  0  0
  -12.0003    5.3816    0.0000 C   0  0  0  0  0  0  0  0  0  0  0  0
  -12.3122    3.9144    0.0000 C   0  0  0  0  0  0  0  0  0  0  0  0
  -13.7388    3.4509    0.0000 C   0  0  0  0  0  0  0  0  0  0  0  0
  -14.2023    4.8774    0.0000 C   0  0  0  0  0  0  0  0  0  0  0  0
  -13.2753    2.0243    0.0000 C   0  0  0  0  0  0  0  0  0  0  0  0
  -15.1654    2.9873    0.0000 C   0  0  0  0  0  0  0  0  0  0  0  0
  -11.1975    2.9107    0.0000 C   0  0  0  0  0  0  0  0  0  0  0  0
   -9.7709    3.3742    0.0000 C   0  0  0  0  0  0  0  0  0  0  0  0
   -5.1793    6.2320    0.0000 C   0  0  0  0  0  0  0  0  0  0  0  0
   -3.7527    6.6955    0.0000 C   0  0  0  0  0  0  0  0  0  0  0  0
   -2.6380    5.6918    0.0000 C   0  0  0  0  0  0  0  0  0  0  0  0
   -2.9499    4.2246    0.0000 C   0  0  0  0  0  0  0  0  0  0  0  0
   -1.8351    3.2209    0.0000 C   0  0  0  0  0  0  0  0  0  0  0  0
   -0.4086    3.6844    0.0000 N   0  0  0  0  0  0  0  0  0  0  0  0
    0.7062    2.6807    0.0000 C   0  0  0  0  0  0  0  0  0  0  0  0
    2.1328    3.1443    0.0000 N   0  0  0  0  0  0  0  0  0  0  0  0
    2.4446    4.6115    0.0000 C   0  0  0  0  0  0  0  0  0  0  0  0
    3.8712    5.0750    0.0000 C   0  0  0  0  0  0  0  0  0  0  0  0
    4.1831    6.5422    0.0000 C   0  0  0  0  0  0  0  0  0  0  0  0
    3.0684    7.5459    0.0000 C   0  0  0  0  0  0  0  0  0  0  0  0
    3.3802    9.0132    0.0000 C   0  0  0  0  0  0  0  0  0  0  0  0
    2.2655   10.0169    0.0000 O   0  0  0  0  0  0  0  0  0  0  0  0
    4.8068    9.4767    0.0000 N   0  0  0  0  0  0  0  0  0  0  0  0
    5.9215    8.4730    0.0000 C   0  0  0  0  0  0  0  0  0  0  0  0
    7.3481    8.9365    0.0000 C   0  0  0  0  0  0  0  0  0  0  0  0
    7.6600   10.4037    0.0000 O   0  0  0  0  0  0  0  0  0  0  0  0
    6.5453   11.4074    0.0000 C   0  0  0  0  0  0  0  0  0  0  0  0
    5.1187   10.9439    0.0000 C   0  0  0  0  0  0  0  0  0  0  0  0
    1.6418    7.0824    0.0000 C   0  0  0  0  0  0  0  0  0  0  0  0
    1.3299    5.6152    0.0000 C   0  0  0  0  0  0  0  0  0  0  0  0
    0.3943    1.2135    0.0000 C   0  0  0  0  0  0  0  0  0  0  0  0
    1.2760    0.0000    0.0000 N   0  0  0  0  0  0  0  0  0  0  0  0
    0.3943   -1.2135    0.0000 C   0  0  0  0  0  0  0  0  0  0  0  0
   -1.0323   -0.7500    0.0000 N   0  0  0  0  0  0  0  0  0  0  0  0
   -1.0323    0.7500    0.0000 C   0  0  0  0  0  0  0  0  0  0  0  0
   -2.1470    1.7537    0.0000 N   0  0  0  0  0  0  0  0  0  0  0  0
  1  2  1  0
  2  3  2  0
  3  4  1  0
  4  5  1  0
  5  6  2  0
  5  7  1  0
  7  8  2  0
  8  9  1  0
  9 10  2  0
 10 11  1  0
 11 12  1  0
 11 13  1  0
 11 14  1  0
 10 15  1  0
 15 16  2  0
  3 17  1  0
 17 18  2  0
 18 19  1  0
 19 20  2  0
 20 21  1  0
 21 22  2  0
 22 23  1  0
 23 24  1  0
 24 25  1  0
 25 26  2  0
 26 27  1  0
 27 28  2  0
 28 29  1  0
 29 30  2  0
 29 31  1  0
 31 32  1  0
 32 33  1  0
 33 34  1  0
 34 35  1  0
 35 36  1  0
 28 37  1  0
 37 38  2  0
 23 39  2  0
 39 40  1  0
 40 41  2  0
 41 42  1  0
 42 43  1  0
 43 44  2  0
 20  2  1  0
 44 21  1  0
 16  7  1  0
 38 25  1  0
 43 39  1  0
 36 31  1  0
M  END
>  <Compound_ID>  (49) 
CHEMBL3263640

>  <Molecule Name>  (49) 
nan

>  <Molecular Weight>  (49) 
589.7

>  <AlogP>  (49) 
6.09

>  <Smiles>  (49) 
Cc1c(NC(=O)c2ccc(C(C)(C)C)cc2)cccc1-c1nc(Nc2ccc(C(=O)N3CCOCC3)cc2)c2nc[nH]c2n1

>  <Standard Type>  (49) 
IC50

>  <Standard Relation>  (49) 
'='

>  <Standard Units>  (49) 
nM

>  <Standard Value>  (49) 
52.0

>  <Assay ChEMBL ID>  (49) 
CHEMBL3270600

>  <Assay Description>  (49) 
Inhibition of ITK (unknown origin)

>  <BAO Format ID>  (49) 
BAO_0000357

>  <BAO Label>  (49) 
single protein format

>  <Assay Organism>  (49) 
Homo sapiens

>  <Target ChEMBL ID>  (49) 
CHEMBL2959

>  <Target Name>  (49) 
Tyrosine-protein kinase ITK/TSK

>  <Target Organism>  (49) 
Homo sapiens

>  <Target Type>  (49) 
SINGLE PROTEIN

>  <Document ChEMBL ID>  (49) 
CHEMBL3259754

>  <Source Description>  (49) 
Scientific Literature

>  <Document Journal>  (49) 
Bioorg Med Chem Lett

>  <Document Year>  (49) 
2014.0

>  <Active>  (49) 
1.0

$$$$

     RDKit          2D

 32 35  0  0  0  0  0  0  0  0999 V2000
   -7.7227   -2.1088    0.0000 C   0  0  0  0  0  0  0  0  0  0  0  0
   -6.2961   -1.6453    0.0000 O   0  0  0  0  0  0  0  0  0  0  0  0
   -5.1814   -2.6490    0.0000 C   0  0  0  0  0  0  0  0  0  0  0  0
   -3.7548   -2.1855    0.0000 C   0  0  0  0  0  0  0  0  0  0  0  0
   -2.6401   -3.1891    0.0000 C   0  0  0  0  0  0  0  0  0  0  0  0
   -1.2135   -2.7256    0.0000 N   0  0  0  0  0  0  0  0  0  0  0  0
   -0.0000   -3.6073    0.0000 C   0  0  0  0  0  0  0  0  0  0  0  0
   -0.0000   -5.1073    0.0000 N   0  0  0  0  0  0  0  0  0  0  0  0
   -1.2990   -5.8573    0.0000 C   0  0  0  0  0  0  0  0  0  0  0  0
   -2.5981   -5.1073    0.0000 O   0  0  0  0  0  0  0  0  0  0  0  0
   -1.2990   -7.3573    0.0000 C   0  0  0  0  0  0  0  0  0  0  0  0
   -2.5981   -8.1073    0.0000 C   0  0  0  0  0  0  0  0  0  0  0  0
   -2.5981   -9.6073    0.0000 C   0  0  0  0  0  0  0  0  0  0  0  0
   -1.2990  -10.3573    0.0000 C   0  0  0  0  0  0  0  0  0  0  0  0
   -1.2990  -11.8573    0.0000 C   0  0  0  0  0  0  0  0  0  0  0  0
   -1.2990  -13.3573    0.0000 N   0  0  0  0  0  0  0  0  0  0  0  0
   -0.0000   -9.6073    0.0000 C   0  0  0  0  0  0  0  0  0  0  0  0
   -0.0000   -8.1073    0.0000 C   0  0  0  0  0  0  0  0  0  0  0  0
    1.2135   -2.7256    0.0000 N   0  0  0  0  0  0  0  0  0  0  0  0
    0.7500   -1.2990    0.0000 C   0  0  0  0  0  0  0  0  0  0  0  0
    1.5000    0.0000    0.0000 C   0  0  0  0  0  0  0  0  0  0  0  0
    0.7500    1.2990    0.0000 C   0  0  0  0  0  0  0  0  0  0  0  0
    1.5000    2.5981    0.0000 C   0  0  0  0  0  0  0  0  0  0  0  0
    3.0000    2.5981    0.0000 N   0  0  0  0  0  0  0  0  0  0  0  0
    3.7500    1.2990    0.0000 C   0  0  0  0  0  0  0  0  0  0  0  0
    5.2500    1.2990    0.0000 C   0  0  0  0  0  0  0  0  0  0  0  0
    6.0000    2.5981    0.0000 O   0  0  0  0  0  0  0  0  0  0  0  0
    5.2500    3.8971    0.0000 C   0  0  0  0  0  0  0  0  0  0  0  0
    3.7500    3.8971    0.0000 C   0  0  0  0  0  0  0  0  0  0  0  0
   -0.7500    1.2990    0.0000 C   0  0  0  0  0  0  0  0  0  0  0  0
   -1.5000    0.0000    0.0000 C   0  0  0  0  0  0  0  0  0  0  0  0
   -0.7500   -1.2990    0.0000 C   0  0  0  0  0  0  0  0  0  0  0  0
  1  2  1  0
  2  3  1  0
  3  4  1  0
  4  5  1  0
  5  6  1  0
  6  7  1  0
  7  8  1  0
  8  9  1  0
  9 10  2  0
  9 11  1  0
 11 12  2  0
 12 13  1  0
 13 14  2  0
 14 15  1  0
 15 16  3  0
 14 17  1  0
 17 18  2  0
  7 19  2  0
 19 20  1  0
 20 21  2  0
 21 22  1  0
 22 23  1  0
 23 24  1  0
 24 25  1  0
 25 26  1  0
 26 27  1  0
 27 28  1  0
 28 29  1  0
 22 30  2  0
 30 31  1  0
 31 32  2  0
 32  6  1  0
 18 11  1  0
 32 20  1  0
 29 24  1  0
M  END
>  <Compound_ID>  (50) 
CHEMBL488186

>  <Molecule Name>  (50) 
nan

>  <Molecular Weight>  (50) 
433.51

>  <AlogP>  (50) 
3.03

>  <Smiles>  (50) 
COCCCn1c(NC(=O)c2ccc(C#N)cc2)nc2cc(CN3CCOCC3)ccc21

>  <Standard Type>  (50) 
IC50

>  <Standard Relation>  (50) 
'='

>  <Standard Units>  (50) 
nM

>  <Standard Value>  (50) 
69.0

>  <Assay ChEMBL ID>  (50) 
CHEMBL1006237

>  <Assay Description>  (50) 
Inhibition of ITK by DELPHIA assay

>  <BAO Format ID>  (50) 
BAO_0000357

>  <BAO Label>  (50) 
single protein format

>  <Assay Organism>  (50) 
None

>  <Target ChEMBL ID>  (50) 
CHEMBL2959

>  <Target Name>  (50) 
Tyrosine-protein kinase ITK/TSK

>  <Target Organism>  (50) 
Homo sapiens

>  <Target Type>  (50) 
SINGLE PROTEIN

>  <Document ChEMBL ID>  (50) 
CHEMBL1152240

>  <Source Description>  (50) 
Scientific Literature

>  <Document Journal>  (50) 
Bioorg Med Chem Lett

>  <Document Year>  (50) 
2008.0

>  <Active>  (50) 
1.0

$$$$

     RDKit          2D

 36 39  0  0  0  0  0  0  0  0999 V2000
    3.7500   -3.8971    0.0000 C   0  0  0  0  0  0  0  0  0  0  0  0
    3.0000   -2.5981    0.0000 C   0  0  0  0  0  0  0  0  0  0  0  0
    3.7500   -1.2990    0.0000 N   0  0  0  0  0  0  0  0  0  0  0  0
    5.2500   -1.2990    0.0000 C   0  0  0  0  0  0  0  0  0  0  0  0
    3.0000    0.0000    0.0000 C   0  0  0  0  0  0  0  0  0  0  0  0
    1.5000    0.0000    0.0000 C   0  0  0  0  0  0  0  0  0  0  0  0
    0.7500   -1.2990    0.0000 C   0  0  0  0  0  0  0  0  0  0  0  0
   -0.7500   -1.2990    0.0000 C   0  0  0  0  0  0  0  0  0  0  0  0
   -1.5000    0.0000    0.0000 C   0  0  0  0  0  0  0  0  0  0  0  0
   -0.7500    1.2990    0.0000 C   0  0  0  0  0  0  0  0  0  0  0  0
    0.7500    1.2990    0.0000 C   0  0  0  0  0  0  0  0  0  0  0  0
   -1.7537    2.4138    0.0000 N   0  0  0  0  0  0  0  0  0  0  0  0
   -3.1240    1.8037    0.0000 C   0  0  0  0  0  0  0  0  0  0  0  0
   -4.4231    2.5537    0.0000 N   0  0  0  0  0  0  0  0  0  0  0  0
   -4.4231    4.0537    0.0000 C   0  0  0  0  0  0  0  0  0  0  0  0
   -3.1240    4.8037    0.0000 O   0  0  0  0  0  0  0  0  0  0  0  0
   -5.7221    4.8037    0.0000 C   0  0  0  0  0  0  0  0  0  0  0  0
   -7.0924    4.1935    0.0000 C   0  0  0  0  0  0  0  0  0  0  0  0
   -8.0961    5.3083    0.0000 C   0  0  0  0  0  0  0  0  0  0  0  0
   -7.3461    6.6073    0.0000 C   0  0  0  0  0  0  0  0  0  0  0  0
   -7.9562    7.9776    0.0000 C   0  0  0  0  0  0  0  0  0  0  0  0
   -9.4234    8.2895    0.0000 C   0  0  0  0  0  0  0  0  0  0  0  0
   -9.5802    9.7813    0.0000 N   0  0  0  0  0  0  0  0  0  0  0  0
   -8.2099   10.3914    0.0000 N   0  0  0  0  0  0  0  0  0  0  0  0
   -7.2062    9.2767    0.0000 C   0  0  0  0  0  0  0  0  0  0  0  0
   -5.8789    6.2954    0.0000 S   0  0  0  0  0  0  0  0  0  0  0  0
   -2.9672    0.3119    0.0000 N   0  0  0  0  0  0  0  0  0  0  0  0
   -4.0819   -0.6918    0.0000 C   0  0  0  0  0  0  0  0  0  0  0  0
   -5.5085   -0.2283    0.0000 C   0  0  0  0  0  0  0  0  0  0  0  0
   -5.0450    1.1983    0.0000 C   0  0  0  0  0  0  0  0  0  0  0  0
   -5.9720   -1.6549    0.0000 C   0  0  0  0  0  0  0  0  0  0  0  0
   -6.9351    0.2352    0.0000 O   0  0  0  0  0  0  0  0  0  0  0  0
    1.5000   -2.5981    0.0000 C   0  0  0  0  0  0  0  0  0  0  0  0
    1.5000   -4.0981    0.0000 C   0  0  0  0  0  0  0  0  0  0  0  0
    1.5000   -1.0981    0.0000 C   0  0  0  0  0  0  0  0  0  0  0  0
    0.0000   -2.5981    0.0000 C   0  0  0  0  0  0  0  0  0  0  0  0
  2  1  1  6
  2  3  1  0
  3  4  1  0
  3  5  1  0
  5  6  1  0
  6  7  2  0
  7  8  1  0
  8  9  2  0
  9 10  1  0
 10 11  2  0
 10 12  1  0
 12 13  1  0
 13 14  2  0
 14 15  1  0
 15 16  2  0
 15 17  1  0
 17 18  2  0
 18 19  1  0
 19 20  2  0
 20 21  1  0
 21 22  1  0
 22 23  2  0
 23 24  1  0
 24 25  1  0
 20 26  1  0
 13 27  1  0
 27 28  1  0
 28 29  1  0
 29 30  1  0
 29 31  1  0
 29 32  1  0
  2 33  1  0
 33 34  1  0
 33 35  1  0
 33 36  1  0
 11  6  1  0
 26 17  1  0
 27  9  1  0
 25 21  2  0
M  END
>  <Compound_ID>  (51) 
CHEMBL495181

>  <Molecule Name>  (51) 
nan

>  <Molecular Weight>  (51) 
508.69

>  <AlogP>  (51) 
4.80

>  <Smiles>  (51) 
C[C@@H](N(C)Cc1ccc2c(c1)[nH]/c(=N\C(=O)c1ccc(-c3cn[nH]c3)s1)n2CC(C)(C)O)C(C)(C)C

>  <Standard Type>  (51) 
IC50

>  <Standard Relation>  (51) 
'='

>  <Standard Units>  (51) 
nM

>  <Standard Value>  (51) 
1.0

>  <Assay ChEMBL ID>  (51) 
CHEMBL1018826

>  <Assay Description>  (51) 
Binding affinity to ITK by DELFIA-based molecular assay

>  <BAO Format ID>  (51) 
BAO_0000357

>  <BAO Label>  (51) 
single protein format

>  <Assay Organism>  (51) 
None

>  <Target ChEMBL ID>  (51) 
CHEMBL2959

>  <Target Name>  (51) 
Tyrosine-protein kinase ITK/TSK

>  <Target Organism>  (51) 
Homo sapiens

>  <Target Type>  (51) 
SINGLE PROTEIN

>  <Document ChEMBL ID>  (51) 
CHEMBL1153328

>  <Source Description>  (51) 
Scientific Literature

>  <Document Journal>  (51) 
Bioorg Med Chem Lett

>  <Document Year>  (51) 
2009.0

>  <Active>  (51) 
1.0

$$$$

     RDKit          2D

 40 44  0  0  0  0  0  0  0  0999 V2000
    0.7500   -3.8971    0.0000 C   0  0  0  0  0  0  0  0  0  0  0  0
    1.5000   -2.5981    0.0000 N   0  0  0  0  0  0  0  0  0  0  0  0
    3.0000   -2.5981    0.0000 C   0  0  0  0  0  0  0  0  0  0  0  0
    3.7500   -1.2990    0.0000 O   0  0  0  0  0  0  0  0  0  0  0  0
    3.7500   -3.8971    0.0000 C   0  0  0  0  0  0  0  0  0  0  0  0
    3.0000   -5.1962    0.0000 C   0  0  0  0  0  0  0  0  0  0  0  0
    3.7500   -6.4952    0.0000 C   0  0  0  0  0  0  0  0  0  0  0  0
    5.2500   -6.4952    0.0000 C   0  0  0  0  0  0  0  0  0  0  0  0
    6.0000   -5.1962    0.0000 C   0  0  0  0  0  0  0  0  0  0  0  0
    5.2500   -3.8971    0.0000 C   0  0  0  0  0  0  0  0  0  0  0  0
    0.7500   -1.2990    0.0000 C   0  0  0  0  0  0  0  0  0  0  0  0
    1.5000    0.0000    0.0000 C   0  0  0  0  0  0  0  0  0  0  0  0
    0.7500    1.2990    0.0000 C   0  0  0  0  0  0  0  0  0  0  0  0
   -0.7500    1.2990    0.0000 C   0  0  0  0  0  0  0  0  0  0  0  0
   -1.5000    0.0000    0.0000 C   0  0  0  0  0  0  0  0  0  0  0  0
   -0.7500   -1.2990    0.0000 C   0  0  0  0  0  0  0  0  0  0  0  0
   -2.9672    0.3119    0.0000 N   0  0  0  0  0  0  0  0  0  0  0  0
   -3.1240    1.8037    0.0000 C   0  0  0  0  0  0  0  0  0  0  0  0
   -4.4231    2.5537    0.0000 N   0  0  0  0  0  0  0  0  0  0  0  0
   -5.7221    1.8037    0.0000 C   0  0  0  0  0  0  0  0  0  0  0  0
   -5.7221    0.3037    0.0000 O   0  0  0  0  0  0  0  0  0  0  0  0
   -7.0211    2.5537    0.0000 C   0  0  0  0  0  0  0  0  0  0  0  0
   -8.3914    1.9435    0.0000 C   0  0  0  0  0  0  0  0  0  0  0  0
   -9.3951    3.0583    0.0000 C   0  0  0  0  0  0  0  0  0  0  0  0
   -8.6451    4.3573    0.0000 C   0  0  0  0  0  0  0  0  0  0  0  0
   -9.2552    5.7276    0.0000 O   0  0  0  0  0  0  0  0  0  0  0  0
   -8.3736    6.9411    0.0000 C   0  0  0  0  0  0  0  0  0  0  0  0
   -8.9837    8.3115    0.0000 C   0  0  0  0  0  0  0  0  0  0  0  0
   -8.1020    9.5250    0.0000 C   0  0  0  0  0  0  0  0  0  0  0  0
   -8.7121   10.8953    0.0000 C   0  0  0  0  0  0  0  0  0  0  0  0
  -10.2039   11.0521    0.0000 C   0  0  0  0  0  0  0  0  0  0  0  0
  -11.0856    9.8386    0.0000 C   0  0  0  0  0  0  0  0  0  0  0  0
  -10.4755    8.4683    0.0000 C   0  0  0  0  0  0  0  0  0  0  0  0
   -7.1779    4.0454    0.0000 S   0  0  0  0  0  0  0  0  0  0  0  0
   -1.7537    2.4138    0.0000 N   0  0  0  0  0  0  0  0  0  0  0  0
   -1.4418    3.8810    0.0000 C   0  0  0  0  0  0  0  0  0  0  0  0
   -0.0152    4.3445    0.0000 C   0  0  0  0  0  0  0  0  0  0  0  0
    0.2966    5.8117    0.0000 C   0  0  0  0  0  0  0  0  0  0  0  0
    1.7232    6.2752    0.0000 N   0  0  0  0  0  0  0  0  0  0  0  0
   -0.8181    6.8154    0.0000 O   0  0  0  0  0  0  0  0  0  0  0  0
  1  2  1  0
  2  3  1  0
  3  4  2  0
  3  5  1  0
  5  6  2  0
  6  7  1  0
  7  8  2  0
  8  9  1  0
  9 10  2  0
  2 11  1  0
 11 12  2  0
 12 13  1  0
 13 14  2  0
 14 15  1  0
 15 16  2  0
 15 17  1  0
 17 18  1  0
 18 19  2  0
 19 20  1  0
 20 21  2  0
 20 22  1  0
 22 23  2  0
 23 24  1  0
 24 25  2  0
 25 26  1  0
 26 27  1  0
 27 28  1  0
 28 29  2  0
 29 30  1  0
 30 31  2  0
 31 32  1  0
 32 33  2  0
 25 34  1  0
 18 35  1  0
 35 36  1  0
 36 37  1  0
 37 38  1  0
 38 39  1  0
 38 40  2  0
 10  5  1  0
 16 11  1  0
 34 22  1  0
 35 14  1  0
 33 28  1  0
M  END
>  <Compound_ID>  (52) 
CHEMBL480574

>  <Molecule Name>  (52) 
nan

>  <Molecular Weight>  (52) 
553.64

>  <AlogP>  (52) 
4.50

>  <Smiles>  (52) 
CN(C(=O)c1ccccc1)c1ccc2c(c1)[nH]/c(=N\C(=O)c1ccc(OCc3ccccc3)s1)n2CCC(N)=O

>  <Standard Type>  (52) 
IC50

>  <Standard Relation>  (52) 
'='

>  <Standard Units>  (52) 
nM

>  <Standard Value>  (52) 
35.0

>  <Assay ChEMBL ID>  (52) 
CHEMBL992190

>  <Assay Description>  (52) 
Inhibition of ITK by DELFIA method

>  <BAO Format ID>  (52) 
BAO_0000357

>  <BAO Label>  (52) 
single protein format

>  <Assay Organism>  (52) 
None

>  <Target ChEMBL ID>  (52) 
CHEMBL2959

>  <Target Name>  (52) 
Tyrosine-protein kinase ITK/TSK

>  <Target Organism>  (52) 
Homo sapiens

>  <Target Type>  (52) 
SINGLE PROTEIN

>  <Document ChEMBL ID>  (52) 
CHEMBL1143295

>  <Source Description>  (52) 
Scientific Literature

>  <Document Journal>  (52) 
Bioorg Med Chem Lett

>  <Document Year>  (52) 
2009.0

>  <Active>  (52) 
1.0

$$$$

     RDKit          2D

 37 41  0  0  0  0  0  0  0  0999 V2000
    0.7500   -3.8971    0.0000 C   0  0  0  0  0  0  0  0  0  0  0  0
    1.5000   -2.5981    0.0000 N   0  0  0  0  0  0  0  0  0  0  0  0
    3.0000   -2.5981    0.0000 C   0  0  0  0  0  0  0  0  0  0  0  0
    3.7500   -1.2990    0.0000 O   0  0  0  0  0  0  0  0  0  0  0  0
    3.7500   -3.8971    0.0000 C   0  0  0  0  0  0  0  0  0  0  0  0
    3.0000   -5.1962    0.0000 C   0  0  0  0  0  0  0  0  0  0  0  0
    3.7500   -6.4952    0.0000 C   0  0  0  0  0  0  0  0  0  0  0  0
    5.2500   -6.4952    0.0000 C   0  0  0  0  0  0  0  0  0  0  0  0
    6.0000   -5.1962    0.0000 C   0  0  0  0  0  0  0  0  0  0  0  0
    5.2500   -3.8971    0.0000 C   0  0  0  0  0  0  0  0  0  0  0  0
    0.7500   -1.2990    0.0000 C   0  0  0  0  0  0  0  0  0  0  0  0
    1.5000    0.0000    0.0000 C   0  0  0  0  0  0  0  0  0  0  0  0
    0.7500    1.2990    0.0000 C   0  0  0  0  0  0  0  0  0  0  0  0
   -0.7500    1.2990    0.0000 C   0  0  0  0  0  0  0  0  0  0  0  0
   -1.5000    0.0000    0.0000 C   0  0  0  0  0  0  0  0  0  0  0  0
   -0.7500   -1.2990    0.0000 C   0  0  0  0  0  0  0  0  0  0  0  0
   -2.9672    0.3119    0.0000 N   0  0  0  0  0  0  0  0  0  0  0  0
   -3.1240    1.8037    0.0000 C   0  0  0  0  0  0  0  0  0  0  0  0
   -4.4231    2.5537    0.0000 N   0  0  0  0  0  0  0  0  0  0  0  0
   -5.7221    1.8037    0.0000 C   0  0  0  0  0  0  0  0  0  0  0  0
   -5.7221    0.3037    0.0000 O   0  0  0  0  0  0  0  0  0  0  0  0
   -7.0211    2.5537    0.0000 C   0  0  0  0  0  0  0  0  0  0  0  0
   -8.3914    1.9435    0.0000 C   0  0  0  0  0  0  0  0  0  0  0  0
   -9.3951    3.0583    0.0000 C   0  0  0  0  0  0  0  0  0  0  0  0
   -8.6451    4.3573    0.0000 C   0  0  0  0  0  0  0  0  0  0  0  0
   -9.2552    5.7276    0.0000 C   0  0  0  0  0  0  0  0  0  0  0  0
  -10.7225    6.0395    0.0000 N   0  0  0  0  0  0  0  0  0  0  0  0
  -10.8793    7.5313    0.0000 C   0  0  0  0  0  0  0  0  0  0  0  0
   -9.5089    8.1414    0.0000 C   0  0  0  0  0  0  0  0  0  0  0  0
   -8.5052    7.0267    0.0000 S   0  0  0  0  0  0  0  0  0  0  0  0
   -7.1779    4.0454    0.0000 S   0  0  0  0  0  0  0  0  0  0  0  0
   -1.7537    2.4138    0.0000 N   0  0  0  0  0  0  0  0  0  0  0  0
   -1.4418    3.8810    0.0000 C   0  0  0  0  0  0  0  0  0  0  0  0
   -0.0152    4.3445    0.0000 C   0  0  0  0  0  0  0  0  0  0  0  0
    0.2966    5.8117    0.0000 C   0  0  0  0  0  0  0  0  0  0  0  0
    1.7232    6.2752    0.0000 N   0  0  0  0  0  0  0  0  0  0  0  0
   -0.8181    6.8154    0.0000 O   0  0  0  0  0  0  0  0  0  0  0  0
  1  2  1  0
  2  3  1  0
  3  4  2  0
  3  5  1  0
  5  6  2  0
  6  7  1  0
  7  8  2  0
  8  9  1  0
  9 10  2  0
  2 11  1  0
 11 12  2  0
 12 13  1  0
 13 14  2  0
 14 15  1  0
 15 16  2  0
 15 17  1  0
 17 18  1  0
 18 19  2  0
 19 20  1  0
 20 21  2  0
 20 22  1  0
 22 23  2  0
 23 24  1  0
 24 25  2  0
 25 26  1  0
 26 27  2  0
 27 28  1  0
 28 29  2  0
 29 30  1  0
 25 31  1  0
 18 32  1  0
 32 33  1  0
 33 34  1  0
 34 35  1  0
 35 36  1  0
 35 37  2  0
 10  5  1  0
 16 11  1  0
 31 22  1  0
 32 14  1  0
 30 26  1  0
M  END
>  <Compound_ID>  (53) 
CHEMBL481559

>  <Molecule Name>  (53) 
nan

>  <Molecular Weight>  (53) 
530.64

>  <AlogP>  (53) 
4.05

>  <Smiles>  (53) 
CN(C(=O)c1ccccc1)c1ccc2c(c1)[nH]/c(=N\C(=O)c1ccc(-c3nccs3)s1)n2CCC(N)=O

>  <Standard Type>  (53) 
IC50

>  <Standard Relation>  (53) 
'='

>  <Standard Units>  (53) 
nM

>  <Standard Value>  (53) 
11.0

>  <Assay ChEMBL ID>  (53) 
CHEMBL992190

>  <Assay Description>  (53) 
Inhibition of ITK by DELFIA method

>  <BAO Format ID>  (53) 
BAO_0000357

>  <BAO Label>  (53) 
single protein format

>  <Assay Organism>  (53) 
None

>  <Target ChEMBL ID>  (53) 
CHEMBL2959

>  <Target Name>  (53) 
Tyrosine-protein kinase ITK/TSK

>  <Target Organism>  (53) 
Homo sapiens

>  <Target Type>  (53) 
SINGLE PROTEIN

>  <Document ChEMBL ID>  (53) 
CHEMBL1143295

>  <Source Description>  (53) 
Scientific Literature

>  <Document Journal>  (53) 
Bioorg Med Chem Lett

>  <Document Year>  (53) 
2009.0

>  <Active>  (53) 
1.0

$$$$

     RDKit          2D

 41 45  0  0  0  0  0  0  0  0999 V2000
    0.7500   -3.8971    0.0000 C   0  0  0  0  0  0  0  0  0  0  0  0
    1.5000   -2.5981    0.0000 N   0  0  0  0  0  0  0  0  0  0  0  0
    3.0000   -2.5981    0.0000 C   0  0  0  0  0  0  0  0  0  0  0  0
    3.7500   -1.2990    0.0000 O   0  0  0  0  0  0  0  0  0  0  0  0
    3.7500   -3.8971    0.0000 C   0  0  0  0  0  0  0  0  0  0  0  0
    3.0000   -5.1962    0.0000 C   0  0  0  0  0  0  0  0  0  0  0  0
    3.7500   -6.4952    0.0000 C   0  0  0  0  0  0  0  0  0  0  0  0
    5.2500   -6.4952    0.0000 C   0  0  0  0  0  0  0  0  0  0  0  0
    6.0000   -5.1962    0.0000 C   0  0  0  0  0  0  0  0  0  0  0  0
    5.2500   -3.8971    0.0000 C   0  0  0  0  0  0  0  0  0  0  0  0
    0.7500   -1.2990    0.0000 C   0  0  0  0  0  0  0  0  0  0  0  0
    1.5000    0.0000    0.0000 C   0  0  0  0  0  0  0  0  0  0  0  0
    0.7500    1.2990    0.0000 C   0  0  0  0  0  0  0  0  0  0  0  0
   -0.7500    1.2990    0.0000 C   0  0  0  0  0  0  0  0  0  0  0  0
   -1.5000    0.0000    0.0000 C   0  0  0  0  0  0  0  0  0  0  0  0
   -0.7500   -1.2990    0.0000 C   0  0  0  0  0  0  0  0  0  0  0  0
   -2.9672    0.3119    0.0000 N   0  0  0  0  0  0  0  0  0  0  0  0
   -3.1240    1.8037    0.0000 C   0  0  0  0  0  0  0  0  0  0  0  0
   -4.4231    2.5537    0.0000 N   0  0  0  0  0  0  0  0  0  0  0  0
   -5.7221    1.8037    0.0000 C   0  0  0  0  0  0  0  0  0  0  0  0
   -5.7221    0.3037    0.0000 O   0  0  0  0  0  0  0  0  0  0  0  0
   -7.0211    2.5537    0.0000 C   0  0  0  0  0  0  0  0  0  0  0  0
   -8.3914    1.9435    0.0000 C   0  0  0  0  0  0  0  0  0  0  0  0
   -9.3951    3.0583    0.0000 C   0  0  0  0  0  0  0  0  0  0  0  0
   -8.6451    4.3573    0.0000 C   0  0  0  0  0  0  0  0  0  0  0  0
   -9.2552    5.7276    0.0000 C   0  0  0  0  0  0  0  0  0  0  0  0
  -10.7470    5.8844    0.0000 C   0  0  0  0  0  0  0  0  0  0  0  0
  -11.3571    7.2547    0.0000 C   0  0  0  0  0  0  0  0  0  0  0  0
  -10.4755    8.4683    0.0000 C   0  0  0  0  0  0  0  0  0  0  0  0
  -11.0856    9.8386    0.0000 C   0  0  0  0  0  0  0  0  0  0  0  0
  -12.5773    9.9954    0.0000 C   0  0  0  0  0  0  0  0  0  0  0  0
  -13.1875   11.3657    0.0000 N   0  0  0  0  0  0  0  0  0  0  0  0
  -13.4590    8.7818    0.0000 C   0  0  0  0  0  0  0  0  0  0  0  0
  -12.8489    7.4115    0.0000 C   0  0  0  0  0  0  0  0  0  0  0  0
   -7.1779    4.0454    0.0000 S   0  0  0  0  0  0  0  0  0  0  0  0
   -1.7537    2.4138    0.0000 N   0  0  0  0  0  0  0  0  0  0  0  0
   -1.4418    3.8810    0.0000 C   0  0  0  0  0  0  0  0  0  0  0  0
   -0.0152    4.3445    0.0000 C   0  0  0  0  0  0  0  0  0  0  0  0
    0.2966    5.8117    0.0000 C   0  0  0  0  0  0  0  0  0  0  0  0
    1.7232    6.2752    0.0000 N   0  0  0  0  0  0  0  0  0  0  0  0
   -0.8181    6.8154    0.0000 O   0  0  0  0  0  0  0  0  0  0  0  0
  1  2  1  0
  2  3  1  0
  3  4  2  0
  3  5  1  0
  5  6  2  0
  6  7  1  0
  7  8  2  0
  8  9  1  0
  9 10  2  0
  2 11  1  0
 11 12  2  0
 12 13  1  0
 13 14  2  0
 14 15  1  0
 15 16  2  0
 15 17  1  0
 17 18  1  0
 18 19  2  0
 19 20  1  0
 20 21  2  0
 20 22  1  0
 22 23  2  0
 23 24  1  0
 24 25  2  0
 25 26  1  0
 26 27  2  0
 27 28  1  0
 28 29  2  0
 29 30  1  0
 30 31  2  0
 31 32  1  0
 31 33  1  0
 33 34  2  0
 25 35  1  0
 18 36  1  0
 36 37  1  0
 37 38  1  0
 38 39  1  0
 39 40  1  0
 39 41  2  0
 10  5  1  0
 16 11  1  0
 35 22  1  0
 36 14  1  0
 34 28  1  0
M  END
>  <Compound_ID>  (54) 
CHEMBL500349

>  <Molecule Name>  (54) 
nan

>  <Molecular Weight>  (54) 
564.67

>  <AlogP>  (54) 
4.68

>  <Smiles>  (54) 
CN(C(=O)c1ccccc1)c1ccc2c(c1)[nH]/c(=N\C(=O)c1ccc(/C=C/c3ccc(N)cc3)s1)n2CCC(N)=O

>  <Standard Type>  (54) 
IC50

>  <Standard Relation>  (54) 
'='

>  <Standard Units>  (54) 
nM

>  <Standard Value>  (54) 
6.0

>  <Assay ChEMBL ID>  (54) 
CHEMBL942219

>  <Assay Description>  (54) 
Inhibition of ITK by DELPHIA

>  <BAO Format ID>  (54) 
BAO_0000357

>  <BAO Label>  (54) 
single protein format

>  <Assay Organism>  (54) 
None

>  <Target ChEMBL ID>  (54) 
CHEMBL2959

>  <Target Name>  (54) 
Tyrosine-protein kinase ITK/TSK

>  <Target Organism>  (54) 
Homo sapiens

>  <Target Type>  (54) 
SINGLE PROTEIN

>  <Document ChEMBL ID>  (54) 
CHEMBL1152261

>  <Source Description>  (54) 
Scientific Literature

>  <Document Journal>  (54) 
Bioorg Med Chem Lett

>  <Document Year>  (54) 
2008.0

>  <Active>  (54) 
1.0

$$$$

     RDKit          2D

 42 46  0  0  0  0  0  0  0  0999 V2000
    6.7960  -11.7790    0.0000 C   0  0  0  0  0  0  0  0  0  0  0  0
    5.3042  -11.9358    0.0000 O   0  0  0  0  0  0  0  0  0  0  0  0
    4.6941  -13.3061    0.0000 C   0  0  0  0  0  0  0  0  0  0  0  0
    5.5757  -14.5197    0.0000 C   0  0  0  0  0  0  0  0  0  0  0  0
    4.9656  -15.8900    0.0000 C   0  0  0  0  0  0  0  0  0  0  0  0
    3.4739  -16.0468    0.0000 C   0  0  0  0  0  0  0  0  0  0  0  0
    2.5922  -14.8333    0.0000 C   0  0  0  0  0  0  0  0  0  0  0  0
    3.2023  -13.4629    0.0000 C   0  0  0  0  0  0  0  0  0  0  0  0
    2.3206  -12.2494    0.0000 C   0  0  0  0  0  0  0  0  0  0  0  0
    2.9307  -10.8791    0.0000 C   0  0  0  0  0  0  0  0  0  0  0  0
    2.0490   -9.6656    0.0000 C   0  0  0  0  0  0  0  0  0  0  0  0
    0.5490   -9.6656    0.0000 C   0  0  0  0  0  0  0  0  0  0  0  0
    0.0855   -8.2390    0.0000 C   0  0  0  0  0  0  0  0  0  0  0  0
    1.2990   -7.3573    0.0000 C   0  0  0  0  0  0  0  0  0  0  0  0
    1.2990   -5.8573    0.0000 C   0  0  0  0  0  0  0  0  0  0  0  0
    2.5981   -5.1073    0.0000 O   0  0  0  0  0  0  0  0  0  0  0  0
   -0.0000   -5.1073    0.0000 N   0  0  0  0  0  0  0  0  0  0  0  0
   -0.0000   -3.6073    0.0000 C   0  0  0  0  0  0  0  0  0  0  0  0
    1.2135   -2.7256    0.0000 N   0  0  0  0  0  0  0  0  0  0  0  0
    0.7500   -1.2990    0.0000 C   0  0  0  0  0  0  0  0  0  0  0  0
    1.5000    0.0000    0.0000 C   0  0  0  0  0  0  0  0  0  0  0  0
    0.7500    1.2990    0.0000 C   0  0  0  0  0  0  0  0  0  0  0  0
    1.5000    2.5981    0.0000 N   0  0  0  0  0  0  0  0  0  0  0  0
    3.0000    2.5981    0.0000 C   0  0  0  0  0  0  0  0  0  0  0  0
    0.7500    3.8971    0.0000 C   0  0  0  0  0  0  0  0  0  0  0  0
   -0.7500    3.8971    0.0000 O   0  0  0  0  0  0  0  0  0  0  0  0
    1.5000    5.1962    0.0000 C   0  0  0  0  0  0  0  0  0  0  0  0
    3.0000    5.1962    0.0000 C   0  0  0  0  0  0  0  0  0  0  0  0
    3.7500    6.4952    0.0000 C   0  0  0  0  0  0  0  0  0  0  0  0
    3.0000    7.7942    0.0000 C   0  0  0  0  0  0  0  0  0  0  0  0
    1.5000    7.7942    0.0000 C   0  0  0  0  0  0  0  0  0  0  0  0
    0.7500    6.4952    0.0000 C   0  0  0  0  0  0  0  0  0  0  0  0
   -0.7500    1.2990    0.0000 C   0  0  0  0  0  0  0  0  0  0  0  0
   -1.5000    0.0000    0.0000 C   0  0  0  0  0  0  0  0  0  0  0  0
   -0.7500   -1.2990    0.0000 C   0  0  0  0  0  0  0  0  0  0  0  0
   -1.2135   -2.7256    0.0000 N   0  0  0  0  0  0  0  0  0  0  0  0
   -2.6401   -3.1891    0.0000 C   0  0  0  0  0  0  0  0  0  0  0  0
   -3.7548   -2.1855    0.0000 C   0  0  0  0  0  0  0  0  0  0  0  0
   -5.1814   -2.6490    0.0000 C   0  0  0  0  0  0  0  0  0  0  0  0
   -6.2961   -1.6453    0.0000 N   0  0  0  0  0  0  0  0  0  0  0  0
   -5.4933   -4.1162    0.0000 O   0  0  0  0  0  0  0  0  0  0  0  0
    2.5126   -8.2390    0.0000 S   0  0  0  0  0  0  0  0  0  0  0  0
  1  2  1  0
  2  3  1  0
  3  4  2  0
  4  5  1  0
  5  6  2  0
  6  7  1  0
  7  8  2  0
  8  9  1  0
  9 10  2  0
 10 11  1  0
 11 12  2  0
 12 13  1  0
 13 14  2  0
 14 15  1  0
 15 16  2  0
 15 17  1  0
 17 18  2  0
 18 19  1  0
 19 20  1  0
 20 21  2  0
 21 22  1  0
 22 23  1  0
 23 24  1  0
 23 25  1  0
 25 26  2  0
 25 27  1  0
 27 28  2  0
 28 29  1  0
 29 30  2  0
 30 31  1  0
 31 32  2  0
 22 33  2  0
 33 34  1  0
 34 35  2  0
 35 36  1  0
 36 37  1  0
 37 38  1  0
 38 39  1  0
 39 40  1  0
 39 41  2  0
 14 42  1  0
  8  3  1  0
 42 11  1  0
 36 18  1  0
 35 20  1  0
 32 27  1  0
M  END
>  <Compound_ID>  (55) 
CHEMBL501364

>  <Molecule Name>  (55) 
nan

>  <Molecular Weight>  (55) 
579.68

>  <AlogP>  (55) 
5.10

>  <Smiles>  (55) 
COc1ccccc1/C=C/c1ccc(C(=O)/N=c2\[nH]c3cc(N(C)C(=O)c4ccccc4)ccc3n2CCC(N)=O)s1

>  <Standard Type>  (55) 
IC50

>  <Standard Relation>  (55) 
'='

>  <Standard Units>  (55) 
nM

>  <Standard Value>  (55) 
67.0

>  <Assay ChEMBL ID>  (55) 
CHEMBL942219

>  <Assay Description>  (55) 
Inhibition of ITK by DELPHIA

>  <BAO Format ID>  (55) 
BAO_0000357

>  <BAO Label>  (55) 
single protein format

>  <Assay Organism>  (55) 
None

>  <Target ChEMBL ID>  (55) 
CHEMBL2959

>  <Target Name>  (55) 
Tyrosine-protein kinase ITK/TSK

>  <Target Organism>  (55) 
Homo sapiens

>  <Target Type>  (55) 
SINGLE PROTEIN

>  <Document ChEMBL ID>  (55) 
CHEMBL1152261

>  <Source Description>  (55) 
Scientific Literature

>  <Document Journal>  (55) 
Bioorg Med Chem Lett

>  <Document Year>  (55) 
2008.0

>  <Active>  (55) 
1.0

$$$$

     RDKit          2D

 39 43  0  0  0  0  0  0  0  0999 V2000
    0.7500   -3.8971    0.0000 C   0  0  0  0  0  0  0  0  0  0  0  0
    1.5000   -2.5981    0.0000 N   0  0  0  0  0  0  0  0  0  0  0  0
    3.0000   -2.5981    0.0000 C   0  0  0  0  0  0  0  0  0  0  0  0
    3.7500   -1.2990    0.0000 O   0  0  0  0  0  0  0  0  0  0  0  0
    3.7500   -3.8971    0.0000 C   0  0  0  0  0  0  0  0  0  0  0  0
    3.0000   -5.1962    0.0000 C   0  0  0  0  0  0  0  0  0  0  0  0
    3.7500   -6.4952    0.0000 C   0  0  0  0  0  0  0  0  0  0  0  0
    5.2500   -6.4952    0.0000 C   0  0  0  0  0  0  0  0  0  0  0  0
    6.0000   -5.1962    0.0000 C   0  0  0  0  0  0  0  0  0  0  0  0
    5.2500   -3.8971    0.0000 C   0  0  0  0  0  0  0  0  0  0  0  0
    0.7500   -1.2990    0.0000 C   0  0  0  0  0  0  0  0  0  0  0  0
    1.5000    0.0000    0.0000 C   0  0  0  0  0  0  0  0  0  0  0  0
    0.7500    1.2990    0.0000 C   0  0  0  0  0  0  0  0  0  0  0  0
   -0.7500    1.2990    0.0000 C   0  0  0  0  0  0  0  0  0  0  0  0
   -1.5000    0.0000    0.0000 C   0  0  0  0  0  0  0  0  0  0  0  0
   -0.7500   -1.2990    0.0000 C   0  0  0  0  0  0  0  0  0  0  0  0
   -2.9672    0.3119    0.0000 N   0  0  0  0  0  0  0  0  0  0  0  0
   -3.1240    1.8037    0.0000 C   0  0  0  0  0  0  0  0  0  0  0  0
   -4.4231    2.5537    0.0000 N   0  0  0  0  0  0  0  0  0  0  0  0
   -5.7221    1.8037    0.0000 C   0  0  0  0  0  0  0  0  0  0  0  0
   -5.7221    0.3037    0.0000 O   0  0  0  0  0  0  0  0  0  0  0  0
   -7.0211    2.5537    0.0000 C   0  0  0  0  0  0  0  0  0  0  0  0
   -8.3914    1.9435    0.0000 C   0  0  0  0  0  0  0  0  0  0  0  0
   -9.3951    3.0583    0.0000 C   0  0  0  0  0  0  0  0  0  0  0  0
   -8.6451    4.3573    0.0000 C   0  0  0  0  0  0  0  0  0  0  0  0
   -9.2552    5.7276    0.0000 C   0  0  0  0  0  0  0  0  0  0  0  0
  -10.7470    5.8844    0.0000 C   0  0  0  0  0  0  0  0  0  0  0  0
  -11.3571    7.2547    0.0000 C   0  0  0  0  0  0  0  0  0  0  0  0
  -12.8244    7.5666    0.0000 C   0  0  0  0  0  0  0  0  0  0  0  0
  -12.9811    9.0584    0.0000 N   0  0  0  0  0  0  0  0  0  0  0  0
  -11.6108    9.6685    0.0000 N   0  0  0  0  0  0  0  0  0  0  0  0
  -10.6071    8.5538    0.0000 C   0  0  0  0  0  0  0  0  0  0  0  0
   -7.1779    4.0454    0.0000 S   0  0  0  0  0  0  0  0  0  0  0  0
   -1.7537    2.4138    0.0000 N   0  0  0  0  0  0  0  0  0  0  0  0
   -1.4418    3.8810    0.0000 C   0  0  0  0  0  0  0  0  0  0  0  0
   -0.0152    4.3445    0.0000 C   0  0  0  0  0  0  0  0  0  0  0  0
    0.2966    5.8117    0.0000 C   0  0  0  0  0  0  0  0  0  0  0  0
    1.7232    6.2752    0.0000 N   0  0  0  0  0  0  0  0  0  0  0  0
   -0.8181    6.8154    0.0000 O   0  0  0  0  0  0  0  0  0  0  0  0
  1  2  1  0
  2  3  1  0
  3  4  2  0
  3  5  1  0
  5  6  2  0
  6  7  1  0
  7  8  2  0
  8  9  1  0
  9 10  2  0
  2 11  1  0
 11 12  2  0
 12 13  1  0
 13 14  2  0
 14 15  1  0
 15 16  2  0
 15 17  1  0
 17 18  1  0
 18 19  2  0
 19 20  1  0
 20 21  2  0
 20 22  1  0
 22 23  2  0
 23 24  1  0
 24 25  2  0
 25 26  1  0
 26 27  2  0
 27 28  1  0
 28 29  1  0
 29 30  2  0
 30 31  1  0
 31 32  1  0
 25 33  1  0
 18 34  1  0
 34 35  1  0
 35 36  1  0
 36 37  1  0
 37 38  1  0
 37 39  2  0
 10  5  1  0
 16 11  1  0
 33 22  1  0
 34 14  1  0
 32 28  2  0
M  END
>  <Compound_ID>  (56) 
CHEMBL485936

>  <Molecule Name>  (56) 
nan

>  <Molecular Weight>  (56) 
539.62

>  <AlogP>  (56) 
3.82

>  <Smiles>  (56) 
CN(C(=O)c1ccccc1)c1ccc2c(c1)[nH]/c(=N\C(=O)c1ccc(/C=C/c3cn[nH]c3)s1)n2CCC(N)=O

>  <Standard Type>  (56) 
IC50

>  <Standard Relation>  (56) 
'='

>  <Standard Units>  (56) 
nM

>  <Standard Value>  (56) 
9.0

>  <Assay ChEMBL ID>  (56) 
CHEMBL942219

>  <Assay Description>  (56) 
Inhibition of ITK by DELPHIA

>  <BAO Format ID>  (56) 
BAO_0000357

>  <BAO Label>  (56) 
single protein format

>  <Assay Organism>  (56) 
None

>  <Target ChEMBL ID>  (56) 
CHEMBL2959

>  <Target Name>  (56) 
Tyrosine-protein kinase ITK/TSK

>  <Target Organism>  (56) 
Homo sapiens

>  <Target Type>  (56) 
SINGLE PROTEIN

>  <Document ChEMBL ID>  (56) 
CHEMBL1152261

>  <Source Description>  (56) 
Scientific Literature

>  <Document Journal>  (56) 
Bioorg Med Chem Lett

>  <Document Year>  (56) 
2008.0

>  <Active>  (56) 
1.0

$$$$

     RDKit          2D

 28 32  0  0  0  0  0  0  0  0999 V2000
    4.6471  -13.1563    0.0000 C   0  0  0  0  0  0  0  0  0  0  0  0
    4.6471  -11.6563    0.0000 O   0  0  0  0  0  0  0  0  0  0  0  0
    3.3481  -10.9063    0.0000 C   0  0  0  0  0  0  0  0  0  0  0  0
    2.0490  -11.6563    0.0000 C   0  0  0  0  0  0  0  0  0  0  0  0
    0.7500  -10.9063    0.0000 C   0  0  0  0  0  0  0  0  0  0  0  0
    0.7500   -9.4063    0.0000 C   0  0  0  0  0  0  0  0  0  0  0  0
   -0.5490   -8.6563    0.0000 C   0  0  0  0  0  0  0  0  0  0  0  0
   -2.0490   -8.6563    0.0000 C   0  0  0  0  0  0  0  0  0  0  0  0
   -1.2990   -7.3573    0.0000 C   0  0  0  0  0  0  0  0  0  0  0  0
   -1.2990   -5.8573    0.0000 C   0  0  0  0  0  0  0  0  0  0  0  0
   -2.5981   -5.1073    0.0000 O   0  0  0  0  0  0  0  0  0  0  0  0
   -0.0000   -5.1073    0.0000 N   0  0  0  0  0  0  0  0  0  0  0  0
   -0.0000   -3.6073    0.0000 C   0  0  0  0  0  0  0  0  0  0  0  0
    1.2135   -2.7256    0.0000 N   0  0  0  0  0  0  0  0  0  0  0  0
    0.7500   -1.2990    0.0000 C   0  0  0  0  0  0  0  0  0  0  0  0
    1.5000    0.0000    0.0000 C   0  0  0  0  0  0  0  0  0  0  0  0
    0.7500    1.2990    0.0000 C   0  0  0  0  0  0  0  0  0  0  0  0
   -0.7500    1.2990    0.0000 C   0  0  0  0  0  0  0  0  0  0  0  0
   -1.5000    2.5981    0.0000 C   0  0  0  0  0  0  0  0  0  0  0  0
   -2.9918    2.7549    0.0000 C   0  0  0  0  0  0  0  0  0  0  0  0
   -3.3037    4.2221    0.0000 N   0  0  0  0  0  0  0  0  0  0  0  0
   -2.0046    4.9721    0.0000 N   0  0  0  0  0  0  0  0  0  0  0  0
   -0.8899    3.9684    0.0000 C   0  0  0  0  0  0  0  0  0  0  0  0
   -1.5000    0.0000    0.0000 C   0  0  0  0  0  0  0  0  0  0  0  0
   -0.7500   -1.2990    0.0000 C   0  0  0  0  0  0  0  0  0  0  0  0
   -1.2135   -2.7256    0.0000 S   0  0  0  0  0  0  0  0  0  0  0  0
    2.0490   -8.6563    0.0000 C   0  0  0  0  0  0  0  0  0  0  0  0
    3.3481   -9.4063    0.0000 C   0  0  0  0  0  0  0  0  0  0  0  0
  1  2  1  0
  2  3  1  0
  3  4  2  0
  4  5  1  0
  5  6  2  0
  6  7  1  0
  7  8  1  0
  8  9  1  0
  9 10  1  0
 10 11  2  0
 10 12  1  0
 12 13  1  0
 13 14  2  0
 14 15  1  0
 15 16  2  0
 16 17  1  0
 17 18  2  0
 18 19  1  0
 19 20  1  0
 20 21  2  0
 21 22  1  0
 22 23  1  0
 18 24  1  0
 24 25  2  0
 25 26  1  0
  6 27  1  0
 27 28  2  0
 28  3  1  0
  9  7  1  0
 26 13  1  0
 25 15  1  0
 23 19  2  0
M  END
>  <Compound_ID>  (57) 
CHEMBL3086329

>  <Molecule Name>  (57) 
nan

>  <Molecular Weight>  (57) 
390.47

>  <AlogP>  (57) 
4.44

>  <Smiles>  (57) 
COc1ccc(C2CC2C(=O)Nc2nc3ccc(-c4cn[nH]c4)cc3s2)cc1

>  <Standard Type>  (57) 
Ki

>  <Standard Relation>  (57) 
'='

>  <Standard Units>  (57) 
nM

>  <Standard Value>  (57) 
6.4

>  <Assay ChEMBL ID>  (57) 
CHEMBL3088400

>  <Assay Description>  (57) 
Inhibition of full length GST-tagged ITK (unknown origin) using Ac-EFPIYDFLPAKKK-NH2 as substrate after 35 mins by LC/MS analysis

>  <BAO Format ID>  (57) 
BAO_0000357

>  <BAO Label>  (57) 
single protein format

>  <Assay Organism>  (57) 
Homo sapiens

>  <Target ChEMBL ID>  (57) 
CHEMBL2959

>  <Target Name>  (57) 
Tyrosine-protein kinase ITK/TSK

>  <Target Organism>  (57) 
Homo sapiens

>  <Target Type>  (57) 
SINGLE PROTEIN

>  <Document ChEMBL ID>  (57) 
CHEMBL3085719

>  <Source Description>  (57) 
Scientific Literature

>  <Document Journal>  (57) 
Bioorg Med Chem Lett

>  <Document Year>  (57) 
2013.0

>  <Active>  (57) 
1.0

$$$$

     RDKit          2D

 37 40  0  0  0  0  0  0  0  0999 V2000
   -1.8244  -10.7223    0.0000 C   0  0  0  0  0  0  0  0  0  0  0  0
   -0.3326  -10.8791    0.0000 C   0  0  0  0  0  0  0  0  0  0  0  0
    0.2775  -12.2494    0.0000 C   0  0  0  0  0  0  0  0  0  0  0  0
   -0.6042  -13.4629    0.0000 C   0  0  0  0  0  0  0  0  0  0  0  0
   -1.4859  -14.6765    0.0000 N   0  0  0  0  0  0  0  0  0  0  0  0
    0.5490   -9.6656    0.0000 C   0  0  0  0  0  0  0  0  0  0  0  0
    2.0490   -9.6656    0.0000 C   0  0  0  0  0  0  0  0  0  0  0  0
    2.5126   -8.2390    0.0000 C   0  0  0  0  0  0  0  0  0  0  0  0
    1.2990   -7.3573    0.0000 C   0  0  0  0  0  0  0  0  0  0  0  0
    1.2990   -5.8573    0.0000 C   0  0  0  0  0  0  0  0  0  0  0  0
    2.5981   -5.1073    0.0000 O   0  0  0  0  0  0  0  0  0  0  0  0
   -0.0000   -5.1073    0.0000 N   0  0  0  0  0  0  0  0  0  0  0  0
   -0.0000   -3.6073    0.0000 C   0  0  0  0  0  0  0  0  0  0  0  0
    1.2135   -2.7256    0.0000 N   0  0  0  0  0  0  0  0  0  0  0  0
    0.7500   -1.2990    0.0000 C   0  0  0  0  0  0  0  0  0  0  0  0
    1.5000    0.0000    0.0000 C   0  0  0  0  0  0  0  0  0  0  0  0
    0.7500    1.2990    0.0000 C   0  0  0  0  0  0  0  0  0  0  0  0
    1.5000    2.5981    0.0000 N   0  0  0  0  0  0  0  0  0  0  0  0
    3.0000    2.5981    0.0000 C   0  0  0  0  0  0  0  0  0  0  0  0
    0.7500    3.8971    0.0000 C   0  0  0  0  0  0  0  0  0  0  0  0
   -0.7500    3.8971    0.0000 O   0  0  0  0  0  0  0  0  0  0  0  0
    1.5000    5.1962    0.0000 C   0  0  0  0  0  0  0  0  0  0  0  0
    3.0000    5.1962    0.0000 C   0  0  0  0  0  0  0  0  0  0  0  0
    3.7500    6.4952    0.0000 C   0  0  0  0  0  0  0  0  0  0  0  0
    3.0000    7.7942    0.0000 C   0  0  0  0  0  0  0  0  0  0  0  0
    1.5000    7.7942    0.0000 C   0  0  0  0  0  0  0  0  0  0  0  0
    0.7500    6.4952    0.0000 C   0  0  0  0  0  0  0  0  0  0  0  0
   -0.7500    1.2990    0.0000 C   0  0  0  0  0  0  0  0  0  0  0  0
   -1.5000    0.0000    0.0000 C   0  0  0  0  0  0  0  0  0  0  0  0
   -0.7500   -1.2990    0.0000 C   0  0  0  0  0  0  0  0  0  0  0  0
   -1.2135   -2.7256    0.0000 N   0  0  0  0  0  0  0  0  0  0  0  0
   -2.6401   -3.1891    0.0000 C   0  0  0  0  0  0  0  0  0  0  0  0
   -3.7548   -2.1855    0.0000 C   0  0  0  0  0  0  0  0  0  0  0  0
   -5.1814   -2.6490    0.0000 C   0  0  0  0  0  0  0  0  0  0  0  0
   -6.2961   -1.6453    0.0000 N   0  0  0  0  0  0  0  0  0  0  0  0
   -5.4933   -4.1162    0.0000 O   0  0  0  0  0  0  0  0  0  0  0  0
    0.0855   -8.2390    0.0000 S   0  0  0  0  0  0  0  0  0  0  0  0
  1  2  1  0
  2  3  2  0
  3  4  1  0
  4  5  3  0
  2  6  1  0
  6  7  2  0
  7  8  1  0
  8  9  2  0
  9 10  1  0
 10 11  2  0
 10 12  1  0
 12 13  2  0
 13 14  1  0
 14 15  1  0
 15 16  2  0
 16 17  1  0
 17 18  1  0
 18 19  1  0
 18 20  1  0
 20 21  2  0
 20 22  1  0
 22 23  2  0
 23 24  1  0
 24 25  2  0
 25 26  1  0
 26 27  2  0
 17 28  2  0
 28 29  1  0
 29 30  2  0
 30 31  1  0
 31 32  1  0
 32 33  1  0
 33 34  1  0
 34 35  1  0
 34 36  2  0
  9 37  1  0
 37  6  1  0
 31 13  1  0
 30 15  1  0
 27 22  1  0
M  END
>  <Compound_ID>  (58) 
CHEMBL519388

>  <Molecule Name>  (58) 
nan

>  <Molecular Weight>  (58) 
512.6

>  <AlogP>  (58) 
3.85

>  <Smiles>  (58) 
C/C(=C\C#N)c1ccc(C(=O)/N=c2\[nH]c3cc(N(C)C(=O)c4ccccc4)ccc3n2CCC(N)=O)s1

>  <Standard Type>  (58) 
IC50

>  <Standard Relation>  (58) 
'='

>  <Standard Units>  (58) 
nM

>  <Standard Value>  (58) 
63.0

>  <Assay ChEMBL ID>  (58) 
CHEMBL942219

>  <Assay Description>  (58) 
Inhibition of ITK by DELPHIA

>  <BAO Format ID>  (58) 
BAO_0000357

>  <BAO Label>  (58) 
single protein format

>  <Assay Organism>  (58) 
None

>  <Target ChEMBL ID>  (58) 
CHEMBL2959

>  <Target Name>  (58) 
Tyrosine-protein kinase ITK/TSK

>  <Target Organism>  (58) 
Homo sapiens

>  <Target Type>  (58) 
SINGLE PROTEIN

>  <Document ChEMBL ID>  (58) 
CHEMBL1152261

>  <Source Description>  (58) 
Scientific Literature

>  <Document Journal>  (58) 
Bioorg Med Chem Lett

>  <Document Year>  (58) 
2008.0

>  <Active>  (58) 
1.0

$$$$

     RDKit          2D

 34 37  0  0  0  0  0  0  0  0999 V2000
    1.5000   -5.1962    0.0000 C   0  0  0  0  0  0  0  0  0  0  0  0
    0.7500   -3.8971    0.0000 N   0  0  0  0  0  0  0  0  0  0  0  0
    1.5000   -2.5981    0.0000 C   0  0  0  0  0  0  0  0  0  0  0  0
    0.7500   -1.2990    0.0000 C   0  0  0  0  0  0  0  0  0  0  0  0
    1.5000    0.0000    0.0000 C   0  0  0  0  0  0  0  0  0  0  0  0
    0.7500    1.2990    0.0000 C   0  0  0  0  0  0  0  0  0  0  0  0
   -0.7500    1.2990    0.0000 C   0  0  0  0  0  0  0  0  0  0  0  0
   -1.5000    0.0000    0.0000 C   0  0  0  0  0  0  0  0  0  0  0  0
   -0.7500   -1.2990    0.0000 C   0  0  0  0  0  0  0  0  0  0  0  0
   -2.9672    0.3119    0.0000 N   0  0  0  0  0  0  0  0  0  0  0  0
   -3.1240    1.8037    0.0000 C   0  0  0  0  0  0  0  0  0  0  0  0
   -4.4231    2.5537    0.0000 N   0  0  0  0  0  0  0  0  0  0  0  0
   -4.4231    4.0537    0.0000 C   0  0  0  0  0  0  0  0  0  0  0  0
   -3.1240    4.8037    0.0000 O   0  0  0  0  0  0  0  0  0  0  0  0
   -5.7221    4.8037    0.0000 C   0  0  0  0  0  0  0  0  0  0  0  0
   -5.7221    6.3037    0.0000 C   0  0  0  0  0  0  0  0  0  0  0  0
   -7.0211    7.0537    0.0000 C   0  0  0  0  0  0  0  0  0  0  0  0
   -8.3202    6.3037    0.0000 C   0  0  0  0  0  0  0  0  0  0  0  0
   -9.6192    7.0537    0.0000 C   0  0  0  0  0  0  0  0  0  0  0  0
  -10.9182    7.8037    0.0000 N   0  0  0  0  0  0  0  0  0  0  0  0
   -8.3202    4.8037    0.0000 C   0  0  0  0  0  0  0  0  0  0  0  0
   -7.0211    4.0537    0.0000 C   0  0  0  0  0  0  0  0  0  0  0  0
   -1.7537    2.4138    0.0000 N   0  0  0  0  0  0  0  0  0  0  0  0
   -1.4418    3.8810    0.0000 C   0  0  0  0  0  0  0  0  0  0  0  0
   -0.0152    4.3445    0.0000 C   0  0  0  0  0  0  0  0  0  0  0  0
    0.2966    5.8117    0.0000 C   0  0  0  0  0  0  0  0  0  0  0  0
    1.7232    6.2752    0.0000 N   0  0  0  0  0  0  0  0  0  0  0  0
   -0.8181    6.8154    0.0000 O   0  0  0  0  0  0  0  0  0  0  0  0
   -0.7500   -3.8971    0.0000 C   0  0  0  0  0  0  0  0  0  0  0  0
   -1.5000   -2.5981    0.0000 C   0  0  0  0  0  0  0  0  0  0  0  0
   -3.0000   -2.5981    0.0000 C   0  0  0  0  0  0  0  0  0  0  0  0
   -3.7500   -3.8971    0.0000 C   0  0  0  0  0  0  0  0  0  0  0  0
   -3.0000   -5.1962    0.0000 C   0  0  0  0  0  0  0  0  0  0  0  0
   -1.5000   -5.1962    0.0000 C   0  0  0  0  0  0  0  0  0  0  0  0
  1  2  1  0
  2  3  1  0
  3  4  1  0
  4  5  2  0
  5  6  1  0
  6  7  2  0
  7  8  1  0
  8  9  2  0
  8 10  1  0
 10 11  2  0
 11 12  1  0
 12 13  1  0
 13 14  2  0
 13 15  1  0
 15 16  2  0
 16 17  1  0
 17 18  2  0
 18 19  1  0
 19 20  3  0
 18 21  1  0
 21 22  2  0
 11 23  1  0
 23 24  1  0
 24 25  1  0
 25 26  1  0
 26 27  1  0
 26 28  2  0
  2 29  1  0
 29 30  1  0
 30 31  1  0
 31 32  1  0
 32 33  1  0
 33 34  1  0
  9  4  1  0
 22 15  1  0
 34 29  1  0
 23  7  1  0
M  END
>  <Compound_ID>  (59) 
CHEMBL487358

>  <Molecule Name>  (59) 
nan

>  <Molecular Weight>  (59) 
458.57

>  <AlogP>  (59) 
3.80

>  <Smiles>  (59) 
CN(Cc1ccc2c(c1)nc(NC(=O)c1ccc(C#N)cc1)n2CCC(N)=O)C1CCCCC1

>  <Standard Type>  (59) 
IC50

>  <Standard Relation>  (59) 
'='

>  <Standard Units>  (59) 
nM

>  <Standard Value>  (59) 
41.0

>  <Assay ChEMBL ID>  (59) 
CHEMBL1006237

>  <Assay Description>  (59) 
Inhibition of ITK by DELPHIA assay

>  <BAO Format ID>  (59) 
BAO_0000357

>  <BAO Label>  (59) 
single protein format

>  <Assay Organism>  (59) 
None

>  <Target ChEMBL ID>  (59) 
CHEMBL2959

>  <Target Name>  (59) 
Tyrosine-protein kinase ITK/TSK

>  <Target Organism>  (59) 
Homo sapiens

>  <Target Type>  (59) 
SINGLE PROTEIN

>  <Document ChEMBL ID>  (59) 
CHEMBL1152240

>  <Source Description>  (59) 
Scientific Literature

>  <Document Journal>  (59) 
Bioorg Med Chem Lett

>  <Document Year>  (59) 
2008.0

>  <Active>  (59) 
1.0

$$$$

     RDKit          2D

 35 38  0  0  0  0  0  0  0  0999 V2000
    6.0000   -2.5981    0.0000 C   0  0  0  0  0  0  0  0  0  0  0  0
    5.2500   -1.2990    0.0000 C   0  0  0  0  0  0  0  0  0  0  0  0
    3.7500   -1.2990    0.0000 N   0  0  0  0  0  0  0  0  0  0  0  0
    3.0000    0.0000    0.0000 C   0  0  0  0  0  0  0  0  0  0  0  0
    1.5000    0.0000    0.0000 C   0  0  0  0  0  0  0  0  0  0  0  0
    0.7500   -1.2990    0.0000 C   0  0  0  0  0  0  0  0  0  0  0  0
   -0.7500   -1.2990    0.0000 C   0  0  0  0  0  0  0  0  0  0  0  0
   -1.5000    0.0000    0.0000 C   0  0  0  0  0  0  0  0  0  0  0  0
   -0.7500    1.2990    0.0000 C   0  0  0  0  0  0  0  0  0  0  0  0
    0.7500    1.2990    0.0000 C   0  0  0  0  0  0  0  0  0  0  0  0
   -1.7537    2.4138    0.0000 N   0  0  0  0  0  0  0  0  0  0  0  0
   -3.1240    1.8037    0.0000 C   0  0  0  0  0  0  0  0  0  0  0  0
   -4.4231    2.5537    0.0000 N   0  0  0  0  0  0  0  0  0  0  0  0
   -4.4231    4.0537    0.0000 C   0  0  0  0  0  0  0  0  0  0  0  0
   -3.1240    4.8037    0.0000 O   0  0  0  0  0  0  0  0  0  0  0  0
   -5.7221    4.8037    0.0000 C   0  0  0  0  0  0  0  0  0  0  0  0
   -7.0924    4.1935    0.0000 C   0  0  0  0  0  0  0  0  0  0  0  0
   -8.0961    5.3083    0.0000 C   0  0  0  0  0  0  0  0  0  0  0  0
   -7.3461    6.6073    0.0000 C   0  0  0  0  0  0  0  0  0  0  0  0
   -7.9562    7.9776    0.0000 C   0  0  0  0  0  0  0  0  0  0  0  0
   -9.4234    8.2895    0.0000 C   0  0  0  0  0  0  0  0  0  0  0  0
   -9.5802    9.7813    0.0000 N   0  0  0  0  0  0  0  0  0  0  0  0
   -8.2099   10.3914    0.0000 N   0  0  0  0  0  0  0  0  0  0  0  0
   -7.2062    9.2767    0.0000 C   0  0  0  0  0  0  0  0  0  0  0  0
   -5.8789    6.2954    0.0000 S   0  0  0  0  0  0  0  0  0  0  0  0
   -2.9672    0.3119    0.0000 N   0  0  0  0  0  0  0  0  0  0  0  0
   -4.0819   -0.6918    0.0000 C   0  0  0  0  0  0  0  0  0  0  0  0
   -5.5085   -0.2283    0.0000 C   0  0  0  0  0  0  0  0  0  0  0  0
   -5.0450    1.1983    0.0000 C   0  0  0  0  0  0  0  0  0  0  0  0
   -5.9720   -1.6549    0.0000 C   0  0  0  0  0  0  0  0  0  0  0  0
   -6.9351    0.2352    0.0000 O   0  0  0  0  0  0  0  0  0  0  0  0
    6.0000    0.0000    0.0000 C   0  0  0  0  0  0  0  0  0  0  0  0
    7.2990   -0.7500    0.0000 C   0  0  0  0  0  0  0  0  0  0  0  0
    4.7010    0.7500    0.0000 C   0  0  0  0  0  0  0  0  0  0  0  0
    6.7500    1.2990    0.0000 C   0  0  0  0  0  0  0  0  0  0  0  0
  2  1  1  6
  2  3  1  0
  3  4  1  0
  4  5  1  0
  5  6  2  0
  6  7  1  0
  7  8  2  0
  8  9  1  0
  9 10  2  0
  9 11  1  0
 11 12  1  0
 12 13  2  0
 13 14  1  0
 14 15  2  0
 14 16  1  0
 16 17  2  0
 17 18  1  0
 18 19  2  0
 19 20  1  0
 20 21  1  0
 21 22  2  0
 22 23  1  0
 23 24  1  0
 19 25  1  0
 12 26  1  0
 26 27  1  0
 27 28  1  0
 28 29  1  0
 28 30  1  0
 28 31  1  0
  2 32  1  0
 32 33  1  0
 32 34  1  0
 32 35  1  0
 10  5  1  0
 25 16  1  0
 26  8  1  0
 24 20  2  0
M  END
>  <Compound_ID>  (60) 
CHEMBL522328

>  <Molecule Name>  (60) 
nan

>  <Molecular Weight>  (60) 
494.67

>  <AlogP>  (60) 
4.46

>  <Smiles>  (60) 
C[C@H](NCc1ccc2c(c1)[nH]/c(=N\C(=O)c1ccc(-c3cn[nH]c3)s1)n2CC(C)(C)O)C(C)(C)C

>  <Standard Type>  (60) 
IC50

>  <Standard Relation>  (60) 
'='

>  <Standard Units>  (60) 
nM

>  <Standard Value>  (60) 
13.0

>  <Assay ChEMBL ID>  (60) 
CHEMBL1018827

>  <Assay Description>  (60) 
Inhibition of ITK in presence of 1 mM ATP

>  <BAO Format ID>  (60) 
BAO_0000357

>  <BAO Label>  (60) 
single protein format

>  <Assay Organism>  (60) 
None

>  <Target ChEMBL ID>  (60) 
CHEMBL2959

>  <Target Name>  (60) 
Tyrosine-protein kinase ITK/TSK

>  <Target Organism>  (60) 
Homo sapiens

>  <Target Type>  (60) 
SINGLE PROTEIN

>  <Document ChEMBL ID>  (60) 
CHEMBL1153328

>  <Source Description>  (60) 
Scientific Literature

>  <Document Journal>  (60) 
Bioorg Med Chem Lett

>  <Document Year>  (60) 
2009.0

>  <Active>  (60) 
1.0

$$$$

     RDKit          2D

 37 41  0  0  0  0  0  0  0  0999 V2000
    1.5000   -5.1962    0.0000 C   0  0  0  0  0  0  0  0  0  0  0  0
    0.7500   -3.8971    0.0000 N   0  0  0  0  0  0  0  0  0  0  0  0
    1.5000   -2.5981    0.0000 C   0  0  0  0  0  0  0  0  0  0  0  0
    0.7500   -1.2990    0.0000 C   0  0  0  0  0  0  0  0  0  0  0  0
    1.5000    0.0000    0.0000 C   0  0  0  0  0  0  0  0  0  0  0  0
    0.7500    1.2990    0.0000 C   0  0  0  0  0  0  0  0  0  0  0  0
   -0.7500    1.2990    0.0000 C   0  0  0  0  0  0  0  0  0  0  0  0
   -1.5000    0.0000    0.0000 C   0  0  0  0  0  0  0  0  0  0  0  0
   -0.7500   -1.2990    0.0000 C   0  0  0  0  0  0  0  0  0  0  0  0
   -2.9672    0.3119    0.0000 N   0  0  0  0  0  0  0  0  0  0  0  0
   -3.1240    1.8037    0.0000 C   0  0  0  0  0  0  0  0  0  0  0  0
   -4.4231    2.5537    0.0000 N   0  0  0  0  0  0  0  0  0  0  0  0
   -4.4231    4.0537    0.0000 C   0  0  0  0  0  0  0  0  0  0  0  0
   -3.1240    4.8037    0.0000 O   0  0  0  0  0  0  0  0  0  0  0  0
   -5.7221    4.8037    0.0000 C   0  0  0  0  0  0  0  0  0  0  0  0
   -5.7221    6.3037    0.0000 C   0  0  0  0  0  0  0  0  0  0  0  0
   -7.0211    7.0537    0.0000 C   0  0  0  0  0  0  0  0  0  0  0  0
   -8.3202    6.3037    0.0000 C   0  0  0  0  0  0  0  0  0  0  0  0
   -9.6192    7.0537    0.0000 C   0  0  0  0  0  0  0  0  0  0  0  0
  -10.9182    7.8037    0.0000 N   0  0  0  0  0  0  0  0  0  0  0  0
   -8.3202    4.8037    0.0000 C   0  0  0  0  0  0  0  0  0  0  0  0
   -7.0211    4.0537    0.0000 C   0  0  0  0  0  0  0  0  0  0  0  0
   -1.7537    2.4138    0.0000 N   0  0  0  0  0  0  0  0  0  0  0  0
   -1.4418    3.8810    0.0000 C   0  0  0  0  0  0  0  0  0  0  0  0
   -0.0152    4.3445    0.0000 C   0  0  0  0  0  0  0  0  0  0  0  0
    0.2966    5.8117    0.0000 C   0  0  0  0  0  0  0  0  0  0  0  0
    1.7232    6.2752    0.0000 N   0  0  0  0  0  0  0  0  0  0  0  0
    2.1867    7.7018    0.0000 C   0  0  0  0  0  0  0  0  0  0  0  0
    3.6867    7.7018    0.0000 C   0  0  0  0  0  0  0  0  0  0  0  0
    4.1503    6.2752    0.0000 N   0  0  0  0  0  0  0  0  0  0  0  0
    2.9367    5.3936    0.0000 C   0  0  0  0  0  0  0  0  0  0  0  0
   -0.7500   -3.8971    0.0000 C   0  0  0  0  0  0  0  0  0  0  0  0
   -1.5000   -2.5981    0.0000 C   0  0  0  0  0  0  0  0  0  0  0  0
   -3.0000   -2.5981    0.0000 C   0  0  0  0  0  0  0  0  0  0  0  0
   -3.7500   -3.8971    0.0000 C   0  0  0  0  0  0  0  0  0  0  0  0
   -3.0000   -5.1962    0.0000 C   0  0  0  0  0  0  0  0  0  0  0  0
   -1.5000   -5.1962    0.0000 C   0  0  0  0  0  0  0  0  0  0  0  0
  1  2  1  0
  2  3  1  0
  3  4  1  0
  4  5  2  0
  5  6  1  0
  6  7  2  0
  7  8  1  0
  8  9  2  0
  8 10  1  0
 10 11  2  0
 11 12  1  0
 12 13  1  0
 13 14  2  0
 13 15  1  0
 15 16  2  0
 16 17  1  0
 17 18  2  0
 18 19  1  0
 19 20  3  0
 18 21  1  0
 21 22  2  0
 11 23  1  0
 23 24  1  0
 24 25  1  0
 25 26  1  0
 26 27  1  0
 27 28  1  0
 28 29  2  0
 29 30  1  0
 30 31  2  0
  2 32  1  0
 32 33  1  0
 33 34  1  0
 34 35  1  0
 35 36  1  0
 36 37  1  0
  9  4  1  0
 22 15  1  0
 31 27  1  0
 37 32  1  0
 23  7  1  0
M  END
>  <Compound_ID>  (61) 
CHEMBL487563

>  <Molecule Name>  (61) 
nan

>  <Molecular Weight>  (61) 
495.63

>  <AlogP>  (61) 
5.21

>  <Smiles>  (61) 
CN(Cc1ccc2c(c1)nc(NC(=O)c1ccc(C#N)cc1)n2CCCn1ccnc1)C1CCCCC1

>  <Standard Type>  (61) 
IC50

>  <Standard Relation>  (61) 
'='

>  <Standard Units>  (61) 
nM

>  <Standard Value>  (61) 
30.0

>  <Assay ChEMBL ID>  (61) 
CHEMBL1006237

>  <Assay Description>  (61) 
Inhibition of ITK by DELPHIA assay

>  <BAO Format ID>  (61) 
BAO_0000357

>  <BAO Label>  (61) 
single protein format

>  <Assay Organism>  (61) 
None

>  <Target ChEMBL ID>  (61) 
CHEMBL2959

>  <Target Name>  (61) 
Tyrosine-protein kinase ITK/TSK

>  <Target Organism>  (61) 
Homo sapiens

>  <Target Type>  (61) 
SINGLE PROTEIN

>  <Document ChEMBL ID>  (61) 
CHEMBL1152240

>  <Source Description>  (61) 
Scientific Literature

>  <Document Journal>  (61) 
Bioorg Med Chem Lett

>  <Document Year>  (61) 
2008.0

>  <Active>  (61) 
1.0

$$$$

     RDKit          2D

 35 39  0  0  0  0  0  0  0  0999 V2000
   -2.7511   -1.0707    0.0000 C   0  0  0  0  0  0  0  0  0  0  0  0
   -3.7548   -2.1855    0.0000 C   0  0  0  0  0  0  0  0  0  0  0  0
   -4.7585   -3.3002    0.0000 C   0  0  0  0  0  0  0  0  0  0  0  0
   -4.8695   -1.1818    0.0000 O   0  0  0  0  0  0  0  0  0  0  0  0
   -2.6401   -3.1891    0.0000 C   0  0  0  0  0  0  0  0  0  0  0  0
   -1.2135   -2.7256    0.0000 N   0  0  0  0  0  0  0  0  0  0  0  0
   -0.0000   -3.6073    0.0000 C   0  0  0  0  0  0  0  0  0  0  0  0
   -0.0000   -5.1073    0.0000 N   0  0  0  0  0  0  0  0  0  0  0  0
    1.2990   -5.8573    0.0000 C   0  0  0  0  0  0  0  0  0  0  0  0
    2.5981   -5.1073    0.0000 O   0  0  0  0  0  0  0  0  0  0  0  0
    1.2990   -7.3573    0.0000 C   0  0  0  0  0  0  0  0  0  0  0  0
    2.5126   -8.2390    0.0000 C   0  0  0  0  0  0  0  0  0  0  0  0
    2.0490   -9.6656    0.0000 C   0  0  0  0  0  0  0  0  0  0  0  0
    0.5490   -9.6656    0.0000 C   0  0  0  0  0  0  0  0  0  0  0  0
   -0.3326  -10.8791    0.0000 C   0  0  0  0  0  0  0  0  0  0  0  0
    0.1309  -12.3057    0.0000 C   0  0  0  0  0  0  0  0  0  0  0  0
   -1.0826  -13.1874    0.0000 N   0  0  0  0  0  0  0  0  0  0  0  0
   -2.2962  -12.3057    0.0000 N   0  0  0  0  0  0  0  0  0  0  0  0
   -1.8326  -10.8791    0.0000 C   0  0  0  0  0  0  0  0  0  0  0  0
    0.0855   -8.2390    0.0000 S   0  0  0  0  0  0  0  0  0  0  0  0
    1.2135   -2.7256    0.0000 N   0  0  0  0  0  0  0  0  0  0  0  0
    0.7500   -1.2990    0.0000 C   0  0  0  0  0  0  0  0  0  0  0  0
    1.5000    0.0000    0.0000 C   0  0  0  0  0  0  0  0  0  0  0  0
    0.7500    1.2990    0.0000 C   0  0  0  0  0  0  0  0  0  0  0  0
    1.5000    2.5981    0.0000 C   0  0  0  0  0  0  0  0  0  0  0  0
    3.0000    2.5981    0.0000 N   0  0  0  0  0  0  0  0  0  0  0  0
    3.7500    3.8971    0.0000 C   0  0  0  0  0  0  0  0  0  0  0  0
    5.2500    3.8971    0.0000 C   0  0  0  0  0  0  0  0  0  0  0  0
    6.0000    5.1962    0.0000 C   0  0  0  0  0  0  0  0  0  0  0  0
    5.2500    6.4952    0.0000 C   0  0  0  0  0  0  0  0  0  0  0  0
    3.7500    6.4952    0.0000 C   0  0  0  0  0  0  0  0  0  0  0  0
    3.0000    5.1962    0.0000 C   0  0  0  0  0  0  0  0  0  0  0  0
   -0.7500    1.2990    0.0000 C   0  0  0  0  0  0  0  0  0  0  0  0
   -1.5000    0.0000    0.0000 C   0  0  0  0  0  0  0  0  0  0  0  0
   -0.7500   -1.2990    0.0000 C   0  0  0  0  0  0  0  0  0  0  0  0
  1  2  1  0
  2  3  1  0
  2  4  1  0
  2  5  1  0
  5  6  1  0
  6  7  1  0
  7  8  2  0
  8  9  1  0
  9 10  2  0
  9 11  1  0
 11 12  2  0
 12 13  1  0
 13 14  2  0
 14 15  1  0
 15 16  1  0
 16 17  2  0
 17 18  1  0
 18 19  1  0
 14 20  1  0
  7 21  1  0
 21 22  1  0
 22 23  2  0
 23 24  1  0
 24 25  1  0
 25 26  1  0
 26 27  1  0
 27 28  2  0
 28 29  1  0
 29 30  2  0
 30 31  1  0
 31 32  2  0
 24 33  2  0
 33 34  1  0
 34 35  2  0
 35  6  1  0
 20 11  1  0
 35 22  1  0
 19 15  2  0
 32 27  1  0
M  END
>  <Compound_ID>  (62) 
CHEMBL493319

>  <Molecule Name>  (62) 
nan

>  <Molecular Weight>  (62) 
486.6

>  <AlogP>  (62) 
4.55

>  <Smiles>  (62) 
CC(C)(O)Cn1/c(=N/C(=O)c2ccc(-c3cn[nH]c3)s2)[nH]c2cc(CNc3ccccc3)ccc21

>  <Standard Type>  (62) 
IC50

>  <Standard Relation>  (62) 
'='

>  <Standard Units>  (62) 
nM

>  <Standard Value>  (62) 
2.0

>  <Assay ChEMBL ID>  (62) 
CHEMBL1018826

>  <Assay Description>  (62) 
Binding affinity to ITK by DELFIA-based molecular assay

>  <BAO Format ID>  (62) 
BAO_0000357

>  <BAO Label>  (62) 
single protein format

>  <Assay Organism>  (62) 
None

>  <Target ChEMBL ID>  (62) 
CHEMBL2959

>  <Target Name>  (62) 
Tyrosine-protein kinase ITK/TSK

>  <Target Organism>  (62) 
Homo sapiens

>  <Target Type>  (62) 
SINGLE PROTEIN

>  <Document ChEMBL ID>  (62) 
CHEMBL1153328

>  <Source Description>  (62) 
Scientific Literature

>  <Document Journal>  (62) 
Bioorg Med Chem Lett

>  <Document Year>  (62) 
2009.0

>  <Active>  (62) 
1.0

$$$$

     RDKit          2D

 32 35  0  0  0  0  0  0  0  0999 V2000
   -7.7227   -2.1088    0.0000 C   0  0  0  0  0  0  0  0  0  0  0  0
   -6.2961   -1.6453    0.0000 O   0  0  0  0  0  0  0  0  0  0  0  0
   -5.1814   -2.6490    0.0000 C   0  0  0  0  0  0  0  0  0  0  0  0
   -3.7548   -2.1855    0.0000 C   0  0  0  0  0  0  0  0  0  0  0  0
   -2.6401   -3.1891    0.0000 C   0  0  0  0  0  0  0  0  0  0  0  0
   -1.2135   -2.7256    0.0000 N   0  0  0  0  0  0  0  0  0  0  0  0
   -0.0000   -3.6073    0.0000 C   0  0  0  0  0  0  0  0  0  0  0  0
   -0.0000   -5.1073    0.0000 N   0  0  0  0  0  0  0  0  0  0  0  0
   -1.2990   -5.8573    0.0000 C   0  0  0  0  0  0  0  0  0  0  0  0
   -2.5981   -5.1073    0.0000 O   0  0  0  0  0  0  0  0  0  0  0  0
   -1.2990   -7.3573    0.0000 C   0  0  0  0  0  0  0  0  0  0  0  0
   -2.5981   -8.1073    0.0000 C   0  0  0  0  0  0  0  0  0  0  0  0
   -2.5981   -9.6073    0.0000 C   0  0  0  0  0  0  0  0  0  0  0  0
   -1.2990  -10.3573    0.0000 N   0  0  0  0  0  0  0  0  0  0  0  0
   -0.0000   -9.6073    0.0000 C   0  0  0  0  0  0  0  0  0  0  0  0
   -0.0000   -8.1073    0.0000 C   0  0  0  0  0  0  0  0  0  0  0  0
    1.2135   -2.7256    0.0000 N   0  0  0  0  0  0  0  0  0  0  0  0
    0.7500   -1.2990    0.0000 C   0  0  0  0  0  0  0  0  0  0  0  0
    1.5000    0.0000    0.0000 C   0  0  0  0  0  0  0  0  0  0  0  0
    0.7500    1.2990    0.0000 C   0  0  0  0  0  0  0  0  0  0  0  0
    1.5000    2.5981    0.0000 C   0  0  0  0  0  0  0  0  0  0  0  0
    3.0000    2.5981    0.0000 N   0  0  0  0  0  0  0  0  0  0  0  0
    3.7500    3.8971    0.0000 C   0  0  0  0  0  0  0  0  0  0  0  0
    3.7500    1.2990    0.0000 C   0  0  0  0  0  0  0  0  0  0  0  0
    3.0000   -0.0000    0.0000 C   0  0  0  0  0  0  0  0  0  0  0  0
    3.7500   -1.2990    0.0000 C   0  0  0  0  0  0  0  0  0  0  0  0
    5.2500   -1.2990    0.0000 C   0  0  0  0  0  0  0  0  0  0  0  0
    6.0000   -0.0000    0.0000 C   0  0  0  0  0  0  0  0  0  0  0  0
    5.2500    1.2990    0.0000 C   0  0  0  0  0  0  0  0  0  0  0  0
   -0.7500    1.2990    0.0000 C   0  0  0  0  0  0  0  0  0  0  0  0
   -1.5000    0.0000    0.0000 C   0  0  0  0  0  0  0  0  0  0  0  0
   -0.7500   -1.2990    0.0000 C   0  0  0  0  0  0  0  0  0  0  0  0
  1  2  1  0
  2  3  1  0
  3  4  1  0
  4  5  1  0
  5  6  1  0
  6  7  1  0
  7  8  1  0
  8  9  1  0
  9 10  2  0
  9 11  1  0
 11 12  2  0
 12 13  1  0
 13 14  2  0
 14 15  1  0
 15 16  2  0
  7 17  2  0
 17 18  1  0
 18 19  2  0
 19 20  1  0
 20 21  1  0
 21 22  1  0
 22 23  1  0
 22 24  1  0
 24 25  1  0
 25 26  1  0
 26 27  1  0
 27 28  1  0
 28 29  1  0
 20 30  2  0
 30 31  1  0
 31 32  2  0
 32  6  1  0
 16 11  1  0
 32 18  1  0
 29 24  1  0
M  END
>  <Compound_ID>  (63) 
CHEMBL488170

>  <Molecule Name>  (63) 
nan

>  <Molecular Weight>  (63) 
435.57

>  <AlogP>  (63) 
4.48

>  <Smiles>  (63) 
COCCCn1c(NC(=O)c2ccncc2)nc2cc(CN(C)C3CCCCC3)ccc21

>  <Standard Type>  (63) 
IC50

>  <Standard Relation>  (63) 
'='

>  <Standard Units>  (63) 
nM

>  <Standard Value>  (63) 
36.0

>  <Assay ChEMBL ID>  (63) 
CHEMBL1006237

>  <Assay Description>  (63) 
Inhibition of ITK by DELPHIA assay

>  <BAO Format ID>  (63) 
BAO_0000357

>  <BAO Label>  (63) 
single protein format

>  <Assay Organism>  (63) 
None

>  <Target ChEMBL ID>  (63) 
CHEMBL2959

>  <Target Name>  (63) 
Tyrosine-protein kinase ITK/TSK

>  <Target Organism>  (63) 
Homo sapiens

>  <Target Type>  (63) 
SINGLE PROTEIN

>  <Document ChEMBL ID>  (63) 
CHEMBL1152240

>  <Source Description>  (63) 
Scientific Literature

>  <Document Journal>  (63) 
Bioorg Med Chem Lett

>  <Document Year>  (63) 
2008.0

>  <Active>  (63) 
1.0

$$$$

     RDKit          2D

 32 35  0  0  0  0  0  0  0  0999 V2000
   -7.7227   -2.1088    0.0000 C   0  0  0  0  0  0  0  0  0  0  0  0
   -6.2961   -1.6453    0.0000 O   0  0  0  0  0  0  0  0  0  0  0  0
   -5.1814   -2.6490    0.0000 C   0  0  0  0  0  0  0  0  0  0  0  0
   -3.7548   -2.1855    0.0000 C   0  0  0  0  0  0  0  0  0  0  0  0
   -2.6401   -3.1891    0.0000 C   0  0  0  0  0  0  0  0  0  0  0  0
   -1.2135   -2.7256    0.0000 N   0  0  0  0  0  0  0  0  0  0  0  0
   -0.0000   -3.6073    0.0000 C   0  0  0  0  0  0  0  0  0  0  0  0
   -0.0000   -5.1073    0.0000 N   0  0  0  0  0  0  0  0  0  0  0  0
   -1.2990   -5.8573    0.0000 C   0  0  0  0  0  0  0  0  0  0  0  0
   -2.5981   -5.1073    0.0000 O   0  0  0  0  0  0  0  0  0  0  0  0
   -1.2990   -7.3573    0.0000 C   0  0  0  0  0  0  0  0  0  0  0  0
   -2.5981   -8.1073    0.0000 C   0  0  0  0  0  0  0  0  0  0  0  0
   -2.5981   -9.6073    0.0000 C   0  0  0  0  0  0  0  0  0  0  0  0
   -1.2990  -10.3573    0.0000 C   0  0  0  0  0  0  0  0  0  0  0  0
   -0.0000   -9.6073    0.0000 N   0  0  0  0  0  0  0  0  0  0  0  0
   -0.0000   -8.1073    0.0000 C   0  0  0  0  0  0  0  0  0  0  0  0
    1.2135   -2.7256    0.0000 N   0  0  0  0  0  0  0  0  0  0  0  0
    0.7500   -1.2990    0.0000 C   0  0  0  0  0  0  0  0  0  0  0  0
    1.5000    0.0000    0.0000 C   0  0  0  0  0  0  0  0  0  0  0  0
    0.7500    1.2990    0.0000 C   0  0  0  0  0  0  0  0  0  0  0  0
    1.5000    2.5981    0.0000 C   0  0  0  0  0  0  0  0  0  0  0  0
    3.0000    2.5981    0.0000 N   0  0  0  0  0  0  0  0  0  0  0  0
    3.7500    3.8971    0.0000 C   0  0  0  0  0  0  0  0  0  0  0  0
    3.7500    1.2990    0.0000 C   0  0  0  0  0  0  0  0  0  0  0  0
    3.0000   -0.0000    0.0000 C   0  0  0  0  0  0  0  0  0  0  0  0
    3.7500   -1.2990    0.0000 C   0  0  0  0  0  0  0  0  0  0  0  0
    5.2500   -1.2990    0.0000 C   0  0  0  0  0  0  0  0  0  0  0  0
    6.0000   -0.0000    0.0000 C   0  0  0  0  0  0  0  0  0  0  0  0
    5.2500    1.2990    0.0000 C   0  0  0  0  0  0  0  0  0  0  0  0
   -0.7500    1.2990    0.0000 C   0  0  0  0  0  0  0  0  0  0  0  0
   -1.5000    0.0000    0.0000 C   0  0  0  0  0  0  0  0  0  0  0  0
   -0.7500   -1.2990    0.0000 C   0  0  0  0  0  0  0  0  0  0  0  0
  1  2  1  0
  2  3  1  0
  3  4  1  0
  4  5  1  0
  5  6  1  0
  6  7  1  0
  7  8  1  0
  8  9  1  0
  9 10  2  0
  9 11  1  0
 11 12  2  0
 12 13  1  0
 13 14  2  0
 14 15  1  0
 15 16  2  0
  7 17  2  0
 17 18  1  0
 18 19  2  0
 19 20  1  0
 20 21  1  0
 21 22  1  0
 22 23  1  0
 22 24  1  0
 24 25  1  0
 25 26  1  0
 26 27  1  0
 27 28  1  0
 28 29  1  0
 20 30  2  0
 30 31  1  0
 31 32  2  0
 32  6  1  0
 16 11  1  0
 32 18  1  0
 29 24  1  0
M  END
>  <Compound_ID>  (64) 
CHEMBL487357

>  <Molecule Name>  (64) 
nan

>  <Molecular Weight>  (64) 
435.57

>  <AlogP>  (64) 
4.48

>  <Smiles>  (64) 
COCCCn1c(NC(=O)c2cccnc2)nc2cc(CN(C)C3CCCCC3)ccc21

>  <Standard Type>  (64) 
IC50

>  <Standard Relation>  (64) 
'='

>  <Standard Units>  (64) 
nM

>  <Standard Value>  (64) 
6.0

>  <Assay ChEMBL ID>  (64) 
CHEMBL1006237

>  <Assay Description>  (64) 
Inhibition of ITK by DELPHIA assay

>  <BAO Format ID>  (64) 
BAO_0000357

>  <BAO Label>  (64) 
single protein format

>  <Assay Organism>  (64) 
None

>  <Target ChEMBL ID>  (64) 
CHEMBL2959

>  <Target Name>  (64) 
Tyrosine-protein kinase ITK/TSK

>  <Target Organism>  (64) 
Homo sapiens

>  <Target Type>  (64) 
SINGLE PROTEIN

>  <Document ChEMBL ID>  (64) 
CHEMBL1152240

>  <Source Description>  (64) 
Scientific Literature

>  <Document Journal>  (64) 
Bioorg Med Chem Lett

>  <Document Year>  (64) 
2008.0

>  <Active>  (64) 
1.0

$$$$

     RDKit          2D

 35 38  0  0  0  0  0  0  0  0999 V2000
    0.7500   -3.8971    0.0000 C   0  0  0  0  0  0  0  0  0  0  0  0
    1.5000   -2.5981    0.0000 C   0  0  0  0  0  0  0  0  0  0  0  0
    3.0000   -2.5981    0.0000 C   0  0  0  0  0  0  0  0  0  0  0  0
    3.7500   -1.2990    0.0000 O   0  0  0  0  0  0  0  0  0  0  0  0
    3.7500   -3.8971    0.0000 C   0  0  0  0  0  0  0  0  0  0  0  0
    3.0000   -5.1962    0.0000 C   0  0  0  0  0  0  0  0  0  0  0  0
    3.7500   -6.4952    0.0000 C   0  0  0  0  0  0  0  0  0  0  0  0
    5.2500   -6.4952    0.0000 C   0  0  0  0  0  0  0  0  0  0  0  0
    6.0000   -5.1962    0.0000 C   0  0  0  0  0  0  0  0  0  0  0  0
    5.2500   -3.8971    0.0000 C   0  0  0  0  0  0  0  0  0  0  0  0
    0.7500   -1.2990    0.0000 C   0  0  0  0  0  0  0  0  0  0  0  0
    1.5000    0.0000    0.0000 C   0  0  0  0  0  0  0  0  0  0  0  0
    0.7500    1.2990    0.0000 C   0  0  0  0  0  0  0  0  0  0  0  0
   -0.7500    1.2990    0.0000 C   0  0  0  0  0  0  0  0  0  0  0  0
   -1.5000    0.0000    0.0000 C   0  0  0  0  0  0  0  0  0  0  0  0
   -0.7500   -1.2990    0.0000 C   0  0  0  0  0  0  0  0  0  0  0  0
   -2.9672    0.3119    0.0000 N   0  0  0  0  0  0  0  0  0  0  0  0
   -3.1240    1.8037    0.0000 C   0  0  0  0  0  0  0  0  0  0  0  0
   -4.4231    2.5537    0.0000 C   0  0  0  0  0  0  0  0  0  0  0  0
   -4.4231    4.0537    0.0000 C   0  0  0  0  0  0  0  0  0  0  0  0
   -3.1240    4.8037    0.0000 O   0  0  0  0  0  0  0  0  0  0  0  0
   -5.7221    4.8037    0.0000 C   0  0  0  0  0  0  0  0  0  0  0  0
   -5.7221    6.3037    0.0000 C   0  0  0  0  0  0  0  0  0  0  0  0
   -7.0211    7.0537    0.0000 C   0  0  0  0  0  0  0  0  0  0  0  0
   -8.3202    6.3037    0.0000 C   0  0  0  0  0  0  0  0  0  0  0  0
   -9.6192    7.0537    0.0000 C   0  0  0  0  0  0  0  0  0  0  0  0
  -10.9182    7.8037    0.0000 N   0  0  0  0  0  0  0  0  0  0  0  0
   -8.3202    4.8037    0.0000 C   0  0  0  0  0  0  0  0  0  0  0  0
   -7.0211    4.0537    0.0000 C   0  0  0  0  0  0  0  0  0  0  0  0
   -1.7537    2.4138    0.0000 N   0  0  0  0  0  0  0  0  0  0  0  0
   -1.4418    3.8810    0.0000 C   0  0  0  0  0  0  0  0  0  0  0  0
   -0.0152    4.3445    0.0000 C   0  0  0  0  0  0  0  0  0  0  0  0
    0.2966    5.8117    0.0000 C   0  0  0  0  0  0  0  0  0  0  0  0
    1.7232    6.2752    0.0000 N   0  0  0  0  0  0  0  0  0  0  0  0
   -0.8181    6.8154    0.0000 O   0  0  0  0  0  0  0  0  0  0  0  0
  1  2  1  0
  2  3  1  0
  3  4  2  0
  3  5  1  0
  5  6  1  0
  6  7  1  0
  7  8  1  0
  8  9  1  0
  9 10  1  0
  2 11  1  0
 11 12  2  0
 12 13  1  0
 13 14  2  0
 14 15  1  0
 15 16  2  0
 15 17  1  0
 17 18  2  0
 18 19  1  0
 19 20  1  0
 20 21  2  0
 20 22  1  0
 22 23  2  0
 23 24  1  0
 24 25  2  0
 25 26  1  0
 26 27  3  0
 25 28  1  0
 28 29  2  0
 18 30  1  0
 30 31  1  0
 31 32  1  0
 32 33  1  0
 33 34  1  0
 33 35  2  0
 10  5  1  0
 16 11  1  0
 29 22  1  0
 30 14  1  0
M  END
>  <Compound_ID>  (65) 
CHEMBL485591

>  <Molecule Name>  (65) 
nan

>  <Molecular Weight>  (65) 
470.57

>  <AlogP>  (65) 
4.46

>  <Smiles>  (65) 
CC(C(=O)C1CCCCC1)c1ccc2c(c1)nc(CC(=O)c1ccc(C#N)cc1)n2CCC(N)=O

>  <Standard Type>  (65) 
IC50

>  <Standard Relation>  (65) 
'='

>  <Standard Units>  (65) 
nM

>  <Standard Value>  (65) 
3.0

>  <Assay ChEMBL ID>  (65) 
CHEMBL992563

>  <Assay Description>  (65) 
Inhibition of ITK by DELFIA assay

>  <BAO Format ID>  (65) 
BAO_0000357

>  <BAO Label>  (65) 
single protein format

>  <Assay Organism>  (65) 
None

>  <Target ChEMBL ID>  (65) 
CHEMBL2959

>  <Target Name>  (65) 
Tyrosine-protein kinase ITK/TSK

>  <Target Organism>  (65) 
Homo sapiens

>  <Target Type>  (65) 
SINGLE PROTEIN

>  <Document ChEMBL ID>  (65) 
CHEMBL1142468

>  <Source Description>  (65) 
Scientific Literature

>  <Document Journal>  (65) 
Bioorg Med Chem Lett

>  <Document Year>  (65) 
2008.0

>  <Active>  (65) 
1.0

$$$$

     RDKit          2D

 36 39  0  0  0  0  0  0  0  0999 V2000
    0.7500   -3.8971    0.0000 C   0  0  0  0  0  0  0  0  0  0  0  0
    1.5000   -2.5981    0.0000 N   0  0  0  0  0  0  0  0  0  0  0  0
    3.0000   -2.5981    0.0000 C   0  0  0  0  0  0  0  0  0  0  0  0
    3.7500   -1.2990    0.0000 O   0  0  0  0  0  0  0  0  0  0  0  0
    3.7500   -3.8971    0.0000 C   0  0  0  0  0  0  0  0  0  0  0  0
    3.0000   -5.1962    0.0000 C   0  0  0  0  0  0  0  0  0  0  0  0
    3.7500   -6.4952    0.0000 C   0  0  0  0  0  0  0  0  0  0  0  0
    5.2500   -6.4952    0.0000 C   0  0  0  0  0  0  0  0  0  0  0  0
    6.0000   -5.1962    0.0000 C   0  0  0  0  0  0  0  0  0  0  0  0
    5.2500   -3.8971    0.0000 C   0  0  0  0  0  0  0  0  0  0  0  0
    0.7500   -1.2990    0.0000 C   0  0  0  0  0  0  0  0  0  0  0  0
    1.5000    0.0000    0.0000 C   0  0  0  0  0  0  0  0  0  0  0  0
    0.7500    1.2990    0.0000 C   0  0  0  0  0  0  0  0  0  0  0  0
   -0.7500    1.2990    0.0000 C   0  0  0  0  0  0  0  0  0  0  0  0
   -1.5000    0.0000    0.0000 C   0  0  0  0  0  0  0  0  0  0  0  0
   -0.7500   -1.2990    0.0000 C   0  0  0  0  0  0  0  0  0  0  0  0
   -2.9672    0.3119    0.0000 N   0  0  0  0  0  0  0  0  0  0  0  0
   -3.1240    1.8037    0.0000 C   0  0  0  0  0  0  0  0  0  0  0  0
   -4.4231    2.5537    0.0000 N   0  0  0  0  0  0  0  0  0  0  0  0
   -5.7221    1.8037    0.0000 C   0  0  0  0  0  0  0  0  0  0  0  0
   -5.7221    0.3037    0.0000 O   0  0  0  0  0  0  0  0  0  0  0  0
   -7.0211    2.5537    0.0000 C   0  0  0  0  0  0  0  0  0  0  0  0
   -8.3914    1.9435    0.0000 C   0  0  0  0  0  0  0  0  0  0  0  0
   -9.3951    3.0583    0.0000 C   0  0  0  0  0  0  0  0  0  0  0  0
   -8.6451    4.3573    0.0000 C   0  0  0  0  0  0  0  0  0  0  0  0
   -9.2552    5.7276    0.0000 C   0  0  0  0  0  0  0  0  0  0  0  0
  -10.7470    5.8844    0.0000 C   0  0  0  0  0  0  0  0  0  0  0  0
  -11.3571    7.2547    0.0000 C   0  0  0  0  0  0  0  0  0  0  0  0
  -11.9672    8.6250    0.0000 N   0  0  0  0  0  0  0  0  0  0  0  0
   -7.1779    4.0454    0.0000 S   0  0  0  0  0  0  0  0  0  0  0  0
   -1.7537    2.4138    0.0000 N   0  0  0  0  0  0  0  0  0  0  0  0
   -1.4418    3.8810    0.0000 C   0  0  0  0  0  0  0  0  0  0  0  0
   -0.0152    4.3445    0.0000 C   0  0  0  0  0  0  0  0  0  0  0  0
    0.2966    5.8117    0.0000 C   0  0  0  0  0  0  0  0  0  0  0  0
    1.7232    6.2752    0.0000 N   0  0  0  0  0  0  0  0  0  0  0  0
   -0.8181    6.8154    0.0000 O   0  0  0  0  0  0  0  0  0  0  0  0
  1  2  1  0
  2  3  1  0
  3  4  2  0
  3  5  1  0
  5  6  2  0
  6  7  1  0
  7  8  2  0
  8  9  1  0
  9 10  2  0
  2 11  1  0
 11 12  2  0
 12 13  1  0
 13 14  2  0
 14 15  1  0
 15 16  2  0
 15 17  1  0
 17 18  1  0
 18 19  2  0
 19 20  1  0
 20 21  2  0
 20 22  1  0
 22 23  2  0
 23 24  1  0
 24 25  2  0
 25 26  1  0
 26 27  2  0
 27 28  1  0
 28 29  3  0
 25 30  1  0
 18 31  1  0
 31 32  1  0
 32 33  1  0
 33 34  1  0
 34 35  1  0
 34 36  2  0
 10  5  1  0
 16 11  1  0
 30 22  1  0
 31 14  1  0
M  END
>  <Compound_ID>  (66) 
CHEMBL519250

>  <Molecule Name>  (66) 
nan

>  <Molecular Weight>  (66) 
498.57

>  <AlogP>  (66) 
3.46

>  <Smiles>  (66) 
CN(C(=O)c1ccccc1)c1ccc2c(c1)[nH]/c(=N\C(=O)c1ccc(/C=C/C#N)s1)n2CCC(N)=O

>  <Standard Type>  (66) 
IC50

>  <Standard Relation>  (66) 
'='

>  <Standard Units>  (66) 
nM

>  <Standard Value>  (66) 
5.0

>  <Assay ChEMBL ID>  (66) 
CHEMBL942219

>  <Assay Description>  (66) 
Inhibition of ITK by DELPHIA

>  <BAO Format ID>  (66) 
BAO_0000357

>  <BAO Label>  (66) 
single protein format

>  <Assay Organism>  (66) 
None

>  <Target ChEMBL ID>  (66) 
CHEMBL2959

>  <Target Name>  (66) 
Tyrosine-protein kinase ITK/TSK

>  <Target Organism>  (66) 
Homo sapiens

>  <Target Type>  (66) 
SINGLE PROTEIN

>  <Document ChEMBL ID>  (66) 
CHEMBL1152261

>  <Source Description>  (66) 
Scientific Literature

>  <Document Journal>  (66) 
Bioorg Med Chem Lett

>  <Document Year>  (66) 
2008.0

>  <Active>  (66) 
1.0

$$$$

     RDKit          2D

 37 40  0  0  0  0  0  0  0  0999 V2000
    0.7500   -3.8971    0.0000 C   0  0  0  0  0  0  0  0  0  0  0  0
    1.5000   -2.5981    0.0000 N   0  0  0  0  0  0  0  0  0  0  0  0
    3.0000   -2.5981    0.0000 C   0  0  0  0  0  0  0  0  0  0  0  0
    3.7500   -1.2990    0.0000 O   0  0  0  0  0  0  0  0  0  0  0  0
    3.7500   -3.8971    0.0000 C   0  0  0  0  0  0  0  0  0  0  0  0
    3.0000   -5.1962    0.0000 C   0  0  0  0  0  0  0  0  0  0  0  0
    3.7500   -6.4952    0.0000 C   0  0  0  0  0  0  0  0  0  0  0  0
    5.2500   -6.4952    0.0000 C   0  0  0  0  0  0  0  0  0  0  0  0
    6.6595   -7.0082    0.0000 F   0  0  0  0  0  0  0  0  0  0  0  0
    4.9895   -7.9724    0.0000 F   0  0  0  0  0  0  0  0  0  0  0  0
    6.0000   -5.1962    0.0000 C   0  0  0  0  0  0  0  0  0  0  0  0
    5.2500   -3.8971    0.0000 C   0  0  0  0  0  0  0  0  0  0  0  0
    0.7500   -1.2990    0.0000 C   0  0  0  0  0  0  0  0  0  0  0  0
    1.5000    0.0000    0.0000 C   0  0  0  0  0  0  0  0  0  0  0  0
    0.7500    1.2990    0.0000 C   0  0  0  0  0  0  0  0  0  0  0  0
   -0.7500    1.2990    0.0000 C   0  0  0  0  0  0  0  0  0  0  0  0
   -1.5000    0.0000    0.0000 C   0  0  0  0  0  0  0  0  0  0  0  0
   -0.7500   -1.2990    0.0000 C   0  0  0  0  0  0  0  0  0  0  0  0
   -2.9672    0.3119    0.0000 N   0  0  0  0  0  0  0  0  0  0  0  0
   -3.1240    1.8037    0.0000 C   0  0  0  0  0  0  0  0  0  0  0  0
   -4.4231    2.5537    0.0000 N   0  0  0  0  0  0  0  0  0  0  0  0
   -4.4231    4.0537    0.0000 C   0  0  0  0  0  0  0  0  0  0  0  0
   -3.1240    4.8037    0.0000 O   0  0  0  0  0  0  0  0  0  0  0  0
   -5.7221    4.8037    0.0000 C   0  0  0  0  0  0  0  0  0  0  0  0
   -5.7221    6.3037    0.0000 C   0  0  0  0  0  0  0  0  0  0  0  0
   -7.0211    7.0537    0.0000 C   0  0  0  0  0  0  0  0  0  0  0  0
   -8.3202    6.3037    0.0000 C   0  0  0  0  0  0  0  0  0  0  0  0
   -9.6192    7.0537    0.0000 C   0  0  0  0  0  0  0  0  0  0  0  0
  -10.9182    7.8037    0.0000 N   0  0  0  0  0  0  0  0  0  0  0  0
   -8.3202    4.8037    0.0000 C   0  0  0  0  0  0  0  0  0  0  0  0
   -7.0211    4.0537    0.0000 C   0  0  0  0  0  0  0  0  0  0  0  0
   -1.7537    2.4138    0.0000 N   0  0  0  0  0  0  0  0  0  0  0  0
   -1.4418    3.8810    0.0000 C   0  0  0  0  0  0  0  0  0  0  0  0
   -0.0152    4.3445    0.0000 C   0  0  0  0  0  0  0  0  0  0  0  0
    0.2966    5.8117    0.0000 C   0  0  0  0  0  0  0  0  0  0  0  0
    1.7232    6.2752    0.0000 N   0  0  0  0  0  0  0  0  0  0  0  0
   -0.8181    6.8154    0.0000 O   0  0  0  0  0  0  0  0  0  0  0  0
  1  2  1  0
  2  3  1  0
  3  4  2  0
  3  5  1  0
  5  6  1  0
  6  7  1  0
  7  8  1  0
  8  9  1  0
  8 10  1  0
  8 11  1  0
 11 12  1  0
  2 13  1  0
 13 14  2  0
 14 15  1  0
 15 16  2  0
 16 17  1  0
 17 18  2  0
 17 19  1  0
 19 20  2  0
 20 21  1  0
 21 22  1  0
 22 23  2  0
 22 24  1  0
 24 25  2  0
 25 26  1  0
 26 27  2  0
 27 28  1  0
 28 29  3  0
 27 30  1  0
 30 31  2  0
 20 32  1  0
 32 33  1  0
 33 34  1  0
 34 35  1  0
 35 36  1  0
 35 37  2  0
 12  5  1  0
 18 13  1  0
 31 24  1  0
 32 16  1  0
M  END
>  <Compound_ID>  (67) 
CHEMBL519033

>  <Molecule Name>  (67) 
nan

>  <Molecular Weight>  (67) 
508.53

>  <AlogP>  (67) 
3.82

>  <Smiles>  (67) 
CN(C(=O)C1CCC(F)(F)CC1)c1ccc2c(c1)nc(NC(=O)c1ccc(C#N)cc1)n2CCC(N)=O

>  <Standard Type>  (67) 
IC50

>  <Standard Relation>  (67) 
'='

>  <Standard Units>  (67) 
nM

>  <Standard Value>  (67) 
8.0

>  <Assay ChEMBL ID>  (67) 
CHEMBL992543

>  <Assay Description>  (67) 
Inhibition of recombinant ITK by DELFIA assay

>  <BAO Format ID>  (67) 
BAO_0000357

>  <BAO Label>  (67) 
single protein format

>  <Assay Organism>  (67) 
None

>  <Target ChEMBL ID>  (67) 
CHEMBL2959

>  <Target Name>  (67) 
Tyrosine-protein kinase ITK/TSK

>  <Target Organism>  (67) 
Homo sapiens

>  <Target Type>  (67) 
SINGLE PROTEIN

>  <Document ChEMBL ID>  (67) 
CHEMBL1142466

>  <Source Description>  (67) 
Scientific Literature

>  <Document Journal>  (67) 
Bioorg Med Chem Lett

>  <Document Year>  (67) 
2008.0

>  <Active>  (67) 
1.0

$$$$

     RDKit          2D

 33 36  0  0  0  0  0  0  0  0999 V2000
    0.7500   -3.8971    0.0000 C   0  0  0  0  0  0  0  0  0  0  0  0
    1.5000   -2.5981    0.0000 N   0  0  0  0  0  0  0  0  0  0  0  0
    3.0000   -2.5981    0.0000 C   0  0  0  0  0  0  0  0  0  0  0  0
    3.7500   -1.2990    0.0000 O   0  0  0  0  0  0  0  0  0  0  0  0
    3.7500   -3.8971    0.0000 C   0  0  0  0  0  0  0  0  0  0  0  0
    3.0000   -5.1962    0.0000 C   0  0  0  0  0  0  0  0  0  0  0  0
    3.7500   -6.4952    0.0000 C   0  0  0  0  0  0  0  0  0  0  0  0
    5.2500   -6.4952    0.0000 C   0  0  0  0  0  0  0  0  0  0  0  0
    6.0000   -5.1962    0.0000 C   0  0  0  0  0  0  0  0  0  0  0  0
    5.2500   -3.8971    0.0000 C   0  0  0  0  0  0  0  0  0  0  0  0
    0.7500   -1.2990    0.0000 C   0  0  0  0  0  0  0  0  0  0  0  0
    1.5000    0.0000    0.0000 C   0  0  0  0  0  0  0  0  0  0  0  0
    0.7500    1.2990    0.0000 C   0  0  0  0  0  0  0  0  0  0  0  0
   -0.7500    1.2990    0.0000 C   0  0  0  0  0  0  0  0  0  0  0  0
   -1.5000    0.0000    0.0000 C   0  0  0  0  0  0  0  0  0  0  0  0
   -0.7500   -1.2990    0.0000 C   0  0  0  0  0  0  0  0  0  0  0  0
   -2.9672    0.3119    0.0000 N   0  0  0  0  0  0  0  0  0  0  0  0
   -3.1240    1.8037    0.0000 C   0  0  0  0  0  0  0  0  0  0  0  0
   -4.4231    2.5537    0.0000 N   0  0  0  0  0  0  0  0  0  0  0  0
   -4.4231    4.0537    0.0000 C   0  0  0  0  0  0  0  0  0  0  0  0
   -3.1240    4.8037    0.0000 O   0  0  0  0  0  0  0  0  0  0  0  0
   -5.7221    4.8037    0.0000 C   0  0  0  0  0  0  0  0  0  0  0  0
   -5.7221    6.3037    0.0000 C   0  0  0  0  0  0  0  0  0  0  0  0
   -7.0211    7.0537    0.0000 C   0  0  0  0  0  0  0  0  0  0  0  0
   -8.3202    6.3037    0.0000 C   0  0  0  0  0  0  0  0  0  0  0  0
   -8.3202    4.8037    0.0000 C   0  0  0  0  0  0  0  0  0  0  0  0
   -7.0211    4.0537    0.0000 C   0  0  0  0  0  0  0  0  0  0  0  0
   -1.7537    2.4138    0.0000 N   0  0  0  0  0  0  0  0  0  0  0  0
   -1.4418    3.8810    0.0000 C   0  0  0  0  0  0  0  0  0  0  0  0
   -0.0152    4.3445    0.0000 C   0  0  0  0  0  0  0  0  0  0  0  0
    0.2966    5.8117    0.0000 C   0  0  0  0  0  0  0  0  0  0  0  0
    1.7232    6.2752    0.0000 N   0  0  0  0  0  0  0  0  0  0  0  0
   -0.8181    6.8154    0.0000 O   0  0  0  0  0  0  0  0  0  0  0  0
  1  2  1  0
  2  3  1  0
  3  4  2  0
  3  5  1  0
  5  6  2  0
  6  7  1  0
  7  8  2  0
  8  9  1  0
  9 10  2  0
  2 11  1  0
 11 12  2  0
 12 13  1  0
 13 14  2  0
 14 15  1  0
 15 16  2  0
 15 17  1  0
 17 18  2  0
 18 19  1  0
 19 20  1  0
 20 21  2  0
 20 22  1  0
 22 23  2  0
 23 24  1  0
 24 25  2  0
 25 26  1  0
 26 27  2  0
 18 28  1  0
 28 29  1  0
 29 30  1  0
 30 31  1  0
 31 32  1  0
 31 33  2  0
 10  5  1  0
 16 11  1  0
 27 22  1  0
 28 14  1  0
M  END
>  <Compound_ID>  (68) 
CHEMBL485202

>  <Molecule Name>  (68) 
nan

>  <Molecular Weight>  (68) 
441.49

>  <AlogP>  (68) 
3.44

>  <Smiles>  (68) 
CN(C(=O)c1ccccc1)c1ccc2c(c1)nc(NC(=O)c1ccccc1)n2CCC(N)=O

>  <Standard Type>  (68) 
IC50

>  <Standard Relation>  (68) 
'='

>  <Standard Units>  (68) 
nM

>  <Standard Value>  (68) 
3.0

>  <Assay ChEMBL ID>  (68) 
CHEMBL992543

>  <Assay Description>  (68) 
Inhibition of recombinant ITK by DELFIA assay

>  <BAO Format ID>  (68) 
BAO_0000357

>  <BAO Label>  (68) 
single protein format

>  <Assay Organism>  (68) 
None

>  <Target ChEMBL ID>  (68) 
CHEMBL2959

>  <Target Name>  (68) 
Tyrosine-protein kinase ITK/TSK

>  <Target Organism>  (68) 
Homo sapiens

>  <Target Type>  (68) 
SINGLE PROTEIN

>  <Document ChEMBL ID>  (68) 
CHEMBL1142466

>  <Source Description>  (68) 
Scientific Literature

>  <Document Journal>  (68) 
Bioorg Med Chem Lett

>  <Document Year>  (68) 
2008.0

>  <Active>  (68) 
1.0

$$$$

     RDKit          2D

 40 44  0  0  0  0  0  0  0  0999 V2000
  -10.5759   -3.0359    0.0000 C   0  0  0  0  0  0  0  0  0  0  0  0
   -9.4612   -4.0396    0.0000 O   0  0  0  0  0  0  0  0  0  0  0  0
   -8.0346   -3.5760    0.0000 C   0  0  0  0  0  0  0  0  0  0  0  0
   -7.7227   -2.1088    0.0000 C   0  0  0  0  0  0  0  0  0  0  0  0
   -6.2961   -1.6453    0.0000 C   0  0  0  0  0  0  0  0  0  0  0  0
   -5.1814   -2.6490    0.0000 C   0  0  0  0  0  0  0  0  0  0  0  0
   -3.7548   -2.1855    0.0000 C   0  0  0  0  0  0  0  0  0  0  0  0
   -2.6401   -3.1891    0.0000 C   0  0  0  0  0  0  0  0  0  0  0  0
   -1.2135   -2.7256    0.0000 N   0  0  0  0  0  0  0  0  0  0  0  0
   -0.0000   -3.6073    0.0000 C   0  0  0  0  0  0  0  0  0  0  0  0
   -0.0000   -5.1073    0.0000 N   0  0  0  0  0  0  0  0  0  0  0  0
   -1.2990   -5.8573    0.0000 C   0  0  0  0  0  0  0  0  0  0  0  0
   -2.5981   -5.1073    0.0000 O   0  0  0  0  0  0  0  0  0  0  0  0
   -1.2990   -7.3573    0.0000 C   0  0  0  0  0  0  0  0  0  0  0  0
   -2.5981   -8.1073    0.0000 C   0  0  0  0  0  0  0  0  0  0  0  0
   -2.5981   -9.6073    0.0000 C   0  0  0  0  0  0  0  0  0  0  0  0
   -1.2990  -10.3573    0.0000 C   0  0  0  0  0  0  0  0  0  0  0  0
   -1.2990  -11.8573    0.0000 C   0  0  0  0  0  0  0  0  0  0  0  0
   -1.2990  -13.3573    0.0000 N   0  0  0  0  0  0  0  0  0  0  0  0
    0.0000   -9.6073    0.0000 C   0  0  0  0  0  0  0  0  0  0  0  0
    0.0000   -8.1073    0.0000 C   0  0  0  0  0  0  0  0  0  0  0  0
    1.2135   -2.7256    0.0000 N   0  0  0  0  0  0  0  0  0  0  0  0
    0.7500   -1.2990    0.0000 C   0  0  0  0  0  0  0  0  0  0  0  0
    1.5000    0.0000    0.0000 C   0  0  0  0  0  0  0  0  0  0  0  0
    0.7500    1.2990    0.0000 C   0  0  0  0  0  0  0  0  0  0  0  0
    1.5000    2.5981    0.0000 N   0  0  0  0  0  0  0  0  0  0  0  0
    3.0000    2.5981    0.0000 C   0  0  0  0  0  0  0  0  0  0  0  0
    0.7500    3.8971    0.0000 C   0  0  0  0  0  0  0  0  0  0  0  0
   -0.7500    3.8971    0.0000 O   0  0  0  0  0  0  0  0  0  0  0  0
    1.5000    5.1962    0.0000 C   0  0  0  0  0  0  0  0  0  0  0  0
    3.0000    5.1962    0.0000 C   0  0  0  0  0  0  0  0  0  0  0  0
    3.7500    6.4952    0.0000 C   0  0  0  0  0  0  0  0  0  0  0  0
    3.0000    7.7942    0.0000 C   0  0  0  0  0  0  0  0  0  0  0  0
    1.5000    7.7942    0.0000 C   0  0  0  0  0  0  0  0  0  0  0  0
    0.7500    6.4952    0.0000 C   0  0  0  0  0  0  0  0  0  0  0  0
   -0.7500    1.2990    0.0000 C   0  0  0  0  0  0  0  0  0  0  0  0
   -1.5000    0.0000    0.0000 C   0  0  0  0  0  0  0  0  0  0  0  0
   -0.7500   -1.2990    0.0000 C   0  0  0  0  0  0  0  0  0  0  0  0
   -5.4933   -4.1162    0.0000 C   0  0  0  0  0  0  0  0  0  0  0  0
   -6.9199   -4.5797    0.0000 C   0  0  0  0  0  0  0  0  0  0  0  0
  1  2  1  0
  2  3  1  0
  3  4  2  0
  4  5  1  0
  5  6  2  0
  6  7  1  0
  7  8  1  0
  8  9  1  0
  9 10  1  0
 10 11  1  0
 11 12  1  0
 12 13  2  0
 12 14  1  0
 14 15  2  0
 15 16  1  0
 16 17  2  0
 17 18  1  0
 18 19  3  0
 17 20  1  0
 20 21  2  0
 10 22  2  0
 22 23  1  0
 23 24  2  0
 24 25  1  0
 25 26  1  0
 26 27  1  0
 26 28  1  0
 28 29  2  0
 28 30  1  0
 30 31  1  0
 31 32  1  0
 32 33  1  0
 33 34  1  0
 34 35  1  0
 25 36  2  0
 36 37  1  0
 37 38  2  0
  6 39  1  0
 39 40  2  0
 40  3  1  0
 38  9  1  0
 21 14  1  0
 38 23  1  0
 35 30  1  0
M  END
>  <Compound_ID>  (69) 
CHEMBL522085

>  <Molecule Name>  (69) 
nan

>  <Molecular Weight>  (69) 
535.65

>  <AlogP>  (69) 
5.95

>  <Smiles>  (69) 
COc1ccc(CCn2c(NC(=O)c3ccc(C#N)cc3)nc3cc(N(C)C(=O)C4CCCCC4)ccc32)cc1

>  <Standard Type>  (69) 
IC50

>  <Standard Relation>  (69) 
'='

>  <Standard Units>  (69) 
nM

>  <Standard Value>  (69) 
89.0

>  <Assay ChEMBL ID>  (69) 
CHEMBL992563

>  <Assay Description>  (69) 
Inhibition of ITK by DELFIA assay

>  <BAO Format ID>  (69) 
BAO_0000357

>  <BAO Label>  (69) 
single protein format

>  <Assay Organism>  (69) 
None

>  <Target ChEMBL ID>  (69) 
CHEMBL2959

>  <Target Name>  (69) 
Tyrosine-protein kinase ITK/TSK

>  <Target Organism>  (69) 
Homo sapiens

>  <Target Type>  (69) 
SINGLE PROTEIN

>  <Document ChEMBL ID>  (69) 
CHEMBL1142468

>  <Source Description>  (69) 
Scientific Literature

>  <Document Journal>  (69) 
Bioorg Med Chem Lett

>  <Document Year>  (69) 
2008.0

>  <Active>  (69) 
1.0

$$$$

     RDKit          2D

 33 37  0  0  0  0  0  0  0  0999 V2000
    2.6491    0.9642    0.0000 C   0  0  0  0  0  0  0  0  0  0  0  0
    1.5000    0.0000    0.0000 C   0  0  0  0  0  0  0  0  0  0  0  0
    2.6491   -0.9642    0.0000 C   0  0  0  0  0  0  0  0  0  0  0  0
    0.7500   -1.2990    0.0000 C   0  0  0  0  0  0  0  0  0  0  0  0
   -0.7500   -1.2990    0.0000 C   0  0  0  0  0  0  0  0  0  0  0  0
   -1.5000    0.0000    0.0000 C   0  0  0  0  0  0  0  0  0  0  0  0
   -2.9672    0.3119    0.0000 C   0  0  0  0  0  0  0  0  0  0  0  0
   -4.0819   -0.6918    0.0000 C   0  0  0  0  0  0  0  0  0  0  0  0
   -3.7701   -2.1590    0.0000 O   0  0  0  0  0  0  0  0  0  0  0  0
   -5.5085   -0.2283    0.0000 N   0  0  0  0  0  0  0  0  0  0  0  0
   -6.6232   -1.2320    0.0000 C   0  0  0  0  0  0  0  0  0  0  0  0
   -6.4664   -2.7238    0.0000 C   0  0  0  0  0  0  0  0  0  0  0  0
   -7.8368   -3.3339    0.0000 N   0  0  0  0  0  0  0  0  0  0  0  0
   -8.8405   -2.2192    0.0000 N   0  0  0  0  0  0  0  0  0  0  0  0
  -10.3322   -2.3760    0.0000 C   0  0  0  0  0  0  0  0  0  0  0  0
  -10.9423   -3.7463    0.0000 C   0  0  0  0  0  0  0  0  0  0  0  0
  -12.4341   -3.9031    0.0000 C   0  0  0  0  0  0  0  0  0  0  0  0
  -13.0442   -5.2734    0.0000 C   0  0  0  0  0  0  0  0  0  0  0  0
  -12.1626   -6.4869    0.0000 C   0  0  0  0  0  0  0  0  0  0  0  0
  -10.6708   -6.3301    0.0000 C   0  0  0  0  0  0  0  0  0  0  0  0
  -10.0607   -4.9598    0.0000 C   0  0  0  0  0  0  0  0  0  0  0  0
  -11.2139   -1.1624    0.0000 C   0  0  0  0  0  0  0  0  0  0  0  0
  -10.9793    0.3191    0.0000 C   0  0  0  0  0  0  0  0  0  0  0  0
  -12.4608    0.5537    0.0000 N   0  0  0  0  0  0  0  0  0  0  0  0
  -13.3425    1.7673    0.0000 C   0  0  0  0  0  0  0  0  0  0  0  0
  -12.7324    3.1376    0.0000 C   0  0  0  0  0  0  0  0  0  0  0  0
  -13.6141    4.3511    0.0000 F   0  0  0  0  0  0  0  0  0  0  0  0
  -12.6955   -0.9278    0.0000 C   0  0  0  0  0  0  0  0  0  0  0  0
   -8.0905   -0.9201    0.0000 C   0  0  0  0  0  0  0  0  0  0  0  0
   -3.1240    1.8037    0.0000 N   0  0  0  0  0  0  0  0  0  0  0  0
   -1.7537    2.4138    0.0000 N   0  0  0  0  0  0  0  0  0  0  0  0
   -0.7500    1.2990    0.0000 C   0  0  0  0  0  0  0  0  0  0  0  0
    0.7500    1.2990    0.0000 C   0  0  0  0  0  0  0  0  0  0  0  0
  1  2  1  0
  2  3  1  0
  2  4  1  0
  4  5  1  0
  5  6  1  0
  6  7  1  0
  7  8  1  0
  8  9  2  0
  8 10  1  0
 10 11  1  0
 11 12  1  0
 12 13  2  0
 13 14  1  0
 14 15  1  0
 15 16  1  0
 16 17  2  0
 17 18  1  0
 18 19  2  0
 19 20  1  0
 20 21  2  0
 15 22  1  0
 22 23  1  0
 23 24  1  0
 24 25  1  0
 25 26  1  0
 26 27  1  0
 24 28  1  0
 14 29  1  0
  7 30  2  0
 30 31  1  0
 31 32  1  0
 32 33  1  0
 33  2  1  0
 32  6  2  0
 29 11  2  0
 21 16  1  0
 28 22  1  0
M  END
>  <Compound_ID>  (70) 
CHEMBL3287196

>  <Molecule Name>  (70) 
nan

>  <Molecular Weight>  (70) 
450.56

>  <AlogP>  (70) 
3.86

>  <Smiles>  (70) 
CC1(C)CCc2c(C(=O)Nc3cnn(C(c4ccccc4)C4CN(CCF)C4)c3)n[nH]c2C1

>  <Standard Type>  (70) 
Ki

>  <Standard Relation>  (70) 
'='

>  <Standard Units>  (70) 
nM

>  <Standard Value>  (70) 
0.3

>  <Assay ChEMBL ID>  (70) 
CHEMBL3293061

>  <Assay Description>  (70) 
Inhibition of ITK (unknown origin) using Acetyl-EFPIYDFLPAKKK-NH2 peptide as substrate after 1 hr by LC-MS analysis

>  <BAO Format ID>  (70) 
BAO_0000357

>  <BAO Label>  (70) 
single protein format

>  <Assay Organism>  (70) 
Homo sapiens

>  <Target ChEMBL ID>  (70) 
CHEMBL2959

>  <Target Name>  (70) 
Tyrosine-protein kinase ITK/TSK

>  <Target Organism>  (70) 
Homo sapiens

>  <Target Type>  (70) 
SINGLE PROTEIN

>  <Document ChEMBL ID>  (70) 
CHEMBL3286251

>  <Source Description>  (70) 
Scientific Literature

>  <Document Journal>  (70) 
ACS Med Chem Lett

>  <Document Year>  (70) 
2014.0

>  <Active>  (70) 
1.0

$$$$

     RDKit          2D

 28 31  0  0  0  0  0  0  0  0999 V2000
   -0.7500   -3.8971    0.0000 O   0  0  0  0  0  0  0  0  0  0  0  0
    0.7500   -3.8971    0.0000 C   0  0  0  0  0  0  0  0  0  0  0  0
    1.5000   -2.5981    0.0000 N   0  0  0  0  0  0  0  0  0  0  0  0
    0.7500   -1.2990    0.0000 C   0  0  0  0  0  0  0  0  0  0  0  0
    1.5000    0.0000    0.0000 C   0  0  0  0  0  0  0  0  0  0  0  0
    0.7500    1.2990    0.0000 C   0  0  0  0  0  0  0  0  0  0  0  0
    1.5000    2.5981    0.0000 C   0  0  0  0  0  0  0  0  0  0  0  0
    3.0000    2.5981    0.0000 C   0  0  0  0  0  0  0  0  0  0  0  0
    3.7500    3.8971    0.0000 C   0  0  0  0  0  0  0  0  0  0  0  0
    3.0000    5.1962    0.0000 N   0  0  0  0  0  0  0  0  0  0  0  0
    1.5000    5.1962    0.0000 C   0  0  0  0  0  0  0  0  0  0  0  0
    0.7500    3.8971    0.0000 C   0  0  0  0  0  0  0  0  0  0  0  0
   -0.7500    1.2990    0.0000 C   0  0  0  0  0  0  0  0  0  0  0  0
   -1.5000    0.0000    0.0000 N   0  0  0  0  0  0  0  0  0  0  0  0
   -0.7500   -1.2990    0.0000 C   0  0  0  0  0  0  0  0  0  0  0  0
   -1.5000   -2.5981    0.0000 O   0  0  0  0  0  0  0  0  0  0  0  0
    1.5000   -5.1962    0.0000 C   0  0  0  0  0  0  0  0  0  0  0  0
    0.7500   -6.4952    0.0000 C   0  0  0  0  0  0  0  0  0  0  0  0
    1.5000   -7.7942    0.0000 C   0  0  0  0  0  0  0  0  0  0  0  0
    3.0000   -7.7942    0.0000 C   0  0  0  0  0  0  0  0  0  0  0  0
    3.7500   -9.0933    0.0000 N   0  0  0  0  0  0  0  0  0  0  0  0
    3.0000  -10.3923    0.0000 C   0  0  0  0  0  0  0  0  0  0  0  0
    3.7500  -11.6913    0.0000 C   0  0  0  0  0  0  0  0  0  0  0  0
    5.2500  -11.6913    0.0000 C   0  0  0  0  0  0  0  0  0  0  0  0
    6.0000  -10.3923    0.0000 C   0  0  0  0  0  0  0  0  0  0  0  0
    5.2500   -9.0933    0.0000 C   0  0  0  0  0  0  0  0  0  0  0  0
    3.7500   -6.4952    0.0000 C   0  0  0  0  0  0  0  0  0  0  0  0
    3.0000   -5.1962    0.0000 C   0  0  0  0  0  0  0  0  0  0  0  0
  1  2  2  0
  2  3  1  0
  3  4  1  0
  4  5  2  0
  5  6  1  0
  6  7  1  0
  7  8  2  0
  8  9  1  0
  9 10  2  0
 10 11  1  0
 11 12  2  0
  6 13  2  0
 13 14  1  0
 14 15  1  0
 15 16  2  0
  2 17  1  0
 17 18  2  0
 18 19  1  0
 19 20  2  0
 20 21  1  0
 21 22  1  0
 22 23  1  0
 23 24  1  0
 24 25  1  0
 25 26  1  0
 20 27  1  0
 27 28  2  0
 15  4  1  0
 28 17  1  0
 12  7  1  0
 26 21  1  0
M  END
>  <Compound_ID>  (71) 
CHEMBL1765097

>  <Molecule Name>  (71) 
nan

>  <Molecular Weight>  (71) 
374.44

>  <AlogP>  (71) 
3.68

>  <Smiles>  (71) 
O=C(Nc1cc(-c2ccncc2)c[nH]c1=O)c1ccc(N2CCCCC2)cc1

>  <Standard Type>  (71) 
Ki

>  <Standard Relation>  (71) 
'='

>  <Standard Units>  (71) 
nM

>  <Standard Value>  (71) 
93.0

>  <Assay ChEMBL ID>  (71) 
CHEMBL1768448

>  <Assay Description>  (71) 
Inhibition of Itk after 40 mins by radiometric phosphate incorporation assay

>  <BAO Format ID>  (71) 
BAO_0000357

>  <BAO Label>  (71) 
single protein format

>  <Assay Organism>  (71) 
None

>  <Target ChEMBL ID>  (71) 
CHEMBL2959

>  <Target Name>  (71) 
Tyrosine-protein kinase ITK/TSK

>  <Target Organism>  (71) 
Homo sapiens

>  <Target Type>  (71) 
SINGLE PROTEIN

>  <Document ChEMBL ID>  (71) 
CHEMBL1765075

>  <Source Description>  (71) 
Scientific Literature

>  <Document Journal>  (71) 
J Med Chem

>  <Document Year>  (71) 
2011.0

>  <Active>  (71) 
1.0

$$$$

     RDKit          2D

 22 24  0  0  0  0  0  0  0  0999 V2000
   10.5000   -5.1962    0.0000 C   0  0  0  0  0  0  0  0  0  0  0  0
    9.0000   -5.1962    0.0000 C   0  0  0  0  0  0  0  0  0  0  0  0
    7.5000   -5.1962    0.0000 C   0  0  0  0  0  0  0  0  0  0  0  0
    6.0000   -5.1962    0.0000 C   0  0  0  0  0  0  0  0  0  0  0  0
    5.2500   -6.4952    0.0000 O   0  0  0  0  0  0  0  0  0  0  0  0
    5.2500   -3.8971    0.0000 N   0  0  0  0  0  0  0  0  0  0  0  0
    3.7500   -3.8971    0.0000 C   0  0  0  0  0  0  0  0  0  0  0  0
    3.0000   -5.1962    0.0000 C   0  0  0  0  0  0  0  0  0  0  0  0
    1.5000   -5.1962    0.0000 C   0  0  0  0  0  0  0  0  0  0  0  0
    0.7500   -3.8971    0.0000 C   0  0  0  0  0  0  0  0  0  0  0  0
    1.5000   -2.5981    0.0000 C   0  0  0  0  0  0  0  0  0  0  0  0
    0.7500   -1.2990    0.0000 C   0  0  0  0  0  0  0  0  0  0  0  0
    1.5000    0.0000    0.0000 C   0  0  0  0  0  0  0  0  0  0  0  0
    0.7500    1.2990    0.0000 N   0  0  0  0  0  0  0  0  0  0  0  0
   -0.7500    1.2990    0.0000 C   0  0  0  0  0  0  0  0  0  0  0  0
   -1.7537    2.4138    0.0000 N   0  0  0  0  0  0  0  0  0  0  0  0
   -3.1240    1.8037    0.0000 C   0  0  0  0  0  0  0  0  0  0  0  0
   -2.9672    0.3119    0.0000 C   0  0  0  0  0  0  0  0  0  0  0  0
   -4.0819   -0.6918    0.0000 C   0  0  0  0  0  0  0  0  0  0  0  0
   -1.5000    0.0000    0.0000 C   0  0  0  0  0  0  0  0  0  0  0  0
   -0.7500   -1.2990    0.0000 C   0  0  0  0  0  0  0  0  0  0  0  0
    3.0000   -2.5981    0.0000 N   0  0  0  0  0  0  0  0  0  0  0  0
  1  2  1  0
  2  3  3  0
  3  4  1  0
  4  5  2  0
  4  6  1  0
  6  7  1  0
  7  8  2  0
  8  9  1  0
  9 10  2  0
 10 11  1  0
 11 12  1  0
 12 13  2  0
 13 14  1  0
 14 15  2  0
 15 16  1  0
 16 17  1  0
 17 18  2  0
 18 19  1  0
 18 20  1  0
 20 21  2  0
 11 22  2  0
 22  7  1  0
 21 12  1  0
 20 15  1  0
M  END
>  <Compound_ID>  (72) 
CHEMBL3967872

>  <Molecule Name>  (72) 
nan

>  <Molecular Weight>  (72) 
290.33

>  <AlogP>  (72) 
2.90

>  <Smiles>  (72) 
CC#CC(=O)Nc1cccc(-c2cnc3[nH]cc(C)c3c2)n1

>  <Standard Type>  (72) 
IC50

>  <Standard Relation>  (72) 
'='

>  <Standard Units>  (72) 
nM

>  <Standard Value>  (72) 
35.0

>  <Assay ChEMBL ID>  (72) 
CHEMBL3887687

>  <Assay Description>  (72) 
Biochemical Inhibition Assay: 1H-pyrrolo[2,3-b]pyridine, 1H-pyrazolo[3,4-b]pyridine and 5H-pyrrolo[2,3-b]pyrazine series of compounds exhibited over >100 fold selective against Janus and TEC family of kinases except for the BMX and TXK it had activity of 30 and 45 nM respectively.

>  <BAO Format ID>  (72) 
BAO_0000357

>  <BAO Label>  (72) 
single protein format

>  <Assay Organism>  (72) 
Homo sapiens

>  <Target ChEMBL ID>  (72) 
CHEMBL2959

>  <Target Name>  (72) 
Tyrosine-protein kinase ITK/TSK

>  <Target Organism>  (72) 
Homo sapiens

>  <Target Type>  (72) 
SINGLE PROTEIN

>  <Document ChEMBL ID>  (72) 
CHEMBL3886406

>  <Source Description>  (72) 
BindingDB Database

>  <Document Journal>  (72) 
nan

>  <Document Year>  (72) 
2015.0

>  <Active>  (72) 
1.0

$$$$

     RDKit          2D

 22 24  0  0  0  0  0  0  0  0999 V2000
   10.5000   -5.1962    0.0000 C   0  0  0  0  0  0  0  0  0  0  0  0
    9.0000   -5.1962    0.0000 C   0  0  0  0  0  0  0  0  0  0  0  0
    7.5000   -5.1962    0.0000 C   0  0  0  0  0  0  0  0  0  0  0  0
    6.0000   -5.1962    0.0000 C   0  0  0  0  0  0  0  0  0  0  0  0
    5.2500   -6.4952    0.0000 O   0  0  0  0  0  0  0  0  0  0  0  0
    5.2500   -3.8971    0.0000 N   0  0  0  0  0  0  0  0  0  0  0  0
    3.7500   -3.8971    0.0000 C   0  0  0  0  0  0  0  0  0  0  0  0
    3.0000   -5.1962    0.0000 C   0  0  0  0  0  0  0  0  0  0  0  0
    1.5000   -5.1962    0.0000 C   0  0  0  0  0  0  0  0  0  0  0  0
    0.7500   -3.8971    0.0000 C   0  0  0  0  0  0  0  0  0  0  0  0
    1.5000   -2.5981    0.0000 C   0  0  0  0  0  0  0  0  0  0  0  0
    0.7500   -1.2990    0.0000 C   0  0  0  0  0  0  0  0  0  0  0  0
    1.5000    0.0000    0.0000 C   0  0  0  0  0  0  0  0  0  0  0  0
    0.7500    1.2990    0.0000 N   0  0  0  0  0  0  0  0  0  0  0  0
   -0.7500    1.2990    0.0000 C   0  0  0  0  0  0  0  0  0  0  0  0
   -1.7537    2.4138    0.0000 N   0  0  0  0  0  0  0  0  0  0  0  0
   -3.1240    1.8037    0.0000 C   0  0  0  0  0  0  0  0  0  0  0  0
   -2.9672    0.3119    0.0000 C   0  0  0  0  0  0  0  0  0  0  0  0
   -4.0819   -0.6918    0.0000 C   0  0  0  0  0  0  0  0  0  0  0  0
   -1.5000    0.0000    0.0000 C   0  0  0  0  0  0  0  0  0  0  0  0
   -0.7500   -1.2990    0.0000 C   0  0  0  0  0  0  0  0  0  0  0  0
    3.0000   -2.5981    0.0000 C   0  0  0  0  0  0  0  0  0  0  0  0
  1  2  1  0
  2  3  3  0
  3  4  1  0
  4  5  2  0
  4  6  1  0
  6  7  1  0
  7  8  2  0
  8  9  1  0
  9 10  2  0
 10 11  1  0
 11 12  1  0
 12 13  2  0
 13 14  1  0
 14 15  2  0
 15 16  1  0
 16 17  1  0
 17 18  2  0
 18 19  1  0
 18 20  1  0
 20 21  2  0
 11 22  2  0
 22  7  1  0
 21 12  1  0
 20 15  1  0
M  END
>  <Compound_ID>  (73) 
CHEMBL3938761

>  <Molecule Name>  (73) 
nan

>  <Molecular Weight>  (73) 
289.34

>  <AlogP>  (73) 
3.50

>  <Smiles>  (73) 
CC#CC(=O)Nc1cccc(-c2cnc3[nH]cc(C)c3c2)c1

>  <Standard Type>  (73) 
IC50

>  <Standard Relation>  (73) 
'='

>  <Standard Units>  (73) 
nM

>  <Standard Value>  (73) 
30.0

>  <Assay ChEMBL ID>  (73) 
CHEMBL3887687

>  <Assay Description>  (73) 
Biochemical Inhibition Assay: 1H-pyrrolo[2,3-b]pyridine, 1H-pyrazolo[3,4-b]pyridine and 5H-pyrrolo[2,3-b]pyrazine series of compounds exhibited over >100 fold selective against Janus and TEC family of kinases except for the BMX and TXK it had activity of 30 and 45 nM respectively.

>  <BAO Format ID>  (73) 
BAO_0000357

>  <BAO Label>  (73) 
single protein format

>  <Assay Organism>  (73) 
Homo sapiens

>  <Target ChEMBL ID>  (73) 
CHEMBL2959

>  <Target Name>  (73) 
Tyrosine-protein kinase ITK/TSK

>  <Target Organism>  (73) 
Homo sapiens

>  <Target Type>  (73) 
SINGLE PROTEIN

>  <Document ChEMBL ID>  (73) 
CHEMBL3886406

>  <Source Description>  (73) 
BindingDB Database

>  <Document Journal>  (73) 
nan

>  <Document Year>  (73) 
2015.0

>  <Active>  (73) 
1.0

$$$$

     RDKit          2D

 34 37  0  0  0  0  0  0  0  0999 V2000
    0.7500   -3.8971    0.0000 C   0  0  0  0  0  0  0  0  0  0  0  0
    1.5000   -2.5981    0.0000 N   0  0  0  0  0  0  0  0  0  0  0  0
    3.0000   -2.5981    0.0000 C   0  0  0  0  0  0  0  0  0  0  0  0
    3.7500   -1.2990    0.0000 O   0  0  0  0  0  0  0  0  0  0  0  0
    3.7500   -3.8971    0.0000 C   0  0  0  0  0  0  0  0  0  0  0  0
    3.0000   -5.1962    0.0000 C   0  0  0  0  0  0  0  0  0  0  0  0
    3.7500   -6.4952    0.0000 C   0  0  0  0  0  0  0  0  0  0  0  0
    5.2500   -6.4952    0.0000 C   0  0  0  0  0  0  0  0  0  0  0  0
    6.0000   -5.1962    0.0000 C   0  0  0  0  0  0  0  0  0  0  0  0
    5.2500   -3.8971    0.0000 C   0  0  0  0  0  0  0  0  0  0  0  0
    0.7500   -1.2990    0.0000 C   0  0  0  0  0  0  0  0  0  0  0  0
    1.5000    0.0000    0.0000 C   0  0  0  0  0  0  0  0  0  0  0  0
    0.7500    1.2990    0.0000 C   0  0  0  0  0  0  0  0  0  0  0  0
   -0.7500    1.2990    0.0000 C   0  0  0  0  0  0  0  0  0  0  0  0
   -1.5000    0.0000    0.0000 C   0  0  0  0  0  0  0  0  0  0  0  0
   -0.7500   -1.2990    0.0000 C   0  0  0  0  0  0  0  0  0  0  0  0
   -2.9672    0.3119    0.0000 N   0  0  0  0  0  0  0  0  0  0  0  0
   -3.1240    1.8037    0.0000 C   0  0  0  0  0  0  0  0  0  0  0  0
   -4.4231    2.5537    0.0000 N   0  0  0  0  0  0  0  0  0  0  0  0
   -4.4231    4.0537    0.0000 C   0  0  0  0  0  0  0  0  0  0  0  0
   -3.1240    4.8037    0.0000 O   0  0  0  0  0  0  0  0  0  0  0  0
   -5.7221    4.8037    0.0000 C   0  0  0  0  0  0  0  0  0  0  0  0
   -5.7221    6.3037    0.0000 C   0  0  0  0  0  0  0  0  0  0  0  0
   -7.0211    7.0537    0.0000 C   0  0  0  0  0  0  0  0  0  0  0  0
   -8.3202    6.3037    0.0000 C   0  0  0  0  0  0  0  0  0  0  0  0
   -8.3202    4.8037    0.0000 C   0  0  0  0  0  0  0  0  0  0  0  0
   -9.6192    4.0537    0.0000 Br  0  0  0  0  0  0  0  0  0  0  0  0
   -7.0211    4.0537    0.0000 C   0  0  0  0  0  0  0  0  0  0  0  0
   -1.7537    2.4138    0.0000 N   0  0  0  0  0  0  0  0  0  0  0  0
   -1.4418    3.8810    0.0000 C   0  0  0  0  0  0  0  0  0  0  0  0
   -0.0152    4.3445    0.0000 C   0  0  0  0  0  0  0  0  0  0  0  0
    0.2966    5.8117    0.0000 C   0  0  0  0  0  0  0  0  0  0  0  0
    1.7232    6.2752    0.0000 N   0  0  0  0  0  0  0  0  0  0  0  0
   -0.8181    6.8154    0.0000 O   0  0  0  0  0  0  0  0  0  0  0  0
  1  2  1  0
  2  3  1  0
  3  4  2  0
  3  5  1  0
  5  6  1  0
  6  7  1  0
  7  8  1  0
  8  9  1  0
  9 10  1  0
  2 11  1  0
 11 12  2  0
 12 13  1  0
 13 14  2  0
 14 15  1  0
 15 16  2  0
 15 17  1  0
 17 18  2  0
 18 19  1  0
 19 20  1  0
 20 21  2  0
 20 22  1  0
 22 23  2  0
 23 24  1  0
 24 25  2  0
 25 26  1  0
 26 27  1  0
 26 28  2  0
 18 29  1  0
 29 30  1  0
 30 31  1  0
 31 32  1  0
 32 33  1  0
 32 34  2  0
 10  5  1  0
 16 11  1  0
 28 22  1  0
 29 14  1  0
M  END
>  <Compound_ID>  (74) 
CHEMBL483397

>  <Molecule Name>  (74) 
nan

>  <Molecular Weight>  (74) 
526.44

>  <AlogP>  (74) 
4.47

>  <Smiles>  (74) 
CN(C(=O)C1CCCCC1)c1ccc2c(c1)nc(NC(=O)c1cccc(Br)c1)n2CCC(N)=O

>  <Standard Type>  (74) 
IC50

>  <Standard Relation>  (74) 
'='

>  <Standard Units>  (74) 
nM

>  <Standard Value>  (74) 
9.0

>  <Assay ChEMBL ID>  (74) 
CHEMBL992563

>  <Assay Description>  (74) 
Inhibition of ITK by DELFIA assay

>  <BAO Format ID>  (74) 
BAO_0000357

>  <BAO Label>  (74) 
single protein format

>  <Assay Organism>  (74) 
None

>  <Target ChEMBL ID>  (74) 
CHEMBL2959

>  <Target Name>  (74) 
Tyrosine-protein kinase ITK/TSK

>  <Target Organism>  (74) 
Homo sapiens

>  <Target Type>  (74) 
SINGLE PROTEIN

>  <Document ChEMBL ID>  (74) 
CHEMBL1142468

>  <Source Description>  (74) 
Scientific Literature

>  <Document Journal>  (74) 
Bioorg Med Chem Lett

>  <Document Year>  (74) 
2008.0

>  <Active>  (74) 
1.0

$$$$

     RDKit          2D

 39 43  0  0  0  0  0  0  0  0999 V2000
   -9.4612   -4.0396    0.0000 C   0  0  0  0  0  0  0  0  0  0  0  0
   -8.0346   -3.5760    0.0000 N   0  0  0  0  0  0  0  0  0  0  0  0
   -7.7227   -2.1088    0.0000 C   0  0  0  0  0  0  0  0  0  0  0  0
   -6.2961   -1.6453    0.0000 C   0  0  0  0  0  0  0  0  0  0  0  0
   -5.1814   -2.6490    0.0000 N   0  0  0  0  0  0  0  0  0  0  0  0
   -3.7548   -2.1855    0.0000 C   0  0  0  0  0  0  0  0  0  0  0  0
   -2.6401   -3.1891    0.0000 C   0  0  0  0  0  0  0  0  0  0  0  0
   -1.2135   -2.7256    0.0000 N   0  0  0  0  0  0  0  0  0  0  0  0
   -0.0000   -3.6073    0.0000 C   0  0  0  0  0  0  0  0  0  0  0  0
   -0.0000   -5.1073    0.0000 N   0  0  0  0  0  0  0  0  0  0  0  0
   -1.2990   -5.8573    0.0000 C   0  0  0  0  0  0  0  0  0  0  0  0
   -2.5981   -5.1073    0.0000 O   0  0  0  0  0  0  0  0  0  0  0  0
   -1.2990   -7.3573    0.0000 C   0  0  0  0  0  0  0  0  0  0  0  0
   -2.5981   -8.1073    0.0000 C   0  0  0  0  0  0  0  0  0  0  0  0
   -2.5981   -9.6073    0.0000 C   0  0  0  0  0  0  0  0  0  0  0  0
   -1.2990  -10.3573    0.0000 C   0  0  0  0  0  0  0  0  0  0  0  0
   -1.2990  -11.8573    0.0000 C   0  0  0  0  0  0  0  0  0  0  0  0
   -1.2990  -13.3573    0.0000 N   0  0  0  0  0  0  0  0  0  0  0  0
    0.0000   -9.6073    0.0000 C   0  0  0  0  0  0  0  0  0  0  0  0
    0.0000   -8.1073    0.0000 C   0  0  0  0  0  0  0  0  0  0  0  0
    1.2135   -2.7256    0.0000 N   0  0  0  0  0  0  0  0  0  0  0  0
    0.7500   -1.2990    0.0000 C   0  0  0  0  0  0  0  0  0  0  0  0
    1.5000    0.0000    0.0000 C   0  0  0  0  0  0  0  0  0  0  0  0
    0.7500    1.2990    0.0000 C   0  0  0  0  0  0  0  0  0  0  0  0
    1.5000    2.5981    0.0000 N   0  0  0  0  0  0  0  0  0  0  0  0
    3.0000    2.5981    0.0000 C   0  0  0  0  0  0  0  0  0  0  0  0
    0.7500    3.8971    0.0000 C   0  0  0  0  0  0  0  0  0  0  0  0
   -0.7500    3.8971    0.0000 O   0  0  0  0  0  0  0  0  0  0  0  0
    1.5000    5.1962    0.0000 C   0  0  0  0  0  0  0  0  0  0  0  0
    3.0000    5.1962    0.0000 C   0  0  0  0  0  0  0  0  0  0  0  0
    3.7500    6.4952    0.0000 C   0  0  0  0  0  0  0  0  0  0  0  0
    3.0000    7.7942    0.0000 C   0  0  0  0  0  0  0  0  0  0  0  0
    1.5000    7.7942    0.0000 C   0  0  0  0  0  0  0  0  0  0  0  0
    0.7500    6.4952    0.0000 C   0  0  0  0  0  0  0  0  0  0  0  0
   -0.7500    1.2990    0.0000 C   0  0  0  0  0  0  0  0  0  0  0  0
   -1.5000    0.0000    0.0000 C   0  0  0  0  0  0  0  0  0  0  0  0
   -0.7500   -1.2990    0.0000 C   0  0  0  0  0  0  0  0  0  0  0  0
   -5.4933   -4.1162    0.0000 C   0  0  0  0  0  0  0  0  0  0  0  0
   -6.9199   -4.5797    0.0000 C   0  0  0  0  0  0  0  0  0  0  0  0
  1  2  1  0
  2  3  1  0
  3  4  1  0
  4  5  1  0
  5  6  1  0
  6  7  1  0
  7  8  1  0
  8  9  1  0
  9 10  1  0
 10 11  1  0
 11 12  2  0
 11 13  1  0
 13 14  2  0
 14 15  1  0
 15 16  2  0
 16 17  1  0
 17 18  3  0
 16 19  1  0
 19 20  2  0
  9 21  2  0
 21 22  1  0
 22 23  2  0
 23 24  1  0
 24 25  1  0
 25 26  1  0
 25 27  1  0
 27 28  2  0
 27 29  1  0
 29 30  1  0
 30 31  1  0
 31 32  1  0
 32 33  1  0
 33 34  1  0
 24 35  2  0
 35 36  1  0
 36 37  2  0
  5 38  1  0
 38 39  1  0
 39  2  1  0
 37  8  1  0
 20 13  1  0
 37 22  1  0
 34 29  1  0
M  END
>  <Compound_ID>  (75) 
CHEMBL490872

>  <Molecule Name>  (75) 
nan

>  <Molecular Weight>  (75) 
527.67

>  <AlogP>  (75) 
3.95

>  <Smiles>  (75) 
CN1CCN(CCn2c(NC(=O)c3ccc(C#N)cc3)nc3cc(N(C)C(=O)C4CCCCC4)ccc32)CC1

>  <Standard Type>  (75) 
IC50

>  <Standard Relation>  (75) 
'='

>  <Standard Units>  (75) 
nM

>  <Standard Value>  (75) 
61.0

>  <Assay ChEMBL ID>  (75) 
CHEMBL992563

>  <Assay Description>  (75) 
Inhibition of ITK by DELFIA assay

>  <BAO Format ID>  (75) 
BAO_0000357

>  <BAO Label>  (75) 
single protein format

>  <Assay Organism>  (75) 
None

>  <Target ChEMBL ID>  (75) 
CHEMBL2959

>  <Target Name>  (75) 
Tyrosine-protein kinase ITK/TSK

>  <Target Organism>  (75) 
Homo sapiens

>  <Target Type>  (75) 
SINGLE PROTEIN

>  <Document ChEMBL ID>  (75) 
CHEMBL1142468

>  <Source Description>  (75) 
Scientific Literature

>  <Document Journal>  (75) 
Bioorg Med Chem Lett

>  <Document Year>  (75) 
2008.0

>  <Active>  (75) 
1.0

$$$$

     RDKit          2D

 36 39  0  0  0  0  0  0  0  0999 V2000
    0.7500   -3.8971    0.0000 C   0  0  0  0  0  0  0  0  0  0  0  0
    1.5000   -2.5981    0.0000 N   0  0  0  0  0  0  0  0  0  0  0  0
    3.0000   -2.5981    0.0000 C   0  0  0  0  0  0  0  0  0  0  0  0
    3.7500   -1.2990    0.0000 O   0  0  0  0  0  0  0  0  0  0  0  0
    3.7500   -3.8971    0.0000 C   0  0  0  0  0  0  0  0  0  0  0  0
    3.0000   -5.1962    0.0000 C   0  0  0  0  0  0  0  0  0  0  0  0
    3.7500   -6.4952    0.0000 C   0  0  0  0  0  0  0  0  0  0  0  0
    5.2500   -6.4952    0.0000 C   0  0  0  0  0  0  0  0  0  0  0  0
    6.0000   -7.7942    0.0000 Cl  0  0  0  0  0  0  0  0  0  0  0  0
    6.0000   -5.1962    0.0000 C   0  0  0  0  0  0  0  0  0  0  0  0
    5.2500   -3.8971    0.0000 C   0  0  0  0  0  0  0  0  0  0  0  0
    0.7500   -1.2990    0.0000 C   0  0  0  0  0  0  0  0  0  0  0  0
    1.5000    0.0000    0.0000 C   0  0  0  0  0  0  0  0  0  0  0  0
    0.7500    1.2990    0.0000 C   0  0  0  0  0  0  0  0  0  0  0  0
   -0.7500    1.2990    0.0000 C   0  0  0  0  0  0  0  0  0  0  0  0
   -1.5000    0.0000    0.0000 C   0  0  0  0  0  0  0  0  0  0  0  0
   -0.7500   -1.2990    0.0000 C   0  0  0  0  0  0  0  0  0  0  0  0
   -2.9672    0.3119    0.0000 N   0  0  0  0  0  0  0  0  0  0  0  0
   -3.1240    1.8037    0.0000 C   0  0  0  0  0  0  0  0  0  0  0  0
   -4.4231    2.5537    0.0000 N   0  0  0  0  0  0  0  0  0  0  0  0
   -4.4231    4.0537    0.0000 C   0  0  0  0  0  0  0  0  0  0  0  0
   -3.1240    4.8037    0.0000 O   0  0  0  0  0  0  0  0  0  0  0  0
   -5.7221    4.8037    0.0000 C   0  0  0  0  0  0  0  0  0  0  0  0
   -5.7221    6.3037    0.0000 C   0  0  0  0  0  0  0  0  0  0  0  0
   -7.0211    7.0537    0.0000 C   0  0  0  0  0  0  0  0  0  0  0  0
   -8.3202    6.3037    0.0000 C   0  0  0  0  0  0  0  0  0  0  0  0
   -9.6192    7.0537    0.0000 C   0  0  0  0  0  0  0  0  0  0  0  0
  -10.9182    7.8037    0.0000 N   0  0  0  0  0  0  0  0  0  0  0  0
   -8.3202    4.8037    0.0000 C   0  0  0  0  0  0  0  0  0  0  0  0
   -7.0211    4.0537    0.0000 C   0  0  0  0  0  0  0  0  0  0  0  0
   -1.7537    2.4138    0.0000 N   0  0  0  0  0  0  0  0  0  0  0  0
   -1.4418    3.8810    0.0000 C   0  0  0  0  0  0  0  0  0  0  0  0
   -0.0152    4.3445    0.0000 C   0  0  0  0  0  0  0  0  0  0  0  0
    0.2966    5.8117    0.0000 C   0  0  0  0  0  0  0  0  0  0  0  0
    1.7232    6.2752    0.0000 N   0  0  0  0  0  0  0  0  0  0  0  0
   -0.8181    6.8154    0.0000 O   0  0  0  0  0  0  0  0  0  0  0  0
  1  2  1  0
  2  3  1  0
  3  4  2  0
  3  5  1  0
  5  6  2  0
  6  7  1  0
  7  8  2  0
  8  9  1  0
  8 10  1  0
 10 11  2  0
  2 12  1  0
 12 13  2  0
 13 14  1  0
 14 15  2  0
 15 16  1  0
 16 17  2  0
 16 18  1  0
 18 19  2  0
 19 20  1  0
 20 21  1  0
 21 22  2  0
 21 23  1  0
 23 24  2  0
 24 25  1  0
 25 26  2  0
 26 27  1  0
 27 28  3  0
 26 29  1  0
 29 30  2  0
 19 31  1  0
 31 32  1  0
 32 33  1  0
 33 34  1  0
 34 35  1  0
 34 36  2  0
 11  5  1  0
 17 12  1  0
 30 23  1  0
 31 15  1  0
M  END
>  <Compound_ID>  (76) 
CHEMBL484766

>  <Molecule Name>  (76) 
nan

>  <Molecular Weight>  (76) 
500.95

>  <AlogP>  (76) 
3.97

>  <Smiles>  (76) 
CN(C(=O)c1ccc(Cl)cc1)c1ccc2c(c1)nc(NC(=O)c1ccc(C#N)cc1)n2CCC(N)=O

>  <Standard Type>  (76) 
IC50

>  <Standard Relation>  (76) 
'='

>  <Standard Units>  (76) 
nM

>  <Standard Value>  (76) 
12.0

>  <Assay ChEMBL ID>  (76) 
CHEMBL992543

>  <Assay Description>  (76) 
Inhibition of recombinant ITK by DELFIA assay

>  <BAO Format ID>  (76) 
BAO_0000357

>  <BAO Label>  (76) 
single protein format

>  <Assay Organism>  (76) 
None

>  <Target ChEMBL ID>  (76) 
CHEMBL2959

>  <Target Name>  (76) 
Tyrosine-protein kinase ITK/TSK

>  <Target Organism>  (76) 
Homo sapiens

>  <Target Type>  (76) 
SINGLE PROTEIN

>  <Document ChEMBL ID>  (76) 
CHEMBL1142466

>  <Source Description>  (76) 
Scientific Literature

>  <Document Journal>  (76) 
Bioorg Med Chem Lett

>  <Document Year>  (76) 
2008.0

>  <Active>  (76) 
1.0

$$$$

     RDKit          2D

 33 36  0  0  0  0  0  0  0  0999 V2000
    3.7500   -1.2990    0.0000 C   0  0  0  0  0  0  0  0  0  0  0  0
    3.0000    0.0000    0.0000 C   0  0  0  0  0  0  0  0  0  0  0  0
    3.7500    1.2990    0.0000 O   0  0  0  0  0  0  0  0  0  0  0  0
    1.5000    0.0000    0.0000 N   0  0  0  0  0  0  0  0  0  0  0  0
    0.7500   -1.2990    0.0000 C   0  0  0  0  0  0  0  0  0  0  0  0
   -0.7500   -1.2990    0.0000 C   0  0  0  0  0  0  0  0  0  0  0  0
   -1.5000    0.0000    0.0000 N   0  0  0  0  0  0  0  0  0  0  0  0
   -3.0000    0.0000    0.0000 C   0  0  0  0  0  0  0  0  0  0  0  0
   -3.7500   -1.2990    0.0000 O   0  0  0  0  0  0  0  0  0  0  0  0
   -3.7500    1.2990    0.0000 C   0  0  0  0  0  0  0  0  0  0  0  0
   -3.0000    2.5981    0.0000 C   0  0  0  0  0  0  0  0  0  0  0  0
   -3.7500    3.8971    0.0000 C   0  0  0  0  0  0  0  0  0  0  0  0
   -3.0000    5.1962    0.0000 S   0  0  0  0  0  0  0  0  0  0  0  0
   -1.5000    5.1962    0.0000 C   0  0  0  0  0  0  0  0  0  0  0  0
   -0.6183    6.4097    0.0000 C   0  0  0  0  0  0  0  0  0  0  0  0
    0.8083    5.9462    0.0000 N   0  0  0  0  0  0  0  0  0  0  0  0
    0.8083    4.4462    0.0000 C   0  0  0  0  0  0  0  0  0  0  0  0
    2.0218    3.5645    0.0000 N   0  0  0  0  0  0  0  0  0  0  0  0
    3.3921    4.1746    0.0000 C   0  0  0  0  0  0  0  0  0  0  0  0
    4.6056    3.2929    0.0000 C   0  0  0  0  0  0  0  0  0  0  0  0
    5.9760    3.9030    0.0000 C   0  0  0  0  0  0  0  0  0  0  0  0
    7.1895    3.0213    0.0000 C   0  0  0  0  0  0  0  0  0  0  0  0
    6.1327    5.3948    0.0000 C   0  0  0  0  0  0  0  0  0  0  0  0
    4.9192    6.2765    0.0000 C   0  0  0  0  0  0  0  0  0  0  0  0
    5.0760    7.7683    0.0000 C   0  0  0  0  0  0  0  0  0  0  0  0
    3.5489    5.6664    0.0000 N   0  0  0  0  0  0  0  0  0  0  0  0
   -0.6183    3.9826    0.0000 S   0  0  0  0  0  0  0  0  0  0  0  0
   -5.2500    3.8971    0.0000 C   0  0  0  0  0  0  0  0  0  0  0  0
   -6.0000    2.5981    0.0000 C   0  0  0  0  0  0  0  0  0  0  0  0
   -5.2500    1.2990    0.0000 C   0  0  0  0  0  0  0  0  0  0  0  0
   -6.0000    0.0000    0.0000 O   0  0  0  0  0  0  0  0  0  0  0  0
   -0.7500    1.2990    0.0000 C   0  0  0  0  0  0  0  0  0  0  0  0
    0.7500    1.2990    0.0000 C   0  0  0  0  0  0  0  0  0  0  0  0
  1  2  1  0
  2  3  2  0
  2  4  1  0
  4  5  1  0
  5  6  1  0
  6  7  1  0
  7  8  1  0
  8  9  2  0
  8 10  1  0
 10 11  2  0
 11 12  1  0
 12 13  1  0
 13 14  1  0
 14 15  2  0
 15 16  1  0
 16 17  2  0
 17 18  1  0
 18 19  1  0
 19 20  2  0
 20 21  1  0
 21 22  1  0
 21 23  2  0
 23 24  1  0
 24 25  1  0
 24 26  2  0
 17 27  1  0
 12 28  2  0
 28 29  1  0
 29 30  2  0
 30 31  1  0
  7 32  1  0
 32 33  1  0
 33  4  1  0
 30 10  1  0
 27 14  1  0
 26 19  1  0
M  END
>  <Compound_ID>  (77) 
CHEMBL379478

>  <Molecule Name>  (77) 
nan

>  <Molecular Weight>  (77) 
483.62

>  <AlogP>  (77) 
4.06

>  <Smiles>  (77) 
CC(=O)N1CCN(C(=O)c2cc(Sc3cnc(Nc4cc(C)cc(C)n4)s3)ccc2O)CC1

>  <Standard Type>  (77) 
IC50

>  <Standard Relation>  (77) 
'='

>  <Standard Units>  (77) 
nM

>  <Standard Value>  (77) 
7.0

>  <Assay ChEMBL ID>  (77) 
CHEMBL864159

>  <Assay Description>  (77) 
Inhibition of Itk

>  <BAO Format ID>  (77) 
BAO_0000357

>  <BAO Label>  (77) 
single protein format

>  <Assay Organism>  (77) 
Homo sapiens

>  <Target ChEMBL ID>  (77) 
CHEMBL2959

>  <Target Name>  (77) 
Tyrosine-protein kinase ITK/TSK

>  <Target Organism>  (77) 
Homo sapiens

>  <Target Type>  (77) 
SINGLE PROTEIN

>  <Document ChEMBL ID>  (77) 
CHEMBL1138957

>  <Source Description>  (77) 
Scientific Literature

>  <Document Journal>  (77) 
Bioorg Med Chem Lett

>  <Document Year>  (77) 
2006.0

>  <Active>  (77) 
1.0

$$$$

     RDKit          2D

 29 32  0  0  0  0  0  0  0  0999 V2000
    8.2500   -6.4952    0.0000 C   0  0  0  0  0  0  0  0  0  0  0  0
    7.5000   -5.1962    0.0000 C   0  0  0  0  0  0  0  0  0  0  0  0
    6.0000   -5.1962    0.0000 C   0  0  0  0  0  0  0  0  0  0  0  0
    5.2500   -6.4952    0.0000 O   0  0  0  0  0  0  0  0  0  0  0  0
    5.2500   -3.8971    0.0000 N   0  0  0  0  0  0  0  0  0  0  0  0
    3.7500   -3.8971    0.0000 C   0  0  0  0  0  0  0  0  0  0  0  0
    3.0000   -5.1962    0.0000 C   0  0  0  0  0  0  0  0  0  0  0  0
    1.5000   -5.1962    0.0000 C   0  0  0  0  0  0  0  0  0  0  0  0
    0.7500   -3.8971    0.0000 C   0  0  0  0  0  0  0  0  0  0  0  0
    1.5000   -2.5981    0.0000 C   0  0  0  0  0  0  0  0  0  0  0  0
    0.7500   -1.2990    0.0000 C   0  0  0  0  0  0  0  0  0  0  0  0
    1.5000    0.0000    0.0000 C   0  0  0  0  0  0  0  0  0  0  0  0
    0.7500    1.2990    0.0000 N   0  0  0  0  0  0  0  0  0  0  0  0
   -0.7500    1.2990    0.0000 C   0  0  0  0  0  0  0  0  0  0  0  0
   -1.7537    2.4138    0.0000 N   0  0  0  0  0  0  0  0  0  0  0  0
   -3.1240    1.8037    0.0000 C   0  0  0  0  0  0  0  0  0  0  0  0
   -2.9672    0.3119    0.0000 C   0  0  0  0  0  0  0  0  0  0  0  0
   -4.0819   -0.6918    0.0000 C   0  0  0  0  0  0  0  0  0  0  0  0
   -5.5085   -0.2283    0.0000 C   0  0  0  0  0  0  0  0  0  0  0  0
   -6.6232   -1.2320    0.0000 C   0  0  0  0  0  0  0  0  0  0  0  0
   -6.3114   -2.6992    0.0000 C   0  0  0  0  0  0  0  0  0  0  0  0
   -4.8848   -3.1627    0.0000 C   0  0  0  0  0  0  0  0  0  0  0  0
   -4.5729   -4.6300    0.0000 F   0  0  0  0  0  0  0  0  0  0  0  0
   -3.7701   -2.1590    0.0000 C   0  0  0  0  0  0  0  0  0  0  0  0
   -2.3435   -2.6226    0.0000 O   0  0  0  0  0  0  0  0  0  0  0  0
   -2.0316   -4.0898    0.0000 C   0  0  0  0  0  0  0  0  0  0  0  0
   -1.5000    0.0000    0.0000 C   0  0  0  0  0  0  0  0  0  0  0  0
   -0.7500   -1.2990    0.0000 C   0  0  0  0  0  0  0  0  0  0  0  0
    3.0000   -2.5981    0.0000 C   0  0  0  0  0  0  0  0  0  0  0  0
  1  2  2  0
  2  3  1  0
  3  4  2  0
  3  5  1  0
  5  6  1  0
  6  7  2  0
  7  8  1  0
  8  9  2  0
  9 10  1  0
 10 11  1  0
 11 12  2  0
 12 13  1  0
 13 14  2  0
 14 15  1  0
 15 16  1  0
 16 17  2  0
 17 18  1  0
 18 19  2  0
 19 20  1  0
 20 21  2  0
 21 22  1  0
 22 23  1  0
 22 24  2  0
 24 25  1  0
 25 26  1  0
 17 27  1  0
 27 28  2  0
 10 29  2  0
 29  6  1  0
 28 11  1  0
 27 14  1  0
 24 18  1  0
M  END
>  <Compound_ID>  (78) 
CHEMBL3939895

>  <Molecule Name>  (78) 
nan

>  <Molecular Weight>  (78) 
387.41

>  <AlogP>  (78) 
5.17

>  <Smiles>  (78) 
C=CC(=O)Nc1cccc(-c2cnc3[nH]cc(-c4cccc(F)c4OC)c3c2)c1

>  <Standard Type>  (78) 
IC50

>  <Standard Relation>  (78) 
'='

>  <Standard Units>  (78) 
nM

>  <Standard Value>  (78) 
35.0

>  <Assay ChEMBL ID>  (78) 
CHEMBL3887687

>  <Assay Description>  (78) 
Biochemical Inhibition Assay: 1H-pyrrolo[2,3-b]pyridine, 1H-pyrazolo[3,4-b]pyridine and 5H-pyrrolo[2,3-b]pyrazine series of compounds exhibited over >100 fold selective against Janus and TEC family of kinases except for the BMX and TXK it had activity of 30 and 45 nM respectively.

>  <BAO Format ID>  (78) 
BAO_0000357

>  <BAO Label>  (78) 
single protein format

>  <Assay Organism>  (78) 
Homo sapiens

>  <Target ChEMBL ID>  (78) 
CHEMBL2959

>  <Target Name>  (78) 
Tyrosine-protein kinase ITK/TSK

>  <Target Organism>  (78) 
Homo sapiens

>  <Target Type>  (78) 
SINGLE PROTEIN

>  <Document ChEMBL ID>  (78) 
CHEMBL3886406

>  <Source Description>  (78) 
BindingDB Database

>  <Document Journal>  (78) 
nan

>  <Document Year>  (78) 
2015.0

>  <Active>  (78) 
1.0

$$$$

     RDKit          2D

 34 37  0  0  0  0  0  0  0  0999 V2000
    8.2500   -6.4952    0.0000 C   0  0  0  0  0  0  0  0  0  0  0  0
    7.5000   -5.1962    0.0000 C   0  0  0  0  0  0  0  0  0  0  0  0
    6.0000   -5.1962    0.0000 C   0  0  0  0  0  0  0  0  0  0  0  0
    5.2500   -6.4952    0.0000 O   0  0  0  0  0  0  0  0  0  0  0  0
    5.2500   -3.8971    0.0000 N   0  0  0  0  0  0  0  0  0  0  0  0
    3.7500   -3.8971    0.0000 C   0  0  0  0  0  0  0  0  0  0  0  0
    3.0000   -5.1962    0.0000 C   0  0  0  0  0  0  0  0  0  0  0  0
    1.5000   -5.1962    0.0000 C   0  0  0  0  0  0  0  0  0  0  0  0
    0.7500   -3.8971    0.0000 C   0  0  0  0  0  0  0  0  0  0  0  0
    1.5000   -2.5981    0.0000 C   0  0  0  0  0  0  0  0  0  0  0  0
    0.7500   -1.2990    0.0000 C   0  0  0  0  0  0  0  0  0  0  0  0
    1.5000    0.0000    0.0000 C   0  0  0  0  0  0  0  0  0  0  0  0
    0.7500    1.2990    0.0000 N   0  0  0  0  0  0  0  0  0  0  0  0
   -0.7500    1.2990    0.0000 C   0  0  0  0  0  0  0  0  0  0  0  0
   -1.7537    2.4138    0.0000 N   0  0  0  0  0  0  0  0  0  0  0  0
   -3.1240    1.8037    0.0000 C   0  0  0  0  0  0  0  0  0  0  0  0
   -2.9672    0.3119    0.0000 C   0  0  0  0  0  0  0  0  0  0  0  0
   -4.0819   -0.6918    0.0000 C   0  0  0  0  0  0  0  0  0  0  0  0
   -5.5085   -0.2283    0.0000 C   0  0  0  0  0  0  0  0  0  0  0  0
   -6.6232   -1.2320    0.0000 C   0  0  0  0  0  0  0  0  0  0  0  0
   -6.3114   -2.6992    0.0000 C   0  0  0  0  0  0  0  0  0  0  0  0
   -4.8848   -3.1627    0.0000 C   0  0  0  0  0  0  0  0  0  0  0  0
   -4.5729   -4.6300    0.0000 S   0  0  0  0  0  0  0  0  0  0  0  0
   -6.0401   -4.9418    0.0000 O   0  0  0  0  0  0  0  0  0  0  0  0
   -3.1057   -4.3181    0.0000 O   0  0  0  0  0  0  0  0  0  0  0  0
   -4.2611   -6.0972    0.0000 N   0  0  0  0  0  0  0  0  0  0  0  0
   -2.8345   -6.5607    0.0000 C   0  0  0  0  0  0  0  0  0  0  0  0
   -2.5226   -8.0279    0.0000 C   0  0  0  0  0  0  0  0  0  0  0  0
   -5.3758   -7.1009    0.0000 C   0  0  0  0  0  0  0  0  0  0  0  0
   -5.0639   -8.5681    0.0000 C   0  0  0  0  0  0  0  0  0  0  0  0
   -3.7701   -2.1590    0.0000 C   0  0  0  0  0  0  0  0  0  0  0  0
   -1.5000    0.0000    0.0000 C   0  0  0  0  0  0  0  0  0  0  0  0
   -0.7500   -1.2990    0.0000 C   0  0  0  0  0  0  0  0  0  0  0  0
    3.0000   -2.5981    0.0000 C   0  0  0  0  0  0  0  0  0  0  0  0
  1  2  2  0
  2  3  1  0
  3  4  2  0
  3  5  1  0
  5  6  1  0
  6  7  2  0
  7  8  1  0
  8  9  2  0
  9 10  1  0
 10 11  1  0
 11 12  2  0
 12 13  1  0
 13 14  2  0
 14 15  1  0
 15 16  1  0
 16 17  2  0
 17 18  1  0
 18 19  2  0
 19 20  1  0
 20 21  2  0
 21 22  1  0
 22 23  1  0
 23 24  2  0
 23 25  2  0
 23 26  1  0
 26 27  1  0
 27 28  1  0
 26 29  1  0
 29 30  1  0
 22 31  2  0
 17 32  1  0
 32 33  2  0
 10 34  2  0
 34  6  1  0
 33 11  1  0
 32 14  1  0
 31 18  1  0
M  END
>  <Compound_ID>  (79) 
CHEMBL3948653

>  <Molecule Name>  (79) 
nan

>  <Molecular Weight>  (79) 
474.59

>  <AlogP>  (79) 
5.05

>  <Smiles>  (79) 
C=CC(=O)Nc1cccc(-c2cnc3[nH]cc(-c4cccc(S(=O)(=O)N(CC)CC)c4)c3c2)c1

>  <Standard Type>  (79) 
IC50

>  <Standard Relation>  (79) 
'='

>  <Standard Units>  (79) 
nM

>  <Standard Value>  (79) 
35.0

>  <Assay ChEMBL ID>  (79) 
CHEMBL3887687

>  <Assay Description>  (79) 
Biochemical Inhibition Assay: 1H-pyrrolo[2,3-b]pyridine, 1H-pyrazolo[3,4-b]pyridine and 5H-pyrrolo[2,3-b]pyrazine series of compounds exhibited over >100 fold selective against Janus and TEC family of kinases except for the BMX and TXK it had activity of 30 and 45 nM respectively.

>  <BAO Format ID>  (79) 
BAO_0000357

>  <BAO Label>  (79) 
single protein format

>  <Assay Organism>  (79) 
Homo sapiens

>  <Target ChEMBL ID>  (79) 
CHEMBL2959

>  <Target Name>  (79) 
Tyrosine-protein kinase ITK/TSK

>  <Target Organism>  (79) 
Homo sapiens

>  <Target Type>  (79) 
SINGLE PROTEIN

>  <Document ChEMBL ID>  (79) 
CHEMBL3886406

>  <Source Description>  (79) 
BindingDB Database

>  <Document Journal>  (79) 
nan

>  <Document Year>  (79) 
2015.0

>  <Active>  (79) 
1.0

$$$$

     RDKit          2D

 21 23  0  0  0  0  0  0  0  0999 V2000
    9.0000   -5.1962    0.0000 C   0  0  0  0  0  0  0  0  0  0  0  0
    7.5000   -5.1962    0.0000 C   0  0  0  0  0  0  0  0  0  0  0  0
    6.0000   -5.1962    0.0000 C   0  0  0  0  0  0  0  0  0  0  0  0
    5.2500   -6.4952    0.0000 O   0  0  0  0  0  0  0  0  0  0  0  0
    5.2500   -3.8971    0.0000 N   0  0  0  0  0  0  0  0  0  0  0  0
    3.7500   -3.8971    0.0000 C   0  0  0  0  0  0  0  0  0  0  0  0
    3.0000   -5.1962    0.0000 C   0  0  0  0  0  0  0  0  0  0  0  0
    1.5000   -5.1962    0.0000 C   0  0  0  0  0  0  0  0  0  0  0  0
    0.7500   -3.8971    0.0000 C   0  0  0  0  0  0  0  0  0  0  0  0
    1.5000   -2.5981    0.0000 C   0  0  0  0  0  0  0  0  0  0  0  0
    0.7500   -1.2990    0.0000 C   0  0  0  0  0  0  0  0  0  0  0  0
    1.5000    0.0000    0.0000 C   0  0  0  0  0  0  0  0  0  0  0  0
    0.7500    1.2990    0.0000 N   0  0  0  0  0  0  0  0  0  0  0  0
   -0.7500    1.2990    0.0000 C   0  0  0  0  0  0  0  0  0  0  0  0
   -1.7537    2.4138    0.0000 N   0  0  0  0  0  0  0  0  0  0  0  0
   -3.1240    1.8037    0.0000 C   0  0  0  0  0  0  0  0  0  0  0  0
   -2.9672    0.3119    0.0000 C   0  0  0  0  0  0  0  0  0  0  0  0
   -4.0819   -0.6918    0.0000 C   0  0  0  0  0  0  0  0  0  0  0  0
   -1.5000    0.0000    0.0000 C   0  0  0  0  0  0  0  0  0  0  0  0
   -0.7500   -1.2990    0.0000 C   0  0  0  0  0  0  0  0  0  0  0  0
    3.0000   -2.5981    0.0000 N   0  0  0  0  0  0  0  0  0  0  0  0
  1  2  3  0
  2  3  1  0
  3  4  2  0
  3  5  1  0
  5  6  1  0
  6  7  2  0
  7  8  1  0
  8  9  2  0
  9 10  1  0
 10 11  1  0
 11 12  2  0
 12 13  1  0
 13 14  2  0
 14 15  1  0
 15 16  1  0
 16 17  2  0
 17 18  1  0
 17 19  1  0
 19 20  2  0
 10 21  2  0
 21  6  1  0
 20 11  1  0
 19 14  1  0
M  END
>  <Compound_ID>  (80) 
CHEMBL3958612

>  <Molecule Name>  (80) 
nan

>  <Molecular Weight>  (80) 
276.3

>  <AlogP>  (80) 
2.51

>  <Smiles>  (80) 
C#CC(=O)Nc1cccc(-c2cnc3[nH]cc(C)c3c2)n1

>  <Standard Type>  (80) 
IC50

>  <Standard Relation>  (80) 
'='

>  <Standard Units>  (80) 
nM

>  <Standard Value>  (80) 
30.0

>  <Assay ChEMBL ID>  (80) 
CHEMBL3887687

>  <Assay Description>  (80) 
Biochemical Inhibition Assay: 1H-pyrrolo[2,3-b]pyridine, 1H-pyrazolo[3,4-b]pyridine and 5H-pyrrolo[2,3-b]pyrazine series of compounds exhibited over >100 fold selective against Janus and TEC family of kinases except for the BMX and TXK it had activity of 30 and 45 nM respectively.

>  <BAO Format ID>  (80) 
BAO_0000357

>  <BAO Label>  (80) 
single protein format

>  <Assay Organism>  (80) 
Homo sapiens

>  <Target ChEMBL ID>  (80) 
CHEMBL2959

>  <Target Name>  (80) 
Tyrosine-protein kinase ITK/TSK

>  <Target Organism>  (80) 
Homo sapiens

>  <Target Type>  (80) 
SINGLE PROTEIN

>  <Document ChEMBL ID>  (80) 
CHEMBL3886406

>  <Source Description>  (80) 
BindingDB Database

>  <Document Journal>  (80) 
nan

>  <Document Year>  (80) 
2015.0

>  <Active>  (80) 
1.0

$$$$

     RDKit          2D

 33 36  0  0  0  0  0  0  0  0999 V2000
    1.5000   -5.1962    0.0000 C   0  0  0  0  0  0  0  0  0  0  0  0
    0.7500   -3.8971    0.0000 N   0  0  0  0  0  0  0  0  0  0  0  0
    1.5000   -2.5981    0.0000 C   0  0  0  0  0  0  0  0  0  0  0  0
    3.0000   -2.5981    0.0000 O   0  0  0  0  0  0  0  0  0  0  0  0
    0.7500   -1.2990    0.0000 C   0  0  0  0  0  0  0  0  0  0  0  0
    1.5000    0.0000    0.0000 C   0  0  0  0  0  0  0  0  0  0  0  0
    0.7500    1.2990    0.0000 C   0  0  0  0  0  0  0  0  0  0  0  0
   -0.7500    1.2990    0.0000 C   0  0  0  0  0  0  0  0  0  0  0  0
   -1.5000    0.0000    0.0000 C   0  0  0  0  0  0  0  0  0  0  0  0
   -0.7500   -1.2990    0.0000 C   0  0  0  0  0  0  0  0  0  0  0  0
   -2.9672    0.3119    0.0000 N   0  0  0  0  0  0  0  0  0  0  0  0
   -3.1240    1.8037    0.0000 C   0  0  0  0  0  0  0  0  0  0  0  0
   -4.4231    2.5537    0.0000 N   0  0  0  0  0  0  0  0  0  0  0  0
   -4.4231    4.0537    0.0000 C   0  0  0  0  0  0  0  0  0  0  0  0
   -3.1240    4.8037    0.0000 O   0  0  0  0  0  0  0  0  0  0  0  0
   -5.7221    4.8037    0.0000 C   0  0  0  0  0  0  0  0  0  0  0  0
   -5.7221    6.3037    0.0000 C   0  0  0  0  0  0  0  0  0  0  0  0
   -7.0211    7.0537    0.0000 C   0  0  0  0  0  0  0  0  0  0  0  0
   -8.3202    6.3037    0.0000 C   0  0  0  0  0  0  0  0  0  0  0  0
   -8.3202    4.8037    0.0000 N   0  0  0  0  0  0  0  0  0  0  0  0
   -7.0211    4.0537    0.0000 C   0  0  0  0  0  0  0  0  0  0  0  0
   -1.7537    2.4138    0.0000 N   0  0  0  0  0  0  0  0  0  0  0  0
   -1.4418    3.8810    0.0000 C   0  0  0  0  0  0  0  0  0  0  0  0
   -0.0152    4.3445    0.0000 C   0  0  0  0  0  0  0  0  0  0  0  0
    0.2966    5.8117    0.0000 C   0  0  0  0  0  0  0  0  0  0  0  0
    1.7232    6.2752    0.0000 N   0  0  0  0  0  0  0  0  0  0  0  0
   -0.8181    6.8154    0.0000 O   0  0  0  0  0  0  0  0  0  0  0  0
   -0.7500   -3.8971    0.0000 C   0  0  0  0  0  0  0  0  0  0  0  0
   -1.5000   -2.5981    0.0000 C   0  0  0  0  0  0  0  0  0  0  0  0
   -3.0000   -2.5981    0.0000 C   0  0  0  0  0  0  0  0  0  0  0  0
   -3.7500   -3.8971    0.0000 C   0  0  0  0  0  0  0  0  0  0  0  0
   -3.0000   -5.1962    0.0000 C   0  0  0  0  0  0  0  0  0  0  0  0
   -1.5000   -5.1962    0.0000 C   0  0  0  0  0  0  0  0  0  0  0  0
  1  2  1  0
  2  3  1  0
  3  4  2  0
  3  5  1  0
  5  6  2  0
  6  7  1  0
  7  8  2  0
  8  9  1  0
  9 10  2  0
  9 11  1  0
 11 12  2  0
 12 13  1  0
 13 14  1  0
 14 15  2  0
 14 16  1  0
 16 17  2  0
 17 18  1  0
 18 19  2  0
 19 20  1  0
 20 21  2  0
 12 22  1  0
 22 23  1  0
 23 24  1  0
 24 25  1  0
 25 26  1  0
 25 27  2  0
  2 28  1  0
 28 29  1  0
 29 30  1  0
 30 31  1  0
 31 32  1  0
 32 33  1  0
 10  5  1  0
 21 16  1  0
 33 28  1  0
 22  8  1  0
M  END
>  <Compound_ID>  (81) 
CHEMBL231958

>  <Molecule Name>  (81) 
nan

>  <Molecular Weight>  (81) 
448.53

>  <AlogP>  (81) 
2.96

>  <Smiles>  (81) 
CN(C(=O)c1ccc2c(c1)nc(NC(=O)c1cccnc1)n2CCC(N)=O)C1CCCCC1

>  <Standard Type>  (81) 
IC50

>  <Standard Relation>  (81) 
'='

>  <Standard Units>  (81) 
nM

>  <Standard Value>  (81) 
69.0

>  <Assay ChEMBL ID>  (81) 
CHEMBL896373

>  <Assay Description>  (81) 
Inhibition of human ITK by DELFIA assay

>  <BAO Format ID>  (81) 
BAO_0000357

>  <BAO Label>  (81) 
single protein format

>  <Assay Organism>  (81) 
Homo sapiens

>  <Target ChEMBL ID>  (81) 
CHEMBL2959

>  <Target Name>  (81) 
Tyrosine-protein kinase ITK/TSK

>  <Target Organism>  (81) 
Homo sapiens

>  <Target Type>  (81) 
SINGLE PROTEIN

>  <Document ChEMBL ID>  (81) 
CHEMBL1148883

>  <Source Description>  (81) 
Scientific Literature

>  <Document Journal>  (81) 
Bioorg Med Chem Lett

>  <Document Year>  (81) 
2007.0

>  <Active>  (81) 
1.0

$$$$

     RDKit          2D

 34 37  0  0  0  0  0  0  0  0999 V2000
    1.5000   -5.1962    0.0000 C   0  0  0  0  0  0  0  0  0  0  0  0
    0.7500   -3.8971    0.0000 N   0  0  0  0  0  0  0  0  0  0  0  0
    1.5000   -2.5981    0.0000 C   0  0  0  0  0  0  0  0  0  0  0  0
    3.0000   -2.5981    0.0000 O   0  0  0  0  0  0  0  0  0  0  0  0
    0.7500   -1.2990    0.0000 C   0  0  0  0  0  0  0  0  0  0  0  0
    1.5000    0.0000    0.0000 C   0  0  0  0  0  0  0  0  0  0  0  0
    0.7500    1.2990    0.0000 C   0  0  0  0  0  0  0  0  0  0  0  0
   -0.7500    1.2990    0.0000 C   0  0  0  0  0  0  0  0  0  0  0  0
   -1.5000    0.0000    0.0000 C   0  0  0  0  0  0  0  0  0  0  0  0
   -0.7500   -1.2990    0.0000 C   0  0  0  0  0  0  0  0  0  0  0  0
   -2.9672    0.3119    0.0000 N   0  0  0  0  0  0  0  0  0  0  0  0
   -3.1240    1.8037    0.0000 C   0  0  0  0  0  0  0  0  0  0  0  0
   -4.4231    2.5537    0.0000 N   0  0  0  0  0  0  0  0  0  0  0  0
   -4.4231    4.0537    0.0000 C   0  0  0  0  0  0  0  0  0  0  0  0
   -3.1240    4.8037    0.0000 O   0  0  0  0  0  0  0  0  0  0  0  0
   -5.7221    4.8037    0.0000 C   0  0  0  0  0  0  0  0  0  0  0  0
   -7.0924    4.1935    0.0000 C   0  0  0  0  0  0  0  0  0  0  0  0
   -8.0961    5.3083    0.0000 C   0  0  0  0  0  0  0  0  0  0  0  0
   -7.3461    6.6073    0.0000 C   0  0  0  0  0  0  0  0  0  0  0  0
   -5.8789    6.2954    0.0000 S   0  0  0  0  0  0  0  0  0  0  0  0
   -1.7537    2.4138    0.0000 N   0  0  0  0  0  0  0  0  0  0  0  0
   -1.4418    3.8810    0.0000 C   0  0  0  0  0  0  0  0  0  0  0  0
   -0.0152    4.3445    0.0000 C   0  0  0  0  0  0  0  0  0  0  0  0
    0.2966    5.8117    0.0000 C   0  0  0  0  0  0  0  0  0  0  0  0
    1.7232    6.2752    0.0000 C   0  0  0  0  0  0  0  0  0  0  0  0
    2.0351    7.7425    0.0000 C   0  0  0  0  0  0  0  0  0  0  0  0
    3.4617    8.2060    0.0000 N   0  0  0  0  0  0  0  0  0  0  0  0
    0.9204    8.7462    0.0000 O   0  0  0  0  0  0  0  0  0  0  0  0
   -0.7500   -3.8971    0.0000 C   0  0  0  0  0  0  0  0  0  0  0  0
   -1.5000   -2.5981    0.0000 C   0  0  0  0  0  0  0  0  0  0  0  0
   -3.0000   -2.5981    0.0000 C   0  0  0  0  0  0  0  0  0  0  0  0
   -3.7500   -3.8971    0.0000 C   0  0  0  0  0  0  0  0  0  0  0  0
   -3.0000   -5.1962    0.0000 C   0  0  0  0  0  0  0  0  0  0  0  0
   -1.5000   -5.1962    0.0000 C   0  0  0  0  0  0  0  0  0  0  0  0
  1  2  1  0
  2  3  1  0
  3  4  2  0
  3  5  1  0
  5  6  2  0
  6  7  1  0
  7  8  2  0
  8  9  1  0
  9 10  2  0
  9 11  1  0
 11 12  2  0
 12 13  1  0
 13 14  1  0
 14 15  2  0
 14 16  1  0
 16 17  2  0
 17 18  1  0
 18 19  2  0
 19 20  1  0
 12 21  1  0
 21 22  1  0
 22 23  1  0
 23 24  1  0
 24 25  1  0
 25 26  1  0
 26 27  1  0
 26 28  2  0
  2 29  1  0
 29 30  1  0
 30 31  1  0
 31 32  1  0
 32 33  1  0
 33 34  1  0
 10  5  1  0
 20 16  1  0
 34 29  1  0
 21  8  1  0
M  END
>  <Compound_ID>  (82) 
CHEMBL232769

>  <Molecule Name>  (82) 
nan

>  <Molecular Weight>  (82) 
481.62

>  <AlogP>  (82) 
4.41

>  <Smiles>  (82) 
CN(C(=O)c1ccc2c(c1)nc(NC(=O)c1cccs1)n2CCCCC(N)=O)C1CCCCC1

>  <Standard Type>  (82) 
IC50

>  <Standard Relation>  (82) 
'='

>  <Standard Units>  (82) 
nM

>  <Standard Value>  (82) 
60.0

>  <Assay ChEMBL ID>  (82) 
CHEMBL896373

>  <Assay Description>  (82) 
Inhibition of human ITK by DELFIA assay

>  <BAO Format ID>  (82) 
BAO_0000357

>  <BAO Label>  (82) 
single protein format

>  <Assay Organism>  (82) 
Homo sapiens

>  <Target ChEMBL ID>  (82) 
CHEMBL2959

>  <Target Name>  (82) 
Tyrosine-protein kinase ITK/TSK

>  <Target Organism>  (82) 
Homo sapiens

>  <Target Type>  (82) 
SINGLE PROTEIN

>  <Document ChEMBL ID>  (82) 
CHEMBL1148883

>  <Source Description>  (82) 
Scientific Literature

>  <Document Journal>  (82) 
Bioorg Med Chem Lett

>  <Document Year>  (82) 
2007.0

>  <Active>  (82) 
1.0

$$$$

     RDKit          2D

 36 40  0  0  0  0  0  0  0  0999 V2000
    3.7500   -1.2990    0.0000 C   0  0  0  0  0  0  0  0  0  0  0  0
    3.0000    0.0000    0.0000 N   0  0  0  0  0  0  0  0  0  0  0  0
    1.5000    0.0000    0.0000 C   0  0  0  0  0  0  0  0  0  0  0  0
    0.7500   -1.2990    0.0000 C   0  0  0  0  0  0  0  0  0  0  0  0
   -0.7500   -1.2990    0.0000 C   0  0  0  0  0  0  0  0  0  0  0  0
   -1.5000   -2.5981    0.0000 F   0  0  0  0  0  0  0  0  0  0  0  0
   -1.5000    0.0000    0.0000 C   0  0  0  0  0  0  0  0  0  0  0  0
   -0.7500    1.2990    0.0000 C   0  0  0  0  0  0  0  0  0  0  0  0
   -1.5000    2.5981    0.0000 C   0  0  0  0  0  0  0  0  0  0  0  0
   -0.7500    3.8971    0.0000 C   0  0  0  0  0  0  0  0  0  0  0  0
   -1.5000    5.1962    0.0000 N   0  0  0  0  0  0  0  0  0  0  0  0
   -3.0000    5.1962    0.0000 C   0  0  0  0  0  0  0  0  0  0  0  0
   -3.7500    6.4952    0.0000 O   0  0  0  0  0  0  0  0  0  0  0  0
   -3.7500    3.8971    0.0000 C   0  0  0  0  0  0  0  0  0  0  0  0
   -5.2500    3.8971    0.0000 N   0  0  0  0  0  0  0  0  0  0  0  0
   -6.0000    2.5981    0.0000 C   0  0  0  0  0  0  0  0  0  0  0  0
   -5.2500    1.2990    0.0000 O   0  0  0  0  0  0  0  0  0  0  0  0
   -7.5000    2.5981    0.0000 C   0  0  0  0  0  0  0  0  0  0  0  0
   -8.2500    3.8971    0.0000 C   0  0  0  0  0  0  0  0  0  0  0  0
   -9.7500    3.8971    0.0000 C   0  0  0  0  0  0  0  0  0  0  0  0
  -10.5000    2.5981    0.0000 C   0  0  0  0  0  0  0  0  0  0  0  0
  -12.0000    2.5981    0.0000 N   0  0  0  0  0  0  0  0  0  0  0  0
  -12.8817    1.3846    0.0000 C   0  0  0  0  0  0  0  0  0  0  0  0
  -14.3083    1.8481    0.0000 C   0  0  0  0  0  0  0  0  0  0  0  0
  -14.3083    3.3481    0.0000 C   0  0  0  0  0  0  0  0  0  0  0  0
  -12.8817    3.8116    0.0000 C   0  0  0  0  0  0  0  0  0  0  0  0
  -12.4182    5.2382    0.0000 C   0  0  0  0  0  0  0  0  0  0  0  0
  -13.4218    6.3529    0.0000 N   0  0  0  0  0  0  0  0  0  0  0  0
  -14.9136    6.1961    0.0000 C   0  0  0  0  0  0  0  0  0  0  0  0
  -15.5237    7.5664    0.0000 C   0  0  0  0  0  0  0  0  0  0  0  0
  -14.4090    8.5701    0.0000 C   0  0  0  0  0  0  0  0  0  0  0  0
  -13.1100    7.8201    0.0000 C   0  0  0  0  0  0  0  0  0  0  0  0
   -9.7500    1.2990    0.0000 C   0  0  0  0  0  0  0  0  0  0  0  0
   -8.2500    1.2990    0.0000 C   0  0  0  0  0  0  0  0  0  0  0  0
   -3.0000    2.5981    0.0000 C   0  0  0  0  0  0  0  0  0  0  0  0
    0.7500    1.2990    0.0000 C   0  0  0  0  0  0  0  0  0  0  0  0
  1  2  1  0
  2  3  1  0
  3  4  2  0
  4  5  1  0
  5  6  1  0
  5  7  2  0
  7  8  1  0
  8  9  1  0
  9 10  2  0
 10 11  1  0
 11 12  1  0
 12 13  2  0
 12 14  1  0
 14 15  1  0
 15 16  1  0
 16 17  2  0
 16 18  1  0
 18 19  2  0
 19 20  1  0
 20 21  2  0
 21 22  1  0
 22 23  1  0
 23 24  1  0
 24 25  1  0
 25 26  1  0
 26 27  1  1
 27 28  1  0
 28 29  1  0
 29 30  1  0
 30 31  1  0
 31 32  1  0
 21 33  1  0
 33 34  2  0
 14 35  2  0
  8 36  2  0
 36  3  1  0
 35  9  1  0
 34 18  1  0
 26 22  1  0
 32 28  1  0
M  END
>  <Compound_ID>  (83) 
CHEMBL1765783

>  <Molecule Name>  (83) 
nan

>  <Molecular Weight>  (83) 
489.6

>  <AlogP>  (83) 
4.54

>  <Smiles>  (83) 
CNc1cc(F)cc(-c2c[nH]c(=O)c(NC(=O)c3ccc(N4CCC[C@H]4CN4CCCC4)cc3)c2)c1

>  <Standard Type>  (83) 
Ki

>  <Standard Relation>  (83) 
'='

>  <Standard Units>  (83) 
nM

>  <Standard Value>  (83) 
20.0

>  <Assay ChEMBL ID>  (83) 
CHEMBL1768448

>  <Assay Description>  (83) 
Inhibition of Itk after 40 mins by radiometric phosphate incorporation assay

>  <BAO Format ID>  (83) 
BAO_0000357

>  <BAO Label>  (83) 
single protein format

>  <Assay Organism>  (83) 
None

>  <Target ChEMBL ID>  (83) 
CHEMBL2959

>  <Target Name>  (83) 
Tyrosine-protein kinase ITK/TSK

>  <Target Organism>  (83) 
Homo sapiens

>  <Target Type>  (83) 
SINGLE PROTEIN

>  <Document ChEMBL ID>  (83) 
CHEMBL1765075

>  <Source Description>  (83) 
Scientific Literature

>  <Document Journal>  (83) 
J Med Chem

>  <Document Year>  (83) 
2011.0

>  <Active>  (83) 
1.0

$$$$

     RDKit          2D

 35 38  0  0  0  0  0  0  0  0999 V2000
    3.7500   -1.2990    0.0000 C   0  0  0  0  0  0  0  0  0  0  0  0
    3.0000    0.0000    0.0000 O   0  0  0  0  0  0  0  0  0  0  0  0
    1.5000    0.0000    0.0000 C   0  0  0  0  0  0  0  0  0  0  0  0
    0.7500   -1.2990    0.0000 C   0  0  0  0  0  0  0  0  0  0  0  0
   -0.7500   -1.2990    0.0000 C   0  0  0  0  0  0  0  0  0  0  0  0
   -1.5000   -2.5981    0.0000 C   0  0  0  0  0  0  0  0  0  0  0  0
   -1.5000    0.0000    0.0000 C   0  0  0  0  0  0  0  0  0  0  0  0
   -3.0000    0.0000    0.0000 S   0  0  0  0  0  0  0  0  0  0  0  0
   -3.7500   -1.2990    0.0000 C   0  0  0  0  0  0  0  0  0  0  0  0
   -5.2418   -1.4558    0.0000 C   0  0  0  0  0  0  0  0  0  0  0  0
   -5.5537   -2.9231    0.0000 N   0  0  0  0  0  0  0  0  0  0  0  0
   -4.2546   -3.6731    0.0000 C   0  0  0  0  0  0  0  0  0  0  0  0
   -4.0978   -5.1648    0.0000 N   0  0  0  0  0  0  0  0  0  0  0  0
   -2.7275   -5.7749    0.0000 C   0  0  0  0  0  0  0  0  0  0  0  0
   -1.5140   -4.8933    0.0000 C   0  0  0  0  0  0  0  0  0  0  0  0
   -0.1437   -5.5034    0.0000 C   0  0  0  0  0  0  0  0  0  0  0  0
    1.0699   -4.6217    0.0000 C   0  0  0  0  0  0  0  0  0  0  0  0
    0.0131   -6.9951    0.0000 C   0  0  0  0  0  0  0  0  0  0  0  0
   -1.2004   -7.8768    0.0000 C   0  0  0  0  0  0  0  0  0  0  0  0
   -1.0436   -9.3686    0.0000 C   0  0  0  0  0  0  0  0  0  0  0  0
   -2.5707   -7.2667    0.0000 N   0  0  0  0  0  0  0  0  0  0  0  0
   -3.1399   -2.6694    0.0000 S   0  0  0  0  0  0  0  0  0  0  0  0
   -0.7500    1.2990    0.0000 C   0  0  0  0  0  0  0  0  0  0  0  0
    0.7500    1.2990    0.0000 C   0  0  0  0  0  0  0  0  0  0  0  0
    1.5000    2.5981    0.0000 C   0  0  0  0  0  0  0  0  0  0  0  0
    0.7500    3.8971    0.0000 O   0  0  0  0  0  0  0  0  0  0  0  0
    3.0000    2.5981    0.0000 N   0  0  0  0  0  0  0  0  0  0  0  0
    3.7500    1.2990    0.0000 C   0  0  0  0  0  0  0  0  0  0  0  0
    5.2500    1.2990    0.0000 C   0  0  0  0  0  0  0  0  0  0  0  0
    6.0000    2.5981    0.0000 N   0  0  0  0  0  0  0  0  0  0  0  0
    7.5000    2.5981    0.0000 C   0  0  0  0  0  0  0  0  0  0  0  0
    8.2500    1.2990    0.0000 C   0  0  0  0  0  0  0  0  0  0  0  0
    8.2500    3.8971    0.0000 O   0  0  0  0  0  0  0  0  0  0  0  0
    5.2500    3.8971    0.0000 C   0  0  0  0  0  0  0  0  0  0  0  0
    3.7500    3.8971    0.0000 C   0  0  0  0  0  0  0  0  0  0  0  0
  1  2  1  0
  2  3  1  0
  3  4  2  0
  4  5  1  0
  5  6  1  0
  5  7  2  0
  7  8  1  0
  8  9  1  0
  9 10  2  0
 10 11  1  0
 11 12  2  0
 12 13  1  0
 13 14  1  0
 14 15  2  0
 15 16  1  0
 16 17  1  0
 16 18  2  0
 18 19  1  0
 19 20  1  0
 19 21  2  0
 12 22  1  0
  7 23  1  0
 23 24  2  0
 24 25  1  0
 25 26  2  0
 25 27  1  0
 27 28  1  0
 28 29  1  0
 29 30  1  0
 30 31  1  0
 31 32  1  0
 31 33  2  0
 30 34  1  0
 34 35  1  0
 24  3  1  0
 35 27  1  0
 22  9  1  0
 21 14  1  0
M  END
>  <Compound_ID>  (84) 
CHEMBL208846

>  <Molecule Name>  (84) 
nan

>  <Molecular Weight>  (84) 
511.67

>  <AlogP>  (84) 
4.67

>  <Smiles>  (84) 
COc1cc(C)c(Sc2cnc(Nc3cc(C)cc(C)n3)s2)cc1C(=O)N1CCN(C(C)=O)CC1

>  <Standard Type>  (84) 
IC50

>  <Standard Relation>  (84) 
'='

>  <Standard Units>  (84) 
nM

>  <Standard Value>  (84) 
6.0

>  <Assay ChEMBL ID>  (84) 
CHEMBL864159

>  <Assay Description>  (84) 
Inhibition of Itk

>  <BAO Format ID>  (84) 
BAO_0000357

>  <BAO Label>  (84) 
single protein format

>  <Assay Organism>  (84) 
Homo sapiens

>  <Target ChEMBL ID>  (84) 
CHEMBL2959

>  <Target Name>  (84) 
Tyrosine-protein kinase ITK/TSK

>  <Target Organism>  (84) 
Homo sapiens

>  <Target Type>  (84) 
SINGLE PROTEIN

>  <Document ChEMBL ID>  (84) 
CHEMBL1138957

>  <Source Description>  (84) 
Scientific Literature

>  <Document Journal>  (84) 
Bioorg Med Chem Lett

>  <Document Year>  (84) 
2006.0

>  <Active>  (84) 
1.0

$$$$

     RDKit          2D

 37 40  0  0  0  0  0  0  0  0999 V2000
    3.7500   -1.2990    0.0000 C   0  0  0  0  0  0  0  0  0  0  0  0
    3.0000    0.0000    0.0000 C   0  0  0  0  0  0  0  0  0  0  0  0
    3.7500    1.2990    0.0000 O   0  0  0  0  0  0  0  0  0  0  0  0
    1.5000    0.0000    0.0000 N   0  0  0  0  0  0  0  0  0  0  0  0
    0.7500   -1.2990    0.0000 C   0  0  0  0  0  0  0  0  0  0  0  0
   -0.7500   -1.2990    0.0000 C   0  0  0  0  0  0  0  0  0  0  0  0
   -1.5000    0.0000    0.0000 N   0  0  0  0  0  0  0  0  0  0  0  0
   -3.0000    0.0000    0.0000 C   0  0  0  0  0  0  0  0  0  0  0  0
   -3.7500   -1.2990    0.0000 O   0  0  0  0  0  0  0  0  0  0  0  0
   -3.7500    1.2990    0.0000 C   0  0  0  0  0  0  0  0  0  0  0  0
   -3.0000    2.5981    0.0000 C   0  0  0  0  0  0  0  0  0  0  0  0
   -3.7500    3.8971    0.0000 C   0  0  0  0  0  0  0  0  0  0  0  0
   -3.0000    5.1962    0.0000 S   0  0  0  0  0  0  0  0  0  0  0  0
   -1.5000    5.1962    0.0000 C   0  0  0  0  0  0  0  0  0  0  0  0
   -0.6183    6.4097    0.0000 C   0  0  0  0  0  0  0  0  0  0  0  0
    0.8083    5.9462    0.0000 N   0  0  0  0  0  0  0  0  0  0  0  0
    0.8083    4.4462    0.0000 C   0  0  0  0  0  0  0  0  0  0  0  0
    2.0218    3.5645    0.0000 N   0  0  0  0  0  0  0  0  0  0  0  0
    3.3921    4.1746    0.0000 C   0  0  0  0  0  0  0  0  0  0  0  0
    3.5489    5.6664    0.0000 O   0  0  0  0  0  0  0  0  0  0  0  0
    4.6056    3.2929    0.0000 C   0  0  0  0  0  0  0  0  0  0  0  0
    4.4488    1.8011    0.0000 C   0  0  0  0  0  0  0  0  0  0  0  0
    5.6624    0.9194    0.0000 C   0  0  0  0  0  0  0  0  0  0  0  0
    7.0327    1.5295    0.0000 C   0  0  0  0  0  0  0  0  0  0  0  0
    8.2462    0.6479    0.0000 N   0  0  0  0  0  0  0  0  0  0  0  0
    8.0894   -0.8439    0.0000 C   0  0  0  0  0  0  0  0  0  0  0  0
    9.6165    1.2580    0.0000 C   0  0  0  0  0  0  0  0  0  0  0  0
    7.1895    3.0213    0.0000 C   0  0  0  0  0  0  0  0  0  0  0  0
    5.9760    3.9030    0.0000 C   0  0  0  0  0  0  0  0  0  0  0  0
   -0.6183    3.9826    0.0000 S   0  0  0  0  0  0  0  0  0  0  0  0
   -5.2500    3.8971    0.0000 C   0  0  0  0  0  0  0  0  0  0  0  0
   -6.0000    5.1962    0.0000 C   0  0  0  0  0  0  0  0  0  0  0  0
   -6.0000    2.5981    0.0000 C   0  0  0  0  0  0  0  0  0  0  0  0
   -5.2500    1.2990    0.0000 C   0  0  0  0  0  0  0  0  0  0  0  0
   -6.0000    0.0000    0.0000 C   0  0  0  0  0  0  0  0  0  0  0  0
   -0.7500    1.2990    0.0000 C   0  0  0  0  0  0  0  0  0  0  0  0
    0.7500    1.2990    0.0000 C   0  0  0  0  0  0  0  0  0  0  0  0
  1  2  1  0
  2  3  2  0
  2  4  1  0
  4  5  1  0
  5  6  1  0
  6  7  1  0
  7  8  1  0
  8  9  2  0
  8 10  1  0
 10 11  2  0
 11 12  1  0
 12 13  1  0
 13 14  1  0
 14 15  2  0
 15 16  1  0
 16 17  2  0
 17 18  1  0
 18 19  1  0
 19 20  2  0
 19 21  1  0
 21 22  2  0
 22 23  1  0
 23 24  2  0
 24 25  1  0
 25 26  1  0
 25 27  1  0
 24 28  1  0
 28 29  2  0
 17 30  1  0
 12 31  2  0
 31 32  1  0
 31 33  1  0
 33 34  2  0
 34 35  1  0
  7 36  1  0
 36 37  1  0
 37  4  1  0
 34 10  1  0
 30 14  1  0
 29 21  1  0
M  END
>  <Compound_ID>  (85) 
CHEMBL206905

>  <Molecule Name>  (85) 
nan

>  <Molecular Weight>  (85) 
537.71

>  <AlogP>  (85) 
4.53

>  <Smiles>  (85) 
CC(=O)N1CCN(C(=O)c2cc(Sc3cnc(NC(=O)c4ccc(N(C)C)cc4)s3)c(C)cc2C)CC1

>  <Standard Type>  (85) 
IC50

>  <Standard Relation>  (85) 
'='

>  <Standard Units>  (85) 
nM

>  <Standard Value>  (85) 
60.0

>  <Assay ChEMBL ID>  (85) 
CHEMBL864159

>  <Assay Description>  (85) 
Inhibition of Itk

>  <BAO Format ID>  (85) 
BAO_0000357

>  <BAO Label>  (85) 
single protein format

>  <Assay Organism>  (85) 
Homo sapiens

>  <Target ChEMBL ID>  (85) 
CHEMBL2959

>  <Target Name>  (85) 
Tyrosine-protein kinase ITK/TSK

>  <Target Organism>  (85) 
Homo sapiens

>  <Target Type>  (85) 
SINGLE PROTEIN

>  <Document ChEMBL ID>  (85) 
CHEMBL1138957

>  <Source Description>  (85) 
Scientific Literature

>  <Document Journal>  (85) 
Bioorg Med Chem Lett

>  <Document Year>  (85) 
2006.0

>  <Active>  (85) 
1.0

$$$$

     RDKit          2D

 33 36  0  0  0  0  0  0  0  0999 V2000
    0.7500   -3.8971    0.0000 C   0  0  0  0  0  0  0  0  0  0  0  0
    1.5000   -2.5981    0.0000 N   0  0  0  0  0  0  0  0  0  0  0  0
    3.0000   -2.5981    0.0000 C   0  0  0  0  0  0  0  0  0  0  0  0
    3.7500   -1.2990    0.0000 O   0  0  0  0  0  0  0  0  0  0  0  0
    3.7500   -3.8971    0.0000 C   0  0  0  0  0  0  0  0  0  0  0  0
    3.0000   -5.1962    0.0000 C   0  0  0  0  0  0  0  0  0  0  0  0
    3.7500   -6.4952    0.0000 C   0  0  0  0  0  0  0  0  0  0  0  0
    5.2500   -6.4952    0.0000 C   0  0  0  0  0  0  0  0  0  0  0  0
    6.0000   -5.1962    0.0000 C   0  0  0  0  0  0  0  0  0  0  0  0
    5.2500   -3.8971    0.0000 C   0  0  0  0  0  0  0  0  0  0  0  0
    0.7500   -1.2990    0.0000 C   0  0  0  0  0  0  0  0  0  0  0  0
    1.5000    0.0000    0.0000 C   0  0  0  0  0  0  0  0  0  0  0  0
    0.7500    1.2990    0.0000 C   0  0  0  0  0  0  0  0  0  0  0  0
   -0.7500    1.2990    0.0000 C   0  0  0  0  0  0  0  0  0  0  0  0
   -1.5000    0.0000    0.0000 C   0  0  0  0  0  0  0  0  0  0  0  0
   -0.7500   -1.2990    0.0000 C   0  0  0  0  0  0  0  0  0  0  0  0
   -2.9672    0.3119    0.0000 N   0  0  0  0  0  0  0  0  0  0  0  0
   -3.1240    1.8037    0.0000 C   0  0  0  0  0  0  0  0  0  0  0  0
   -4.4231    2.5537    0.0000 N   0  0  0  0  0  0  0  0  0  0  0  0
   -4.4231    4.0537    0.0000 C   0  0  0  0  0  0  0  0  0  0  0  0
   -3.1240    4.8037    0.0000 O   0  0  0  0  0  0  0  0  0  0  0  0
   -5.7221    4.8037    0.0000 C   0  0  0  0  0  0  0  0  0  0  0  0
   -5.7221    6.3037    0.0000 C   0  0  0  0  0  0  0  0  0  0  0  0
   -7.0211    7.0537    0.0000 C   0  0  0  0  0  0  0  0  0  0  0  0
   -8.3202    6.3037    0.0000 C   0  0  0  0  0  0  0  0  0  0  0  0
   -8.3202    4.8037    0.0000 N   0  0  0  0  0  0  0  0  0  0  0  0
   -7.0211    4.0537    0.0000 C   0  0  0  0  0  0  0  0  0  0  0  0
   -1.7537    2.4138    0.0000 N   0  0  0  0  0  0  0  0  0  0  0  0
   -1.4418    3.8810    0.0000 C   0  0  0  0  0  0  0  0  0  0  0  0
   -0.0152    4.3445    0.0000 C   0  0  0  0  0  0  0  0  0  0  0  0
    0.2966    5.8117    0.0000 C   0  0  0  0  0  0  0  0  0  0  0  0
    1.7232    6.2752    0.0000 N   0  0  0  0  0  0  0  0  0  0  0  0
   -0.8181    6.8154    0.0000 O   0  0  0  0  0  0  0  0  0  0  0  0
  1  2  1  0
  2  3  1  0
  3  4  2  0
  3  5  1  0
  5  6  1  0
  6  7  1  0
  7  8  1  0
  8  9  1  0
  9 10  1  0
  2 11  1  0
 11 12  2  0
 12 13  1  0
 13 14  2  0
 14 15  1  0
 15 16  2  0
 15 17  1  0
 17 18  2  0
 18 19  1  0
 19 20  1  0
 20 21  2  0
 20 22  1  0
 22 23  2  0
 23 24  1  0
 24 25  2  0
 25 26  1  0
 26 27  2  0
 18 28  1  0
 28 29  1  0
 29 30  1  0
 30 31  1  0
 31 32  1  0
 31 33  2  0
 10  5  1  0
 16 11  1  0
 27 22  1  0
 28 14  1  0
M  END
>  <Compound_ID>  (86) 
CHEMBL485232

>  <Molecule Name>  (86) 
nan

>  <Molecular Weight>  (86) 
448.53

>  <AlogP>  (86) 
3.10

>  <Smiles>  (86) 
CN(C(=O)C1CCCCC1)c1ccc2c(c1)nc(NC(=O)c1cccnc1)n2CCC(N)=O

>  <Standard Type>  (86) 
IC50

>  <Standard Relation>  (86) 
'='

>  <Standard Units>  (86) 
nM

>  <Standard Value>  (86) 
5.0

>  <Assay ChEMBL ID>  (86) 
CHEMBL992563

>  <Assay Description>  (86) 
Inhibition of ITK by DELFIA assay

>  <BAO Format ID>  (86) 
BAO_0000357

>  <BAO Label>  (86) 
single protein format

>  <Assay Organism>  (86) 
None

>  <Target ChEMBL ID>  (86) 
CHEMBL2959

>  <Target Name>  (86) 
Tyrosine-protein kinase ITK/TSK

>  <Target Organism>  (86) 
Homo sapiens

>  <Target Type>  (86) 
SINGLE PROTEIN

>  <Document ChEMBL ID>  (86) 
CHEMBL1142468

>  <Source Description>  (86) 
Scientific Literature

>  <Document Journal>  (86) 
Bioorg Med Chem Lett

>  <Document Year>  (86) 
2008.0

>  <Active>  (86) 
1.0

$$$$

     RDKit          2D

 33 36  0  0  0  0  0  0  0  0999 V2000
   -7.7227   -2.1088    0.0000 C   0  0  0  0  0  0  0  0  0  0  0  0
   -6.2961   -1.6453    0.0000 O   0  0  0  0  0  0  0  0  0  0  0  0
   -5.1814   -2.6490    0.0000 C   0  0  0  0  0  0  0  0  0  0  0  0
   -3.7548   -2.1855    0.0000 C   0  0  0  0  0  0  0  0  0  0  0  0
   -2.6401   -3.1891    0.0000 C   0  0  0  0  0  0  0  0  0  0  0  0
   -1.2135   -2.7256    0.0000 N   0  0  0  0  0  0  0  0  0  0  0  0
   -0.0000   -3.6073    0.0000 C   0  0  0  0  0  0  0  0  0  0  0  0
   -0.0000   -5.1073    0.0000 N   0  0  0  0  0  0  0  0  0  0  0  0
   -1.2990   -5.8573    0.0000 C   0  0  0  0  0  0  0  0  0  0  0  0
   -2.5981   -5.1073    0.0000 O   0  0  0  0  0  0  0  0  0  0  0  0
   -1.2990   -7.3573    0.0000 C   0  0  0  0  0  0  0  0  0  0  0  0
   -2.5981   -8.1073    0.0000 C   0  0  0  0  0  0  0  0  0  0  0  0
   -2.5981   -9.6073    0.0000 C   0  0  0  0  0  0  0  0  0  0  0  0
   -1.2990  -10.3573    0.0000 C   0  0  0  0  0  0  0  0  0  0  0  0
   -1.2990  -11.8573    0.0000 Cl  0  0  0  0  0  0  0  0  0  0  0  0
   -0.0000   -9.6073    0.0000 C   0  0  0  0  0  0  0  0  0  0  0  0
   -0.0000   -8.1073    0.0000 C   0  0  0  0  0  0  0  0  0  0  0  0
    1.2135   -2.7256    0.0000 N   0  0  0  0  0  0  0  0  0  0  0  0
    0.7500   -1.2990    0.0000 C   0  0  0  0  0  0  0  0  0  0  0  0
    1.5000    0.0000    0.0000 C   0  0  0  0  0  0  0  0  0  0  0  0
    0.7500    1.2990    0.0000 C   0  0  0  0  0  0  0  0  0  0  0  0
    1.5000    2.5981    0.0000 C   0  0  0  0  0  0  0  0  0  0  0  0
    3.0000    2.5981    0.0000 N   0  0  0  0  0  0  0  0  0  0  0  0
    3.7500    3.8971    0.0000 C   0  0  0  0  0  0  0  0  0  0  0  0
    3.7500    1.2990    0.0000 C   0  0  0  0  0  0  0  0  0  0  0  0
    3.0000   -0.0000    0.0000 C   0  0  0  0  0  0  0  0  0  0  0  0
    3.7500   -1.2990    0.0000 C   0  0  0  0  0  0  0  0  0  0  0  0
    5.2500   -1.2990    0.0000 C   0  0  0  0  0  0  0  0  0  0  0  0
    6.0000   -0.0000    0.0000 C   0  0  0  0  0  0  0  0  0  0  0  0
    5.2500    1.2990    0.0000 C   0  0  0  0  0  0  0  0  0  0  0  0
   -0.7500    1.2990    0.0000 C   0  0  0  0  0  0  0  0  0  0  0  0
   -1.5000    0.0000    0.0000 C   0  0  0  0  0  0  0  0  0  0  0  0
   -0.7500   -1.2990    0.0000 C   0  0  0  0  0  0  0  0  0  0  0  0
  1  2  1  0
  2  3  1  0
  3  4  1  0
  4  5  1  0
  5  6  1  0
  6  7  1  0
  7  8  1  0
  8  9  1  0
  9 10  2  0
  9 11  1  0
 11 12  2  0
 12 13  1  0
 13 14  2  0
 14 15  1  0
 14 16  1  0
 16 17  2  0
  7 18  2  0
 18 19  1  0
 19 20  2  0
 20 21  1  0
 21 22  1  0
 22 23  1  0
 23 24  1  0
 23 25  1  0
 25 26  1  0
 26 27  1  0
 27 28  1  0
 28 29  1  0
 29 30  1  0
 21 31  2  0
 31 32  1  0
 32 33  2  0
 33  6  1  0
 17 11  1  0
 33 19  1  0
 30 25  1  0
M  END
>  <Compound_ID>  (87) 
CHEMBL488187

>  <Molecule Name>  (87) 
nan

>  <Molecular Weight>  (87) 
469.03

>  <AlogP>  (87) 
5.74

>  <Smiles>  (87) 
COCCCn1c(NC(=O)c2ccc(Cl)cc2)nc2cc(CN(C)C3CCCCC3)ccc21

>  <Standard Type>  (87) 
IC50

>  <Standard Relation>  (87) 
'='

>  <Standard Units>  (87) 
nM

>  <Standard Value>  (87) 
46.0

>  <Assay ChEMBL ID>  (87) 
CHEMBL1006237

>  <Assay Description>  (87) 
Inhibition of ITK by DELPHIA assay

>  <BAO Format ID>  (87) 
BAO_0000357

>  <BAO Label>  (87) 
single protein format

>  <Assay Organism>  (87) 
None

>  <Target ChEMBL ID>  (87) 
CHEMBL2959

>  <Target Name>  (87) 
Tyrosine-protein kinase ITK/TSK

>  <Target Organism>  (87) 
Homo sapiens

>  <Target Type>  (87) 
SINGLE PROTEIN

>  <Document ChEMBL ID>  (87) 
CHEMBL1152240

>  <Source Description>  (87) 
Scientific Literature

>  <Document Journal>  (87) 
Bioorg Med Chem Lett

>  <Document Year>  (87) 
2008.0

>  <Active>  (87) 
1.0

$$$$

     RDKit          2D

 39 42  0  0  0  0  0  0  0  0999 V2000
    3.7500   -1.2990    0.0000 C   0  0  0  0  0  0  0  0  0  0  0  0
    3.0000    0.0000    0.0000 O   0  0  0  0  0  0  0  0  0  0  0  0
    1.5000    0.0000    0.0000 C   0  0  0  0  0  0  0  0  0  0  0  0
    0.7500   -1.2990    0.0000 C   0  0  0  0  0  0  0  0  0  0  0  0
   -0.7500   -1.2990    0.0000 C   0  0  0  0  0  0  0  0  0  0  0  0
   -1.5000   -2.5981    0.0000 C   0  0  0  0  0  0  0  0  0  0  0  0
   -1.5000    0.0000    0.0000 C   0  0  0  0  0  0  0  0  0  0  0  0
   -3.0000    0.0000    0.0000 S   0  0  0  0  0  0  0  0  0  0  0  0
   -3.7500    1.2990    0.0000 C   0  0  0  0  0  0  0  0  0  0  0  0
   -5.2418    1.4558    0.0000 C   0  0  0  0  0  0  0  0  0  0  0  0
   -5.5537    2.9231    0.0000 N   0  0  0  0  0  0  0  0  0  0  0  0
   -4.2546    3.6731    0.0000 C   0  0  0  0  0  0  0  0  0  0  0  0
   -4.0978    5.1648    0.0000 N   0  0  0  0  0  0  0  0  0  0  0  0
   -2.7275    5.7749    0.0000 C   0  0  0  0  0  0  0  0  0  0  0  0
   -1.5140    4.8933    0.0000 O   0  0  0  0  0  0  0  0  0  0  0  0
   -2.5707    7.2667    0.0000 C   0  0  0  0  0  0  0  0  0  0  0  0
   -1.2004    7.8768    0.0000 C   0  0  0  0  0  0  0  0  0  0  0  0
   -1.0436    9.3686    0.0000 C   0  0  0  0  0  0  0  0  0  0  0  0
   -2.2571   10.2503    0.0000 C   0  0  0  0  0  0  0  0  0  0  0  0
   -2.1003   11.7421    0.0000 O   0  0  0  0  0  0  0  0  0  0  0  0
   -0.7300   12.3522    0.0000 C   0  0  0  0  0  0  0  0  0  0  0  0
   -0.5732   13.8440    0.0000 C   0  0  0  0  0  0  0  0  0  0  0  0
    0.4835   11.4705    0.0000 C   0  0  0  0  0  0  0  0  0  0  0  0
   -3.6274    9.6402    0.0000 C   0  0  0  0  0  0  0  0  0  0  0  0
   -3.7842    8.1484    0.0000 C   0  0  0  0  0  0  0  0  0  0  0  0
   -3.1399    2.6694    0.0000 S   0  0  0  0  0  0  0  0  0  0  0  0
   -0.7500    1.2990    0.0000 C   0  0  0  0  0  0  0  0  0  0  0  0
    0.7500    1.2990    0.0000 C   0  0  0  0  0  0  0  0  0  0  0  0
    1.5000    2.5981    0.0000 C   0  0  0  0  0  0  0  0  0  0  0  0
    0.7500    3.8971    0.0000 O   0  0  0  0  0  0  0  0  0  0  0  0
    3.0000    2.5981    0.0000 N   0  0  0  0  0  0  0  0  0  0  0  0
    3.7500    1.2990    0.0000 C   0  0  0  0  0  0  0  0  0  0  0  0
    5.2500    1.2990    0.0000 C   0  0  0  0  0  0  0  0  0  0  0  0
    6.0000    2.5981    0.0000 N   0  0  0  0  0  0  0  0  0  0  0  0
    7.5000    2.5981    0.0000 C   0  0  0  0  0  0  0  0  0  0  0  0
    8.2500    1.2990    0.0000 C   0  0  0  0  0  0  0  0  0  0  0  0
    8.2500    3.8971    0.0000 O   0  0  0  0  0  0  0  0  0  0  0  0
    5.2500    3.8971    0.0000 C   0  0  0  0  0  0  0  0  0  0  0  0
    3.7500    3.8971    0.0000 C   0  0  0  0  0  0  0  0  0  0  0  0
  1  2  1  0
  2  3  1  0
  3  4  2  0
  4  5  1  0
  5  6  1  0
  5  7  2  0
  7  8  1  0
  8  9  1  0
  9 10  2  0
 10 11  1  0
 11 12  2  0
 12 13  1  0
 13 14  1  0
 14 15  2  0
 14 16  1  0
 16 17  2  0
 17 18  1  0
 18 19  2  0
 19 20  1  0
 20 21  1  0
 21 22  1  0
 21 23  1  0
 19 24  1  0
 24 25  2  0
 12 26  1  0
  7 27  1  0
 27 28  2  0
 28 29  1  0
 29 30  2  0
 29 31  1  0
 31 32  1  0
 32 33  1  0
 33 34  1  0
 34 35  1  0
 35 36  1  0
 35 37  2  0
 34 38  1  0
 38 39  1  0
 28  3  1  0
 39 31  1  0
 26  9  1  0
 25 16  1  0
M  END
>  <Compound_ID>  (88) 
CHEMBL380058

>  <Molecule Name>  (88) 
nan

>  <Molecular Weight>  (88) 
568.72

>  <AlogP>  (88) 
4.96

>  <Smiles>  (88) 
COc1cc(C)c(Sc2cnc(NC(=O)c3ccc(OC(C)C)cc3)s2)cc1C(=O)N1CCN(C(C)=O)CC1

>  <Standard Type>  (88) 
IC50

>  <Standard Relation>  (88) 
'='

>  <Standard Units>  (88) 
nM

>  <Standard Value>  (88) 
47.0

>  <Assay ChEMBL ID>  (88) 
CHEMBL864159

>  <Assay Description>  (88) 
Inhibition of Itk

>  <BAO Format ID>  (88) 
BAO_0000357

>  <BAO Label>  (88) 
single protein format

>  <Assay Organism>  (88) 
Homo sapiens

>  <Target ChEMBL ID>  (88) 
CHEMBL2959

>  <Target Name>  (88) 
Tyrosine-protein kinase ITK/TSK

>  <Target Organism>  (88) 
Homo sapiens

>  <Target Type>  (88) 
SINGLE PROTEIN

>  <Document ChEMBL ID>  (88) 
CHEMBL1138957

>  <Source Description>  (88) 
Scientific Literature

>  <Document Journal>  (88) 
Bioorg Med Chem Lett

>  <Document Year>  (88) 
2006.0

>  <Active>  (88) 
1.0

$$$$

     RDKit          2D

 43 46  0  0  0  0  0  0  0  0999 V2000
    3.7500   -1.2990    0.0000 C   0  0  0  0  0  0  0  0  0  0  0  0
    3.0000    0.0000    0.0000 O   0  0  0  0  0  0  0  0  0  0  0  0
    1.5000    0.0000    0.0000 C   0  0  0  0  0  0  0  0  0  0  0  0
    0.7500   -1.2990    0.0000 C   0  0  0  0  0  0  0  0  0  0  0  0
   -0.7500   -1.2990    0.0000 C   0  0  0  0  0  0  0  0  0  0  0  0
   -1.5000   -2.5981    0.0000 C   0  0  0  0  0  0  0  0  0  0  0  0
   -1.5000    0.0000    0.0000 C   0  0  0  0  0  0  0  0  0  0  0  0
   -3.0000    0.0000    0.0000 S   0  0  0  0  0  0  0  0  0  0  0  0
   -3.7500    1.2990    0.0000 C   0  0  0  0  0  0  0  0  0  0  0  0
   -5.2418    1.4558    0.0000 C   0  0  0  0  0  0  0  0  0  0  0  0
   -5.5537    2.9231    0.0000 N   0  0  0  0  0  0  0  0  0  0  0  0
   -4.2546    3.6731    0.0000 C   0  0  0  0  0  0  0  0  0  0  0  0
   -4.0978    5.1648    0.0000 N   0  0  0  0  0  0  0  0  0  0  0  0
   -2.7275    5.7749    0.0000 C   0  0  0  0  0  0  0  0  0  0  0  0
   -1.5140    4.8933    0.0000 O   0  0  0  0  0  0  0  0  0  0  0  0
   -2.5707    7.2667    0.0000 C   0  0  0  0  0  0  0  0  0  0  0  0
   -1.2004    7.8768    0.0000 C   0  0  0  0  0  0  0  0  0  0  0  0
   -1.0436    9.3686    0.0000 C   0  0  0  0  0  0  0  0  0  0  0  0
   -2.2571   10.2503    0.0000 C   0  0  0  0  0  0  0  0  0  0  0  0
   -2.1003   11.7421    0.0000 C   0  0  0  0  0  0  0  0  0  0  0  0
   -0.7300   12.3522    0.0000 N   0  0  0  0  0  0  0  0  0  0  0  0
   -0.5732   13.8440    0.0000 C   0  0  0  0  0  0  0  0  0  0  0  0
    0.7971   14.4541    0.0000 C   0  0  0  0  0  0  0  0  0  0  0  0
   -1.7867   14.7256    0.0000 C   0  0  0  0  0  0  0  0  0  0  0  0
   -0.9051   15.9392    0.0000 C   0  0  0  0  0  0  0  0  0  0  0  0
   -2.6684   13.5121    0.0000 C   0  0  0  0  0  0  0  0  0  0  0  0
   -3.0003   15.6073    0.0000 C   0  0  0  0  0  0  0  0  0  0  0  0
   -3.6274    9.6402    0.0000 C   0  0  0  0  0  0  0  0  0  0  0  0
   -3.7842    8.1484    0.0000 C   0  0  0  0  0  0  0  0  0  0  0  0
   -3.1399    2.6694    0.0000 S   0  0  0  0  0  0  0  0  0  0  0  0
   -0.7500    1.2990    0.0000 C   0  0  0  0  0  0  0  0  0  0  0  0
    0.7500    1.2990    0.0000 C   0  0  0  0  0  0  0  0  0  0  0  0
    1.5000    2.5981    0.0000 C   0  0  0  0  0  0  0  0  0  0  0  0
    0.7500    3.8971    0.0000 O   0  0  0  0  0  0  0  0  0  0  0  0
    3.0000    2.5981    0.0000 N   0  0  0  0  0  0  0  0  0  0  0  0
    3.7500    1.2990    0.0000 C   0  0  0  0  0  0  0  0  0  0  0  0
    5.2500    1.2990    0.0000 C   0  0  0  0  0  0  0  0  0  0  0  0
    6.0000    2.5981    0.0000 N   0  0  0  0  0  0  0  0  0  0  0  0
    7.5000    2.5981    0.0000 C   0  0  0  0  0  0  0  0  0  0  0  0
    8.2500    1.2990    0.0000 C   0  0  0  0  0  0  0  0  0  0  0  0
    8.2500    3.8971    0.0000 O   0  0  0  0  0  0  0  0  0  0  0  0
    5.2500    3.8971    0.0000 C   0  0  0  0  0  0  0  0  0  0  0  0
    3.7500    3.8971    0.0000 C   0  0  0  0  0  0  0  0  0  0  0  0
  1  2  1  0
  2  3  1  0
  3  4  2  0
  4  5  1  0
  5  6  1  0
  5  7  2  0
  7  8  1  0
  8  9  1  0
  9 10  2  0
 10 11  1  0
 11 12  2  0
 12 13  1  0
 13 14  1  0
 14 15  2  0
 14 16  1  0
 16 17  2  0
 17 18  1  0
 18 19  2  0
 19 20  1  0
 20 21  1  0
 21 22  1  0
 22 23  1  0
 22 24  1  0
 24 25  1  0
 24 26  1  0
 24 27  1  0
 19 28  1  0
 28 29  2  0
 12 30  1  0
  7 31  1  0
 31 32  2  0
 32 33  1  0
 33 34  2  0
 33 35  1  0
 35 36  1  0
 36 37  1  0
 37 38  1  0
 38 39  1  0
 39 40  1  0
 39 41  2  0
 38 42  1  0
 42 43  1  0
 32  3  1  0
 43 35  1  0
 30  9  1  0
 29 16  1  0
M  END
>  <Compound_ID>  (89) 
CHEMBL209148

>  <Molecule Name>  (89) 
nan

>  <Molecular Weight>  (89) 
623.85

>  <AlogP>  (89) 
5.69

>  <Smiles>  (89) 
COc1cc(C)c(Sc2cnc(NC(=O)c3ccc(CNC(C)C(C)(C)C)cc3)s2)cc1C(=O)N1CCN(C(C)=O)CC1

>  <Standard Type>  (89) 
IC50

>  <Standard Relation>  (89) 
'='

>  <Standard Units>  (89) 
nM

>  <Standard Value>  (89) 
19.0

>  <Assay ChEMBL ID>  (89) 
CHEMBL864159

>  <Assay Description>  (89) 
Inhibition of Itk

>  <BAO Format ID>  (89) 
BAO_0000357

>  <BAO Label>  (89) 
single protein format

>  <Assay Organism>  (89) 
Homo sapiens

>  <Target ChEMBL ID>  (89) 
CHEMBL2959

>  <Target Name>  (89) 
Tyrosine-protein kinase ITK/TSK

>  <Target Organism>  (89) 
Homo sapiens

>  <Target Type>  (89) 
SINGLE PROTEIN

>  <Document ChEMBL ID>  (89) 
CHEMBL1138957

>  <Source Description>  (89) 
Scientific Literature

>  <Document Journal>  (89) 
Bioorg Med Chem Lett

>  <Document Year>  (89) 
2006.0

>  <Active>  (89) 
1.0

$$$$

     RDKit          2D

 35 38  0  0  0  0  0  0  0  0999 V2000
    0.7500   -6.4952    0.0000 C   0  0  0  0  0  0  0  0  0  0  0  0
    1.5000   -5.1962    0.0000 C   0  0  0  0  0  0  0  0  0  0  0  0
    0.7500   -3.8971    0.0000 N   0  0  0  0  0  0  0  0  0  0  0  0
    1.5000   -2.5981    0.0000 C   0  0  0  0  0  0  0  0  0  0  0  0
    3.0000   -2.5981    0.0000 O   0  0  0  0  0  0  0  0  0  0  0  0
    0.7500   -1.2990    0.0000 C   0  0  0  0  0  0  0  0  0  0  0  0
    1.5000    0.0000    0.0000 C   0  0  0  0  0  0  0  0  0  0  0  0
    0.7500    1.2990    0.0000 C   0  0  0  0  0  0  0  0  0  0  0  0
   -0.7500    1.2990    0.0000 C   0  0  0  0  0  0  0  0  0  0  0  0
   -1.5000    0.0000    0.0000 C   0  0  0  0  0  0  0  0  0  0  0  0
   -0.7500   -1.2990    0.0000 C   0  0  0  0  0  0  0  0  0  0  0  0
   -2.9672    0.3119    0.0000 N   0  0  0  0  0  0  0  0  0  0  0  0
   -3.1240    1.8037    0.0000 C   0  0  0  0  0  0  0  0  0  0  0  0
   -4.4231    2.5537    0.0000 N   0  0  0  0  0  0  0  0  0  0  0  0
   -4.4231    4.0537    0.0000 C   0  0  0  0  0  0  0  0  0  0  0  0
   -3.1240    4.8037    0.0000 O   0  0  0  0  0  0  0  0  0  0  0  0
   -5.7221    4.8037    0.0000 C   0  0  0  0  0  0  0  0  0  0  0  0
   -5.7221    6.3037    0.0000 C   0  0  0  0  0  0  0  0  0  0  0  0
   -7.0211    7.0537    0.0000 C   0  0  0  0  0  0  0  0  0  0  0  0
   -8.3202    6.3037    0.0000 C   0  0  0  0  0  0  0  0  0  0  0  0
   -9.6192    7.0537    0.0000 Br  0  0  0  0  0  0  0  0  0  0  0  0
   -8.3202    4.8037    0.0000 C   0  0  0  0  0  0  0  0  0  0  0  0
   -7.0211    4.0537    0.0000 C   0  0  0  0  0  0  0  0  0  0  0  0
   -1.7537    2.4138    0.0000 N   0  0  0  0  0  0  0  0  0  0  0  0
   -1.4418    3.8810    0.0000 C   0  0  0  0  0  0  0  0  0  0  0  0
   -0.0152    4.3445    0.0000 C   0  0  0  0  0  0  0  0  0  0  0  0
    0.2966    5.8117    0.0000 C   0  0  0  0  0  0  0  0  0  0  0  0
    1.7232    6.2752    0.0000 N   0  0  0  0  0  0  0  0  0  0  0  0
   -0.8181    6.8154    0.0000 O   0  0  0  0  0  0  0  0  0  0  0  0
   -0.7500   -3.8971    0.0000 C   0  0  0  0  0  0  0  0  0  0  0  0
   -1.5000   -2.5981    0.0000 C   0  0  0  0  0  0  0  0  0  0  0  0
   -3.0000   -2.5981    0.0000 C   0  0  0  0  0  0  0  0  0  0  0  0
   -3.7500   -3.8971    0.0000 C   0  0  0  0  0  0  0  0  0  0  0  0
   -3.0000   -5.1962    0.0000 C   0  0  0  0  0  0  0  0  0  0  0  0
   -1.5000   -5.1962    0.0000 C   0  0  0  0  0  0  0  0  0  0  0  0
  1  2  1  0
  2  3  1  0
  3  4  1  0
  4  5  2  0
  4  6  1  0
  6  7  2  0
  7  8  1  0
  8  9  2  0
  9 10  1  0
 10 11  2  0
 10 12  1  0
 12 13  2  0
 13 14  1  0
 14 15  1  0
 15 16  2  0
 15 17  1  0
 17 18  2  0
 18 19  1  0
 19 20  2  0
 20 21  1  0
 20 22  1  0
 22 23  2  0
 13 24  1  0
 24 25  1  0
 25 26  1  0
 26 27  1  0
 27 28  1  0
 27 29  2  0
  3 30  1  0
 30 31  1  0
 31 32  1  0
 32 33  1  0
 33 34  1  0
 34 35  1  0
 11  6  1  0
 23 17  1  0
 35 30  1  0
 24  9  1  0
M  END
>  <Compound_ID>  (90) 
CHEMBL232363

>  <Molecule Name>  (90) 
nan

>  <Molecular Weight>  (90) 
540.46

>  <AlogP>  (90) 
4.72

>  <Smiles>  (90) 
CCN(C(=O)c1ccc2c(c1)nc(NC(=O)c1ccc(Br)cc1)n2CCC(N)=O)C1CCCCC1

>  <Standard Type>  (90) 
IC50

>  <Standard Relation>  (90) 
'='

>  <Standard Units>  (90) 
nM

>  <Standard Value>  (90) 
81.0

>  <Assay ChEMBL ID>  (90) 
CHEMBL896373

>  <Assay Description>  (90) 
Inhibition of human ITK by DELFIA assay

>  <BAO Format ID>  (90) 
BAO_0000357

>  <BAO Label>  (90) 
single protein format

>  <Assay Organism>  (90) 
Homo sapiens

>  <Target ChEMBL ID>  (90) 
CHEMBL2959

>  <Target Name>  (90) 
Tyrosine-protein kinase ITK/TSK

>  <Target Organism>  (90) 
Homo sapiens

>  <Target Type>  (90) 
SINGLE PROTEIN

>  <Document ChEMBL ID>  (90) 
CHEMBL1148883

>  <Source Description>  (90) 
Scientific Literature

>  <Document Journal>  (90) 
Bioorg Med Chem Lett

>  <Document Year>  (90) 
2007.0

>  <Active>  (90) 
1.0

$$$$

     RDKit          2D

 30 33  0  0  0  0  0  0  0  0999 V2000
    3.7500   -1.2990    0.0000 C   0  0  0  0  0  0  0  0  0  0  0  0
    3.0000    0.0000    0.0000 N   0  0  0  0  0  0  0  0  0  0  0  0
    1.5000    0.0000    0.0000 C   0  0  0  0  0  0  0  0  0  0  0  0
    0.7500   -1.2990    0.0000 C   0  0  0  0  0  0  0  0  0  0  0  0
   -0.7500   -1.2990    0.0000 N   0  0  0  0  0  0  0  0  0  0  0  0
   -1.5000    0.0000    0.0000 C   0  0  0  0  0  0  0  0  0  0  0  0
   -0.7500    1.2990    0.0000 C   0  0  0  0  0  0  0  0  0  0  0  0
   -1.5000    2.5981    0.0000 C   0  0  0  0  0  0  0  0  0  0  0  0
   -0.7500    3.8971    0.0000 C   0  0  0  0  0  0  0  0  0  0  0  0
   -1.5000    5.1962    0.0000 N   0  0  0  0  0  0  0  0  0  0  0  0
   -3.0000    5.1962    0.0000 C   0  0  0  0  0  0  0  0  0  0  0  0
   -3.7500    6.4952    0.0000 O   0  0  0  0  0  0  0  0  0  0  0  0
   -3.7500    3.8971    0.0000 C   0  0  0  0  0  0  0  0  0  0  0  0
   -5.2500    3.8971    0.0000 N   0  0  0  0  0  0  0  0  0  0  0  0
   -6.0000    2.5981    0.0000 C   0  0  0  0  0  0  0  0  0  0  0  0
   -5.2500    1.2990    0.0000 O   0  0  0  0  0  0  0  0  0  0  0  0
   -7.5000    2.5981    0.0000 C   0  0  0  0  0  0  0  0  0  0  0  0
   -8.2500    3.8971    0.0000 C   0  0  0  0  0  0  0  0  0  0  0  0
   -9.7500    3.8971    0.0000 C   0  0  0  0  0  0  0  0  0  0  0  0
  -10.5000    2.5981    0.0000 C   0  0  0  0  0  0  0  0  0  0  0  0
  -12.0000    2.5981    0.0000 N   0  0  0  0  0  0  0  0  0  0  0  0
  -12.7500    3.8971    0.0000 C   0  0  0  0  0  0  0  0  0  0  0  0
  -14.2500    3.8971    0.0000 C   0  0  0  0  0  0  0  0  0  0  0  0
  -15.0000    2.5981    0.0000 C   0  0  0  0  0  0  0  0  0  0  0  0
  -14.2500    1.2990    0.0000 C   0  0  0  0  0  0  0  0  0  0  0  0
  -12.7500    1.2990    0.0000 C   0  0  0  0  0  0  0  0  0  0  0  0
   -9.7500    1.2990    0.0000 C   0  0  0  0  0  0  0  0  0  0  0  0
   -8.2500    1.2990    0.0000 C   0  0  0  0  0  0  0  0  0  0  0  0
   -3.0000    2.5981    0.0000 C   0  0  0  0  0  0  0  0  0  0  0  0
    0.7500    1.2990    0.0000 C   0  0  0  0  0  0  0  0  0  0  0  0
  1  2  1  0
  2  3  1  0
  3  4  2  0
  4  5  1  0
  5  6  2  0
  6  7  1  0
  7  8  1  0
  8  9  2  0
  9 10  1  0
 10 11  1  0
 11 12  2  0
 11 13  1  0
 13 14  1  0
 14 15  1  0
 15 16  2  0
 15 17  1  0
 17 18  2  0
 18 19  1  0
 19 20  2  0
 20 21  1  0
 21 22  1  0
 22 23  1  0
 23 24  1  0
 24 25  1  0
 25 26  1  0
 20 27  1  0
 27 28  2  0
 13 29  2  0
  7 30  2  0
 30  3  1  0
 29  8  1  0
 28 17  1  0
 26 21  1  0
M  END
>  <Compound_ID>  (91) 
CHEMBL1765780

>  <Molecule Name>  (91) 
nan

>  <Molecular Weight>  (91) 
403.49

>  <AlogP>  (91) 
3.72

>  <Smiles>  (91) 
CNc1cncc(-c2c[nH]c(=O)c(NC(=O)c3ccc(N4CCCCC4)cc3)c2)c1

>  <Standard Type>  (91) 
Ki

>  <Standard Relation>  (91) 
'='

>  <Standard Units>  (91) 
nM

>  <Standard Value>  (91) 
23.0

>  <Assay ChEMBL ID>  (91) 
CHEMBL1768448

>  <Assay Description>  (91) 
Inhibition of Itk after 40 mins by radiometric phosphate incorporation assay

>  <BAO Format ID>  (91) 
BAO_0000357

>  <BAO Label>  (91) 
single protein format

>  <Assay Organism>  (91) 
None

>  <Target ChEMBL ID>  (91) 
CHEMBL2959

>  <Target Name>  (91) 
Tyrosine-protein kinase ITK/TSK

>  <Target Organism>  (91) 
Homo sapiens

>  <Target Type>  (91) 
SINGLE PROTEIN

>  <Document ChEMBL ID>  (91) 
CHEMBL1765075

>  <Source Description>  (91) 
Scientific Literature

>  <Document Journal>  (91) 
J Med Chem

>  <Document Year>  (91) 
2011.0

>  <Active>  (91) 
1.0

$$$$

     RDKit          2D

 30 33  0  0  0  0  0  0  0  0999 V2000
    3.7500   -1.2990    0.0000 C   0  0  0  0  0  0  0  0  0  0  0  0
    3.0000    0.0000    0.0000 N   0  0  0  0  0  0  0  0  0  0  0  0
    1.5000    0.0000    0.0000 C   0  0  0  0  0  0  0  0  0  0  0  0
    0.7500   -1.2990    0.0000 C   0  0  0  0  0  0  0  0  0  0  0  0
   -0.7500   -1.2990    0.0000 C   0  0  0  0  0  0  0  0  0  0  0  0
   -1.5000   -2.5981    0.0000 C   0  0  0  0  0  0  0  0  0  0  0  0
   -3.0000   -2.5981    0.0000 C   0  0  0  0  0  0  0  0  0  0  0  0
   -3.7500   -3.8971    0.0000 N   0  0  0  0  0  0  0  0  0  0  0  0
   -3.0000   -5.1962    0.0000 C   0  0  0  0  0  0  0  0  0  0  0  0
   -3.7500   -6.4952    0.0000 O   0  0  0  0  0  0  0  0  0  0  0  0
   -1.5000   -5.1962    0.0000 C   0  0  0  0  0  0  0  0  0  0  0  0
   -0.7500   -6.4952    0.0000 N   0  0  0  0  0  0  0  0  0  0  0  0
    0.7500   -6.4952    0.0000 C   0  0  0  0  0  0  0  0  0  0  0  0
    1.5000   -5.1962    0.0000 O   0  0  0  0  0  0  0  0  0  0  0  0
    1.5000   -7.7942    0.0000 C   0  0  0  0  0  0  0  0  0  0  0  0
    0.7500   -9.0933    0.0000 C   0  0  0  0  0  0  0  0  0  0  0  0
    1.5000  -10.3923    0.0000 C   0  0  0  0  0  0  0  0  0  0  0  0
    3.0000  -10.3923    0.0000 C   0  0  0  0  0  0  0  0  0  0  0  0
    3.7500  -11.6913    0.0000 N   0  0  0  0  0  0  0  0  0  0  0  0
    3.0000  -12.9904    0.0000 C   0  0  0  0  0  0  0  0  0  0  0  0
    3.7500  -14.2894    0.0000 C   0  0  0  0  0  0  0  0  0  0  0  0
    5.2500  -14.2894    0.0000 C   0  0  0  0  0  0  0  0  0  0  0  0
    6.0000  -12.9904    0.0000 C   0  0  0  0  0  0  0  0  0  0  0  0
    5.2500  -11.6913    0.0000 C   0  0  0  0  0  0  0  0  0  0  0  0
    3.7500   -9.0933    0.0000 C   0  0  0  0  0  0  0  0  0  0  0  0
    3.0000   -7.7942    0.0000 C   0  0  0  0  0  0  0  0  0  0  0  0
   -0.7500   -3.8971    0.0000 C   0  0  0  0  0  0  0  0  0  0  0  0
   -1.5000    0.0000    0.0000 N   0  0  0  0  0  0  0  0  0  0  0  0
   -0.7500    1.2990    0.0000 C   0  0  0  0  0  0  0  0  0  0  0  0
    0.7500    1.2990    0.0000 N   0  0  0  0  0  0  0  0  0  0  0  0
  1  2  1  0
  2  3  1  0
  3  4  2  0
  4  5  1  0
  5  6  1  0
  6  7  2  0
  7  8  1  0
  8  9  1  0
  9 10  2  0
  9 11  1  0
 11 12  1  0
 12 13  1  0
 13 14  2  0
 13 15  1  0
 15 16  2  0
 16 17  1  0
 17 18  2  0
 18 19  1  0
 19 20  1  0
 20 21  1  0
 21 22  1  0
 22 23  1  0
 23 24  1  0
 18 25  1  0
 25 26  2  0
 11 27  2  0
  5 28  2  0
 28 29  1  0
 29 30  2  0
 30  3  1  0
 27  6  1  0
 26 15  1  0
 24 19  1  0
M  END
>  <Compound_ID>  (92) 
CHEMBL1765775

>  <Molecule Name>  (92) 
nan

>  <Molecular Weight>  (92) 
404.47

>  <AlogP>  (92) 
3.12

>  <Smiles>  (92) 
CNc1cc(-c2c[nH]c(=O)c(NC(=O)c3ccc(N4CCCCC4)cc3)c2)ncn1

>  <Standard Type>  (92) 
Ki

>  <Standard Relation>  (92) 
'='

>  <Standard Units>  (92) 
nM

>  <Standard Value>  (92) 
46.0

>  <Assay ChEMBL ID>  (92) 
CHEMBL1768448

>  <Assay Description>  (92) 
Inhibition of Itk after 40 mins by radiometric phosphate incorporation assay

>  <BAO Format ID>  (92) 
BAO_0000357

>  <BAO Label>  (92) 
single protein format

>  <Assay Organism>  (92) 
None

>  <Target ChEMBL ID>  (92) 
CHEMBL2959

>  <Target Name>  (92) 
Tyrosine-protein kinase ITK/TSK

>  <Target Organism>  (92) 
Homo sapiens

>  <Target Type>  (92) 
SINGLE PROTEIN

>  <Document ChEMBL ID>  (92) 
CHEMBL1765075

>  <Source Description>  (92) 
Scientific Literature

>  <Document Journal>  (92) 
J Med Chem

>  <Document Year>  (92) 
2011.0

>  <Active>  (92) 
1.0

$$$$

     RDKit          2D

 33 36  0  0  0  0  0  0  0  0999 V2000
    0.7500   -3.8971    0.0000 C   0  0  0  0  0  0  0  0  0  0  0  0
    1.5000   -2.5981    0.0000 N   0  0  0  0  0  0  0  0  0  0  0  0
    3.0000   -2.5981    0.0000 C   0  0  0  0  0  0  0  0  0  0  0  0
    3.7500   -1.2990    0.0000 O   0  0  0  0  0  0  0  0  0  0  0  0
    3.7500   -3.8971    0.0000 C   0  0  0  0  0  0  0  0  0  0  0  0
    3.0000   -5.1962    0.0000 C   0  0  0  0  0  0  0  0  0  0  0  0
    3.7500   -6.4952    0.0000 C   0  0  0  0  0  0  0  0  0  0  0  0
    5.2500   -6.4952    0.0000 C   0  0  0  0  0  0  0  0  0  0  0  0
    6.0000   -5.1962    0.0000 C   0  0  0  0  0  0  0  0  0  0  0  0
    5.2500   -3.8971    0.0000 C   0  0  0  0  0  0  0  0  0  0  0  0
    0.7500   -1.2990    0.0000 C   0  0  0  0  0  0  0  0  0  0  0  0
    1.5000    0.0000    0.0000 C   0  0  0  0  0  0  0  0  0  0  0  0
    0.7500    1.2990    0.0000 C   0  0  0  0  0  0  0  0  0  0  0  0
   -0.7500    1.2990    0.0000 C   0  0  0  0  0  0  0  0  0  0  0  0
   -1.5000    0.0000    0.0000 C   0  0  0  0  0  0  0  0  0  0  0  0
   -0.7500   -1.2990    0.0000 C   0  0  0  0  0  0  0  0  0  0  0  0
   -2.9672    0.3119    0.0000 N   0  0  0  0  0  0  0  0  0  0  0  0
   -3.1240    1.8037    0.0000 C   0  0  0  0  0  0  0  0  0  0  0  0
   -4.4231    2.5537    0.0000 N   0  0  0  0  0  0  0  0  0  0  0  0
   -5.7221    1.8037    0.0000 C   0  0  0  0  0  0  0  0  0  0  0  0
   -5.7221    0.3037    0.0000 O   0  0  0  0  0  0  0  0  0  0  0  0
   -7.0211    2.5537    0.0000 C   0  0  0  0  0  0  0  0  0  0  0  0
   -8.3914    1.9435    0.0000 C   0  0  0  0  0  0  0  0  0  0  0  0
   -9.3951    3.0583    0.0000 C   0  0  0  0  0  0  0  0  0  0  0  0
   -8.6451    4.3573    0.0000 C   0  0  0  0  0  0  0  0  0  0  0  0
   -9.2552    5.7276    0.0000 Cl  0  0  0  0  0  0  0  0  0  0  0  0
   -7.1779    4.0454    0.0000 S   0  0  0  0  0  0  0  0  0  0  0  0
   -1.7537    2.4138    0.0000 N   0  0  0  0  0  0  0  0  0  0  0  0
   -1.4418    3.8810    0.0000 C   0  0  0  0  0  0  0  0  0  0  0  0
   -0.0152    4.3445    0.0000 C   0  0  0  0  0  0  0  0  0  0  0  0
    0.2966    5.8117    0.0000 C   0  0  0  0  0  0  0  0  0  0  0  0
    1.7232    6.2752    0.0000 N   0  0  0  0  0  0  0  0  0  0  0  0
   -0.8181    6.8154    0.0000 O   0  0  0  0  0  0  0  0  0  0  0  0
  1  2  1  0
  2  3  1  0
  3  4  2  0
  3  5  1  0
  5  6  2  0
  6  7  1  0
  7  8  2  0
  8  9  1  0
  9 10  2  0
  2 11  1  0
 11 12  2  0
 12 13  1  0
 13 14  2  0
 14 15  1  0
 15 16  2  0
 15 17  1  0
 17 18  1  0
 18 19  2  0
 19 20  1  0
 20 21  2  0
 20 22  1  0
 22 23  2  0
 23 24  1  0
 24 25  2  0
 25 26  1  0
 25 27  1  0
 18 28  1  0
 28 29  1  0
 29 30  1  0
 30 31  1  0
 31 32  1  0
 31 33  2  0
 10  5  1  0
 16 11  1  0
 27 22  1  0
 28 14  1  0
M  END
>  <Compound_ID>  (93) 
CHEMBL481379

>  <Molecule Name>  (93) 
nan

>  <Molecular Weight>  (93) 
481.97

>  <AlogP>  (93) 
3.58

>  <Smiles>  (93) 
CN(C(=O)c1ccccc1)c1ccc2c(c1)[nH]/c(=N\C(=O)c1ccc(Cl)s1)n2CCC(N)=O

>  <Standard Type>  (93) 
IC50

>  <Standard Relation>  (93) 
'='

>  <Standard Units>  (93) 
nM

>  <Standard Value>  (93) 
14.0

>  <Assay ChEMBL ID>  (93) 
CHEMBL992190

>  <Assay Description>  (93) 
Inhibition of ITK by DELFIA method

>  <BAO Format ID>  (93) 
BAO_0000357

>  <BAO Label>  (93) 
single protein format

>  <Assay Organism>  (93) 
None

>  <Target ChEMBL ID>  (93) 
CHEMBL2959

>  <Target Name>  (93) 
Tyrosine-protein kinase ITK/TSK

>  <Target Organism>  (93) 
Homo sapiens

>  <Target Type>  (93) 
SINGLE PROTEIN

>  <Document ChEMBL ID>  (93) 
CHEMBL1143295

>  <Source Description>  (93) 
Scientific Literature

>  <Document Journal>  (93) 
Bioorg Med Chem Lett

>  <Document Year>  (93) 
2009.0

>  <Active>  (93) 
1.0

$$$$

     RDKit          2D

 40 44  0  0  0  0  0  0  0  0999 V2000
    0.7500   -3.8971    0.0000 C   0  0  0  0  0  0  0  0  0  0  0  0
    1.5000   -2.5981    0.0000 N   0  0  0  0  0  0  0  0  0  0  0  0
    3.0000   -2.5981    0.0000 C   0  0  0  0  0  0  0  0  0  0  0  0
    3.7500   -1.2990    0.0000 O   0  0  0  0  0  0  0  0  0  0  0  0
    3.7500   -3.8971    0.0000 C   0  0  0  0  0  0  0  0  0  0  0  0
    3.0000   -5.1962    0.0000 C   0  0  0  0  0  0  0  0  0  0  0  0
    3.7500   -6.4952    0.0000 C   0  0  0  0  0  0  0  0  0  0  0  0
    5.2500   -6.4952    0.0000 C   0  0  0  0  0  0  0  0  0  0  0  0
    6.0000   -5.1962    0.0000 C   0  0  0  0  0  0  0  0  0  0  0  0
    5.2500   -3.8971    0.0000 C   0  0  0  0  0  0  0  0  0  0  0  0
    0.7500   -1.2990    0.0000 C   0  0  0  0  0  0  0  0  0  0  0  0
    1.5000    0.0000    0.0000 C   0  0  0  0  0  0  0  0  0  0  0  0
    0.7500    1.2990    0.0000 C   0  0  0  0  0  0  0  0  0  0  0  0
   -0.7500    1.2990    0.0000 C   0  0  0  0  0  0  0  0  0  0  0  0
   -1.5000    0.0000    0.0000 C   0  0  0  0  0  0  0  0  0  0  0  0
   -0.7500   -1.2990    0.0000 C   0  0  0  0  0  0  0  0  0  0  0  0
   -2.9672    0.3119    0.0000 N   0  0  0  0  0  0  0  0  0  0  0  0
   -3.1240    1.8037    0.0000 C   0  0  0  0  0  0  0  0  0  0  0  0
   -4.4231    2.5537    0.0000 N   0  0  0  0  0  0  0  0  0  0  0  0
   -5.7221    1.8037    0.0000 C   0  0  0  0  0  0  0  0  0  0  0  0
   -5.7221    0.3037    0.0000 O   0  0  0  0  0  0  0  0  0  0  0  0
   -7.0211    2.5537    0.0000 C   0  0  0  0  0  0  0  0  0  0  0  0
   -8.3914    1.9435    0.0000 C   0  0  0  0  0  0  0  0  0  0  0  0
   -9.3951    3.0583    0.0000 C   0  0  0  0  0  0  0  0  0  0  0  0
   -8.6451    4.3573    0.0000 C   0  0  0  0  0  0  0  0  0  0  0  0
   -9.2552    5.7276    0.0000 C   0  0  0  0  0  0  0  0  0  0  0  0
   -8.3736    6.9411    0.0000 C   0  0  0  0  0  0  0  0  0  0  0  0
   -8.9837    8.3115    0.0000 N   0  0  0  0  0  0  0  0  0  0  0  0
  -10.4755    8.4683    0.0000 C   0  0  0  0  0  0  0  0  0  0  0  0
  -11.3571    7.2547    0.0000 C   0  0  0  0  0  0  0  0  0  0  0  0
  -12.8489    7.4115    0.0000 C   0  0  0  0  0  0  0  0  0  0  0  0
  -14.3407    7.5683    0.0000 N   0  0  0  0  0  0  0  0  0  0  0  0
  -10.7470    5.8844    0.0000 C   0  0  0  0  0  0  0  0  0  0  0  0
   -7.1779    4.0454    0.0000 S   0  0  0  0  0  0  0  0  0  0  0  0
   -1.7537    2.4138    0.0000 N   0  0  0  0  0  0  0  0  0  0  0  0
   -1.4418    3.8810    0.0000 C   0  0  0  0  0  0  0  0  0  0  0  0
   -0.0152    4.3445    0.0000 C   0  0  0  0  0  0  0  0  0  0  0  0
    0.2966    5.8117    0.0000 C   0  0  0  0  0  0  0  0  0  0  0  0
    1.7232    6.2752    0.0000 N   0  0  0  0  0  0  0  0  0  0  0  0
   -0.8181    6.8154    0.0000 O   0  0  0  0  0  0  0  0  0  0  0  0
  1  2  1  0
  2  3  1  0
  3  4  2  0
  3  5  1  0
  5  6  2  0
  6  7  1  0
  7  8  2  0
  8  9  1  0
  9 10  2  0
  2 11  1  0
 11 12  2  0
 12 13  1  0
 13 14  2  0
 14 15  1  0
 15 16  2  0
 15 17  1  0
 17 18  1  0
 18 19  2  0
 19 20  1  0
 20 21  2  0
 20 22  1  0
 22 23  2  0
 23 24  1  0
 24 25  2  0
 25 26  1  0
 26 27  2  0
 27 28  1  0
 28 29  2  0
 29 30  1  0
 30 31  1  0
 31 32  3  0
 30 33  2  0
 25 34  1  0
 18 35  1  0
 35 36  1  0
 36 37  1  0
 37 38  1  0
 38 39  1  0
 38 40  2  0
 10  5  1  0
 16 11  1  0
 34 22  1  0
 35 14  1  0
 33 26  1  0
M  END
>  <Compound_ID>  (94) 
CHEMBL481900

>  <Molecule Name>  (94) 
nan

>  <Molecular Weight>  (94) 
549.62

>  <AlogP>  (94) 
3.86

>  <Smiles>  (94) 
CN(C(=O)c1ccccc1)c1ccc2c(c1)[nH]/c(=N\C(=O)c1ccc(-c3cncc(C#N)c3)s1)n2CCC(N)=O

>  <Standard Type>  (94) 
IC50

>  <Standard Relation>  (94) 
'='

>  <Standard Units>  (94) 
nM

>  <Standard Value>  (94) 
2.0

>  <Assay ChEMBL ID>  (94) 
CHEMBL992190

>  <Assay Description>  (94) 
Inhibition of ITK by DELFIA method

>  <BAO Format ID>  (94) 
BAO_0000357

>  <BAO Label>  (94) 
single protein format

>  <Assay Organism>  (94) 
None

>  <Target ChEMBL ID>  (94) 
CHEMBL2959

>  <Target Name>  (94) 
Tyrosine-protein kinase ITK/TSK

>  <Target Organism>  (94) 
Homo sapiens

>  <Target Type>  (94) 
SINGLE PROTEIN

>  <Document ChEMBL ID>  (94) 
CHEMBL1143295

>  <Source Description>  (94) 
Scientific Literature

>  <Document Journal>  (94) 
Bioorg Med Chem Lett

>  <Document Year>  (94) 
2009.0

>  <Active>  (94) 
1.0

$$$$

     RDKit          2D

 30 32  0  0  0  0  0  0  0  0999 V2000
    5.2500    1.2990    0.0000 C   0  0  0  0  0  0  0  0  0  0  0  0
    3.7500    1.2990    0.0000 C   0  0  0  0  0  0  0  0  0  0  0  0
    3.0000    2.5981    0.0000 O   0  0  0  0  0  0  0  0  0  0  0  0
    3.0000    0.0000    0.0000 N   0  0  0  0  0  0  0  0  0  0  0  0
    3.7500   -1.2990    0.0000 C   0  0  0  0  0  0  0  0  0  0  0  0
    1.5000    0.0000    0.0000 C   0  0  0  0  0  0  0  0  0  0  0  0
    0.7500   -1.2990    0.0000 C   0  0  0  0  0  0  0  0  0  0  0  0
   -0.7500   -1.2990    0.0000 C   0  0  0  0  0  0  0  0  0  0  0  0
   -1.5000    0.0000    0.0000 C   0  0  0  0  0  0  0  0  0  0  0  0
   -0.7500    1.2990    0.0000 C   0  0  0  0  0  0  0  0  0  0  0  0
    0.7500    1.2990    0.0000 C   0  0  0  0  0  0  0  0  0  0  0  0
   -1.7537    2.4138    0.0000 N   0  0  0  0  0  0  0  0  0  0  0  0
   -3.1240    1.8037    0.0000 C   0  0  0  0  0  0  0  0  0  0  0  0
   -4.4231    2.5537    0.0000 N   0  0  0  0  0  0  0  0  0  0  0  0
   -4.4231    4.0537    0.0000 C   0  0  0  0  0  0  0  0  0  0  0  0
   -3.1240    4.8037    0.0000 O   0  0  0  0  0  0  0  0  0  0  0  0
   -5.7221    4.8037    0.0000 C   0  0  0  0  0  0  0  0  0  0  0  0
   -5.7221    6.3037    0.0000 C   0  0  0  0  0  0  0  0  0  0  0  0
   -7.0211    7.0537    0.0000 C   0  0  0  0  0  0  0  0  0  0  0  0
   -8.3202    6.3037    0.0000 C   0  0  0  0  0  0  0  0  0  0  0  0
   -9.6192    7.0537    0.0000 C   0  0  0  0  0  0  0  0  0  0  0  0
  -10.9182    7.8037    0.0000 N   0  0  0  0  0  0  0  0  0  0  0  0
   -8.3202    4.8037    0.0000 C   0  0  0  0  0  0  0  0  0  0  0  0
   -7.0211    4.0537    0.0000 C   0  0  0  0  0  0  0  0  0  0  0  0
   -2.9672    0.3119    0.0000 N   0  0  0  0  0  0  0  0  0  0  0  0
   -4.0819   -0.6918    0.0000 C   0  0  0  0  0  0  0  0  0  0  0  0
   -5.5085   -0.2283    0.0000 C   0  0  0  0  0  0  0  0  0  0  0  0
   -6.6232   -1.2320    0.0000 C   0  0  0  0  0  0  0  0  0  0  0  0
   -8.0498   -0.7685    0.0000 N   0  0  0  0  0  0  0  0  0  0  0  0
   -6.3114   -2.6992    0.0000 O   0  0  0  0  0  0  0  0  0  0  0  0
  1  2  1  0
  2  3  2  0
  2  4  1  0
  4  5  1  0
  4  6  1  0
  6  7  2  0
  7  8  1  0
  8  9  2  0
  9 10  1  0
 10 11  2  0
 10 12  1  0
 12 13  2  0
 13 14  1  0
 14 15  1  0
 15 16  2  0
 15 17  1  0
 17 18  2  0
 18 19  1  0
 19 20  2  0
 20 21  1  0
 21 22  3  0
 20 23  1  0
 23 24  2  0
 13 25  1  0
 25 26  1  0
 26 27  1  0
 27 28  1  0
 28 29  1  0
 28 30  2  0
 11  6  1  0
 24 17  1  0
 25  9  1  0
M  END
>  <Compound_ID>  (95) 
CHEMBL458797

>  <Molecule Name>  (95) 
nan

>  <Molecular Weight>  (95) 
404.43

>  <AlogP>  (95) 
2.02

>  <Smiles>  (95) 
CC(=O)N(C)c1ccc2c(c1)nc(NC(=O)c1ccc(C#N)cc1)n2CCC(N)=O

>  <Standard Type>  (95) 
IC50

>  <Standard Relation>  (95) 
'='

>  <Standard Units>  (95) 
nM

>  <Standard Value>  (95) 
59.0

>  <Assay ChEMBL ID>  (95) 
CHEMBL992563

>  <Assay Description>  (95) 
Inhibition of ITK by DELFIA assay

>  <BAO Format ID>  (95) 
BAO_0000357

>  <BAO Label>  (95) 
single protein format

>  <Assay Organism>  (95) 
None

>  <Target ChEMBL ID>  (95) 
CHEMBL2959

>  <Target Name>  (95) 
Tyrosine-protein kinase ITK/TSK

>  <Target Organism>  (95) 
Homo sapiens

>  <Target Type>  (95) 
SINGLE PROTEIN

>  <Document ChEMBL ID>  (95) 
CHEMBL1142468

>  <Source Description>  (95) 
Scientific Literature

>  <Document Journal>  (95) 
Bioorg Med Chem Lett

>  <Document Year>  (95) 
2008.0

>  <Active>  (95) 
1.0

$$$$

     RDKit          2D

 27 29  0  0  0  0  0  0  0  0999 V2000
    3.7500   -1.2990    0.0000 C   0  0  0  0  0  0  0  0  0  0  0  0
    3.0000    0.0000    0.0000 N   0  0  0  0  0  0  0  0  0  0  0  0
    1.5000    0.0000    0.0000 C   0  0  0  0  0  0  0  0  0  0  0  0
    0.7500   -1.2990    0.0000 C   0  0  0  0  0  0  0  0  0  0  0  0
   -0.7500   -1.2990    0.0000 C   0  0  0  0  0  0  0  0  0  0  0  0
   -1.5000    0.0000    0.0000 C   0  0  0  0  0  0  0  0  0  0  0  0
   -0.7500    1.2990    0.0000 C   0  0  0  0  0  0  0  0  0  0  0  0
    0.7500    1.2990    0.0000 C   0  0  0  0  0  0  0  0  0  0  0  0
   -1.7537    2.4138    0.0000 N   0  0  0  0  0  0  0  0  0  0  0  0
   -3.1240    1.8037    0.0000 C   0  0  0  0  0  0  0  0  0  0  0  0
   -4.4231    2.5537    0.0000 N   0  0  0  0  0  0  0  0  0  0  0  0
   -4.4231    4.0537    0.0000 C   0  0  0  0  0  0  0  0  0  0  0  0
   -3.1240    4.8037    0.0000 O   0  0  0  0  0  0  0  0  0  0  0  0
   -5.7221    4.8037    0.0000 C   0  0  0  0  0  0  0  0  0  0  0  0
   -5.7221    6.3037    0.0000 C   0  0  0  0  0  0  0  0  0  0  0  0
   -7.0211    7.0537    0.0000 C   0  0  0  0  0  0  0  0  0  0  0  0
   -8.3202    6.3037    0.0000 C   0  0  0  0  0  0  0  0  0  0  0  0
   -9.6192    7.0537    0.0000 C   0  0  0  0  0  0  0  0  0  0  0  0
  -10.9182    7.8037    0.0000 N   0  0  0  0  0  0  0  0  0  0  0  0
   -8.3202    4.8037    0.0000 C   0  0  0  0  0  0  0  0  0  0  0  0
   -7.0211    4.0537    0.0000 C   0  0  0  0  0  0  0  0  0  0  0  0
   -2.9672    0.3119    0.0000 N   0  0  0  0  0  0  0  0  0  0  0  0
   -4.0819   -0.6918    0.0000 C   0  0  0  0  0  0  0  0  0  0  0  0
   -5.5085   -0.2283    0.0000 C   0  0  0  0  0  0  0  0  0  0  0  0
   -6.6232   -1.2320    0.0000 C   0  0  0  0  0  0  0  0  0  0  0  0
   -8.0498   -0.7685    0.0000 N   0  0  0  0  0  0  0  0  0  0  0  0
   -6.3114   -2.6992    0.0000 O   0  0  0  0  0  0  0  0  0  0  0  0
  1  2  1  0
  2  3  1  0
  3  4  2  0
  4  5  1  0
  5  6  2  0
  6  7  1  0
  7  8  2  0
  7  9  1  0
  9 10  2  0
 10 11  1  0
 11 12  1  0
 12 13  2  0
 12 14  1  0
 14 15  2  0
 15 16  1  0
 16 17  2  0
 17 18  1  0
 18 19  3  0
 17 20  1  0
 20 21  2  0
 10 22  1  0
 22 23  1  0
 23 24  1  0
 24 25  1  0
 25 26  1  0
 25 27  2  0
  8  3  1  0
 21 14  1  0
 22  6  1  0
M  END
>  <Compound_ID>  (96) 
CHEMBL461029

>  <Molecule Name>  (96) 
nan

>  <Molecular Weight>  (96) 
362.39

>  <AlogP>  (96) 
2.08

>  <Smiles>  (96) 
CNc1ccc2c(c1)nc(NC(=O)c1ccc(C#N)cc1)n2CCC(N)=O

>  <Standard Type>  (96) 
IC50

>  <Standard Relation>  (96) 
'='

>  <Standard Units>  (96) 
nM

>  <Standard Value>  (96) 
76.0

>  <Assay ChEMBL ID>  (96) 
CHEMBL992563

>  <Assay Description>  (96) 
Inhibition of ITK by DELFIA assay

>  <BAO Format ID>  (96) 
BAO_0000357

>  <BAO Label>  (96) 
single protein format

>  <Assay Organism>  (96) 
None

>  <Target ChEMBL ID>  (96) 
CHEMBL2959

>  <Target Name>  (96) 
Tyrosine-protein kinase ITK/TSK

>  <Target Organism>  (96) 
Homo sapiens

>  <Target Type>  (96) 
SINGLE PROTEIN

>  <Document ChEMBL ID>  (96) 
CHEMBL1142468

>  <Source Description>  (96) 
Scientific Literature

>  <Document Journal>  (96) 
Bioorg Med Chem Lett

>  <Document Year>  (96) 
2008.0

>  <Active>  (96) 
1.0

$$$$

     RDKit          2D

 35 38  0  0  0  0  0  0  0  0999 V2000
    1.2990  -11.8573    0.0000 C   0  0  0  0  0  0  0  0  0  0  0  0
    1.2990  -10.3573    0.0000 O   0  0  0  0  0  0  0  0  0  0  0  0
   -0.0000   -9.6073    0.0000 C   0  0  0  0  0  0  0  0  0  0  0  0
   -1.2990  -10.3573    0.0000 C   0  0  0  0  0  0  0  0  0  0  0  0
   -2.5981   -9.6073    0.0000 C   0  0  0  0  0  0  0  0  0  0  0  0
   -2.5981   -8.1073    0.0000 C   0  0  0  0  0  0  0  0  0  0  0  0
   -1.2990   -7.3573    0.0000 C   0  0  0  0  0  0  0  0  0  0  0  0
   -1.2990   -5.8573    0.0000 C   0  0  0  0  0  0  0  0  0  0  0  0
   -2.5981   -5.1073    0.0000 O   0  0  0  0  0  0  0  0  0  0  0  0
   -0.0000   -5.1073    0.0000 N   0  0  0  0  0  0  0  0  0  0  0  0
   -0.0000   -3.6073    0.0000 C   0  0  0  0  0  0  0  0  0  0  0  0
    1.2135   -2.7256    0.0000 N   0  0  0  0  0  0  0  0  0  0  0  0
    0.7500   -1.2990    0.0000 C   0  0  0  0  0  0  0  0  0  0  0  0
    1.5000    0.0000    0.0000 C   0  0  0  0  0  0  0  0  0  0  0  0
    0.7500    1.2990    0.0000 C   0  0  0  0  0  0  0  0  0  0  0  0
    1.5000    2.5981    0.0000 N   0  0  0  0  0  0  0  0  0  0  0  0
    3.0000    2.5981    0.0000 C   0  0  0  0  0  0  0  0  0  0  0  0
    0.7500    3.8971    0.0000 C   0  0  0  0  0  0  0  0  0  0  0  0
   -0.7500    3.8971    0.0000 O   0  0  0  0  0  0  0  0  0  0  0  0
    1.5000    5.1962    0.0000 C   0  0  0  0  0  0  0  0  0  0  0  0
    3.0000    5.1962    0.0000 C   0  0  0  0  0  0  0  0  0  0  0  0
    3.7500    6.4952    0.0000 C   0  0  0  0  0  0  0  0  0  0  0  0
    3.0000    7.7942    0.0000 C   0  0  0  0  0  0  0  0  0  0  0  0
    1.5000    7.7942    0.0000 C   0  0  0  0  0  0  0  0  0  0  0  0
    0.7500    6.4952    0.0000 C   0  0  0  0  0  0  0  0  0  0  0  0
   -0.7500    1.2990    0.0000 C   0  0  0  0  0  0  0  0  0  0  0  0
   -1.5000    0.0000    0.0000 C   0  0  0  0  0  0  0  0  0  0  0  0
   -0.7500   -1.2990    0.0000 C   0  0  0  0  0  0  0  0  0  0  0  0
   -1.2135   -2.7256    0.0000 N   0  0  0  0  0  0  0  0  0  0  0  0
   -2.6401   -3.1891    0.0000 C   0  0  0  0  0  0  0  0  0  0  0  0
   -3.7548   -2.1855    0.0000 C   0  0  0  0  0  0  0  0  0  0  0  0
   -5.1814   -2.6490    0.0000 C   0  0  0  0  0  0  0  0  0  0  0  0
   -6.2961   -1.6453    0.0000 N   0  0  0  0  0  0  0  0  0  0  0  0
   -5.4933   -4.1162    0.0000 O   0  0  0  0  0  0  0  0  0  0  0  0
   -0.0000   -8.1073    0.0000 C   0  0  0  0  0  0  0  0  0  0  0  0
  1  2  1  0
  2  3  1  0
  3  4  2  0
  4  5  1  0
  5  6  2  0
  6  7  1  0
  7  8  1  0
  8  9  2  0
  8 10  1  0
 10 11  1  0
 11 12  2  0
 12 13  1  0
 13 14  2  0
 14 15  1  0
 15 16  1  0
 16 17  1  0
 16 18  1  0
 18 19  2  0
 18 20  1  0
 20 21  1  0
 21 22  1  0
 22 23  1  0
 23 24  1  0
 24 25  1  0
 15 26  2  0
 26 27  1  0
 27 28  2  0
 28 29  1  0
 29 30  1  0
 30 31  1  0
 31 32  1  0
 32 33  1  0
 32 34  2  0
  7 35  2  0
 35  3  1  0
 29 11  1  0
 28 13  1  0
 25 20  1  0
M  END
>  <Compound_ID>  (97) 
CHEMBL520312

>  <Molecule Name>  (97) 
nan

>  <Molecular Weight>  (97) 
477.57

>  <AlogP>  (97) 
3.72

>  <Smiles>  (97) 
COc1cccc(C(=O)Nc2nc3cc(N(C)C(=O)C4CCCCC4)ccc3n2CCC(N)=O)c1

>  <Standard Type>  (97) 
IC50

>  <Standard Relation>  (97) 
'='

>  <Standard Units>  (97) 
nM

>  <Standard Value>  (97) 
10.0

>  <Assay ChEMBL ID>  (97) 
CHEMBL992563

>  <Assay Description>  (97) 
Inhibition of ITK by DELFIA assay

>  <BAO Format ID>  (97) 
BAO_0000357

>  <BAO Label>  (97) 
single protein format

>  <Assay Organism>  (97) 
None

>  <Target ChEMBL ID>  (97) 
CHEMBL2959

>  <Target Name>  (97) 
Tyrosine-protein kinase ITK/TSK

>  <Target Organism>  (97) 
Homo sapiens

>  <Target Type>  (97) 
SINGLE PROTEIN

>  <Document ChEMBL ID>  (97) 
CHEMBL1142468

>  <Source Description>  (97) 
Scientific Literature

>  <Document Journal>  (97) 
Bioorg Med Chem Lett

>  <Document Year>  (97) 
2008.0

>  <Active>  (97) 
1.0

$$$$

     RDKit          2D

 33 37  0  0  0  0  0  0  0  0999 V2000
    3.7500   -1.2990    0.0000 C   0  0  0  0  0  0  0  0  0  0  0  0
    3.0000    0.0000    0.0000 C   0  0  0  0  0  0  0  0  0  0  0  0
    1.5000    0.0000    0.0000 C   0  0  0  0  0  0  0  0  0  0  0  0
    0.7500   -1.2990    0.0000 C   0  0  0  0  0  0  0  0  0  0  0  0
   -0.7500   -1.2990    0.0000 C   0  0  0  0  0  0  0  0  0  0  0  0
   -1.5000    0.0000    0.0000 C   0  0  0  0  0  0  0  0  0  0  0  0
   -2.9672    0.3119    0.0000 N   0  0  0  0  0  0  0  0  0  0  0  0
   -3.1240    1.8037    0.0000 C   0  0  0  0  0  0  0  0  0  0  0  0
   -4.4231    2.5537    0.0000 N   0  0  0  0  0  0  0  0  0  0  0  0
   -4.4231    4.0537    0.0000 C   0  0  0  0  0  0  0  0  0  0  0  0
   -3.1240    4.8037    0.0000 C   0  0  0  0  0  0  0  0  0  0  0  0
   -3.1240    6.3037    0.0000 C   0  0  0  0  0  0  0  0  0  0  0  0
   -1.8250    7.0537    0.0000 C   0  0  0  0  0  0  0  0  0  0  0  0
   -0.5259    6.3037    0.0000 C   0  0  0  0  0  0  0  0  0  0  0  0
   -0.5259    4.8037    0.0000 C   0  0  0  0  0  0  0  0  0  0  0  0
    0.7731    4.0537    0.0000 C   0  0  0  0  0  0  0  0  0  0  0  0
    2.0721    4.8037    0.0000 C   0  0  0  0  0  0  0  0  0  0  0  0
    2.0721    6.3037    0.0000 C   0  0  0  0  0  0  0  0  0  0  0  0
    0.7731    7.0537    0.0000 C   0  0  0  0  0  0  0  0  0  0  0  0
   -4.4231    7.0537    0.0000 N   0  0  0  0  0  0  0  0  0  0  0  0
   -5.7221    6.3037    0.0000 C   0  0  0  0  0  0  0  0  0  0  0  0
   -7.0211    7.0537    0.0000 N   0  0  0  0  0  0  0  0  0  0  0  0
   -7.0211    8.5537    0.0000 C   0  0  0  0  0  0  0  0  0  0  0  0
   -5.7221    9.3037    0.0000 C   0  0  0  0  0  0  0  0  0  0  0  0
   -5.7221   10.8037    0.0000 C   0  0  0  0  0  0  0  0  0  0  0  0
   -7.0211   11.5537    0.0000 C   0  0  0  0  0  0  0  0  0  0  0  0
   -7.0211   13.0537    0.0000 O   0  0  0  0  0  0  0  0  0  0  0  0
   -8.3202   10.8037    0.0000 C   0  0  0  0  0  0  0  0  0  0  0  0
   -8.3202    9.3037    0.0000 C   0  0  0  0  0  0  0  0  0  0  0  0
   -5.7221    4.8037    0.0000 N   0  0  0  0  0  0  0  0  0  0  0  0
   -1.7537    2.4138    0.0000 S   0  0  0  0  0  0  0  0  0  0  0  0
   -0.7500    1.2990    0.0000 C   0  0  0  0  0  0  0  0  0  0  0  0
    0.7500    1.2990    0.0000 C   0  0  0  0  0  0  0  0  0  0  0  0
  1  2  1  0
  2  3  1  0
  3  4  2  0
  4  5  1  0
  5  6  2  0
  6  7  1  0
  7  8  2  0
  8  9  1  0
  9 10  1  0
 10 11  2  0
 11 12  1  0
 12 13  1  0
 13 14  1  0
 14 15  2  0
 15 16  1  0
 16 17  2  0
 17 18  1  0
 18 19  2  0
 12 20  2  0
 20 21  1  0
 21 22  1  0
 23 22  1  6
 23 24  1  0
 24 25  1  0
 25 26  1  0
 26 27  1  1
 26 28  1  0
 28 29  1  0
 21 30  2  0
  8 31  1  0
 31 32  1  0
 32 33  2  0
 33  3  1  0
 32  6  1  0
 30 10  1  0
 19 14  1  0
 29 23  1  0
M  END
>  <Compound_ID>  (98) 
CHEMBL2441273

>  <Molecule Name>  (98) 
nan

>  <Molecular Weight>  (98) 
459.62

>  <AlogP>  (98) 
5.70

>  <Smiles>  (98) 
CCc1ccc2nc(Nc3cc(Cc4ccccc4)nc(N[C@H]4CC[C@H](O)CC4)n3)sc2c1

>  <Standard Type>  (98) 
Ki

>  <Standard Relation>  (98) 
'='

>  <Standard Units>  (98) 
nM

>  <Standard Value>  (98) 
0.631

>  <Assay ChEMBL ID>  (98) 
CHEMBL2446687

>  <Assay Description>  (98) 
Inhibition of recombinant human FLAG-tagged ITK using biotinylated GST-SAM68 as substrate after 30 mins

>  <BAO Format ID>  (98) 
BAO_0000357

>  <BAO Label>  (98) 
single protein format

>  <Assay Organism>  (98) 
Homo sapiens

>  <Target ChEMBL ID>  (98) 
CHEMBL2959

>  <Target Name>  (98) 
Tyrosine-protein kinase ITK/TSK

>  <Target Organism>  (98) 
Homo sapiens

>  <Target Type>  (98) 
SINGLE PROTEIN

>  <Document ChEMBL ID>  (98) 
CHEMBL2440060

>  <Source Description>  (98) 
Scientific Literature

>  <Document Journal>  (98) 
ACS Med Chem Lett

>  <Document Year>  (98) 
2013.0

>  <Active>  (98) 
1.0

$$$$

     RDKit          2D

 40 44  0  0  0  0  0  0  0  0999 V2000
    0.7500   -3.8971    0.0000 C   0  0  0  0  0  0  0  0  0  0  0  0
    1.5000   -2.5981    0.0000 N   0  0  0  0  0  0  0  0  0  0  0  0
    3.0000   -2.5981    0.0000 C   0  0  0  0  0  0  0  0  0  0  0  0
    3.7500   -1.2990    0.0000 O   0  0  0  0  0  0  0  0  0  0  0  0
    3.7500   -3.8971    0.0000 C   0  0  0  0  0  0  0  0  0  0  0  0
    3.0000   -5.1962    0.0000 C   0  0  0  0  0  0  0  0  0  0  0  0
    3.7500   -6.4952    0.0000 C   0  0  0  0  0  0  0  0  0  0  0  0
    5.2500   -6.4952    0.0000 C   0  0  0  0  0  0  0  0  0  0  0  0
    6.0000   -5.1962    0.0000 C   0  0  0  0  0  0  0  0  0  0  0  0
    5.2500   -3.8971    0.0000 C   0  0  0  0  0  0  0  0  0  0  0  0
    0.7500   -1.2990    0.0000 C   0  0  0  0  0  0  0  0  0  0  0  0
    1.5000    0.0000    0.0000 C   0  0  0  0  0  0  0  0  0  0  0  0
    0.7500    1.2990    0.0000 C   0  0  0  0  0  0  0  0  0  0  0  0
   -0.7500    1.2990    0.0000 C   0  0  0  0  0  0  0  0  0  0  0  0
   -1.5000    0.0000    0.0000 C   0  0  0  0  0  0  0  0  0  0  0  0
   -0.7500   -1.2990    0.0000 C   0  0  0  0  0  0  0  0  0  0  0  0
   -2.9672    0.3119    0.0000 N   0  0  0  0  0  0  0  0  0  0  0  0
   -3.1240    1.8037    0.0000 C   0  0  0  0  0  0  0  0  0  0  0  0
   -4.4231    2.5537    0.0000 N   0  0  0  0  0  0  0  0  0  0  0  0
   -4.4231    4.0537    0.0000 C   0  0  0  0  0  0  0  0  0  0  0  0
   -3.1240    4.8037    0.0000 O   0  0  0  0  0  0  0  0  0  0  0  0
   -5.7221    4.8037    0.0000 C   0  0  0  0  0  0  0  0  0  0  0  0
   -5.7221    6.3037    0.0000 C   0  0  0  0  0  0  0  0  0  0  0  0
   -7.0211    7.0537    0.0000 C   0  0  0  0  0  0  0  0  0  0  0  0
   -8.3202    6.3037    0.0000 C   0  0  0  0  0  0  0  0  0  0  0  0
   -9.6192    7.0537    0.0000 C   0  0  0  0  0  0  0  0  0  0  0  0
  -10.9182    7.8037    0.0000 N   0  0  0  0  0  0  0  0  0  0  0  0
   -8.3202    4.8037    0.0000 C   0  0  0  0  0  0  0  0  0  0  0  0
   -7.0211    4.0537    0.0000 C   0  0  0  0  0  0  0  0  0  0  0  0
   -1.7537    2.4138    0.0000 N   0  0  0  0  0  0  0  0  0  0  0  0
   -1.4418    3.8810    0.0000 C   0  0  0  0  0  0  0  0  0  0  0  0
   -0.0152    4.3445    0.0000 C   0  0  0  0  0  0  0  0  0  0  0  0
    0.2966    5.8117    0.0000 C   0  0  0  0  0  0  0  0  0  0  0  0
   -0.8181    6.8154    0.0000 O   0  0  0  0  0  0  0  0  0  0  0  0
    1.7232    6.2752    0.0000 N   0  0  0  0  0  0  0  0  0  0  0  0
    2.8379    5.2716    0.0000 C   0  0  0  0  0  0  0  0  0  0  0  0
    4.2645    5.7351    0.0000 C   0  0  0  0  0  0  0  0  0  0  0  0
    4.5764    7.2023    0.0000 N   0  0  0  0  0  0  0  0  0  0  0  0
    3.4617    8.2060    0.0000 C   0  0  0  0  0  0  0  0  0  0  0  0
    2.0351    7.7425    0.0000 C   0  0  0  0  0  0  0  0  0  0  0  0
  1  2  1  0
  2  3  1  0
  3  4  2  0
  3  5  1  0
  5  6  1  0
  6  7  1  0
  7  8  1  0
  8  9  1  0
  9 10  1  0
  2 11  1  0
 11 12  2  0
 12 13  1  0
 13 14  2  0
 14 15  1  0
 15 16  2  0
 15 17  1  0
 17 18  2  0
 18 19  1  0
 19 20  1  0
 20 21  2  0
 20 22  1  0
 22 23  2  0
 23 24  1  0
 24 25  2  0
 25 26  1  0
 26 27  3  0
 25 28  1  0
 28 29  2  0
 18 30  1  0
 30 31  1  0
 31 32  1  0
 32 33  1  0
 33 34  2  0
 33 35  1  0
 35 36  1  0
 36 37  1  0
 37 38  1  0
 38 39  1  0
 39 40  1  0
 10  5  1  0
 16 11  1  0
 29 22  1  0
 40 35  1  0
 30 14  1  0
M  END
>  <Compound_ID>  (99) 
CHEMBL491076

>  <Molecule Name>  (99) 
nan

>  <Molecular Weight>  (99) 
541.66

>  <AlogP>  (99) 
3.53

>  <Smiles>  (99) 
CN(C(=O)C1CCCCC1)c1ccc2c(c1)nc(NC(=O)c1ccc(C#N)cc1)n2CCC(=O)N1CCNCC1

>  <Standard Type>  (99) 
IC50

>  <Standard Relation>  (99) 
'='

>  <Standard Units>  (99) 
nM

>  <Standard Value>  (99) 
5.0

>  <Assay ChEMBL ID>  (99) 
CHEMBL992563

>  <Assay Description>  (99) 
Inhibition of ITK by DELFIA assay

>  <BAO Format ID>  (99) 
BAO_0000357

>  <BAO Label>  (99) 
single protein format

>  <Assay Organism>  (99) 
None

>  <Target ChEMBL ID>  (99) 
CHEMBL2959

>  <Target Name>  (99) 
Tyrosine-protein kinase ITK/TSK

>  <Target Organism>  (99) 
Homo sapiens

>  <Target Type>  (99) 
SINGLE PROTEIN

>  <Document ChEMBL ID>  (99) 
CHEMBL1142468

>  <Source Description>  (99) 
Scientific Literature

>  <Document Journal>  (99) 
Bioorg Med Chem Lett

>  <Document Year>  (99) 
2008.0

>  <Active>  (99) 
1.0

$$$$

     RDKit          2D

 36 39  0  0  0  0  0  0  0  0999 V2000
    6.0000   -7.7942    0.0000 C   0  0  0  0  0  0  0  0  0  0  0  0
    5.2500   -6.4952    0.0000 C   0  0  0  0  0  0  0  0  0  0  0  0
    3.7500   -6.4952    0.0000 C   0  0  0  0  0  0  0  0  0  0  0  0
    3.0000   -5.1962    0.0000 C   0  0  0  0  0  0  0  0  0  0  0  0
    3.7500   -3.8971    0.0000 C   0  0  0  0  0  0  0  0  0  0  0  0
    3.0000   -2.5981    0.0000 C   0  0  0  0  0  0  0  0  0  0  0  0
    3.7500   -1.2990    0.0000 O   0  0  0  0  0  0  0  0  0  0  0  0
    1.5000   -2.5981    0.0000 N   0  0  0  0  0  0  0  0  0  0  0  0
    0.7500   -3.8971    0.0000 C   0  0  0  0  0  0  0  0  0  0  0  0
    0.7500   -1.2990    0.0000 C   0  0  0  0  0  0  0  0  0  0  0  0
    1.5000    0.0000    0.0000 C   0  0  0  0  0  0  0  0  0  0  0  0
    0.7500    1.2990    0.0000 C   0  0  0  0  0  0  0  0  0  0  0  0
   -0.7500    1.2990    0.0000 C   0  0  0  0  0  0  0  0  0  0  0  0
   -1.5000    0.0000    0.0000 C   0  0  0  0  0  0  0  0  0  0  0  0
   -0.7500   -1.2990    0.0000 C   0  0  0  0  0  0  0  0  0  0  0  0
   -2.9672    0.3119    0.0000 N   0  0  0  0  0  0  0  0  0  0  0  0
   -3.1240    1.8037    0.0000 C   0  0  0  0  0  0  0  0  0  0  0  0
   -4.4231    2.5537    0.0000 N   0  0  0  0  0  0  0  0  0  0  0  0
   -4.4231    4.0537    0.0000 C   0  0  0  0  0  0  0  0  0  0  0  0
   -3.1240    4.8037    0.0000 O   0  0  0  0  0  0  0  0  0  0  0  0
   -5.7221    4.8037    0.0000 C   0  0  0  0  0  0  0  0  0  0  0  0
   -5.7221    6.3037    0.0000 C   0  0  0  0  0  0  0  0  0  0  0  0
   -7.0211    7.0537    0.0000 C   0  0  0  0  0  0  0  0  0  0  0  0
   -8.3202    6.3037    0.0000 C   0  0  0  0  0  0  0  0  0  0  0  0
   -9.6192    7.0537    0.0000 C   0  0  0  0  0  0  0  0  0  0  0  0
  -10.9182    7.8037    0.0000 N   0  0  0  0  0  0  0  0  0  0  0  0
   -8.3202    4.8037    0.0000 C   0  0  0  0  0  0  0  0  0  0  0  0
   -7.0211    4.0537    0.0000 C   0  0  0  0  0  0  0  0  0  0  0  0
   -1.7537    2.4138    0.0000 N   0  0  0  0  0  0  0  0  0  0  0  0
   -1.4418    3.8810    0.0000 C   0  0  0  0  0  0  0  0  0  0  0  0
   -0.0152    4.3445    0.0000 C   0  0  0  0  0  0  0  0  0  0  0  0
    0.2966    5.8117    0.0000 C   0  0  0  0  0  0  0  0  0  0  0  0
    1.7232    6.2752    0.0000 N   0  0  0  0  0  0  0  0  0  0  0  0
   -0.8181    6.8154    0.0000 O   0  0  0  0  0  0  0  0  0  0  0  0
    5.2500   -3.8971    0.0000 C   0  0  0  0  0  0  0  0  0  0  0  0
    6.0000   -5.1962    0.0000 C   0  0  0  0  0  0  0  0  0  0  0  0
  1  2  1  0
  2  3  2  0
  3  4  1  0
  4  5  2  0
  5  6  1  0
  6  7  2  0
  6  8  1  0
  8  9  1  0
  8 10  1  0
 10 11  2  0
 11 12  1  0
 12 13  2  0
 13 14  1  0
 14 15  2  0
 14 16  1  0
 16 17  2  0
 17 18  1  0
 18 19  1  0
 19 20  2  0
 19 21  1  0
 21 22  2  0
 22 23  1  0
 23 24  2  0
 24 25  1  0
 25 26  3  0
 24 27  1  0
 27 28  2  0
 17 29  1  0
 29 30  1  0
 30 31  1  0
 31 32  1  0
 32 33  1  0
 32 34  2  0
  5 35  1  0
 35 36  2  0
 36  2  1  0
 15 10  1  0
 28 21  1  0
 29 13  1  0
M  END
>  <Compound_ID>  (100) 
CHEMBL484945

>  <Molecule Name>  (100) 
nan

>  <Molecular Weight>  (100) 
480.53

>  <AlogP>  (100) 
3.62

>  <Smiles>  (100) 
Cc1ccc(C(=O)N(C)c2ccc3c(c2)nc(NC(=O)c2ccc(C#N)cc2)n3CCC(N)=O)cc1

>  <Standard Type>  (100) 
IC50

>  <Standard Relation>  (100) 
'='

>  <Standard Units>  (100) 
nM

>  <Standard Value>  (100) 
10.0

>  <Assay ChEMBL ID>  (100) 
CHEMBL992543

>  <Assay Description>  (100) 
Inhibition of recombinant ITK by DELFIA assay

>  <BAO Format ID>  (100) 
BAO_0000357

>  <BAO Label>  (100) 
single protein format

>  <Assay Organism>  (100) 
None

>  <Target ChEMBL ID>  (100) 
CHEMBL2959

>  <Target Name>  (100) 
Tyrosine-protein kinase ITK/TSK

>  <Target Organism>  (100) 
Homo sapiens

>  <Target Type>  (100) 
SINGLE PROTEIN

>  <Document ChEMBL ID>  (100) 
CHEMBL1142466

>  <Source Description>  (100) 
Scientific Literature

>  <Document Journal>  (100) 
Bioorg Med Chem Lett

>  <Document Year>  (100) 
2008.0

>  <Active>  (100) 
1.0

$$$$

     RDKit          2D

 31 35  0  0  0  0  0  0  0  0999 V2000
   -5.1962    0.8927    0.0000 O   0  0  0  0  0  0  0  0  0  0  0  0
   -5.1962   -0.6073    0.0000 C   0  0  0  0  0  0  0  0  0  0  0  0
   -3.8971   -1.3573    0.0000 C   0  0  0  0  0  0  0  0  0  0  0  0
   -3.8971   -2.8573    0.0000 C   0  0  0  0  0  0  0  0  0  0  0  0
   -5.1962   -3.6073    0.0000 C   0  0  0  0  0  0  0  0  0  0  0  0
   -5.1962   -5.1073    0.0000 N   0  0  0  0  0  0  0  0  0  0  0  0
   -3.8971   -5.8573    0.0000 C   0  0  0  0  0  0  0  0  0  0  0  0
   -3.8971   -7.3573    0.0000 N   0  0  0  0  0  0  0  0  0  0  0  0
   -2.5981   -8.1073    0.0000 C   0  0  0  0  0  0  0  0  0  0  0  0
   -2.5981   -9.6073    0.0000 C   0  0  0  0  0  0  0  0  0  0  0  0
   -3.8971  -10.3573    0.0000 C   0  0  0  0  0  0  0  0  0  0  0  0
   -5.1962   -9.6073    0.0000 C   0  0  0  0  0  0  0  0  0  0  0  0
   -6.4952  -10.3573    0.0000 C   0  0  0  0  0  0  0  0  0  0  0  0
   -6.4952  -11.8573    0.0000 C   0  0  0  0  0  0  0  0  0  0  0  0
   -5.1962  -12.6073    0.0000 C   0  0  0  0  0  0  0  0  0  0  0  0
   -3.8971  -11.8573    0.0000 C   0  0  0  0  0  0  0  0  0  0  0  0
   -1.2990   -7.3573    0.0000 C   0  0  0  0  0  0  0  0  0  0  0  0
   -1.2990   -5.8573    0.0000 C   0  0  0  0  0  0  0  0  0  0  0  0
   -0.0000   -5.1073    0.0000 N   0  0  0  0  0  0  0  0  0  0  0  0
   -0.0000   -3.6073    0.0000 C   0  0  0  0  0  0  0  0  0  0  0  0
    1.2135   -2.7256    0.0000 N   0  0  0  0  0  0  0  0  0  0  0  0
    0.7500   -1.2990    0.0000 C   0  0  0  0  0  0  0  0  0  0  0  0
    1.5000    0.0000    0.0000 C   0  0  0  0  0  0  0  0  0  0  0  0
    0.7500    1.2990    0.0000 C   0  0  0  0  0  0  0  0  0  0  0  0
   -0.7500    1.2990    0.0000 C   0  0  0  0  0  0  0  0  0  0  0  0
   -1.5000    0.0000    0.0000 C   0  0  0  0  0  0  0  0  0  0  0  0
   -0.7500   -1.2990    0.0000 C   0  0  0  0  0  0  0  0  0  0  0  0
   -1.2135   -2.7256    0.0000 S   0  0  0  0  0  0  0  0  0  0  0  0
   -2.5981   -5.1073    0.0000 N   0  0  0  0  0  0  0  0  0  0  0  0
   -6.4952   -2.8573    0.0000 C   0  0  0  0  0  0  0  0  0  0  0  0
   -6.4952   -1.3573    0.0000 C   0  0  0  0  0  0  0  0  0  0  0  0
  2  1  1  1
  2  3  1  0
  3  4  1  0
  4  5  1  0
  5  6  1  6
  6  7  1  0
  7  8  2  0
  8  9  1  0
  9 10  1  0
 10 11  1  0
 11 12  2  0
 12 13  1  0
 13 14  2  0
 14 15  1  0
 15 16  2  0
  9 17  2  0
 17 18  1  0
 18 19  1  0
 19 20  1  0
 20 21  2  0
 21 22  1  0
 22 23  2  0
 23 24  1  0
 24 25  2  0
 25 26  1  0
 26 27  2  0
 27 28  1  0
 18 29  2  0
  5 30  1  0
 30 31  1  0
 31  2  1  0
 29  7  1  0
 16 11  1  0
 28 20  1  0
 27 22  1  0
M  END
>  <Compound_ID>  (101) 
CHEMBL2441269

>  <Molecule Name>  (101) 
nan

>  <Molecular Weight>  (101) 
431.57

>  <AlogP>  (101) 
5.14

>  <Smiles>  (101) 
O[C@H]1CC[C@H](Nc2nc(Cc3ccccc3)cc(Nc3nc4ccccc4s3)n2)CC1

>  <Standard Type>  (101) 
Ki

>  <Standard Relation>  (101) 
'='

>  <Standard Units>  (101) 
nM

>  <Standard Value>  (101) 
1.0

>  <Assay ChEMBL ID>  (101) 
CHEMBL2446687

>  <Assay Description>  (101) 
Inhibition of recombinant human FLAG-tagged ITK using biotinylated GST-SAM68 as substrate after 30 mins

>  <BAO Format ID>  (101) 
BAO_0000357

>  <BAO Label>  (101) 
single protein format

>  <Assay Organism>  (101) 
Homo sapiens

>  <Target ChEMBL ID>  (101) 
CHEMBL2959

>  <Target Name>  (101) 
Tyrosine-protein kinase ITK/TSK

>  <Target Organism>  (101) 
Homo sapiens

>  <Target Type>  (101) 
SINGLE PROTEIN

>  <Document ChEMBL ID>  (101) 
CHEMBL2440060

>  <Source Description>  (101) 
Scientific Literature

>  <Document Journal>  (101) 
ACS Med Chem Lett

>  <Document Year>  (101) 
2013.0

>  <Active>  (101) 
1.0

$$$$

     RDKit          2D

 34 38  0  0  0  0  0  0  0  0999 V2000
   -2.7511   -1.0707    0.0000 C   0  0  0  0  0  0  0  0  0  0  0  0
   -3.7548   -2.1855    0.0000 C   0  0  0  0  0  0  0  0  0  0  0  0
   -4.7585   -3.3002    0.0000 C   0  0  0  0  0  0  0  0  0  0  0  0
   -4.8695   -1.1818    0.0000 O   0  0  0  0  0  0  0  0  0  0  0  0
   -2.6401   -3.1891    0.0000 C   0  0  0  0  0  0  0  0  0  0  0  0
   -1.2135   -2.7256    0.0000 N   0  0  0  0  0  0  0  0  0  0  0  0
   -0.0000   -3.6073    0.0000 C   0  0  0  0  0  0  0  0  0  0  0  0
   -0.0000   -5.1073    0.0000 N   0  0  0  0  0  0  0  0  0  0  0  0
    1.2990   -5.8573    0.0000 C   0  0  0  0  0  0  0  0  0  0  0  0
    2.5981   -5.1073    0.0000 O   0  0  0  0  0  0  0  0  0  0  0  0
    1.2990   -7.3573    0.0000 C   0  0  0  0  0  0  0  0  0  0  0  0
    2.5126   -8.2390    0.0000 C   0  0  0  0  0  0  0  0  0  0  0  0
    2.0490   -9.6656    0.0000 C   0  0  0  0  0  0  0  0  0  0  0  0
    0.5490   -9.6656    0.0000 C   0  0  0  0  0  0  0  0  0  0  0  0
   -0.3326  -10.8791    0.0000 C   0  0  0  0  0  0  0  0  0  0  0  0
    0.1309  -12.3057    0.0000 C   0  0  0  0  0  0  0  0  0  0  0  0
   -1.0826  -13.1874    0.0000 N   0  0  0  0  0  0  0  0  0  0  0  0
   -2.2962  -12.3057    0.0000 N   0  0  0  0  0  0  0  0  0  0  0  0
   -1.8326  -10.8791    0.0000 C   0  0  0  0  0  0  0  0  0  0  0  0
    0.0855   -8.2390    0.0000 S   0  0  0  0  0  0  0  0  0  0  0  0
    1.2135   -2.7256    0.0000 N   0  0  0  0  0  0  0  0  0  0  0  0
    0.7500   -1.2990    0.0000 C   0  0  0  0  0  0  0  0  0  0  0  0
    1.5000    0.0000    0.0000 C   0  0  0  0  0  0  0  0  0  0  0  0
    0.7500    1.2990    0.0000 C   0  0  0  0  0  0  0  0  0  0  0  0
    1.5000    2.5981    0.0000 C   0  0  0  0  0  0  0  0  0  0  0  0
    3.0000    2.5981    0.0000 N   0  0  0  0  0  0  0  0  0  0  0  0
    3.8817    3.8116    0.0000 C   0  0  0  0  0  0  0  0  0  0  0  0
    5.3083    3.3481    0.0000 C   0  0  0  0  0  0  0  0  0  0  0  0
    5.3083    1.8481    0.0000 C   0  0  0  0  0  0  0  0  0  0  0  0
    6.5218    0.9664    0.0000 O   0  0  0  0  0  0  0  0  0  0  0  0
    3.8817    1.3846    0.0000 C   0  0  0  0  0  0  0  0  0  0  0  0
   -0.7500    1.2990    0.0000 C   0  0  0  0  0  0  0  0  0  0  0  0
   -1.5000    0.0000    0.0000 C   0  0  0  0  0  0  0  0  0  0  0  0
   -0.7500   -1.2990    0.0000 C   0  0  0  0  0  0  0  0  0  0  0  0
  1  2  1  0
  2  3  1  0
  2  4  1  0
  2  5  1  0
  5  6  1  0
  6  7  1  0
  7  8  2  0
  8  9  1  0
  9 10  2  0
  9 11  1  0
 11 12  2  0
 12 13  1  0
 13 14  2  0
 14 15  1  0
 15 16  1  0
 16 17  2  0
 17 18  1  0
 18 19  1  0
 14 20  1  0
  7 21  1  0
 21 22  1  0
 22 23  2  0
 23 24  1  0
 24 25  1  0
 25 26  1  0
 26 27  1  0
 27 28  1  0
 28 29  1  0
 29 30  1  0
 29 31  1  0
 24 32  2  0
 32 33  1  0
 33 34  2  0
 34  6  1  0
 20 11  1  0
 34 22  1  0
 19 15  2  0
 31 26  1  0
M  END
>  <Compound_ID>  (102) 
CHEMBL494743

>  <Molecule Name>  (102) 
nan

>  <Molecular Weight>  (102) 
480.59

>  <AlogP>  (102) 
2.50

>  <Smiles>  (102) 
CC(C)(O)Cn1/c(=N/C(=O)c2ccc(-c3cn[nH]c3)s2)[nH]c2cc(CN3CCC(O)C3)ccc21

>  <Standard Type>  (102) 
IC50

>  <Standard Relation>  (102) 
'='

>  <Standard Units>  (102) 
nM

>  <Standard Value>  (102) 
2.0

>  <Assay ChEMBL ID>  (102) 
CHEMBL1018826

>  <Assay Description>  (102) 
Binding affinity to ITK by DELFIA-based molecular assay

>  <BAO Format ID>  (102) 
BAO_0000357

>  <BAO Label>  (102) 
single protein format

>  <Assay Organism>  (102) 
None

>  <Target ChEMBL ID>  (102) 
CHEMBL2959

>  <Target Name>  (102) 
Tyrosine-protein kinase ITK/TSK

>  <Target Organism>  (102) 
Homo sapiens

>  <Target Type>  (102) 
SINGLE PROTEIN

>  <Document ChEMBL ID>  (102) 
CHEMBL1153328

>  <Source Description>  (102) 
Scientific Literature

>  <Document Journal>  (102) 
Bioorg Med Chem Lett

>  <Document Year>  (102) 
2009.0

>  <Active>  (102) 
1.0

$$$$

     RDKit          2D

 36 39  0  0  0  0  0  0  0  0999 V2000
    0.7500   -6.4952    0.0000 C   0  0  0  0  0  0  0  0  0  0  0  0
    1.5000   -5.1962    0.0000 C   0  0  0  0  0  0  0  0  0  0  0  0
    0.7500   -3.8971    0.0000 C   0  0  0  0  0  0  0  0  0  0  0  0
    1.5000   -2.5981    0.0000 N   0  0  0  0  0  0  0  0  0  0  0  0
    3.0000   -2.5981    0.0000 C   0  0  0  0  0  0  0  0  0  0  0  0
    3.7500   -1.2990    0.0000 O   0  0  0  0  0  0  0  0  0  0  0  0
    3.7500   -3.8971    0.0000 C   0  0  0  0  0  0  0  0  0  0  0  0
    3.0000   -5.1962    0.0000 C   0  0  0  0  0  0  0  0  0  0  0  0
    3.7500   -6.4952    0.0000 C   0  0  0  0  0  0  0  0  0  0  0  0
    5.2500   -6.4952    0.0000 C   0  0  0  0  0  0  0  0  0  0  0  0
    6.0000   -5.1962    0.0000 C   0  0  0  0  0  0  0  0  0  0  0  0
    5.2500   -3.8971    0.0000 C   0  0  0  0  0  0  0  0  0  0  0  0
    0.7500   -1.2990    0.0000 C   0  0  0  0  0  0  0  0  0  0  0  0
    1.5000    0.0000    0.0000 C   0  0  0  0  0  0  0  0  0  0  0  0
    0.7500    1.2990    0.0000 C   0  0  0  0  0  0  0  0  0  0  0  0
   -0.7500    1.2990    0.0000 C   0  0  0  0  0  0  0  0  0  0  0  0
   -1.5000    0.0000    0.0000 C   0  0  0  0  0  0  0  0  0  0  0  0
   -0.7500   -1.2990    0.0000 C   0  0  0  0  0  0  0  0  0  0  0  0
   -2.9672    0.3119    0.0000 N   0  0  0  0  0  0  0  0  0  0  0  0
   -3.1240    1.8037    0.0000 C   0  0  0  0  0  0  0  0  0  0  0  0
   -4.4231    2.5537    0.0000 N   0  0  0  0  0  0  0  0  0  0  0  0
   -4.4231    4.0537    0.0000 C   0  0  0  0  0  0  0  0  0  0  0  0
   -3.1240    4.8037    0.0000 O   0  0  0  0  0  0  0  0  0  0  0  0
   -5.7221    4.8037    0.0000 C   0  0  0  0  0  0  0  0  0  0  0  0
   -5.7221    6.3037    0.0000 C   0  0  0  0  0  0  0  0  0  0  0  0
   -7.0211    7.0537    0.0000 C   0  0  0  0  0  0  0  0  0  0  0  0
   -8.3202    6.3037    0.0000 C   0  0  0  0  0  0  0  0  0  0  0  0
   -9.6192    7.0537    0.0000 Cl  0  0  0  0  0  0  0  0  0  0  0  0
   -8.3202    4.8037    0.0000 C   0  0  0  0  0  0  0  0  0  0  0  0
   -7.0211    4.0537    0.0000 C   0  0  0  0  0  0  0  0  0  0  0  0
   -1.7537    2.4138    0.0000 N   0  0  0  0  0  0  0  0  0  0  0  0
   -1.4418    3.8810    0.0000 C   0  0  0  0  0  0  0  0  0  0  0  0
   -0.0152    4.3445    0.0000 C   0  0  0  0  0  0  0  0  0  0  0  0
    0.2966    5.8117    0.0000 C   0  0  0  0  0  0  0  0  0  0  0  0
    1.7232    6.2752    0.0000 N   0  0  0  0  0  0  0  0  0  0  0  0
   -0.8181    6.8154    0.0000 O   0  0  0  0  0  0  0  0  0  0  0  0
  1  2  1  0
  2  3  1  0
  3  4  1  0
  4  5  1  0
  5  6  2  0
  5  7  1  0
  7  8  2  0
  8  9  1  0
  9 10  2  0
 10 11  1  0
 11 12  2  0
  4 13  1  0
 13 14  2  0
 14 15  1  0
 15 16  2  0
 16 17  1  0
 17 18  2  0
 17 19  1  0
 19 20  2  0
 20 21  1  0
 21 22  1  0
 22 23  2  0
 22 24  1  0
 24 25  2  0
 25 26  1  0
 26 27  2  0
 27 28  1  0
 27 29  1  0
 29 30  2  0
 20 31  1  0
 31 32  1  0
 32 33  1  0
 33 34  1  0
 34 35  1  0
 34 36  2  0
 12  7  1  0
 18 13  1  0
 30 24  1  0
 31 16  1  0
M  END
>  <Compound_ID>  (103) 
CHEMBL485584

>  <Molecule Name>  (103) 
nan

>  <Molecular Weight>  (103) 
503.99

>  <AlogP>  (103) 
4.87

>  <Smiles>  (103) 
CCCN(C(=O)c1ccccc1)c1ccc2c(c1)nc(NC(=O)c1ccc(Cl)cc1)n2CCC(N)=O

>  <Standard Type>  (103) 
IC50

>  <Standard Relation>  (103) 
'='

>  <Standard Units>  (103) 
nM

>  <Standard Value>  (103) 
54.0

>  <Assay ChEMBL ID>  (103) 
CHEMBL992543

>  <Assay Description>  (103) 
Inhibition of recombinant ITK by DELFIA assay

>  <BAO Format ID>  (103) 
BAO_0000357

>  <BAO Label>  (103) 
single protein format

>  <Assay Organism>  (103) 
None

>  <Target ChEMBL ID>  (103) 
CHEMBL2959

>  <Target Name>  (103) 
Tyrosine-protein kinase ITK/TSK

>  <Target Organism>  (103) 
Homo sapiens

>  <Target Type>  (103) 
SINGLE PROTEIN

>  <Document ChEMBL ID>  (103) 
CHEMBL1142466

>  <Source Description>  (103) 
Scientific Literature

>  <Document Journal>  (103) 
Bioorg Med Chem Lett

>  <Document Year>  (103) 
2008.0

>  <Active>  (103) 
1.0

$$$$

     RDKit          2D

 22 24  0  0  0  0  0  0  0  0999 V2000
  -13.4269    4.9181    0.0000 C   0  0  0  0  0  0  0  0  0  0  0  0
  -12.3122    3.9144    0.0000 C   0  0  0  0  0  0  0  0  0  0  0  0
  -10.8856    4.3779    0.0000 C   0  0  0  0  0  0  0  0  0  0  0  0
   -9.4590    4.8414    0.0000 C   0  0  0  0  0  0  0  0  0  0  0  0
   -8.0325    5.3050    0.0000 C   0  0  0  0  0  0  0  0  0  0  0  0
   -7.7206    6.7722    0.0000 O   0  0  0  0  0  0  0  0  0  0  0  0
   -6.9177    4.3013    0.0000 N   0  0  0  0  0  0  0  0  0  0  0  0
   -5.4912    4.7648    0.0000 C   0  0  0  0  0  0  0  0  0  0  0  0
   -5.1793    6.2320    0.0000 C   0  0  0  0  0  0  0  0  0  0  0  0
   -3.7527    6.6955    0.0000 C   0  0  0  0  0  0  0  0  0  0  0  0
   -2.6380    5.6918    0.0000 C   0  0  0  0  0  0  0  0  0  0  0  0
   -2.9499    4.2246    0.0000 C   0  0  0  0  0  0  0  0  0  0  0  0
   -1.8351    3.2209    0.0000 C   0  0  0  0  0  0  0  0  0  0  0  0
   -0.4086    3.6844    0.0000 C   0  0  0  0  0  0  0  0  0  0  0  0
    0.7062    2.6807    0.0000 N   0  0  0  0  0  0  0  0  0  0  0  0
    0.3943    1.2135    0.0000 C   0  0  0  0  0  0  0  0  0  0  0  0
    1.2760    0.0000    0.0000 N   0  0  0  0  0  0  0  0  0  0  0  0
    0.3943   -1.2135    0.0000 C   0  0  0  0  0  0  0  0  0  0  0  0
   -1.0323   -0.7500    0.0000 C   0  0  0  0  0  0  0  0  0  0  0  0
   -1.0323    0.7500    0.0000 C   0  0  0  0  0  0  0  0  0  0  0  0
   -2.1470    1.7537    0.0000 C   0  0  0  0  0  0  0  0  0  0  0  0
   -4.3764    3.7611    0.0000 N   0  0  0  0  0  0  0  0  0  0  0  0
  1  2  1  0
  2  3  1  0
  3  4  3  0
  4  5  1  0
  5  6  2  0
  5  7  1  0
  7  8  1  0
  8  9  2  0
  9 10  1  0
 10 11  2  0
 11 12  1  0
 12 13  1  0
 13 14  2  0
 14 15  1  0
 15 16  2  0
 16 17  1  0
 17 18  1  0
 18 19  2  0
 19 20  1  0
 20 21  2  0
 12 22  2  0
 22  8  1  0
 21 13  1  0
 20 16  1  0
M  END
>  <Compound_ID>  (104) 
CHEMBL3951591

>  <Molecule Name>  (104) 
nan

>  <Molecular Weight>  (104) 
290.33

>  <AlogP>  (104) 
2.98

>  <Smiles>  (104) 
CCC#CC(=O)Nc1cccc(-c2cnc3[nH]ccc3c2)n1

>  <Standard Type>  (104) 
IC50

>  <Standard Relation>  (104) 
'='

>  <Standard Units>  (104) 
nM

>  <Standard Value>  (104) 
35.0

>  <Assay ChEMBL ID>  (104) 
CHEMBL3887687

>  <Assay Description>  (104) 
Biochemical Inhibition Assay: 1H-pyrrolo[2,3-b]pyridine, 1H-pyrazolo[3,4-b]pyridine and 5H-pyrrolo[2,3-b]pyrazine series of compounds exhibited over >100 fold selective against Janus and TEC family of kinases except for the BMX and TXK it had activity of 30 and 45 nM respectively.

>  <BAO Format ID>  (104) 
BAO_0000357

>  <BAO Label>  (104) 
single protein format

>  <Assay Organism>  (104) 
Homo sapiens

>  <Target ChEMBL ID>  (104) 
CHEMBL2959

>  <Target Name>  (104) 
Tyrosine-protein kinase ITK/TSK

>  <Target Organism>  (104) 
Homo sapiens

>  <Target Type>  (104) 
SINGLE PROTEIN

>  <Document ChEMBL ID>  (104) 
CHEMBL3886406

>  <Source Description>  (104) 
BindingDB Database

>  <Document Journal>  (104) 
nan

>  <Document Year>  (104) 
2015.0

>  <Active>  (104) 
1.0

$$$$

     RDKit          2D

 36 40  0  0  0  0  0  0  0  0999 V2000
   -2.7511   -1.0707    0.0000 C   0  0  0  0  0  0  0  0  0  0  0  0
   -3.7548   -2.1855    0.0000 C   0  0  0  0  0  0  0  0  0  0  0  0
   -4.7585   -3.3002    0.0000 C   0  0  0  0  0  0  0  0  0  0  0  0
   -4.8695   -1.1818    0.0000 O   0  0  0  0  0  0  0  0  0  0  0  0
   -2.6401   -3.1891    0.0000 C   0  0  0  0  0  0  0  0  0  0  0  0
   -1.2135   -2.7256    0.0000 N   0  0  0  0  0  0  0  0  0  0  0  0
   -0.0000   -3.6073    0.0000 C   0  0  0  0  0  0  0  0  0  0  0  0
   -0.0000   -5.1073    0.0000 N   0  0  0  0  0  0  0  0  0  0  0  0
    1.2990   -5.8573    0.0000 C   0  0  0  0  0  0  0  0  0  0  0  0
    2.5981   -5.1073    0.0000 O   0  0  0  0  0  0  0  0  0  0  0  0
    1.2990   -7.3573    0.0000 C   0  0  0  0  0  0  0  0  0  0  0  0
    2.5126   -8.2390    0.0000 C   0  0  0  0  0  0  0  0  0  0  0  0
    2.0490   -9.6656    0.0000 C   0  0  0  0  0  0  0  0  0  0  0  0
    0.5490   -9.6656    0.0000 C   0  0  0  0  0  0  0  0  0  0  0  0
   -0.3326  -10.8791    0.0000 C   0  0  0  0  0  0  0  0  0  0  0  0
    0.1309  -12.3057    0.0000 C   0  0  0  0  0  0  0  0  0  0  0  0
   -1.0826  -13.1874    0.0000 N   0  0  0  0  0  0  0  0  0  0  0  0
   -2.2962  -12.3057    0.0000 N   0  0  0  0  0  0  0  0  0  0  0  0
   -1.8326  -10.8791    0.0000 C   0  0  0  0  0  0  0  0  0  0  0  0
    0.0855   -8.2390    0.0000 S   0  0  0  0  0  0  0  0  0  0  0  0
    1.2135   -2.7256    0.0000 N   0  0  0  0  0  0  0  0  0  0  0  0
    0.7500   -1.2990    0.0000 C   0  0  0  0  0  0  0  0  0  0  0  0
    1.5000    0.0000    0.0000 C   0  0  0  0  0  0  0  0  0  0  0  0
    0.7500    1.2990    0.0000 C   0  0  0  0  0  0  0  0  0  0  0  0
    1.5000    2.5981    0.0000 C   0  0  0  0  0  0  0  0  0  0  0  0
    3.0000    2.5981    0.0000 N   0  0  0  0  0  0  0  0  0  0  0  0
    3.7500    1.2990    0.0000 C   0  0  0  0  0  0  0  0  0  0  0  0
    5.2500    1.2990    0.0000 C   0  0  0  0  0  0  0  0  0  0  0  0
    6.0000    2.5981    0.0000 C   0  0  0  0  0  0  0  0  0  0  0  0
    5.2500    3.8971    0.0000 C   0  0  0  0  0  0  0  0  0  0  0  0
    3.7500    3.8971    0.0000 C   0  0  0  0  0  0  0  0  0  0  0  0
    3.0000    5.1962    0.0000 C   0  0  0  0  0  0  0  0  0  0  0  0
    3.7500    6.4952    0.0000 O   0  0  0  0  0  0  0  0  0  0  0  0
   -0.7500    1.2990    0.0000 C   0  0  0  0  0  0  0  0  0  0  0  0
   -1.5000    0.0000    0.0000 C   0  0  0  0  0  0  0  0  0  0  0  0
   -0.7500   -1.2990    0.0000 C   0  0  0  0  0  0  0  0  0  0  0  0
  1  2  1  0
  2  3  1  0
  2  4  1  0
  2  5  1  0
  5  6  1  0
  6  7  1  0
  7  8  2  0
  8  9  1  0
  9 10  2  0
  9 11  1  0
 11 12  2  0
 12 13  1  0
 13 14  2  0
 14 15  1  0
 15 16  1  0
 16 17  2  0
 17 18  1  0
 18 19  1  0
 14 20  1  0
  7 21  1  0
 21 22  1  0
 22 23  2  0
 23 24  1  0
 24 25  1  0
 25 26  1  0
 26 27  1  0
 27 28  1  0
 28 29  1  0
 29 30  1  0
 30 31  1  0
 31 32  1  0
 32 33  1  0
 24 34  2  0
 34 35  1  0
 35 36  2  0
 36  6  1  0
 20 11  1  0
 36 22  1  0
 19 15  2  0
 31 26  1  0
M  END
>  <Compound_ID>  (105) 
CHEMBL493008

>  <Molecule Name>  (105) 
nan

>  <Molecular Weight>  (105) 
508.65

>  <AlogP>  (105) 
3.28

>  <Smiles>  (105) 
CC(C)(O)Cn1/c(=N/C(=O)c2ccc(-c3cn[nH]c3)s2)[nH]c2cc(CN3CCCCC3CO)ccc21

>  <Standard Type>  (105) 
IC50

>  <Standard Relation>  (105) 
'='

>  <Standard Units>  (105) 
nM

>  <Standard Value>  (105) 
3.0

>  <Assay ChEMBL ID>  (105) 
CHEMBL1018826

>  <Assay Description>  (105) 
Binding affinity to ITK by DELFIA-based molecular assay

>  <BAO Format ID>  (105) 
BAO_0000357

>  <BAO Label>  (105) 
single protein format

>  <Assay Organism>  (105) 
None

>  <Target ChEMBL ID>  (105) 
CHEMBL2959

>  <Target Name>  (105) 
Tyrosine-protein kinase ITK/TSK

>  <Target Organism>  (105) 
Homo sapiens

>  <Target Type>  (105) 
SINGLE PROTEIN

>  <Document ChEMBL ID>  (105) 
CHEMBL1153328

>  <Source Description>  (105) 
Scientific Literature

>  <Document Journal>  (105) 
Bioorg Med Chem Lett

>  <Document Year>  (105) 
2009.0

>  <Active>  (105) 
1.0

$$$$

     RDKit          2D

 32 35  0  0  0  0  0  0  0  0999 V2000
    0.7500   -3.8971    0.0000 C   0  0  0  0  0  0  0  0  0  0  0  0
    1.5000   -2.5981    0.0000 N   0  0  0  0  0  0  0  0  0  0  0  0
    3.0000   -2.5981    0.0000 C   0  0  0  0  0  0  0  0  0  0  0  0
    3.7500   -1.2990    0.0000 O   0  0  0  0  0  0  0  0  0  0  0  0
    3.7500   -3.8971    0.0000 C   0  0  0  0  0  0  0  0  0  0  0  0
    3.0000   -5.1962    0.0000 C   0  0  0  0  0  0  0  0  0  0  0  0
    3.7500   -6.4952    0.0000 C   0  0  0  0  0  0  0  0  0  0  0  0
    5.2500   -6.4952    0.0000 C   0  0  0  0  0  0  0  0  0  0  0  0
    6.0000   -5.1962    0.0000 C   0  0  0  0  0  0  0  0  0  0  0  0
    5.2500   -3.8971    0.0000 C   0  0  0  0  0  0  0  0  0  0  0  0
    0.7500   -1.2990    0.0000 C   0  0  0  0  0  0  0  0  0  0  0  0
    1.5000    0.0000    0.0000 C   0  0  0  0  0  0  0  0  0  0  0  0
    0.7500    1.2990    0.0000 C   0  0  0  0  0  0  0  0  0  0  0  0
   -0.7500    1.2990    0.0000 C   0  0  0  0  0  0  0  0  0  0  0  0
   -1.5000    0.0000    0.0000 C   0  0  0  0  0  0  0  0  0  0  0  0
   -0.7500   -1.2990    0.0000 C   0  0  0  0  0  0  0  0  0  0  0  0
   -2.9672    0.3119    0.0000 N   0  0  0  0  0  0  0  0  0  0  0  0
   -3.1240    1.8037    0.0000 C   0  0  0  0  0  0  0  0  0  0  0  0
   -4.4231    2.5537    0.0000 N   0  0  0  0  0  0  0  0  0  0  0  0
   -4.4231    4.0537    0.0000 C   0  0  0  0  0  0  0  0  0  0  0  0
   -3.1240    4.8037    0.0000 O   0  0  0  0  0  0  0  0  0  0  0  0
   -5.7221    4.8037    0.0000 C   0  0  0  0  0  0  0  0  0  0  0  0
   -7.0924    4.1935    0.0000 C   0  0  0  0  0  0  0  0  0  0  0  0
   -8.0961    5.3083    0.0000 C   0  0  0  0  0  0  0  0  0  0  0  0
   -7.3461    6.6073    0.0000 N   0  0  0  0  0  0  0  0  0  0  0  0
   -5.8789    6.2954    0.0000 O   0  0  0  0  0  0  0  0  0  0  0  0
   -1.7537    2.4138    0.0000 N   0  0  0  0  0  0  0  0  0  0  0  0
   -1.4418    3.8810    0.0000 C   0  0  0  0  0  0  0  0  0  0  0  0
   -0.0152    4.3445    0.0000 C   0  0  0  0  0  0  0  0  0  0  0  0
    0.2966    5.8117    0.0000 C   0  0  0  0  0  0  0  0  0  0  0  0
    1.7232    6.2752    0.0000 N   0  0  0  0  0  0  0  0  0  0  0  0
   -0.8181    6.8154    0.0000 O   0  0  0  0  0  0  0  0  0  0  0  0
  1  2  1  0
  2  3  1  0
  3  4  2  0
  3  5  1  0
  5  6  2  0
  6  7  1  0
  7  8  2  0
  8  9  1  0
  9 10  2  0
  2 11  1  0
 11 12  2  0
 12 13  1  0
 13 14  2  0
 14 15  1  0
 15 16  2  0
 15 17  1  0
 17 18  2  0
 18 19  1  0
 19 20  1  0
 20 21  2  0
 20 22  1  0
 22 23  2  0
 23 24  1  0
 24 25  2  0
 25 26  1  0
 18 27  1  0
 27 28  1  0
 28 29  1  0
 29 30  1  0
 30 31  1  0
 30 32  2  0
 10  5  1  0
 16 11  1  0
 26 22  1  0
 27 14  1  0
M  END
>  <Compound_ID>  (106) 
CHEMBL458796

>  <Molecule Name>  (106) 
nan

>  <Molecular Weight>  (106) 
432.44

>  <AlogP>  (106) 
2.43

>  <Smiles>  (106) 
CN(C(=O)c1ccccc1)c1ccc2c(c1)nc(NC(=O)c1ccno1)n2CCC(N)=O

>  <Standard Type>  (106) 
IC50

>  <Standard Relation>  (106) 
'='

>  <Standard Units>  (106) 
nM

>  <Standard Value>  (106) 
100.0

>  <Assay ChEMBL ID>  (106) 
CHEMBL992190

>  <Assay Description>  (106) 
Inhibition of ITK by DELFIA method

>  <BAO Format ID>  (106) 
BAO_0000357

>  <BAO Label>  (106) 
single protein format

>  <Assay Organism>  (106) 
None

>  <Target ChEMBL ID>  (106) 
CHEMBL2959

>  <Target Name>  (106) 
Tyrosine-protein kinase ITK/TSK

>  <Target Organism>  (106) 
Homo sapiens

>  <Target Type>  (106) 
SINGLE PROTEIN

>  <Document ChEMBL ID>  (106) 
CHEMBL1143295

>  <Source Description>  (106) 
Scientific Literature

>  <Document Journal>  (106) 
Bioorg Med Chem Lett

>  <Document Year>  (106) 
2009.0

>  <Active>  (106) 
1.0

$$$$

     RDKit          2D

 34 37  0  0  0  0  0  0  0  0999 V2000
    0.7500   -3.8971    0.0000 C   0  0  0  0  0  0  0  0  0  0  0  0
    1.5000   -2.5981    0.0000 N   0  0  0  0  0  0  0  0  0  0  0  0
    3.0000   -2.5981    0.0000 C   0  0  0  0  0  0  0  0  0  0  0  0
    3.7500   -1.2990    0.0000 O   0  0  0  0  0  0  0  0  0  0  0  0
    3.7500   -3.8971    0.0000 C   0  0  0  0  0  0  0  0  0  0  0  0
    3.0000   -5.1962    0.0000 C   0  0  0  0  0  0  0  0  0  0  0  0
    3.7500   -6.4952    0.0000 C   0  0  0  0  0  0  0  0  0  0  0  0
    5.2500   -6.4952    0.0000 C   0  0  0  0  0  0  0  0  0  0  0  0
    6.0000   -5.1962    0.0000 C   0  0  0  0  0  0  0  0  0  0  0  0
    5.2500   -3.8971    0.0000 C   0  0  0  0  0  0  0  0  0  0  0  0
    0.7500   -1.2990    0.0000 C   0  0  0  0  0  0  0  0  0  0  0  0
    1.5000    0.0000    0.0000 C   0  0  0  0  0  0  0  0  0  0  0  0
    0.7500    1.2990    0.0000 C   0  0  0  0  0  0  0  0  0  0  0  0
   -0.7500    1.2990    0.0000 C   0  0  0  0  0  0  0  0  0  0  0  0
   -1.5000    0.0000    0.0000 C   0  0  0  0  0  0  0  0  0  0  0  0
   -0.7500   -1.2990    0.0000 C   0  0  0  0  0  0  0  0  0  0  0  0
   -2.9672    0.3119    0.0000 N   0  0  0  0  0  0  0  0  0  0  0  0
   -3.1240    1.8037    0.0000 C   0  0  0  0  0  0  0  0  0  0  0  0
   -4.4231    2.5537    0.0000 N   0  0  0  0  0  0  0  0  0  0  0  0
   -4.4231    4.0537    0.0000 C   0  0  0  0  0  0  0  0  0  0  0  0
   -3.1240    4.8037    0.0000 O   0  0  0  0  0  0  0  0  0  0  0  0
   -5.7221    4.8037    0.0000 C   0  0  0  0  0  0  0  0  0  0  0  0
   -7.0924    4.1935    0.0000 C   0  0  0  0  0  0  0  0  0  0  0  0
   -8.0961    5.3083    0.0000 C   0  0  0  0  0  0  0  0  0  0  0  0
   -7.3461    6.6073    0.0000 C   0  0  0  0  0  0  0  0  0  0  0  0
   -7.9562    7.9776    0.0000 C   0  0  0  0  0  0  0  0  0  0  0  0
   -8.5663    9.3479    0.0000 N   0  0  0  0  0  0  0  0  0  0  0  0
   -5.8789    6.2954    0.0000 S   0  0  0  0  0  0  0  0  0  0  0  0
   -1.7537    2.4138    0.0000 N   0  0  0  0  0  0  0  0  0  0  0  0
   -1.4418    3.8810    0.0000 C   0  0  0  0  0  0  0  0  0  0  0  0
   -0.0152    4.3445    0.0000 C   0  0  0  0  0  0  0  0  0  0  0  0
    0.2966    5.8117    0.0000 C   0  0  0  0  0  0  0  0  0  0  0  0
    1.7232    6.2752    0.0000 N   0  0  0  0  0  0  0  0  0  0  0  0
   -0.8181    6.8154    0.0000 O   0  0  0  0  0  0  0  0  0  0  0  0
  1  2  1  0
  2  3  1  0
  3  4  2  0
  3  5  1  0
  5  6  2  0
  6  7  1  0
  7  8  2  0
  8  9  1  0
  9 10  2  0
  2 11  1  0
 11 12  2  0
 12 13  1  0
 13 14  2  0
 14 15  1  0
 15 16  2  0
 15 17  1  0
 17 18  2  0
 18 19  1  0
 19 20  1  0
 20 21  2  0
 20 22  1  0
 22 23  2  0
 23 24  1  0
 24 25  2  0
 25 26  1  0
 26 27  3  0
 25 28  1  0
 18 29  1  0
 29 30  1  0
 30 31  1  0
 31 32  1  0
 32 33  1  0
 32 34  2  0
 10  5  1  0
 16 11  1  0
 28 22  1  0
 29 14  1  0
M  END
>  <Compound_ID>  (107) 
CHEMBL457706

>  <Molecule Name>  (107) 
nan

>  <Molecular Weight>  (107) 
472.53

>  <AlogP>  (107) 
3.37

>  <Smiles>  (107) 
CN(C(=O)c1ccccc1)c1ccc2c(c1)nc(NC(=O)c1ccc(C#N)s1)n2CCC(N)=O

>  <Standard Type>  (107) 
IC50

>  <Standard Relation>  (107) 
'='

>  <Standard Units>  (107) 
nM

>  <Standard Value>  (107) 
15.0

>  <Assay ChEMBL ID>  (107) 
CHEMBL992190

>  <Assay Description>  (107) 
Inhibition of ITK by DELFIA method

>  <BAO Format ID>  (107) 
BAO_0000357

>  <BAO Label>  (107) 
single protein format

>  <Assay Organism>  (107) 
None

>  <Target ChEMBL ID>  (107) 
CHEMBL2959

>  <Target Name>  (107) 
Tyrosine-protein kinase ITK/TSK

>  <Target Organism>  (107) 
Homo sapiens

>  <Target Type>  (107) 
SINGLE PROTEIN

>  <Document ChEMBL ID>  (107) 
CHEMBL1143295

>  <Source Description>  (107) 
Scientific Literature

>  <Document Journal>  (107) 
Bioorg Med Chem Lett

>  <Document Year>  (107) 
2009.0

>  <Active>  (107) 
1.0

$$$$

     RDKit          2D

 39 43  0  0  0  0  0  0  0  0999 V2000
    0.7500   -3.8971    0.0000 C   0  0  0  0  0  0  0  0  0  0  0  0
    1.5000   -2.5981    0.0000 N   0  0  0  0  0  0  0  0  0  0  0  0
    3.0000   -2.5981    0.0000 C   0  0  0  0  0  0  0  0  0  0  0  0
    3.7500   -1.2990    0.0000 O   0  0  0  0  0  0  0  0  0  0  0  0
    3.7500   -3.8971    0.0000 C   0  0  0  0  0  0  0  0  0  0  0  0
    3.0000   -5.1962    0.0000 C   0  0  0  0  0  0  0  0  0  0  0  0
    3.7500   -6.4952    0.0000 C   0  0  0  0  0  0  0  0  0  0  0  0
    5.2500   -6.4952    0.0000 C   0  0  0  0  0  0  0  0  0  0  0  0
    6.0000   -5.1962    0.0000 C   0  0  0  0  0  0  0  0  0  0  0  0
    5.2500   -3.8971    0.0000 C   0  0  0  0  0  0  0  0  0  0  0  0
    0.7500   -1.2990    0.0000 C   0  0  0  0  0  0  0  0  0  0  0  0
    1.5000    0.0000    0.0000 C   0  0  0  0  0  0  0  0  0  0  0  0
    0.7500    1.2990    0.0000 C   0  0  0  0  0  0  0  0  0  0  0  0
   -0.7500    1.2990    0.0000 C   0  0  0  0  0  0  0  0  0  0  0  0
   -1.5000    0.0000    0.0000 C   0  0  0  0  0  0  0  0  0  0  0  0
   -0.7500   -1.2990    0.0000 C   0  0  0  0  0  0  0  0  0  0  0  0
   -2.9672    0.3119    0.0000 N   0  0  0  0  0  0  0  0  0  0  0  0
   -3.1240    1.8037    0.0000 C   0  0  0  0  0  0  0  0  0  0  0  0
   -4.4231    2.5537    0.0000 N   0  0  0  0  0  0  0  0  0  0  0  0
   -5.7221    1.8037    0.0000 C   0  0  0  0  0  0  0  0  0  0  0  0
   -5.7221    0.3037    0.0000 O   0  0  0  0  0  0  0  0  0  0  0  0
   -7.0211    2.5537    0.0000 C   0  0  0  0  0  0  0  0  0  0  0  0
   -8.3914    1.9435    0.0000 C   0  0  0  0  0  0  0  0  0  0  0  0
   -9.3951    3.0583    0.0000 C   0  0  0  0  0  0  0  0  0  0  0  0
   -8.6451    4.3573    0.0000 C   0  0  0  0  0  0  0  0  0  0  0  0
   -9.2552    5.7276    0.0000 C   0  0  0  0  0  0  0  0  0  0  0  0
   -8.3736    6.9411    0.0000 C   0  0  0  0  0  0  0  0  0  0  0  0
   -8.9837    8.3115    0.0000 C   0  0  0  0  0  0  0  0  0  0  0  0
  -10.4755    8.4683    0.0000 N   0  0  0  0  0  0  0  0  0  0  0  0
  -11.3571    7.2547    0.0000 C   0  0  0  0  0  0  0  0  0  0  0  0
  -12.8489    7.4115    0.0000 F   0  0  0  0  0  0  0  0  0  0  0  0
  -10.7470    5.8844    0.0000 C   0  0  0  0  0  0  0  0  0  0  0  0
   -7.1779    4.0454    0.0000 S   0  0  0  0  0  0  0  0  0  0  0  0
   -1.7537    2.4138    0.0000 N   0  0  0  0  0  0  0  0  0  0  0  0
   -1.4418    3.8810    0.0000 C   0  0  0  0  0  0  0  0  0  0  0  0
   -0.0152    4.3445    0.0000 C   0  0  0  0  0  0  0  0  0  0  0  0
    0.2966    5.8117    0.0000 C   0  0  0  0  0  0  0  0  0  0  0  0
    1.7232    6.2752    0.0000 N   0  0  0  0  0  0  0  0  0  0  0  0
   -0.8181    6.8154    0.0000 O   0  0  0  0  0  0  0  0  0  0  0  0
  1  2  1  0
  2  3  1  0
  3  4  2  0
  3  5  1  0
  5  6  2  0
  6  7  1  0
  7  8  2  0
  8  9  1  0
  9 10  2  0
  2 11  1  0
 11 12  2  0
 12 13  1  0
 13 14  2  0
 14 15  1  0
 15 16  2  0
 15 17  1  0
 17 18  1  0
 18 19  2  0
 19 20  1  0
 20 21  2  0
 20 22  1  0
 22 23  2  0
 23 24  1  0
 24 25  2  0
 25 26  1  0
 26 27  2  0
 27 28  1  0
 28 29  2  0
 29 30  1  0
 30 31  1  0
 30 32  2  0
 25 33  1  0
 18 34  1  0
 34 35  1  0
 35 36  1  0
 36 37  1  0
 37 38  1  0
 37 39  2  0
 10  5  1  0
 16 11  1  0
 33 22  1  0
 34 14  1  0
 32 26  1  0
M  END
>  <Compound_ID>  (108) 
CHEMBL520110

>  <Molecule Name>  (108) 
nan

>  <Molecular Weight>  (108) 
542.6

>  <AlogP>  (108) 
4.13

>  <Smiles>  (108) 
CN(C(=O)c1ccccc1)c1ccc2c(c1)[nH]/c(=N\C(=O)c1ccc(-c3ccnc(F)c3)s1)n2CCC(N)=O

>  <Standard Type>  (108) 
IC50

>  <Standard Relation>  (108) 
'='

>  <Standard Units>  (108) 
nM

>  <Standard Value>  (108) 
3.0

>  <Assay ChEMBL ID>  (108) 
CHEMBL992190

>  <Assay Description>  (108) 
Inhibition of ITK by DELFIA method

>  <BAO Format ID>  (108) 
BAO_0000357

>  <BAO Label>  (108) 
single protein format

>  <Assay Organism>  (108) 
None

>  <Target ChEMBL ID>  (108) 
CHEMBL2959

>  <Target Name>  (108) 
Tyrosine-protein kinase ITK/TSK

>  <Target Organism>  (108) 
Homo sapiens

>  <Target Type>  (108) 
SINGLE PROTEIN

>  <Document ChEMBL ID>  (108) 
CHEMBL1143295

>  <Source Description>  (108) 
Scientific Literature

>  <Document Journal>  (108) 
Bioorg Med Chem Lett

>  <Document Year>  (108) 
2009.0

>  <Active>  (108) 
1.0

$$$$

     RDKit          2D

 38 42  0  0  0  0  0  0  0  0999 V2000
    0.7500   -3.8971    0.0000 C   0  0  0  0  0  0  0  0  0  0  0  0
    1.5000   -2.5981    0.0000 N   0  0  0  0  0  0  0  0  0  0  0  0
    3.0000   -2.5981    0.0000 C   0  0  0  0  0  0  0  0  0  0  0  0
    3.7500   -1.2990    0.0000 O   0  0  0  0  0  0  0  0  0  0  0  0
    3.7500   -3.8971    0.0000 C   0  0  0  0  0  0  0  0  0  0  0  0
    3.0000   -5.1962    0.0000 C   0  0  0  0  0  0  0  0  0  0  0  0
    3.7500   -6.4952    0.0000 C   0  0  0  0  0  0  0  0  0  0  0  0
    5.2500   -6.4952    0.0000 C   0  0  0  0  0  0  0  0  0  0  0  0
    6.0000   -5.1962    0.0000 C   0  0  0  0  0  0  0  0  0  0  0  0
    5.2500   -3.8971    0.0000 C   0  0  0  0  0  0  0  0  0  0  0  0
    0.7500   -1.2990    0.0000 C   0  0  0  0  0  0  0  0  0  0  0  0
    1.5000    0.0000    0.0000 C   0  0  0  0  0  0  0  0  0  0  0  0
    0.7500    1.2990    0.0000 C   0  0  0  0  0  0  0  0  0  0  0  0
   -0.7500    1.2990    0.0000 C   0  0  0  0  0  0  0  0  0  0  0  0
   -1.5000    0.0000    0.0000 C   0  0  0  0  0  0  0  0  0  0  0  0
   -0.7500   -1.2990    0.0000 C   0  0  0  0  0  0  0  0  0  0  0  0
   -2.9672    0.3119    0.0000 N   0  0  0  0  0  0  0  0  0  0  0  0
   -3.1240    1.8037    0.0000 C   0  0  0  0  0  0  0  0  0  0  0  0
   -4.4231    2.5537    0.0000 N   0  0  0  0  0  0  0  0  0  0  0  0
   -4.4231    4.0537    0.0000 C   0  0  0  0  0  0  0  0  0  0  0  0
   -3.1240    4.8037    0.0000 O   0  0  0  0  0  0  0  0  0  0  0  0
   -5.7221    4.8037    0.0000 C   0  0  0  0  0  0  0  0  0  0  0  0
   -5.7221    6.3037    0.0000 C   0  0  0  0  0  0  0  0  0  0  0  0
   -7.0211    7.0537    0.0000 C   0  0  0  0  0  0  0  0  0  0  0  0
   -8.3202    6.3037    0.0000 C   0  0  0  0  0  0  0  0  0  0  0  0
   -9.6192    7.0537    0.0000 C   0  0  0  0  0  0  0  0  0  0  0  0
  -10.9182    7.8037    0.0000 N   0  0  0  0  0  0  0  0  0  0  0  0
   -8.3202    4.8037    0.0000 C   0  0  0  0  0  0  0  0  0  0  0  0
   -7.0211    4.0537    0.0000 C   0  0  0  0  0  0  0  0  0  0  0  0
   -1.7537    2.4138    0.0000 N   0  0  0  0  0  0  0  0  0  0  0  0
   -1.4418    3.8810    0.0000 C   0  0  0  0  0  0  0  0  0  0  0  0
   -0.0152    4.3445    0.0000 C   0  0  0  0  0  0  0  0  0  0  0  0
    0.2966    5.8117    0.0000 C   0  0  0  0  0  0  0  0  0  0  0  0
    1.7232    6.2752    0.0000 N   0  0  0  0  0  0  0  0  0  0  0  0
    2.1867    7.7018    0.0000 C   0  0  0  0  0  0  0  0  0  0  0  0
    3.6867    7.7018    0.0000 C   0  0  0  0  0  0  0  0  0  0  0  0
    4.1503    6.2752    0.0000 N   0  0  0  0  0  0  0  0  0  0  0  0
    2.9367    5.3936    0.0000 C   0  0  0  0  0  0  0  0  0  0  0  0
  1  2  1  0
  2  3  1  0
  3  4  2  0
  3  5  1  0
  5  6  1  0
  6  7  1  0
  7  8  1  0
  8  9  1  0
  9 10  1  0
  2 11  1  0
 11 12  2  0
 12 13  1  0
 13 14  2  0
 14 15  1  0
 15 16  2  0
 15 17  1  0
 17 18  2  0
 18 19  1  0
 19 20  1  0
 20 21  2  0
 20 22  1  0
 22 23  2  0
 23 24  1  0
 24 25  2  0
 25 26  1  0
 26 27  3  0
 25 28  1  0
 28 29  2  0
 18 30  1  0
 30 31  1  0
 31 32  1  0
 32 33  1  0
 33 34  1  0
 34 35  1  0
 35 36  2  0
 36 37  1  0
 37 38  2  0
 10  5  1  0
 16 11  1  0
 29 22  1  0
 38 34  1  0
 30 14  1  0
M  END
>  <Compound_ID>  (109) 
CHEMBL485031

>  <Molecule Name>  (109) 
nan

>  <Molecular Weight>  (109) 
509.61

>  <AlogP>  (109) 
4.99

>  <Smiles>  (109) 
CN(C(=O)C1CCCCC1)c1ccc2c(c1)nc(NC(=O)c1ccc(C#N)cc1)n2CCCn1ccnc1

>  <Standard Type>  (109) 
IC50

>  <Standard Relation>  (109) 
'='

>  <Standard Units>  (109) 
nM

>  <Standard Value>  (109) 
4.0

>  <Assay ChEMBL ID>  (109) 
CHEMBL992563

>  <Assay Description>  (109) 
Inhibition of ITK by DELFIA assay

>  <BAO Format ID>  (109) 
BAO_0000357

>  <BAO Label>  (109) 
single protein format

>  <Assay Organism>  (109) 
None

>  <Target ChEMBL ID>  (109) 
CHEMBL2959

>  <Target Name>  (109) 
Tyrosine-protein kinase ITK/TSK

>  <Target Organism>  (109) 
Homo sapiens

>  <Target Type>  (109) 
SINGLE PROTEIN

>  <Document ChEMBL ID>  (109) 
CHEMBL1142468

>  <Source Description>  (109) 
Scientific Literature

>  <Document Journal>  (109) 
Bioorg Med Chem Lett

>  <Document Year>  (109) 
2008.0

>  <Active>  (109) 
1.0

$$$$

     RDKit          2D

 38 41  0  0  0  0  0  0  0  0999 V2000
    3.7500   -1.2990    0.0000 C   0  0  0  0  0  0  0  0  0  0  0  0
    3.0000    0.0000    0.0000 O   0  0  0  0  0  0  0  0  0  0  0  0
    1.5000    0.0000    0.0000 C   0  0  0  0  0  0  0  0  0  0  0  0
    0.7500   -1.2990    0.0000 C   0  0  0  0  0  0  0  0  0  0  0  0
   -0.7500   -1.2990    0.0000 C   0  0  0  0  0  0  0  0  0  0  0  0
   -1.5000   -2.5981    0.0000 C   0  0  0  0  0  0  0  0  0  0  0  0
   -1.5000    0.0000    0.0000 C   0  0  0  0  0  0  0  0  0  0  0  0
   -3.0000    0.0000    0.0000 S   0  0  0  0  0  0  0  0  0  0  0  0
   -3.7500    1.2990    0.0000 C   0  0  0  0  0  0  0  0  0  0  0  0
   -5.2418    1.4558    0.0000 C   0  0  0  0  0  0  0  0  0  0  0  0
   -5.5537    2.9231    0.0000 N   0  0  0  0  0  0  0  0  0  0  0  0
   -4.2546    3.6731    0.0000 C   0  0  0  0  0  0  0  0  0  0  0  0
   -4.0978    5.1648    0.0000 N   0  0  0  0  0  0  0  0  0  0  0  0
   -2.7275    5.7749    0.0000 C   0  0  0  0  0  0  0  0  0  0  0  0
   -1.5140    4.8933    0.0000 O   0  0  0  0  0  0  0  0  0  0  0  0
   -2.5707    7.2667    0.0000 C   0  0  0  0  0  0  0  0  0  0  0  0
   -1.2004    7.8768    0.0000 C   0  0  0  0  0  0  0  0  0  0  0  0
   -1.0436    9.3686    0.0000 C   0  0  0  0  0  0  0  0  0  0  0  0
   -2.2571   10.2503    0.0000 C   0  0  0  0  0  0  0  0  0  0  0  0
   -2.1003   11.7421    0.0000 N   0  0  0  0  0  0  0  0  0  0  0  0
   -0.7300   12.3522    0.0000 C   0  0  0  0  0  0  0  0  0  0  0  0
   -3.3139   12.6237    0.0000 C   0  0  0  0  0  0  0  0  0  0  0  0
   -3.6274    9.6402    0.0000 C   0  0  0  0  0  0  0  0  0  0  0  0
   -3.7842    8.1484    0.0000 C   0  0  0  0  0  0  0  0  0  0  0  0
   -3.1399    2.6694    0.0000 S   0  0  0  0  0  0  0  0  0  0  0  0
   -0.7500    1.2990    0.0000 C   0  0  0  0  0  0  0  0  0  0  0  0
    0.7500    1.2990    0.0000 C   0  0  0  0  0  0  0  0  0  0  0  0
    1.5000    2.5981    0.0000 C   0  0  0  0  0  0  0  0  0  0  0  0
    0.7500    3.8971    0.0000 O   0  0  0  0  0  0  0  0  0  0  0  0
    3.0000    2.5981    0.0000 N   0  0  0  0  0  0  0  0  0  0  0  0
    3.7500    1.2990    0.0000 C   0  0  0  0  0  0  0  0  0  0  0  0
    5.2500    1.2990    0.0000 C   0  0  0  0  0  0  0  0  0  0  0  0
    6.0000    2.5981    0.0000 N   0  0  0  0  0  0  0  0  0  0  0  0
    7.5000    2.5981    0.0000 C   0  0  0  0  0  0  0  0  0  0  0  0
    8.2500    1.2990    0.0000 C   0  0  0  0  0  0  0  0  0  0  0  0
    8.2500    3.8971    0.0000 O   0  0  0  0  0  0  0  0  0  0  0  0
    5.2500    3.8971    0.0000 C   0  0  0  0  0  0  0  0  0  0  0  0
    3.7500    3.8971    0.0000 C   0  0  0  0  0  0  0  0  0  0  0  0
  1  2  1  0
  2  3  1  0
  3  4  2  0
  4  5  1  0
  5  6  1  0
  5  7  2  0
  7  8  1  0
  8  9  1  0
  9 10  2  0
 10 11  1  0
 11 12  2  0
 12 13  1  0
 13 14  1  0
 14 15  2  0
 14 16  1  0
 16 17  2  0
 17 18  1  0
 18 19  2  0
 19 20  1  0
 20 21  1  0
 20 22  1  0
 19 23  1  0
 23 24  2  0
 12 25  1  0
  7 26  1  0
 26 27  2  0
 27 28  1  0
 28 29  2  0
 28 30  1  0
 30 31  1  0
 31 32  1  0
 32 33  1  0
 33 34  1  0
 34 35  1  0
 34 36  2  0
 33 37  1  0
 37 38  1  0
 27  3  1  0
 38 30  1  0
 25  9  1  0
 24 16  1  0
M  END
>  <Compound_ID>  (110) 
CHEMBL379114

>  <Molecule Name>  (110) 
nan

>  <Molecular Weight>  (110) 
553.71

>  <AlogP>  (110) 
4.23

>  <Smiles>  (110) 
COc1cc(C)c(Sc2cnc(NC(=O)c3ccc(N(C)C)cc3)s2)cc1C(=O)N1CCN(C(C)=O)CC1

>  <Standard Type>  (110) 
IC50

>  <Standard Relation>  (110) 
'='

>  <Standard Units>  (110) 
nM

>  <Standard Value>  (110) 
18.0

>  <Assay ChEMBL ID>  (110) 
CHEMBL864159

>  <Assay Description>  (110) 
Inhibition of Itk

>  <BAO Format ID>  (110) 
BAO_0000357

>  <BAO Label>  (110) 
single protein format

>  <Assay Organism>  (110) 
Homo sapiens

>  <Target ChEMBL ID>  (110) 
CHEMBL2959

>  <Target Name>  (110) 
Tyrosine-protein kinase ITK/TSK

>  <Target Organism>  (110) 
Homo sapiens

>  <Target Type>  (110) 
SINGLE PROTEIN

>  <Document ChEMBL ID>  (110) 
CHEMBL1138957

>  <Source Description>  (110) 
Scientific Literature

>  <Document Journal>  (110) 
Bioorg Med Chem Lett

>  <Document Year>  (110) 
2006.0

>  <Active>  (110) 
1.0

$$$$

     RDKit          2D

 32 35  0  0  0  0  0  0  0  0999 V2000
    3.7500    1.2990    0.0000 O   0  0  0  0  0  0  0  0  0  0  0  0
    3.0000    0.0000    0.0000 C   0  0  0  0  0  0  0  0  0  0  0  0
    3.7500   -1.2990    0.0000 O   0  0  0  0  0  0  0  0  0  0  0  0
    1.5000    0.0000    0.0000 C   0  0  0  0  0  0  0  0  0  0  0  0
    0.7500   -1.2990    0.0000 C   0  0  0  0  0  0  0  0  0  0  0  0
   -0.7500   -1.2990    0.0000 C   0  0  0  0  0  0  0  0  0  0  0  0
   -1.5000    0.0000    0.0000 N   0  0  0  0  0  0  0  0  0  0  0  0
   -3.0000    0.0000    0.0000 C   0  0  0  0  0  0  0  0  0  0  0  0
   -3.7500   -1.2990    0.0000 O   0  0  0  0  0  0  0  0  0  0  0  0
   -3.7500    1.2990    0.0000 C   0  0  0  0  0  0  0  0  0  0  0  0
   -3.0000    2.5981    0.0000 C   0  0  0  0  0  0  0  0  0  0  0  0
   -3.7500    3.8971    0.0000 C   0  0  0  0  0  0  0  0  0  0  0  0
   -3.0000    5.1962    0.0000 S   0  0  0  0  0  0  0  0  0  0  0  0
   -1.5000    5.1962    0.0000 C   0  0  0  0  0  0  0  0  0  0  0  0
   -0.6183    6.4097    0.0000 C   0  0  0  0  0  0  0  0  0  0  0  0
    0.8083    5.9462    0.0000 N   0  0  0  0  0  0  0  0  0  0  0  0
    0.8083    4.4462    0.0000 C   0  0  0  0  0  0  0  0  0  0  0  0
    2.0218    3.5645    0.0000 N   0  0  0  0  0  0  0  0  0  0  0  0
    3.3921    4.1746    0.0000 C   0  0  0  0  0  0  0  0  0  0  0  0
    4.6056    3.2929    0.0000 C   0  0  0  0  0  0  0  0  0  0  0  0
    5.9760    3.9030    0.0000 C   0  0  0  0  0  0  0  0  0  0  0  0
    6.1327    5.3948    0.0000 C   0  0  0  0  0  0  0  0  0  0  0  0
    4.9192    6.2765    0.0000 C   0  0  0  0  0  0  0  0  0  0  0  0
    5.0760    7.7683    0.0000 Br  0  0  0  0  0  0  0  0  0  0  0  0
    3.5489    5.6664    0.0000 N   0  0  0  0  0  0  0  0  0  0  0  0
   -0.6183    3.9826    0.0000 S   0  0  0  0  0  0  0  0  0  0  0  0
   -5.2500    3.8971    0.0000 C   0  0  0  0  0  0  0  0  0  0  0  0
   -6.0000    2.5981    0.0000 C   0  0  0  0  0  0  0  0  0  0  0  0
   -5.2500    1.2990    0.0000 C   0  0  0  0  0  0  0  0  0  0  0  0
   -6.0000    0.0000    0.0000 O   0  0  0  0  0  0  0  0  0  0  0  0
   -0.7500    1.2990    0.0000 C   0  0  0  0  0  0  0  0  0  0  0  0
    0.7500    1.2990    0.0000 C   0  0  0  0  0  0  0  0  0  0  0  0
  1  2  2  0
  2  3  1  0
  2  4  1  0
  4  5  1  0
  5  6  1  0
  6  7  1  0
  7  8  1  0
  8  9  2  0
  8 10  1  0
 10 11  2  0
 11 12  1  0
 12 13  1  0
 13 14  1  0
 14 15  2  0
 15 16  1  0
 16 17  2  0
 17 18  1  0
 18 19  1  0
 19 20  2  0
 20 21  1  0
 21 22  2  0
 22 23  1  0
 23 24  1  0
 23 25  2  0
 17 26  1  0
 12 27  2  0
 27 28  1  0
 28 29  2  0
 29 30  1  0
  7 31  1  0
 31 32  1  0
 32  4  1  0
 29 10  1  0
 26 14  1  0
 25 19  1  0
M  END
>  <Compound_ID>  (111) 
CHEMBL210123

>  <Molecule Name>  (111) 
nan

>  <Molecular Weight>  (111) 
535.45

>  <AlogP>  (111) 
4.84

>  <Smiles>  (111) 
O=C(O)C1CCN(C(=O)c2cc(Sc3cnc(Nc4cccc(Br)n4)s3)ccc2O)CC1

>  <Standard Type>  (111) 
IC50

>  <Standard Relation>  (111) 
'='

>  <Standard Units>  (111) 
nM

>  <Standard Value>  (111) 
15.0

>  <Assay ChEMBL ID>  (111) 
CHEMBL864159

>  <Assay Description>  (111) 
Inhibition of Itk

>  <BAO Format ID>  (111) 
BAO_0000357

>  <BAO Label>  (111) 
single protein format

>  <Assay Organism>  (111) 
Homo sapiens

>  <Target ChEMBL ID>  (111) 
CHEMBL2959

>  <Target Name>  (111) 
Tyrosine-protein kinase ITK/TSK

>  <Target Organism>  (111) 
Homo sapiens

>  <Target Type>  (111) 
SINGLE PROTEIN

>  <Document ChEMBL ID>  (111) 
CHEMBL1138957

>  <Source Description>  (111) 
Scientific Literature

>  <Document Journal>  (111) 
Bioorg Med Chem Lett

>  <Document Year>  (111) 
2006.0

>  <Active>  (111) 
1.0

$$$$

     RDKit          2D

 35 39  0  0  0  0  0  0  0  0999 V2000
   -5.1962    0.8927    0.0000 O   0  0  0  0  0  0  0  0  0  0  0  0
   -5.1962   -0.6073    0.0000 C   0  0  0  0  0  0  0  0  0  0  0  0
   -3.8971   -1.3573    0.0000 C   0  0  0  0  0  0  0  0  0  0  0  0
   -3.8971   -2.8573    0.0000 C   0  0  0  0  0  0  0  0  0  0  0  0
   -5.1962   -3.6073    0.0000 C   0  0  0  0  0  0  0  0  0  0  0  0
   -5.1962   -5.1073    0.0000 N   0  0  0  0  0  0  0  0  0  0  0  0
   -3.8971   -5.8573    0.0000 C   0  0  0  0  0  0  0  0  0  0  0  0
   -3.8971   -7.3573    0.0000 N   0  0  0  0  0  0  0  0  0  0  0  0
   -2.5981   -8.1073    0.0000 C   0  0  0  0  0  0  0  0  0  0  0  0
   -2.5981   -9.6073    0.0000 C   0  0  0  0  0  0  0  0  0  0  0  0
   -3.8971  -10.3573    0.0000 C   0  0  0  0  0  0  0  0  0  0  0  0
   -5.1962   -9.6073    0.0000 C   0  0  0  0  0  0  0  0  0  0  0  0
   -6.4952  -10.3573    0.0000 C   0  0  0  0  0  0  0  0  0  0  0  0
   -6.4952  -11.8573    0.0000 C   0  0  0  0  0  0  0  0  0  0  0  0
   -5.1962  -12.6073    0.0000 C   0  0  0  0  0  0  0  0  0  0  0  0
   -3.8971  -11.8573    0.0000 C   0  0  0  0  0  0  0  0  0  0  0  0
   -1.2990   -7.3573    0.0000 C   0  0  0  0  0  0  0  0  0  0  0  0
   -1.2990   -5.8573    0.0000 C   0  0  0  0  0  0  0  0  0  0  0  0
   -0.0000   -5.1073    0.0000 N   0  0  0  0  0  0  0  0  0  0  0  0
   -0.0000   -3.6073    0.0000 C   0  0  0  0  0  0  0  0  0  0  0  0
    1.2135   -2.7256    0.0000 N   0  0  0  0  0  0  0  0  0  0  0  0
    0.7500   -1.2990    0.0000 C   0  0  0  0  0  0  0  0  0  0  0  0
    1.5000    0.0000    0.0000 C   0  0  0  0  0  0  0  0  0  0  0  0
    0.7500    1.2990    0.0000 C   0  0  0  0  0  0  0  0  0  0  0  0
   -0.7500    1.2990    0.0000 C   0  0  0  0  0  0  0  0  0  0  0  0
   -1.5000    2.5981    0.0000 C   0  0  0  0  0  0  0  0  0  0  0  0
   -2.2500    3.8971    0.0000 F   0  0  0  0  0  0  0  0  0  0  0  0
   -0.2010    3.3481    0.0000 F   0  0  0  0  0  0  0  0  0  0  0  0
   -2.7990    1.8481    0.0000 F   0  0  0  0  0  0  0  0  0  0  0  0
   -1.5000    0.0000    0.0000 C   0  0  0  0  0  0  0  0  0  0  0  0
   -0.7500   -1.2990    0.0000 C   0  0  0  0  0  0  0  0  0  0  0  0
   -1.2135   -2.7256    0.0000 S   0  0  0  0  0  0  0  0  0  0  0  0
   -2.5981   -5.1073    0.0000 N   0  0  0  0  0  0  0  0  0  0  0  0
   -6.4952   -2.8573    0.0000 C   0  0  0  0  0  0  0  0  0  0  0  0
   -6.4952   -1.3573    0.0000 C   0  0  0  0  0  0  0  0  0  0  0  0
  2  1  1  1
  2  3  1  0
  3  4  1  0
  4  5  1  0
  5  6  1  6
  6  7  1  0
  7  8  2  0
  8  9  1  0
  9 10  1  0
 10 11  1  0
 11 12  2  0
 12 13  1  0
 13 14  2  0
 14 15  1  0
 15 16  2  0
  9 17  2  0
 17 18  1  0
 18 19  1  0
 19 20  1  0
 20 21  2  0
 21 22  1  0
 22 23  2  0
 23 24  1  0
 24 25  2  0
 25 26  1  0
 26 27  1  0
 26 28  1  0
 26 29  1  0
 25 30  1  0
 30 31  2  0
 31 32  1  0
 18 33  2  0
  5 34  1  0
 34 35  1  0
 35  2  1  0
 33  7  1  0
 16 11  1  0
 32 20  1  0
 31 22  1  0
M  END
>  <Compound_ID>  (112) 
CHEMBL2441272

>  <Molecule Name>  (112) 
nan

>  <Molecular Weight>  (112) 
499.56

>  <AlogP>  (112) 
6.15

>  <Smiles>  (112) 
O[C@H]1CC[C@H](Nc2nc(Cc3ccccc3)cc(Nc3nc4ccc(C(F)(F)F)cc4s3)n2)CC1

>  <Standard Type>  (112) 
Ki

>  <Standard Relation>  (112) 
'='

>  <Standard Units>  (112) 
nM

>  <Standard Value>  (112) 
12.59

>  <Assay ChEMBL ID>  (112) 
CHEMBL2446687

>  <Assay Description>  (112) 
Inhibition of recombinant human FLAG-tagged ITK using biotinylated GST-SAM68 as substrate after 30 mins

>  <BAO Format ID>  (112) 
BAO_0000357

>  <BAO Label>  (112) 
single protein format

>  <Assay Organism>  (112) 
Homo sapiens

>  <Target ChEMBL ID>  (112) 
CHEMBL2959

>  <Target Name>  (112) 
Tyrosine-protein kinase ITK/TSK

>  <Target Organism>  (112) 
Homo sapiens

>  <Target Type>  (112) 
SINGLE PROTEIN

>  <Document ChEMBL ID>  (112) 
CHEMBL2440060

>  <Source Description>  (112) 
Scientific Literature

>  <Document Journal>  (112) 
ACS Med Chem Lett

>  <Document Year>  (112) 
2013.0

>  <Active>  (112) 
1.0

$$$$

     RDKit          2D

 36 40  0  0  0  0  0  0  0  0999 V2000
    3.7500   -1.2990    0.0000 C   0  0  0  0  0  0  0  0  0  0  0  0
    3.0000    0.0000    0.0000 O   0  0  0  0  0  0  0  0  0  0  0  0
    1.5000    0.0000    0.0000 C   0  0  0  0  0  0  0  0  0  0  0  0
    0.7500   -1.2990    0.0000 C   0  0  0  0  0  0  0  0  0  0  0  0
   -0.7500   -1.2990    0.0000 C   0  0  0  0  0  0  0  0  0  0  0  0
   -1.5000    0.0000    0.0000 C   0  0  0  0  0  0  0  0  0  0  0  0
   -2.9672    0.3119    0.0000 N   0  0  0  0  0  0  0  0  0  0  0  0
   -3.1240    1.8037    0.0000 C   0  0  0  0  0  0  0  0  0  0  0  0
   -4.4231    2.5537    0.0000 N   0  0  0  0  0  0  0  0  0  0  0  0
   -4.4231    4.0537    0.0000 C   0  0  0  0  0  0  0  0  0  0  0  0
   -3.1240    4.8037    0.0000 C   0  0  0  0  0  0  0  0  0  0  0  0
   -3.1240    6.3037    0.0000 C   0  0  0  0  0  0  0  0  0  0  0  0
   -1.8250    7.0537    0.0000 C   0  0  0  0  0  0  0  0  0  0  0  0
   -2.5750    8.3527    0.0000 F   0  0  0  0  0  0  0  0  0  0  0  0
   -1.0750    5.7546    0.0000 F   0  0  0  0  0  0  0  0  0  0  0  0
   -0.5259    7.8037    0.0000 C   0  0  0  0  0  0  0  0  0  0  0  0
    0.7731    7.0537    0.0000 C   0  0  0  0  0  0  0  0  0  0  0  0
    2.0721    7.8037    0.0000 C   0  0  0  0  0  0  0  0  0  0  0  0
    2.0721    9.3037    0.0000 C   0  0  0  0  0  0  0  0  0  0  0  0
    3.3712   10.0537    0.0000 F   0  0  0  0  0  0  0  0  0  0  0  0
    0.7731   10.0537    0.0000 C   0  0  0  0  0  0  0  0  0  0  0  0
   -0.5259    9.3037    0.0000 C   0  0  0  0  0  0  0  0  0  0  0  0
   -4.4231    7.0537    0.0000 N   0  0  0  0  0  0  0  0  0  0  0  0
   -5.7221    6.3037    0.0000 C   0  0  0  0  0  0  0  0  0  0  0  0
   -7.0211    7.0537    0.0000 N   0  0  0  0  0  0  0  0  0  0  0  0
   -7.0211    8.5537    0.0000 C   0  0  0  0  0  0  0  0  0  0  0  0
   -5.7221    9.3037    0.0000 C   0  0  0  0  0  0  0  0  0  0  0  0
   -5.7221   10.8037    0.0000 C   0  0  0  0  0  0  0  0  0  0  0  0
   -7.0211   11.5537    0.0000 C   0  0  0  0  0  0  0  0  0  0  0  0
   -7.0211   13.0537    0.0000 O   0  0  0  0  0  0  0  0  0  0  0  0
   -8.3202   10.8037    0.0000 C   0  0  0  0  0  0  0  0  0  0  0  0
   -8.3202    9.3037    0.0000 C   0  0  0  0  0  0  0  0  0  0  0  0
   -5.7221    4.8037    0.0000 N   0  0  0  0  0  0  0  0  0  0  0  0
   -1.7537    2.4138    0.0000 S   0  0  0  0  0  0  0  0  0  0  0  0
   -0.7500    1.2990    0.0000 C   0  0  0  0  0  0  0  0  0  0  0  0
    0.7500    1.2990    0.0000 C   0  0  0  0  0  0  0  0  0  0  0  0
  1  2  1  0
  2  3  1  0
  3  4  2  0
  4  5  1  0
  5  6  2  0
  6  7  1  0
  7  8  2  0
  8  9  1  0
  9 10  1  0
 10 11  2  0
 11 12  1  0
 12 13  1  0
 13 14  1  0
 13 15  1  0
 13 16  1  0
 16 17  2  0
 17 18  1  0
 18 19  2  0
 19 20  1  0
 19 21  1  0
 21 22  2  0
 12 23  2  0
 23 24  1  0
 24 25  1  0
 26 25  1  6
 26 27  1  0
 27 28  1  0
 28 29  1  0
 29 30  1  1
 29 31  1  0
 31 32  1  0
 24 33  2  0
  8 34  1  0
 34 35  1  0
 35 36  2  0
 36  3  1  0
 35  6  1  0
 33 10  1  0
 22 16  1  0
 32 26  1  0
M  END
>  <Compound_ID>  (113) 
CHEMBL2441286

>  <Molecule Name>  (113) 
nan

>  <Molecular Weight>  (113) 
515.56

>  <AlogP>  (113) 
5.83

>  <Smiles>  (113) 
COc1ccc2nc(Nc3cc(C(F)(F)c4ccc(F)cc4)nc(N[C@H]4CC[C@H](O)CC4)n3)sc2c1

>  <Standard Type>  (113) 
Ki

>  <Standard Relation>  (113) 
'='

>  <Standard Units>  (113) 
nM

>  <Standard Value>  (113) 
19.95

>  <Assay ChEMBL ID>  (113) 
CHEMBL2446687

>  <Assay Description>  (113) 
Inhibition of recombinant human FLAG-tagged ITK using biotinylated GST-SAM68 as substrate after 30 mins

>  <BAO Format ID>  (113) 
BAO_0000357

>  <BAO Label>  (113) 
single protein format

>  <Assay Organism>  (113) 
Homo sapiens

>  <Target ChEMBL ID>  (113) 
CHEMBL2959

>  <Target Name>  (113) 
Tyrosine-protein kinase ITK/TSK

>  <Target Organism>  (113) 
Homo sapiens

>  <Target Type>  (113) 
SINGLE PROTEIN

>  <Document ChEMBL ID>  (113) 
CHEMBL2440060

>  <Source Description>  (113) 
Scientific Literature

>  <Document Journal>  (113) 
ACS Med Chem Lett

>  <Document Year>  (113) 
2013.0

>  <Active>  (113) 
1.0

$$$$

     RDKit          2D

 35 39  0  0  0  0  0  0  0  0999 V2000
    3.7500   -1.2990    0.0000 C   0  0  0  0  0  0  0  0  0  0  0  0
    3.0000    0.0000    0.0000 N   0  0  0  0  0  0  0  0  0  0  0  0
    1.5000    0.0000    0.0000 C   0  0  0  0  0  0  0  0  0  0  0  0
    0.7500   -1.2990    0.0000 C   0  0  0  0  0  0  0  0  0  0  0  0
   -0.7500   -1.2990    0.0000 N   0  0  0  0  0  0  0  0  0  0  0  0
   -1.5000    0.0000    0.0000 C   0  0  0  0  0  0  0  0  0  0  0  0
   -0.7500    1.2990    0.0000 C   0  0  0  0  0  0  0  0  0  0  0  0
   -1.5000    2.5981    0.0000 C   0  0  0  0  0  0  0  0  0  0  0  0
   -0.7500    3.8971    0.0000 C   0  0  0  0  0  0  0  0  0  0  0  0
   -1.5000    5.1962    0.0000 N   0  0  0  0  0  0  0  0  0  0  0  0
   -3.0000    5.1962    0.0000 C   0  0  0  0  0  0  0  0  0  0  0  0
   -3.7500    6.4952    0.0000 O   0  0  0  0  0  0  0  0  0  0  0  0
   -3.7500    3.8971    0.0000 C   0  0  0  0  0  0  0  0  0  0  0  0
   -5.2500    3.8971    0.0000 N   0  0  0  0  0  0  0  0  0  0  0  0
   -6.0000    2.5981    0.0000 C   0  0  0  0  0  0  0  0  0  0  0  0
   -5.2500    1.2990    0.0000 O   0  0  0  0  0  0  0  0  0  0  0  0
   -7.5000    2.5981    0.0000 C   0  0  0  0  0  0  0  0  0  0  0  0
   -8.2500    3.8971    0.0000 C   0  0  0  0  0  0  0  0  0  0  0  0
   -9.7500    3.8971    0.0000 C   0  0  0  0  0  0  0  0  0  0  0  0
  -10.5000    2.5981    0.0000 C   0  0  0  0  0  0  0  0  0  0  0  0
  -12.0000    2.5981    0.0000 N   0  0  0  0  0  0  0  0  0  0  0  0
  -12.8817    1.3846    0.0000 C   0  0  0  0  0  0  0  0  0  0  0  0
  -14.3083    1.8481    0.0000 C   0  0  0  0  0  0  0  0  0  0  0  0
  -14.3083    3.3481    0.0000 C   0  0  0  0  0  0  0  0  0  0  0  0
  -12.8817    3.8116    0.0000 C   0  0  0  0  0  0  0  0  0  0  0  0
  -12.4182    5.2382    0.0000 C   0  0  0  0  0  0  0  0  0  0  0  0
  -13.4218    6.3529    0.0000 N   0  0  0  0  0  0  0  0  0  0  0  0
  -14.9136    6.1961    0.0000 C   0  0  0  0  0  0  0  0  0  0  0  0
  -15.5237    7.5664    0.0000 C   0  0  0  0  0  0  0  0  0  0  0  0
  -14.4090    8.5701    0.0000 C   0  0  0  0  0  0  0  0  0  0  0  0
  -13.1100    7.8201    0.0000 C   0  0  0  0  0  0  0  0  0  0  0  0
   -9.7500    1.2990    0.0000 C   0  0  0  0  0  0  0  0  0  0  0  0
   -8.2500    1.2990    0.0000 C   0  0  0  0  0  0  0  0  0  0  0  0
   -3.0000    2.5981    0.0000 C   0  0  0  0  0  0  0  0  0  0  0  0
    0.7500    1.2990    0.0000 N   0  0  0  0  0  0  0  0  0  0  0  0
  1  2  1  0
  2  3  1  0
  3  4  2  0
  4  5  1  0
  5  6  2  0
  6  7  1  0
  7  8  1  0
  8  9  2  0
  9 10  1  0
 10 11  1  0
 11 12  2  0
 11 13  1  0
 13 14  1  0
 14 15  1  0
 15 16  2  0
 15 17  1  0
 17 18  2  0
 18 19  1  0
 19 20  2  0
 20 21  1  0
 21 22  1  0
 22 23  1  0
 23 24  1  0
 24 25  1  0
 25 26  1  1
 26 27  1  0
 27 28  1  0
 28 29  1  0
 29 30  1  0
 30 31  1  0
 20 32  1  0
 32 33  2  0
 13 34  2  0
  7 35  2  0
 35  3  1  0
 34  8  1  0
 33 17  1  0
 25 21  1  0
 31 27  1  0
M  END
>  <Compound_ID>  (114) 
CHEMBL1765781

>  <Molecule Name>  (114) 
nan

>  <Molecular Weight>  (114) 
473.58

>  <AlogP>  (114) 
3.19

>  <Smiles>  (114) 
CNc1cncc(-c2c[nH]c(=O)c(NC(=O)c3ccc(N4CCC[C@H]4CN4CCCC4)cc3)c2)n1

>  <Standard Type>  (114) 
Ki

>  <Standard Relation>  (114) 
'='

>  <Standard Units>  (114) 
nM

>  <Standard Value>  (114) 
7.0

>  <Assay ChEMBL ID>  (114) 
CHEMBL1768448

>  <Assay Description>  (114) 
Inhibition of Itk after 40 mins by radiometric phosphate incorporation assay

>  <BAO Format ID>  (114) 
BAO_0000357

>  <BAO Label>  (114) 
single protein format

>  <Assay Organism>  (114) 
None

>  <Target ChEMBL ID>  (114) 
CHEMBL2959

>  <Target Name>  (114) 
Tyrosine-protein kinase ITK/TSK

>  <Target Organism>  (114) 
Homo sapiens

>  <Target Type>  (114) 
SINGLE PROTEIN

>  <Document ChEMBL ID>  (114) 
CHEMBL1765075

>  <Source Description>  (114) 
Scientific Literature

>  <Document Journal>  (114) 
J Med Chem

>  <Document Year>  (114) 
2011.0

>  <Active>  (114) 
1.0

$$$$

     RDKit          2D

 31 34  0  0  0  0  0  0  0  0999 V2000
   -7.7227   -2.1088    0.0000 C   0  0  0  0  0  0  0  0  0  0  0  0
   -6.2961   -1.6453    0.0000 O   0  0  0  0  0  0  0  0  0  0  0  0
   -5.1814   -2.6490    0.0000 C   0  0  0  0  0  0  0  0  0  0  0  0
   -3.7548   -2.1855    0.0000 C   0  0  0  0  0  0  0  0  0  0  0  0
   -2.6401   -3.1891    0.0000 C   0  0  0  0  0  0  0  0  0  0  0  0
   -1.2135   -2.7256    0.0000 N   0  0  0  0  0  0  0  0  0  0  0  0
   -0.0000   -3.6073    0.0000 C   0  0  0  0  0  0  0  0  0  0  0  0
   -0.0000   -5.1073    0.0000 N   0  0  0  0  0  0  0  0  0  0  0  0
   -1.2990   -5.8573    0.0000 C   0  0  0  0  0  0  0  0  0  0  0  0
   -2.5981   -5.1073    0.0000 O   0  0  0  0  0  0  0  0  0  0  0  0
   -1.2990   -7.3573    0.0000 C   0  0  0  0  0  0  0  0  0  0  0  0
   -0.0855   -8.2390    0.0000 C   0  0  0  0  0  0  0  0  0  0  0  0
   -0.5490   -9.6656    0.0000 C   0  0  0  0  0  0  0  0  0  0  0  0
   -2.0490   -9.6656    0.0000 N   0  0  0  0  0  0  0  0  0  0  0  0
   -2.5126   -8.2390    0.0000 O   0  0  0  0  0  0  0  0  0  0  0  0
    1.2135   -2.7256    0.0000 N   0  0  0  0  0  0  0  0  0  0  0  0
    0.7500   -1.2990    0.0000 C   0  0  0  0  0  0  0  0  0  0  0  0
    1.5000    0.0000    0.0000 C   0  0  0  0  0  0  0  0  0  0  0  0
    0.7500    1.2990    0.0000 C   0  0  0  0  0  0  0  0  0  0  0  0
    1.5000    2.5981    0.0000 C   0  0  0  0  0  0  0  0  0  0  0  0
    3.0000    2.5981    0.0000 N   0  0  0  0  0  0  0  0  0  0  0  0
    3.7500    3.8971    0.0000 C   0  0  0  0  0  0  0  0  0  0  0  0
    3.7500    1.2990    0.0000 C   0  0  0  0  0  0  0  0  0  0  0  0
    3.0000   -0.0000    0.0000 C   0  0  0  0  0  0  0  0  0  0  0  0
    3.7500   -1.2990    0.0000 C   0  0  0  0  0  0  0  0  0  0  0  0
    5.2500   -1.2990    0.0000 C   0  0  0  0  0  0  0  0  0  0  0  0
    6.0000   -0.0000    0.0000 C   0  0  0  0  0  0  0  0  0  0  0  0
    5.2500    1.2990    0.0000 C   0  0  0  0  0  0  0  0  0  0  0  0
   -0.7500    1.2990    0.0000 C   0  0  0  0  0  0  0  0  0  0  0  0
   -1.5000    0.0000    0.0000 C   0  0  0  0  0  0  0  0  0  0  0  0
   -0.7500   -1.2990    0.0000 C   0  0  0  0  0  0  0  0  0  0  0  0
  1  2  1  0
  2  3  1  0
  3  4  1  0
  4  5  1  0
  5  6  1  0
  6  7  1  0
  7  8  1  0
  8  9  1  0
  9 10  2  0
  9 11  1  0
 11 12  2  0
 12 13  1  0
 13 14  2  0
 14 15  1  0
  7 16  2  0
 16 17  1  0
 17 18  2  0
 18 19  1  0
 19 20  1  0
 20 21  1  0
 21 22  1  0
 21 23  1  0
 23 24  1  0
 24 25  1  0
 25 26  1  0
 26 27  1  0
 27 28  1  0
 19 29  2  0
 29 30  1  0
 30 31  2  0
 31  6  1  0
 15 11  1  0
 31 17  1  0
 28 23  1  0
M  END
>  <Compound_ID>  (115) 
CHEMBL450635

>  <Molecule Name>  (115) 
nan

>  <Molecular Weight>  (115) 
425.53

>  <AlogP>  (115) 
4.08

>  <Smiles>  (115) 
COCCCn1c(NC(=O)c2ccno2)nc2cc(CN(C)C3CCCCC3)ccc21

>  <Standard Type>  (115) 
IC50

>  <Standard Relation>  (115) 
'='

>  <Standard Units>  (115) 
nM

>  <Standard Value>  (115) 
47.0

>  <Assay ChEMBL ID>  (115) 
CHEMBL1006237

>  <Assay Description>  (115) 
Inhibition of ITK by DELPHIA assay

>  <BAO Format ID>  (115) 
BAO_0000357

>  <BAO Label>  (115) 
single protein format

>  <Assay Organism>  (115) 
None

>  <Target ChEMBL ID>  (115) 
CHEMBL2959

>  <Target Name>  (115) 
Tyrosine-protein kinase ITK/TSK

>  <Target Organism>  (115) 
Homo sapiens

>  <Target Type>  (115) 
SINGLE PROTEIN

>  <Document ChEMBL ID>  (115) 
CHEMBL1152240

>  <Source Description>  (115) 
Scientific Literature

>  <Document Journal>  (115) 
Bioorg Med Chem Lett

>  <Document Year>  (115) 
2008.0

>  <Active>  (115) 
1.0

$$$$

     RDKit          2D

 32 36  0  0  0  0  0  0  0  0999 V2000
   -6.7104   -7.1474    0.0000 C   0  0  0  0  0  0  0  0  0  0  0  0
   -5.2187   -7.3041    0.0000 C   0  0  0  0  0  0  0  0  0  0  0  0
   -4.3370   -6.0906    0.0000 C   0  0  0  0  0  0  0  0  0  0  0  0
   -4.9471   -4.7203    0.0000 O   0  0  0  0  0  0  0  0  0  0  0  0
   -2.8452   -6.2474    0.0000 N   0  0  0  0  0  0  0  0  0  0  0  0
   -1.9635   -5.0339    0.0000 C   0  0  0  0  0  0  0  0  0  0  0  0
   -2.4271   -3.6073    0.0000 C   0  0  0  0  0  0  0  0  0  0  0  0
   -1.2135   -2.7256    0.0000 N   0  0  0  0  0  0  0  0  0  0  0  0
   -0.0000   -3.6073    0.0000 C   0  0  0  0  0  0  0  0  0  0  0  0
    1.2135   -2.7256    0.0000 C   0  0  0  0  0  0  0  0  0  0  0  0
    2.6401   -3.1891    0.0000 C   0  0  0  0  0  0  0  0  0  0  0  0
    2.9520   -4.6564    0.0000 C   0  0  0  0  0  0  0  0  0  0  0  0
    4.3786   -5.1199    0.0000 C   0  0  0  0  0  0  0  0  0  0  0  0
    5.4933   -4.1162    0.0000 C   0  0  0  0  0  0  0  0  0  0  0  0
    6.9199   -4.5797    0.0000 O   0  0  0  0  0  0  0  0  0  0  0  0
    7.2317   -6.0469    0.0000 C   0  0  0  0  0  0  0  0  0  0  0  0
    6.1170   -7.0506    0.0000 C   0  0  0  0  0  0  0  0  0  0  0  0
    6.4289   -8.5179    0.0000 C   0  0  0  0  0  0  0  0  0  0  0  0
    7.8555   -8.9814    0.0000 C   0  0  0  0  0  0  0  0  0  0  0  0
    8.9702   -7.9777    0.0000 C   0  0  0  0  0  0  0  0  0  0  0  0
    8.6583   -6.5105    0.0000 C   0  0  0  0  0  0  0  0  0  0  0  0
    5.1814   -2.6490    0.0000 C   0  0  0  0  0  0  0  0  0  0  0  0
    3.7548   -2.1855    0.0000 C   0  0  0  0  0  0  0  0  0  0  0  0
    0.7500   -1.2990    0.0000 C   0  0  0  0  0  0  0  0  0  0  0  0
    1.5000    0.0000    0.0000 C   0  0  0  0  0  0  0  0  0  0  0  0
    3.0000    0.0000    0.0000 N   0  0  0  0  0  0  0  0  0  0  0  0
    0.7500    1.2990    0.0000 N   0  0  0  0  0  0  0  0  0  0  0  0
   -0.7500    1.2990    0.0000 C   0  0  0  0  0  0  0  0  0  0  0  0
   -1.5000    0.0000    0.0000 N   0  0  0  0  0  0  0  0  0  0  0  0
   -0.7500   -1.2990    0.0000 C   0  0  0  0  0  0  0  0  0  0  0  0
   -0.4635   -5.0339    0.0000 C   0  0  0  0  0  0  0  0  0  0  0  0
    0.4182   -6.2474    0.0000 C   0  0  0  0  0  0  0  0  0  0  0  0
  1  2  2  0
  2  3  1  0
  3  4  2  0
  3  5  1  0
  6  5  1  6
  6  7  1  0
  7  8  1  0
  8  9  1  0
  9 10  2  0
 10 11  1  0
 11 12  2  0
 12 13  1  0
 13 14  2  0
 14 15  1  0
 15 16  1  0
 16 17  2  0
 17 18  1  0
 18 19  2  0
 19 20  1  0
 20 21  2  0
 14 22  1  0
 22 23  2  0
 10 24  1  0
 24 25  2  0
 25 26  1  0
 25 27  1  0
 27 28  2  0
 28 29  1  0
 29 30  2  0
  9 31  1  0
 31 32  2  0
 31  6  1  0
 30  8  1  0
 23 11  1  0
 30 24  1  0
 21 16  1  0
M  END
>  <Compound_ID>  (116) 
CHEMBL4211949

>  <Molecule Name>  (116) 
nan

>  <Molecular Weight>  (116) 
423.48

>  <AlogP>  (116) 
4.17

>  <Smiles>  (116) 
C=CC(=O)N[C@@H]1Cn2c(c(-c3ccc(Oc4ccccc4)cc3)c3c(N)ncnc32)C1=C

>  <Standard Type>  (116) 
IC50

>  <Standard Relation>  (116) 
'='

>  <Standard Units>  (116) 
nM

>  <Standard Value>  (116) 
15.1

>  <Assay ChEMBL ID>  (116) 
CHEMBL4189695

>  <Assay Description>  (116) 
Inhibition of recombinant human ITK using Poly(Glu, Tyr) 4:1 as substrate after 1 hr by ELISA

>  <BAO Format ID>  (116) 
BAO_0000357

>  <BAO Label>  (116) 
single protein format

>  <Assay Organism>  (116) 
Homo sapiens

>  <Target ChEMBL ID>  (116) 
CHEMBL2959

>  <Target Name>  (116) 
Tyrosine-protein kinase ITK/TSK

>  <Target Organism>  (116) 
Homo sapiens

>  <Target Type>  (116) 
SINGLE PROTEIN

>  <Document ChEMBL ID>  (116) 
CHEMBL4184325

>  <Source Description>  (116) 
Scientific Literature

>  <Document Journal>  (116) 
J Med Chem

>  <Document Year>  (116) 
2018.0

>  <Active>  (116) 
1.0

$$$$

     RDKit          2D

 27 29  0  0  0  0  0  0  0  0999 V2000
   -7.9861   -6.9730    0.0000 C   0  0  0  0  0  0  0  0  0  0  0  0
   -7.6742   -5.5058    0.0000 C   0  0  0  0  0  0  0  0  0  0  0  0
   -7.3624   -4.0385    0.0000 C   0  0  0  0  0  0  0  0  0  0  0  0
   -7.0505   -2.5713    0.0000 C   0  0  0  0  0  0  0  0  0  0  0  0
   -8.1652   -1.5676    0.0000 O   0  0  0  0  0  0  0  0  0  0  0  0
   -5.6239   -2.1078    0.0000 N   0  0  0  0  0  0  0  0  0  0  0  0
   -5.3120   -0.6406    0.0000 C   0  0  0  0  0  0  0  0  0  0  0  0
   -6.4268    0.3631    0.0000 C   0  0  0  0  0  0  0  0  0  0  0  0
   -6.1149    1.8303    0.0000 C   0  0  0  0  0  0  0  0  0  0  0  0
   -4.6883    2.2939    0.0000 C   0  0  0  0  0  0  0  0  0  0  0  0
   -3.5736    1.2902    0.0000 N   0  0  0  0  0  0  0  0  0  0  0  0
   -2.1470    1.7537    0.0000 C   0  0  0  0  0  0  0  0  0  0  0  0
   -1.8351    3.2209    0.0000 C   0  0  0  0  0  0  0  0  0  0  0  0
   -2.9499    4.2246    0.0000 F   0  0  0  0  0  0  0  0  0  0  0  0
   -0.4086    3.6844    0.0000 C   0  0  0  0  0  0  0  0  0  0  0  0
    0.7062    2.6807    0.0000 C   0  0  0  0  0  0  0  0  0  0  0  0
    2.1328    3.1443    0.0000 C   0  0  0  0  0  0  0  0  0  0  0  0
    2.4446    4.6115    0.0000 N   0  0  0  0  0  0  0  0  0  0  0  0
    3.2475    2.1406    0.0000 O   0  0  0  0  0  0  0  0  0  0  0  0
    0.3943    1.2135    0.0000 C   0  0  0  0  0  0  0  0  0  0  0  0
    1.2760    0.0000    0.0000 N   0  0  0  0  0  0  0  0  0  0  0  0
    0.3943   -1.2135    0.0000 C   0  0  0  0  0  0  0  0  0  0  0  0
    0.8578   -2.6401    0.0000 C   0  0  0  0  0  0  0  0  0  0  0  0
   -1.0323   -0.7500    0.0000 C   0  0  0  0  0  0  0  0  0  0  0  0
   -2.2458   -1.6317    0.0000 C   0  0  0  0  0  0  0  0  0  0  0  0
   -1.0323    0.7500    0.0000 C   0  0  0  0  0  0  0  0  0  0  0  0
   -3.8855   -0.1771    0.0000 C   0  0  0  0  0  0  0  0  0  0  0  0
  1  2  1  0
  2  3  3  0
  3  4  1  0
  4  5  2  0
  4  6  1  0
  7  6  1  1
  7  8  1  0
  8  9  1  0
  9 10  1  0
 10 11  1  0
 11 12  1  0
 12 13  2  0
 13 14  1  0
 13 15  1  0
 15 16  2  0
 16 17  1  0
 17 18  1  0
 17 19  2  0
 16 20  1  0
 20 21  1  0
 21 22  1  0
 22 23  1  0
 22 24  2  0
 24 25  1  0
 24 26  1  0
 11 27  1  0
 27  7  1  0
 26 12  1  0
 26 20  2  0
M  END
>  <Compound_ID>  (117) 
CHEMBL4297674

>  <Molecule Name>  (117) 
BRANEBRUTINIB

>  <Molecular Weight>  (117) 
370.43

>  <AlogP>  (117) 
2.13

>  <Smiles>  (117) 
CC#CC(=O)N[C@H]1CCCN(c2c(F)cc(C(N)=O)c3[nH]c(C)c(C)c23)C1

>  <Standard Type>  (117) 
IC50

>  <Standard Relation>  (117) 
'='

>  <Standard Units>  (117) 
nM

>  <Standard Value>  (117) 
100.0

>  <Assay ChEMBL ID>  (117) 
CHEMBL4616781

>  <Assay Description>  (117) 
Inhibition of ITK (unknown origin)

>  <BAO Format ID>  (117) 
BAO_0000357

>  <BAO Label>  (117) 
single protein format

>  <Assay Organism>  (117) 
Homo sapiens

>  <Target ChEMBL ID>  (117) 
CHEMBL2959

>  <Target Name>  (117) 
Tyrosine-protein kinase ITK/TSK

>  <Target Organism>  (117) 
Homo sapiens

>  <Target Type>  (117) 
SINGLE PROTEIN

>  <Document ChEMBL ID>  (117) 
CHEMBL4616583

>  <Source Description>  (117) 
Scientific Literature

>  <Document Journal>  (117) 
J Med Chem

>  <Document Year>  (117) 
2019.0

>  <Active>  (117) 
1.0

$$$$

     RDKit          2D

 34 37  0  0  0  0  0  0  0  0999 V2000
   -1.2990  -11.8573    0.0000 C   0  0  0  0  0  0  0  0  0  0  0  0
   -1.2990  -10.3573    0.0000 C   0  0  0  0  0  0  0  0  0  0  0  0
   -2.5981   -9.6073    0.0000 C   0  0  0  0  0  0  0  0  0  0  0  0
   -2.5981   -8.1073    0.0000 C   0  0  0  0  0  0  0  0  0  0  0  0
   -1.2990   -7.3573    0.0000 C   0  0  0  0  0  0  0  0  0  0  0  0
   -1.2990   -5.8573    0.0000 C   0  0  0  0  0  0  0  0  0  0  0  0
   -2.5981   -5.1073    0.0000 O   0  0  0  0  0  0  0  0  0  0  0  0
   -0.0000   -5.1073    0.0000 N   0  0  0  0  0  0  0  0  0  0  0  0
   -0.0000   -3.6073    0.0000 C   0  0  0  0  0  0  0  0  0  0  0  0
    1.2135   -2.7256    0.0000 N   0  0  0  0  0  0  0  0  0  0  0  0
    0.7500   -1.2990    0.0000 C   0  0  0  0  0  0  0  0  0  0  0  0
    1.5000    0.0000    0.0000 C   0  0  0  0  0  0  0  0  0  0  0  0
    0.7500    1.2990    0.0000 C   0  0  0  0  0  0  0  0  0  0  0  0
    1.5000    2.5981    0.0000 N   0  0  0  0  0  0  0  0  0  0  0  0
    3.0000    2.5981    0.0000 C   0  0  0  0  0  0  0  0  0  0  0  0
    0.7500    3.8971    0.0000 C   0  0  0  0  0  0  0  0  0  0  0  0
   -0.7500    3.8971    0.0000 O   0  0  0  0  0  0  0  0  0  0  0  0
    1.5000    5.1962    0.0000 C   0  0  0  0  0  0  0  0  0  0  0  0
    3.0000    5.1962    0.0000 C   0  0  0  0  0  0  0  0  0  0  0  0
    3.7500    6.4952    0.0000 C   0  0  0  0  0  0  0  0  0  0  0  0
    3.0000    7.7942    0.0000 C   0  0  0  0  0  0  0  0  0  0  0  0
    1.5000    7.7942    0.0000 C   0  0  0  0  0  0  0  0  0  0  0  0
    0.7500    6.4952    0.0000 C   0  0  0  0  0  0  0  0  0  0  0  0
   -0.7500    1.2990    0.0000 C   0  0  0  0  0  0  0  0  0  0  0  0
   -1.5000    0.0000    0.0000 C   0  0  0  0  0  0  0  0  0  0  0  0
   -0.7500   -1.2990    0.0000 C   0  0  0  0  0  0  0  0  0  0  0  0
   -1.2135   -2.7256    0.0000 N   0  0  0  0  0  0  0  0  0  0  0  0
   -2.6401   -3.1891    0.0000 C   0  0  0  0  0  0  0  0  0  0  0  0
   -3.7548   -2.1855    0.0000 C   0  0  0  0  0  0  0  0  0  0  0  0
   -5.1814   -2.6490    0.0000 C   0  0  0  0  0  0  0  0  0  0  0  0
   -6.2961   -1.6453    0.0000 N   0  0  0  0  0  0  0  0  0  0  0  0
   -5.4933   -4.1162    0.0000 O   0  0  0  0  0  0  0  0  0  0  0  0
    0.0000   -8.1073    0.0000 C   0  0  0  0  0  0  0  0  0  0  0  0
    0.0000   -9.6073    0.0000 C   0  0  0  0  0  0  0  0  0  0  0  0
  1  2  1  0
  2  3  2  0
  3  4  1  0
  4  5  2  0
  5  6  1  0
  6  7  2  0
  6  8  1  0
  8  9  1  0
  9 10  2  0
 10 11  1  0
 11 12  2  0
 12 13  1  0
 13 14  1  0
 14 15  1  0
 14 16  1  0
 16 17  2  0
 16 18  1  0
 18 19  1  0
 19 20  1  0
 20 21  1  0
 21 22  1  0
 22 23  1  0
 13 24  2  0
 24 25  1  0
 25 26  2  0
 26 27  1  0
 27 28  1  0
 28 29  1  0
 29 30  1  0
 30 31  1  0
 30 32  2  0
  5 33  1  0
 33 34  2  0
 34  2  1  0
 27  9  1  0
 26 11  1  0
 23 18  1  0
M  END
>  <Compound_ID>  (118) 
CHEMBL521468

>  <Molecule Name>  (118) 
nan

>  <Molecular Weight>  (118) 
461.57

>  <AlogP>  (118) 
4.02

>  <Smiles>  (118) 
Cc1ccc(C(=O)Nc2nc3cc(N(C)C(=O)C4CCCCC4)ccc3n2CCC(N)=O)cc1

>  <Standard Type>  (118) 
IC50

>  <Standard Relation>  (118) 
'='

>  <Standard Units>  (118) 
nM

>  <Standard Value>  (118) 
35.0

>  <Assay ChEMBL ID>  (118) 
CHEMBL992563

>  <Assay Description>  (118) 
Inhibition of ITK by DELFIA assay

>  <BAO Format ID>  (118) 
BAO_0000357

>  <BAO Label>  (118) 
single protein format

>  <Assay Organism>  (118) 
None

>  <Target ChEMBL ID>  (118) 
CHEMBL2959

>  <Target Name>  (118) 
Tyrosine-protein kinase ITK/TSK

>  <Target Organism>  (118) 
Homo sapiens

>  <Target Type>  (118) 
SINGLE PROTEIN

>  <Document ChEMBL ID>  (118) 
CHEMBL1142468

>  <Source Description>  (118) 
Scientific Literature

>  <Document Journal>  (118) 
Bioorg Med Chem Lett

>  <Document Year>  (118) 
2008.0

>  <Active>  (118) 
1.0

$$$$

     RDKit          2D

 38 42  0  0  0  0  0  0  0  0999 V2000
    3.6807  -14.6874    0.0000 C   0  0  0  0  0  0  0  0  0  0  0  0
    3.6807  -13.1874    0.0000 C   0  0  0  0  0  0  0  0  0  0  0  0
    4.8942  -12.3057    0.0000 N   0  0  0  0  0  0  0  0  0  0  0  0
    4.4307  -10.8791    0.0000 C   0  0  0  0  0  0  0  0  0  0  0  0
    2.9307  -10.8791    0.0000 C   0  0  0  0  0  0  0  0  0  0  0  0
    2.0490   -9.6656    0.0000 C   0  0  0  0  0  0  0  0  0  0  0  0
    0.5490   -9.6656    0.0000 C   0  0  0  0  0  0  0  0  0  0  0  0
    0.0855   -8.2390    0.0000 C   0  0  0  0  0  0  0  0  0  0  0  0
    1.2990   -7.3573    0.0000 C   0  0  0  0  0  0  0  0  0  0  0  0
    1.2990   -5.8573    0.0000 C   0  0  0  0  0  0  0  0  0  0  0  0
    2.5981   -5.1073    0.0000 O   0  0  0  0  0  0  0  0  0  0  0  0
   -0.0000   -5.1073    0.0000 N   0  0  0  0  0  0  0  0  0  0  0  0
   -0.0000   -3.6073    0.0000 C   0  0  0  0  0  0  0  0  0  0  0  0
    1.2135   -2.7256    0.0000 N   0  0  0  0  0  0  0  0  0  0  0  0
    0.7500   -1.2990    0.0000 C   0  0  0  0  0  0  0  0  0  0  0  0
    1.5000    0.0000    0.0000 C   0  0  0  0  0  0  0  0  0  0  0  0
    0.7500    1.2990    0.0000 C   0  0  0  0  0  0  0  0  0  0  0  0
    1.5000    2.5981    0.0000 N   0  0  0  0  0  0  0  0  0  0  0  0
    3.0000    2.5981    0.0000 C   0  0  0  0  0  0  0  0  0  0  0  0
    0.7500    3.8971    0.0000 C   0  0  0  0  0  0  0  0  0  0  0  0
   -0.7500    3.8971    0.0000 O   0  0  0  0  0  0  0  0  0  0  0  0
    1.5000    5.1962    0.0000 C   0  0  0  0  0  0  0  0  0  0  0  0
    3.0000    5.1962    0.0000 C   0  0  0  0  0  0  0  0  0  0  0  0
    3.7500    6.4952    0.0000 C   0  0  0  0  0  0  0  0  0  0  0  0
    3.0000    7.7942    0.0000 C   0  0  0  0  0  0  0  0  0  0  0  0
    1.5000    7.7942    0.0000 C   0  0  0  0  0  0  0  0  0  0  0  0
    0.7500    6.4952    0.0000 C   0  0  0  0  0  0  0  0  0  0  0  0
   -0.7500    1.2990    0.0000 C   0  0  0  0  0  0  0  0  0  0  0  0
   -1.5000    0.0000    0.0000 C   0  0  0  0  0  0  0  0  0  0  0  0
   -0.7500   -1.2990    0.0000 C   0  0  0  0  0  0  0  0  0  0  0  0
   -1.2135   -2.7256    0.0000 N   0  0  0  0  0  0  0  0  0  0  0  0
   -2.6401   -3.1891    0.0000 C   0  0  0  0  0  0  0  0  0  0  0  0
   -3.7548   -2.1855    0.0000 C   0  0  0  0  0  0  0  0  0  0  0  0
   -2.7511   -1.0707    0.0000 C   0  0  0  0  0  0  0  0  0  0  0  0
   -4.7585   -3.3002    0.0000 C   0  0  0  0  0  0  0  0  0  0  0  0
   -4.8695   -1.1818    0.0000 O   0  0  0  0  0  0  0  0  0  0  0  0
    2.5126   -8.2390    0.0000 S   0  0  0  0  0  0  0  0  0  0  0  0
    2.4672  -12.3057    0.0000 O   0  0  0  0  0  0  0  0  0  0  0  0
  1  2  1  0
  2  3  2  0
  3  4  1  0
  4  5  2  0
  5  6  1  0
  6  7  2  0
  7  8  1  0
  8  9  2  0
  9 10  1  0
 10 11  2  0
 10 12  1  0
 12 13  2  0
 13 14  1  0
 14 15  1  0
 15 16  2  0
 16 17  1  0
 17 18  1  0
 18 19  1  0
 18 20  1  0
 20 21  2  0
 20 22  1  0
 22 23  2  0
 23 24  1  0
 24 25  2  0
 25 26  1  0
 26 27  2  0
 17 28  2  0
 28 29  1  0
 29 30  2  0
 30 31  1  0
 31 32  1  0
 32 33  1  0
 33 34  1  0
 33 35  1  0
 33 36  1  0
  9 37  1  0
  5 38  1  0
 38  2  1  0
 37  6  1  0
 31 13  1  0
 30 15  1  0
 27 22  1  0
M  END
>  <Compound_ID>  (119) 
CHEMBL492931

>  <Molecule Name>  (119) 
nan

>  <Molecular Weight>  (119) 
529.62

>  <AlogP>  (119) 
4.78

>  <Smiles>  (119) 
Cc1ncc(-c2ccc(C(=O)/N=c3\[nH]c4cc(N(C)C(=O)c5ccccc5)ccc4n3CC(C)(C)O)s2)o1

>  <Standard Type>  (119) 
IC50

>  <Standard Relation>  (119) 
'='

>  <Standard Units>  (119) 
nM

>  <Standard Value>  (119) 
3.0

>  <Assay ChEMBL ID>  (119) 
CHEMBL1018826

>  <Assay Description>  (119) 
Binding affinity to ITK by DELFIA-based molecular assay

>  <BAO Format ID>  (119) 
BAO_0000357

>  <BAO Label>  (119) 
single protein format

>  <Assay Organism>  (119) 
None

>  <Target ChEMBL ID>  (119) 
CHEMBL2959

>  <Target Name>  (119) 
Tyrosine-protein kinase ITK/TSK

>  <Target Organism>  (119) 
Homo sapiens

>  <Target Type>  (119) 
SINGLE PROTEIN

>  <Document ChEMBL ID>  (119) 
CHEMBL1153328

>  <Source Description>  (119) 
Scientific Literature

>  <Document Journal>  (119) 
Bioorg Med Chem Lett

>  <Document Year>  (119) 
2009.0

>  <Active>  (119) 
1.0

$$$$

     RDKit          2D

 36 39  0  0  0  0  0  0  0  0999 V2000
    3.7500   -3.8971    0.0000 C   0  0  0  0  0  0  0  0  0  0  0  0
    3.0000   -2.5981    0.0000 C   0  0  0  0  0  0  0  0  0  0  0  0
    3.7500   -1.2990    0.0000 N   0  0  0  0  0  0  0  0  0  0  0  0
    5.2500   -1.2990    0.0000 C   0  0  0  0  0  0  0  0  0  0  0  0
    3.0000    0.0000    0.0000 C   0  0  0  0  0  0  0  0  0  0  0  0
    1.5000    0.0000    0.0000 C   0  0  0  0  0  0  0  0  0  0  0  0
    0.7500   -1.2990    0.0000 C   0  0  0  0  0  0  0  0  0  0  0  0
   -0.7500   -1.2990    0.0000 C   0  0  0  0  0  0  0  0  0  0  0  0
   -1.5000    0.0000    0.0000 C   0  0  0  0  0  0  0  0  0  0  0  0
   -0.7500    1.2990    0.0000 C   0  0  0  0  0  0  0  0  0  0  0  0
    0.7500    1.2990    0.0000 C   0  0  0  0  0  0  0  0  0  0  0  0
   -1.7537    2.4138    0.0000 N   0  0  0  0  0  0  0  0  0  0  0  0
   -3.1240    1.8037    0.0000 C   0  0  0  0  0  0  0  0  0  0  0  0
   -4.4231    2.5537    0.0000 N   0  0  0  0  0  0  0  0  0  0  0  0
   -4.4231    4.0537    0.0000 C   0  0  0  0  0  0  0  0  0  0  0  0
   -3.1240    4.8037    0.0000 O   0  0  0  0  0  0  0  0  0  0  0  0
   -5.7221    4.8037    0.0000 C   0  0  0  0  0  0  0  0  0  0  0  0
   -7.0924    4.1935    0.0000 C   0  0  0  0  0  0  0  0  0  0  0  0
   -8.0961    5.3083    0.0000 C   0  0  0  0  0  0  0  0  0  0  0  0
   -7.3461    6.6073    0.0000 C   0  0  0  0  0  0  0  0  0  0  0  0
   -7.9562    7.9776    0.0000 C   0  0  0  0  0  0  0  0  0  0  0  0
   -9.4234    8.2895    0.0000 C   0  0  0  0  0  0  0  0  0  0  0  0
   -9.5802    9.7813    0.0000 N   0  0  0  0  0  0  0  0  0  0  0  0
   -8.2099   10.3914    0.0000 N   0  0  0  0  0  0  0  0  0  0  0  0
   -7.2062    9.2767    0.0000 C   0  0  0  0  0  0  0  0  0  0  0  0
   -5.8789    6.2954    0.0000 S   0  0  0  0  0  0  0  0  0  0  0  0
   -2.9672    0.3119    0.0000 N   0  0  0  0  0  0  0  0  0  0  0  0
   -4.0819   -0.6918    0.0000 C   0  0  0  0  0  0  0  0  0  0  0  0
   -5.5085   -0.2283    0.0000 C   0  0  0  0  0  0  0  0  0  0  0  0
   -5.0450    1.1983    0.0000 C   0  0  0  0  0  0  0  0  0  0  0  0
   -5.9720   -1.6549    0.0000 C   0  0  0  0  0  0  0  0  0  0  0  0
   -6.9351    0.2352    0.0000 O   0  0  0  0  0  0  0  0  0  0  0  0
    1.5000   -2.5981    0.0000 C   0  0  0  0  0  0  0  0  0  0  0  0
    1.5000   -4.0981    0.0000 C   0  0  0  0  0  0  0  0  0  0  0  0
    1.5000   -1.0981    0.0000 C   0  0  0  0  0  0  0  0  0  0  0  0
    0.0000   -2.5981    0.0000 C   0  0  0  0  0  0  0  0  0  0  0  0
  2  1  1  1
  2  3  1  0
  3  4  1  0
  3  5  1  0
  5  6  1  0
  6  7  2  0
  7  8  1  0
  8  9  2  0
  9 10  1  0
 10 11  2  0
 10 12  1  0
 12 13  1  0
 13 14  2  0
 14 15  1  0
 15 16  2  0
 15 17  1  0
 17 18  2  0
 18 19  1  0
 19 20  2  0
 20 21  1  0
 21 22  1  0
 22 23  2  0
 23 24  1  0
 24 25  1  0
 20 26  1  0
 13 27  1  0
 27 28  1  0
 28 29  1  0
 29 30  1  0
 29 31  1  0
 29 32  1  0
  2 33  1  0
 33 34  1  0
 33 35  1  0
 33 36  1  0
 11  6  1  0
 26 17  1  0
 27  9  1  0
 25 21  2  0
M  END
>  <Compound_ID>  (120) 
CHEMBL522711

>  <Molecule Name>  (120) 
nan

>  <Molecular Weight>  (120) 
508.69

>  <AlogP>  (120) 
4.80

>  <Smiles>  (120) 
C[C@H](N(C)Cc1ccc2c(c1)[nH]/c(=N\C(=O)c1ccc(-c3cn[nH]c3)s1)n2CC(C)(C)O)C(C)(C)C

>  <Standard Type>  (120) 
IC50

>  <Standard Relation>  (120) 
'='

>  <Standard Units>  (120) 
nM

>  <Standard Value>  (120) 
8.0

>  <Assay ChEMBL ID>  (120) 
CHEMBL1018827

>  <Assay Description>  (120) 
Inhibition of ITK in presence of 1 mM ATP

>  <BAO Format ID>  (120) 
BAO_0000357

>  <BAO Label>  (120) 
single protein format

>  <Assay Organism>  (120) 
None

>  <Target ChEMBL ID>  (120) 
CHEMBL2959

>  <Target Name>  (120) 
Tyrosine-protein kinase ITK/TSK

>  <Target Organism>  (120) 
Homo sapiens

>  <Target Type>  (120) 
SINGLE PROTEIN

>  <Document ChEMBL ID>  (120) 
CHEMBL1153328

>  <Source Description>  (120) 
Scientific Literature

>  <Document Journal>  (120) 
Bioorg Med Chem Lett

>  <Document Year>  (120) 
2009.0

>  <Active>  (120) 
1.0

$$$$

     RDKit          2D

 33 37  0  0  0  0  0  0  0  0999 V2000
    3.7500   -1.2990    0.0000 C   0  0  0  0  0  0  0  0  0  0  0  0
    3.0000    0.0000    0.0000 O   0  0  0  0  0  0  0  0  0  0  0  0
    1.5000    0.0000    0.0000 C   0  0  0  0  0  0  0  0  0  0  0  0
    0.7500   -1.2990    0.0000 C   0  0  0  0  0  0  0  0  0  0  0  0
   -0.7500   -1.2990    0.0000 C   0  0  0  0  0  0  0  0  0  0  0  0
   -1.5000    0.0000    0.0000 C   0  0  0  0  0  0  0  0  0  0  0  0
   -2.9672    0.3119    0.0000 N   0  0  0  0  0  0  0  0  0  0  0  0
   -3.1240    1.8037    0.0000 C   0  0  0  0  0  0  0  0  0  0  0  0
   -4.4231    2.5537    0.0000 N   0  0  0  0  0  0  0  0  0  0  0  0
   -4.4231    4.0537    0.0000 C   0  0  0  0  0  0  0  0  0  0  0  0
   -3.1240    4.8037    0.0000 C   0  0  0  0  0  0  0  0  0  0  0  0
   -3.1240    6.3037    0.0000 C   0  0  0  0  0  0  0  0  0  0  0  0
   -1.8250    7.0537    0.0000 C   0  0  0  0  0  0  0  0  0  0  0  0
   -0.5259    6.3037    0.0000 C   0  0  0  0  0  0  0  0  0  0  0  0
   -0.5259    4.8037    0.0000 C   0  0  0  0  0  0  0  0  0  0  0  0
    0.7731    4.0537    0.0000 C   0  0  0  0  0  0  0  0  0  0  0  0
    2.0721    4.8037    0.0000 C   0  0  0  0  0  0  0  0  0  0  0  0
    2.0721    6.3037    0.0000 C   0  0  0  0  0  0  0  0  0  0  0  0
    0.7731    7.0537    0.0000 C   0  0  0  0  0  0  0  0  0  0  0  0
   -4.4231    7.0537    0.0000 N   0  0  0  0  0  0  0  0  0  0  0  0
   -5.7221    6.3037    0.0000 C   0  0  0  0  0  0  0  0  0  0  0  0
   -7.0211    7.0537    0.0000 N   0  0  0  0  0  0  0  0  0  0  0  0
   -7.0211    8.5537    0.0000 C   0  0  0  0  0  0  0  0  0  0  0  0
   -5.7221    9.3037    0.0000 C   0  0  0  0  0  0  0  0  0  0  0  0
   -5.7221   10.8037    0.0000 C   0  0  0  0  0  0  0  0  0  0  0  0
   -7.0211   11.5537    0.0000 C   0  0  0  0  0  0  0  0  0  0  0  0
   -7.0211   13.0537    0.0000 O   0  0  0  0  0  0  0  0  0  0  0  0
   -8.3202   10.8037    0.0000 C   0  0  0  0  0  0  0  0  0  0  0  0
   -8.3202    9.3037    0.0000 C   0  0  0  0  0  0  0  0  0  0  0  0
   -5.7221    4.8037    0.0000 N   0  0  0  0  0  0  0  0  0  0  0  0
   -1.7537    2.4138    0.0000 S   0  0  0  0  0  0  0  0  0  0  0  0
   -0.7500    1.2990    0.0000 C   0  0  0  0  0  0  0  0  0  0  0  0
    0.7500    1.2990    0.0000 N   0  0  0  0  0  0  0  0  0  0  0  0
  1  2  1  0
  2  3  1  0
  3  4  2  0
  4  5  1  0
  5  6  2  0
  6  7  1  0
  7  8  2  0
  8  9  1  0
  9 10  1  0
 10 11  2  0
 11 12  1  0
 12 13  1  0
 13 14  1  0
 14 15  2  0
 15 16  1  0
 16 17  2  0
 17 18  1  0
 18 19  2  0
 12 20  2  0
 20 21  1  0
 21 22  1  0
 23 22  1  6
 23 24  1  0
 24 25  1  0
 25 26  1  0
 26 27  1  1
 26 28  1  0
 28 29  1  0
 21 30  2  0
  8 31  1  0
 31 32  1  0
 32 33  2  0
 33  3  1  0
 32  6  1  0
 30 10  1  0
 19 14  1  0
 29 23  1  0
M  END
>  <Compound_ID>  (121) 
CHEMBL2441275

>  <Molecule Name>  (121) 
nan

>  <Molecular Weight>  (121) 
462.58

>  <AlogP>  (121) 
4.54

>  <Smiles>  (121) 
COc1ccc2nc(Nc3cc(Cc4ccccc4)nc(N[C@H]4CC[C@H](O)CC4)n3)sc2n1

>  <Standard Type>  (121) 
Ki

>  <Standard Relation>  (121) 
'='

>  <Standard Units>  (121) 
nM

>  <Standard Value>  (121) 
0.1995

>  <Assay ChEMBL ID>  (121) 
CHEMBL2446687

>  <Assay Description>  (121) 
Inhibition of recombinant human FLAG-tagged ITK using biotinylated GST-SAM68 as substrate after 30 mins

>  <BAO Format ID>  (121) 
BAO_0000357

>  <BAO Label>  (121) 
single protein format

>  <Assay Organism>  (121) 
Homo sapiens

>  <Target ChEMBL ID>  (121) 
CHEMBL2959

>  <Target Name>  (121) 
Tyrosine-protein kinase ITK/TSK

>  <Target Organism>  (121) 
Homo sapiens

>  <Target Type>  (121) 
SINGLE PROTEIN

>  <Document ChEMBL ID>  (121) 
CHEMBL2440060

>  <Source Description>  (121) 
Scientific Literature

>  <Document Journal>  (121) 
ACS Med Chem Lett

>  <Document Year>  (121) 
2013.0

>  <Active>  (121) 
1.0

$$$$

     RDKit          2D

 32 36  0  0  0  0  0  0  0  0999 V2000
    3.0000    0.0000    0.0000 C   0  0  0  0  0  0  0  0  0  0  0  0
    1.5000    0.0000    0.0000 C   0  0  0  0  0  0  0  0  0  0  0  0
    0.7500   -1.2990    0.0000 C   0  0  0  0  0  0  0  0  0  0  0  0
   -0.7500   -1.2990    0.0000 C   0  0  0  0  0  0  0  0  0  0  0  0
   -1.5000    0.0000    0.0000 C   0  0  0  0  0  0  0  0  0  0  0  0
   -2.9672    0.3119    0.0000 N   0  0  0  0  0  0  0  0  0  0  0  0
   -3.1240    1.8037    0.0000 C   0  0  0  0  0  0  0  0  0  0  0  0
   -4.4231    2.5537    0.0000 N   0  0  0  0  0  0  0  0  0  0  0  0
   -4.4231    4.0537    0.0000 C   0  0  0  0  0  0  0  0  0  0  0  0
   -3.1240    4.8037    0.0000 C   0  0  0  0  0  0  0  0  0  0  0  0
   -3.1240    6.3037    0.0000 C   0  0  0  0  0  0  0  0  0  0  0  0
   -1.8250    7.0537    0.0000 C   0  0  0  0  0  0  0  0  0  0  0  0
   -0.5259    6.3037    0.0000 C   0  0  0  0  0  0  0  0  0  0  0  0
   -0.5259    4.8037    0.0000 C   0  0  0  0  0  0  0  0  0  0  0  0
    0.7731    4.0537    0.0000 C   0  0  0  0  0  0  0  0  0  0  0  0
    2.0721    4.8037    0.0000 C   0  0  0  0  0  0  0  0  0  0  0  0
    2.0721    6.3037    0.0000 C   0  0  0  0  0  0  0  0  0  0  0  0
    0.7731    7.0537    0.0000 C   0  0  0  0  0  0  0  0  0  0  0  0
   -4.4231    7.0537    0.0000 N   0  0  0  0  0  0  0  0  0  0  0  0
   -5.7221    6.3037    0.0000 C   0  0  0  0  0  0  0  0  0  0  0  0
   -7.0211    7.0537    0.0000 N   0  0  0  0  0  0  0  0  0  0  0  0
   -7.0211    8.5537    0.0000 C   0  0  0  0  0  0  0  0  0  0  0  0
   -5.7221    9.3037    0.0000 C   0  0  0  0  0  0  0  0  0  0  0  0
   -5.7221   10.8037    0.0000 C   0  0  0  0  0  0  0  0  0  0  0  0
   -7.0211   11.5537    0.0000 C   0  0  0  0  0  0  0  0  0  0  0  0
   -7.0211   13.0537    0.0000 O   0  0  0  0  0  0  0  0  0  0  0  0
   -8.3202   10.8037    0.0000 C   0  0  0  0  0  0  0  0  0  0  0  0
   -8.3202    9.3037    0.0000 C   0  0  0  0  0  0  0  0  0  0  0  0
   -5.7221    4.8037    0.0000 N   0  0  0  0  0  0  0  0  0  0  0  0
   -1.7537    2.4138    0.0000 S   0  0  0  0  0  0  0  0  0  0  0  0
   -0.7500    1.2990    0.0000 C   0  0  0  0  0  0  0  0  0  0  0  0
    0.7500    1.2990    0.0000 C   0  0  0  0  0  0  0  0  0  0  0  0
  1  2  1  0
  2  3  2  0
  3  4  1  0
  4  5  2  0
  5  6  1  0
  6  7  2  0
  7  8  1  0
  8  9  1  0
  9 10  2  0
 10 11  1  0
 11 12  1  0
 12 13  1  0
 13 14  2  0
 14 15  1  0
 15 16  2  0
 16 17  1  0
 17 18  2  0
 11 19  2  0
 19 20  1  0
 20 21  1  0
 22 21  1  6
 22 23  1  0
 23 24  1  0
 24 25  1  0
 25 26  1  1
 25 27  1  0
 27 28  1  0
 20 29  2  0
  7 30  1  0
 30 31  1  0
 31 32  2  0
 32  2  1  0
 31  5  1  0
 29  9  1  0
 18 13  1  0
 28 22  1  0
M  END
>  <Compound_ID>  (122) 
CHEMBL2441270

>  <Molecule Name>  (122) 
nan

>  <Molecular Weight>  (122) 
445.59

>  <AlogP>  (122) 
5.44

>  <Smiles>  (122) 
Cc1ccc2nc(Nc3cc(Cc4ccccc4)nc(N[C@H]4CC[C@H](O)CC4)n3)sc2c1

>  <Standard Type>  (122) 
Ki

>  <Standard Relation>  (122) 
'='

>  <Standard Units>  (122) 
nM

>  <Standard Value>  (122) 
0.3981

>  <Assay ChEMBL ID>  (122) 
CHEMBL2446687

>  <Assay Description>  (122) 
Inhibition of recombinant human FLAG-tagged ITK using biotinylated GST-SAM68 as substrate after 30 mins

>  <BAO Format ID>  (122) 
BAO_0000357

>  <BAO Label>  (122) 
single protein format

>  <Assay Organism>  (122) 
Homo sapiens

>  <Target ChEMBL ID>  (122) 
CHEMBL2959

>  <Target Name>  (122) 
Tyrosine-protein kinase ITK/TSK

>  <Target Organism>  (122) 
Homo sapiens

>  <Target Type>  (122) 
SINGLE PROTEIN

>  <Document ChEMBL ID>  (122) 
CHEMBL2440060

>  <Source Description>  (122) 
Scientific Literature

>  <Document Journal>  (122) 
ACS Med Chem Lett

>  <Document Year>  (122) 
2013.0

>  <Active>  (122) 
1.0

$$$$

     RDKit          2D

 37 40  0  0  0  0  0  0  0  0999 V2000
   11.2500   -6.4952    0.0000 C   0  0  0  0  0  0  0  0  0  0  0  0
   10.5000   -5.1962    0.0000 C   0  0  0  0  0  0  0  0  0  0  0  0
    9.0000   -5.1962    0.0000 C   0  0  0  0  0  0  0  0  0  0  0  0
    7.5000   -5.1962    0.0000 C   0  0  0  0  0  0  0  0  0  0  0  0
    6.0000   -5.1962    0.0000 C   0  0  0  0  0  0  0  0  0  0  0  0
    5.2500   -6.4952    0.0000 O   0  0  0  0  0  0  0  0  0  0  0  0
    5.2500   -3.8971    0.0000 N   0  0  0  0  0  0  0  0  0  0  0  0
    3.7500   -3.8971    0.0000 C   0  0  0  0  0  0  0  0  0  0  0  0
    3.0000   -5.1962    0.0000 C   0  0  0  0  0  0  0  0  0  0  0  0
    1.5000   -5.1962    0.0000 C   0  0  0  0  0  0  0  0  0  0  0  0
    0.7500   -3.8971    0.0000 C   0  0  0  0  0  0  0  0  0  0  0  0
    1.5000   -2.5981    0.0000 C   0  0  0  0  0  0  0  0  0  0  0  0
    0.7500   -1.2990    0.0000 C   0  0  0  0  0  0  0  0  0  0  0  0
    1.5000    0.0000    0.0000 C   0  0  0  0  0  0  0  0  0  0  0  0
    0.7500    1.2990    0.0000 N   0  0  0  0  0  0  0  0  0  0  0  0
   -0.7500    1.2990    0.0000 C   0  0  0  0  0  0  0  0  0  0  0  0
   -1.7537    2.4138    0.0000 N   0  0  0  0  0  0  0  0  0  0  0  0
   -3.1240    1.8037    0.0000 C   0  0  0  0  0  0  0  0  0  0  0  0
   -2.9672    0.3119    0.0000 C   0  0  0  0  0  0  0  0  0  0  0  0
   -4.0819   -0.6918    0.0000 C   0  0  0  0  0  0  0  0  0  0  0  0
   -5.5085   -0.2283    0.0000 C   0  0  0  0  0  0  0  0  0  0  0  0
   -6.6232   -1.2320    0.0000 C   0  0  0  0  0  0  0  0  0  0  0  0
   -6.3114   -2.6992    0.0000 C   0  0  0  0  0  0  0  0  0  0  0  0
   -4.8848   -3.1627    0.0000 C   0  0  0  0  0  0  0  0  0  0  0  0
   -4.5729   -4.6300    0.0000 S   0  0  0  0  0  0  0  0  0  0  0  0
   -6.0401   -4.9418    0.0000 O   0  0  0  0  0  0  0  0  0  0  0  0
   -3.1057   -4.3181    0.0000 O   0  0  0  0  0  0  0  0  0  0  0  0
   -4.2611   -6.0972    0.0000 N   0  0  0  0  0  0  0  0  0  0  0  0
   -2.8345   -6.5607    0.0000 C   0  0  0  0  0  0  0  0  0  0  0  0
   -5.3758   -7.1009    0.0000 C   0  0  0  0  0  0  0  0  0  0  0  0
   -4.3721   -8.2156    0.0000 C   0  0  0  0  0  0  0  0  0  0  0  0
   -6.3795   -5.9862    0.0000 C   0  0  0  0  0  0  0  0  0  0  0  0
   -6.4905   -8.1046    0.0000 C   0  0  0  0  0  0  0  0  0  0  0  0
   -3.7701   -2.1590    0.0000 C   0  0  0  0  0  0  0  0  0  0  0  0
   -1.5000    0.0000    0.0000 C   0  0  0  0  0  0  0  0  0  0  0  0
   -0.7500   -1.2990    0.0000 C   0  0  0  0  0  0  0  0  0  0  0  0
    3.0000   -2.5981    0.0000 C   0  0  0  0  0  0  0  0  0  0  0  0
  1  2  1  0
  2  3  1  0
  3  4  3  0
  4  5  1  0
  5  6  2  0
  5  7  1  0
  7  8  1  0
  8  9  2  0
  9 10  1  0
 10 11  2  0
 11 12  1  0
 12 13  1  0
 13 14  2  0
 14 15  1  0
 15 16  2  0
 16 17  1  0
 17 18  1  0
 18 19  2  0
 19 20  1  0
 20 21  2  0
 21 22  1  0
 22 23  2  0
 23 24  1  0
 24 25  1  0
 25 26  2  0
 25 27  2  0
 25 28  1  0
 28 29  1  0
 28 30  1  0
 30 31  1  0
 30 32  1  0
 30 33  1  0
 24 34  2  0
 19 35  1  0
 35 36  2  0
 12 37  2  0
 37  8  1  0
 36 13  1  0
 35 16  1  0
 34 20  1  0
M  END
>  <Compound_ID>  (123) 
CHEMBL3979472

>  <Molecule Name>  (123) 
nan

>  <Molecular Weight>  (123) 
514.65

>  <AlogP>  (123) 
5.67

>  <Smiles>  (123) 
CCC#CC(=O)Nc1cccc(-c2cnc3[nH]cc(-c4cccc(S(=O)(=O)N(C)C(C)(C)C)c4)c3c2)c1

>  <Standard Type>  (123) 
IC50

>  <Standard Relation>  (123) 
'='

>  <Standard Units>  (123) 
nM

>  <Standard Value>  (123) 
35.0

>  <Assay ChEMBL ID>  (123) 
CHEMBL3887687

>  <Assay Description>  (123) 
Biochemical Inhibition Assay: 1H-pyrrolo[2,3-b]pyridine, 1H-pyrazolo[3,4-b]pyridine and 5H-pyrrolo[2,3-b]pyrazine series of compounds exhibited over >100 fold selective against Janus and TEC family of kinases except for the BMX and TXK it had activity of 30 and 45 nM respectively.

>  <BAO Format ID>  (123) 
BAO_0000357

>  <BAO Label>  (123) 
single protein format

>  <Assay Organism>  (123) 
Homo sapiens

>  <Target ChEMBL ID>  (123) 
CHEMBL2959

>  <Target Name>  (123) 
Tyrosine-protein kinase ITK/TSK

>  <Target Organism>  (123) 
Homo sapiens

>  <Target Type>  (123) 
SINGLE PROTEIN

>  <Document ChEMBL ID>  (123) 
CHEMBL3886406

>  <Source Description>  (123) 
BindingDB Database

>  <Document Journal>  (123) 
nan

>  <Document Year>  (123) 
2015.0

>  <Active>  (123) 
1.0

$$$$

     RDKit          2D

 30 33  0  0  0  0  0  0  0  0999 V2000
    3.7500   -1.2990    0.0000 C   0  0  0  0  0  0  0  0  0  0  0  0
    3.0000    0.0000    0.0000 N   0  0  0  0  0  0  0  0  0  0  0  0
    1.5000    0.0000    0.0000 C   0  0  0  0  0  0  0  0  0  0  0  0
    0.7500   -1.2990    0.0000 C   0  0  0  0  0  0  0  0  0  0  0  0
   -0.7500   -1.2990    0.0000 C   0  0  0  0  0  0  0  0  0  0  0  0
   -1.5000   -2.5981    0.0000 C   0  0  0  0  0  0  0  0  0  0  0  0
   -3.0000   -2.5981    0.0000 C   0  0  0  0  0  0  0  0  0  0  0  0
   -3.7500   -3.8971    0.0000 N   0  0  0  0  0  0  0  0  0  0  0  0
   -3.0000   -5.1962    0.0000 C   0  0  0  0  0  0  0  0  0  0  0  0
   -3.7500   -6.4952    0.0000 O   0  0  0  0  0  0  0  0  0  0  0  0
   -1.5000   -5.1962    0.0000 C   0  0  0  0  0  0  0  0  0  0  0  0
   -0.7500   -6.4952    0.0000 N   0  0  0  0  0  0  0  0  0  0  0  0
    0.7500   -6.4952    0.0000 C   0  0  0  0  0  0  0  0  0  0  0  0
    1.5000   -5.1962    0.0000 O   0  0  0  0  0  0  0  0  0  0  0  0
    1.5000   -7.7942    0.0000 C   0  0  0  0  0  0  0  0  0  0  0  0
    0.7500   -9.0933    0.0000 C   0  0  0  0  0  0  0  0  0  0  0  0
    1.5000  -10.3923    0.0000 C   0  0  0  0  0  0  0  0  0  0  0  0
    3.0000  -10.3923    0.0000 C   0  0  0  0  0  0  0  0  0  0  0  0
    3.7500  -11.6913    0.0000 N   0  0  0  0  0  0  0  0  0  0  0  0
    3.0000  -12.9904    0.0000 C   0  0  0  0  0  0  0  0  0  0  0  0
    3.7500  -14.2894    0.0000 C   0  0  0  0  0  0  0  0  0  0  0  0
    5.2500  -14.2894    0.0000 C   0  0  0  0  0  0  0  0  0  0  0  0
    6.0000  -12.9904    0.0000 C   0  0  0  0  0  0  0  0  0  0  0  0
    5.2500  -11.6913    0.0000 C   0  0  0  0  0  0  0  0  0  0  0  0
    3.7500   -9.0933    0.0000 C   0  0  0  0  0  0  0  0  0  0  0  0
    3.0000   -7.7942    0.0000 C   0  0  0  0  0  0  0  0  0  0  0  0
   -0.7500   -3.8971    0.0000 C   0  0  0  0  0  0  0  0  0  0  0  0
   -1.5000    0.0000    0.0000 C   0  0  0  0  0  0  0  0  0  0  0  0
   -0.7500    1.2990    0.0000 C   0  0  0  0  0  0  0  0  0  0  0  0
    0.7500    1.2990    0.0000 N   0  0  0  0  0  0  0  0  0  0  0  0
  1  2  1  0
  2  3  1  0
  3  4  2  0
  4  5  1  0
  5  6  1  0
  6  7  2  0
  7  8  1  0
  8  9  1  0
  9 10  2  0
  9 11  1  0
 11 12  1  0
 12 13  1  0
 13 14  2  0
 13 15  1  0
 15 16  2  0
 16 17  1  0
 17 18  2  0
 18 19  1  0
 19 20  1  0
 20 21  1  0
 21 22  1  0
 22 23  1  0
 23 24  1  0
 18 25  1  0
 25 26  2  0
 11 27  2  0
  5 28  2  0
 28 29  1  0
 29 30  2  0
 30  3  1  0
 27  6  1  0
 26 15  1  0
 24 19  1  0
M  END
>  <Compound_ID>  (124) 
CHEMBL1765774

>  <Molecule Name>  (124) 
nan

>  <Molecular Weight>  (124) 
403.49

>  <AlogP>  (124) 
3.72

>  <Smiles>  (124) 
CNc1cc(-c2c[nH]c(=O)c(NC(=O)c3ccc(N4CCCCC4)cc3)c2)ccn1

>  <Standard Type>  (124) 
Ki

>  <Standard Relation>  (124) 
'='

>  <Standard Units>  (124) 
nM

>  <Standard Value>  (124) 
7.0

>  <Assay ChEMBL ID>  (124) 
CHEMBL1768448

>  <Assay Description>  (124) 
Inhibition of Itk after 40 mins by radiometric phosphate incorporation assay

>  <BAO Format ID>  (124) 
BAO_0000357

>  <BAO Label>  (124) 
single protein format

>  <Assay Organism>  (124) 
None

>  <Target ChEMBL ID>  (124) 
CHEMBL2959

>  <Target Name>  (124) 
Tyrosine-protein kinase ITK/TSK

>  <Target Organism>  (124) 
Homo sapiens

>  <Target Type>  (124) 
SINGLE PROTEIN

>  <Document ChEMBL ID>  (124) 
CHEMBL1765075

>  <Source Description>  (124) 
Scientific Literature

>  <Document Journal>  (124) 
J Med Chem

>  <Document Year>  (124) 
2011.0

>  <Active>  (124) 
1.0

$$$$

     RDKit          2D

 33 36  0  0  0  0  0  0  0  0999 V2000
   -7.7227   -2.1088    0.0000 C   0  0  0  0  0  0  0  0  0  0  0  0
   -6.2961   -1.6453    0.0000 O   0  0  0  0  0  0  0  0  0  0  0  0
   -5.1814   -2.6490    0.0000 C   0  0  0  0  0  0  0  0  0  0  0  0
   -3.7548   -2.1855    0.0000 C   0  0  0  0  0  0  0  0  0  0  0  0
   -2.6401   -3.1891    0.0000 C   0  0  0  0  0  0  0  0  0  0  0  0
   -1.2135   -2.7256    0.0000 N   0  0  0  0  0  0  0  0  0  0  0  0
   -0.0000   -3.6073    0.0000 C   0  0  0  0  0  0  0  0  0  0  0  0
   -0.0000   -5.1073    0.0000 N   0  0  0  0  0  0  0  0  0  0  0  0
   -1.2990   -5.8573    0.0000 C   0  0  0  0  0  0  0  0  0  0  0  0
   -2.5981   -5.1073    0.0000 O   0  0  0  0  0  0  0  0  0  0  0  0
   -1.2990   -7.3573    0.0000 C   0  0  0  0  0  0  0  0  0  0  0  0
   -2.5981   -8.1073    0.0000 C   0  0  0  0  0  0  0  0  0  0  0  0
   -2.5981   -9.6073    0.0000 C   0  0  0  0  0  0  0  0  0  0  0  0
   -1.2990  -10.3573    0.0000 C   0  0  0  0  0  0  0  0  0  0  0  0
   -1.2990  -11.8573    0.0000 C   0  0  0  0  0  0  0  0  0  0  0  0
   -1.2990  -13.3573    0.0000 N   0  0  0  0  0  0  0  0  0  0  0  0
   -0.0000   -9.6073    0.0000 C   0  0  0  0  0  0  0  0  0  0  0  0
   -0.0000   -8.1073    0.0000 C   0  0  0  0  0  0  0  0  0  0  0  0
    1.2135   -2.7256    0.0000 N   0  0  0  0  0  0  0  0  0  0  0  0
    0.7500   -1.2990    0.0000 C   0  0  0  0  0  0  0  0  0  0  0  0
    1.5000    0.0000    0.0000 C   0  0  0  0  0  0  0  0  0  0  0  0
    0.7500    1.2990    0.0000 C   0  0  0  0  0  0  0  0  0  0  0  0
    1.5000    2.5981    0.0000 C   0  0  0  0  0  0  0  0  0  0  0  0
    3.0000    2.5981    0.0000 N   0  0  0  0  0  0  0  0  0  0  0  0
    3.7500    3.8971    0.0000 C   0  0  0  0  0  0  0  0  0  0  0  0
    5.2500    3.8971    0.0000 C   0  0  0  0  0  0  0  0  0  0  0  0
    6.0000    5.1962    0.0000 C   0  0  0  0  0  0  0  0  0  0  0  0
    5.2500    6.4952    0.0000 C   0  0  0  0  0  0  0  0  0  0  0  0
    3.7500    6.4952    0.0000 C   0  0  0  0  0  0  0  0  0  0  0  0
    3.0000    5.1962    0.0000 C   0  0  0  0  0  0  0  0  0  0  0  0
   -0.7500    1.2990    0.0000 C   0  0  0  0  0  0  0  0  0  0  0  0
   -1.5000    0.0000    0.0000 C   0  0  0  0  0  0  0  0  0  0  0  0
   -0.7500   -1.2990    0.0000 C   0  0  0  0  0  0  0  0  0  0  0  0
  1  2  1  0
  2  3  1  0
  3  4  1  0
  4  5  1  0
  5  6  1  0
  6  7  1  0
  7  8  1  0
  8  9  1  0
  9 10  2  0
  9 11  1  0
 11 12  2  0
 12 13  1  0
 13 14  2  0
 14 15  1  0
 15 16  3  0
 14 17  1  0
 17 18  2  0
  7 19  2  0
 19 20  1  0
 20 21  2  0
 21 22  1  0
 22 23  1  0
 23 24  1  0
 24 25  1  0
 25 26  1  0
 26 27  1  0
 27 28  1  0
 28 29  1  0
 29 30  1  0
 22 31  2  0
 31 32  1  0
 32 33  2  0
 33  6  1  0
 18 11  1  0
 33 20  1  0
 30 25  1  0
M  END
>  <Compound_ID>  (125) 
CHEMBL487982

>  <Molecule Name>  (125) 
nan

>  <Molecular Weight>  (125) 
445.57

>  <AlogP>  (125) 
4.62

>  <Smiles>  (125) 
COCCCn1c(NC(=O)c2ccc(C#N)cc2)nc2cc(CNC3CCCCC3)ccc21

>  <Standard Type>  (125) 
IC50

>  <Standard Relation>  (125) 
'='

>  <Standard Units>  (125) 
nM

>  <Standard Value>  (125) 
45.0

>  <Assay ChEMBL ID>  (125) 
CHEMBL1006237

>  <Assay Description>  (125) 
Inhibition of ITK by DELPHIA assay

>  <BAO Format ID>  (125) 
BAO_0000357

>  <BAO Label>  (125) 
single protein format

>  <Assay Organism>  (125) 
None

>  <Target ChEMBL ID>  (125) 
CHEMBL2959

>  <Target Name>  (125) 
Tyrosine-protein kinase ITK/TSK

>  <Target Organism>  (125) 
Homo sapiens

>  <Target Type>  (125) 
SINGLE PROTEIN

>  <Document ChEMBL ID>  (125) 
CHEMBL1152240

>  <Source Description>  (125) 
Scientific Literature

>  <Document Journal>  (125) 
Bioorg Med Chem Lett

>  <Document Year>  (125) 
2008.0

>  <Active>  (125) 
1.0

$$$$

     RDKit          2D

 42 46  0  0  0  0  0  0  0  0999 V2000
    3.7500   -1.2990    0.0000 C   0  0  0  0  0  0  0  0  0  0  0  0
    3.0000    0.0000    0.0000 O   0  0  0  0  0  0  0  0  0  0  0  0
    1.5000    0.0000    0.0000 C   0  0  0  0  0  0  0  0  0  0  0  0
    0.7500   -1.2990    0.0000 C   0  0  0  0  0  0  0  0  0  0  0  0
   -0.7500   -1.2990    0.0000 C   0  0  0  0  0  0  0  0  0  0  0  0
   -1.5000   -2.5981    0.0000 N   0  0  0  0  0  0  0  0  0  0  0  0
   -3.0000   -2.5981    0.0000 C   0  0  0  0  0  0  0  0  0  0  0  0
   -3.7500   -3.8971    0.0000 C   0  0  0  0  0  0  0  0  0  0  0  0
   -3.0000   -5.1962    0.0000 C   0  0  0  0  0  0  0  0  0  0  0  0
   -3.7500   -6.4952    0.0000 N   0  0  0  0  0  0  0  0  0  0  0  0
   -5.2500   -6.4952    0.0000 C   0  0  0  0  0  0  0  0  0  0  0  0
   -6.0000   -7.7942    0.0000 C   0  0  0  0  0  0  0  0  0  0  0  0
   -5.2500   -9.0933    0.0000 N   0  0  0  0  0  0  0  0  0  0  0  0
   -6.0000  -10.3923    0.0000 C   0  0  0  0  0  0  0  0  0  0  0  0
   -3.7500   -9.0933    0.0000 C   0  0  0  0  0  0  0  0  0  0  0  0
   -3.0000   -7.7942    0.0000 C   0  0  0  0  0  0  0  0  0  0  0  0
   -1.5000   -5.1962    0.0000 C   0  0  0  0  0  0  0  0  0  0  0  0
   -0.7500   -3.8971    0.0000 C   0  0  0  0  0  0  0  0  0  0  0  0
   -1.5000    0.0000    0.0000 C   0  0  0  0  0  0  0  0  0  0  0  0
   -0.7500    1.2990    0.0000 C   0  0  0  0  0  0  0  0  0  0  0  0
    0.7500    1.2990    0.0000 C   0  0  0  0  0  0  0  0  0  0  0  0
    1.5000    2.5981    0.0000 N   0  0  0  0  0  0  0  0  0  0  0  0
    3.0000    2.5981    0.0000 C   0  0  0  0  0  0  0  0  0  0  0  0
    3.7500    1.2990    0.0000 N   0  0  0  0  0  0  0  0  0  0  0  0
    5.2500    1.2990    0.0000 C   0  0  0  0  0  0  0  0  0  0  0  0
    6.0000    2.5981    0.0000 C   0  0  0  0  0  0  0  0  0  0  0  0
    7.5000    2.5981    0.0000 Cl  0  0  0  0  0  0  0  0  0  0  0  0
    5.2500    3.8971    0.0000 C   0  0  0  0  0  0  0  0  0  0  0  0
    6.0000    5.1962    0.0000 N   0  0  0  0  0  0  0  0  0  0  0  0
    5.2500    6.4952    0.0000 C   0  0  0  0  0  0  0  0  0  0  0  0
    3.7500    6.4952    0.0000 C   0  0  0  0  0  0  0  0  0  0  0  0
    3.0000    7.7942    0.0000 C   0  0  0  0  0  0  0  0  0  0  0  0
    3.7500    9.0933    0.0000 C   0  0  0  0  0  0  0  0  0  0  0  0
    5.2500    9.0933    0.0000 C   0  0  0  0  0  0  0  0  0  0  0  0
    6.0000    7.7942    0.0000 C   0  0  0  0  0  0  0  0  0  0  0  0
    7.5000    7.7942    0.0000 S   0  0  0  0  0  0  0  0  0  0  0  0
    7.5000    6.2942    0.0000 O   0  0  0  0  0  0  0  0  0  0  0  0
    7.5000    9.2942    0.0000 O   0  0  0  0  0  0  0  0  0  0  0  0
    9.0000    7.7942    0.0000 C   0  0  0  0  0  0  0  0  0  0  0  0
    9.7500    9.0933    0.0000 C   0  0  0  0  0  0  0  0  0  0  0  0
    9.7500    6.4952    0.0000 C   0  0  0  0  0  0  0  0  0  0  0  0
    3.7500    3.8971    0.0000 N   0  0  0  0  0  0  0  0  0  0  0  0
  1  2  1  0
  2  3  1  0
  3  4  2  0
  4  5  1  0
  5  6  1  0
  6  7  1  0
  7  8  1  0
  8  9  1  0
  9 10  1  0
 10 11  1  0
 11 12  1  0
 12 13  1  0
 13 14  1  0
 13 15  1  0
 15 16  1  0
  9 17  1  0
 17 18  1  0
  5 19  2  0
 19 20  1  0
 20 21  2  0
 21 22  1  0
 22 23  1  0
 23 24  2  0
 24 25  1  0
 25 26  2  0
 26 27  1  0
 26 28  1  0
 28 29  1  0
 29 30  1  0
 30 31  2  0
 31 32  1  0
 32 33  2  0
 33 34  1  0
 34 35  2  0
 35 36  1  0
 36 37  2  0
 36 38  2  0
 36 39  1  0
 39 40  1  0
 39 41  1  0
 28 42  2  0
 21  3  1  0
 42 23  1  0
 18  6  1  0
 35 30  1  0
 16 10  1  0
M  END
>  <Compound_ID>  (126) 
CHEMBL509032

>  <Molecule Name>  (126) 
TAE-684

>  <Molecular Weight>  (126) 
614.22

>  <AlogP>  (126) 
5.02

>  <Smiles>  (126) 
COc1cc(N2CCC(N3CCN(C)CC3)CC2)ccc1Nc1ncc(Cl)c(Nc2ccccc2S(=O)(=O)C(C)C)n1

>  <Standard Type>  (126) 
Kd

>  <Standard Relation>  (126) 
'='

>  <Standard Units>  (126) 
nM

>  <Standard Value>  (126) 
34.0

>  <Assay ChEMBL ID>  (126) 
CHEMBL1908717

>  <Assay Description>  (126) 
Binding constant for ITK kinase domain

>  <BAO Format ID>  (126) 
BAO_0000357

>  <BAO Label>  (126) 
single protein format

>  <Assay Organism>  (126) 
None

>  <Target ChEMBL ID>  (126) 
CHEMBL2959

>  <Target Name>  (126) 
Tyrosine-protein kinase ITK/TSK

>  <Target Organism>  (126) 
Homo sapiens

>  <Target Type>  (126) 
SINGLE PROTEIN

>  <Document ChEMBL ID>  (126) 
CHEMBL1908390

>  <Source Description>  (126) 
Scientific Literature

>  <Document Journal>  (126) 
Nat Biotechnol

>  <Document Year>  (126) 
2011.0

>  <Active>  (126) 
1.0

$$$$

     RDKit          2D

 33 36  0  0  0  0  0  0  0  0999 V2000
    1.5000   -5.1962    0.0000 C   0  0  0  0  0  0  0  0  0  0  0  0
    0.7500   -3.8971    0.0000 N   0  0  0  0  0  0  0  0  0  0  0  0
    1.5000   -2.5981    0.0000 C   0  0  0  0  0  0  0  0  0  0  0  0
    0.7500   -1.2990    0.0000 C   0  0  0  0  0  0  0  0  0  0  0  0
    1.5000    0.0000    0.0000 C   0  0  0  0  0  0  0  0  0  0  0  0
    0.7500    1.2990    0.0000 C   0  0  0  0  0  0  0  0  0  0  0  0
   -0.7500    1.2990    0.0000 C   0  0  0  0  0  0  0  0  0  0  0  0
   -1.5000    0.0000    0.0000 C   0  0  0  0  0  0  0  0  0  0  0  0
   -0.7500   -1.2990    0.0000 C   0  0  0  0  0  0  0  0  0  0  0  0
   -2.9672    0.3119    0.0000 N   0  0  0  0  0  0  0  0  0  0  0  0
   -3.1240    1.8037    0.0000 C   0  0  0  0  0  0  0  0  0  0  0  0
   -4.4231    2.5537    0.0000 N   0  0  0  0  0  0  0  0  0  0  0  0
   -4.4231    4.0537    0.0000 C   0  0  0  0  0  0  0  0  0  0  0  0
   -3.1240    4.8037    0.0000 O   0  0  0  0  0  0  0  0  0  0  0  0
   -5.7221    4.8037    0.0000 C   0  0  0  0  0  0  0  0  0  0  0  0
   -5.7221    6.3037    0.0000 C   0  0  0  0  0  0  0  0  0  0  0  0
   -7.0211    7.0537    0.0000 C   0  0  0  0  0  0  0  0  0  0  0  0
   -8.3202    6.3037    0.0000 C   0  0  0  0  0  0  0  0  0  0  0  0
   -9.6192    7.0537    0.0000 C   0  0  0  0  0  0  0  0  0  0  0  0
  -10.9182    7.8037    0.0000 N   0  0  0  0  0  0  0  0  0  0  0  0
   -8.3202    4.8037    0.0000 C   0  0  0  0  0  0  0  0  0  0  0  0
   -7.0211    4.0537    0.0000 C   0  0  0  0  0  0  0  0  0  0  0  0
   -1.7537    2.4138    0.0000 N   0  0  0  0  0  0  0  0  0  0  0  0
   -1.4418    3.8810    0.0000 C   0  0  0  0  0  0  0  0  0  0  0  0
   -0.0152    4.3445    0.0000 C   0  0  0  0  0  0  0  0  0  0  0  0
    0.2966    5.8117    0.0000 C   0  0  0  0  0  0  0  0  0  0  0  0
    1.7232    6.2752    0.0000 O   0  0  0  0  0  0  0  0  0  0  0  0
   -0.7500   -3.8971    0.0000 C   0  0  0  0  0  0  0  0  0  0  0  0
   -1.5000   -2.5981    0.0000 C   0  0  0  0  0  0  0  0  0  0  0  0
   -3.0000   -2.5981    0.0000 C   0  0  0  0  0  0  0  0  0  0  0  0
   -3.7500   -3.8971    0.0000 C   0  0  0  0  0  0  0  0  0  0  0  0
   -3.0000   -5.1962    0.0000 C   0  0  0  0  0  0  0  0  0  0  0  0
   -1.5000   -5.1962    0.0000 C   0  0  0  0  0  0  0  0  0  0  0  0
  1  2  1  0
  2  3  1  0
  3  4  1  0
  4  5  2  0
  5  6  1  0
  6  7  2  0
  7  8  1  0
  8  9  2  0
  8 10  1  0
 10 11  2  0
 11 12  1  0
 12 13  1  0
 13 14  2  0
 13 15  1  0
 15 16  2  0
 16 17  1  0
 17 18  2  0
 18 19  1  0
 19 20  3  0
 18 21  1  0
 21 22  2  0
 11 23  1  0
 23 24  1  0
 24 25  1  0
 25 26  1  0
 26 27  1  0
  2 28  1  0
 28 29  1  0
 29 30  1  0
 30 31  1  0
 31 32  1  0
 32 33  1  0
  9  4  1  0
 22 15  1  0
 33 28  1  0
 23  7  1  0
M  END
>  <Compound_ID>  (127) 
CHEMBL486334

>  <Molecule Name>  (127) 
nan

>  <Molecular Weight>  (127) 
445.57

>  <AlogP>  (127) 
4.31

>  <Smiles>  (127) 
CN(Cc1ccc2c(c1)nc(NC(=O)c1ccc(C#N)cc1)n2CCCO)C1CCCCC1

>  <Standard Type>  (127) 
IC50

>  <Standard Relation>  (127) 
'='

>  <Standard Units>  (127) 
nM

>  <Standard Value>  (127) 
27.0

>  <Assay ChEMBL ID>  (127) 
CHEMBL1006237

>  <Assay Description>  (127) 
Inhibition of ITK by DELPHIA assay

>  <BAO Format ID>  (127) 
BAO_0000357

>  <BAO Label>  (127) 
single protein format

>  <Assay Organism>  (127) 
None

>  <Target ChEMBL ID>  (127) 
CHEMBL2959

>  <Target Name>  (127) 
Tyrosine-protein kinase ITK/TSK

>  <Target Organism>  (127) 
Homo sapiens

>  <Target Type>  (127) 
SINGLE PROTEIN

>  <Document ChEMBL ID>  (127) 
CHEMBL1152240

>  <Source Description>  (127) 
Scientific Literature

>  <Document Journal>  (127) 
Bioorg Med Chem Lett

>  <Document Year>  (127) 
2008.0

>  <Active>  (127) 
1.0

$$$$

     RDKit          2D

 36 40  0  0  0  0  0  0  0  0999 V2000
    3.0000   -5.1962    0.0000 C   0  0  0  0  0  0  0  0  0  0  0  0
    1.5000   -5.1962    0.0000 C   0  0  0  0  0  0  0  0  0  0  0  0
    0.7500   -6.4952    0.0000 C   0  0  0  0  0  0  0  0  0  0  0  0
   -0.7500   -6.4952    0.0000 O   0  0  0  0  0  0  0  0  0  0  0  0
   -1.5000   -5.1962    0.0000 C   0  0  0  0  0  0  0  0  0  0  0  0
   -0.7500   -3.8971    0.0000 C   0  0  0  0  0  0  0  0  0  0  0  0
   -1.5000   -2.5981    0.0000 C   0  0  0  0  0  0  0  0  0  0  0  0
    0.7500   -3.8971    0.0000 N   0  0  0  0  0  0  0  0  0  0  0  0
    1.5000   -2.5981    0.0000 C   0  0  0  0  0  0  0  0  0  0  0  0
    0.7500   -1.2990    0.0000 C   0  0  0  0  0  0  0  0  0  0  0  0
    1.5000    0.0000    0.0000 C   0  0  0  0  0  0  0  0  0  0  0  0
    0.7500    1.2990    0.0000 C   0  0  0  0  0  0  0  0  0  0  0  0
   -0.7500    1.2990    0.0000 C   0  0  0  0  0  0  0  0  0  0  0  0
   -1.5000    0.0000    0.0000 C   0  0  0  0  0  0  0  0  0  0  0  0
   -0.7500   -1.2990    0.0000 C   0  0  0  0  0  0  0  0  0  0  0  0
   -2.9672    0.3119    0.0000 N   0  0  0  0  0  0  0  0  0  0  0  0
   -3.1240    1.8037    0.0000 C   0  0  0  0  0  0  0  0  0  0  0  0
   -4.4231    2.5537    0.0000 N   0  0  0  0  0  0  0  0  0  0  0  0
   -5.7221    1.8037    0.0000 C   0  0  0  0  0  0  0  0  0  0  0  0
   -5.7221    0.3037    0.0000 O   0  0  0  0  0  0  0  0  0  0  0  0
   -7.0211    2.5537    0.0000 C   0  0  0  0  0  0  0  0  0  0  0  0
   -8.3914    1.9435    0.0000 C   0  0  0  0  0  0  0  0  0  0  0  0
   -9.3951    3.0583    0.0000 C   0  0  0  0  0  0  0  0  0  0  0  0
   -8.6451    4.3573    0.0000 C   0  0  0  0  0  0  0  0  0  0  0  0
   -9.2552    5.7276    0.0000 C   0  0  0  0  0  0  0  0  0  0  0  0
  -10.7225    6.0395    0.0000 C   0  0  0  0  0  0  0  0  0  0  0  0
  -10.8793    7.5313    0.0000 N   0  0  0  0  0  0  0  0  0  0  0  0
   -9.5089    8.1414    0.0000 N   0  0  0  0  0  0  0  0  0  0  0  0
   -8.5052    7.0267    0.0000 C   0  0  0  0  0  0  0  0  0  0  0  0
   -7.1779    4.0454    0.0000 S   0  0  0  0  0  0  0  0  0  0  0  0
   -1.7537    2.4138    0.0000 N   0  0  0  0  0  0  0  0  0  0  0  0
   -1.4418    3.8810    0.0000 C   0  0  0  0  0  0  0  0  0  0  0  0
   -0.0152    4.3445    0.0000 C   0  0  0  0  0  0  0  0  0  0  0  0
    0.4483    2.9179    0.0000 C   0  0  0  0  0  0  0  0  0  0  0  0
   -0.4788    5.7711    0.0000 C   0  0  0  0  0  0  0  0  0  0  0  0
    1.4113    4.8080    0.0000 O   0  0  0  0  0  0  0  0  0  0  0  0
  1  2  1  0
  2  3  1  0
  3  4  1  0
  4  5  1  0
  5  6  1  0
  6  7  1  0
  6  8  1  0
  8  9  1  0
  9 10  1  0
 10 11  2  0
 11 12  1  0
 12 13  2  0
 13 14  1  0
 14 15  2  0
 14 16  1  0
 16 17  1  0
 17 18  2  0
 18 19  1  0
 19 20  2  0
 19 21  1  0
 21 22  2  0
 22 23  1  0
 23 24  2  0
 24 25  1  0
 25 26  1  0
 26 27  2  0
 27 28  1  0
 28 29  1  0
 24 30  1  0
 17 31  1  0
 31 32  1  0
 32 33  1  0
 33 34  1  0
 33 35  1  0
 33 36  1  0
  8  2  1  0
 15 10  1  0
 30 21  1  0
 31 13  1  0
 29 25  2  0
M  END
>  <Compound_ID>  (128) 
CHEMBL522682

>  <Molecule Name>  (128) 
nan

>  <Molecular Weight>  (128) 
508.65

>  <AlogP>  (128) 
3.54

>  <Smiles>  (128) 
CC1COCC(C)N1Cc1ccc2c(c1)[nH]/c(=N\C(=O)c1ccc(-c3cn[nH]c3)s1)n2CC(C)(C)O

>  <Standard Type>  (128) 
IC50

>  <Standard Relation>  (128) 
'='

>  <Standard Units>  (128) 
nM

>  <Standard Value>  (128) 
1.0

>  <Assay ChEMBL ID>  (128) 
CHEMBL1018826

>  <Assay Description>  (128) 
Binding affinity to ITK by DELFIA-based molecular assay

>  <BAO Format ID>  (128) 
BAO_0000357

>  <BAO Label>  (128) 
single protein format

>  <Assay Organism>  (128) 
None

>  <Target ChEMBL ID>  (128) 
CHEMBL2959

>  <Target Name>  (128) 
Tyrosine-protein kinase ITK/TSK

>  <Target Organism>  (128) 
Homo sapiens

>  <Target Type>  (128) 
SINGLE PROTEIN

>  <Document ChEMBL ID>  (128) 
CHEMBL1153328

>  <Source Description>  (128) 
Scientific Literature

>  <Document Journal>  (128) 
Bioorg Med Chem Lett

>  <Document Year>  (128) 
2009.0

>  <Active>  (128) 
1.0

$$$$

     RDKit          2D

 42 47  0  0  0  0  0  0  0  0999 V2000
    5.3245   -4.5559    0.0000 C   0  0  0  0  0  0  0  0  0  0  0  0
    5.1677   -3.0642    0.0000 C   0  0  0  0  0  0  0  0  0  0  0  0
    3.7974   -2.4540    0.0000 C   0  0  0  0  0  0  0  0  0  0  0  0
    2.5838   -3.3357    0.0000 C   0  0  0  0  0  0  0  0  0  0  0  0
    2.7406   -4.8275    0.0000 C   0  0  0  0  0  0  0  0  0  0  0  0
    4.1110   -5.4376    0.0000 F   0  0  0  0  0  0  0  0  0  0  0  0
    1.5271   -5.7092    0.0000 C   0  0  0  0  0  0  0  0  0  0  0  0
    0.1568   -5.0991    0.0000 C   0  0  0  0  0  0  0  0  0  0  0  0
   -1.0567   -5.9808    0.0000 C   0  0  0  0  0  0  0  0  0  0  0  0
   -0.8999   -7.4725    0.0000 N   0  0  0  0  0  0  0  0  0  0  0  0
   -2.4271   -5.3707    0.0000 O   0  0  0  0  0  0  0  0  0  0  0  0
   -0.0000   -3.6073    0.0000 C   0  0  0  0  0  0  0  0  0  0  0  0
   -1.2135   -2.7256    0.0000 N   0  0  0  0  0  0  0  0  0  0  0  0
   -0.7500   -1.2990    0.0000 C   0  0  0  0  0  0  0  0  0  0  0  0
    0.7500   -1.2990    0.0000 C   0  0  0  0  0  0  0  0  0  0  0  0
    1.2135   -2.7256    0.0000 C   0  0  0  0  0  0  0  0  0  0  0  0
    1.5000    0.0000    0.0000 C   0  0  0  0  0  0  0  0  0  0  0  0
    0.7500    1.2990    0.0000 C   0  0  0  0  0  0  0  0  0  0  0  0
   -0.7500    1.2990    0.0000 C   0  0  0  0  0  0  0  0  0  0  0  0
   -1.5000    2.5981    0.0000 C   0  0  0  0  0  0  0  0  0  0  0  0
   -2.7990    1.8481    0.0000 C   0  0  0  0  0  0  0  0  0  0  0  0
   -0.2010    3.3481    0.0000 C   0  0  0  0  0  0  0  0  0  0  0  0
   -2.2500    3.8971    0.0000 O   0  0  0  0  0  0  0  0  0  0  0  0
   -1.5000    0.0000    0.0000 C   0  0  0  0  0  0  0  0  0  0  0  0
    3.6406   -0.9623    0.0000 C   0  0  0  0  0  0  0  0  0  0  0  0
    4.8541   -0.0806    0.0000 C   0  0  0  0  0  0  0  0  0  0  0  0
    6.2244   -0.6907    0.0000 C   0  0  0  0  0  0  0  0  0  0  0  0
    6.3812   -2.1825    0.0000 C   0  0  0  0  0  0  0  0  0  0  0  0
    7.7515   -2.7926    0.0000 N   0  0  0  0  0  0  0  0  0  0  0  0
    8.9651   -1.9109    0.0000 C   0  0  0  0  0  0  0  0  0  0  0  0
    8.8083   -0.4191    0.0000 O   0  0  0  0  0  0  0  0  0  0  0  0
   10.3354   -2.5210    0.0000 C   0  0  0  0  0  0  0  0  0  0  0  0
   11.5489   -1.6393    0.0000 C   0  0  0  0  0  0  0  0  0  0  0  0
   12.9192   -2.2494    0.0000 C   0  0  0  0  0  0  0  0  0  0  0  0
   13.0760   -3.7412    0.0000 C   0  0  0  0  0  0  0  0  0  0  0  0
   11.8625   -4.6229    0.0000 C   0  0  0  0  0  0  0  0  0  0  0  0
   12.0193   -6.1147    0.0000 F   0  0  0  0  0  0  0  0  0  0  0  0
   10.4922   -4.0128    0.0000 C   0  0  0  0  0  0  0  0  0  0  0  0
    9.2786   -4.8945    0.0000 N   0  0  0  0  0  0  0  0  0  0  0  0
    9.4354   -6.3863    0.0000 C   0  0  0  0  0  0  0  0  0  0  0  0
    7.9083   -4.2844    0.0000 C   0  0  0  0  0  0  0  0  0  0  0  0
    6.6948   -5.1660    0.0000 O   0  0  0  0  0  0  0  0  0  0  0  0
  1  2  1  0
  2  3  2  0
  3  4  1  0
  4  5  2  0
  5  6  1  0
  5  7  1  0
  7  8  2  0
  8  9  1  0
  9 10  1  0
  9 11  2  0
  8 12  1  0
 12 13  1  0
 13 14  1  0
 14 15  2  0
 15 16  1  0
 15 17  1  0
 17 18  1  0
 18 19  1  0
 19 20  1  1
 20 21  1  0
 20 22  1  0
 20 23  1  0
 19 24  1  0
  3 25  1  0
 25 26  2  0
 26 27  1  0
 27 28  2  0
 28 29  1  0
 29 30  1  0
 30 31  2  0
 30 32  1  0
 32 33  2  0
 33 34  1  0
 34 35  2  0
 35 36  1  0
 36 37  1  0
 36 38  2  0
 38 39  1  0
 39 40  1  0
 39 41  1  0
 41 42  2  0
 28  2  1  0
 41 29  1  0
 16  4  1  0
 38 32  1  0
 16 12  2  0
 24 14  1  0
M  END
>  <Compound_ID>  (129) 
CHEMBL3900554

>  <Molecule Name>  (129) 
BMS-986142

>  <Molecular Weight>  (129) 
572.61

>  <AlogP>  (129) 
4.40

>  <Smiles>  (129) 
Cc1c(-c2c(F)cc(C(N)=O)c3[nH]c4c(c23)CC[C@H](C(C)(C)O)C4)cccc1-n1c(=O)c2cccc(F)c2n(C)c1=O

>  <Standard Type>  (129) 
IC50

>  <Standard Relation>  (129) 
'='

>  <Standard Units>  (129) 
nM

>  <Standard Value>  (129) 
15.0

>  <Assay ChEMBL ID>  (129) 
CHEMBL3858960

>  <Assay Description>  (129) 
Inhibition of ITK (unknown origin)

>  <BAO Format ID>  (129) 
BAO_0000357

>  <BAO Label>  (129) 
single protein format

>  <Assay Organism>  (129) 
Homo sapiens

>  <Target ChEMBL ID>  (129) 
CHEMBL2959

>  <Target Name>  (129) 
Tyrosine-protein kinase ITK/TSK

>  <Target Organism>  (129) 
Homo sapiens

>  <Target Type>  (129) 
SINGLE PROTEIN

>  <Document ChEMBL ID>  (129) 
CHEMBL3856250

>  <Source Description>  (129) 
Scientific Literature

>  <Document Journal>  (129) 
J Med Chem

>  <Document Year>  (129) 
2016.0

>  <Active>  (129) 
1.0

$$$$

     RDKit          2D

 22 24  0  0  0  0  0  0  0  0999 V2000
   10.5000   -5.1962    0.0000 C   0  0  0  0  0  0  0  0  0  0  0  0
    9.0000   -5.1962    0.0000 C   0  0  0  0  0  0  0  0  0  0  0  0
    7.5000   -5.1962    0.0000 C   0  0  0  0  0  0  0  0  0  0  0  0
    6.0000   -5.1962    0.0000 C   0  0  0  0  0  0  0  0  0  0  0  0
    5.2500   -6.4952    0.0000 O   0  0  0  0  0  0  0  0  0  0  0  0
    5.2500   -3.8971    0.0000 N   0  0  0  0  0  0  0  0  0  0  0  0
    3.7500   -3.8971    0.0000 C   0  0  0  0  0  0  0  0  0  0  0  0
    3.0000   -5.1962    0.0000 C   0  0  0  0  0  0  0  0  0  0  0  0
    1.5000   -5.1962    0.0000 C   0  0  0  0  0  0  0  0  0  0  0  0
    0.7500   -3.8971    0.0000 C   0  0  0  0  0  0  0  0  0  0  0  0
    1.5000   -2.5981    0.0000 C   0  0  0  0  0  0  0  0  0  0  0  0
    0.7500   -1.2990    0.0000 C   0  0  0  0  0  0  0  0  0  0  0  0
    1.5000    0.0000    0.0000 C   0  0  0  0  0  0  0  0  0  0  0  0
    0.7500    1.2990    0.0000 N   0  0  0  0  0  0  0  0  0  0  0  0
   -0.7500    1.2990    0.0000 C   0  0  0  0  0  0  0  0  0  0  0  0
   -1.7537    2.4138    0.0000 N   0  0  0  0  0  0  0  0  0  0  0  0
   -3.1240    1.8037    0.0000 C   0  0  0  0  0  0  0  0  0  0  0  0
   -2.9672    0.3119    0.0000 C   0  0  0  0  0  0  0  0  0  0  0  0
   -4.0819   -0.6918    0.0000 Cl  0  0  0  0  0  0  0  0  0  0  0  0
   -1.5000    0.0000    0.0000 C   0  0  0  0  0  0  0  0  0  0  0  0
   -0.7500   -1.2990    0.0000 C   0  0  0  0  0  0  0  0  0  0  0  0
    3.0000   -2.5981    0.0000 N   0  0  0  0  0  0  0  0  0  0  0  0
  1  2  1  0
  2  3  3  0
  3  4  1  0
  4  5  2  0
  4  6  1  0
  6  7  1  0
  7  8  2  0
  8  9  1  0
  9 10  2  0
 10 11  1  0
 11 12  1  0
 12 13  2  0
 13 14  1  0
 14 15  2  0
 15 16  1  0
 16 17  1  0
 17 18  2  0
 18 19  1  0
 18 20  1  0
 20 21  2  0
 11 22  2  0
 22  7  1  0
 21 12  1  0
 20 15  1  0
M  END
>  <Compound_ID>  (130) 
CHEMBL3962931

>  <Molecule Name>  (130) 
nan

>  <Molecular Weight>  (130) 
310.74

>  <AlogP>  (130) 
3.24

>  <Smiles>  (130) 
CC#CC(=O)Nc1cccc(-c2cnc3[nH]cc(Cl)c3c2)n1

>  <Standard Type>  (130) 
IC50

>  <Standard Relation>  (130) 
'='

>  <Standard Units>  (130) 
nM

>  <Standard Value>  (130) 
35.0

>  <Assay ChEMBL ID>  (130) 
CHEMBL3887687

>  <Assay Description>  (130) 
Biochemical Inhibition Assay: 1H-pyrrolo[2,3-b]pyridine, 1H-pyrazolo[3,4-b]pyridine and 5H-pyrrolo[2,3-b]pyrazine series of compounds exhibited over >100 fold selective against Janus and TEC family of kinases except for the BMX and TXK it had activity of 30 and 45 nM respectively.

>  <BAO Format ID>  (130) 
BAO_0000357

>  <BAO Label>  (130) 
single protein format

>  <Assay Organism>  (130) 
Homo sapiens

>  <Target ChEMBL ID>  (130) 
CHEMBL2959

>  <Target Name>  (130) 
Tyrosine-protein kinase ITK/TSK

>  <Target Organism>  (130) 
Homo sapiens

>  <Target Type>  (130) 
SINGLE PROTEIN

>  <Document ChEMBL ID>  (130) 
CHEMBL3886406

>  <Source Description>  (130) 
BindingDB Database

>  <Document Journal>  (130) 
nan

>  <Document Year>  (130) 
2015.0

>  <Active>  (130) 
1.0

$$$$

     RDKit          2D

 23 25  0  0  0  0  0  0  0  0999 V2000
    0.3479   13.4915    0.0000 C   0  0  0  0  0  0  0  0  0  0  0  0
   -1.0786   13.0279    0.0000 C   0  0  0  0  0  0  0  0  0  0  0  0
   -1.3905   11.5607    0.0000 C   0  0  0  0  0  0  0  0  0  0  0  0
   -1.7024   10.0935    0.0000 C   0  0  0  0  0  0  0  0  0  0  0  0
   -2.0143    8.6263    0.0000 C   0  0  0  0  0  0  0  0  0  0  0  0
   -0.8995    7.6226    0.0000 O   0  0  0  0  0  0  0  0  0  0  0  0
   -3.4408    8.1628    0.0000 N   0  0  0  0  0  0  0  0  0  0  0  0
   -3.7527    6.6955    0.0000 C   0  0  0  0  0  0  0  0  0  0  0  0
   -2.6380    5.6918    0.0000 C   0  0  0  0  0  0  0  0  0  0  0  0
   -2.9499    4.2246    0.0000 C   0  0  0  0  0  0  0  0  0  0  0  0
   -1.8351    3.2209    0.0000 C   0  0  0  0  0  0  0  0  0  0  0  0
   -0.4086    3.6844    0.0000 C   0  0  0  0  0  0  0  0  0  0  0  0
    0.7062    2.6807    0.0000 N   0  0  0  0  0  0  0  0  0  0  0  0
    0.3943    1.2135    0.0000 C   0  0  0  0  0  0  0  0  0  0  0  0
    1.2760    0.0000    0.0000 N   0  0  0  0  0  0  0  0  0  0  0  0
    0.3943   -1.2135    0.0000 C   0  0  0  0  0  0  0  0  0  0  0  0
   -1.0323   -0.7500    0.0000 C   0  0  0  0  0  0  0  0  0  0  0  0
   -1.0323    0.7500    0.0000 C   0  0  0  0  0  0  0  0  0  0  0  0
   -2.1470    1.7537    0.0000 C   0  0  0  0  0  0  0  0  0  0  0  0
   -4.3764    3.7611    0.0000 C   0  0  0  0  0  0  0  0  0  0  0  0
   -5.4912    4.7648    0.0000 C   0  0  0  0  0  0  0  0  0  0  0  0
   -5.1793    6.2320    0.0000 C   0  0  0  0  0  0  0  0  0  0  0  0
   -6.2940    7.2357    0.0000 F   0  0  0  0  0  0  0  0  0  0  0  0
  1  2  1  0
  2  3  1  0
  3  4  3  0
  4  5  1  0
  5  6  2  0
  5  7  1  0
  7  8  1  0
  8  9  2  0
  9 10  1  0
 10 11  1  0
 11 12  2  0
 12 13  1  0
 13 14  2  0
 14 15  1  0
 15 16  1  0
 16 17  2  0
 17 18  1  0
 18 19  2  0
 10 20  2  0
 20 21  1  0
 21 22  2  0
 22 23  1  0
 22  8  1  0
 19 11  1  0
 18 14  1  0
M  END
>  <Compound_ID>  (131) 
CHEMBL3981782

>  <Molecule Name>  (131) 
nan

>  <Molecular Weight>  (131) 
307.33

>  <AlogP>  (131) 
3.72

>  <Smiles>  (131) 
CCC#CC(=O)Nc1cc(-c2cnc3[nH]ccc3c2)ccc1F

>  <Standard Type>  (131) 
IC50

>  <Standard Relation>  (131) 
'='

>  <Standard Units>  (131) 
nM

>  <Standard Value>  (131) 
35.0

>  <Assay ChEMBL ID>  (131) 
CHEMBL3887687

>  <Assay Description>  (131) 
Biochemical Inhibition Assay: 1H-pyrrolo[2,3-b]pyridine, 1H-pyrazolo[3,4-b]pyridine and 5H-pyrrolo[2,3-b]pyrazine series of compounds exhibited over >100 fold selective against Janus and TEC family of kinases except for the BMX and TXK it had activity of 30 and 45 nM respectively.

>  <BAO Format ID>  (131) 
BAO_0000357

>  <BAO Label>  (131) 
single protein format

>  <Assay Organism>  (131) 
Homo sapiens

>  <Target ChEMBL ID>  (131) 
CHEMBL2959

>  <Target Name>  (131) 
Tyrosine-protein kinase ITK/TSK

>  <Target Organism>  (131) 
Homo sapiens

>  <Target Type>  (131) 
SINGLE PROTEIN

>  <Document ChEMBL ID>  (131) 
CHEMBL3886406

>  <Source Description>  (131) 
BindingDB Database

>  <Document Journal>  (131) 
nan

>  <Document Year>  (131) 
2015.0

>  <Active>  (131) 
1.0

$$$$

     RDKit          2D

 32 36  0  0  0  0  0  0  0  0999 V2000
    2.6491    0.9642    0.0000 C   0  0  0  0  0  0  0  0  0  0  0  0
    1.5000    0.0000    0.0000 C   0  0  0  0  0  0  0  0  0  0  0  0
    2.6491   -0.9642    0.0000 C   0  0  0  0  0  0  0  0  0  0  0  0
    0.7500   -1.2990    0.0000 C   0  0  0  0  0  0  0  0  0  0  0  0
   -0.7500   -1.2990    0.0000 C   0  0  0  0  0  0  0  0  0  0  0  0
   -1.5000    0.0000    0.0000 C   0  0  0  0  0  0  0  0  0  0  0  0
   -2.9672    0.3119    0.0000 C   0  0  0  0  0  0  0  0  0  0  0  0
   -4.0819   -0.6918    0.0000 C   0  0  0  0  0  0  0  0  0  0  0  0
   -3.7701   -2.1590    0.0000 O   0  0  0  0  0  0  0  0  0  0  0  0
   -5.5085   -0.2283    0.0000 N   0  0  0  0  0  0  0  0  0  0  0  0
   -6.6232   -1.2320    0.0000 C   0  0  0  0  0  0  0  0  0  0  0  0
   -6.4664   -2.7238    0.0000 C   0  0  0  0  0  0  0  0  0  0  0  0
   -7.8368   -3.3339    0.0000 N   0  0  0  0  0  0  0  0  0  0  0  0
   -8.8405   -2.2192    0.0000 N   0  0  0  0  0  0  0  0  0  0  0  0
  -10.3322   -2.3760    0.0000 C   0  0  0  0  0  0  0  0  0  0  0  0
  -10.9423   -3.7463    0.0000 C   0  0  0  0  0  0  0  0  0  0  0  0
  -12.4341   -3.9031    0.0000 C   0  0  0  0  0  0  0  0  0  0  0  0
  -13.0442   -5.2734    0.0000 C   0  0  0  0  0  0  0  0  0  0  0  0
  -12.1626   -6.4869    0.0000 C   0  0  0  0  0  0  0  0  0  0  0  0
  -10.6708   -6.3301    0.0000 C   0  0  0  0  0  0  0  0  0  0  0  0
  -10.0607   -4.9598    0.0000 C   0  0  0  0  0  0  0  0  0  0  0  0
  -11.2139   -1.1624    0.0000 C   0  0  0  0  0  0  0  0  0  0  0  0
  -10.6038    0.2079    0.0000 C   0  0  0  0  0  0  0  0  0  0  0  0
  -11.4855    1.4214    0.0000 C   0  0  0  0  0  0  0  0  0  0  0  0
  -12.9773    1.2646    0.0000 N   0  0  0  0  0  0  0  0  0  0  0  0
  -13.5874   -0.1057    0.0000 C   0  0  0  0  0  0  0  0  0  0  0  0
  -12.7057   -1.3192    0.0000 C   0  0  0  0  0  0  0  0  0  0  0  0
   -8.0905   -0.9201    0.0000 C   0  0  0  0  0  0  0  0  0  0  0  0
   -3.1240    1.8037    0.0000 N   0  0  0  0  0  0  0  0  0  0  0  0
   -1.7537    2.4138    0.0000 N   0  0  0  0  0  0  0  0  0  0  0  0
   -0.7500    1.2990    0.0000 C   0  0  0  0  0  0  0  0  0  0  0  0
    0.7500    1.2990    0.0000 C   0  0  0  0  0  0  0  0  0  0  0  0
  1  2  1  0
  2  3  1  0
  2  4  1  0
  4  5  1  0
  5  6  1  0
  6  7  1  0
  7  8  1  0
  8  9  2  0
  8 10  1  0
 10 11  1  0
 11 12  1  0
 12 13  2  0
 13 14  1  0
 14 15  1  0
 15 16  1  0
 16 17  2  0
 17 18  1  0
 18 19  2  0
 19 20  1  0
 20 21  2  0
 15 22  1  6
 22 23  1  0
 23 24  1  0
 24 25  1  0
 25 26  1  0
 26 27  1  0
 14 28  1  0
  7 29  2  0
 29 30  1  0
 30 31  1  0
 31 32  1  0
 32  2  1  0
 31  6  2  0
 28 11  2  0
 21 16  1  0
 27 22  1  0
M  END
>  <Compound_ID>  (132) 
CHEMBL3298373

>  <Molecule Name>  (132) 
nan

>  <Molecular Weight>  (132) 
432.57

>  <AlogP>  (132) 
3.96

>  <Smiles>  (132) 
CC1(C)CCc2c(C(=O)Nc3cnn([C@H](c4ccccc4)C4CCNCC4)c3)n[nH]c2C1

>  <Standard Type>  (132) 
Ki

>  <Standard Relation>  (132) 
'='

>  <Standard Units>  (132) 
nM

>  <Standard Value>  (132) 
0.2

>  <Assay ChEMBL ID>  (132) 
CHEMBL3380548

>  <Assay Description>  (132) 
Inhibition of GST-tagged full length ITK (unknown origin) using BLK peptide as substrate after 35 mins

>  <BAO Format ID>  (132) 
BAO_0000357

>  <BAO Label>  (132) 
single protein format

>  <Assay Organism>  (132) 
Homo sapiens

>  <Target ChEMBL ID>  (132) 
CHEMBL2959

>  <Target Name>  (132) 
Tyrosine-protein kinase ITK/TSK

>  <Target Organism>  (132) 
Homo sapiens

>  <Target Type>  (132) 
SINGLE PROTEIN

>  <Document ChEMBL ID>  (132) 
CHEMBL3297697

>  <Source Description>  (132) 
Scientific Literature

>  <Document Journal>  (132) 
J Med Chem

>  <Document Year>  (132) 
2014.0

>  <Active>  (132) 
1.0

$$$$

     RDKit          2D

 33 37  0  0  0  0  0  0  0  0999 V2000
  -13.1357   -0.3314    0.0000 N   0  0  0  0  0  0  0  0  0  0  0  0
  -11.7091   -0.7949    0.0000 C   0  0  0  0  0  0  0  0  0  0  0  0
  -10.2825   -1.2584    0.0000 C   0  0  0  0  0  0  0  0  0  0  0  0
   -9.1678   -0.2547    0.0000 C   0  0  0  0  0  0  0  0  0  0  0  0
   -7.7412   -0.7182    0.0000 C   0  0  0  0  0  0  0  0  0  0  0  0
   -7.4293   -2.1855    0.0000 C   0  0  0  0  0  0  0  0  0  0  0  0
   -8.5441   -3.1891    0.0000 C   0  0  0  0  0  0  0  0  0  0  0  0
   -8.2322   -4.6564    0.0000 C   0  0  0  0  0  0  0  0  0  0  0  0
   -6.8056   -5.1199    0.0000 N   0  0  0  0  0  0  0  0  0  0  0  0
   -5.5921   -4.2382    0.0000 C   0  0  0  0  0  0  0  0  0  0  0  0
   -4.3786   -5.1199    0.0000 C   0  0  0  0  0  0  0  0  0  0  0  0
   -2.9520   -4.6564    0.0000 N   0  0  0  0  0  0  0  0  0  0  0  0
   -2.6401   -3.1891    0.0000 C   0  0  0  0  0  0  0  0  0  0  0  0
   -3.7548   -2.1855    0.0000 O   0  0  0  0  0  0  0  0  0  0  0  0
   -1.2135   -2.7256    0.0000 C   0  0  0  0  0  0  0  0  0  0  0  0
   -0.0000   -3.6073    0.0000 N   0  0  0  0  0  0  0  0  0  0  0  0
    1.2135   -2.7256    0.0000 N   0  0  0  0  0  0  0  0  0  0  0  0
    0.7500   -1.2990    0.0000 C   0  0  0  0  0  0  0  0  0  0  0  0
    1.5000    0.0000    0.0000 C   0  0  0  0  0  0  0  0  0  0  0  0
    0.7500    1.2990    0.0000 C   0  0  0  0  0  0  0  0  0  0  0  0
    1.5000    2.5981    0.0000 C   0  0  0  0  0  0  0  0  0  0  0  0
    3.0000    2.5981    0.0000 C   0  0  0  0  0  0  0  0  0  0  0  0
    3.7500    3.8971    0.0000 C   0  0  0  0  0  0  0  0  0  0  0  0
    3.0000    5.1962    0.0000 C   0  0  0  0  0  0  0  0  0  0  0  0
    3.7500    6.4952    0.0000 N   0  0  0  0  0  0  0  0  0  0  0  0
    1.5000    5.1962    0.0000 N   0  0  0  0  0  0  0  0  0  0  0  0
    0.7500    3.8971    0.0000 C   0  0  0  0  0  0  0  0  0  0  0  0
   -0.7500    1.2990    0.0000 C   0  0  0  0  0  0  0  0  0  0  0  0
   -1.5000    0.0000    0.0000 C   0  0  0  0  0  0  0  0  0  0  0  0
   -0.7500   -1.2990    0.0000 C   0  0  0  0  0  0  0  0  0  0  0  0
   -4.8421   -6.5465    0.0000 C   0  0  0  0  0  0  0  0  0  0  0  0
   -6.3421   -6.5465    0.0000 N   0  0  0  0  0  0  0  0  0  0  0  0
   -9.9707   -2.7256    0.0000 C   0  0  0  0  0  0  0  0  0  0  0  0
  1  2  3  0
  2  3  1  0
  3  4  2  0
  4  5  1  0
  5  6  2  0
  6  7  1  0
  7  8  1  0
  8  9  1  0
  9 10  1  0
 10 11  2  0
 11 12  1  0
 12 13  1  0
 13 14  2  0
 13 15  1  0
 15 16  2  0
 16 17  1  0
 17 18  1  0
 18 19  2  0
 19 20  1  0
 20 21  1  0
 21 22  2  0
 22 23  1  0
 23 24  2  0
 24 25  1  0
 24 26  1  0
 26 27  2  0
 20 28  2  0
 28 29  1  0
 29 30  2  0
 11 31  1  0
 31 32  2  0
  7 33  2  0
 33  3  1  0
 32  9  1  0
 30 15  1  0
 30 18  1  0
 27 21  1  0
M  END
>  <Compound_ID>  (133) 
CHEMBL3263035

>  <Molecule Name>  (133) 
nan

>  <Molecular Weight>  (133) 
434.46

>  <AlogP>  (133) 
3.58

>  <Smiles>  (133) 
N#Cc1cccc(Cn2cc(NC(=O)c3n[nH]c4cc(-c5ccc(N)nc5)ccc34)cn2)c1

>  <Standard Type>  (133) 
Ki

>  <Standard Relation>  (133) 
'='

>  <Standard Units>  (133) 
nM

>  <Standard Value>  (133) 
1.4

>  <Assay ChEMBL ID>  (133) 
CHEMBL3267591

>  <Assay Description>  (133) 
Inhibition of full-length ITK (unknown origin) using biotin-EQEDEPEGIYGVLF-NH2 as substrate by plate reader analysis

>  <BAO Format ID>  (133) 
BAO_0000357

>  <BAO Label>  (133) 
single protein format

>  <Assay Organism>  (133) 
Homo sapiens

>  <Target ChEMBL ID>  (133) 
CHEMBL2959

>  <Target Name>  (133) 
Tyrosine-protein kinase ITK/TSK

>  <Target Organism>  (133) 
Homo sapiens

>  <Target Type>  (133) 
SINGLE PROTEIN

>  <Document ChEMBL ID>  (133) 
CHEMBL3259776

>  <Source Description>  (133) 
Scientific Literature

>  <Document Journal>  (133) 
Bioorg Med Chem Lett

>  <Document Year>  (133) 
2014.0

>  <Active>  (133) 
1.0

$$$$

     RDKit          2D

 24 26  0  0  0  0  0  0  0  0999 V2000
   -4.5000  -10.3923    0.0000 C   0  0  0  0  0  0  0  0  0  0  0  0
   -3.0000  -10.3923    0.0000 C   0  0  0  0  0  0  0  0  0  0  0  0
   -2.2500   -9.0933    0.0000 C   0  0  0  0  0  0  0  0  0  0  0  0
   -1.5000   -7.7942    0.0000 C   0  0  0  0  0  0  0  0  0  0  0  0
   -0.7500   -6.4952    0.0000 C   0  0  0  0  0  0  0  0  0  0  0  0
   -1.5000   -5.1962    0.0000 O   0  0  0  0  0  0  0  0  0  0  0  0
    0.7500   -6.4952    0.0000 N   0  0  0  0  0  0  0  0  0  0  0  0
    1.5000   -5.1962    0.0000 C   0  0  0  0  0  0  0  0  0  0  0  0
    0.7500   -3.8971    0.0000 C   0  0  0  0  0  0  0  0  0  0  0  0
    1.5000   -2.5981    0.0000 C   0  0  0  0  0  0  0  0  0  0  0  0
    0.7500   -1.2990    0.0000 C   0  0  0  0  0  0  0  0  0  0  0  0
    1.5000    0.0000    0.0000 C   0  0  0  0  0  0  0  0  0  0  0  0
    0.7500    1.2990    0.0000 N   0  0  0  0  0  0  0  0  0  0  0  0
   -0.7500    1.2990    0.0000 C   0  0  0  0  0  0  0  0  0  0  0  0
   -1.7537    2.4138    0.0000 N   0  0  0  0  0  0  0  0  0  0  0  0
   -3.1240    1.8037    0.0000 C   0  0  0  0  0  0  0  0  0  0  0  0
   -2.9672    0.3119    0.0000 C   0  0  0  0  0  0  0  0  0  0  0  0
   -4.0819   -0.6918    0.0000 Cl  0  0  0  0  0  0  0  0  0  0  0  0
   -1.5000    0.0000    0.0000 C   0  0  0  0  0  0  0  0  0  0  0  0
   -0.7500   -1.2990    0.0000 C   0  0  0  0  0  0  0  0  0  0  0  0
    3.0000   -2.5981    0.0000 C   0  0  0  0  0  0  0  0  0  0  0  0
    3.7500   -3.8971    0.0000 C   0  0  0  0  0  0  0  0  0  0  0  0
    3.0000   -5.1962    0.0000 C   0  0  0  0  0  0  0  0  0  0  0  0
    3.7500   -6.4952    0.0000 F   0  0  0  0  0  0  0  0  0  0  0  0
  1  2  1  0
  2  3  1  0
  3  4  3  0
  4  5  1  0
  5  6  2  0
  5  7  1  0
  7  8  1  0
  8  9  2  0
  9 10  1  0
 10 11  1  0
 11 12  2  0
 12 13  1  0
 13 14  2  0
 14 15  1  0
 15 16  1  0
 16 17  2  0
 17 18  1  0
 17 19  1  0
 19 20  2  0
 10 21  2  0
 21 22  1  0
 22 23  2  0
 23 24  1  0
 23  8  1  0
 20 11  1  0
 19 14  1  0
M  END
>  <Compound_ID>  (134) 
CHEMBL3956377

>  <Molecule Name>  (134) 
nan

>  <Molecular Weight>  (134) 
341.77

>  <AlogP>  (134) 
4.37

>  <Smiles>  (134) 
CCC#CC(=O)Nc1cc(-c2cnc3[nH]cc(Cl)c3c2)ccc1F

>  <Standard Type>  (134) 
IC50

>  <Standard Relation>  (134) 
'='

>  <Standard Units>  (134) 
nM

>  <Standard Value>  (134) 
30.0

>  <Assay ChEMBL ID>  (134) 
CHEMBL3887687

>  <Assay Description>  (134) 
Biochemical Inhibition Assay: 1H-pyrrolo[2,3-b]pyridine, 1H-pyrazolo[3,4-b]pyridine and 5H-pyrrolo[2,3-b]pyrazine series of compounds exhibited over >100 fold selective against Janus and TEC family of kinases except for the BMX and TXK it had activity of 30 and 45 nM respectively.

>  <BAO Format ID>  (134) 
BAO_0000357

>  <BAO Label>  (134) 
single protein format

>  <Assay Organism>  (134) 
Homo sapiens

>  <Target ChEMBL ID>  (134) 
CHEMBL2959

>  <Target Name>  (134) 
Tyrosine-protein kinase ITK/TSK

>  <Target Organism>  (134) 
Homo sapiens

>  <Target Type>  (134) 
SINGLE PROTEIN

>  <Document ChEMBL ID>  (134) 
CHEMBL3886406

>  <Source Description>  (134) 
BindingDB Database

>  <Document Journal>  (134) 
nan

>  <Document Year>  (134) 
2015.0

>  <Active>  (134) 
1.0

$$$$

     RDKit          2D

 30 33  0  0  0  0  0  0  0  0999 V2000
    8.2500   -6.4952    0.0000 C   0  0  0  0  0  0  0  0  0  0  0  0
    7.5000   -5.1962    0.0000 C   0  0  0  0  0  0  0  0  0  0  0  0
    6.0000   -5.1962    0.0000 C   0  0  0  0  0  0  0  0  0  0  0  0
    5.2500   -6.4952    0.0000 O   0  0  0  0  0  0  0  0  0  0  0  0
    5.2500   -3.8971    0.0000 N   0  0  0  0  0  0  0  0  0  0  0  0
    3.7500   -3.8971    0.0000 C   0  0  0  0  0  0  0  0  0  0  0  0
    3.0000   -5.1962    0.0000 C   0  0  0  0  0  0  0  0  0  0  0  0
    1.5000   -5.1962    0.0000 C   0  0  0  0  0  0  0  0  0  0  0  0
    0.7500   -3.8971    0.0000 C   0  0  0  0  0  0  0  0  0  0  0  0
    1.5000   -2.5981    0.0000 C   0  0  0  0  0  0  0  0  0  0  0  0
    0.7500   -1.2990    0.0000 C   0  0  0  0  0  0  0  0  0  0  0  0
    1.5000    0.0000    0.0000 C   0  0  0  0  0  0  0  0  0  0  0  0
    0.7500    1.2990    0.0000 N   0  0  0  0  0  0  0  0  0  0  0  0
   -0.7500    1.2990    0.0000 C   0  0  0  0  0  0  0  0  0  0  0  0
   -1.7537    2.4138    0.0000 N   0  0  0  0  0  0  0  0  0  0  0  0
   -3.1240    1.8037    0.0000 C   0  0  0  0  0  0  0  0  0  0  0  0
   -2.9672    0.3119    0.0000 C   0  0  0  0  0  0  0  0  0  0  0  0
   -4.0819   -0.6918    0.0000 C   0  0  0  0  0  0  0  0  0  0  0  0
   -5.5085   -0.2283    0.0000 C   0  0  0  0  0  0  0  0  0  0  0  0
   -6.6232   -1.2320    0.0000 C   0  0  0  0  0  0  0  0  0  0  0  0
   -8.0498   -0.7685    0.0000 F   0  0  0  0  0  0  0  0  0  0  0  0
   -6.3114   -2.6992    0.0000 C   0  0  0  0  0  0  0  0  0  0  0  0
   -4.8848   -3.1627    0.0000 C   0  0  0  0  0  0  0  0  0  0  0  0
   -4.5729   -4.6300    0.0000 F   0  0  0  0  0  0  0  0  0  0  0  0
   -3.7701   -2.1590    0.0000 C   0  0  0  0  0  0  0  0  0  0  0  0
   -2.3435   -2.6226    0.0000 O   0  0  0  0  0  0  0  0  0  0  0  0
   -2.0316   -4.0898    0.0000 C   0  0  0  0  0  0  0  0  0  0  0  0
   -1.5000    0.0000    0.0000 C   0  0  0  0  0  0  0  0  0  0  0  0
   -0.7500   -1.2990    0.0000 C   0  0  0  0  0  0  0  0  0  0  0  0
    3.0000   -2.5981    0.0000 C   0  0  0  0  0  0  0  0  0  0  0  0
  1  2  2  0
  2  3  1  0
  3  4  2  0
  3  5  1  0
  5  6  1  0
  6  7  2  0
  7  8  1  0
  8  9  2  0
  9 10  1  0
 10 11  1  0
 11 12  2  0
 12 13  1  0
 13 14  2  0
 14 15  1  0
 15 16  1  0
 16 17  2  0
 17 18  1  0
 18 19  2  0
 19 20  1  0
 20 21  1  0
 20 22  2  0
 22 23  1  0
 23 24  1  0
 23 25  2  0
 25 26  1  0
 26 27  1  0
 17 28  1  0
 28 29  2  0
 10 30  2  0
 30  6  1  0
 29 11  1  0
 28 14  1  0
 25 18  1  0
M  END
>  <Compound_ID>  (135) 
CHEMBL3946420

>  <Molecule Name>  (135) 
nan

>  <Molecular Weight>  (135) 
405.4

>  <AlogP>  (135) 
5.31

>  <Smiles>  (135) 
C=CC(=O)Nc1cccc(-c2cnc3[nH]cc(-c4cc(F)cc(F)c4OC)c3c2)c1

>  <Standard Type>  (135) 
IC50

>  <Standard Relation>  (135) 
'='

>  <Standard Units>  (135) 
nM

>  <Standard Value>  (135) 
30.0

>  <Assay ChEMBL ID>  (135) 
CHEMBL3887687

>  <Assay Description>  (135) 
Biochemical Inhibition Assay: 1H-pyrrolo[2,3-b]pyridine, 1H-pyrazolo[3,4-b]pyridine and 5H-pyrrolo[2,3-b]pyrazine series of compounds exhibited over >100 fold selective against Janus and TEC family of kinases except for the BMX and TXK it had activity of 30 and 45 nM respectively.

>  <BAO Format ID>  (135) 
BAO_0000357

>  <BAO Label>  (135) 
single protein format

>  <Assay Organism>  (135) 
Homo sapiens

>  <Target ChEMBL ID>  (135) 
CHEMBL2959

>  <Target Name>  (135) 
Tyrosine-protein kinase ITK/TSK

>  <Target Organism>  (135) 
Homo sapiens

>  <Target Type>  (135) 
SINGLE PROTEIN

>  <Document ChEMBL ID>  (135) 
CHEMBL3886406

>  <Source Description>  (135) 
BindingDB Database

>  <Document Journal>  (135) 
nan

>  <Document Year>  (135) 
2015.0

>  <Active>  (135) 
1.0

$$$$

     RDKit          2D

 36 40  0  0  0  0  0  0  0  0999 V2000
    4.5000    0.0000    0.0000 C   0  0  0  0  0  0  0  0  0  0  0  0
    3.0000    0.0000    0.0000 S   0  0  0  0  0  0  0  0  0  0  0  0
    3.0000    1.5000    0.0000 O   0  0  0  0  0  0  0  0  0  0  0  0
    3.0000   -1.5000    0.0000 O   0  0  0  0  0  0  0  0  0  0  0  0
    1.5000    0.0000    0.0000 N   0  0  0  0  0  0  0  0  0  0  0  0
    0.7500   -1.2990    0.0000 C   0  0  0  0  0  0  0  0  0  0  0  0
   -0.7500   -1.2990    0.0000 C   0  0  0  0  0  0  0  0  0  0  0  0
   -1.5000    0.0000    0.0000 O   0  0  0  0  0  0  0  0  0  0  0  0
   -0.7500    1.2990    0.0000 C   0  0  0  0  0  0  0  0  0  0  0  0
   -1.5000    2.5981    0.0000 C   0  0  0  0  0  0  0  0  0  0  0  0
   -0.7500    3.8971    0.0000 N   0  0  0  0  0  0  0  0  0  0  0  0
   -1.5000    5.1962    0.0000 C   0  0  0  0  0  0  0  0  0  0  0  0
   -0.7500    6.4952    0.0000 N   0  0  0  0  0  0  0  0  0  0  0  0
   -1.5000    7.7942    0.0000 C   0  0  0  0  0  0  0  0  0  0  0  0
   -0.7500    9.0933    0.0000 C   0  0  0  0  0  0  0  0  0  0  0  0
    0.7500    9.0933    0.0000 C   0  0  0  0  0  0  0  0  0  0  0  0
    1.5000    7.7942    0.0000 C   0  0  0  0  0  0  0  0  0  0  0  0
    3.0000    7.7942    0.0000 C   0  0  0  0  0  0  0  0  0  0  0  0
    3.7500    9.0933    0.0000 C   0  0  0  0  0  0  0  0  0  0  0  0
    3.0000   10.3923    0.0000 C   0  0  0  0  0  0  0  0  0  0  0  0
    1.5000   10.3923    0.0000 C   0  0  0  0  0  0  0  0  0  0  0  0
   -3.0000    7.7942    0.0000 C   0  0  0  0  0  0  0  0  0  0  0  0
   -3.7500    6.4952    0.0000 C   0  0  0  0  0  0  0  0  0  0  0  0
   -5.2500    6.4952    0.0000 N   0  0  0  0  0  0  0  0  0  0  0  0
   -6.0000    7.7942    0.0000 C   0  0  0  0  0  0  0  0  0  0  0  0
   -7.4918    7.9510    0.0000 C   0  0  0  0  0  0  0  0  0  0  0  0
   -7.8037    9.4182    0.0000 C   0  0  0  0  0  0  0  0  0  0  0  0
   -9.1740   10.0283    0.0000 C   0  0  0  0  0  0  0  0  0  0  0  0
  -10.4730    9.2783    0.0000 C   0  0  0  0  0  0  0  0  0  0  0  0
  -11.5877   10.2820    0.0000 C   0  0  0  0  0  0  0  0  0  0  0  0
  -10.9776   11.6524    0.0000 C   0  0  0  0  0  0  0  0  0  0  0  0
   -9.4858   11.4956    0.0000 O   0  0  0  0  0  0  0  0  0  0  0  0
   -6.5046   10.1682    0.0000 N   0  0  0  0  0  0  0  0  0  0  0  0
   -5.3899    9.1645    0.0000 N   0  0  0  0  0  0  0  0  0  0  0  0
   -3.0000    5.1962    0.0000 N   0  0  0  0  0  0  0  0  0  0  0  0
    0.7500    1.2990    0.0000 C   0  0  0  0  0  0  0  0  0  0  0  0
  1  2  1  0
  2  3  2  0
  2  4  2  0
  2  5  1  0
  5  6  1  0
  6  7  1  0
  7  8  1  0
  8  9  1  0
  9 10  1  0
 10 11  1  0
 11 12  1  0
 12 13  2  0
 13 14  1  0
 14 15  1  0
 15 16  1  0
 16 17  2  0
 17 18  1  0
 18 19  2  0
 19 20  1  0
 20 21  2  0
 14 22  2  0
 22 23  1  0
 23 24  1  0
 24 25  1  0
 25 26  1  0
 26 27  2  0
 27 28  1  0
 28 29  2  0
 29 30  1  0
 30 31  2  0
 31 32  1  0
 27 33  1  0
 33 34  1  0
 23 35  2  0
  9 36  1  0
 36  5  1  0
 35 12  1  0
 21 16  1  0
 34 25  2  0
 32 28  1  0
M  END
>  <Compound_ID>  (136) 
CHEMBL2441279

>  <Molecule Name>  (136) 
nan

>  <Molecular Weight>  (136) 
509.59

>  <AlogP>  (136) 
2.87

>  <Smiles>  (136) 
CS(=O)(=O)N1CCOC(CNc2nc(Cc3ccccc3)cc(Nc3cc(-c4ccco4)[nH]n3)n2)C1

>  <Standard Type>  (136) 
Ki

>  <Standard Relation>  (136) 
'='

>  <Standard Units>  (136) 
nM

>  <Standard Value>  (136) 
6.31

>  <Assay ChEMBL ID>  (136) 
CHEMBL2446691

>  <Assay Description>  (136) 
Inhibition of ITK (unknown origin)

>  <BAO Format ID>  (136) 
BAO_0000357

>  <BAO Label>  (136) 
single protein format

>  <Assay Organism>  (136) 
Homo sapiens

>  <Target ChEMBL ID>  (136) 
CHEMBL2959

>  <Target Name>  (136) 
Tyrosine-protein kinase ITK/TSK

>  <Target Organism>  (136) 
Homo sapiens

>  <Target Type>  (136) 
SINGLE PROTEIN

>  <Document ChEMBL ID>  (136) 
CHEMBL2440060

>  <Source Description>  (136) 
Scientific Literature

>  <Document Journal>  (136) 
ACS Med Chem Lett

>  <Document Year>  (136) 
2013.0

>  <Active>  (136) 
1.0

$$$$

     RDKit          2D

 21 23  0  0  0  0  0  0  0  0999 V2000
   -2.6401   -3.1891    0.0000 C   0  0  0  0  0  0  0  0  0  0  0  0
   -1.2135   -2.7256    0.0000 C   0  0  0  0  0  0  0  0  0  0  0  0
   -0.0000   -3.6073    0.0000 C   0  0  0  0  0  0  0  0  0  0  0  0
    1.2135   -2.7256    0.0000 N   0  0  0  0  0  0  0  0  0  0  0  0
    0.7500   -1.2990    0.0000 C   0  0  0  0  0  0  0  0  0  0  0  0
    1.5000    0.0000    0.0000 N   0  0  0  0  0  0  0  0  0  0  0  0
    0.7500    1.2990    0.0000 C   0  0  0  0  0  0  0  0  0  0  0  0
   -0.7500    1.2990    0.0000 C   0  0  0  0  0  0  0  0  0  0  0  0
   -1.5000    2.5981    0.0000 C   0  0  0  0  0  0  0  0  0  0  0  0
   -0.7500    3.8971    0.0000 C   0  0  0  0  0  0  0  0  0  0  0  0
   -1.5000    5.1962    0.0000 C   0  0  0  0  0  0  0  0  0  0  0  0
   -3.0000    5.1962    0.0000 C   0  0  0  0  0  0  0  0  0  0  0  0
   -3.7500    3.8971    0.0000 C   0  0  0  0  0  0  0  0  0  0  0  0
   -5.2500    3.8971    0.0000 N   0  0  0  0  0  0  0  0  0  0  0  0
   -6.0000    5.1962    0.0000 C   0  0  0  0  0  0  0  0  0  0  0  0
   -5.2500    6.4952    0.0000 O   0  0  0  0  0  0  0  0  0  0  0  0
   -7.5000    5.1962    0.0000 C   0  0  0  0  0  0  0  0  0  0  0  0
   -8.2500    6.4952    0.0000 F   0  0  0  0  0  0  0  0  0  0  0  0
   -3.0000    2.5981    0.0000 C   0  0  0  0  0  0  0  0  0  0  0  0
   -1.5000    0.0000    0.0000 C   0  0  0  0  0  0  0  0  0  0  0  0
   -0.7500   -1.2990    0.0000 C   0  0  0  0  0  0  0  0  0  0  0  0
  1  2  1  0
  2  3  2  0
  3  4  1  0
  4  5  1  0
  5  6  2  0
  6  7  1  0
  7  8  2  0
  8  9  1  0
  9 10  2  0
 10 11  1  0
 11 12  2  0
 12 13  1  0
 13 14  1  0
 14 15  1  0
 15 16  2  0
 15 17  1  0
 17 18  1  0
 13 19  2  0
  8 20  1  0
 20 21  2  0
 21  2  1  0
 21  5  1  0
 19  9  1  0
M  END
>  <Compound_ID>  (137) 
CHEMBL3911910

>  <Molecule Name>  (137) 
nan

>  <Molecular Weight>  (137) 
283.31

>  <AlogP>  (137) 
3.45

>  <Smiles>  (137) 
Cc1c[nH]c2ncc(-c3cccc(NC(=O)CF)c3)cc12

>  <Standard Type>  (137) 
IC50

>  <Standard Relation>  (137) 
'='

>  <Standard Units>  (137) 
nM

>  <Standard Value>  (137) 
30.0

>  <Assay ChEMBL ID>  (137) 
CHEMBL3887687

>  <Assay Description>  (137) 
Biochemical Inhibition Assay: 1H-pyrrolo[2,3-b]pyridine, 1H-pyrazolo[3,4-b]pyridine and 5H-pyrrolo[2,3-b]pyrazine series of compounds exhibited over >100 fold selective against Janus and TEC family of kinases except for the BMX and TXK it had activity of 30 and 45 nM respectively.

>  <BAO Format ID>  (137) 
BAO_0000357

>  <BAO Label>  (137) 
single protein format

>  <Assay Organism>  (137) 
Homo sapiens

>  <Target ChEMBL ID>  (137) 
CHEMBL2959

>  <Target Name>  (137) 
Tyrosine-protein kinase ITK/TSK

>  <Target Organism>  (137) 
Homo sapiens

>  <Target Type>  (137) 
SINGLE PROTEIN

>  <Document ChEMBL ID>  (137) 
CHEMBL3886406

>  <Source Description>  (137) 
BindingDB Database

>  <Document Journal>  (137) 
nan

>  <Document Year>  (137) 
2015.0

>  <Active>  (137) 
1.0

$$$$

     RDKit          2D

 21 23  0  0  0  0  0  0  0  0999 V2000
    5.2500   -6.4952    0.0000 O   0  0  0  0  0  0  0  0  0  0  0  0
    6.0000   -5.1962    0.0000 C   0  0  0  0  0  0  0  0  0  0  0  0
    7.5000   -5.1962    0.0000 C   0  0  0  0  0  0  0  0  0  0  0  0
    8.2500   -6.4952    0.0000 F   0  0  0  0  0  0  0  0  0  0  0  0
    5.2500   -3.8971    0.0000 N   0  0  0  0  0  0  0  0  0  0  0  0
    3.7500   -3.8971    0.0000 C   0  0  0  0  0  0  0  0  0  0  0  0
    3.0000   -5.1962    0.0000 C   0  0  0  0  0  0  0  0  0  0  0  0
    1.5000   -5.1962    0.0000 C   0  0  0  0  0  0  0  0  0  0  0  0
    0.7500   -3.8971    0.0000 C   0  0  0  0  0  0  0  0  0  0  0  0
    1.5000   -2.5981    0.0000 C   0  0  0  0  0  0  0  0  0  0  0  0
    0.7500   -1.2990    0.0000 C   0  0  0  0  0  0  0  0  0  0  0  0
    1.5000    0.0000    0.0000 C   0  0  0  0  0  0  0  0  0  0  0  0
    0.7500    1.2990    0.0000 N   0  0  0  0  0  0  0  0  0  0  0  0
   -0.7500    1.2990    0.0000 C   0  0  0  0  0  0  0  0  0  0  0  0
   -1.7537    2.4138    0.0000 N   0  0  0  0  0  0  0  0  0  0  0  0
   -3.1240    1.8037    0.0000 C   0  0  0  0  0  0  0  0  0  0  0  0
   -2.9672    0.3119    0.0000 C   0  0  0  0  0  0  0  0  0  0  0  0
   -4.0819   -0.6918    0.0000 Cl  0  0  0  0  0  0  0  0  0  0  0  0
   -1.5000    0.0000    0.0000 C   0  0  0  0  0  0  0  0  0  0  0  0
   -0.7500   -1.2990    0.0000 C   0  0  0  0  0  0  0  0  0  0  0  0
    3.0000   -2.5981    0.0000 C   0  0  0  0  0  0  0  0  0  0  0  0
  1  2  2  0
  2  3  1  0
  3  4  1  0
  2  5  1  0
  5  6  1  0
  6  7  2  0
  7  8  1  0
  8  9  2  0
  9 10  1  0
 10 11  1  0
 11 12  2  0
 12 13  1  0
 13 14  2  0
 14 15  1  0
 15 16  1  0
 16 17  2  0
 17 18  1  0
 17 19  1  0
 19 20  2  0
 10 21  2  0
 21  6  1  0
 20 11  1  0
 19 14  1  0
M  END
>  <Compound_ID>  (138) 
CHEMBL3953949

>  <Molecule Name>  (138) 
nan

>  <Molecular Weight>  (138) 
303.72

>  <AlogP>  (138) 
3.79

>  <Smiles>  (138) 
O=C(CF)Nc1cccc(-c2cnc3[nH]cc(Cl)c3c2)c1

>  <Standard Type>  (138) 
IC50

>  <Standard Relation>  (138) 
'='

>  <Standard Units>  (138) 
nM

>  <Standard Value>  (138) 
35.0

>  <Assay ChEMBL ID>  (138) 
CHEMBL3887687

>  <Assay Description>  (138) 
Biochemical Inhibition Assay: 1H-pyrrolo[2,3-b]pyridine, 1H-pyrazolo[3,4-b]pyridine and 5H-pyrrolo[2,3-b]pyrazine series of compounds exhibited over >100 fold selective against Janus and TEC family of kinases except for the BMX and TXK it had activity of 30 and 45 nM respectively.

>  <BAO Format ID>  (138) 
BAO_0000357

>  <BAO Label>  (138) 
single protein format

>  <Assay Organism>  (138) 
Homo sapiens

>  <Target ChEMBL ID>  (138) 
CHEMBL2959

>  <Target Name>  (138) 
Tyrosine-protein kinase ITK/TSK

>  <Target Organism>  (138) 
Homo sapiens

>  <Target Type>  (138) 
SINGLE PROTEIN

>  <Document ChEMBL ID>  (138) 
CHEMBL3886406

>  <Source Description>  (138) 
BindingDB Database

>  <Document Journal>  (138) 
nan

>  <Document Year>  (138) 
2015.0

>  <Active>  (138) 
1.0

$$$$

     RDKit          2D

 32 35  0  0  0  0  0  0  0  0999 V2000
    7.7669  -12.9277    0.0000 C   0  0  0  0  0  0  0  0  0  0  0  0
    6.8852  -11.7142    0.0000 N   0  0  0  0  0  0  0  0  0  0  0  0
    5.3935  -11.8710    0.0000 C   0  0  0  0  0  0  0  0  0  0  0  0
    7.4953  -10.3438    0.0000 C   0  0  0  0  0  0  0  0  0  0  0  0
    6.6137   -9.1303    0.0000 C   0  0  0  0  0  0  0  0  0  0  0  0
    7.2238   -7.7600    0.0000 C   0  0  0  0  0  0  0  0  0  0  0  0
    8.7155   -7.6032    0.0000 C   0  0  0  0  0  0  0  0  0  0  0  0
    9.5972   -8.8167    0.0000 C   0  0  0  0  0  0  0  0  0  0  0  0
   11.0890   -8.6599    0.0000 C   0  0  0  0  0  0  0  0  0  0  0  0
   11.6991   -7.2896    0.0000 C   0  0  0  0  0  0  0  0  0  0  0  0
   10.8174   -6.0761    0.0000 C   0  0  0  0  0  0  0  0  0  0  0  0
   11.4275   -4.7058    0.0000 Cl  0  0  0  0  0  0  0  0  0  0  0  0
    9.3257   -6.2329    0.0000 C   0  0  0  0  0  0  0  0  0  0  0  0
    6.3421   -6.5465    0.0000 N   0  0  0  0  0  0  0  0  0  0  0  0
    4.8421   -6.5465    0.0000 C   0  0  0  0  0  0  0  0  0  0  0  0
    4.3786   -5.1199    0.0000 C   0  0  0  0  0  0  0  0  0  0  0  0
    2.9520   -4.6564    0.0000 N   0  0  0  0  0  0  0  0  0  0  0  0
    2.6401   -3.1891    0.0000 C   0  0  0  0  0  0  0  0  0  0  0  0
    3.7548   -2.1855    0.0000 O   0  0  0  0  0  0  0  0  0  0  0  0
    1.2135   -2.7256    0.0000 C   0  0  0  0  0  0  0  0  0  0  0  0
   -0.0000   -3.6073    0.0000 N   0  0  0  0  0  0  0  0  0  0  0  0
   -1.2135   -2.7256    0.0000 N   0  0  0  0  0  0  0  0  0  0  0  0
   -0.7500   -1.2990    0.0000 C   0  0  0  0  0  0  0  0  0  0  0  0
    0.7500   -1.2990    0.0000 C   0  0  0  0  0  0  0  0  0  0  0  0
    1.5000    0.0000    0.0000 C   0  0  0  0  0  0  0  0  0  0  0  0
    0.7500    1.2990    0.0000 C   0  0  0  0  0  0  0  0  0  0  0  0
   -0.7500    1.2990    0.0000 C   0  0  0  0  0  0  0  0  0  0  0  0
   -2.1595    1.8121    0.0000 C   0  0  0  0  0  0  0  0  0  0  0  0
   -0.4895    2.7762    0.0000 C   0  0  0  0  0  0  0  0  0  0  0  0
   -1.5000    0.0000    0.0000 C   0  0  0  0  0  0  0  0  0  0  0  0
    5.5921   -4.2382    0.0000 C   0  0  0  0  0  0  0  0  0  0  0  0
    6.8056   -5.1199    0.0000 N   0  0  0  0  0  0  0  0  0  0  0  0
  1  2  1  0
  2  3  1  0
  2  4  1  0
  4  5  1  0
  6  5  1  6
  6  7  1  0
  7  8  2  0
  8  9  1  0
  9 10  2  0
 10 11  1  0
 11 12  1  0
 11 13  2  0
  6 14  1  0
 14 15  1  0
 15 16  2  0
 16 17  1  0
 17 18  1  0
 18 19  2  0
 18 20  1  0
 20 21  2  0
 21 22  1  0
 22 23  1  0
 23 24  2  0
 24 25  1  0
 25 26  1  0
 26 27  1  0
 27 28  1  0
 27 29  1  0
 27 30  1  0
 16 31  1  0
 31 32  2  0
 13  7  1  0
 32 14  1  0
 24 20  1  0
 30 23  1  0
M  END
>  <Compound_ID>  (139) 
CHEMBL3298376

>  <Molecule Name>  (139) 
nan

>  <Molecular Weight>  (139) 
455.01

>  <AlogP>  (139) 
4.57

>  <Smiles>  (139) 
CN(C)CC[C@@H](c1cccc(Cl)c1)n1cc(NC(=O)c2n[nH]c3c2CCC(C)(C)C3)cn1

>  <Standard Type>  (139) 
Ki

>  <Standard Relation>  (139) 
'='

>  <Standard Units>  (139) 
nM

>  <Standard Value>  (139) 
1.2

>  <Assay ChEMBL ID>  (139) 
CHEMBL3380548

>  <Assay Description>  (139) 
Inhibition of GST-tagged full length ITK (unknown origin) using BLK peptide as substrate after 35 mins

>  <BAO Format ID>  (139) 
BAO_0000357

>  <BAO Label>  (139) 
single protein format

>  <Assay Organism>  (139) 
Homo sapiens

>  <Target ChEMBL ID>  (139) 
CHEMBL2959

>  <Target Name>  (139) 
Tyrosine-protein kinase ITK/TSK

>  <Target Organism>  (139) 
Homo sapiens

>  <Target Type>  (139) 
SINGLE PROTEIN

>  <Document ChEMBL ID>  (139) 
CHEMBL3297697

>  <Source Description>  (139) 
Scientific Literature

>  <Document Journal>  (139) 
J Med Chem

>  <Document Year>  (139) 
2014.0

>  <Active>  (139) 
1.0

$$$$

     RDKit          2D

 33 36  0  0  0  0  0  0  0  0999 V2000
    7.5000   -2.5981    0.0000 C   0  0  0  0  0  0  0  0  0  0  0  0
    6.0000   -2.5981    0.0000 C   0  0  0  0  0  0  0  0  0  0  0  0
    5.2500   -3.8971    0.0000 C   0  0  0  0  0  0  0  0  0  0  0  0
    5.2500   -1.2990    0.0000 C   0  0  0  0  0  0  0  0  0  0  0  0
    3.7500   -1.2990    0.0000 N   0  0  0  0  0  0  0  0  0  0  0  0
    3.0000    0.0000    0.0000 C   0  0  0  0  0  0  0  0  0  0  0  0
    1.5000    0.0000    0.0000 C   0  0  0  0  0  0  0  0  0  0  0  0
    0.7500   -1.2990    0.0000 C   0  0  0  0  0  0  0  0  0  0  0  0
   -0.7500   -1.2990    0.0000 C   0  0  0  0  0  0  0  0  0  0  0  0
   -1.5000    0.0000    0.0000 C   0  0  0  0  0  0  0  0  0  0  0  0
   -0.7500    1.2990    0.0000 C   0  0  0  0  0  0  0  0  0  0  0  0
    0.7500    1.2990    0.0000 C   0  0  0  0  0  0  0  0  0  0  0  0
   -1.7537    2.4138    0.0000 N   0  0  0  0  0  0  0  0  0  0  0  0
   -3.1240    1.8037    0.0000 C   0  0  0  0  0  0  0  0  0  0  0  0
   -4.4231    2.5537    0.0000 N   0  0  0  0  0  0  0  0  0  0  0  0
   -4.4231    4.0537    0.0000 C   0  0  0  0  0  0  0  0  0  0  0  0
   -3.1240    4.8037    0.0000 O   0  0  0  0  0  0  0  0  0  0  0  0
   -5.7221    4.8037    0.0000 C   0  0  0  0  0  0  0  0  0  0  0  0
   -7.0924    4.1935    0.0000 C   0  0  0  0  0  0  0  0  0  0  0  0
   -8.0961    5.3083    0.0000 C   0  0  0  0  0  0  0  0  0  0  0  0
   -7.3461    6.6073    0.0000 C   0  0  0  0  0  0  0  0  0  0  0  0
   -7.9562    7.9776    0.0000 C   0  0  0  0  0  0  0  0  0  0  0  0
   -9.4234    8.2895    0.0000 C   0  0  0  0  0  0  0  0  0  0  0  0
   -9.5802    9.7813    0.0000 N   0  0  0  0  0  0  0  0  0  0  0  0
   -8.2099   10.3914    0.0000 N   0  0  0  0  0  0  0  0  0  0  0  0
   -7.2062    9.2767    0.0000 C   0  0  0  0  0  0  0  0  0  0  0  0
   -5.8789    6.2954    0.0000 S   0  0  0  0  0  0  0  0  0  0  0  0
   -2.9672    0.3119    0.0000 N   0  0  0  0  0  0  0  0  0  0  0  0
   -4.0819   -0.6918    0.0000 C   0  0  0  0  0  0  0  0  0  0  0  0
   -5.5085   -0.2283    0.0000 C   0  0  0  0  0  0  0  0  0  0  0  0
   -5.0450    1.1983    0.0000 C   0  0  0  0  0  0  0  0  0  0  0  0
   -5.9720   -1.6549    0.0000 C   0  0  0  0  0  0  0  0  0  0  0  0
   -6.9351    0.2352    0.0000 O   0  0  0  0  0  0  0  0  0  0  0  0
  1  2  1  0
  2  3  1  0
  2  4  1  0
  4  5  1  0
  5  6  1  0
  6  7  1  0
  7  8  2  0
  8  9  1  0
  9 10  2  0
 10 11  1  0
 11 12  2  0
 11 13  1  0
 13 14  1  0
 14 15  2  0
 15 16  1  0
 16 17  2  0
 16 18  1  0
 18 19  2  0
 19 20  1  0
 20 21  2  0
 21 22  1  0
 22 23  1  0
 23 24  2  0
 24 25  1  0
 25 26  1  0
 21 27  1  0
 14 28  1  0
 28 29  1  0
 29 30  1  0
 30 31  1  0
 30 32  1  0
 30 33  1  0
 12  7  1  0
 27 18  1  0
 28 10  1  0
 26 22  2  0
M  END
>  <Compound_ID>  (140) 
CHEMBL522871

>  <Molecule Name>  (140) 
nan

>  <Molecular Weight>  (140) 
466.61

>  <AlogP>  (140) 
3.68

>  <Smiles>  (140) 
CC(C)CNCc1ccc2c(c1)[nH]/c(=N\C(=O)c1ccc(-c3cn[nH]c3)s1)n2CC(C)(C)O

>  <Standard Type>  (140) 
IC50

>  <Standard Relation>  (140) 
'='

>  <Standard Units>  (140) 
nM

>  <Standard Value>  (140) 
1.0

>  <Assay ChEMBL ID>  (140) 
CHEMBL1018826

>  <Assay Description>  (140) 
Binding affinity to ITK by DELFIA-based molecular assay

>  <BAO Format ID>  (140) 
BAO_0000357

>  <BAO Label>  (140) 
single protein format

>  <Assay Organism>  (140) 
None

>  <Target ChEMBL ID>  (140) 
CHEMBL2959

>  <Target Name>  (140) 
Tyrosine-protein kinase ITK/TSK

>  <Target Organism>  (140) 
Homo sapiens

>  <Target Type>  (140) 
SINGLE PROTEIN

>  <Document ChEMBL ID>  (140) 
CHEMBL1153328

>  <Source Description>  (140) 
Scientific Literature

>  <Document Journal>  (140) 
Bioorg Med Chem Lett

>  <Document Year>  (140) 
2009.0

>  <Active>  (140) 
1.0

$$$$

     RDKit          2D

 35 38  0  0  0  0  0  0  0  0999 V2000
    6.0000   -2.5981    0.0000 C   0  0  0  0  0  0  0  0  0  0  0  0
    5.2500   -1.2990    0.0000 C   0  0  0  0  0  0  0  0  0  0  0  0
    3.7500   -1.2990    0.0000 N   0  0  0  0  0  0  0  0  0  0  0  0
    3.0000    0.0000    0.0000 C   0  0  0  0  0  0  0  0  0  0  0  0
    1.5000    0.0000    0.0000 C   0  0  0  0  0  0  0  0  0  0  0  0
    0.7500   -1.2990    0.0000 C   0  0  0  0  0  0  0  0  0  0  0  0
   -0.7500   -1.2990    0.0000 C   0  0  0  0  0  0  0  0  0  0  0  0
   -1.5000    0.0000    0.0000 C   0  0  0  0  0  0  0  0  0  0  0  0
   -0.7500    1.2990    0.0000 C   0  0  0  0  0  0  0  0  0  0  0  0
    0.7500    1.2990    0.0000 C   0  0  0  0  0  0  0  0  0  0  0  0
   -1.7537    2.4138    0.0000 N   0  0  0  0  0  0  0  0  0  0  0  0
   -3.1240    1.8037    0.0000 C   0  0  0  0  0  0  0  0  0  0  0  0
   -4.4231    2.5537    0.0000 N   0  0  0  0  0  0  0  0  0  0  0  0
   -4.4231    4.0537    0.0000 C   0  0  0  0  0  0  0  0  0  0  0  0
   -3.1240    4.8037    0.0000 O   0  0  0  0  0  0  0  0  0  0  0  0
   -5.7221    4.8037    0.0000 C   0  0  0  0  0  0  0  0  0  0  0  0
   -7.0924    4.1935    0.0000 C   0  0  0  0  0  0  0  0  0  0  0  0
   -8.0961    5.3083    0.0000 C   0  0  0  0  0  0  0  0  0  0  0  0
   -7.3461    6.6073    0.0000 C   0  0  0  0  0  0  0  0  0  0  0  0
   -7.9562    7.9776    0.0000 C   0  0  0  0  0  0  0  0  0  0  0  0
   -9.4234    8.2895    0.0000 C   0  0  0  0  0  0  0  0  0  0  0  0
   -9.5802    9.7813    0.0000 N   0  0  0  0  0  0  0  0  0  0  0  0
   -8.2099   10.3914    0.0000 N   0  0  0  0  0  0  0  0  0  0  0  0
   -7.2062    9.2767    0.0000 C   0  0  0  0  0  0  0  0  0  0  0  0
   -5.8789    6.2954    0.0000 S   0  0  0  0  0  0  0  0  0  0  0  0
   -2.9672    0.3119    0.0000 N   0  0  0  0  0  0  0  0  0  0  0  0
   -4.0819   -0.6918    0.0000 C   0  0  0  0  0  0  0  0  0  0  0  0
   -5.5085   -0.2283    0.0000 C   0  0  0  0  0  0  0  0  0  0  0  0
   -5.0450    1.1983    0.0000 C   0  0  0  0  0  0  0  0  0  0  0  0
   -5.9720   -1.6549    0.0000 C   0  0  0  0  0  0  0  0  0  0  0  0
   -6.9351    0.2352    0.0000 O   0  0  0  0  0  0  0  0  0  0  0  0
    6.0000    0.0000    0.0000 C   0  0  0  0  0  0  0  0  0  0  0  0
    7.2990   -0.7500    0.0000 C   0  0  0  0  0  0  0  0  0  0  0  0
    4.7010    0.7500    0.0000 C   0  0  0  0  0  0  0  0  0  0  0  0
    6.7500    1.2990    0.0000 C   0  0  0  0  0  0  0  0  0  0  0  0
  2  1  1  1
  2  3  1  0
  3  4  1  0
  4  5  1  0
  5  6  2  0
  6  7  1  0
  7  8  2  0
  8  9  1  0
  9 10  2  0
  9 11  1  0
 11 12  1  0
 12 13  2  0
 13 14  1  0
 14 15  2  0
 14 16  1  0
 16 17  2  0
 17 18  1  0
 18 19  2  0
 19 20  1  0
 20 21  1  0
 21 22  2  0
 22 23  1  0
 23 24  1  0
 19 25  1  0
 12 26  1  0
 26 27  1  0
 27 28  1  0
 28 29  1  0
 28 30  1  0
 28 31  1  0
  2 32  1  0
 32 33  1  0
 32 34  1  0
 32 35  1  0
 10  5  1  0
 25 16  1  0
 26  8  1  0
 24 20  2  0
M  END
>  <Compound_ID>  (141) 
CHEMBL494993

>  <Molecule Name>  (141) 
nan

>  <Molecular Weight>  (141) 
494.67

>  <AlogP>  (141) 
4.46

>  <Smiles>  (141) 
C[C@@H](NCc1ccc2c(c1)[nH]/c(=N\C(=O)c1ccc(-c3cn[nH]c3)s1)n2CC(C)(C)O)C(C)(C)C

>  <Standard Type>  (141) 
IC50

>  <Standard Relation>  (141) 
'='

>  <Standard Units>  (141) 
nM

>  <Standard Value>  (141) 
1.0

>  <Assay ChEMBL ID>  (141) 
CHEMBL1018826

>  <Assay Description>  (141) 
Binding affinity to ITK by DELFIA-based molecular assay

>  <BAO Format ID>  (141) 
BAO_0000357

>  <BAO Label>  (141) 
single protein format

>  <Assay Organism>  (141) 
None

>  <Target ChEMBL ID>  (141) 
CHEMBL2959

>  <Target Name>  (141) 
Tyrosine-protein kinase ITK/TSK

>  <Target Organism>  (141) 
Homo sapiens

>  <Target Type>  (141) 
SINGLE PROTEIN

>  <Document ChEMBL ID>  (141) 
CHEMBL1153328

>  <Source Description>  (141) 
Scientific Literature

>  <Document Journal>  (141) 
Bioorg Med Chem Lett

>  <Document Year>  (141) 
2009.0

>  <Active>  (141) 
1.0

$$$$

     RDKit          2D

 34 38  0  0  0  0  0  0  0  0999 V2000
   -2.7511   -1.0707    0.0000 C   0  0  0  0  0  0  0  0  0  0  0  0
   -3.7548   -2.1855    0.0000 C   0  0  0  0  0  0  0  0  0  0  0  0
   -4.7585   -3.3002    0.0000 C   0  0  0  0  0  0  0  0  0  0  0  0
   -4.8695   -1.1818    0.0000 O   0  0  0  0  0  0  0  0  0  0  0  0
   -2.6401   -3.1891    0.0000 C   0  0  0  0  0  0  0  0  0  0  0  0
   -1.2135   -2.7256    0.0000 N   0  0  0  0  0  0  0  0  0  0  0  0
   -0.0000   -3.6073    0.0000 C   0  0  0  0  0  0  0  0  0  0  0  0
   -0.0000   -5.1073    0.0000 N   0  0  0  0  0  0  0  0  0  0  0  0
    1.2990   -5.8573    0.0000 C   0  0  0  0  0  0  0  0  0  0  0  0
    2.5981   -5.1073    0.0000 O   0  0  0  0  0  0  0  0  0  0  0  0
    1.2990   -7.3573    0.0000 C   0  0  0  0  0  0  0  0  0  0  0  0
    2.5126   -8.2390    0.0000 C   0  0  0  0  0  0  0  0  0  0  0  0
    2.0490   -9.6656    0.0000 C   0  0  0  0  0  0  0  0  0  0  0  0
    0.5490   -9.6656    0.0000 C   0  0  0  0  0  0  0  0  0  0  0  0
   -0.3326  -10.8791    0.0000 C   0  0  0  0  0  0  0  0  0  0  0  0
    0.1309  -12.3057    0.0000 C   0  0  0  0  0  0  0  0  0  0  0  0
   -1.0826  -13.1874    0.0000 N   0  0  0  0  0  0  0  0  0  0  0  0
   -2.2962  -12.3057    0.0000 N   0  0  0  0  0  0  0  0  0  0  0  0
   -1.8326  -10.8791    0.0000 C   0  0  0  0  0  0  0  0  0  0  0  0
    0.0855   -8.2390    0.0000 S   0  0  0  0  0  0  0  0  0  0  0  0
    1.2135   -2.7256    0.0000 N   0  0  0  0  0  0  0  0  0  0  0  0
    0.7500   -1.2990    0.0000 C   0  0  0  0  0  0  0  0  0  0  0  0
    1.5000    0.0000    0.0000 C   0  0  0  0  0  0  0  0  0  0  0  0
    0.7500    1.2990    0.0000 C   0  0  0  0  0  0  0  0  0  0  0  0
    1.5000    2.5981    0.0000 C   0  0  0  0  0  0  0  0  0  0  0  0
    3.0000    2.5981    0.0000 N   0  0  0  0  0  0  0  0  0  0  0  0
    3.7500    1.2990    0.0000 C   0  0  0  0  0  0  0  0  0  0  0  0
    5.2500    1.2990    0.0000 C   0  0  0  0  0  0  0  0  0  0  0  0
    6.0000    2.5981    0.0000 C   0  0  0  0  0  0  0  0  0  0  0  0
    5.2500    3.8971    0.0000 C   0  0  0  0  0  0  0  0  0  0  0  0
    3.7500    3.8971    0.0000 C   0  0  0  0  0  0  0  0  0  0  0  0
   -0.7500    1.2990    0.0000 C   0  0  0  0  0  0  0  0  0  0  0  0
   -1.5000    0.0000    0.0000 C   0  0  0  0  0  0  0  0  0  0  0  0
   -0.7500   -1.2990    0.0000 C   0  0  0  0  0  0  0  0  0  0  0  0
  1  2  1  0
  2  3  1  0
  2  4  1  0
  2  5  1  0
  5  6  1  0
  6  7  1  0
  7  8  2  0
  8  9  1  0
  9 10  2  0
  9 11  1  0
 11 12  2  0
 12 13  1  0
 13 14  2  0
 14 15  1  0
 15 16  1  0
 16 17  2  0
 17 18  1  0
 18 19  1  0
 14 20  1  0
  7 21  1  0
 21 22  1  0
 22 23  2  0
 23 24  1  0
 24 25  1  0
 25 26  1  0
 26 27  1  0
 27 28  1  0
 28 29  1  0
 29 30  1  0
 30 31  1  0
 24 32  2  0
 32 33  1  0
 33 34  2  0
 34  6  1  0
 20 11  1  0
 34 22  1  0
 19 15  2  0
 31 26  1  0
M  END
>  <Compound_ID>  (142) 
CHEMBL493007

>  <Molecule Name>  (142) 
nan

>  <Molecular Weight>  (142) 
478.62

>  <AlogP>  (142) 
3.92

>  <Smiles>  (142) 
CC(C)(O)Cn1/c(=N/C(=O)c2ccc(-c3cn[nH]c3)s2)[nH]c2cc(CN3CCCCC3)ccc21

>  <Standard Type>  (142) 
IC50

>  <Standard Relation>  (142) 
'='

>  <Standard Units>  (142) 
nM

>  <Standard Value>  (142) 
3.0

>  <Assay ChEMBL ID>  (142) 
CHEMBL1018826

>  <Assay Description>  (142) 
Binding affinity to ITK by DELFIA-based molecular assay

>  <BAO Format ID>  (142) 
BAO_0000357

>  <BAO Label>  (142) 
single protein format

>  <Assay Organism>  (142) 
None

>  <Target ChEMBL ID>  (142) 
CHEMBL2959

>  <Target Name>  (142) 
Tyrosine-protein kinase ITK/TSK

>  <Target Organism>  (142) 
Homo sapiens

>  <Target Type>  (142) 
SINGLE PROTEIN

>  <Document ChEMBL ID>  (142) 
CHEMBL1153328

>  <Source Description>  (142) 
Scientific Literature

>  <Document Journal>  (142) 
Bioorg Med Chem Lett

>  <Document Year>  (142) 
2009.0

>  <Active>  (142) 
1.0

$$$$

     RDKit          2D

 31 35  0  0  0  0  0  0  0  0999 V2000
   -3.7548   -2.1855    0.0000 O   0  0  0  0  0  0  0  0  0  0  0  0
   -2.6401   -3.1891    0.0000 C   0  0  0  0  0  0  0  0  0  0  0  0
   -2.9520   -4.6564    0.0000 N   0  0  0  0  0  0  0  0  0  0  0  0
   -4.3786   -5.1199    0.0000 C   0  0  0  0  0  0  0  0  0  0  0  0
   -4.8421   -6.5465    0.0000 C   0  0  0  0  0  0  0  0  0  0  0  0
   -6.3421   -6.5465    0.0000 N   0  0  0  0  0  0  0  0  0  0  0  0
   -6.8056   -5.1199    0.0000 N   0  0  0  0  0  0  0  0  0  0  0  0
   -8.2322   -4.6564    0.0000 C   0  0  0  0  0  0  0  0  0  0  0  0
   -9.3469   -5.6601    0.0000 C   0  0  0  0  0  0  0  0  0  0  0  0
  -10.7735   -5.1965    0.0000 O   0  0  0  0  0  0  0  0  0  0  0  0
   -8.5441   -3.1891    0.0000 C   0  0  0  0  0  0  0  0  0  0  0  0
   -7.4293   -2.1855    0.0000 C   0  0  0  0  0  0  0  0  0  0  0  0
   -7.7412   -0.7182    0.0000 C   0  0  0  0  0  0  0  0  0  0  0  0
   -9.1678   -0.2547    0.0000 C   0  0  0  0  0  0  0  0  0  0  0  0
  -10.2825   -1.2584    0.0000 C   0  0  0  0  0  0  0  0  0  0  0  0
   -9.9707   -2.7256    0.0000 C   0  0  0  0  0  0  0  0  0  0  0  0
   -5.5921   -4.2382    0.0000 C   0  0  0  0  0  0  0  0  0  0  0  0
   -1.2135   -2.7256    0.0000 C   0  0  0  0  0  0  0  0  0  0  0  0
   -0.0000   -3.6073    0.0000 N   0  0  0  0  0  0  0  0  0  0  0  0
    1.2135   -2.7256    0.0000 N   0  0  0  0  0  0  0  0  0  0  0  0
    0.7500   -1.2990    0.0000 C   0  0  0  0  0  0  0  0  0  0  0  0
    1.5000    0.0000    0.0000 C   0  0  0  0  0  0  0  0  0  0  0  0
    0.7500    1.2990    0.0000 C   0  0  0  0  0  0  0  0  0  0  0  0
    1.5000    2.5981    0.0000 C   0  0  0  0  0  0  0  0  0  0  0  0
    0.8899    3.9684    0.0000 C   0  0  0  0  0  0  0  0  0  0  0  0
    2.0046    4.9721    0.0000 N   0  0  0  0  0  0  0  0  0  0  0  0
    3.3037    4.2221    0.0000 N   0  0  0  0  0  0  0  0  0  0  0  0
    2.9918    2.7549    0.0000 C   0  0  0  0  0  0  0  0  0  0  0  0
   -0.7500    1.2990    0.0000 C   0  0  0  0  0  0  0  0  0  0  0  0
   -1.5000    0.0000    0.0000 C   0  0  0  0  0  0  0  0  0  0  0  0
   -0.7500   -1.2990    0.0000 C   0  0  0  0  0  0  0  0  0  0  0  0
  1  2  2  0
  2  3  1  0
  3  4  1  0
  4  5  1  0
  5  6  2  0
  6  7  1  0
  7  8  1  0
  8  9  1  6
  9 10  1  0
  8 11  1  0
 11 12  2  0
 12 13  1  0
 13 14  2  0
 14 15  1  0
 15 16  2  0
  7 17  1  0
  2 18  1  0
 18 19  2  0
 19 20  1  0
 20 21  1  0
 21 22  2  0
 22 23  1  0
 23 24  1  0
 24 25  1  0
 25 26  2  0
 26 27  1  0
 27 28  1  0
 23 29  2  0
 29 30  1  0
 30 31  2  0
 17  4  2  0
 31 18  1  0
 16 11  1  0
 31 21  1  0
 28 24  2  0
M  END
>  <Compound_ID>  (143) 
CHEMBL3263051

>  <Molecule Name>  (143) 
nan

>  <Molecular Weight>  (143) 
413.44

>  <AlogP>  (143) 
2.98

>  <Smiles>  (143) 
O=C(Nc1cnn([C@H](CO)c2ccccc2)c1)c1n[nH]c2cc(-c3cn[nH]c3)ccc12

>  <Standard Type>  (143) 
Ki

>  <Standard Relation>  (143) 
'='

>  <Standard Units>  (143) 
nM

>  <Standard Value>  (143) 
6.6

>  <Assay ChEMBL ID>  (143) 
CHEMBL3267591

>  <Assay Description>  (143) 
Inhibition of full-length ITK (unknown origin) using biotin-EQEDEPEGIYGVLF-NH2 as substrate by plate reader analysis

>  <BAO Format ID>  (143) 
BAO_0000357

>  <BAO Label>  (143) 
single protein format

>  <Assay Organism>  (143) 
Homo sapiens

>  <Target ChEMBL ID>  (143) 
CHEMBL2959

>  <Target Name>  (143) 
Tyrosine-protein kinase ITK/TSK

>  <Target Organism>  (143) 
Homo sapiens

>  <Target Type>  (143) 
SINGLE PROTEIN

>  <Document ChEMBL ID>  (143) 
CHEMBL3259776

>  <Source Description>  (143) 
Scientific Literature

>  <Document Journal>  (143) 
Bioorg Med Chem Lett

>  <Document Year>  (143) 
2014.0

>  <Active>  (143) 
1.0

$$$$

     RDKit          2D

 34 38  0  0  0  0  0  0  0  0999 V2000
    2.6491    0.9642    0.0000 C   0  0  0  0  0  0  0  0  0  0  0  0
    1.5000    0.0000    0.0000 C   0  0  0  0  0  0  0  0  0  0  0  0
    2.6491   -0.9642    0.0000 C   0  0  0  0  0  0  0  0  0  0  0  0
    0.7500   -1.2990    0.0000 C   0  0  0  0  0  0  0  0  0  0  0  0
   -0.7500   -1.2990    0.0000 C   0  0  0  0  0  0  0  0  0  0  0  0
   -1.5000    0.0000    0.0000 C   0  0  0  0  0  0  0  0  0  0  0  0
   -2.9672    0.3119    0.0000 C   0  0  0  0  0  0  0  0  0  0  0  0
   -4.0819   -0.6918    0.0000 C   0  0  0  0  0  0  0  0  0  0  0  0
   -3.7701   -2.1590    0.0000 O   0  0  0  0  0  0  0  0  0  0  0  0
   -5.5085   -0.2283    0.0000 N   0  0  0  0  0  0  0  0  0  0  0  0
   -6.6232   -1.2320    0.0000 C   0  0  0  0  0  0  0  0  0  0  0  0
   -6.4664   -2.7238    0.0000 C   0  0  0  0  0  0  0  0  0  0  0  0
   -7.8368   -3.3339    0.0000 N   0  0  0  0  0  0  0  0  0  0  0  0
   -8.8405   -2.2192    0.0000 N   0  0  0  0  0  0  0  0  0  0  0  0
  -10.3322   -2.3760    0.0000 C   0  0  0  0  0  0  0  0  0  0  0  0
  -11.2139   -1.1624    0.0000 C   0  0  0  0  0  0  0  0  0  0  0  0
  -10.6038    0.2079    0.0000 C   0  0  0  0  0  0  0  0  0  0  0  0
  -11.4855    1.4214    0.0000 C   0  0  0  0  0  0  0  0  0  0  0  0
  -12.9773    1.2646    0.0000 C   0  0  0  0  0  0  0  0  0  0  0  0
  -13.5874   -0.1057    0.0000 C   0  0  0  0  0  0  0  0  0  0  0  0
  -12.7057   -1.3192    0.0000 C   0  0  0  0  0  0  0  0  0  0  0  0
  -10.9423   -3.7463    0.0000 C   0  0  0  0  0  0  0  0  0  0  0  0
  -12.4341   -3.9031    0.0000 C   0  0  0  0  0  0  0  0  0  0  0  0
  -13.0442   -5.2734    0.0000 C   0  0  0  0  0  0  0  0  0  0  0  0
  -12.1626   -6.4869    0.0000 C   0  0  0  0  0  0  0  0  0  0  0  0
  -10.6708   -6.3301    0.0000 C   0  0  0  0  0  0  0  0  0  0  0  0
  -10.0607   -4.9598    0.0000 S   0  0  0  0  0  0  0  0  0  0  0  0
   -9.0187   -3.8808    0.0000 O   0  0  0  0  0  0  0  0  0  0  0  0
   -8.8171   -5.7986    0.0000 O   0  0  0  0  0  0  0  0  0  0  0  0
   -8.0905   -0.9201    0.0000 C   0  0  0  0  0  0  0  0  0  0  0  0
   -3.1240    1.8037    0.0000 N   0  0  0  0  0  0  0  0  0  0  0  0
   -1.7537    2.4138    0.0000 N   0  0  0  0  0  0  0  0  0  0  0  0
   -0.7500    1.2990    0.0000 C   0  0  0  0  0  0  0  0  0  0  0  0
    0.7500    1.2990    0.0000 C   0  0  0  0  0  0  0  0  0  0  0  0
  1  2  1  0
  2  3  1  0
  2  4  1  0
  4  5  1  0
  5  6  1  0
  6  7  1  0
  7  8  1  0
  8  9  2  0
  8 10  1  0
 10 11  1  0
 11 12  1  0
 12 13  2  0
 13 14  1  0
 14 15  1  0
 15 16  1  0
 16 17  2  0
 17 18  1  0
 18 19  2  0
 19 20  1  0
 20 21  2  0
 15 22  1  1
 22 23  1  0
 23 24  1  0
 24 25  1  0
 25 26  1  0
 26 27  1  0
 27 28  2  0
 27 29  2  0
 14 30  1  0
  7 31  2  0
 31 32  1  0
 32 33  1  0
 33 34  1  0
 34  2  1  0
 33  6  2  0
 30 11  2  0
 21 16  1  0
 27 22  1  0
M  END
>  <Compound_ID>  (144) 
CHEMBL3426303

>  <Molecule Name>  (144) 
nan

>  <Molecular Weight>  (144) 
481.62

>  <AlogP>  (144) 
3.93

>  <Smiles>  (144) 
CC1(C)CCc2c(C(=O)Nc3cnn([C@H](c4ccccc4)C4CCCCS4(=O)=O)c3)n[nH]c2C1

>  <Standard Type>  (144) 
Ki

>  <Standard Relation>  (144) 
'='

>  <Standard Units>  (144) 
nM

>  <Standard Value>  (144) 
0.3

>  <Assay ChEMBL ID>  (144) 
CHEMBL3428280

>  <Assay Description>  (144) 
Inhibition of GST-tagged recombinant full length human ITK using AcEFPIYDFLPAKKK-NH2 as substrate after 35 mins by Morrison plot analysis

>  <BAO Format ID>  (144) 
BAO_0000357

>  <BAO Label>  (144) 
single protein format

>  <Assay Organism>  (144) 
Homo sapiens

>  <Target ChEMBL ID>  (144) 
CHEMBL2959

>  <Target Name>  (144) 
Tyrosine-protein kinase ITK/TSK

>  <Target Organism>  (144) 
Homo sapiens

>  <Target Type>  (144) 
SINGLE PROTEIN

>  <Document ChEMBL ID>  (144) 
CHEMBL3425442

>  <Source Description>  (144) 
Scientific Literature

>  <Document Journal>  (144) 
J Med Chem

>  <Document Year>  (144) 
2015.0

>  <Active>  (144) 
1.0

$$$$

     RDKit          2D

 31 35  0  0  0  0  0  0  0  0999 V2000
   -3.7548   -2.1855    0.0000 O   0  0  0  0  0  0  0  0  0  0  0  0
   -2.6401   -3.1891    0.0000 C   0  0  0  0  0  0  0  0  0  0  0  0
   -2.9520   -4.6564    0.0000 N   0  0  0  0  0  0  0  0  0  0  0  0
   -4.3786   -5.1199    0.0000 C   0  0  0  0  0  0  0  0  0  0  0  0
   -4.8421   -6.5465    0.0000 C   0  0  0  0  0  0  0  0  0  0  0  0
   -6.3421   -6.5465    0.0000 N   0  0  0  0  0  0  0  0  0  0  0  0
   -6.8056   -5.1199    0.0000 N   0  0  0  0  0  0  0  0  0  0  0  0
   -8.2322   -4.6564    0.0000 C   0  0  0  0  0  0  0  0  0  0  0  0
   -9.3469   -5.6601    0.0000 C   0  0  0  0  0  0  0  0  0  0  0  0
  -10.7735   -5.1965    0.0000 O   0  0  0  0  0  0  0  0  0  0  0  0
   -8.5441   -3.1891    0.0000 C   0  0  0  0  0  0  0  0  0  0  0  0
   -7.4293   -2.1855    0.0000 C   0  0  0  0  0  0  0  0  0  0  0  0
   -7.7412   -0.7182    0.0000 C   0  0  0  0  0  0  0  0  0  0  0  0
   -9.1678   -0.2547    0.0000 C   0  0  0  0  0  0  0  0  0  0  0  0
  -10.2825   -1.2584    0.0000 C   0  0  0  0  0  0  0  0  0  0  0  0
   -9.9707   -2.7256    0.0000 C   0  0  0  0  0  0  0  0  0  0  0  0
   -5.5921   -4.2382    0.0000 C   0  0  0  0  0  0  0  0  0  0  0  0
   -1.2135   -2.7256    0.0000 C   0  0  0  0  0  0  0  0  0  0  0  0
   -0.0000   -3.6073    0.0000 N   0  0  0  0  0  0  0  0  0  0  0  0
    1.2135   -2.7256    0.0000 N   0  0  0  0  0  0  0  0  0  0  0  0
    0.7500   -1.2990    0.0000 C   0  0  0  0  0  0  0  0  0  0  0  0
    1.5000    0.0000    0.0000 C   0  0  0  0  0  0  0  0  0  0  0  0
    0.7500    1.2990    0.0000 C   0  0  0  0  0  0  0  0  0  0  0  0
    1.5000    2.5981    0.0000 C   0  0  0  0  0  0  0  0  0  0  0  0
    0.8899    3.9684    0.0000 C   0  0  0  0  0  0  0  0  0  0  0  0
    2.0046    4.9721    0.0000 N   0  0  0  0  0  0  0  0  0  0  0  0
    3.3037    4.2221    0.0000 N   0  0  0  0  0  0  0  0  0  0  0  0
    2.9918    2.7549    0.0000 C   0  0  0  0  0  0  0  0  0  0  0  0
   -0.7500    1.2990    0.0000 C   0  0  0  0  0  0  0  0  0  0  0  0
   -1.5000    0.0000    0.0000 C   0  0  0  0  0  0  0  0  0  0  0  0
   -0.7500   -1.2990    0.0000 C   0  0  0  0  0  0  0  0  0  0  0  0
  1  2  2  0
  2  3  1  0
  3  4  1  0
  4  5  1  0
  5  6  2  0
  6  7  1  0
  7  8  1  0
  8  9  1  1
  9 10  1  0
  8 11  1  0
 11 12  2  0
 12 13  1  0
 13 14  2  0
 14 15  1  0
 15 16  2  0
  7 17  1  0
  2 18  1  0
 18 19  2  0
 19 20  1  0
 20 21  1  0
 21 22  2  0
 22 23  1  0
 23 24  1  0
 24 25  1  0
 25 26  2  0
 26 27  1  0
 27 28  1  0
 23 29  2  0
 29 30  1  0
 30 31  2  0
 17  4  2  0
 31 18  1  0
 16 11  1  0
 31 21  1  0
 28 24  2  0
M  END
>  <Compound_ID>  (145) 
CHEMBL3263050

>  <Molecule Name>  (145) 
nan

>  <Molecular Weight>  (145) 
413.44

>  <AlogP>  (145) 
2.98

>  <Smiles>  (145) 
O=C(Nc1cnn([C@@H](CO)c2ccccc2)c1)c1n[nH]c2cc(-c3cn[nH]c3)ccc12

>  <Standard Type>  (145) 
Ki

>  <Standard Relation>  (145) 
'='

>  <Standard Units>  (145) 
nM

>  <Standard Value>  (145) 
0.56

>  <Assay ChEMBL ID>  (145) 
CHEMBL3267591

>  <Assay Description>  (145) 
Inhibition of full-length ITK (unknown origin) using biotin-EQEDEPEGIYGVLF-NH2 as substrate by plate reader analysis

>  <BAO Format ID>  (145) 
BAO_0000357

>  <BAO Label>  (145) 
single protein format

>  <Assay Organism>  (145) 
Homo sapiens

>  <Target ChEMBL ID>  (145) 
CHEMBL2959

>  <Target Name>  (145) 
Tyrosine-protein kinase ITK/TSK

>  <Target Organism>  (145) 
Homo sapiens

>  <Target Type>  (145) 
SINGLE PROTEIN

>  <Document ChEMBL ID>  (145) 
CHEMBL3259776

>  <Source Description>  (145) 
Scientific Literature

>  <Document Journal>  (145) 
Bioorg Med Chem Lett

>  <Document Year>  (145) 
2014.0

>  <Active>  (145) 
1.0

$$$$

     RDKit          2D

 35 38  0  0  0  0  0  0  0  0999 V2000
    8.2500   -6.4952    0.0000 C   0  0  0  0  0  0  0  0  0  0  0  0
    7.5000   -5.1962    0.0000 C   0  0  0  0  0  0  0  0  0  0  0  0
    6.0000   -5.1962    0.0000 C   0  0  0  0  0  0  0  0  0  0  0  0
    5.2500   -6.4952    0.0000 O   0  0  0  0  0  0  0  0  0  0  0  0
    5.2500   -3.8971    0.0000 N   0  0  0  0  0  0  0  0  0  0  0  0
    3.7500   -3.8971    0.0000 C   0  0  0  0  0  0  0  0  0  0  0  0
    3.0000   -5.1962    0.0000 C   0  0  0  0  0  0  0  0  0  0  0  0
    1.5000   -5.1962    0.0000 C   0  0  0  0  0  0  0  0  0  0  0  0
    0.7500   -3.8971    0.0000 C   0  0  0  0  0  0  0  0  0  0  0  0
    1.5000   -2.5981    0.0000 C   0  0  0  0  0  0  0  0  0  0  0  0
    0.7500   -1.2990    0.0000 C   0  0  0  0  0  0  0  0  0  0  0  0
    1.5000    0.0000    0.0000 C   0  0  0  0  0  0  0  0  0  0  0  0
    0.7500    1.2990    0.0000 N   0  0  0  0  0  0  0  0  0  0  0  0
   -0.7500    1.2990    0.0000 C   0  0  0  0  0  0  0  0  0  0  0  0
   -1.7537    2.4138    0.0000 N   0  0  0  0  0  0  0  0  0  0  0  0
   -3.1240    1.8037    0.0000 C   0  0  0  0  0  0  0  0  0  0  0  0
   -2.9672    0.3119    0.0000 C   0  0  0  0  0  0  0  0  0  0  0  0
   -4.0819   -0.6918    0.0000 C   0  0  0  0  0  0  0  0  0  0  0  0
   -5.5085   -0.2283    0.0000 C   0  0  0  0  0  0  0  0  0  0  0  0
   -6.6232   -1.2320    0.0000 C   0  0  0  0  0  0  0  0  0  0  0  0
   -6.3114   -2.6992    0.0000 C   0  0  0  0  0  0  0  0  0  0  0  0
   -4.8848   -3.1627    0.0000 C   0  0  0  0  0  0  0  0  0  0  0  0
   -4.5729   -4.6300    0.0000 S   0  0  0  0  0  0  0  0  0  0  0  0
   -6.0401   -4.9418    0.0000 O   0  0  0  0  0  0  0  0  0  0  0  0
   -3.1057   -4.3181    0.0000 O   0  0  0  0  0  0  0  0  0  0  0  0
   -4.2611   -6.0972    0.0000 N   0  0  0  0  0  0  0  0  0  0  0  0
   -2.8345   -6.5607    0.0000 C   0  0  0  0  0  0  0  0  0  0  0  0
   -5.3758   -7.1009    0.0000 C   0  0  0  0  0  0  0  0  0  0  0  0
   -4.3721   -8.2156    0.0000 C   0  0  0  0  0  0  0  0  0  0  0  0
   -6.3795   -5.9862    0.0000 C   0  0  0  0  0  0  0  0  0  0  0  0
   -6.4905   -8.1046    0.0000 C   0  0  0  0  0  0  0  0  0  0  0  0
   -3.7701   -2.1590    0.0000 C   0  0  0  0  0  0  0  0  0  0  0  0
   -1.5000    0.0000    0.0000 C   0  0  0  0  0  0  0  0  0  0  0  0
   -0.7500   -1.2990    0.0000 C   0  0  0  0  0  0  0  0  0  0  0  0
    3.0000   -2.5981    0.0000 C   0  0  0  0  0  0  0  0  0  0  0  0
  1  2  2  0
  2  3  1  0
  3  4  2  0
  3  5  1  0
  5  6  1  0
  6  7  2  0
  7  8  1  0
  8  9  2  0
  9 10  1  0
 10 11  1  0
 11 12  2  0
 12 13  1  0
 13 14  2  0
 14 15  1  0
 15 16  1  0
 16 17  2  0
 17 18  1  0
 18 19  2  0
 19 20  1  0
 20 21  2  0
 21 22  1  0
 22 23  1  0
 23 24  2  0
 23 25  2  0
 23 26  1  0
 26 27  1  0
 26 28  1  0
 28 29  1  0
 28 30  1  0
 28 31  1  0
 22 32  2  0
 17 33  1  0
 33 34  2  0
 10 35  2  0
 35  6  1  0
 34 11  1  0
 33 14  1  0
 32 18  1  0
M  END
>  <Compound_ID>  (146) 
CHEMBL3917327

>  <Molecule Name>  (146) 
nan

>  <Molecular Weight>  (146) 
488.61

>  <AlogP>  (146) 
5.44

>  <Smiles>  (146) 
C=CC(=O)Nc1cccc(-c2cnc3[nH]cc(-c4cccc(S(=O)(=O)N(C)C(C)(C)C)c4)c3c2)c1

>  <Standard Type>  (146) 
IC50

>  <Standard Relation>  (146) 
'='

>  <Standard Units>  (146) 
nM

>  <Standard Value>  (146) 
35.0

>  <Assay ChEMBL ID>  (146) 
CHEMBL3887687

>  <Assay Description>  (146) 
Biochemical Inhibition Assay: 1H-pyrrolo[2,3-b]pyridine, 1H-pyrazolo[3,4-b]pyridine and 5H-pyrrolo[2,3-b]pyrazine series of compounds exhibited over >100 fold selective against Janus and TEC family of kinases except for the BMX and TXK it had activity of 30 and 45 nM respectively.

>  <BAO Format ID>  (146) 
BAO_0000357

>  <BAO Label>  (146) 
single protein format

>  <Assay Organism>  (146) 
Homo sapiens

>  <Target ChEMBL ID>  (146) 
CHEMBL2959

>  <Target Name>  (146) 
Tyrosine-protein kinase ITK/TSK

>  <Target Organism>  (146) 
Homo sapiens

>  <Target Type>  (146) 
SINGLE PROTEIN

>  <Document ChEMBL ID>  (146) 
CHEMBL3886406

>  <Source Description>  (146) 
BindingDB Database

>  <Document Journal>  (146) 
nan

>  <Document Year>  (146) 
2015.0

>  <Active>  (146) 
1.0

$$$$

     RDKit          2D

 22 24  0  0  0  0  0  0  0  0999 V2000
   -3.0000   -7.7942    0.0000 C   0  0  0  0  0  0  0  0  0  0  0  0
   -1.5000   -7.7942    0.0000 C   0  0  0  0  0  0  0  0  0  0  0  0
   -0.7500   -6.4952    0.0000 C   0  0  0  0  0  0  0  0  0  0  0  0
   -1.5000   -5.1962    0.0000 O   0  0  0  0  0  0  0  0  0  0  0  0
    0.7500   -6.4952    0.0000 N   0  0  0  0  0  0  0  0  0  0  0  0
    1.5000   -5.1962    0.0000 C   0  0  0  0  0  0  0  0  0  0  0  0
    0.7500   -3.8971    0.0000 C   0  0  0  0  0  0  0  0  0  0  0  0
    1.5000   -2.5981    0.0000 C   0  0  0  0  0  0  0  0  0  0  0  0
    0.7500   -1.2990    0.0000 C   0  0  0  0  0  0  0  0  0  0  0  0
    1.5000    0.0000    0.0000 C   0  0  0  0  0  0  0  0  0  0  0  0
    0.7500    1.2990    0.0000 N   0  0  0  0  0  0  0  0  0  0  0  0
   -0.7500    1.2990    0.0000 C   0  0  0  0  0  0  0  0  0  0  0  0
   -1.7537    2.4138    0.0000 N   0  0  0  0  0  0  0  0  0  0  0  0
   -3.1240    1.8037    0.0000 C   0  0  0  0  0  0  0  0  0  0  0  0
   -2.9672    0.3119    0.0000 C   0  0  0  0  0  0  0  0  0  0  0  0
   -4.0819   -0.6918    0.0000 Cl  0  0  0  0  0  0  0  0  0  0  0  0
   -1.5000    0.0000    0.0000 C   0  0  0  0  0  0  0  0  0  0  0  0
   -0.7500   -1.2990    0.0000 C   0  0  0  0  0  0  0  0  0  0  0  0
    3.0000   -2.5981    0.0000 C   0  0  0  0  0  0  0  0  0  0  0  0
    3.7500   -3.8971    0.0000 C   0  0  0  0  0  0  0  0  0  0  0  0
    3.0000   -5.1962    0.0000 C   0  0  0  0  0  0  0  0  0  0  0  0
    3.7500   -6.4952    0.0000 F   0  0  0  0  0  0  0  0  0  0  0  0
  1  2  2  0
  2  3  1  0
  3  4  2  0
  3  5  1  0
  5  6  1  0
  6  7  2  0
  7  8  1  0
  8  9  1  0
  9 10  2  0
 10 11  1  0
 11 12  2  0
 12 13  1  0
 13 14  1  0
 14 15  2  0
 15 16  1  0
 15 17  1  0
 17 18  2  0
  8 19  2  0
 19 20  1  0
 20 21  2  0
 21 22  1  0
 21  6  1  0
 18  9  1  0
 17 12  1  0
M  END
>  <Compound_ID>  (147) 
CHEMBL3907847

>  <Molecule Name>  (147) 
nan

>  <Molecular Weight>  (147) 
315.74

>  <AlogP>  (147) 
4.15

>  <Smiles>  (147) 
C=CC(=O)Nc1cc(-c2cnc3[nH]cc(Cl)c3c2)ccc1F

>  <Standard Type>  (147) 
IC50

>  <Standard Relation>  (147) 
'='

>  <Standard Units>  (147) 
nM

>  <Standard Value>  (147) 
30.0

>  <Assay ChEMBL ID>  (147) 
CHEMBL3887687

>  <Assay Description>  (147) 
Biochemical Inhibition Assay: 1H-pyrrolo[2,3-b]pyridine, 1H-pyrazolo[3,4-b]pyridine and 5H-pyrrolo[2,3-b]pyrazine series of compounds exhibited over >100 fold selective against Janus and TEC family of kinases except for the BMX and TXK it had activity of 30 and 45 nM respectively.

>  <BAO Format ID>  (147) 
BAO_0000357

>  <BAO Label>  (147) 
single protein format

>  <Assay Organism>  (147) 
Homo sapiens

>  <Target ChEMBL ID>  (147) 
CHEMBL2959

>  <Target Name>  (147) 
Tyrosine-protein kinase ITK/TSK

>  <Target Organism>  (147) 
Homo sapiens

>  <Target Type>  (147) 
SINGLE PROTEIN

>  <Document ChEMBL ID>  (147) 
CHEMBL3886406

>  <Source Description>  (147) 
BindingDB Database

>  <Document Journal>  (147) 
nan

>  <Document Year>  (147) 
2015.0

>  <Active>  (147) 
1.0

$$$$

     RDKit          2D

 31 34  0  0  0  0  0  0  0  0999 V2000
    8.2500   -6.4952    0.0000 C   0  0  0  0  0  0  0  0  0  0  0  0
    7.5000   -5.1962    0.0000 C   0  0  0  0  0  0  0  0  0  0  0  0
    6.0000   -5.1962    0.0000 C   0  0  0  0  0  0  0  0  0  0  0  0
    5.2500   -6.4952    0.0000 O   0  0  0  0  0  0  0  0  0  0  0  0
    5.2500   -3.8971    0.0000 N   0  0  0  0  0  0  0  0  0  0  0  0
    3.7500   -3.8971    0.0000 C   0  0  0  0  0  0  0  0  0  0  0  0
    3.0000   -5.1962    0.0000 C   0  0  0  0  0  0  0  0  0  0  0  0
    1.5000   -5.1962    0.0000 C   0  0  0  0  0  0  0  0  0  0  0  0
    0.7500   -3.8971    0.0000 C   0  0  0  0  0  0  0  0  0  0  0  0
    1.5000   -2.5981    0.0000 C   0  0  0  0  0  0  0  0  0  0  0  0
    0.7500   -1.2990    0.0000 C   0  0  0  0  0  0  0  0  0  0  0  0
    1.5000    0.0000    0.0000 C   0  0  0  0  0  0  0  0  0  0  0  0
    0.7500    1.2990    0.0000 N   0  0  0  0  0  0  0  0  0  0  0  0
   -0.7500    1.2990    0.0000 C   0  0  0  0  0  0  0  0  0  0  0  0
   -1.7537    2.4138    0.0000 N   0  0  0  0  0  0  0  0  0  0  0  0
   -3.1240    1.8037    0.0000 C   0  0  0  0  0  0  0  0  0  0  0  0
   -2.9672    0.3119    0.0000 C   0  0  0  0  0  0  0  0  0  0  0  0
   -4.0819   -0.6918    0.0000 C   0  0  0  0  0  0  0  0  0  0  0  0
   -5.5085   -0.2283    0.0000 C   0  0  0  0  0  0  0  0  0  0  0  0
   -6.6232   -1.2320    0.0000 C   0  0  0  0  0  0  0  0  0  0  0  0
   -6.3114   -2.6992    0.0000 C   0  0  0  0  0  0  0  0  0  0  0  0
   -4.8848   -3.1627    0.0000 C   0  0  0  0  0  0  0  0  0  0  0  0
   -4.5729   -4.6300    0.0000 C   0  0  0  0  0  0  0  0  0  0  0  0
   -3.1463   -5.0935    0.0000 O   0  0  0  0  0  0  0  0  0  0  0  0
   -5.6876   -5.6337    0.0000 O   0  0  0  0  0  0  0  0  0  0  0  0
   -5.3758   -7.1009    0.0000 C   0  0  0  0  0  0  0  0  0  0  0  0
   -6.4905   -8.1046    0.0000 C   0  0  0  0  0  0  0  0  0  0  0  0
   -3.7701   -2.1590    0.0000 C   0  0  0  0  0  0  0  0  0  0  0  0
   -1.5000    0.0000    0.0000 C   0  0  0  0  0  0  0  0  0  0  0  0
   -0.7500   -1.2990    0.0000 C   0  0  0  0  0  0  0  0  0  0  0  0
    3.0000   -2.5981    0.0000 C   0  0  0  0  0  0  0  0  0  0  0  0
  1  2  2  0
  2  3  1  0
  3  4  2  0
  3  5  1  0
  5  6  1  0
  6  7  2  0
  7  8  1  0
  8  9  2  0
  9 10  1  0
 10 11  1  0
 11 12  2  0
 12 13  1  0
 13 14  2  0
 14 15  1  0
 15 16  1  0
 16 17  2  0
 17 18  1  0
 18 19  2  0
 19 20  1  0
 20 21  2  0
 21 22  1  0
 22 23  1  0
 23 24  2  0
 23 25  1  0
 25 26  1  0
 26 27  1  0
 22 28  2  0
 17 29  1  0
 29 30  2  0
 10 31  2  0
 31  6  1  0
 30 11  1  0
 29 14  1  0
 28 18  1  0
M  END
>  <Compound_ID>  (148) 
CHEMBL3918545

>  <Molecule Name>  (148) 
nan

>  <Molecular Weight>  (148) 
411.46

>  <AlogP>  (148) 
5.20

>  <Smiles>  (148) 
C=CC(=O)Nc1cccc(-c2cnc3[nH]cc(-c4cccc(C(=O)OCC)c4)c3c2)c1

>  <Standard Type>  (148) 
IC50

>  <Standard Relation>  (148) 
'='

>  <Standard Units>  (148) 
nM

>  <Standard Value>  (148) 
30.0

>  <Assay ChEMBL ID>  (148) 
CHEMBL3887687

>  <Assay Description>  (148) 
Biochemical Inhibition Assay: 1H-pyrrolo[2,3-b]pyridine, 1H-pyrazolo[3,4-b]pyridine and 5H-pyrrolo[2,3-b]pyrazine series of compounds exhibited over >100 fold selective against Janus and TEC family of kinases except for the BMX and TXK it had activity of 30 and 45 nM respectively.

>  <BAO Format ID>  (148) 
BAO_0000357

>  <BAO Label>  (148) 
single protein format

>  <Assay Organism>  (148) 
Homo sapiens

>  <Target ChEMBL ID>  (148) 
CHEMBL2959

>  <Target Name>  (148) 
Tyrosine-protein kinase ITK/TSK

>  <Target Organism>  (148) 
Homo sapiens

>  <Target Type>  (148) 
SINGLE PROTEIN

>  <Document ChEMBL ID>  (148) 
CHEMBL3886406

>  <Source Description>  (148) 
BindingDB Database

>  <Document Journal>  (148) 
nan

>  <Document Year>  (148) 
2015.0

>  <Active>  (148) 
1.0

$$$$

     RDKit          2D

 34 37  0  0  0  0  0  0  0  0999 V2000
   -1.8244  -10.7223    0.0000 C   0  0  0  0  0  0  0  0  0  0  0  0
   -0.3326  -10.8791    0.0000 C   0  0  0  0  0  0  0  0  0  0  0  0
    0.5490   -9.6656    0.0000 C   0  0  0  0  0  0  0  0  0  0  0  0
    2.0490   -9.6656    0.0000 C   0  0  0  0  0  0  0  0  0  0  0  0
    2.5126   -8.2390    0.0000 C   0  0  0  0  0  0  0  0  0  0  0  0
    1.2990   -7.3573    0.0000 C   0  0  0  0  0  0  0  0  0  0  0  0
    1.2990   -5.8573    0.0000 C   0  0  0  0  0  0  0  0  0  0  0  0
    2.5981   -5.1073    0.0000 O   0  0  0  0  0  0  0  0  0  0  0  0
   -0.0000   -5.1073    0.0000 N   0  0  0  0  0  0  0  0  0  0  0  0
   -0.0000   -3.6073    0.0000 C   0  0  0  0  0  0  0  0  0  0  0  0
    1.2135   -2.7256    0.0000 N   0  0  0  0  0  0  0  0  0  0  0  0
    0.7500   -1.2990    0.0000 C   0  0  0  0  0  0  0  0  0  0  0  0
    1.5000    0.0000    0.0000 C   0  0  0  0  0  0  0  0  0  0  0  0
    0.7500    1.2990    0.0000 C   0  0  0  0  0  0  0  0  0  0  0  0
    1.5000    2.5981    0.0000 N   0  0  0  0  0  0  0  0  0  0  0  0
    3.0000    2.5981    0.0000 C   0  0  0  0  0  0  0  0  0  0  0  0
    0.7500    3.8971    0.0000 C   0  0  0  0  0  0  0  0  0  0  0  0
   -0.7500    3.8971    0.0000 O   0  0  0  0  0  0  0  0  0  0  0  0
    1.5000    5.1962    0.0000 C   0  0  0  0  0  0  0  0  0  0  0  0
    3.0000    5.1962    0.0000 C   0  0  0  0  0  0  0  0  0  0  0  0
    3.7500    6.4952    0.0000 C   0  0  0  0  0  0  0  0  0  0  0  0
    3.0000    7.7942    0.0000 C   0  0  0  0  0  0  0  0  0  0  0  0
    1.5000    7.7942    0.0000 C   0  0  0  0  0  0  0  0  0  0  0  0
    0.7500    6.4952    0.0000 C   0  0  0  0  0  0  0  0  0  0  0  0
   -0.7500    1.2990    0.0000 C   0  0  0  0  0  0  0  0  0  0  0  0
   -1.5000    0.0000    0.0000 C   0  0  0  0  0  0  0  0  0  0  0  0
   -0.7500   -1.2990    0.0000 C   0  0  0  0  0  0  0  0  0  0  0  0
   -1.2135   -2.7256    0.0000 N   0  0  0  0  0  0  0  0  0  0  0  0
   -2.6401   -3.1891    0.0000 C   0  0  0  0  0  0  0  0  0  0  0  0
   -3.7548   -2.1855    0.0000 C   0  0  0  0  0  0  0  0  0  0  0  0
   -5.1814   -2.6490    0.0000 C   0  0  0  0  0  0  0  0  0  0  0  0
   -6.2961   -1.6453    0.0000 N   0  0  0  0  0  0  0  0  0  0  0  0
   -5.4933   -4.1162    0.0000 O   0  0  0  0  0  0  0  0  0  0  0  0
    0.0855   -8.2390    0.0000 S   0  0  0  0  0  0  0  0  0  0  0  0
  1  2  2  0
  2  3  1  0
  3  4  2  0
  4  5  1  0
  5  6  2  0
  6  7  1  0
  7  8  2  0
  7  9  1  0
  9 10  2  0
 10 11  1  0
 11 12  1  0
 12 13  2  0
 13 14  1  0
 14 15  1  0
 15 16  1  0
 15 17  1  0
 17 18  2  0
 17 19  1  0
 19 20  2  0
 20 21  1  0
 21 22  2  0
 22 23  1  0
 23 24  2  0
 14 25  2  0
 25 26  1  0
 26 27  2  0
 27 28  1  0
 28 29  1  0
 29 30  1  0
 30 31  1  0
 31 32  1  0
 31 33  2  0
  6 34  1  0
 34  3  1  0
 28 10  1  0
 27 12  1  0
 24 19  1  0
M  END
>  <Compound_ID>  (149) 
CHEMBL487785

>  <Molecule Name>  (149) 
nan

>  <Molecular Weight>  (149) 
473.56

>  <AlogP>  (149) 
3.57

>  <Smiles>  (149) 
C=Cc1ccc(C(=O)/N=c2\[nH]c3cc(N(C)C(=O)c4ccccc4)ccc3n2CCC(N)=O)s1

>  <Standard Type>  (149) 
IC50

>  <Standard Relation>  (149) 
'='

>  <Standard Units>  (149) 
nM

>  <Standard Value>  (149) 
7.0

>  <Assay ChEMBL ID>  (149) 
CHEMBL942219

>  <Assay Description>  (149) 
Inhibition of ITK by DELPHIA

>  <BAO Format ID>  (149) 
BAO_0000357

>  <BAO Label>  (149) 
single protein format

>  <Assay Organism>  (149) 
None

>  <Target ChEMBL ID>  (149) 
CHEMBL2959

>  <Target Name>  (149) 
Tyrosine-protein kinase ITK/TSK

>  <Target Organism>  (149) 
Homo sapiens

>  <Target Type>  (149) 
SINGLE PROTEIN

>  <Document ChEMBL ID>  (149) 
CHEMBL1152261

>  <Source Description>  (149) 
Scientific Literature

>  <Document Journal>  (149) 
Bioorg Med Chem Lett

>  <Document Year>  (149) 
2008.0

>  <Active>  (149) 
1.0

$$$$

     RDKit          2D

 43 47  0  0  0  0  0  0  0  0999 V2000
    0.7500   -3.8971    0.0000 C   0  0  0  0  0  0  0  0  0  0  0  0
    1.5000   -2.5981    0.0000 N   0  0  0  0  0  0  0  0  0  0  0  0
    3.0000   -2.5981    0.0000 C   0  0  0  0  0  0  0  0  0  0  0  0
    3.7500   -1.2990    0.0000 O   0  0  0  0  0  0  0  0  0  0  0  0
    3.7500   -3.8971    0.0000 C   0  0  0  0  0  0  0  0  0  0  0  0
    3.0000   -5.1962    0.0000 C   0  0  0  0  0  0  0  0  0  0  0  0
    3.7500   -6.4952    0.0000 C   0  0  0  0  0  0  0  0  0  0  0  0
    5.2500   -6.4952    0.0000 C   0  0  0  0  0  0  0  0  0  0  0  0
    6.0000   -5.1962    0.0000 C   0  0  0  0  0  0  0  0  0  0  0  0
    5.2500   -3.8971    0.0000 C   0  0  0  0  0  0  0  0  0  0  0  0
    0.7500   -1.2990    0.0000 C   0  0  0  0  0  0  0  0  0  0  0  0
    1.5000    0.0000    0.0000 C   0  0  0  0  0  0  0  0  0  0  0  0
    0.7500    1.2990    0.0000 C   0  0  0  0  0  0  0  0  0  0  0  0
   -0.7500    1.2990    0.0000 C   0  0  0  0  0  0  0  0  0  0  0  0
   -1.5000    0.0000    0.0000 C   0  0  0  0  0  0  0  0  0  0  0  0
   -0.7500   -1.2990    0.0000 C   0  0  0  0  0  0  0  0  0  0  0  0
   -2.9672    0.3119    0.0000 N   0  0  0  0  0  0  0  0  0  0  0  0
   -3.1240    1.8037    0.0000 C   0  0  0  0  0  0  0  0  0  0  0  0
   -4.4231    2.5537    0.0000 N   0  0  0  0  0  0  0  0  0  0  0  0
   -5.7221    1.8037    0.0000 C   0  0  0  0  0  0  0  0  0  0  0  0
   -5.7221    0.3037    0.0000 O   0  0  0  0  0  0  0  0  0  0  0  0
   -7.0211    2.5537    0.0000 C   0  0  0  0  0  0  0  0  0  0  0  0
   -8.3914    1.9435    0.0000 C   0  0  0  0  0  0  0  0  0  0  0  0
   -9.3951    3.0583    0.0000 C   0  0  0  0  0  0  0  0  0  0  0  0
   -8.6451    4.3573    0.0000 C   0  0  0  0  0  0  0  0  0  0  0  0
   -9.2552    5.7276    0.0000 C   0  0  0  0  0  0  0  0  0  0  0  0
  -10.7470    5.8844    0.0000 C   0  0  0  0  0  0  0  0  0  0  0  0
  -11.3571    7.2547    0.0000 C   0  0  0  0  0  0  0  0  0  0  0  0
  -10.4755    8.4683    0.0000 C   0  0  0  0  0  0  0  0  0  0  0  0
  -11.0856    9.8386    0.0000 C   0  0  0  0  0  0  0  0  0  0  0  0
  -12.5773    9.9954    0.0000 C   0  0  0  0  0  0  0  0  0  0  0  0
  -13.4590    8.7818    0.0000 C   0  0  0  0  0  0  0  0  0  0  0  0
  -14.9508    8.9386    0.0000 N   0  0  0  0  0  4  0  0  0  0  0  0
  -15.8325    7.7251    0.0000 O   0  0  0  0  0  0  0  0  0  0  0  0
  -15.5609   10.3090    0.0000 O   0  0  0  0  0  1  0  0  0  0  0  0
  -12.8489    7.4115    0.0000 C   0  0  0  0  0  0  0  0  0  0  0  0
   -7.1779    4.0454    0.0000 S   0  0  0  0  0  0  0  0  0  0  0  0
   -1.7537    2.4138    0.0000 N   0  0  0  0  0  0  0  0  0  0  0  0
   -1.4418    3.8810    0.0000 C   0  0  0  0  0  0  0  0  0  0  0  0
   -0.0152    4.3445    0.0000 C   0  0  0  0  0  0  0  0  0  0  0  0
    0.2966    5.8117    0.0000 C   0  0  0  0  0  0  0  0  0  0  0  0
    1.7232    6.2752    0.0000 N   0  0  0  0  0  0  0  0  0  0  0  0
   -0.8181    6.8154    0.0000 O   0  0  0  0  0  0  0  0  0  0  0  0
  1  2  1  0
  2  3  1  0
  3  4  2  0
  3  5  1  0
  5  6  2  0
  6  7  1  0
  7  8  2  0
  8  9  1  0
  9 10  2  0
  2 11  1  0
 11 12  2  0
 12 13  1  0
 13 14  2  0
 14 15  1  0
 15 16  2  0
 15 17  1  0
 17 18  1  0
 18 19  2  0
 19 20  1  0
 20 21  2  0
 20 22  1  0
 22 23  2  0
 23 24  1  0
 24 25  2  0
 25 26  1  0
 26 27  2  0
 27 28  1  0
 28 29  2  0
 29 30  1  0
 30 31  2  0
 31 32  1  0
 32 33  1  0
 33 34  2  0
 33 35  1  0
 32 36  2  0
 25 37  1  0
 18 38  1  0
 38 39  1  0
 39 40  1  0
 40 41  1  0
 41 42  1  0
 41 43  2  0
 10  5  1  0
 16 11  1  0
 37 22  1  0
 38 14  1  0
 36 28  1  0
M  CHG  2  33   1  35  -1
M  END
>  <Compound_ID>  (150) 
CHEMBL500583

>  <Molecule Name>  (150) 
nan

>  <Molecular Weight>  (150) 
594.65

>  <AlogP>  (150) 
5.00

>  <Smiles>  (150) 
CN(C(=O)c1ccccc1)c1ccc2c(c1)[nH]/c(=N\C(=O)c1ccc(/C=C/c3cccc([N+](=O)[O-])c3)s1)n2CCC(N)=O

>  <Standard Type>  (150) 
IC50

>  <Standard Relation>  (150) 
'='

>  <Standard Units>  (150) 
nM

>  <Standard Value>  (150) 
42.0

>  <Assay ChEMBL ID>  (150) 
CHEMBL942219

>  <Assay Description>  (150) 
Inhibition of ITK by DELPHIA

>  <BAO Format ID>  (150) 
BAO_0000357

>  <BAO Label>  (150) 
single protein format

>  <Assay Organism>  (150) 
None

>  <Target ChEMBL ID>  (150) 
CHEMBL2959

>  <Target Name>  (150) 
Tyrosine-protein kinase ITK/TSK

>  <Target Organism>  (150) 
Homo sapiens

>  <Target Type>  (150) 
SINGLE PROTEIN

>  <Document ChEMBL ID>  (150) 
CHEMBL1152261

>  <Source Description>  (150) 
Scientific Literature

>  <Document Journal>  (150) 
Bioorg Med Chem Lett

>  <Document Year>  (150) 
2008.0

>  <Active>  (150) 
1.0

$$$$

     RDKit          2D

 35 40  0  0  0  0  0  0  0  0999 V2000
  -10.2497   -1.4504    0.0000 C   0  0  0  0  0  0  0  0  0  0  0  0
   -8.8231   -1.9139    0.0000 C   0  0  0  0  0  0  0  0  0  0  0  0
   -8.5112   -3.3811    0.0000 C   0  0  0  0  0  0  0  0  0  0  0  0
   -9.6260   -4.3848    0.0000 O   0  0  0  0  0  0  0  0  0  0  0  0
   -7.0847   -3.8447    0.0000 N   0  0  0  0  0  0  0  0  0  0  0  0
   -6.6211   -5.2713    0.0000 C   0  0  0  0  0  0  0  0  0  0  0  0
   -5.1211   -5.2713    0.0000 C   0  0  0  0  0  0  0  0  0  0  0  0
   -4.6576   -3.8447    0.0000 C   0  0  0  0  0  0  0  0  0  0  0  0
   -5.8711   -2.9630    0.0000 C   0  0  0  0  0  0  0  0  0  0  0  0
   -3.3211   -4.5257    0.0000 C   0  0  0  0  0  0  0  0  0  0  0  0
   -2.6401   -3.1891    0.0000 C   0  0  0  0  0  0  0  0  0  0  0  0
   -1.2135   -2.7256    0.0000 N   0  0  0  0  0  0  0  0  0  0  0  0
   -0.0000   -3.6073    0.0000 C   0  0  0  0  0  0  0  0  0  0  0  0
   -0.0000   -5.1073    0.0000 N   0  0  0  0  0  0  0  0  0  0  0  0
   -1.2990   -5.8573    0.0000 C   0  0  0  0  0  0  0  0  0  0  0  0
   -2.5981   -5.1073    0.0000 O   0  0  0  0  0  0  0  0  0  0  0  0
   -1.2990   -7.3573    0.0000 C   0  0  0  0  0  0  0  0  0  0  0  0
   -0.0855   -8.2390    0.0000 C   0  0  0  0  0  0  0  0  0  0  0  0
   -0.5490   -9.6656    0.0000 C   0  0  0  0  0  0  0  0  0  0  0  0
   -2.0490   -9.6656    0.0000 C   0  0  0  0  0  0  0  0  0  0  0  0
   -2.9307  -10.8791    0.0000 C   0  0  0  0  0  0  0  0  0  0  0  0
   -2.4672  -12.3057    0.0000 C   0  0  0  0  0  0  0  0  0  0  0  0
   -3.6807  -13.1874    0.0000 N   0  0  0  0  0  0  0  0  0  0  0  0
   -4.8942  -12.3057    0.0000 C   0  0  0  0  0  0  0  0  0  0  0  0
   -4.4307  -10.8791    0.0000 O   0  0  0  0  0  0  0  0  0  0  0  0
   -2.5126   -8.2390    0.0000 S   0  0  0  0  0  0  0  0  0  0  0  0
    1.2135   -2.7256    0.0000 N   0  0  0  0  0  0  0  0  0  0  0  0
    0.7500   -1.2990    0.0000 C   0  0  0  0  0  0  0  0  0  0  0  0
    1.5000    0.0000    0.0000 C   0  0  0  0  0  0  0  0  0  0  0  0
    0.7500    1.2990    0.0000 C   0  0  0  0  0  0  0  0  0  0  0  0
    1.5000    2.5981    0.0000 F   0  0  0  0  0  0  0  0  0  0  0  0
   -0.7500    1.2990    0.0000 C   0  0  0  0  0  0  0  0  0  0  0  0
   -1.5000    0.0000    0.0000 C   0  0  0  0  0  0  0  0  0  0  0  0
   -0.7500   -1.2990    0.0000 C   0  0  0  0  0  0  0  0  0  0  0  0
   -3.9766   -2.5082    0.0000 C   0  0  0  0  0  0  0  0  0  0  0  0
  1  2  2  0
  2  3  1  0
  3  4  2  0
  3  5  1  0
  5  6  1  0
  6  7  1  0
  8  7  1  1
  8  9  1  0
  8 10  1  0
 10 11  1  0
 11 12  1  1
 12 13  1  0
 13 14  1  0
 14 15  1  0
 15 16  2  0
 15 17  1  0
 17 18  2  0
 18 19  1  0
 19 20  2  0
 20 21  1  0
 21 22  2  0
 22 23  1  0
 23 24  2  0
 24 25  1  0
 20 26  1  0
 13 27  2  0
 27 28  1  0
 28 29  2  0
 29 30  1  0
 30 31  1  0
 30 32  2  0
 32 33  1  0
 33 34  2  0
 11 35  1  0
  9  5  1  0
 34 12  1  0
 35  8  1  0
 26 17  1  0
 34 28  1  0
 25 21  1  0
M  END
>  <Compound_ID>  (151) 
CHEMBL4208358

>  <Molecule Name>  (151) 
nan

>  <Molecular Weight>  (151) 
491.55

>  <AlogP>  (151) 
4.88

>  <Smiles>  (151) 
C=CC(=O)N1CC[C@]2(C1)C[C@H](n1c(NC(=O)c3ccc(-c4cnco4)s3)nc3cc(F)ccc31)C2

>  <Standard Type>  (151) 
IC50

>  <Standard Relation>  (151) 
'='

>  <Standard Units>  (151) 
nM

>  <Standard Value>  (151) 
0.99

>  <Assay ChEMBL ID>  (151) 
CHEMBL4199503

>  <Assay Description>  (151) 
Inhibition of ITK (unknown origin) using fluorescently labeled peptide as substrate after 3 hrs by microfluidic mobility shift assay

>  <BAO Format ID>  (151) 
BAO_0000357

>  <BAO Label>  (151) 
single protein format

>  <Assay Organism>  (151) 
Homo sapiens

>  <Target ChEMBL ID>  (151) 
CHEMBL2959

>  <Target Name>  (151) 
Tyrosine-protein kinase ITK/TSK

>  <Target Organism>  (151) 
Homo sapiens

>  <Target Type>  (151) 
SINGLE PROTEIN

>  <Document ChEMBL ID>  (151) 
CHEMBL4196110

>  <Source Description>  (151) 
Scientific Literature

>  <Document Journal>  (151) 
ACS Med Chem Lett

>  <Document Year>  (151) 
2018.0

>  <Active>  (151) 
1.0

$$$$

     RDKit          2D

 42 47  0  0  0  0  0  0  0  0999 V2000
  -10.2497   -1.4504    0.0000 C   0  0  0  0  0  0  0  0  0  0  0  0
   -8.8231   -1.9139    0.0000 C   0  0  0  0  0  0  0  0  0  0  0  0
   -8.5112   -3.3811    0.0000 C   0  0  0  0  0  0  0  0  0  0  0  0
   -9.6260   -4.3848    0.0000 O   0  0  0  0  0  0  0  0  0  0  0  0
   -7.0847   -3.8447    0.0000 N   0  0  0  0  0  0  0  0  0  0  0  0
   -6.6211   -5.2713    0.0000 C   0  0  0  0  0  0  0  0  0  0  0  0
   -5.1211   -5.2713    0.0000 C   0  0  0  0  0  0  0  0  0  0  0  0
   -4.6576   -3.8447    0.0000 C   0  0  0  0  0  0  0  0  0  0  0  0
   -5.8711   -2.9630    0.0000 C   0  0  0  0  0  0  0  0  0  0  0  0
   -3.3211   -4.5257    0.0000 C   0  0  0  0  0  0  0  0  0  0  0  0
   -2.6401   -3.1891    0.0000 C   0  0  0  0  0  0  0  0  0  0  0  0
   -1.2135   -2.7256    0.0000 N   0  0  0  0  0  0  0  0  0  0  0  0
   -0.0000   -3.6073    0.0000 C   0  0  0  0  0  0  0  0  0  0  0  0
   -0.0000   -5.1073    0.0000 N   0  0  0  0  0  0  0  0  0  0  0  0
   -1.2990   -5.8573    0.0000 C   0  0  0  0  0  0  0  0  0  0  0  0
   -2.5981   -5.1073    0.0000 O   0  0  0  0  0  0  0  0  0  0  0  0
   -1.2990   -7.3573    0.0000 C   0  0  0  0  0  0  0  0  0  0  0  0
   -0.0855   -8.2390    0.0000 C   0  0  0  0  0  0  0  0  0  0  0  0
   -0.5490   -9.6656    0.0000 C   0  0  0  0  0  0  0  0  0  0  0  0
   -2.0490   -9.6656    0.0000 C   0  0  0  0  0  0  0  0  0  0  0  0
   -2.9307  -10.8791    0.0000 C   0  0  0  0  0  0  0  0  0  0  0  0
   -2.4672  -12.3057    0.0000 C   0  0  0  0  0  0  0  0  0  0  0  0
   -3.6807  -13.1874    0.0000 N   0  0  0  0  0  0  0  0  0  0  0  0
   -4.8942  -12.3057    0.0000 C   0  0  0  0  0  0  0  0  0  0  0  0
   -4.4307  -10.8791    0.0000 O   0  0  0  0  0  0  0  0  0  0  0  0
   -2.5126   -8.2390    0.0000 S   0  0  0  0  0  0  0  0  0  0  0  0
    1.2135   -2.7256    0.0000 N   0  0  0  0  0  0  0  0  0  0  0  0
    0.7500   -1.2990    0.0000 C   0  0  0  0  0  0  0  0  0  0  0  0
    1.5000    0.0000    0.0000 C   0  0  0  0  0  0  0  0  0  0  0  0
    0.7500    1.2990    0.0000 C   0  0  0  0  0  0  0  0  0  0  0  0
    1.5000    2.5981    0.0000 C   0  0  0  0  0  0  0  0  0  0  0  0
    3.0000    2.5981    0.0000 N   0  0  0  0  0  0  0  0  0  0  0  0
    3.7500    3.8971    0.0000 C   0  0  0  0  0  0  0  0  0  0  0  0
    5.2500    3.8971    0.0000 C   0  0  0  0  0  0  0  0  0  0  0  0
    3.0000    5.1962    0.0000 C   0  0  0  0  0  0  0  0  0  0  0  0
    4.2990    5.9462    0.0000 C   0  0  0  0  0  0  0  0  0  0  0  0
    1.7010    4.4462    0.0000 C   0  0  0  0  0  0  0  0  0  0  0  0
    2.2500    6.4952    0.0000 C   0  0  0  0  0  0  0  0  0  0  0  0
   -0.7500    1.2990    0.0000 C   0  0  0  0  0  0  0  0  0  0  0  0
   -1.5000    0.0000    0.0000 C   0  0  0  0  0  0  0  0  0  0  0  0
   -0.7500   -1.2990    0.0000 C   0  0  0  0  0  0  0  0  0  0  0  0
   -3.9766   -2.5082    0.0000 C   0  0  0  0  0  0  0  0  0  0  0  0
  1  2  2  0
  2  3  1  0
  3  4  2  0
  3  5  1  0
  5  6  1  0
  6  7  1  0
  8  7  1  1
  8  9  1  0
  8 10  1  0
 10 11  1  0
 11 12  1  1
 12 13  1  0
 13 14  1  0
 14 15  1  0
 15 16  2  0
 15 17  1  0
 17 18  2  0
 18 19  1  0
 19 20  2  0
 20 21  1  0
 21 22  2  0
 22 23  1  0
 23 24  2  0
 24 25  1  0
 20 26  1  0
 13 27  2  0
 27 28  1  0
 28 29  2  0
 29 30  1  0
 30 31  1  0
 31 32  1  0
 32 33  1  0
 33 34  1  6
 33 35  1  0
 35 36  1  0
 35 37  1  0
 35 38  1  0
 30 39  2  0
 39 40  1  0
 40 41  2  0
 11 42  1  0
  9  5  1  0
 41 12  1  0
 42  8  1  0
 26 17  1  0
 41 28  1  0
 25 21  1  0
M  END
>  <Compound_ID>  (152) 
CHEMBL4203077

>  <Molecule Name>  (152) 
nan

>  <Molecular Weight>  (152) 
586.76

>  <AlogP>  (152) 
6.27

>  <Smiles>  (152) 
C=CC(=O)N1CC[C@]2(C1)C[C@H](n1c(NC(=O)c3ccc(-c4cnco4)s3)nc3cc(CN[C@@H](C)C(C)(C)C)ccc31)C2

>  <Standard Type>  (152) 
IC50

>  <Standard Relation>  (152) 
'='

>  <Standard Units>  (152) 
nM

>  <Standard Value>  (152) 
0.34

>  <Assay ChEMBL ID>  (152) 
CHEMBL4199503

>  <Assay Description>  (152) 
Inhibition of ITK (unknown origin) using fluorescently labeled peptide as substrate after 3 hrs by microfluidic mobility shift assay

>  <BAO Format ID>  (152) 
BAO_0000357

>  <BAO Label>  (152) 
single protein format

>  <Assay Organism>  (152) 
Homo sapiens

>  <Target ChEMBL ID>  (152) 
CHEMBL2959

>  <Target Name>  (152) 
Tyrosine-protein kinase ITK/TSK

>  <Target Organism>  (152) 
Homo sapiens

>  <Target Type>  (152) 
SINGLE PROTEIN

>  <Document ChEMBL ID>  (152) 
CHEMBL4196110

>  <Source Description>  (152) 
Scientific Literature

>  <Document Journal>  (152) 
ACS Med Chem Lett

>  <Document Year>  (152) 
2018.0

>  <Active>  (152) 
1.0

$$$$

     RDKit          2D

 34 39  0  0  0  0  0  0  0  0999 V2000
  -10.2497   -1.4504    0.0000 C   0  0  0  0  0  0  0  0  0  0  0  0
   -8.8231   -1.9139    0.0000 C   0  0  0  0  0  0  0  0  0  0  0  0
   -8.5112   -3.3811    0.0000 C   0  0  0  0  0  0  0  0  0  0  0  0
   -9.6260   -4.3848    0.0000 O   0  0  0  0  0  0  0  0  0  0  0  0
   -7.0847   -3.8447    0.0000 N   0  0  0  0  0  0  0  0  0  0  0  0
   -6.6211   -5.2713    0.0000 C   0  0  0  0  0  0  0  0  0  0  0  0
   -5.1211   -5.2713    0.0000 C   0  0  0  0  0  0  0  0  0  0  0  0
   -4.6576   -3.8447    0.0000 C   0  0  0  0  0  0  0  0  0  0  0  0
   -5.8711   -2.9630    0.0000 C   0  0  0  0  0  0  0  0  0  0  0  0
   -3.3211   -4.5257    0.0000 C   0  0  0  0  0  0  0  0  0  0  0  0
   -2.6401   -3.1891    0.0000 C   0  0  0  0  0  0  0  0  0  0  0  0
   -1.2135   -2.7256    0.0000 N   0  0  0  0  0  0  0  0  0  0  0  0
   -0.0000   -3.6073    0.0000 C   0  0  0  0  0  0  0  0  0  0  0  0
   -0.0000   -5.1073    0.0000 N   0  0  0  0  0  0  0  0  0  0  0  0
   -1.2990   -5.8573    0.0000 C   0  0  0  0  0  0  0  0  0  0  0  0
   -2.5981   -5.1073    0.0000 O   0  0  0  0  0  0  0  0  0  0  0  0
   -1.2990   -7.3573    0.0000 C   0  0  0  0  0  0  0  0  0  0  0  0
   -0.0855   -8.2390    0.0000 C   0  0  0  0  0  0  0  0  0  0  0  0
   -0.5490   -9.6656    0.0000 C   0  0  0  0  0  0  0  0  0  0  0  0
   -2.0490   -9.6656    0.0000 C   0  0  0  0  0  0  0  0  0  0  0  0
   -2.9307  -10.8791    0.0000 C   0  0  0  0  0  0  0  0  0  0  0  0
   -2.4672  -12.3057    0.0000 C   0  0  0  0  0  0  0  0  0  0  0  0
   -3.6807  -13.1874    0.0000 N   0  0  0  0  0  0  0  0  0  0  0  0
   -4.8942  -12.3057    0.0000 C   0  0  0  0  0  0  0  0  0  0  0  0
   -4.4307  -10.8791    0.0000 O   0  0  0  0  0  0  0  0  0  0  0  0
   -2.5126   -8.2390    0.0000 S   0  0  0  0  0  0  0  0  0  0  0  0
    1.2135   -2.7256    0.0000 N   0  0  0  0  0  0  0  0  0  0  0  0
    0.7500   -1.2990    0.0000 C   0  0  0  0  0  0  0  0  0  0  0  0
    1.5000    0.0000    0.0000 C   0  0  0  0  0  0  0  0  0  0  0  0
    0.7500    1.2990    0.0000 C   0  0  0  0  0  0  0  0  0  0  0  0
   -0.7500    1.2990    0.0000 C   0  0  0  0  0  0  0  0  0  0  0  0
   -1.5000    0.0000    0.0000 C   0  0  0  0  0  0  0  0  0  0  0  0
   -0.7500   -1.2990    0.0000 C   0  0  0  0  0  0  0  0  0  0  0  0
   -3.9766   -2.5082    0.0000 C   0  0  0  0  0  0  0  0  0  0  0  0
  1  2  2  0
  2  3  1  0
  3  4  2  0
  3  5  1  0
  5  6  1  0
  6  7  1  0
  8  7  1  1
  8  9  1  0
  8 10  1  0
 10 11  1  0
 11 12  1  1
 12 13  1  0
 13 14  1  0
 14 15  1  0
 15 16  2  0
 15 17  1  0
 17 18  2  0
 18 19  1  0
 19 20  2  0
 20 21  1  0
 21 22  2  0
 22 23  1  0
 23 24  2  0
 24 25  1  0
 20 26  1  0
 13 27  2  0
 27 28  1  0
 28 29  2  0
 29 30  1  0
 30 31  2  0
 31 32  1  0
 32 33  2  0
 11 34  1  0
  9  5  1  0
 33 12  1  0
 34  8  1  0
 26 17  1  0
 33 28  1  0
 25 21  1  0
M  END
>  <Compound_ID>  (153) 
CHEMBL4211372

>  <Molecule Name>  (153) 
nan

>  <Molecular Weight>  (153) 
473.56

>  <AlogP>  (153) 
4.74

>  <Smiles>  (153) 
C=CC(=O)N1CC[C@]2(C1)C[C@H](n1c(NC(=O)c3ccc(-c4cnco4)s3)nc3ccccc31)C2

>  <Standard Type>  (153) 
IC50

>  <Standard Relation>  (153) 
'='

>  <Standard Units>  (153) 
nM

>  <Standard Value>  (153) 
0.81

>  <Assay ChEMBL ID>  (153) 
CHEMBL4199503

>  <Assay Description>  (153) 
Inhibition of ITK (unknown origin) using fluorescently labeled peptide as substrate after 3 hrs by microfluidic mobility shift assay

>  <BAO Format ID>  (153) 
BAO_0000357

>  <BAO Label>  (153) 
single protein format

>  <Assay Organism>  (153) 
Homo sapiens

>  <Target ChEMBL ID>  (153) 
CHEMBL2959

>  <Target Name>  (153) 
Tyrosine-protein kinase ITK/TSK

>  <Target Organism>  (153) 
Homo sapiens

>  <Target Type>  (153) 
SINGLE PROTEIN

>  <Document ChEMBL ID>  (153) 
CHEMBL4196110

>  <Source Description>  (153) 
Scientific Literature

>  <Document Journal>  (153) 
ACS Med Chem Lett

>  <Document Year>  (153) 
2018.0

>  <Active>  (153) 
1.0

$$$$

     RDKit          2D

 32 36  0  0  0  0  0  0  0  0999 V2000
   -1.5000   -7.7942    0.0000 C   0  0  0  0  0  0  0  0  0  0  0  0
   -0.7500   -6.4952    0.0000 N   0  0  0  0  0  0  0  0  0  0  0  0
   -1.5000   -5.1962    0.0000 C   0  0  0  0  0  0  0  0  0  0  0  0
   -0.7500   -3.8971    0.0000 C   0  0  0  0  0  0  0  0  0  0  0  0
    0.7500   -3.8971    0.0000 N   0  0  0  0  0  0  0  0  0  0  0  0
    1.5000   -2.5981    0.0000 C   0  0  0  0  0  0  0  0  0  0  0  0
    3.0000   -2.5981    0.0000 O   0  0  0  0  0  0  0  0  0  0  0  0
    0.7500   -1.2990    0.0000 C   0  0  0  0  0  0  0  0  0  0  0  0
    1.5000    0.0000    0.0000 C   0  0  0  0  0  0  0  0  0  0  0  0
    0.7500    1.2990    0.0000 C   0  0  0  0  0  0  0  0  0  0  0  0
   -0.7500    1.2990    0.0000 C   0  0  0  0  0  0  0  0  0  0  0  0
   -1.5000    0.0000    0.0000 C   0  0  0  0  0  0  0  0  0  0  0  0
   -0.7500   -1.2990    0.0000 C   0  0  0  0  0  0  0  0  0  0  0  0
   -2.9672    0.3119    0.0000 N   0  0  0  0  0  0  0  0  0  0  0  0
   -3.1240    1.8037    0.0000 C   0  0  0  0  0  0  0  0  0  0  0  0
   -4.3375    2.6853    0.0000 C   0  0  0  0  0  0  0  0  0  0  0  0
   -5.7079    2.0752    0.0000 C   0  0  0  0  0  0  0  0  0  0  0  0
   -6.9214    2.9569    0.0000 N   0  0  0  0  0  0  0  0  0  0  0  0
   -5.8647    0.5834    0.0000 O   0  0  0  0  0  0  0  0  0  0  0  0
   -4.1807    4.1771    0.0000 C   0  0  0  0  0  0  0  0  0  0  0  0
   -2.8104    4.7872    0.0000 C   0  0  0  0  0  0  0  0  0  0  0  0
   -1.5969    3.9055    0.0000 C   0  0  0  0  0  0  0  0  0  0  0  0
   -0.2266    4.5156    0.0000 C   0  0  0  0  0  0  0  0  0  0  0  0
    0.9869    3.6340    0.0000 C   0  0  0  0  0  0  0  0  0  0  0  0
    2.3573    4.2441    0.0000 C   0  0  0  0  0  0  0  0  0  0  0  0
    2.5141    5.7359    0.0000 C   0  0  0  0  0  0  0  0  0  0  0  0
    1.3005    6.6175    0.0000 C   0  0  0  0  0  0  0  0  0  0  0  0
   -0.0698    6.0074    0.0000 C   0  0  0  0  0  0  0  0  0  0  0  0
   -1.2833    6.8891    0.0000 F   0  0  0  0  0  0  0  0  0  0  0  0
   -1.7537    2.4138    0.0000 C   0  0  0  0  0  0  0  0  0  0  0  0
    1.5000   -5.1962    0.0000 C   0  0  0  0  0  0  0  0  0  0  0  0
    0.7500   -6.4952    0.0000 C   0  0  0  0  0  0  0  0  0  0  0  0
  1  2  1  0
  2  3  1  0
  3  4  1  0
  4  5  1  0
  5  6  1  0
  6  7  2  0
  6  8  1  0
  8  9  2  0
  9 10  1  0
 10 11  2  0
 11 12  1  0
 12 13  2  0
 12 14  1  0
 14 15  1  0
 15 16  2  0
 16 17  1  0
 17 18  1  0
 17 19  2  0
 16 20  1  0
 20 21  2  0
 21 22  1  0
 22 23  1  0
 23 24  2  0
 24 25  1  0
 25 26  2  0
 26 27  1  0
 27 28  2  0
 28 29  1  0
 22 30  2  0
  5 31  1  0
 31 32  1  0
 32  2  1  0
 13  8  1  0
 30 15  1  0
 30 11  1  0
 28 23  1  0
M  END
>  <Compound_ID>  (154) 
CHEMBL3621496

>  <Molecule Name>  (154) 
nan

>  <Molecular Weight>  (154) 
430.48

>  <AlogP>  (154) 
3.61

>  <Smiles>  (154) 
CN1CCN(C(=O)c2ccc3c(c2)[nH]c2c(C(N)=O)ccc(-c4ccccc4F)c23)CC1

>  <Standard Type>  (154) 
IC50

>  <Standard Relation>  (154) 
'='

>  <Standard Units>  (154) 
nM

>  <Standard Value>  (154) 
39.0

>  <Assay ChEMBL ID>  (154) 
CHEMBL3627425

>  <Assay Description>  (154) 
Inhibition of ITK (unknown origin)

>  <BAO Format ID>  (154) 
BAO_0000357

>  <BAO Label>  (154) 
single protein format

>  <Assay Organism>  (154) 
Homo sapiens

>  <Target ChEMBL ID>  (154) 
CHEMBL2959

>  <Target Name>  (154) 
Tyrosine-protein kinase ITK/TSK

>  <Target Organism>  (154) 
Homo sapiens

>  <Target Type>  (154) 
SINGLE PROTEIN

>  <Document ChEMBL ID>  (154) 
CHEMBL3621099

>  <Source Description>  (154) 
Scientific Literature

>  <Document Journal>  (154) 
Bioorg Med Chem Lett

>  <Document Year>  (154) 
2015.0

>  <Active>  (154) 
1.0

$$$$

     RDKit          2D

 26 29  0  0  0  0  0  0  0  0999 V2000
    8.6486  -14.1412    0.0000 N   0  0  0  0  0  0  0  0  0  0  0  0
    7.7669  -12.9277    0.0000 C   0  0  0  0  0  0  0  0  0  0  0  0
    6.8852  -11.7142    0.0000 C   0  0  0  0  0  0  0  0  0  0  0  0
    5.3935  -11.8710    0.0000 C   0  0  0  0  0  0  0  0  0  0  0  0
    4.5118  -10.6574    0.0000 C   0  0  0  0  0  0  0  0  0  0  0  0
    5.1219   -9.2871    0.0000 C   0  0  0  0  0  0  0  0  0  0  0  0
    6.6137   -9.1303    0.0000 C   0  0  0  0  0  0  0  0  0  0  0  0
    7.2238   -7.7600    0.0000 C   0  0  0  0  0  0  0  0  0  0  0  0
    6.3421   -6.5465    0.0000 N   0  0  0  0  0  0  0  0  0  0  0  0
    4.8421   -6.5465    0.0000 C   0  0  0  0  0  0  0  0  0  0  0  0
    4.3786   -5.1199    0.0000 C   0  0  0  0  0  0  0  0  0  0  0  0
    2.9520   -4.6564    0.0000 N   0  0  0  0  0  0  0  0  0  0  0  0
    2.6401   -3.1891    0.0000 C   0  0  0  0  0  0  0  0  0  0  0  0
    3.7548   -2.1855    0.0000 O   0  0  0  0  0  0  0  0  0  0  0  0
    1.2135   -2.7256    0.0000 C   0  0  0  0  0  0  0  0  0  0  0  0
   -0.0000   -3.6073    0.0000 N   0  0  0  0  0  0  0  0  0  0  0  0
   -1.2135   -2.7256    0.0000 N   0  0  0  0  0  0  0  0  0  0  0  0
   -0.7500   -1.2990    0.0000 C   0  0  0  0  0  0  0  0  0  0  0  0
    0.7500   -1.2990    0.0000 C   0  0  0  0  0  0  0  0  0  0  0  0
    1.5000    0.0000    0.0000 C   0  0  0  0  0  0  0  0  0  0  0  0
    0.7500    1.2990    0.0000 C   0  0  0  0  0  0  0  0  0  0  0  0
   -0.7500    1.2990    0.0000 C   0  0  0  0  0  0  0  0  0  0  0  0
   -1.5000    0.0000    0.0000 C   0  0  0  0  0  0  0  0  0  0  0  0
    5.5921   -4.2382    0.0000 C   0  0  0  0  0  0  0  0  0  0  0  0
    6.8056   -5.1199    0.0000 N   0  0  0  0  0  0  0  0  0  0  0  0
    7.4953  -10.3438    0.0000 C   0  0  0  0  0  0  0  0  0  0  0  0
  1  2  3  0
  2  3  1  0
  3  4  2  0
  4  5  1  0
  5  6  2  0
  6  7  1  0
  7  8  1  0
  8  9  1  0
  9 10  1  0
 10 11  2  0
 11 12  1  0
 12 13  1  0
 13 14  2  0
 13 15  1  0
 15 16  2  0
 16 17  1  0
 17 18  1  0
 18 19  2  0
 19 20  1  0
 20 21  1  0
 21 22  1  0
 22 23  1  0
 11 24  1  0
 24 25  2  0
  7 26  2  0
 26  3  1  0
 25  9  1  0
 19 15  1  0
 23 18  1  0
M  END
>  <Compound_ID>  (155) 
CHEMBL3298285

>  <Molecule Name>  (155) 
nan

>  <Molecular Weight>  (155) 
346.39

>  <AlogP>  (155) 
2.66

>  <Smiles>  (155) 
N#Cc1cccc(Cn2cc(NC(=O)c3n[nH]c4c3CCCC4)cn2)c1

>  <Standard Type>  (155) 
Ki

>  <Standard Relation>  (155) 
'='

>  <Standard Units>  (155) 
nM

>  <Standard Value>  (155) 
31.0

>  <Assay ChEMBL ID>  (155) 
CHEMBL3380548

>  <Assay Description>  (155) 
Inhibition of GST-tagged full length ITK (unknown origin) using BLK peptide as substrate after 35 mins

>  <BAO Format ID>  (155) 
BAO_0000357

>  <BAO Label>  (155) 
single protein format

>  <Assay Organism>  (155) 
Homo sapiens

>  <Target ChEMBL ID>  (155) 
CHEMBL2959

>  <Target Name>  (155) 
Tyrosine-protein kinase ITK/TSK

>  <Target Organism>  (155) 
Homo sapiens

>  <Target Type>  (155) 
SINGLE PROTEIN

>  <Document ChEMBL ID>  (155) 
CHEMBL3297697

>  <Source Description>  (155) 
Scientific Literature

>  <Document Journal>  (155) 
J Med Chem

>  <Document Year>  (155) 
2014.0

>  <Active>  (155) 
1.0

$$$$

     RDKit          2D

 26 29  0  0  0  0  0  0  0  0999 V2000
    2.6491    0.9642    0.0000 C   0  0  0  0  0  0  0  0  0  0  0  0
    1.5000    0.0000    0.0000 C   0  0  0  0  0  0  0  0  0  0  0  0
    2.6491   -0.9642    0.0000 C   0  0  0  0  0  0  0  0  0  0  0  0
    0.7500   -1.2990    0.0000 C   0  0  0  0  0  0  0  0  0  0  0  0
   -0.7500   -1.2990    0.0000 C   0  0  0  0  0  0  0  0  0  0  0  0
   -1.5000    0.0000    0.0000 C   0  0  0  0  0  0  0  0  0  0  0  0
   -2.9672    0.3119    0.0000 C   0  0  0  0  0  0  0  0  0  0  0  0
   -4.0819   -0.6918    0.0000 C   0  0  0  0  0  0  0  0  0  0  0  0
   -3.7701   -2.1590    0.0000 O   0  0  0  0  0  0  0  0  0  0  0  0
   -5.5085   -0.2283    0.0000 N   0  0  0  0  0  0  0  0  0  0  0  0
   -6.6232   -1.2320    0.0000 C   0  0  0  0  0  0  0  0  0  0  0  0
   -6.4664   -2.7238    0.0000 C   0  0  0  0  0  0  0  0  0  0  0  0
   -7.8368   -3.3339    0.0000 N   0  0  0  0  0  0  0  0  0  0  0  0
   -8.8405   -2.2192    0.0000 N   0  0  0  0  0  0  0  0  0  0  0  0
  -10.3322   -2.3760    0.0000 C   0  0  0  0  0  0  0  0  0  0  0  0
  -11.2139   -1.1624    0.0000 C   0  0  0  0  0  0  0  0  0  0  0  0
  -10.6038    0.2079    0.0000 C   0  0  0  0  0  0  0  0  0  0  0  0
  -11.4855    1.4214    0.0000 C   0  0  0  0  0  0  0  0  0  0  0  0
  -12.9773    1.2646    0.0000 C   0  0  0  0  0  0  0  0  0  0  0  0
  -13.5874   -0.1057    0.0000 C   0  0  0  0  0  0  0  0  0  0  0  0
  -12.7057   -1.3192    0.0000 C   0  0  0  0  0  0  0  0  0  0  0  0
   -8.0905   -0.9201    0.0000 C   0  0  0  0  0  0  0  0  0  0  0  0
   -3.1240    1.8037    0.0000 N   0  0  0  0  0  0  0  0  0  0  0  0
   -1.7537    2.4138    0.0000 N   0  0  0  0  0  0  0  0  0  0  0  0
   -0.7500    1.2990    0.0000 C   0  0  0  0  0  0  0  0  0  0  0  0
    0.7500    1.2990    0.0000 C   0  0  0  0  0  0  0  0  0  0  0  0
  1  2  1  0
  2  3  1  0
  2  4  1  0
  4  5  1  0
  5  6  1  0
  6  7  1  0
  7  8  1  0
  8  9  2  0
  8 10  1  0
 10 11  1  0
 11 12  1  0
 12 13  2  0
 13 14  1  0
 14 15  1  0
 15 16  1  0
 16 17  2  0
 17 18  1  0
 18 19  2  0
 19 20  1  0
 20 21  2  0
 14 22  1  0
  7 23  2  0
 23 24  1  0
 24 25  1  0
 25 26  1  0
 26  2  1  0
 25  6  2  0
 22 11  2  0
 21 16  1  0
M  END
>  <Compound_ID>  (156) 
CHEMBL3298288

>  <Molecule Name>  (156) 
nan

>  <Molecular Weight>  (156) 
349.44

>  <AlogP>  (156) 
3.42

>  <Smiles>  (156) 
CC1(C)CCc2c(C(=O)Nc3cnn(Cc4ccccc4)c3)n[nH]c2C1

>  <Standard Type>  (156) 
Ki

>  <Standard Relation>  (156) 
'='

>  <Standard Units>  (156) 
nM

>  <Standard Value>  (156) 
5.3

>  <Assay ChEMBL ID>  (156) 
CHEMBL3428280

>  <Assay Description>  (156) 
Inhibition of GST-tagged recombinant full length human ITK using AcEFPIYDFLPAKKK-NH2 as substrate after 35 mins by Morrison plot analysis

>  <BAO Format ID>  (156) 
BAO_0000357

>  <BAO Label>  (156) 
single protein format

>  <Assay Organism>  (156) 
Homo sapiens

>  <Target ChEMBL ID>  (156) 
CHEMBL2959

>  <Target Name>  (156) 
Tyrosine-protein kinase ITK/TSK

>  <Target Organism>  (156) 
Homo sapiens

>  <Target Type>  (156) 
SINGLE PROTEIN

>  <Document ChEMBL ID>  (156) 
CHEMBL3425442

>  <Source Description>  (156) 
Scientific Literature

>  <Document Journal>  (156) 
J Med Chem

>  <Document Year>  (156) 
2015.0

>  <Active>  (156) 
1.0

$$$$

     RDKit          2D

 29 31  0  0  0  0  0  0  0  0999 V2000
  -12.9041   -9.3825    0.0000 C   0  0  0  0  0  0  0  0  0  0  0  0
  -11.7894   -8.3788    0.0000 C   0  0  0  0  0  0  0  0  0  0  0  0
  -10.3628   -8.8423    0.0000 N   0  0  0  0  0  0  0  0  0  0  0  0
  -10.0510  -10.3095    0.0000 C   0  0  0  0  0  0  0  0  0  0  0  0
  -11.1657  -11.3132    0.0000 C   0  0  0  0  0  0  0  0  0  0  0  0
   -9.2481   -7.8386    0.0000 C   0  0  0  0  0  0  0  0  0  0  0  0
   -7.8215   -8.3021    0.0000 C   0  0  0  0  0  0  0  0  0  0  0  0
   -6.7068   -7.2984    0.0000 N   0  0  0  0  0  0  0  0  0  0  0  0
   -5.2802   -7.7620    0.0000 C   0  0  0  0  0  0  0  0  0  0  0  0
   -4.9684   -9.2292    0.0000 O   0  0  0  0  0  0  0  0  0  0  0  0
   -4.1655   -6.7583    0.0000 C   0  0  0  0  0  0  0  0  0  0  0  0
   -2.6983   -7.0701    0.0000 C   0  0  0  0  0  0  0  0  0  0  0  0
   -2.0882   -8.4404    0.0000 C   0  0  0  0  0  0  0  0  0  0  0  0
   -1.9483   -5.7711    0.0000 N   0  0  0  0  0  0  0  0  0  0  0  0
   -2.9520   -4.6564    0.0000 C   0  0  0  0  0  0  0  0  0  0  0  0
   -2.6401   -3.1891    0.0000 C   0  0  0  0  0  0  0  0  0  0  0  0
   -1.2135   -2.7256    0.0000 C   0  0  0  0  0  0  0  0  0  0  0  0
   -0.0000   -3.6073    0.0000 C   0  0  0  0  0  0  0  0  0  0  0  0
    0.0000   -5.1073    0.0000 O   0  0  0  0  0  0  0  0  0  0  0  0
    1.2135   -2.7256    0.0000 N   0  0  0  0  0  0  0  0  0  0  0  0
    0.7500   -1.2990    0.0000 C   0  0  0  0  0  0  0  0  0  0  0  0
    1.5000    0.0000    0.0000 C   0  0  0  0  0  0  0  0  0  0  0  0
    0.7500    1.2990    0.0000 C   0  0  0  0  0  0  0  0  0  0  0  0
   -0.7500    1.2990    0.0000 C   0  0  0  0  0  0  0  0  0  0  0  0
   -1.5000    2.5981    0.0000 F   0  0  0  0  0  0  0  0  0  0  0  0
   -1.5000    0.0000    0.0000 C   0  0  0  0  0  0  0  0  0  0  0  0
   -0.7500   -1.2990    0.0000 C   0  0  0  0  0  0  0  0  0  0  0  0
   -4.3223   -5.2665    0.0000 C   0  0  0  0  0  0  0  0  0  0  0  0
   -5.6213   -4.5165    0.0000 C   0  0  0  0  0  0  0  0  0  0  0  0
  1  2  1  0
  2  3  1  0
  3  4  1  0
  4  5  1  0
  3  6  1  0
  6  7  1  0
  7  8  1  0
  8  9  1  0
  9 10  2  0
  9 11  1  0
 11 12  2  0
 12 13  1  0
 12 14  1  0
 14 15  1  0
 15 16  1  0
 16 17  2  0
 17 18  1  0
 18 19  2  0
 18 20  1  0
 20 21  1  0
 21 22  2  0
 22 23  1  0
 23 24  2  0
 24 25  1  0
 24 26  1  0
 26 27  2  0
 15 28  2  0
 28 29  1  0
 28 11  1  0
 27 17  1  0
 27 21  1  0
M  END
>  <Compound_ID>  (157) 
CHEMBL535

>  <Molecule Name>  (157) 
SUNITINIB

>  <Molecular Weight>  (157) 
398.48

>  <AlogP>  (157) 
3.33

>  <Smiles>  (157) 
CCN(CC)CCNC(=O)c1c(C)[nH]c(/C=C2\C(=O)Nc3ccc(F)cc32)c1C

>  <Standard Type>  (157) 
Kd

>  <Standard Relation>  (157) 
'='

>  <Standard Units>  (157) 
nM

>  <Standard Value>  (157) 
13.0

>  <Assay ChEMBL ID>  (157) 
CHEMBL1244464

>  <Assay Description>  (157) 
Binding affinity to ITK

>  <BAO Format ID>  (157) 
BAO_0000357

>  <BAO Label>  (157) 
single protein format

>  <Assay Organism>  (157) 
None

>  <Target ChEMBL ID>  (157) 
CHEMBL2959

>  <Target Name>  (157) 
Tyrosine-protein kinase ITK/TSK

>  <Target Organism>  (157) 
Homo sapiens

>  <Target Type>  (157) 
SINGLE PROTEIN

>  <Document ChEMBL ID>  (157) 
CHEMBL1240346

>  <Source Description>  (157) 
Scientific Literature

>  <Document Journal>  (157) 
Blood

>  <Document Year>  (157) 
2009.0

>  <Active>  (157) 
1.0

$$$$

     RDKit          2D

 35 38  0  0  0  0  0  0  0  0999 V2000
    0.7500   -3.8971    0.0000 C   0  0  0  0  0  0  0  0  0  0  0  0
    1.5000   -2.5981    0.0000 N   0  0  0  0  0  0  0  0  0  0  0  0
    3.0000   -2.5981    0.0000 C   0  0  0  0  0  0  0  0  0  0  0  0
    3.7500   -1.2990    0.0000 O   0  0  0  0  0  0  0  0  0  0  0  0
    3.7500   -3.8971    0.0000 C   0  0  0  0  0  0  0  0  0  0  0  0
    3.0000   -5.1962    0.0000 C   0  0  0  0  0  0  0  0  0  0  0  0
    3.7500   -6.4952    0.0000 C   0  0  0  0  0  0  0  0  0  0  0  0
    5.2500   -6.4952    0.0000 C   0  0  0  0  0  0  0  0  0  0  0  0
    6.0000   -5.1962    0.0000 N   0  0  0  0  0  0  0  0  0  0  0  0
    5.2500   -3.8971    0.0000 C   0  0  0  0  0  0  0  0  0  0  0  0
    0.7500   -1.2990    0.0000 C   0  0  0  0  0  0  0  0  0  0  0  0
    1.5000    0.0000    0.0000 C   0  0  0  0  0  0  0  0  0  0  0  0
    0.7500    1.2990    0.0000 C   0  0  0  0  0  0  0  0  0  0  0  0
   -0.7500    1.2990    0.0000 C   0  0  0  0  0  0  0  0  0  0  0  0
   -1.5000    0.0000    0.0000 C   0  0  0  0  0  0  0  0  0  0  0  0
   -0.7500   -1.2990    0.0000 C   0  0  0  0  0  0  0  0  0  0  0  0
   -2.9672    0.3119    0.0000 N   0  0  0  0  0  0  0  0  0  0  0  0
   -3.1240    1.8037    0.0000 C   0  0  0  0  0  0  0  0  0  0  0  0
   -4.4231    2.5537    0.0000 N   0  0  0  0  0  0  0  0  0  0  0  0
   -4.4231    4.0537    0.0000 C   0  0  0  0  0  0  0  0  0  0  0  0
   -3.1240    4.8037    0.0000 O   0  0  0  0  0  0  0  0  0  0  0  0
   -5.7221    4.8037    0.0000 C   0  0  0  0  0  0  0  0  0  0  0  0
   -5.7221    6.3037    0.0000 C   0  0  0  0  0  0  0  0  0  0  0  0
   -7.0211    7.0537    0.0000 C   0  0  0  0  0  0  0  0  0  0  0  0
   -8.3202    6.3037    0.0000 C   0  0  0  0  0  0  0  0  0  0  0  0
   -9.6192    7.0537    0.0000 C   0  0  0  0  0  0  0  0  0  0  0  0
  -10.9182    7.8037    0.0000 N   0  0  0  0  0  0  0  0  0  0  0  0
   -8.3202    4.8037    0.0000 C   0  0  0  0  0  0  0  0  0  0  0  0
   -7.0211    4.0537    0.0000 C   0  0  0  0  0  0  0  0  0  0  0  0
   -1.7537    2.4138    0.0000 N   0  0  0  0  0  0  0  0  0  0  0  0
   -1.4418    3.8810    0.0000 C   0  0  0  0  0  0  0  0  0  0  0  0
   -0.0152    4.3445    0.0000 C   0  0  0  0  0  0  0  0  0  0  0  0
    0.2966    5.8117    0.0000 C   0  0  0  0  0  0  0  0  0  0  0  0
    1.7232    6.2752    0.0000 N   0  0  0  0  0  0  0  0  0  0  0  0
   -0.8181    6.8154    0.0000 O   0  0  0  0  0  0  0  0  0  0  0  0
  1  2  1  0
  2  3  1  0
  3  4  2  0
  3  5  1  0
  5  6  2  0
  6  7  1  0
  7  8  2  0
  8  9  1  0
  9 10  2  0
  2 11  1  0
 11 12  2  0
 12 13  1  0
 13 14  2  0
 14 15  1  0
 15 16  2  0
 15 17  1  0
 17 18  2  0
 18 19  1  0
 19 20  1  0
 20 21  2  0
 20 22  1  0
 22 23  2  0
 23 24  1  0
 24 25  2  0
 25 26  1  0
 26 27  3  0
 25 28  1  0
 28 29  2  0
 18 30  1  0
 30 31  1  0
 31 32  1  0
 32 33  1  0
 33 34  1  0
 33 35  2  0
 10  5  1  0
 16 11  1  0
 29 22  1  0
 30 14  1  0
M  END
>  <Compound_ID>  (158) 
CHEMBL485030

>  <Molecule Name>  (158) 
nan

>  <Molecular Weight>  (158) 
467.49

>  <AlogP>  (158) 
2.71

>  <Smiles>  (158) 
CN(C(=O)c1cccnc1)c1ccc2c(c1)nc(NC(=O)c1ccc(C#N)cc1)n2CCC(N)=O

>  <Standard Type>  (158) 
IC50

>  <Standard Relation>  (158) 
'='

>  <Standard Units>  (158) 
nM

>  <Standard Value>  (158) 
4.0

>  <Assay ChEMBL ID>  (158) 
CHEMBL992543

>  <Assay Description>  (158) 
Inhibition of recombinant ITK by DELFIA assay

>  <BAO Format ID>  (158) 
BAO_0000357

>  <BAO Label>  (158) 
single protein format

>  <Assay Organism>  (158) 
None

>  <Target ChEMBL ID>  (158) 
CHEMBL2959

>  <Target Name>  (158) 
Tyrosine-protein kinase ITK/TSK

>  <Target Organism>  (158) 
Homo sapiens

>  <Target Type>  (158) 
SINGLE PROTEIN

>  <Document ChEMBL ID>  (158) 
CHEMBL1142466

>  <Source Description>  (158) 
Scientific Literature

>  <Document Journal>  (158) 
Bioorg Med Chem Lett

>  <Document Year>  (158) 
2008.0

>  <Active>  (158) 
1.0

$$$$

     RDKit          2D

 24 27  0  0  0  0  0  0  0  0999 V2000
   -3.7548   -2.1855    0.0000 O   0  0  0  0  0  0  0  0  0  0  0  0
   -2.6401   -3.1891    0.0000 C   0  0  0  0  0  0  0  0  0  0  0  0
   -2.9520   -4.6564    0.0000 N   0  0  0  0  0  0  0  0  0  0  0  0
   -4.3786   -5.1199    0.0000 C   0  0  0  0  0  0  0  0  0  0  0  0
   -4.8421   -6.5465    0.0000 C   0  0  0  0  0  0  0  0  0  0  0  0
   -6.3421   -6.5465    0.0000 N   0  0  0  0  0  0  0  0  0  0  0  0
   -6.8056   -5.1199    0.0000 C   0  0  0  0  0  0  0  0  0  0  0  0
   -8.2322   -4.6564    0.0000 C   0  0  0  0  0  0  0  0  0  0  0  0
   -8.5441   -3.1891    0.0000 C   0  0  0  0  0  0  0  0  0  0  0  0
   -7.4293   -2.1855    0.0000 C   0  0  0  0  0  0  0  0  0  0  0  0
   -7.7412   -0.7182    0.0000 C   0  0  0  0  0  0  0  0  0  0  0  0
   -9.1678   -0.2547    0.0000 C   0  0  0  0  0  0  0  0  0  0  0  0
  -10.2825   -1.2584    0.0000 C   0  0  0  0  0  0  0  0  0  0  0  0
   -9.9707   -2.7256    0.0000 C   0  0  0  0  0  0  0  0  0  0  0  0
   -5.5921   -4.2382    0.0000 S   0  0  0  0  0  0  0  0  0  0  0  0
   -1.2135   -2.7256    0.0000 C   0  0  0  0  0  0  0  0  0  0  0  0
   -0.0000   -3.6073    0.0000 N   0  0  0  0  0  0  0  0  0  0  0  0
    1.2135   -2.7256    0.0000 N   0  0  0  0  0  0  0  0  0  0  0  0
    0.7500   -1.2990    0.0000 C   0  0  0  0  0  0  0  0  0  0  0  0
    1.5000    0.0000    0.0000 C   0  0  0  0  0  0  0  0  0  0  0  0
    0.7500    1.2990    0.0000 C   0  0  0  0  0  0  0  0  0  0  0  0
   -0.7500    1.2990    0.0000 C   0  0  0  0  0  0  0  0  0  0  0  0
   -1.5000    0.0000    0.0000 C   0  0  0  0  0  0  0  0  0  0  0  0
   -0.7500   -1.2990    0.0000 C   0  0  0  0  0  0  0  0  0  0  0  0
  1  2  2  0
  2  3  1  0
  3  4  1  0
  4  5  2  0
  5  6  1  0
  6  7  2  0
  7  8  1  0
  8  9  1  0
  9 10  2  0
 10 11  1  0
 11 12  2  0
 12 13  1  0
 13 14  2  0
  7 15  1  0
  2 16  1  0
 16 17  2  0
 17 18  1  0
 18 19  1  0
 19 20  2  0
 20 21  1  0
 21 22  2  0
 22 23  1  0
 23 24  2  0
 15  4  1  0
 24 16  1  0
 14  9  1  0
 24 19  1  0
M  END
>  <Compound_ID>  (159) 
CHEMBL3263039

>  <Molecule Name>  (159) 
nan

>  <Molecular Weight>  (159) 
334.4

>  <AlogP>  (159) 
3.86

>  <Smiles>  (159) 
O=C(Nc1cnc(Cc2ccccc2)s1)c1n[nH]c2ccccc12

>  <Standard Type>  (159) 
Ki

>  <Standard Relation>  (159) 
'='

>  <Standard Units>  (159) 
nM

>  <Standard Value>  (159) 
1.7

>  <Assay ChEMBL ID>  (159) 
CHEMBL3267591

>  <Assay Description>  (159) 
Inhibition of full-length ITK (unknown origin) using biotin-EQEDEPEGIYGVLF-NH2 as substrate by plate reader analysis

>  <BAO Format ID>  (159) 
BAO_0000357

>  <BAO Label>  (159) 
single protein format

>  <Assay Organism>  (159) 
Homo sapiens

>  <Target ChEMBL ID>  (159) 
CHEMBL2959

>  <Target Name>  (159) 
Tyrosine-protein kinase ITK/TSK

>  <Target Organism>  (159) 
Homo sapiens

>  <Target Type>  (159) 
SINGLE PROTEIN

>  <Document ChEMBL ID>  (159) 
CHEMBL3259776

>  <Source Description>  (159) 
Scientific Literature

>  <Document Journal>  (159) 
Bioorg Med Chem Lett

>  <Document Year>  (159) 
2014.0

>  <Active>  (159) 
1.0

$$$$

     RDKit          2D

 34 38  0  0  0  0  0  0  0  0999 V2000
    0.2010   -3.3481    0.0000 O   0  0  0  0  0  0  0  0  0  0  0  0
    1.5000   -2.5981    0.0000 S   0  0  0  0  0  0  0  0  0  0  0  0
    2.7990   -1.8481    0.0000 O   0  0  0  0  0  0  0  0  0  0  0  0
    0.7500   -1.2990    0.0000 C   0  0  0  0  0  0  0  0  0  0  0  0
    1.5000    0.0000    0.0000 C   0  0  0  0  0  0  0  0  0  0  0  0
    0.7500    1.2990    0.0000 C   0  0  0  0  0  0  0  0  0  0  0  0
   -0.7500    1.2990    0.0000 C   0  0  0  0  0  0  0  0  0  0  0  0
   -1.5000    0.0000    0.0000 C   0  0  0  0  0  0  0  0  0  0  0  0
   -0.7500   -1.2990    0.0000 C   0  0  0  0  0  0  0  0  0  0  0  0
    2.2500   -3.8971    0.0000 C   0  0  0  0  0  0  0  0  0  0  0  0
    1.5000   -5.1962    0.0000 C   0  0  0  0  0  0  0  0  0  0  0  0
    2.2500   -6.4952    0.0000 C   0  0  0  0  0  0  0  0  0  0  0  0
    1.5000   -7.7942    0.0000 N   0  0  0  0  0  0  0  0  0  0  0  0
    0.0000   -7.7942    0.0000 C   0  0  0  0  0  0  0  0  0  0  0  0
   -0.8817   -9.0078    0.0000 C   0  0  0  0  0  0  0  0  0  0  0  0
   -2.3083   -8.5442    0.0000 C   0  0  0  0  0  0  0  0  0  0  0  0
   -3.5218   -9.4259    0.0000 C   0  0  0  0  0  0  0  0  0  0  0  0
   -3.5218  -10.9259    0.0000 C   0  0  0  0  0  0  0  0  0  0  0  0
   -4.9484  -11.3894    0.0000 C   0  0  0  0  0  0  0  0  0  0  0  0
   -5.8301  -10.1759    0.0000 C   0  0  0  0  0  0  0  0  0  0  0  0
   -4.9484   -8.9624    0.0000 C   0  0  0  0  0  0  0  0  0  0  0  0
   -2.3083   -7.0442    0.0000 N   0  0  0  0  0  0  0  0  0  0  0  0
   -0.8817   -6.5807    0.0000 N   0  0  0  0  0  0  0  0  0  0  0  0
    3.7500   -6.4952    0.0000 N   0  0  0  0  0  0  0  0  0  0  0  0
    4.5000   -5.1962    0.0000 C   0  0  0  0  0  0  0  0  0  0  0  0
    6.0000   -5.1962    0.0000 N   0  0  0  0  0  0  0  0  0  0  0  0
    6.7500   -6.4952    0.0000 C   0  0  0  0  0  0  0  0  0  0  0  0
    6.0000   -7.7942    0.0000 C   0  0  0  0  0  0  0  0  0  0  0  0
    6.7500   -9.0933    0.0000 C   0  0  0  0  0  0  0  0  0  0  0  0
    8.2500   -9.0933    0.0000 C   0  0  0  0  0  0  0  0  0  0  0  0
    9.0000  -10.3923    0.0000 O   0  0  0  0  0  0  0  0  0  0  0  0
    9.0000   -7.7942    0.0000 C   0  0  0  0  0  0  0  0  0  0  0  0
    8.2500   -6.4952    0.0000 C   0  0  0  0  0  0  0  0  0  0  0  0
    3.7500   -3.8971    0.0000 C   0  0  0  0  0  0  0  0  0  0  0  0
  1  2  2  0
  2  3  2  0
  2  4  1  0
  4  5  2  0
  5  6  1  0
  6  7  2  0
  7  8  1  0
  8  9  2  0
  2 10  1  0
 10 11  2  0
 11 12  1  0
 12 13  1  0
 13 14  1  0
 14 15  1  0
 15 16  2  0
 16 17  1  0
 17 18  1  0
 18 19  1  0
 19 20  1  0
 20 21  1  0
 16 22  1  0
 22 23  1  0
 12 24  2  0
 24 25  1  0
 25 26  1  0
 27 26  1  6
 27 28  1  0
 28 29  1  0
 29 30  1  0
 30 31  1  1
 30 32  1  0
 32 33  1  0
 25 34  2  0
  9  4  1  0
 34 10  1  0
 23 14  2  0
 33 27  1  0
 21 17  1  0
M  END
>  <Compound_ID>  (160) 
CHEMBL3355737

>  <Molecule Name>  (160) 
nan

>  <Molecular Weight>  (160) 
481.62

>  <AlogP>  (160) 
4.75

>  <Smiles>  (160) 
O=S(=O)(c1ccccc1)c1cc(Nc2cc(C3CCCC3)[nH]n2)nc(N[C@H]2CC[C@H](O)CC2)c1

>  <Standard Type>  (160) 
Ki

>  <Standard Relation>  (160) 
'='

>  <Standard Units>  (160) 
nM

>  <Standard Value>  (160) 
0.17

>  <Assay ChEMBL ID>  (160) 
CHEMBL3389531

>  <Assay Description>  (160) 
Inhibition of GST-tagged full-length ITK (unknown origin) using Ac-EFPIYDFLPAKKK-NH2 as substrate after 35 mins by LC/MS analysis

>  <BAO Format ID>  (160) 
BAO_0000357

>  <BAO Label>  (160) 
single protein format

>  <Assay Organism>  (160) 
Homo sapiens

>  <Target ChEMBL ID>  (160) 
CHEMBL2959

>  <Target Name>  (160) 
Tyrosine-protein kinase ITK/TSK

>  <Target Organism>  (160) 
Homo sapiens

>  <Target Type>  (160) 
SINGLE PROTEIN

>  <Document ChEMBL ID>  (160) 
CHEMBL3352735

>  <Source Description>  (160) 
Scientific Literature

>  <Document Journal>  (160) 
Bioorg Med Chem Lett

>  <Document Year>  (160) 
2014.0

>  <Active>  (160) 
1.0

$$$$

     RDKit          2D

 20 22  0  0  0  0  0  0  0  0999 V2000
  -10.8856    4.3779    0.0000 C   0  0  0  0  0  0  0  0  0  0  0  0
   -9.4590    4.8414    0.0000 C   0  0  0  0  0  0  0  0  0  0  0  0
   -8.0325    5.3050    0.0000 C   0  0  0  0  0  0  0  0  0  0  0  0
   -7.7206    6.7722    0.0000 O   0  0  0  0  0  0  0  0  0  0  0  0
   -6.9177    4.3013    0.0000 N   0  0  0  0  0  0  0  0  0  0  0  0
   -5.4912    4.7648    0.0000 C   0  0  0  0  0  0  0  0  0  0  0  0
   -5.1793    6.2320    0.0000 C   0  0  0  0  0  0  0  0  0  0  0  0
   -3.7527    6.6955    0.0000 C   0  0  0  0  0  0  0  0  0  0  0  0
   -2.6380    5.6918    0.0000 C   0  0  0  0  0  0  0  0  0  0  0  0
   -2.9499    4.2246    0.0000 C   0  0  0  0  0  0  0  0  0  0  0  0
   -1.8351    3.2209    0.0000 C   0  0  0  0  0  0  0  0  0  0  0  0
   -0.4086    3.6844    0.0000 C   0  0  0  0  0  0  0  0  0  0  0  0
    0.7062    2.6807    0.0000 N   0  0  0  0  0  0  0  0  0  0  0  0
    0.3943    1.2135    0.0000 C   0  0  0  0  0  0  0  0  0  0  0  0
    1.2760    0.0000    0.0000 N   0  0  0  0  0  0  0  0  0  0  0  0
    0.3943   -1.2135    0.0000 C   0  0  0  0  0  0  0  0  0  0  0  0
   -1.0323   -0.7500    0.0000 C   0  0  0  0  0  0  0  0  0  0  0  0
   -1.0323    0.7500    0.0000 C   0  0  0  0  0  0  0  0  0  0  0  0
   -2.1470    1.7537    0.0000 C   0  0  0  0  0  0  0  0  0  0  0  0
   -4.3764    3.7611    0.0000 N   0  0  0  0  0  0  0  0  0  0  0  0
  1  2  3  0
  2  3  1  0
  3  4  2  0
  3  5  1  0
  5  6  1  0
  6  7  2  0
  7  8  1  0
  8  9  2  0
  9 10  1  0
 10 11  1  0
 11 12  2  0
 12 13  1  0
 13 14  2  0
 14 15  1  0
 15 16  1  0
 16 17  2  0
 17 18  1  0
 18 19  2  0
 10 20  2  0
 20  6  1  0
 19 11  1  0
 18 14  1  0
M  END
>  <Compound_ID>  (161) 
CHEMBL3920364

>  <Molecule Name>  (161) 
nan

>  <Molecular Weight>  (161) 
262.27

>  <AlogP>  (161) 
2.20

>  <Smiles>  (161) 
C#CC(=O)Nc1cccc(-c2cnc3[nH]ccc3c2)n1

>  <Standard Type>  (161) 
IC50

>  <Standard Relation>  (161) 
'='

>  <Standard Units>  (161) 
nM

>  <Standard Value>  (161) 
30.0

>  <Assay ChEMBL ID>  (161) 
CHEMBL3887687

>  <Assay Description>  (161) 
Biochemical Inhibition Assay: 1H-pyrrolo[2,3-b]pyridine, 1H-pyrazolo[3,4-b]pyridine and 5H-pyrrolo[2,3-b]pyrazine series of compounds exhibited over >100 fold selective against Janus and TEC family of kinases except for the BMX and TXK it had activity of 30 and 45 nM respectively.

>  <BAO Format ID>  (161) 
BAO_0000357

>  <BAO Label>  (161) 
single protein format

>  <Assay Organism>  (161) 
Homo sapiens

>  <Target ChEMBL ID>  (161) 
CHEMBL2959

>  <Target Name>  (161) 
Tyrosine-protein kinase ITK/TSK

>  <Target Organism>  (161) 
Homo sapiens

>  <Target Type>  (161) 
SINGLE PROTEIN

>  <Document ChEMBL ID>  (161) 
CHEMBL3886406

>  <Source Description>  (161) 
BindingDB Database

>  <Document Journal>  (161) 
nan

>  <Document Year>  (161) 
2015.0

>  <Active>  (161) 
1.0

$$$$

     RDKit          2D

 34 38  0  0  0  0  0  0  0  0999 V2000
    2.6491    0.9642    0.0000 C   0  0  0  0  0  0  0  0  0  0  0  0
    1.5000    0.0000    0.0000 C   0  0  0  0  0  0  0  0  0  0  0  0
    2.6491   -0.9642    0.0000 C   0  0  0  0  0  0  0  0  0  0  0  0
    0.7500   -1.2990    0.0000 C   0  0  0  0  0  0  0  0  0  0  0  0
   -0.7500   -1.2990    0.0000 C   0  0  0  0  0  0  0  0  0  0  0  0
   -1.5000    0.0000    0.0000 C   0  0  0  0  0  0  0  0  0  0  0  0
   -2.9672    0.3119    0.0000 C   0  0  0  0  0  0  0  0  0  0  0  0
   -4.0819   -0.6918    0.0000 C   0  0  0  0  0  0  0  0  0  0  0  0
   -3.7701   -2.1590    0.0000 O   0  0  0  0  0  0  0  0  0  0  0  0
   -5.5085   -0.2283    0.0000 N   0  0  0  0  0  0  0  0  0  0  0  0
   -6.6232   -1.2320    0.0000 C   0  0  0  0  0  0  0  0  0  0  0  0
   -6.4664   -2.7238    0.0000 C   0  0  0  0  0  0  0  0  0  0  0  0
   -7.8368   -3.3339    0.0000 N   0  0  0  0  0  0  0  0  0  0  0  0
   -8.8405   -2.2192    0.0000 N   0  0  0  0  0  0  0  0  0  0  0  0
  -10.3322   -2.3760    0.0000 C   0  0  0  0  0  0  0  0  0  0  0  0
  -10.9423   -3.7463    0.0000 C   0  0  0  0  0  0  0  0  0  0  0  0
  -12.4341   -3.9031    0.0000 C   0  0  0  0  0  0  0  0  0  0  0  0
  -13.0442   -5.2734    0.0000 C   0  0  0  0  0  0  0  0  0  0  0  0
  -12.1626   -6.4869    0.0000 C   0  0  0  0  0  0  0  0  0  0  0  0
  -10.6708   -6.3301    0.0000 C   0  0  0  0  0  0  0  0  0  0  0  0
  -10.0607   -4.9598    0.0000 C   0  0  0  0  0  0  0  0  0  0  0  0
  -11.2139   -1.1624    0.0000 C   0  0  0  0  0  0  0  0  0  0  0  0
  -10.6038    0.2079    0.0000 C   0  0  0  0  0  0  0  0  0  0  0  0
  -11.4855    1.4214    0.0000 C   0  0  0  0  0  0  0  0  0  0  0  0
  -12.9773    1.2646    0.0000 C   0  0  0  0  0  0  0  0  0  0  0  0
  -13.5874   -0.1057    0.0000 S   0  0  0  0  0  0  0  0  0  0  0  0
  -14.6294   -1.1847    0.0000 O   0  0  0  0  0  0  0  0  0  0  0  0
  -14.8309    0.7331    0.0000 O   0  0  0  0  0  0  0  0  0  0  0  0
  -12.7057   -1.3192    0.0000 C   0  0  0  0  0  0  0  0  0  0  0  0
   -8.0905   -0.9201    0.0000 C   0  0  0  0  0  0  0  0  0  0  0  0
   -3.1240    1.8037    0.0000 N   0  0  0  0  0  0  0  0  0  0  0  0
   -1.7537    2.4138    0.0000 N   0  0  0  0  0  0  0  0  0  0  0  0
   -0.7500    1.2990    0.0000 C   0  0  0  0  0  0  0  0  0  0  0  0
    0.7500    1.2990    0.0000 C   0  0  0  0  0  0  0  0  0  0  0  0
  1  2  1  0
  2  3  1  0
  2  4  1  0
  4  5  1  0
  5  6  1  0
  6  7  1  0
  7  8  1  0
  8  9  2  0
  8 10  1  0
 10 11  1  0
 11 12  1  0
 12 13  2  0
 13 14  1  0
 14 15  1  0
 15 16  1  0
 16 17  2  0
 17 18  1  0
 18 19  2  0
 19 20  1  0
 20 21  2  0
 15 22  1  6
 22 23  1  0
 23 24  1  0
 24 25  1  0
 25 26  1  0
 26 27  2  0
 26 28  2  0
 26 29  1  0
 14 30  1  0
  7 31  2  0
 31 32  1  0
 32 33  1  0
 33 34  1  0
 34  2  1  0
 33  6  2  0
 30 11  2  0
 21 16  1  0
 29 22  1  0
M  END
>  <Compound_ID>  (162) 
CHEMBL3426302

>  <Molecule Name>  (162) 
nan

>  <Molecular Weight>  (162) 
481.62

>  <AlogP>  (162) 
3.79

>  <Smiles>  (162) 
CC1(C)CCc2c(C(=O)Nc3cnn([C@H](c4ccccc4)C4CCCS(=O)(=O)C4)c3)n[nH]c2C1

>  <Standard Type>  (162) 
Ki

>  <Standard Relation>  (162) 
'='

>  <Standard Units>  (162) 
nM

>  <Standard Value>  (162) 
2.6

>  <Assay ChEMBL ID>  (162) 
CHEMBL3428280

>  <Assay Description>  (162) 
Inhibition of GST-tagged recombinant full length human ITK using AcEFPIYDFLPAKKK-NH2 as substrate after 35 mins by Morrison plot analysis

>  <BAO Format ID>  (162) 
BAO_0000357

>  <BAO Label>  (162) 
single protein format

>  <Assay Organism>  (162) 
Homo sapiens

>  <Target ChEMBL ID>  (162) 
CHEMBL2959

>  <Target Name>  (162) 
Tyrosine-protein kinase ITK/TSK

>  <Target Organism>  (162) 
Homo sapiens

>  <Target Type>  (162) 
SINGLE PROTEIN

>  <Document ChEMBL ID>  (162) 
CHEMBL3425442

>  <Source Description>  (162) 
Scientific Literature

>  <Document Journal>  (162) 
J Med Chem

>  <Document Year>  (162) 
2015.0

>  <Active>  (162) 
1.0

$$$$

     RDKit          2D

 27 31  0  0  0  0  0  0  0  0999 V2000
    2.1590   -6.3307    0.0000 O   0  0  0  0  0  0  0  0  0  0  0  0
    0.6918   -6.6426    0.0000 C   0  0  0  0  0  0  0  0  0  0  0  0
    0.2283   -8.0692    0.0000 N   0  0  0  0  0  0  0  0  0  0  0  0
    1.2320   -9.1839    0.0000 C   0  0  0  0  0  0  0  0  0  0  0  0
    2.7238   -9.0271    0.0000 C   0  0  0  0  0  0  0  0  0  0  0  0
    3.3339  -10.3974    0.0000 N   0  0  0  0  0  0  0  0  0  0  0  0
    2.2192  -11.4011    0.0000 N   0  0  0  0  0  0  0  0  0  0  0  0
    2.3760  -12.8929    0.0000 C   0  0  0  0  0  0  0  0  0  0  0  0
    1.1624  -13.7746    0.0000 C   0  0  0  0  0  0  0  0  0  0  0  0
   -0.2079  -13.1645    0.0000 C   0  0  0  0  0  0  0  0  0  0  0  0
   -1.4214  -14.0462    0.0000 C   0  0  0  0  0  0  0  0  0  0  0  0
   -1.2646  -15.5379    0.0000 C   0  0  0  0  0  0  0  0  0  0  0  0
    0.1057  -16.1480    0.0000 C   0  0  0  0  0  0  0  0  0  0  0  0
    1.3192  -15.2664    0.0000 C   0  0  0  0  0  0  0  0  0  0  0  0
    0.9201  -10.6511    0.0000 C   0  0  0  0  0  0  0  0  0  0  0  0
   -0.3119   -5.5279    0.0000 C   0  0  0  0  0  0  0  0  0  0  0  0
   -1.8037   -5.6847    0.0000 N   0  0  0  0  0  0  0  0  0  0  0  0
   -2.4138   -4.3144    0.0000 N   0  0  0  0  0  0  0  0  0  0  0  0
   -1.2990   -3.3107    0.0000 C   0  0  0  0  0  0  0  0  0  0  0  0
   -0.0000   -4.0607    0.0000 C   0  0  0  0  0  0  0  0  0  0  0  0
    1.2990   -3.3107    0.0000 C   0  0  0  0  0  0  0  0  0  0  0  0
    1.2990   -1.8107    0.0000 C   0  0  0  0  0  0  0  0  0  0  0  0
   -0.0000   -1.0607    0.0000 C   0  0  0  0  0  0  0  0  0  0  0  0
    1.0607    0.0000    0.0000 C   0  0  0  0  0  0  0  0  0  0  0  0
    0.0000    1.0607    0.0000 O   0  0  0  0  0  0  0  0  0  0  0  0
   -1.0607    0.0000    0.0000 C   0  0  0  0  0  0  0  0  0  0  0  0
   -1.2990   -1.8107    0.0000 C   0  0  0  0  0  0  0  0  0  0  0  0
  1  2  2  0
  2  3  1  0
  3  4  1  0
  4  5  1  0
  5  6  2  0
  6  7  1  0
  7  8  1  0
  8  9  1  0
  9 10  2  0
 10 11  1  0
 11 12  2  0
 12 13  1  0
 13 14  2  0
  7 15  1  0
  2 16  1  0
 16 17  2  0
 17 18  1  0
 18 19  1  0
 19 20  2  0
 20 21  1  0
 21 22  1  0
 22 23  1  0
 23 24  1  0
 24 25  1  0
 25 26  1  0
 23 27  1  0
 15  4  2  0
 20 16  1  0
 26 23  1  0
 14  9  1  0
 27 19  1  0
M  END
>  <Compound_ID>  (163) 
CHEMBL3298366

>  <Molecule Name>  (163) 
nan

>  <Molecular Weight>  (163) 
363.42

>  <AlogP>  (163) 
2.41

>  <Smiles>  (163) 
O=C(Nc1cnn(Cc2ccccc2)c1)c1n[nH]c2c1CCC1(COC1)C2

>  <Standard Type>  (163) 
Ki

>  <Standard Relation>  (163) 
'='

>  <Standard Units>  (163) 
nM

>  <Standard Value>  (163) 
75.0

>  <Assay ChEMBL ID>  (163) 
CHEMBL3380548

>  <Assay Description>  (163) 
Inhibition of GST-tagged full length ITK (unknown origin) using BLK peptide as substrate after 35 mins

>  <BAO Format ID>  (163) 
BAO_0000357

>  <BAO Label>  (163) 
single protein format

>  <Assay Organism>  (163) 
Homo sapiens

>  <Target ChEMBL ID>  (163) 
CHEMBL2959

>  <Target Name>  (163) 
Tyrosine-protein kinase ITK/TSK

>  <Target Organism>  (163) 
Homo sapiens

>  <Target Type>  (163) 
SINGLE PROTEIN

>  <Document ChEMBL ID>  (163) 
CHEMBL3297697

>  <Source Description>  (163) 
Scientific Literature

>  <Document Journal>  (163) 
J Med Chem

>  <Document Year>  (163) 
2014.0

>  <Active>  (163) 
1.0

$$$$

     RDKit          2D

 31 34  0  0  0  0  0  0  0  0999 V2000
    7.7669  -12.9277    0.0000 C   0  0  0  0  0  0  0  0  0  0  0  0
    6.8852  -11.7142    0.0000 N   0  0  0  0  0  0  0  0  0  0  0  0
    5.3935  -11.8710    0.0000 C   0  0  0  0  0  0  0  0  0  0  0  0
    7.4953  -10.3438    0.0000 C   0  0  0  0  0  0  0  0  0  0  0  0
    6.6137   -9.1303    0.0000 C   0  0  0  0  0  0  0  0  0  0  0  0
    7.2238   -7.7600    0.0000 C   0  0  0  0  0  0  0  0  0  0  0  0
    8.7155   -7.6032    0.0000 C   0  0  0  0  0  0  0  0  0  0  0  0
    9.5972   -8.8167    0.0000 C   0  0  0  0  0  0  0  0  0  0  0  0
   11.0890   -8.6599    0.0000 C   0  0  0  0  0  0  0  0  0  0  0  0
   11.6991   -7.2896    0.0000 C   0  0  0  0  0  0  0  0  0  0  0  0
   10.8174   -6.0761    0.0000 C   0  0  0  0  0  0  0  0  0  0  0  0
    9.3257   -6.2329    0.0000 C   0  0  0  0  0  0  0  0  0  0  0  0
    6.3421   -6.5465    0.0000 N   0  0  0  0  0  0  0  0  0  0  0  0
    4.8421   -6.5465    0.0000 C   0  0  0  0  0  0  0  0  0  0  0  0
    4.3786   -5.1199    0.0000 C   0  0  0  0  0  0  0  0  0  0  0  0
    2.9520   -4.6564    0.0000 N   0  0  0  0  0  0  0  0  0  0  0  0
    2.6401   -3.1891    0.0000 C   0  0  0  0  0  0  0  0  0  0  0  0
    3.7548   -2.1855    0.0000 O   0  0  0  0  0  0  0  0  0  0  0  0
    1.2135   -2.7256    0.0000 C   0  0  0  0  0  0  0  0  0  0  0  0
   -0.0000   -3.6073    0.0000 N   0  0  0  0  0  0  0  0  0  0  0  0
   -1.2135   -2.7256    0.0000 N   0  0  0  0  0  0  0  0  0  0  0  0
   -0.7500   -1.2990    0.0000 C   0  0  0  0  0  0  0  0  0  0  0  0
    0.7500   -1.2990    0.0000 C   0  0  0  0  0  0  0  0  0  0  0  0
    1.5000    0.0000    0.0000 C   0  0  0  0  0  0  0  0  0  0  0  0
    0.7500    1.2990    0.0000 C   0  0  0  0  0  0  0  0  0  0  0  0
   -0.7500    1.2990    0.0000 C   0  0  0  0  0  0  0  0  0  0  0  0
   -2.1595    1.8121    0.0000 C   0  0  0  0  0  0  0  0  0  0  0  0
   -0.4895    2.7762    0.0000 C   0  0  0  0  0  0  0  0  0  0  0  0
   -1.5000    0.0000    0.0000 C   0  0  0  0  0  0  0  0  0  0  0  0
    5.5921   -4.2382    0.0000 C   0  0  0  0  0  0  0  0  0  0  0  0
    6.8056   -5.1199    0.0000 N   0  0  0  0  0  0  0  0  0  0  0  0
  1  2  1  0
  2  3  1  0
  2  4  1  0
  4  5  1  0
  6  5  1  6
  6  7  1  0
  7  8  2  0
  8  9  1  0
  9 10  2  0
 10 11  1  0
 11 12  2  0
  6 13  1  0
 13 14  1  0
 14 15  2  0
 15 16  1  0
 16 17  1  0
 17 18  2  0
 17 19  1  0
 19 20  2  0
 20 21  1  0
 21 22  1  0
 22 23  2  0
 23 24  1  0
 24 25  1  0
 25 26  1  0
 26 27  1  0
 26 28  1  0
 26 29  1  0
 15 30  1  0
 30 31  2  0
 12  7  1  0
 31 13  1  0
 23 19  1  0
 29 22  1  0
M  END
>  <Compound_ID>  (164) 
CHEMBL3298371

>  <Molecule Name>  (164) 
nan

>  <Molecular Weight>  (164) 
420.56

>  <AlogP>  (164) 
3.91

>  <Smiles>  (164) 
CN(C)CC[C@@H](c1ccccc1)n1cc(NC(=O)c2n[nH]c3c2CCC(C)(C)C3)cn1

>  <Standard Type>  (164) 
Ki

>  <Standard Relation>  (164) 
'='

>  <Standard Units>  (164) 
nM

>  <Standard Value>  (164) 
0.7

>  <Assay ChEMBL ID>  (164) 
CHEMBL3380548

>  <Assay Description>  (164) 
Inhibition of GST-tagged full length ITK (unknown origin) using BLK peptide as substrate after 35 mins

>  <BAO Format ID>  (164) 
BAO_0000357

>  <BAO Label>  (164) 
single protein format

>  <Assay Organism>  (164) 
Homo sapiens

>  <Target ChEMBL ID>  (164) 
CHEMBL2959

>  <Target Name>  (164) 
Tyrosine-protein kinase ITK/TSK

>  <Target Organism>  (164) 
Homo sapiens

>  <Target Type>  (164) 
SINGLE PROTEIN

>  <Document ChEMBL ID>  (164) 
CHEMBL3297697

>  <Source Description>  (164) 
Scientific Literature

>  <Document Journal>  (164) 
J Med Chem

>  <Document Year>  (164) 
2014.0

>  <Active>  (164) 
1.0

$$$$

     RDKit          2D

 32 35  0  0  0  0  0  0  0  0999 V2000
    0.7500   -3.8971    0.0000 C   0  0  0  0  0  0  0  0  0  0  0  0
    1.5000   -2.5981    0.0000 N   0  0  0  0  0  0  0  0  0  0  0  0
    3.0000   -2.5981    0.0000 C   0  0  0  0  0  0  0  0  0  0  0  0
    3.7500   -1.2990    0.0000 O   0  0  0  0  0  0  0  0  0  0  0  0
    3.7500   -3.8971    0.0000 C   0  0  0  0  0  0  0  0  0  0  0  0
    3.0000   -5.1962    0.0000 C   0  0  0  0  0  0  0  0  0  0  0  0
    3.7500   -6.4952    0.0000 C   0  0  0  0  0  0  0  0  0  0  0  0
    5.2500   -6.4952    0.0000 C   0  0  0  0  0  0  0  0  0  0  0  0
    6.0000   -5.1962    0.0000 C   0  0  0  0  0  0  0  0  0  0  0  0
    5.2500   -3.8971    0.0000 C   0  0  0  0  0  0  0  0  0  0  0  0
    0.7500   -1.2990    0.0000 C   0  0  0  0  0  0  0  0  0  0  0  0
    1.5000    0.0000    0.0000 C   0  0  0  0  0  0  0  0  0  0  0  0
    0.7500    1.2990    0.0000 C   0  0  0  0  0  0  0  0  0  0  0  0
   -0.7500    1.2990    0.0000 C   0  0  0  0  0  0  0  0  0  0  0  0
   -1.5000    0.0000    0.0000 C   0  0  0  0  0  0  0  0  0  0  0  0
   -0.7500   -1.2990    0.0000 C   0  0  0  0  0  0  0  0  0  0  0  0
   -2.9672    0.3119    0.0000 N   0  0  0  0  0  0  0  0  0  0  0  0
   -3.1240    1.8037    0.0000 C   0  0  0  0  0  0  0  0  0  0  0  0
   -4.4231    2.5537    0.0000 N   0  0  0  0  0  0  0  0  0  0  0  0
   -4.4231    4.0537    0.0000 C   0  0  0  0  0  0  0  0  0  0  0  0
   -3.1240    4.8037    0.0000 O   0  0  0  0  0  0  0  0  0  0  0  0
   -5.7221    4.8037    0.0000 C   0  0  0  0  0  0  0  0  0  0  0  0
   -7.0924    4.1935    0.0000 C   0  0  0  0  0  0  0  0  0  0  0  0
   -8.0961    5.3083    0.0000 C   0  0  0  0  0  0  0  0  0  0  0  0
   -7.3461    6.6073    0.0000 O   0  0  0  0  0  0  0  0  0  0  0  0
   -5.8789    6.2954    0.0000 C   0  0  0  0  0  0  0  0  0  0  0  0
   -1.7537    2.4138    0.0000 N   0  0  0  0  0  0  0  0  0  0  0  0
   -1.4418    3.8810    0.0000 C   0  0  0  0  0  0  0  0  0  0  0  0
   -0.0152    4.3445    0.0000 C   0  0  0  0  0  0  0  0  0  0  0  0
    0.2966    5.8117    0.0000 C   0  0  0  0  0  0  0  0  0  0  0  0
    1.7232    6.2752    0.0000 N   0  0  0  0  0  0  0  0  0  0  0  0
   -0.8181    6.8154    0.0000 O   0  0  0  0  0  0  0  0  0  0  0  0
  1  2  1  0
  2  3  1  0
  3  4  2  0
  3  5  1  0
  5  6  2  0
  6  7  1  0
  7  8  2  0
  8  9  1  0
  9 10  2  0
  2 11  1  0
 11 12  2  0
 12 13  1  0
 13 14  2  0
 14 15  1  0
 15 16  2  0
 15 17  1  0
 17 18  2  0
 18 19  1  0
 19 20  1  0
 20 21  2  0
 20 22  1  0
 22 23  1  0
 23 24  2  0
 24 25  1  0
 25 26  1  0
 18 27  1  0
 27 28  1  0
 28 29  1  0
 29 30  1  0
 30 31  1  0
 30 32  2  0
 10  5  1  0
 16 11  1  0
 26 22  2  0
 27 14  1  0
M  END
>  <Compound_ID>  (165) 
CHEMBL460389

>  <Molecule Name>  (165) 
nan

>  <Molecular Weight>  (165) 
431.45

>  <AlogP>  (165) 
3.03

>  <Smiles>  (165) 
CN(C(=O)c1ccccc1)c1ccc2c(c1)nc(NC(=O)c1ccoc1)n2CCC(N)=O

>  <Standard Type>  (165) 
IC50

>  <Standard Relation>  (165) 
'='

>  <Standard Units>  (165) 
nM

>  <Standard Value>  (165) 
10.0

>  <Assay ChEMBL ID>  (165) 
CHEMBL992543

>  <Assay Description>  (165) 
Inhibition of recombinant ITK by DELFIA assay

>  <BAO Format ID>  (165) 
BAO_0000357

>  <BAO Label>  (165) 
single protein format

>  <Assay Organism>  (165) 
None

>  <Target ChEMBL ID>  (165) 
CHEMBL2959

>  <Target Name>  (165) 
Tyrosine-protein kinase ITK/TSK

>  <Target Organism>  (165) 
Homo sapiens

>  <Target Type>  (165) 
SINGLE PROTEIN

>  <Document ChEMBL ID>  (165) 
CHEMBL1142466

>  <Source Description>  (165) 
Scientific Literature

>  <Document Journal>  (165) 
Bioorg Med Chem Lett

>  <Document Year>  (165) 
2008.0

>  <Active>  (165) 
1.0

$$$$

     RDKit          2D

 37 40  0  0  0  0  0  0  0  0999 V2000
    0.7500   -6.4952    0.0000 C   0  0  0  0  0  0  0  0  0  0  0  0
    1.5000   -5.1962    0.0000 C   0  0  0  0  0  0  0  0  0  0  0  0
    0.7500   -3.8971    0.0000 C   0  0  0  0  0  0  0  0  0  0  0  0
    1.5000   -2.5981    0.0000 N   0  0  0  0  0  0  0  0  0  0  0  0
    3.0000   -2.5981    0.0000 C   0  0  0  0  0  0  0  0  0  0  0  0
    3.7500   -1.2990    0.0000 O   0  0  0  0  0  0  0  0  0  0  0  0
    3.7500   -3.8971    0.0000 C   0  0  0  0  0  0  0  0  0  0  0  0
    3.0000   -5.1962    0.0000 C   0  0  0  0  0  0  0  0  0  0  0  0
    3.7500   -6.4952    0.0000 C   0  0  0  0  0  0  0  0  0  0  0  0
    5.2500   -6.4952    0.0000 C   0  0  0  0  0  0  0  0  0  0  0  0
    6.0000   -5.1962    0.0000 C   0  0  0  0  0  0  0  0  0  0  0  0
    5.2500   -3.8971    0.0000 C   0  0  0  0  0  0  0  0  0  0  0  0
    0.7500   -1.2990    0.0000 C   0  0  0  0  0  0  0  0  0  0  0  0
    1.5000    0.0000    0.0000 C   0  0  0  0  0  0  0  0  0  0  0  0
    0.7500    1.2990    0.0000 C   0  0  0  0  0  0  0  0  0  0  0  0
   -0.7500    1.2990    0.0000 C   0  0  0  0  0  0  0  0  0  0  0  0
   -1.5000    0.0000    0.0000 C   0  0  0  0  0  0  0  0  0  0  0  0
   -0.7500   -1.2990    0.0000 C   0  0  0  0  0  0  0  0  0  0  0  0
   -2.9672    0.3119    0.0000 N   0  0  0  0  0  0  0  0  0  0  0  0
   -3.1240    1.8037    0.0000 C   0  0  0  0  0  0  0  0  0  0  0  0
   -4.4231    2.5537    0.0000 N   0  0  0  0  0  0  0  0  0  0  0  0
   -4.4231    4.0537    0.0000 C   0  0  0  0  0  0  0  0  0  0  0  0
   -3.1240    4.8037    0.0000 O   0  0  0  0  0  0  0  0  0  0  0  0
   -5.7221    4.8037    0.0000 C   0  0  0  0  0  0  0  0  0  0  0  0
   -5.7221    6.3037    0.0000 C   0  0  0  0  0  0  0  0  0  0  0  0
   -7.0211    7.0537    0.0000 C   0  0  0  0  0  0  0  0  0  0  0  0
   -8.3202    6.3037    0.0000 C   0  0  0  0  0  0  0  0  0  0  0  0
   -9.6192    7.0537    0.0000 C   0  0  0  0  0  0  0  0  0  0  0  0
  -10.9182    7.8037    0.0000 N   0  0  0  0  0  0  0  0  0  0  0  0
   -8.3202    4.8037    0.0000 C   0  0  0  0  0  0  0  0  0  0  0  0
   -7.0211    4.0537    0.0000 C   0  0  0  0  0  0  0  0  0  0  0  0
   -1.7537    2.4138    0.0000 N   0  0  0  0  0  0  0  0  0  0  0  0
   -1.4418    3.8810    0.0000 C   0  0  0  0  0  0  0  0  0  0  0  0
   -0.0152    4.3445    0.0000 C   0  0  0  0  0  0  0  0  0  0  0  0
    0.2966    5.8117    0.0000 C   0  0  0  0  0  0  0  0  0  0  0  0
    1.7232    6.2752    0.0000 N   0  0  0  0  0  0  0  0  0  0  0  0
   -0.8181    6.8154    0.0000 O   0  0  0  0  0  0  0  0  0  0  0  0
  1  2  1  0
  2  3  1  0
  3  4  1  0
  4  5  1  0
  5  6  2  0
  5  7  1  0
  7  8  2  0
  8  9  1  0
  9 10  2  0
 10 11  1  0
 11 12  2  0
  4 13  1  0
 13 14  2  0
 14 15  1  0
 15 16  2  0
 16 17  1  0
 17 18  2  0
 17 19  1  0
 19 20  2  0
 20 21  1  0
 21 22  1  0
 22 23  2  0
 22 24  1  0
 24 25  2  0
 25 26  1  0
 26 27  2  0
 27 28  1  0
 28 29  3  0
 27 30  1  0
 30 31  2  0
 20 32  1  0
 32 33  1  0
 33 34  1  0
 34 35  1  0
 35 36  1  0
 35 37  2  0
 12  7  1  0
 18 13  1  0
 31 24  1  0
 32 16  1  0
M  END
>  <Compound_ID>  (166) 
CHEMBL462514

>  <Molecule Name>  (166) 
nan

>  <Molecular Weight>  (166) 
494.56

>  <AlogP>  (166) 
4.09

>  <Smiles>  (166) 
CCCN(C(=O)c1ccccc1)c1ccc2c(c1)nc(NC(=O)c1ccc(C#N)cc1)n2CCC(N)=O

>  <Standard Type>  (166) 
IC50

>  <Standard Relation>  (166) 
'='

>  <Standard Units>  (166) 
nM

>  <Standard Value>  (166) 
18.0

>  <Assay ChEMBL ID>  (166) 
CHEMBL992543

>  <Assay Description>  (166) 
Inhibition of recombinant ITK by DELFIA assay

>  <BAO Format ID>  (166) 
BAO_0000357

>  <BAO Label>  (166) 
single protein format

>  <Assay Organism>  (166) 
None

>  <Target ChEMBL ID>  (166) 
CHEMBL2959

>  <Target Name>  (166) 
Tyrosine-protein kinase ITK/TSK

>  <Target Organism>  (166) 
Homo sapiens

>  <Target Type>  (166) 
SINGLE PROTEIN

>  <Document ChEMBL ID>  (166) 
CHEMBL1142466

>  <Source Description>  (166) 
Scientific Literature

>  <Document Journal>  (166) 
Bioorg Med Chem Lett

>  <Document Year>  (166) 
2008.0

>  <Active>  (166) 
1.0

$$$$

     RDKit          2D

 27 31  0  0  0  0  0  0  0  0999 V2000
   -2.5981   -5.1073    0.0000 O   0  0  0  0  0  0  0  0  0  0  0  0
   -1.2990   -5.8573    0.0000 C   0  0  0  0  0  0  0  0  0  0  0  0
   -0.0000   -5.1073    0.0000 N   0  0  0  0  0  0  0  0  0  0  0  0
   -0.0000   -3.6073    0.0000 C   0  0  0  0  0  0  0  0  0  0  0  0
    1.2135   -2.7256    0.0000 N   0  0  0  0  0  0  0  0  0  0  0  0
    0.7500   -1.2990    0.0000 C   0  0  0  0  0  0  0  0  0  0  0  0
    1.5000    0.0000    0.0000 C   0  0  0  0  0  0  0  0  0  0  0  0
    0.7500    1.2990    0.0000 C   0  0  0  0  0  0  0  0  0  0  0  0
   -0.7500    1.2990    0.0000 C   0  0  0  0  0  0  0  0  0  0  0  0
   -1.5000    2.5981    0.0000 C   0  0  0  0  0  0  0  0  0  0  0  0
   -0.7500    3.8971    0.0000 C   0  0  0  0  0  0  0  0  0  0  0  0
   -1.5000    5.1962    0.0000 C   0  0  0  0  0  0  0  0  0  0  0  0
   -3.0000    5.1962    0.0000 N   0  0  0  0  0  0  0  0  0  0  0  0
   -3.7500    3.8971    0.0000 C   0  0  0  0  0  0  0  0  0  0  0  0
   -3.0000    2.5981    0.0000 C   0  0  0  0  0  0  0  0  0  0  0  0
   -1.5000    0.0000    0.0000 C   0  0  0  0  0  0  0  0  0  0  0  0
   -0.7500   -1.2990    0.0000 C   0  0  0  0  0  0  0  0  0  0  0  0
   -1.2135   -2.7256    0.0000 S   0  0  0  0  0  0  0  0  0  0  0  0
   -1.2990   -7.3573    0.0000 C   0  0  0  0  0  0  0  0  0  0  0  0
   -0.5490   -8.6563    0.0000 C   0  0  0  0  0  0  0  0  0  0  0  0
   -2.0490   -8.6563    0.0000 C   0  0  0  0  0  0  0  0  0  0  0  0
   -3.3481   -9.4063    0.0000 C   0  0  0  0  0  0  0  0  0  0  0  0
   -4.6471   -8.6563    0.0000 C   0  0  0  0  0  0  0  0  0  0  0  0
   -5.9462   -9.4063    0.0000 C   0  0  0  0  0  0  0  0  0  0  0  0
   -5.9462  -10.9063    0.0000 C   0  0  0  0  0  0  0  0  0  0  0  0
   -4.6471  -11.6563    0.0000 C   0  0  0  0  0  0  0  0  0  0  0  0
   -3.3481  -10.9063    0.0000 C   0  0  0  0  0  0  0  0  0  0  0  0
  1  2  2  0
  2  3  1  0
  3  4  1  0
  4  5  2  0
  5  6  1  0
  6  7  2  0
  7  8  1  0
  8  9  2  0
  9 10  1  0
 10 11  2  0
 11 12  1  0
 12 13  2  0
 13 14  1  0
 14 15  2  0
  9 16  1  0
 16 17  2  0
 17 18  1  0
 19  2  1  1
 19 20  1  0
 20 21  1  0
 21 22  1  6
 22 23  2  0
 23 24  1  0
 24 25  2  0
 25 26  1  0
 26 27  2  0
 18  4  1  0
 21 19  1  0
 27 22  1  0
 17  6  1  0
 15 10  1  0
M  END
>  <Compound_ID>  (167) 
CHEMBL3086544

>  <Molecule Name>  (167) 
nan

>  <Molecular Weight>  (167) 
371.47

>  <AlogP>  (167) 
5.10

>  <Smiles>  (167) 
O=C(Nc1nc2ccc(-c3ccncc3)cc2s1)[C@H]1C[C@@H]1c1ccccc1

>  <Standard Type>  (167) 
Ki

>  <Standard Relation>  (167) 
'='

>  <Standard Units>  (167) 
nM

>  <Standard Value>  (167) 
50.0

>  <Assay ChEMBL ID>  (167) 
CHEMBL3088400

>  <Assay Description>  (167) 
Inhibition of full length GST-tagged ITK (unknown origin) using Ac-EFPIYDFLPAKKK-NH2 as substrate after 35 mins by LC/MS analysis

>  <BAO Format ID>  (167) 
BAO_0000357

>  <BAO Label>  (167) 
single protein format

>  <Assay Organism>  (167) 
Homo sapiens

>  <Target ChEMBL ID>  (167) 
CHEMBL2959

>  <Target Name>  (167) 
Tyrosine-protein kinase ITK/TSK

>  <Target Organism>  (167) 
Homo sapiens

>  <Target Type>  (167) 
SINGLE PROTEIN

>  <Document ChEMBL ID>  (167) 
CHEMBL3085719

>  <Source Description>  (167) 
Scientific Literature

>  <Document Journal>  (167) 
Bioorg Med Chem Lett

>  <Document Year>  (167) 
2013.0

>  <Active>  (167) 
1.0

$$$$

     RDKit          2D

 32 35  0  0  0  0  0  0  0  0999 V2000
    0.7500   -3.8971    0.0000 C   0  0  0  0  0  0  0  0  0  0  0  0
    1.5000   -2.5981    0.0000 N   0  0  0  0  0  0  0  0  0  0  0  0
    3.0000   -2.5981    0.0000 C   0  0  0  0  0  0  0  0  0  0  0  0
    3.7500   -1.2990    0.0000 O   0  0  0  0  0  0  0  0  0  0  0  0
    3.7500   -3.8971    0.0000 C   0  0  0  0  0  0  0  0  0  0  0  0
    5.0490   -4.6471    0.0000 C   0  0  0  0  0  0  0  0  0  0  0  0
    3.7500   -5.3971    0.0000 C   0  0  0  0  0  0  0  0  0  0  0  0
    0.7500   -1.2990    0.0000 C   0  0  0  0  0  0  0  0  0  0  0  0
    1.5000    0.0000    0.0000 C   0  0  0  0  0  0  0  0  0  0  0  0
    0.7500    1.2990    0.0000 C   0  0  0  0  0  0  0  0  0  0  0  0
   -0.7500    1.2990    0.0000 C   0  0  0  0  0  0  0  0  0  0  0  0
   -1.5000    0.0000    0.0000 C   0  0  0  0  0  0  0  0  0  0  0  0
   -0.7500   -1.2990    0.0000 C   0  0  0  0  0  0  0  0  0  0  0  0
   -2.9672    0.3119    0.0000 N   0  0  0  0  0  0  0  0  0  0  0  0
   -3.1240    1.8037    0.0000 C   0  0  0  0  0  0  0  0  0  0  0  0
   -4.4231    2.5537    0.0000 N   0  0  0  0  0  0  0  0  0  0  0  0
   -4.4231    4.0537    0.0000 C   0  0  0  0  0  0  0  0  0  0  0  0
   -3.1240    4.8037    0.0000 O   0  0  0  0  0  0  0  0  0  0  0  0
   -5.7221    4.8037    0.0000 C   0  0  0  0  0  0  0  0  0  0  0  0
   -5.7221    6.3037    0.0000 C   0  0  0  0  0  0  0  0  0  0  0  0
   -7.0211    7.0537    0.0000 C   0  0  0  0  0  0  0  0  0  0  0  0
   -8.3202    6.3037    0.0000 C   0  0  0  0  0  0  0  0  0  0  0  0
   -9.6192    7.0537    0.0000 C   0  0  0  0  0  0  0  0  0  0  0  0
  -10.9182    7.8037    0.0000 N   0  0  0  0  0  0  0  0  0  0  0  0
   -8.3202    4.8037    0.0000 C   0  0  0  0  0  0  0  0  0  0  0  0
   -7.0211    4.0537    0.0000 C   0  0  0  0  0  0  0  0  0  0  0  0
   -1.7537    2.4138    0.0000 N   0  0  0  0  0  0  0  0  0  0  0  0
   -1.4418    3.8810    0.0000 C   0  0  0  0  0  0  0  0  0  0  0  0
   -0.0152    4.3445    0.0000 C   0  0  0  0  0  0  0  0  0  0  0  0
    0.2966    5.8117    0.0000 C   0  0  0  0  0  0  0  0  0  0  0  0
    1.7232    6.2752    0.0000 N   0  0  0  0  0  0  0  0  0  0  0  0
   -0.8181    6.8154    0.0000 O   0  0  0  0  0  0  0  0  0  0  0  0
  1  2  1  0
  2  3  1  0
  3  4  2  0
  3  5  1  0
  5  6  1  0
  6  7  1  0
  2  8  1  0
  8  9  2  0
  9 10  1  0
 10 11  2  0
 11 12  1  0
 12 13  2  0
 12 14  1  0
 14 15  2  0
 15 16  1  0
 16 17  1  0
 17 18  2  0
 17 19  1  0
 19 20  2  0
 20 21  1  0
 21 22  2  0
 22 23  1  0
 23 24  3  0
 22 25  1  0
 25 26  2  0
 15 27  1  0
 27 28  1  0
 28 29  1  0
 29 30  1  0
 30 31  1  0
 30 32  2  0
  7  5  1  0
 13  8  1  0
 26 19  1  0
 27 11  1  0
M  END
>  <Compound_ID>  (168) 
CHEMBL460823

>  <Molecule Name>  (168) 
nan

>  <Molecular Weight>  (168) 
430.47

>  <AlogP>  (168) 
2.41

>  <Smiles>  (168) 
CN(C(=O)C1CC1)c1ccc2c(c1)nc(NC(=O)c1ccc(C#N)cc1)n2CCC(N)=O

>  <Standard Type>  (168) 
IC50

>  <Standard Relation>  (168) 
'='

>  <Standard Units>  (168) 
nM

>  <Standard Value>  (168) 
46.0

>  <Assay ChEMBL ID>  (168) 
CHEMBL992563

>  <Assay Description>  (168) 
Inhibition of ITK by DELFIA assay

>  <BAO Format ID>  (168) 
BAO_0000357

>  <BAO Label>  (168) 
single protein format

>  <Assay Organism>  (168) 
None

>  <Target ChEMBL ID>  (168) 
CHEMBL2959

>  <Target Name>  (168) 
Tyrosine-protein kinase ITK/TSK

>  <Target Organism>  (168) 
Homo sapiens

>  <Target Type>  (168) 
SINGLE PROTEIN

>  <Document ChEMBL ID>  (168) 
CHEMBL1142468

>  <Source Description>  (168) 
Scientific Literature

>  <Document Journal>  (168) 
Bioorg Med Chem Lett

>  <Document Year>  (168) 
2008.0

>  <Active>  (168) 
1.0

$$$$

     RDKit          2D

 34 37  0  0  0  0  0  0  0  0999 V2000
   -7.7227   -2.1088    0.0000 C   0  0  0  0  0  0  0  0  0  0  0  0
   -6.2961   -1.6453    0.0000 O   0  0  0  0  0  0  0  0  0  0  0  0
   -5.1814   -2.6490    0.0000 C   0  0  0  0  0  0  0  0  0  0  0  0
   -3.7548   -2.1855    0.0000 C   0  0  0  0  0  0  0  0  0  0  0  0
   -2.6401   -3.1891    0.0000 C   0  0  0  0  0  0  0  0  0  0  0  0
   -1.2135   -2.7256    0.0000 N   0  0  0  0  0  0  0  0  0  0  0  0
   -0.0000   -3.6073    0.0000 C   0  0  0  0  0  0  0  0  0  0  0  0
   -0.0000   -5.1073    0.0000 N   0  0  0  0  0  0  0  0  0  0  0  0
   -1.2990   -5.8573    0.0000 C   0  0  0  0  0  0  0  0  0  0  0  0
   -2.5981   -5.1073    0.0000 O   0  0  0  0  0  0  0  0  0  0  0  0
   -1.2990   -7.3573    0.0000 C   0  0  0  0  0  0  0  0  0  0  0  0
   -2.5981   -8.1073    0.0000 C   0  0  0  0  0  0  0  0  0  0  0  0
   -2.5981   -9.6073    0.0000 C   0  0  0  0  0  0  0  0  0  0  0  0
   -1.2990  -10.3573    0.0000 C   0  0  0  0  0  0  0  0  0  0  0  0
   -0.0000   -9.6073    0.0000 C   0  0  0  0  0  0  0  0  0  0  0  0
    1.2990  -10.3573    0.0000 C   0  0  0  0  0  0  0  0  0  0  0  0
    2.5981  -11.1073    0.0000 N   0  0  0  0  0  0  0  0  0  0  0  0
   -0.0000   -8.1073    0.0000 C   0  0  0  0  0  0  0  0  0  0  0  0
    1.2135   -2.7256    0.0000 N   0  0  0  0  0  0  0  0  0  0  0  0
    0.7500   -1.2990    0.0000 C   0  0  0  0  0  0  0  0  0  0  0  0
    1.5000    0.0000    0.0000 C   0  0  0  0  0  0  0  0  0  0  0  0
    0.7500    1.2990    0.0000 C   0  0  0  0  0  0  0  0  0  0  0  0
    1.5000    2.5981    0.0000 C   0  0  0  0  0  0  0  0  0  0  0  0
    3.0000    2.5981    0.0000 N   0  0  0  0  0  0  0  0  0  0  0  0
    3.7500    3.8971    0.0000 C   0  0  0  0  0  0  0  0  0  0  0  0
    3.7500    1.2990    0.0000 C   0  0  0  0  0  0  0  0  0  0  0  0
    3.0000   -0.0000    0.0000 C   0  0  0  0  0  0  0  0  0  0  0  0
    3.7500   -1.2990    0.0000 C   0  0  0  0  0  0  0  0  0  0  0  0
    5.2500   -1.2990    0.0000 C   0  0  0  0  0  0  0  0  0  0  0  0
    6.0000   -0.0000    0.0000 C   0  0  0  0  0  0  0  0  0  0  0  0
    5.2500    1.2990    0.0000 C   0  0  0  0  0  0  0  0  0  0  0  0
   -0.7500    1.2990    0.0000 C   0  0  0  0  0  0  0  0  0  0  0  0
   -1.5000    0.0000    0.0000 C   0  0  0  0  0  0  0  0  0  0  0  0
   -0.7500   -1.2990    0.0000 C   0  0  0  0  0  0  0  0  0  0  0  0
  1  2  1  0
  2  3  1  0
  3  4  1  0
  4  5  1  0
  5  6  1  0
  6  7  1  0
  7  8  1  0
  8  9  1  0
  9 10  2  0
  9 11  1  0
 11 12  2  0
 12 13  1  0
 13 14  2  0
 14 15  1  0
 15 16  1  0
 16 17  3  0
 15 18  2  0
  7 19  2  0
 19 20  1  0
 20 21  2  0
 21 22  1  0
 22 23  1  0
 23 24  1  0
 24 25  1  0
 24 26  1  0
 26 27  1  0
 27 28  1  0
 28 29  1  0
 29 30  1  0
 30 31  1  0
 22 32  2  0
 32 33  1  0
 33 34  2  0
 34  6  1  0
 18 11  1  0
 34 20  1  0
 31 26  1  0
M  END
>  <Compound_ID>  (169) 
CHEMBL519088

>  <Molecule Name>  (169) 
nan

>  <Molecular Weight>  (169) 
459.59

>  <AlogP>  (169) 
4.96

>  <Smiles>  (169) 
COCCCn1c(NC(=O)c2cccc(C#N)c2)nc2cc(CN(C)C3CCCCC3)ccc21

>  <Standard Type>  (169) 
IC50

>  <Standard Relation>  (169) 
'='

>  <Standard Units>  (169) 
nM

>  <Standard Value>  (169) 
20.0

>  <Assay ChEMBL ID>  (169) 
CHEMBL1006237

>  <Assay Description>  (169) 
Inhibition of ITK by DELPHIA assay

>  <BAO Format ID>  (169) 
BAO_0000357

>  <BAO Label>  (169) 
single protein format

>  <Assay Organism>  (169) 
None

>  <Target ChEMBL ID>  (169) 
CHEMBL2959

>  <Target Name>  (169) 
Tyrosine-protein kinase ITK/TSK

>  <Target Organism>  (169) 
Homo sapiens

>  <Target Type>  (169) 
SINGLE PROTEIN

>  <Document ChEMBL ID>  (169) 
CHEMBL1152240

>  <Source Description>  (169) 
Scientific Literature

>  <Document Journal>  (169) 
Bioorg Med Chem Lett

>  <Document Year>  (169) 
2008.0

>  <Active>  (169) 
1.0

$$$$

     RDKit          2D

 22 24  0  0  0  0  0  0  0  0999 V2000
   10.5000   -5.1962    0.0000 C   0  0  0  0  0  0  0  0  0  0  0  0
    9.0000   -5.1962    0.0000 C   0  0  0  0  0  0  0  0  0  0  0  0
    7.5000   -5.1962    0.0000 C   0  0  0  0  0  0  0  0  0  0  0  0
    6.0000   -5.1962    0.0000 C   0  0  0  0  0  0  0  0  0  0  0  0
    5.2500   -6.4952    0.0000 O   0  0  0  0  0  0  0  0  0  0  0  0
    5.2500   -3.8971    0.0000 N   0  0  0  0  0  0  0  0  0  0  0  0
    3.7500   -3.8971    0.0000 C   0  0  0  0  0  0  0  0  0  0  0  0
    3.0000   -5.1962    0.0000 C   0  0  0  0  0  0  0  0  0  0  0  0
    1.5000   -5.1962    0.0000 C   0  0  0  0  0  0  0  0  0  0  0  0
    0.7500   -3.8971    0.0000 C   0  0  0  0  0  0  0  0  0  0  0  0
    1.5000   -2.5981    0.0000 C   0  0  0  0  0  0  0  0  0  0  0  0
    0.7500   -1.2990    0.0000 C   0  0  0  0  0  0  0  0  0  0  0  0
    1.5000    0.0000    0.0000 C   0  0  0  0  0  0  0  0  0  0  0  0
    0.7500    1.2990    0.0000 N   0  0  0  0  0  0  0  0  0  0  0  0
   -0.7500    1.2990    0.0000 C   0  0  0  0  0  0  0  0  0  0  0  0
   -1.7537    2.4138    0.0000 N   0  0  0  0  0  0  0  0  0  0  0  0
   -3.1240    1.8037    0.0000 C   0  0  0  0  0  0  0  0  0  0  0  0
   -2.9672    0.3119    0.0000 C   0  0  0  0  0  0  0  0  0  0  0  0
   -4.0819   -0.6918    0.0000 Cl  0  0  0  0  0  0  0  0  0  0  0  0
   -1.5000    0.0000    0.0000 C   0  0  0  0  0  0  0  0  0  0  0  0
   -0.7500   -1.2990    0.0000 C   0  0  0  0  0  0  0  0  0  0  0  0
    3.0000   -2.5981    0.0000 C   0  0  0  0  0  0  0  0  0  0  0  0
  1  2  1  0
  2  3  3  0
  3  4  1  0
  4  5  2  0
  4  6  1  0
  6  7  1  0
  7  8  2  0
  8  9  1  0
  9 10  2  0
 10 11  1  0
 11 12  1  0
 12 13  2  0
 13 14  1  0
 14 15  2  0
 15 16  1  0
 16 17  1  0
 17 18  2  0
 18 19  1  0
 18 20  1  0
 20 21  2  0
 11 22  2  0
 22  7  1  0
 21 12  1  0
 20 15  1  0
M  END
>  <Compound_ID>  (170) 
CHEMBL3919260

>  <Molecule Name>  (170) 
nan

>  <Molecular Weight>  (170) 
309.76

>  <AlogP>  (170) 
3.85

>  <Smiles>  (170) 
CC#CC(=O)Nc1cccc(-c2cnc3[nH]cc(Cl)c3c2)c1

>  <Standard Type>  (170) 
IC50

>  <Standard Relation>  (170) 
'='

>  <Standard Units>  (170) 
nM

>  <Standard Value>  (170) 
35.0

>  <Assay ChEMBL ID>  (170) 
CHEMBL3887687

>  <Assay Description>  (170) 
Biochemical Inhibition Assay: 1H-pyrrolo[2,3-b]pyridine, 1H-pyrazolo[3,4-b]pyridine and 5H-pyrrolo[2,3-b]pyrazine series of compounds exhibited over >100 fold selective against Janus and TEC family of kinases except for the BMX and TXK it had activity of 30 and 45 nM respectively.

>  <BAO Format ID>  (170) 
BAO_0000357

>  <BAO Label>  (170) 
single protein format

>  <Assay Organism>  (170) 
Homo sapiens

>  <Target ChEMBL ID>  (170) 
CHEMBL2959

>  <Target Name>  (170) 
Tyrosine-protein kinase ITK/TSK

>  <Target Organism>  (170) 
Homo sapiens

>  <Target Type>  (170) 
SINGLE PROTEIN

>  <Document ChEMBL ID>  (170) 
CHEMBL3886406

>  <Source Description>  (170) 
BindingDB Database

>  <Document Journal>  (170) 
nan

>  <Document Year>  (170) 
2015.0

>  <Active>  (170) 
1.0

$$$$

     RDKit          2D

 31 35  0  0  0  0  0  0  0  0999 V2000
    8.6486  -14.1412    0.0000 N   0  0  0  0  0  0  0  0  0  0  0  0
    7.7669  -12.9277    0.0000 C   0  0  0  0  0  0  0  0  0  0  0  0
    6.8852  -11.7142    0.0000 C   0  0  0  0  0  0  0  0  0  0  0  0
    5.3935  -11.8710    0.0000 C   0  0  0  0  0  0  0  0  0  0  0  0
    4.5118  -10.6574    0.0000 C   0  0  0  0  0  0  0  0  0  0  0  0
    5.1219   -9.2871    0.0000 C   0  0  0  0  0  0  0  0  0  0  0  0
    6.6137   -9.1303    0.0000 C   0  0  0  0  0  0  0  0  0  0  0  0
    7.2238   -7.7600    0.0000 C   0  0  0  0  0  0  0  0  0  0  0  0
    6.3421   -6.5465    0.0000 N   0  0  0  0  0  0  0  0  0  0  0  0
    4.8421   -6.5465    0.0000 C   0  0  0  0  0  0  0  0  0  0  0  0
    4.3786   -5.1199    0.0000 C   0  0  0  0  0  0  0  0  0  0  0  0
    2.9520   -4.6564    0.0000 N   0  0  0  0  0  0  0  0  0  0  0  0
    2.6401   -3.1891    0.0000 C   0  0  0  0  0  0  0  0  0  0  0  0
    3.7548   -2.1855    0.0000 O   0  0  0  0  0  0  0  0  0  0  0  0
    1.2135   -2.7256    0.0000 C   0  0  0  0  0  0  0  0  0  0  0  0
   -0.0000   -3.6073    0.0000 N   0  0  0  0  0  0  0  0  0  0  0  0
   -1.2135   -2.7256    0.0000 N   0  0  0  0  0  0  0  0  0  0  0  0
   -0.7500   -1.2990    0.0000 C   0  0  0  0  0  0  0  0  0  0  0  0
    0.7500   -1.2990    0.0000 C   0  0  0  0  0  0  0  0  0  0  0  0
    1.5000    0.0000    0.0000 C   0  0  0  0  0  0  0  0  0  0  0  0
    0.7500    1.2990    0.0000 C   0  0  0  0  0  0  0  0  0  0  0  0
    1.5000    2.5981    0.0000 C   0  0  0  0  0  0  0  0  0  0  0  0
    0.8899    3.9684    0.0000 C   0  0  0  0  0  0  0  0  0  0  0  0
    2.0046    4.9721    0.0000 N   0  0  0  0  0  0  0  0  0  0  0  0
    3.3037    4.2221    0.0000 N   0  0  0  0  0  0  0  0  0  0  0  0
    2.9918    2.7549    0.0000 C   0  0  0  0  0  0  0  0  0  0  0  0
   -0.7500    1.2990    0.0000 C   0  0  0  0  0  0  0  0  0  0  0  0
   -1.5000    0.0000    0.0000 C   0  0  0  0  0  0  0  0  0  0  0  0
    5.5921   -4.2382    0.0000 C   0  0  0  0  0  0  0  0  0  0  0  0
    6.8056   -5.1199    0.0000 N   0  0  0  0  0  0  0  0  0  0  0  0
    7.4953  -10.3438    0.0000 C   0  0  0  0  0  0  0  0  0  0  0  0
  1  2  3  0
  2  3  1  0
  3  4  2  0
  4  5  1  0
  5  6  2  0
  6  7  1  0
  7  8  1  0
  8  9  1  0
  9 10  1  0
 10 11  2  0
 11 12  1  0
 12 13  1  0
 13 14  2  0
 13 15  1  0
 15 16  2  0
 16 17  1  0
 17 18  1  0
 18 19  2  0
 19 20  1  0
 20 21  1  0
 21 22  1  0
 22 23  1  0
 23 24  2  0
 24 25  1  0
 25 26  1  0
 21 27  1  0
 27 28  1  0
 11 29  1  0
 29 30  2  0
  7 31  2  0
 31  3  1  0
 30  9  1  0
 19 15  1  0
 26 22  2  0
 28 18  1  0
M  END
>  <Compound_ID>  (171) 
CHEMBL3298286

>  <Molecule Name>  (171) 
nan

>  <Molecular Weight>  (171) 
412.46

>  <AlogP>  (171) 
2.77

>  <Smiles>  (171) 
N#Cc1cccc(Cn2cc(NC(=O)c3n[nH]c4c3CC(c3cn[nH]c3)CC4)cn2)c1

>  <Standard Type>  (171) 
Ki

>  <Standard Relation>  (171) 
'='

>  <Standard Units>  (171) 
nM

>  <Standard Value>  (171) 
9.4

>  <Assay ChEMBL ID>  (171) 
CHEMBL3380548

>  <Assay Description>  (171) 
Inhibition of GST-tagged full length ITK (unknown origin) using BLK peptide as substrate after 35 mins

>  <BAO Format ID>  (171) 
BAO_0000357

>  <BAO Label>  (171) 
single protein format

>  <Assay Organism>  (171) 
Homo sapiens

>  <Target ChEMBL ID>  (171) 
CHEMBL2959

>  <Target Name>  (171) 
Tyrosine-protein kinase ITK/TSK

>  <Target Organism>  (171) 
Homo sapiens

>  <Target Type>  (171) 
SINGLE PROTEIN

>  <Document ChEMBL ID>  (171) 
CHEMBL3297697

>  <Source Description>  (171) 
Scientific Literature

>  <Document Journal>  (171) 
J Med Chem

>  <Document Year>  (171) 
2014.0

>  <Active>  (171) 
1.0

$$$$

     RDKit          2D

 32 35  0  0  0  0  0  0  0  0999 V2000
   11.4275   -4.7058    0.0000 C   0  0  0  0  0  0  0  0  0  0  0  0
   10.8174   -6.0761    0.0000 C   0  0  0  0  0  0  0  0  0  0  0  0
   11.6991   -7.2896    0.0000 C   0  0  0  0  0  0  0  0  0  0  0  0
   11.0890   -8.6599    0.0000 C   0  0  0  0  0  0  0  0  0  0  0  0
    9.5972   -8.8167    0.0000 C   0  0  0  0  0  0  0  0  0  0  0  0
    8.7155   -7.6032    0.0000 C   0  0  0  0  0  0  0  0  0  0  0  0
    7.2238   -7.7600    0.0000 C   0  0  0  0  0  0  0  0  0  0  0  0
    6.6137   -9.1303    0.0000 C   0  0  0  0  0  0  0  0  0  0  0  0
    7.4953  -10.3438    0.0000 C   0  0  0  0  0  0  0  0  0  0  0  0
    6.8852  -11.7142    0.0000 N   0  0  0  0  0  0  0  0  0  0  0  0
    7.7669  -12.9277    0.0000 C   0  0  0  0  0  0  0  0  0  0  0  0
    5.3935  -11.8710    0.0000 C   0  0  0  0  0  0  0  0  0  0  0  0
    6.3421   -6.5465    0.0000 N   0  0  0  0  0  0  0  0  0  0  0  0
    4.8421   -6.5465    0.0000 C   0  0  0  0  0  0  0  0  0  0  0  0
    4.3786   -5.1199    0.0000 C   0  0  0  0  0  0  0  0  0  0  0  0
    2.9520   -4.6564    0.0000 N   0  0  0  0  0  0  0  0  0  0  0  0
    2.6401   -3.1891    0.0000 C   0  0  0  0  0  0  0  0  0  0  0  0
    3.7548   -2.1855    0.0000 O   0  0  0  0  0  0  0  0  0  0  0  0
    1.2135   -2.7256    0.0000 C   0  0  0  0  0  0  0  0  0  0  0  0
   -0.0000   -3.6073    0.0000 N   0  0  0  0  0  0  0  0  0  0  0  0
   -1.2135   -2.7256    0.0000 N   0  0  0  0  0  0  0  0  0  0  0  0
   -0.7500   -1.2990    0.0000 C   0  0  0  0  0  0  0  0  0  0  0  0
    0.7500   -1.2990    0.0000 C   0  0  0  0  0  0  0  0  0  0  0  0
    1.5000    0.0000    0.0000 C   0  0  0  0  0  0  0  0  0  0  0  0
    0.7500    1.2990    0.0000 C   0  0  0  0  0  0  0  0  0  0  0  0
   -0.7500    1.2990    0.0000 C   0  0  0  0  0  0  0  0  0  0  0  0
   -2.1595    1.8121    0.0000 C   0  0  0  0  0  0  0  0  0  0  0  0
   -0.4895    2.7762    0.0000 C   0  0  0  0  0  0  0  0  0  0  0  0
   -1.5000    0.0000    0.0000 C   0  0  0  0  0  0  0  0  0  0  0  0
    5.5921   -4.2382    0.0000 C   0  0  0  0  0  0  0  0  0  0  0  0
    6.8056   -5.1199    0.0000 N   0  0  0  0  0  0  0  0  0  0  0  0
    9.3257   -6.2329    0.0000 C   0  0  0  0  0  0  0  0  0  0  0  0
  1  2  1  0
  2  3  2  0
  3  4  1  0
  4  5  2  0
  5  6  1  0
  6  7  1  0
  7  8  1  6
  8  9  1  0
  9 10  1  0
 10 11  1  0
 10 12  1  0
  7 13  1  0
 13 14  1  0
 14 15  2  0
 15 16  1  0
 16 17  1  0
 17 18  2  0
 17 19  1  0
 19 20  2  0
 20 21  1  0
 21 22  1  0
 22 23  2  0
 23 24  1  0
 24 25  1  0
 25 26  1  0
 26 27  1  0
 26 28  1  0
 26 29  1  0
 15 30  1  0
 30 31  2  0
  6 32  2  0
 32  2  1  0
 31 13  1  0
 23 19  1  0
 29 22  1  0
M  END
>  <Compound_ID>  (172) 
CHEMBL3298375

>  <Molecule Name>  (172) 
nan

>  <Molecular Weight>  (172) 
434.59

>  <AlogP>  (172) 
4.22

>  <Smiles>  (172) 
Cc1cccc([C@H](CCN(C)C)n2cc(NC(=O)c3n[nH]c4c3CCC(C)(C)C4)cn2)c1

>  <Standard Type>  (172) 
Ki

>  <Standard Relation>  (172) 
'='

>  <Standard Units>  (172) 
nM

>  <Standard Value>  (172) 
0.7

>  <Assay ChEMBL ID>  (172) 
CHEMBL3380548

>  <Assay Description>  (172) 
Inhibition of GST-tagged full length ITK (unknown origin) using BLK peptide as substrate after 35 mins

>  <BAO Format ID>  (172) 
BAO_0000357

>  <BAO Label>  (172) 
single protein format

>  <Assay Organism>  (172) 
Homo sapiens

>  <Target ChEMBL ID>  (172) 
CHEMBL2959

>  <Target Name>  (172) 
Tyrosine-protein kinase ITK/TSK

>  <Target Organism>  (172) 
Homo sapiens

>  <Target Type>  (172) 
SINGLE PROTEIN

>  <Document ChEMBL ID>  (172) 
CHEMBL3297697

>  <Source Description>  (172) 
Scientific Literature

>  <Document Journal>  (172) 
J Med Chem

>  <Document Year>  (172) 
2014.0

>  <Active>  (172) 
1.0

$$$$

     RDKit          2D

 46 51  0  0  0  0  0  0  0  0999 V2000
   -5.2500   -3.8971    0.0000 C   0  0  0  0  0  0  0  0  0  0  0  0
   -3.7500   -3.8971    0.0000 O   0  0  0  0  0  0  0  0  0  0  0  0
   -3.0000   -2.5981    0.0000 C   0  0  0  0  0  0  0  0  0  0  0  0
   -1.5000   -2.5981    0.0000 C   0  0  0  0  0  0  0  0  0  0  0  0
   -0.7500   -1.2990    0.0000 C   0  0  0  0  0  0  0  0  0  0  0  0
    0.7500   -1.2990    0.0000 C   0  0  0  0  0  0  0  0  0  0  0  0
    1.5000   -2.5981    0.0000 O   0  0  0  0  0  0  0  0  0  0  0  0
    3.0000   -2.5981    0.0000 C   0  0  0  0  0  0  0  0  0  0  0  0
    3.7500   -3.8971    0.0000 C   0  0  0  0  0  0  0  0  0  0  0  0
    5.2500   -3.8971    0.0000 C   0  0  0  0  0  0  0  0  0  0  0  0
    6.0000   -2.5981    0.0000 C   0  0  0  0  0  0  0  0  0  0  0  0
    7.5000   -2.5981    0.0000 N   0  0  0  0  0  0  0  0  0  0  0  0
    8.2500   -3.8971    0.0000 C   0  0  0  0  0  0  0  0  0  0  0  0
    7.5000   -5.1962    0.0000 O   0  0  0  0  0  0  0  0  0  0  0  0
    9.7500   -3.8971    0.0000 C   0  0  0  0  0  0  0  0  0  0  0  0
   10.0105   -2.4199    0.0000 C   0  0  0  0  0  0  0  0  0  0  0  0
    8.8614   -1.4557    0.0000 O   0  0  0  0  0  0  0  0  0  0  0  0
   11.4200   -1.9069    0.0000 N   0  0  0  0  0  0  0  0  0  0  0  0
   11.6805   -0.4297    0.0000 C   0  0  0  0  0  0  0  0  0  0  0  0
   13.0900    0.0834    0.0000 C   0  0  0  0  0  0  0  0  0  0  0  0
   13.3505    1.5606    0.0000 C   0  0  0  0  0  0  0  0  0  0  0  0
   12.2014    2.5248    0.0000 C   0  0  0  0  0  0  0  0  0  0  0  0
   12.4619    4.0020    0.0000 F   0  0  0  0  0  0  0  0  0  0  0  0
   10.7919    2.0117    0.0000 C   0  0  0  0  0  0  0  0  0  0  0  0
   10.5314    0.5345    0.0000 C   0  0  0  0  0  0  0  0  0  0  0  0
   11.1595   -4.4101    0.0000 C   0  0  0  0  0  0  0  0  0  0  0  0
   10.0105   -5.3743    0.0000 C   0  0  0  0  0  0  0  0  0  0  0  0
    5.2500   -1.2990    0.0000 C   0  0  0  0  0  0  0  0  0  0  0  0
    3.7500   -1.2990    0.0000 C   0  0  0  0  0  0  0  0  0  0  0  0
    3.0000   -0.0000    0.0000 F   0  0  0  0  0  0  0  0  0  0  0  0
    1.5000    0.0000    0.0000 C   0  0  0  0  0  0  0  0  0  0  0  0
    0.7500    1.2990    0.0000 C   0  0  0  0  0  0  0  0  0  0  0  0
   -0.7500    1.2990    0.0000 N   0  0  0  0  0  0  0  0  0  0  0  0
   -1.5000    0.0000    0.0000 C   0  0  0  0  0  0  0  0  0  0  0  0
   -3.0000    0.0000    0.0000 C   0  0  0  0  0  0  0  0  0  0  0  0
   -3.7500   -1.2990    0.0000 C   0  0  0  0  0  0  0  0  0  0  0  0
   -5.2500   -1.2990    0.0000 O   0  0  0  0  0  0  0  0  0  0  0  0
   -6.0000    0.0000    0.0000 C   0  0  0  0  0  0  0  0  0  0  0  0
   -7.5000    0.0000    0.0000 C   0  0  0  0  0  0  0  0  0  0  0  0
   -8.2500    1.2990    0.0000 C   0  0  0  0  0  0  0  0  0  0  0  0
   -9.7500    1.2990    0.0000 N   0  0  0  0  0  0  0  0  0  0  0  0
  -10.5000    2.5981    0.0000 C   0  0  0  0  0  0  0  0  0  0  0  0
  -12.0000    2.5981    0.0000 C   0  0  0  0  0  0  0  0  0  0  0  0
  -12.7500    1.2990    0.0000 O   0  0  0  0  0  0  0  0  0  0  0  0
  -12.0000    0.0000    0.0000 C   0  0  0  0  0  0  0  0  0  0  0  0
  -10.5000    0.0000    0.0000 C   0  0  0  0  0  0  0  0  0  0  0  0
  1  2  1  0
  2  3  1  0
  3  4  2  0
  4  5  1  0
  5  6  2  0
  6  7  1  0
  7  8  1  0
  8  9  2  0
  9 10  1  0
 10 11  2  0
 11 12  1  0
 12 13  1  0
 13 14  2  0
 13 15  1  0
 15 16  1  0
 16 17  2  0
 16 18  1  0
 18 19  1  0
 19 20  2  0
 20 21  1  0
 21 22  2  0
 22 23  1  0
 22 24  1  0
 24 25  2  0
 15 26  1  0
 26 27  1  0
 11 28  1  0
 28 29  2  0
 29 30  1  0
  6 31  1  0
 31 32  2  0
 32 33  1  0
 33 34  2  0
 34 35  1  0
 35 36  2  0
 36 37  1  0
 37 38  1  0
 38 39  1  0
 39 40  1  0
 40 41  1  0
 41 42  1  0
 42 43  1  0
 43 44  1  0
 44 45  1  0
 45 46  1  0
 36  3  1  0
 46 41  1  0
 34  5  1  0
 29  8  1  0
 27 15  1  0
 25 19  1  0
M  END
>  <Compound_ID>  (173) 
CHEMBL1230609

>  <Molecule Name>  (173) 
FORETINIB

>  <Molecular Weight>  (173) 
632.66

>  <AlogP>  (173) 
5.77

>  <Smiles>  (173) 
COc1cc2c(Oc3ccc(NC(=O)C4(C(=O)Nc5ccc(F)cc5)CC4)cc3F)ccnc2cc1OCCCN1CCOCC1

>  <Standard Type>  (173) 
Kd

>  <Standard Relation>  (173) 
'='

>  <Standard Units>  (173) 
nM

>  <Standard Value>  (173) 
69.0

>  <Assay ChEMBL ID>  (173) 
CHEMBL1908717

>  <Assay Description>  (173) 
Binding constant for ITK kinase domain

>  <BAO Format ID>  (173) 
BAO_0000357

>  <BAO Label>  (173) 
single protein format

>  <Assay Organism>  (173) 
None

>  <Target ChEMBL ID>  (173) 
CHEMBL2959

>  <Target Name>  (173) 
Tyrosine-protein kinase ITK/TSK

>  <Target Organism>  (173) 
Homo sapiens

>  <Target Type>  (173) 
SINGLE PROTEIN

>  <Document ChEMBL ID>  (173) 
CHEMBL1908390

>  <Source Description>  (173) 
Scientific Literature

>  <Document Journal>  (173) 
Nat Biotechnol

>  <Document Year>  (173) 
2011.0

>  <Active>  (173) 
1.0

$$$$

     RDKit          2D

 38 42  0  0  0  0  0  0  0  0999 V2000
    0.7500   -3.8971    0.0000 C   0  0  0  0  0  0  0  0  0  0  0  0
    1.5000   -2.5981    0.0000 N   0  0  0  0  0  0  0  0  0  0  0  0
    3.0000   -2.5981    0.0000 C   0  0  0  0  0  0  0  0  0  0  0  0
    3.7500   -1.2990    0.0000 O   0  0  0  0  0  0  0  0  0  0  0  0
    3.7500   -3.8971    0.0000 C   0  0  0  0  0  0  0  0  0  0  0  0
    3.0000   -5.1962    0.0000 C   0  0  0  0  0  0  0  0  0  0  0  0
    3.7500   -6.4952    0.0000 C   0  0  0  0  0  0  0  0  0  0  0  0
    5.2500   -6.4952    0.0000 C   0  0  0  0  0  0  0  0  0  0  0  0
    6.0000   -5.1962    0.0000 C   0  0  0  0  0  0  0  0  0  0  0  0
    5.2500   -3.8971    0.0000 C   0  0  0  0  0  0  0  0  0  0  0  0
    0.7500   -1.2990    0.0000 C   0  0  0  0  0  0  0  0  0  0  0  0
    1.5000    0.0000    0.0000 C   0  0  0  0  0  0  0  0  0  0  0  0
    0.7500    1.2990    0.0000 C   0  0  0  0  0  0  0  0  0  0  0  0
   -0.7500    1.2990    0.0000 C   0  0  0  0  0  0  0  0  0  0  0  0
   -1.5000    0.0000    0.0000 C   0  0  0  0  0  0  0  0  0  0  0  0
   -0.7500   -1.2990    0.0000 C   0  0  0  0  0  0  0  0  0  0  0  0
   -2.9672    0.3119    0.0000 N   0  0  0  0  0  0  0  0  0  0  0  0
   -3.1240    1.8037    0.0000 C   0  0  0  0  0  0  0  0  0  0  0  0
   -4.4231    2.5537    0.0000 N   0  0  0  0  0  0  0  0  0  0  0  0
   -4.4231    4.0537    0.0000 C   0  0  0  0  0  0  0  0  0  0  0  0
   -3.1240    4.8037    0.0000 O   0  0  0  0  0  0  0  0  0  0  0  0
   -5.7221    4.8037    0.0000 C   0  0  0  0  0  0  0  0  0  0  0  0
   -5.7221    6.3037    0.0000 C   0  0  0  0  0  0  0  0  0  0  0  0
   -7.0211    7.0537    0.0000 C   0  0  0  0  0  0  0  0  0  0  0  0
   -8.3202    6.3037    0.0000 C   0  0  0  0  0  0  0  0  0  0  0  0
   -9.6192    7.0537    0.0000 C   0  0  0  0  0  0  0  0  0  0  0  0
  -10.9182    7.8037    0.0000 N   0  0  0  0  0  0  0  0  0  0  0  0
   -8.3202    4.8037    0.0000 C   0  0  0  0  0  0  0  0  0  0  0  0
   -7.0211    4.0537    0.0000 C   0  0  0  0  0  0  0  0  0  0  0  0
   -1.7537    2.4138    0.0000 N   0  0  0  0  0  0  0  0  0  0  0  0
   -1.4418    3.8810    0.0000 C   0  0  0  0  0  0  0  0  0  0  0  0
   -0.0152    4.3445    0.0000 C   0  0  0  0  0  0  0  0  0  0  0  0
    0.2966    5.8117    0.0000 C   0  0  0  0  0  0  0  0  0  0  0  0
    1.7232    6.2752    0.0000 C   0  0  0  0  0  0  0  0  0  0  0  0
    2.0351    7.7425    0.0000 C   0  0  0  0  0  0  0  0  0  0  0  0
    0.9204    8.7462    0.0000 C   0  0  0  0  0  0  0  0  0  0  0  0
   -0.5062    8.2826    0.0000 C   0  0  0  0  0  0  0  0  0  0  0  0
   -0.8181    6.8154    0.0000 C   0  0  0  0  0  0  0  0  0  0  0  0
  1  2  1  0
  2  3  1  0
  3  4  2  0
  3  5  1  0
  5  6  1  0
  6  7  1  0
  7  8  1  0
  8  9  1  0
  9 10  1  0
  2 11  1  0
 11 12  2  0
 12 13  1  0
 13 14  2  0
 14 15  1  0
 15 16  2  0
 15 17  1  0
 17 18  2  0
 18 19  1  0
 19 20  1  0
 20 21  2  0
 20 22  1  0
 22 23  2  0
 23 24  1  0
 24 25  2  0
 25 26  1  0
 26 27  3  0
 25 28  1  0
 28 29  2  0
 18 30  1  0
 30 31  1  0
 31 32  1  0
 32 33  1  0
 33 34  2  0
 34 35  1  0
 35 36  2  0
 36 37  1  0
 37 38  2  0
 10  5  1  0
 16 11  1  0
 29 22  1  0
 38 33  1  0
 30 14  1  0
M  END
>  <Compound_ID>  (174) 
CHEMBL519347

>  <Molecule Name>  (174) 
nan

>  <Molecular Weight>  (174) 
505.62

>  <AlogP>  (174) 
5.95

>  <Smiles>  (174) 
CN(C(=O)C1CCCCC1)c1ccc2c(c1)nc(NC(=O)c1ccc(C#N)cc1)n2CCc1ccccc1

>  <Standard Type>  (174) 
IC50

>  <Standard Relation>  (174) 
'='

>  <Standard Units>  (174) 
nM

>  <Standard Value>  (174) 
6.0

>  <Assay ChEMBL ID>  (174) 
CHEMBL992563

>  <Assay Description>  (174) 
Inhibition of ITK by DELFIA assay

>  <BAO Format ID>  (174) 
BAO_0000357

>  <BAO Label>  (174) 
single protein format

>  <Assay Organism>  (174) 
None

>  <Target ChEMBL ID>  (174) 
CHEMBL2959

>  <Target Name>  (174) 
Tyrosine-protein kinase ITK/TSK

>  <Target Organism>  (174) 
Homo sapiens

>  <Target Type>  (174) 
SINGLE PROTEIN

>  <Document ChEMBL ID>  (174) 
CHEMBL1142468

>  <Source Description>  (174) 
Scientific Literature

>  <Document Journal>  (174) 
Bioorg Med Chem Lett

>  <Document Year>  (174) 
2008.0

>  <Active>  (174) 
1.0

$$$$

     RDKit          2D

 36 39  0  0  0  0  0  0  0  0999 V2000
   -7.7227   -2.1088    0.0000 C   0  0  0  0  0  0  0  0  0  0  0  0
   -6.2961   -1.6453    0.0000 N   0  0  0  0  0  0  0  0  0  0  0  0
   -5.1814   -2.6490    0.0000 C   0  0  0  0  0  0  0  0  0  0  0  0
   -5.4933   -4.1162    0.0000 O   0  0  0  0  0  0  0  0  0  0  0  0
   -3.7548   -2.1855    0.0000 C   0  0  0  0  0  0  0  0  0  0  0  0
   -2.6401   -3.1891    0.0000 C   0  0  0  0  0  0  0  0  0  0  0  0
   -1.2135   -2.7256    0.0000 N   0  0  0  0  0  0  0  0  0  0  0  0
   -0.0000   -3.6073    0.0000 C   0  0  0  0  0  0  0  0  0  0  0  0
   -0.0000   -5.1073    0.0000 N   0  0  0  0  0  0  0  0  0  0  0  0
   -1.2990   -5.8573    0.0000 C   0  0  0  0  0  0  0  0  0  0  0  0
   -2.5981   -5.1073    0.0000 O   0  0  0  0  0  0  0  0  0  0  0  0
   -1.2990   -7.3573    0.0000 C   0  0  0  0  0  0  0  0  0  0  0  0
   -2.5981   -8.1073    0.0000 C   0  0  0  0  0  0  0  0  0  0  0  0
   -2.5981   -9.6073    0.0000 C   0  0  0  0  0  0  0  0  0  0  0  0
   -1.2990  -10.3573    0.0000 C   0  0  0  0  0  0  0  0  0  0  0  0
   -1.2990  -11.8573    0.0000 C   0  0  0  0  0  0  0  0  0  0  0  0
   -1.2990  -13.3573    0.0000 N   0  0  0  0  0  0  0  0  0  0  0  0
   -0.0000   -9.6073    0.0000 C   0  0  0  0  0  0  0  0  0  0  0  0
   -0.0000   -8.1073    0.0000 C   0  0  0  0  0  0  0  0  0  0  0  0
    1.2135   -2.7256    0.0000 N   0  0  0  0  0  0  0  0  0  0  0  0
    0.7500   -1.2990    0.0000 C   0  0  0  0  0  0  0  0  0  0  0  0
    1.5000    0.0000    0.0000 C   0  0  0  0  0  0  0  0  0  0  0  0
    0.7500    1.2990    0.0000 C   0  0  0  0  0  0  0  0  0  0  0  0
    1.5000    2.5981    0.0000 N   0  0  0  0  0  0  0  0  0  0  0  0
    3.0000    2.5981    0.0000 C   0  0  0  0  0  0  0  0  0  0  0  0
    0.7500    3.8971    0.0000 C   0  0  0  0  0  0  0  0  0  0  0  0
   -0.7500    3.8971    0.0000 O   0  0  0  0  0  0  0  0  0  0  0  0
    1.5000    5.1962    0.0000 C   0  0  0  0  0  0  0  0  0  0  0  0
    3.0000    5.1962    0.0000 C   0  0  0  0  0  0  0  0  0  0  0  0
    3.7500    6.4952    0.0000 C   0  0  0  0  0  0  0  0  0  0  0  0
    3.0000    7.7942    0.0000 C   0  0  0  0  0  0  0  0  0  0  0  0
    1.5000    7.7942    0.0000 C   0  0  0  0  0  0  0  0  0  0  0  0
    0.7500    6.4952    0.0000 C   0  0  0  0  0  0  0  0  0  0  0  0
   -0.7500    1.2990    0.0000 C   0  0  0  0  0  0  0  0  0  0  0  0
   -1.5000    0.0000    0.0000 C   0  0  0  0  0  0  0  0  0  0  0  0
   -0.7500   -1.2990    0.0000 C   0  0  0  0  0  0  0  0  0  0  0  0
  1  2  1  0
  2  3  1  0
  3  4  2  0
  3  5  1  0
  5  6  1  0
  6  7  1  0
  7  8  1  0
  8  9  1  0
  9 10  1  0
 10 11  2  0
 10 12  1  0
 12 13  2  0
 13 14  1  0
 14 15  2  0
 15 16  1  0
 16 17  3  0
 15 18  1  0
 18 19  2  0
  8 20  2  0
 20 21  1  0
 21 22  2  0
 22 23  1  0
 23 24  1  0
 24 25  1  0
 24 26  1  0
 26 27  2  0
 26 28  1  0
 28 29  1  0
 29 30  1  0
 30 31  1  0
 31 32  1  0
 32 33  1  0
 23 34  2  0
 34 35  1  0
 35 36  2  0
 36  7  1  0
 19 12  1  0
 36 21  1  0
 33 28  1  0
M  END
>  <Compound_ID>  (175) 
CHEMBL483763

>  <Molecule Name>  (175) 
nan

>  <Molecular Weight>  (175) 
486.58

>  <AlogP>  (175) 
3.84

>  <Smiles>  (175) 
CNC(=O)CCn1c(NC(=O)c2ccc(C#N)cc2)nc2cc(N(C)C(=O)C3CCCCC3)ccc21

>  <Standard Type>  (175) 
IC50

>  <Standard Relation>  (175) 
'='

>  <Standard Units>  (175) 
nM

>  <Standard Value>  (175) 
9.0

>  <Assay ChEMBL ID>  (175) 
CHEMBL992563

>  <Assay Description>  (175) 
Inhibition of ITK by DELFIA assay

>  <BAO Format ID>  (175) 
BAO_0000357

>  <BAO Label>  (175) 
single protein format

>  <Assay Organism>  (175) 
None

>  <Target ChEMBL ID>  (175) 
CHEMBL2959

>  <Target Name>  (175) 
Tyrosine-protein kinase ITK/TSK

>  <Target Organism>  (175) 
Homo sapiens

>  <Target Type>  (175) 
SINGLE PROTEIN

>  <Document ChEMBL ID>  (175) 
CHEMBL1142468

>  <Source Description>  (175) 
Scientific Literature

>  <Document Journal>  (175) 
Bioorg Med Chem Lett

>  <Document Year>  (175) 
2008.0

>  <Active>  (175) 
1.0

$$$$

     RDKit          2D

 40 44  0  0  0  0  0  0  0  0999 V2000
    0.7500   -3.8971    0.0000 C   0  0  0  0  0  0  0  0  0  0  0  0
    1.5000   -2.5981    0.0000 N   0  0  0  0  0  0  0  0  0  0  0  0
    3.0000   -2.5981    0.0000 C   0  0  0  0  0  0  0  0  0  0  0  0
    3.7500   -1.2990    0.0000 O   0  0  0  0  0  0  0  0  0  0  0  0
    3.7500   -3.8971    0.0000 C   0  0  0  0  0  0  0  0  0  0  0  0
    3.0000   -5.1962    0.0000 C   0  0  0  0  0  0  0  0  0  0  0  0
    3.7500   -6.4952    0.0000 C   0  0  0  0  0  0  0  0  0  0  0  0
    5.2500   -6.4952    0.0000 C   0  0  0  0  0  0  0  0  0  0  0  0
    6.0000   -5.1962    0.0000 C   0  0  0  0  0  0  0  0  0  0  0  0
    5.2500   -3.8971    0.0000 C   0  0  0  0  0  0  0  0  0  0  0  0
    0.7500   -1.2990    0.0000 C   0  0  0  0  0  0  0  0  0  0  0  0
    1.5000    0.0000    0.0000 C   0  0  0  0  0  0  0  0  0  0  0  0
    0.7500    1.2990    0.0000 C   0  0  0  0  0  0  0  0  0  0  0  0
   -0.7500    1.2990    0.0000 C   0  0  0  0  0  0  0  0  0  0  0  0
   -1.5000    0.0000    0.0000 C   0  0  0  0  0  0  0  0  0  0  0  0
   -0.7500   -1.2990    0.0000 C   0  0  0  0  0  0  0  0  0  0  0  0
   -2.9672    0.3119    0.0000 N   0  0  0  0  0  0  0  0  0  0  0  0
   -3.1240    1.8037    0.0000 C   0  0  0  0  0  0  0  0  0  0  0  0
   -4.4231    2.5537    0.0000 N   0  0  0  0  0  0  0  0  0  0  0  0
   -5.7221    1.8037    0.0000 C   0  0  0  0  0  0  0  0  0  0  0  0
   -5.7221    0.3037    0.0000 O   0  0  0  0  0  0  0  0  0  0  0  0
   -7.0211    2.5537    0.0000 C   0  0  0  0  0  0  0  0  0  0  0  0
   -8.3914    1.9435    0.0000 C   0  0  0  0  0  0  0  0  0  0  0  0
   -9.3951    3.0583    0.0000 C   0  0  0  0  0  0  0  0  0  0  0  0
   -8.6451    4.3573    0.0000 C   0  0  0  0  0  0  0  0  0  0  0  0
   -9.2552    5.7276    0.0000 C   0  0  0  0  0  0  0  0  0  0  0  0
  -10.7470    5.8844    0.0000 C   0  0  0  0  0  0  0  0  0  0  0  0
  -11.3571    7.2547    0.0000 C   0  0  0  0  0  0  0  0  0  0  0  0
  -10.4755    8.4683    0.0000 C   0  0  0  0  0  0  0  0  0  0  0  0
  -11.0856    9.8386    0.0000 C   0  0  0  0  0  0  0  0  0  0  0  0
  -12.5773    9.9954    0.0000 C   0  0  0  0  0  0  0  0  0  0  0  0
  -13.4590    8.7818    0.0000 C   0  0  0  0  0  0  0  0  0  0  0  0
  -12.8489    7.4115    0.0000 C   0  0  0  0  0  0  0  0  0  0  0  0
   -7.1779    4.0454    0.0000 S   0  0  0  0  0  0  0  0  0  0  0  0
   -1.7537    2.4138    0.0000 N   0  0  0  0  0  0  0  0  0  0  0  0
   -1.4418    3.8810    0.0000 C   0  0  0  0  0  0  0  0  0  0  0  0
   -0.0152    4.3445    0.0000 C   0  0  0  0  0  0  0  0  0  0  0  0
    0.2966    5.8117    0.0000 C   0  0  0  0  0  0  0  0  0  0  0  0
    1.7232    6.2752    0.0000 N   0  0  0  0  0  0  0  0  0  0  0  0
   -0.8181    6.8154    0.0000 O   0  0  0  0  0  0  0  0  0  0  0  0
  1  2  1  0
  2  3  1  0
  3  4  2  0
  3  5  1  0
  5  6  2  0
  6  7  1  0
  7  8  2  0
  8  9  1  0
  9 10  2  0
  2 11  1  0
 11 12  2  0
 12 13  1  0
 13 14  2  0
 14 15  1  0
 15 16  2  0
 15 17  1  0
 17 18  1  0
 18 19  2  0
 19 20  1  0
 20 21  2  0
 20 22  1  0
 22 23  2  0
 23 24  1  0
 24 25  2  0
 25 26  1  0
 26 27  2  0
 27 28  1  0
 28 29  2  0
 29 30  1  0
 30 31  2  0
 31 32  1  0
 32 33  2  0
 25 34  1  0
 18 35  1  0
 35 36  1  0
 36 37  1  0
 37 38  1  0
 38 39  1  0
 38 40  2  0
 10  5  1  0
 16 11  1  0
 34 22  1  0
 35 14  1  0
 33 28  1  0
M  END
>  <Compound_ID>  (176) 
CHEMBL519239

>  <Molecule Name>  (176) 
nan

>  <Molecular Weight>  (176) 
549.66

>  <AlogP>  (176) 
5.09

>  <Smiles>  (176) 
CN(C(=O)c1ccccc1)c1ccc2c(c1)[nH]/c(=N\C(=O)c1ccc(/C=C/c3ccccc3)s1)n2CCC(N)=O

>  <Standard Type>  (176) 
IC50

>  <Standard Relation>  (176) 
'='

>  <Standard Units>  (176) 
nM

>  <Standard Value>  (176) 
11.0

>  <Assay ChEMBL ID>  (176) 
CHEMBL942219

>  <Assay Description>  (176) 
Inhibition of ITK by DELPHIA

>  <BAO Format ID>  (176) 
BAO_0000357

>  <BAO Label>  (176) 
single protein format

>  <Assay Organism>  (176) 
None

>  <Target ChEMBL ID>  (176) 
CHEMBL2959

>  <Target Name>  (176) 
Tyrosine-protein kinase ITK/TSK

>  <Target Organism>  (176) 
Homo sapiens

>  <Target Type>  (176) 
SINGLE PROTEIN

>  <Document ChEMBL ID>  (176) 
CHEMBL1152261

>  <Source Description>  (176) 
Scientific Literature

>  <Document Journal>  (176) 
Bioorg Med Chem Lett

>  <Document Year>  (176) 
2008.0

>  <Active>  (176) 
1.0

$$$$

     RDKit          2D

 30 34  0  0  0  0  0  0  0  0999 V2000
    5.9462  -13.9063    0.0000 C   0  0  0  0  0  0  0  0  0  0  0  0
    4.6471  -13.1563    0.0000 N   0  0  0  0  0  0  0  0  0  0  0  0
    3.3481  -13.9063    0.0000 C   0  0  0  0  0  0  0  0  0  0  0  0
    4.6471  -11.6563    0.0000 C   0  0  0  0  0  0  0  0  0  0  0  0
    3.3481  -10.9063    0.0000 C   0  0  0  0  0  0  0  0  0  0  0  0
    2.0490  -11.6563    0.0000 C   0  0  0  0  0  0  0  0  0  0  0  0
    0.7500  -10.9063    0.0000 C   0  0  0  0  0  0  0  0  0  0  0  0
    0.7500   -9.4063    0.0000 C   0  0  0  0  0  0  0  0  0  0  0  0
   -0.5490   -8.6563    0.0000 C   0  0  0  0  0  0  0  0  0  0  0  0
   -2.0490   -8.6563    0.0000 C   0  0  0  0  0  0  0  0  0  0  0  0
   -1.2990   -7.3573    0.0000 C   0  0  0  0  0  0  0  0  0  0  0  0
   -1.2990   -5.8573    0.0000 C   0  0  0  0  0  0  0  0  0  0  0  0
   -2.5981   -5.1073    0.0000 O   0  0  0  0  0  0  0  0  0  0  0  0
   -0.0000   -5.1073    0.0000 N   0  0  0  0  0  0  0  0  0  0  0  0
   -0.0000   -3.6073    0.0000 C   0  0  0  0  0  0  0  0  0  0  0  0
    1.2135   -2.7256    0.0000 N   0  0  0  0  0  0  0  0  0  0  0  0
    0.7500   -1.2990    0.0000 C   0  0  0  0  0  0  0  0  0  0  0  0
    1.5000    0.0000    0.0000 C   0  0  0  0  0  0  0  0  0  0  0  0
    0.7500    1.2990    0.0000 C   0  0  0  0  0  0  0  0  0  0  0  0
   -0.7500    1.2990    0.0000 C   0  0  0  0  0  0  0  0  0  0  0  0
   -1.5000    2.5981    0.0000 C   0  0  0  0  0  0  0  0  0  0  0  0
   -2.9918    2.7549    0.0000 C   0  0  0  0  0  0  0  0  0  0  0  0
   -3.3037    4.2221    0.0000 N   0  0  0  0  0  0  0  0  0  0  0  0
   -2.0046    4.9721    0.0000 N   0  0  0  0  0  0  0  0  0  0  0  0
   -0.8899    3.9684    0.0000 C   0  0  0  0  0  0  0  0  0  0  0  0
   -1.5000    0.0000    0.0000 C   0  0  0  0  0  0  0  0  0  0  0  0
   -0.7500   -1.2990    0.0000 C   0  0  0  0  0  0  0  0  0  0  0  0
   -1.2135   -2.7256    0.0000 S   0  0  0  0  0  0  0  0  0  0  0  0
    2.0490   -8.6563    0.0000 C   0  0  0  0  0  0  0  0  0  0  0  0
    3.3481   -9.4063    0.0000 C   0  0  0  0  0  0  0  0  0  0  0  0
  1  2  1  0
  2  3  1  0
  2  4  1  0
  4  5  1  0
  5  6  2  0
  6  7  1  0
  7  8  2  0
  9  8  1  1
  9 10  1  0
 10 11  1  0
 11 12  1  6
 12 13  2  0
 12 14  1  0
 14 15  1  0
 15 16  2  0
 16 17  1  0
 17 18  2  0
 18 19  1  0
 19 20  2  0
 20 21  1  0
 21 22  1  0
 22 23  2  0
 23 24  1  0
 24 25  1  0
 20 26  1  0
 26 27  2  0
 27 28  1  0
  8 29  1  0
 29 30  2  0
 30  5  1  0
 11  9  1  0
 28 15  1  0
 27 17  1  0
 25 21  2  0
M  END
>  <Compound_ID>  (177) 
CHEMBL3086536

>  <Molecule Name>  (177) 
nan

>  <Molecular Weight>  (177) 
417.54

>  <AlogP>  (177) 
4.49

>  <Smiles>  (177) 
CN(C)Cc1ccc([C@H]2C[C@@H]2C(=O)Nc2nc3ccc(-c4cn[nH]c4)cc3s2)cc1

>  <Standard Type>  (177) 
Ki

>  <Standard Relation>  (177) 
'='

>  <Standard Units>  (177) 
nM

>  <Standard Value>  (177) 
0.7

>  <Assay ChEMBL ID>  (177) 
CHEMBL3088400

>  <Assay Description>  (177) 
Inhibition of full length GST-tagged ITK (unknown origin) using Ac-EFPIYDFLPAKKK-NH2 as substrate after 35 mins by LC/MS analysis

>  <BAO Format ID>  (177) 
BAO_0000357

>  <BAO Label>  (177) 
single protein format

>  <Assay Organism>  (177) 
Homo sapiens

>  <Target ChEMBL ID>  (177) 
CHEMBL2959

>  <Target Name>  (177) 
Tyrosine-protein kinase ITK/TSK

>  <Target Organism>  (177) 
Homo sapiens

>  <Target Type>  (177) 
SINGLE PROTEIN

>  <Document ChEMBL ID>  (177) 
CHEMBL3085719

>  <Source Description>  (177) 
Scientific Literature

>  <Document Journal>  (177) 
Bioorg Med Chem Lett

>  <Document Year>  (177) 
2013.0

>  <Active>  (177) 
1.0

$$$$

     RDKit          2D

 35 39  0  0  0  0  0  0  0  0999 V2000
    3.7500   -1.2990    0.0000 C   0  0  0  0  0  0  0  0  0  0  0  0
    3.0000    0.0000    0.0000 N   0  0  0  0  0  0  0  0  0  0  0  0
    1.5000    0.0000    0.0000 C   0  0  0  0  0  0  0  0  0  0  0  0
    0.7500   -1.2990    0.0000 C   0  0  0  0  0  0  0  0  0  0  0  0
   -0.7500   -1.2990    0.0000 N   0  0  0  0  0  0  0  0  0  0  0  0
   -1.5000    0.0000    0.0000 C   0  0  0  0  0  0  0  0  0  0  0  0
   -0.7500    1.2990    0.0000 C   0  0  0  0  0  0  0  0  0  0  0  0
   -1.5000    2.5981    0.0000 C   0  0  0  0  0  0  0  0  0  0  0  0
   -0.7500    3.8971    0.0000 C   0  0  0  0  0  0  0  0  0  0  0  0
   -1.5000    5.1962    0.0000 N   0  0  0  0  0  0  0  0  0  0  0  0
   -3.0000    5.1962    0.0000 C   0  0  0  0  0  0  0  0  0  0  0  0
   -3.7500    6.4952    0.0000 O   0  0  0  0  0  0  0  0  0  0  0  0
   -3.7500    3.8971    0.0000 C   0  0  0  0  0  0  0  0  0  0  0  0
   -5.2500    3.8971    0.0000 N   0  0  0  0  0  0  0  0  0  0  0  0
   -6.0000    2.5981    0.0000 C   0  0  0  0  0  0  0  0  0  0  0  0
   -5.2500    1.2990    0.0000 O   0  0  0  0  0  0  0  0  0  0  0  0
   -7.5000    2.5981    0.0000 C   0  0  0  0  0  0  0  0  0  0  0  0
   -8.2500    3.8971    0.0000 C   0  0  0  0  0  0  0  0  0  0  0  0
   -9.7500    3.8971    0.0000 C   0  0  0  0  0  0  0  0  0  0  0  0
  -10.5000    2.5981    0.0000 C   0  0  0  0  0  0  0  0  0  0  0  0
  -12.0000    2.5981    0.0000 N   0  0  0  0  0  0  0  0  0  0  0  0
  -12.8817    1.3846    0.0000 C   0  0  0  0  0  0  0  0  0  0  0  0
  -14.3083    1.8481    0.0000 C   0  0  0  0  0  0  0  0  0  0  0  0
  -14.3083    3.3481    0.0000 C   0  0  0  0  0  0  0  0  0  0  0  0
  -12.8817    3.8116    0.0000 C   0  0  0  0  0  0  0  0  0  0  0  0
  -12.4182    5.2382    0.0000 C   0  0  0  0  0  0  0  0  0  0  0  0
  -13.4218    6.3529    0.0000 N   0  0  0  0  0  0  0  0  0  0  0  0
  -14.9136    6.1961    0.0000 C   0  0  0  0  0  0  0  0  0  0  0  0
  -15.5237    7.5664    0.0000 C   0  0  0  0  0  0  0  0  0  0  0  0
  -14.4090    8.5701    0.0000 C   0  0  0  0  0  0  0  0  0  0  0  0
  -13.1100    7.8201    0.0000 C   0  0  0  0  0  0  0  0  0  0  0  0
   -9.7500    1.2990    0.0000 C   0  0  0  0  0  0  0  0  0  0  0  0
   -8.2500    1.2990    0.0000 C   0  0  0  0  0  0  0  0  0  0  0  0
   -3.0000    2.5981    0.0000 C   0  0  0  0  0  0  0  0  0  0  0  0
    0.7500    1.2990    0.0000 C   0  0  0  0  0  0  0  0  0  0  0  0
  1  2  1  0
  2  3  1  0
  3  4  2  0
  4  5  1  0
  5  6  2  0
  6  7  1  0
  7  8  1  0
  8  9  2  0
  9 10  1  0
 10 11  1  0
 11 12  2  0
 11 13  1  0
 13 14  1  0
 14 15  1  0
 15 16  2  0
 15 17  1  0
 17 18  2  0
 18 19  1  0
 19 20  2  0
 20 21  1  0
 21 22  1  0
 22 23  1  0
 23 24  1  0
 24 25  1  0
 25 26  1  1
 26 27  1  0
 27 28  1  0
 28 29  1  0
 29 30  1  0
 30 31  1  0
 20 32  1  0
 32 33  2  0
 13 34  2  0
  7 35  2  0
 35  3  1  0
 34  8  1  0
 33 17  1  0
 25 21  1  0
 31 27  1  0
M  END
>  <Compound_ID>  (178) 
CHEMBL1765782

>  <Molecule Name>  (178) 
nan

>  <Molecular Weight>  (178) 
472.59

>  <AlogP>  (178) 
3.80

>  <Smiles>  (178) 
CNc1cncc(-c2c[nH]c(=O)c(NC(=O)c3ccc(N4CCC[C@H]4CN4CCCC4)cc3)c2)c1

>  <Standard Type>  (178) 
Ki

>  <Standard Relation>  (178) 
'='

>  <Standard Units>  (178) 
nM

>  <Standard Value>  (178) 
20.0

>  <Assay ChEMBL ID>  (178) 
CHEMBL1768448

>  <Assay Description>  (178) 
Inhibition of Itk after 40 mins by radiometric phosphate incorporation assay

>  <BAO Format ID>  (178) 
BAO_0000357

>  <BAO Label>  (178) 
single protein format

>  <Assay Organism>  (178) 
None

>  <Target ChEMBL ID>  (178) 
CHEMBL2959

>  <Target Name>  (178) 
Tyrosine-protein kinase ITK/TSK

>  <Target Organism>  (178) 
Homo sapiens

>  <Target Type>  (178) 
SINGLE PROTEIN

>  <Document ChEMBL ID>  (178) 
CHEMBL1765075

>  <Source Description>  (178) 
Scientific Literature

>  <Document Journal>  (178) 
J Med Chem

>  <Document Year>  (178) 
2011.0

>  <Active>  (178) 
1.0

$$$$

     RDKit          2D

 28 31  0  0  0  0  0  0  0  0999 V2000
    0.4022   -7.7629    0.0000 C   0  0  0  0  0  0  0  0  0  0  0  0
    0.2454   -6.2711    0.0000 C   0  0  0  0  0  0  0  0  0  0  0  0
    1.3601   -5.2674    0.0000 C   0  0  0  0  0  0  0  0  0  0  0  0
    0.7500   -3.8971    0.0000 C   0  0  0  0  0  0  0  0  0  0  0  0
    1.5000   -2.5981    0.0000 N   0  0  0  0  0  0  0  0  0  0  0  0
    0.7500   -1.2990    0.0000 C   0  0  0  0  0  0  0  0  0  0  0  0
    1.5000    0.0000    0.0000 C   0  0  0  0  0  0  0  0  0  0  0  0
    0.7500    1.2990    0.0000 C   0  0  0  0  0  0  0  0  0  0  0  0
    1.5000    2.5981    0.0000 C   0  0  0  0  0  0  0  0  0  0  0  0
    3.0000    2.5981    0.0000 C   0  0  0  0  0  0  0  0  0  0  0  0
    3.7500    1.2990    0.0000 C   0  0  0  0  0  0  0  0  0  0  0  0
    5.2500    1.2990    0.0000 C   0  0  0  0  0  0  0  0  0  0  0  0
    6.0000    2.5981    0.0000 C   0  0  0  0  0  0  0  0  0  0  0  0
    5.2500    3.8971    0.0000 C   0  0  0  0  0  0  0  0  0  0  0  0
    3.7500    3.8971    0.0000 C   0  0  0  0  0  0  0  0  0  0  0  0
   -0.7500    1.2990    0.0000 N   0  0  0  0  0  0  0  0  0  0  0  0
   -1.5000    0.0000    0.0000 C   0  0  0  0  0  0  0  0  0  0  0  0
   -3.0000    0.0000    0.0000 N   0  0  0  0  0  0  0  0  0  0  0  0
   -3.7500    1.2990    0.0000 C   0  0  0  0  0  0  0  0  0  0  0  0
   -3.0000    2.5981    0.0000 C   0  0  0  0  0  0  0  0  0  0  0  0
   -3.7500    3.8971    0.0000 C   0  0  0  0  0  0  0  0  0  0  0  0
   -5.2500    3.8971    0.0000 C   0  0  0  0  0  0  0  0  0  0  0  0
   -6.0000    5.1962    0.0000 O   0  0  0  0  0  0  0  0  0  0  0  0
   -6.0000    2.5981    0.0000 C   0  0  0  0  0  0  0  0  0  0  0  0
   -5.2500    1.2990    0.0000 C   0  0  0  0  0  0  0  0  0  0  0  0
   -0.7500   -1.2990    0.0000 N   0  0  0  0  0  0  0  0  0  0  0  0
   -0.7418   -4.0539    0.0000 N   0  0  0  0  0  0  0  0  0  0  0  0
   -1.0537   -5.5211    0.0000 N   0  0  0  0  0  0  0  0  0  0  0  0
  1  2  1  0
  2  3  2  0
  3  4  1  0
  4  5  1  0
  5  6  1  0
  6  7  2  0
  7  8  1  0
  8  9  1  0
  9 10  1  0
 10 11  2  0
 11 12  1  0
 12 13  2  0
 13 14  1  0
 14 15  2  0
  8 16  2  0
 16 17  1  0
 17 18  1  0
 19 18  1  6
 19 20  1  0
 20 21  1  0
 21 22  1  0
 22 23  1  1
 22 24  1  0
 24 25  1  0
 17 26  2  0
  4 27  2  0
 27 28  1  0
 28  2  1  0
 26  6  1  0
 15 10  1  0
 25 19  1  0
M  END
>  <Compound_ID>  (179) 
CHEMBL3355311

>  <Molecule Name>  (179) 
nan

>  <Molecular Weight>  (179) 
378.48

>  <AlogP>  (179) 
3.56

>  <Smiles>  (179) 
Cc1cc(Nc2cc(Cc3ccccc3)nc(N[C@H]3CC[C@H](O)CC3)n2)n[nH]1

>  <Standard Type>  (179) 
Ki

>  <Standard Relation>  (179) 
'='

>  <Standard Units>  (179) 
nM

>  <Standard Value>  (179) 
53.0

>  <Assay ChEMBL ID>  (179) 
CHEMBL3389531

>  <Assay Description>  (179) 
Inhibition of GST-tagged full-length ITK (unknown origin) using Ac-EFPIYDFLPAKKK-NH2 as substrate after 35 mins by LC/MS analysis

>  <BAO Format ID>  (179) 
BAO_0000357

>  <BAO Label>  (179) 
single protein format

>  <Assay Organism>  (179) 
Homo sapiens

>  <Target ChEMBL ID>  (179) 
CHEMBL2959

>  <Target Name>  (179) 
Tyrosine-protein kinase ITK/TSK

>  <Target Organism>  (179) 
Homo sapiens

>  <Target Type>  (179) 
SINGLE PROTEIN

>  <Document ChEMBL ID>  (179) 
CHEMBL3352735

>  <Source Description>  (179) 
Scientific Literature

>  <Document Journal>  (179) 
Bioorg Med Chem Lett

>  <Document Year>  (179) 
2014.0

>  <Active>  (179) 
1.0

$$$$

     RDKit          2D

 21 23  0  0  0  0  0  0  0  0999 V2000
   -0.2758   10.5570    0.0000 C   0  0  0  0  0  0  0  0  0  0  0  0
   -1.7024   10.0935    0.0000 C   0  0  0  0  0  0  0  0  0  0  0  0
   -2.0143    8.6263    0.0000 C   0  0  0  0  0  0  0  0  0  0  0  0
   -0.8995    7.6226    0.0000 O   0  0  0  0  0  0  0  0  0  0  0  0
   -3.4408    8.1628    0.0000 N   0  0  0  0  0  0  0  0  0  0  0  0
   -3.7527    6.6955    0.0000 C   0  0  0  0  0  0  0  0  0  0  0  0
   -2.6380    5.6918    0.0000 C   0  0  0  0  0  0  0  0  0  0  0  0
   -2.9499    4.2246    0.0000 C   0  0  0  0  0  0  0  0  0  0  0  0
   -1.8351    3.2209    0.0000 C   0  0  0  0  0  0  0  0  0  0  0  0
   -0.4086    3.6844    0.0000 C   0  0  0  0  0  0  0  0  0  0  0  0
    0.7062    2.6807    0.0000 N   0  0  0  0  0  0  0  0  0  0  0  0
    0.3943    1.2135    0.0000 C   0  0  0  0  0  0  0  0  0  0  0  0
    1.2760    0.0000    0.0000 N   0  0  0  0  0  0  0  0  0  0  0  0
    0.3943   -1.2135    0.0000 C   0  0  0  0  0  0  0  0  0  0  0  0
   -1.0323   -0.7500    0.0000 C   0  0  0  0  0  0  0  0  0  0  0  0
   -1.0323    0.7500    0.0000 C   0  0  0  0  0  0  0  0  0  0  0  0
   -2.1470    1.7537    0.0000 C   0  0  0  0  0  0  0  0  0  0  0  0
   -4.3764    3.7611    0.0000 C   0  0  0  0  0  0  0  0  0  0  0  0
   -5.4912    4.7648    0.0000 C   0  0  0  0  0  0  0  0  0  0  0  0
   -5.1793    6.2320    0.0000 C   0  0  0  0  0  0  0  0  0  0  0  0
   -6.2940    7.2357    0.0000 F   0  0  0  0  0  0  0  0  0  0  0  0
  1  2  2  0
  2  3  1  0
  3  4  2  0
  3  5  1  0
  5  6  1  0
  6  7  2  0
  7  8  1  0
  8  9  1  0
  9 10  2  0
 10 11  1  0
 11 12  2  0
 12 13  1  0
 13 14  1  0
 14 15  2  0
 15 16  1  0
 16 17  2  0
  8 18  2  0
 18 19  1  0
 19 20  2  0
 20 21  1  0
 20  6  1  0
 17  9  1  0
 16 12  1  0
M  END
>  <Compound_ID>  (180) 
CHEMBL3904442

>  <Molecule Name>  (180) 
nan

>  <Molecular Weight>  (180) 
281.29

>  <AlogP>  (180) 
3.49

>  <Smiles>  (180) 
C=CC(=O)Nc1cc(-c2cnc3[nH]ccc3c2)ccc1F

>  <Standard Type>  (180) 
IC50

>  <Standard Relation>  (180) 
'='

>  <Standard Units>  (180) 
nM

>  <Standard Value>  (180) 
30.0

>  <Assay ChEMBL ID>  (180) 
CHEMBL3887687

>  <Assay Description>  (180) 
Biochemical Inhibition Assay: 1H-pyrrolo[2,3-b]pyridine, 1H-pyrazolo[3,4-b]pyridine and 5H-pyrrolo[2,3-b]pyrazine series of compounds exhibited over >100 fold selective against Janus and TEC family of kinases except for the BMX and TXK it had activity of 30 and 45 nM respectively.

>  <BAO Format ID>  (180) 
BAO_0000357

>  <BAO Label>  (180) 
single protein format

>  <Assay Organism>  (180) 
Homo sapiens

>  <Target ChEMBL ID>  (180) 
CHEMBL2959

>  <Target Name>  (180) 
Tyrosine-protein kinase ITK/TSK

>  <Target Organism>  (180) 
Homo sapiens

>  <Target Type>  (180) 
SINGLE PROTEIN

>  <Document ChEMBL ID>  (180) 
CHEMBL3886406

>  <Source Description>  (180) 
BindingDB Database

>  <Document Journal>  (180) 
nan

>  <Document Year>  (180) 
2015.0

>  <Active>  (180) 
1.0

$$$$

     RDKit          2D

 21 23  0  0  0  0  0  0  0  0999 V2000
    8.2500   -6.4952    0.0000 C   0  0  0  0  0  0  0  0  0  0  0  0
    7.5000   -5.1962    0.0000 C   0  0  0  0  0  0  0  0  0  0  0  0
    6.0000   -5.1962    0.0000 C   0  0  0  0  0  0  0  0  0  0  0  0
    5.2500   -6.4952    0.0000 O   0  0  0  0  0  0  0  0  0  0  0  0
    5.2500   -3.8971    0.0000 N   0  0  0  0  0  0  0  0  0  0  0  0
    3.7500   -3.8971    0.0000 C   0  0  0  0  0  0  0  0  0  0  0  0
    3.0000   -5.1962    0.0000 C   0  0  0  0  0  0  0  0  0  0  0  0
    1.5000   -5.1962    0.0000 C   0  0  0  0  0  0  0  0  0  0  0  0
    0.7500   -3.8971    0.0000 C   0  0  0  0  0  0  0  0  0  0  0  0
    1.5000   -2.5981    0.0000 C   0  0  0  0  0  0  0  0  0  0  0  0
    0.7500   -1.2990    0.0000 C   0  0  0  0  0  0  0  0  0  0  0  0
    1.5000    0.0000    0.0000 C   0  0  0  0  0  0  0  0  0  0  0  0
    0.7500    1.2990    0.0000 N   0  0  0  0  0  0  0  0  0  0  0  0
   -0.7500    1.2990    0.0000 C   0  0  0  0  0  0  0  0  0  0  0  0
   -1.7537    2.4138    0.0000 N   0  0  0  0  0  0  0  0  0  0  0  0
   -3.1240    1.8037    0.0000 C   0  0  0  0  0  0  0  0  0  0  0  0
   -2.9672    0.3119    0.0000 C   0  0  0  0  0  0  0  0  0  0  0  0
   -4.0819   -0.6918    0.0000 C   0  0  0  0  0  0  0  0  0  0  0  0
   -1.5000    0.0000    0.0000 C   0  0  0  0  0  0  0  0  0  0  0  0
   -0.7500   -1.2990    0.0000 C   0  0  0  0  0  0  0  0  0  0  0  0
    3.0000   -2.5981    0.0000 C   0  0  0  0  0  0  0  0  0  0  0  0
  1  2  2  0
  2  3  1  0
  3  4  2  0
  3  5  1  0
  5  6  1  0
  6  7  2  0
  7  8  1  0
  8  9  2  0
  9 10  1  0
 10 11  1  0
 11 12  2  0
 12 13  1  0
 13 14  2  0
 14 15  1  0
 15 16  1  0
 16 17  2  0
 17 18  1  0
 17 19  1  0
 19 20  2  0
 10 21  2  0
 21  6  1  0
 20 11  1  0
 19 14  1  0
M  END
>  <Compound_ID>  (181) 
CHEMBL3902509

>  <Molecule Name>  (181) 
nan

>  <Molecular Weight>  (181) 
277.33

>  <AlogP>  (181) 
3.66

>  <Smiles>  (181) 
C=CC(=O)Nc1cccc(-c2cnc3[nH]cc(C)c3c2)c1

>  <Standard Type>  (181) 
IC50

>  <Standard Relation>  (181) 
'='

>  <Standard Units>  (181) 
nM

>  <Standard Value>  (181) 
35.0

>  <Assay ChEMBL ID>  (181) 
CHEMBL3887687

>  <Assay Description>  (181) 
Biochemical Inhibition Assay: 1H-pyrrolo[2,3-b]pyridine, 1H-pyrazolo[3,4-b]pyridine and 5H-pyrrolo[2,3-b]pyrazine series of compounds exhibited over >100 fold selective against Janus and TEC family of kinases except for the BMX and TXK it had activity of 30 and 45 nM respectively.

>  <BAO Format ID>  (181) 
BAO_0000357

>  <BAO Label>  (181) 
single protein format

>  <Assay Organism>  (181) 
Homo sapiens

>  <Target ChEMBL ID>  (181) 
CHEMBL2959

>  <Target Name>  (181) 
Tyrosine-protein kinase ITK/TSK

>  <Target Organism>  (181) 
Homo sapiens

>  <Target Type>  (181) 
SINGLE PROTEIN

>  <Document ChEMBL ID>  (181) 
CHEMBL3886406

>  <Source Description>  (181) 
BindingDB Database

>  <Document Journal>  (181) 
nan

>  <Document Year>  (181) 
2015.0

>  <Active>  (181) 
1.0

$$$$

     RDKit          2D

 36 39  0  0  0  0  0  0  0  0999 V2000
    6.7500   -1.2990    0.0000 C   0  0  0  0  0  0  0  0  0  0  0  0
    5.2500   -1.2990    0.0000 S   0  0  0  0  0  0  0  0  0  0  0  0
    5.2500    0.2010    0.0000 O   0  0  0  0  0  0  0  0  0  0  0  0
    5.2500   -2.7990    0.0000 O   0  0  0  0  0  0  0  0  0  0  0  0
    3.7500   -1.2990    0.0000 N   0  0  0  0  0  0  0  0  0  0  0  0
    3.0000    0.0000    0.0000 C   0  0  0  0  0  0  0  0  0  0  0  0
    3.7500    1.2990    0.0000 O   0  0  0  0  0  0  0  0  0  0  0  0
    1.5000    0.0000    0.0000 C   0  0  0  0  0  0  0  0  0  0  0  0
    0.7500   -1.2990    0.0000 C   0  0  0  0  0  0  0  0  0  0  0  0
   -0.7500   -1.2990    0.0000 C   0  0  0  0  0  0  0  0  0  0  0  0
   -1.5000    0.0000    0.0000 C   0  0  0  0  0  0  0  0  0  0  0  0
   -0.7500    1.2990    0.0000 N   0  0  0  0  0  0  0  0  0  0  0  0
   -1.5000    2.5981    0.0000 C   0  0  0  0  0  0  0  0  0  0  0  0
   -3.0000    2.5981    0.0000 O   0  0  0  0  0  0  0  0  0  0  0  0
   -0.7500    3.8971    0.0000 C   0  0  0  0  0  0  0  0  0  0  0  0
    0.7500    3.8971    0.0000 C   0  0  0  0  0  0  0  0  0  0  0  0
    1.5000    5.1962    0.0000 C   0  0  0  0  0  0  0  0  0  0  0  0
    3.0000    5.1962    0.0000 S   0  0  0  0  0  0  0  0  0  0  0  0
    3.7500    6.4952    0.0000 C   0  0  0  0  0  0  0  0  0  0  0  0
    3.1399    7.8655    0.0000 C   0  0  0  0  0  0  0  0  0  0  0  0
    4.2546    8.8692    0.0000 N   0  0  0  0  0  0  0  0  0  0  0  0
    5.5537    8.1192    0.0000 C   0  0  0  0  0  0  0  0  0  0  0  0
    6.9240    8.7293    0.0000 N   0  0  0  0  0  0  0  0  0  0  0  0
    7.0808   10.2211    0.0000 C   0  0  0  0  0  0  0  0  0  0  0  0
    8.4511   10.8312    0.0000 C   0  0  0  0  0  0  0  0  0  0  0  0
    8.6079   12.3230    0.0000 C   0  0  0  0  0  0  0  0  0  0  0  0
    7.3943   13.2047    0.0000 C   0  0  0  0  0  0  0  0  0  0  0  0
    6.0240   12.5946    0.0000 C   0  0  0  0  0  0  0  0  0  0  0  0
    4.8105   13.4762    0.0000 Br  0  0  0  0  0  0  0  0  0  0  0  0
    5.8672   11.1028    0.0000 N   0  0  0  0  0  0  0  0  0  0  0  0
    5.2418    6.6520    0.0000 S   0  0  0  0  0  0  0  0  0  0  0  0
    0.7500    6.4952    0.0000 C   0  0  0  0  0  0  0  0  0  0  0  0
   -0.7500    6.4952    0.0000 C   0  0  0  0  0  0  0  0  0  0  0  0
   -1.5000    5.1962    0.0000 C   0  0  0  0  0  0  0  0  0  0  0  0
   -3.0000    5.1962    0.0000 O   0  0  0  0  0  0  0  0  0  0  0  0
    0.7500    1.2990    0.0000 C   0  0  0  0  0  0  0  0  0  0  0  0
  1  2  1  0
  2  3  2  0
  2  4  2  0
  2  5  1  0
  5  6  1  0
  6  7  2  0
  6  8  1  0
  8  9  1  0
  9 10  1  0
 10 11  1  0
 11 12  1  0
 12 13  1  0
 13 14  2  0
 13 15  1  0
 15 16  2  0
 16 17  1  0
 17 18  1  0
 18 19  1  0
 19 20  2  0
 20 21  1  0
 21 22  2  0
 22 23  1  0
 23 24  1  0
 24 25  2  0
 25 26  1  0
 26 27  2  0
 27 28  1  0
 28 29  1  0
 28 30  2  0
 22 31  1  0
 17 32  2  0
 32 33  1  0
 33 34  2  0
 34 35  1  0
 12 36  1  0
 36  8  1  0
 34 15  1  0
 31 19  1  0
 30 24  1  0
M  END
>  <Compound_ID>  (182) 
CHEMBL211601

>  <Molecule Name>  (182) 
nan

>  <Molecular Weight>  (182) 
612.55

>  <AlogP>  (182) 
3.83

>  <Smiles>  (182) 
CS(=O)(=O)NC(=O)C1CCCN(C(=O)c2cc(Sc3cnc(Nc4cccc(Br)n4)s3)ccc2O)C1

>  <Standard Type>  (182) 
IC50

>  <Standard Relation>  (182) 
'='

>  <Standard Units>  (182) 
nM

>  <Standard Value>  (182) 
83.0

>  <Assay ChEMBL ID>  (182) 
CHEMBL864159

>  <Assay Description>  (182) 
Inhibition of Itk

>  <BAO Format ID>  (182) 
BAO_0000357

>  <BAO Label>  (182) 
single protein format

>  <Assay Organism>  (182) 
Homo sapiens

>  <Target ChEMBL ID>  (182) 
CHEMBL2959

>  <Target Name>  (182) 
Tyrosine-protein kinase ITK/TSK

>  <Target Organism>  (182) 
Homo sapiens

>  <Target Type>  (182) 
SINGLE PROTEIN

>  <Document ChEMBL ID>  (182) 
CHEMBL1138957

>  <Source Description>  (182) 
Scientific Literature

>  <Document Journal>  (182) 
Bioorg Med Chem Lett

>  <Document Year>  (182) 
2006.0

>  <Active>  (182) 
1.0

$$$$

     RDKit          2D

 38 42  0  0  0  0  0  0  0  0999 V2000
    0.7500   -3.8971    0.0000 C   0  0  0  0  0  0  0  0  0  0  0  0
    1.5000   -2.5981    0.0000 N   0  0  0  0  0  0  0  0  0  0  0  0
    3.0000   -2.5981    0.0000 C   0  0  0  0  0  0  0  0  0  0  0  0
    3.7500   -1.2990    0.0000 O   0  0  0  0  0  0  0  0  0  0  0  0
    3.7500   -3.8971    0.0000 C   0  0  0  0  0  0  0  0  0  0  0  0
    3.0000   -5.1962    0.0000 C   0  0  0  0  0  0  0  0  0  0  0  0
    3.7500   -6.4952    0.0000 C   0  0  0  0  0  0  0  0  0  0  0  0
    5.2500   -6.4952    0.0000 C   0  0  0  0  0  0  0  0  0  0  0  0
    6.0000   -5.1962    0.0000 C   0  0  0  0  0  0  0  0  0  0  0  0
    5.2500   -3.8971    0.0000 C   0  0  0  0  0  0  0  0  0  0  0  0
    0.7500   -1.2990    0.0000 C   0  0  0  0  0  0  0  0  0  0  0  0
    1.5000    0.0000    0.0000 C   0  0  0  0  0  0  0  0  0  0  0  0
    0.7500    1.2990    0.0000 C   0  0  0  0  0  0  0  0  0  0  0  0
   -0.7500    1.2990    0.0000 C   0  0  0  0  0  0  0  0  0  0  0  0
   -1.5000    0.0000    0.0000 C   0  0  0  0  0  0  0  0  0  0  0  0
   -0.7500   -1.2990    0.0000 C   0  0  0  0  0  0  0  0  0  0  0  0
   -2.9672    0.3119    0.0000 N   0  0  0  0  0  0  0  0  0  0  0  0
   -3.1240    1.8037    0.0000 C   0  0  0  0  0  0  0  0  0  0  0  0
   -4.4231    2.5537    0.0000 N   0  0  0  0  0  0  0  0  0  0  0  0
   -5.7221    1.8037    0.0000 C   0  0  0  0  0  0  0  0  0  0  0  0
   -5.7221    0.3037    0.0000 O   0  0  0  0  0  0  0  0  0  0  0  0
   -7.0211    2.5537    0.0000 C   0  0  0  0  0  0  0  0  0  0  0  0
   -8.3914    1.9435    0.0000 C   0  0  0  0  0  0  0  0  0  0  0  0
   -9.3951    3.0583    0.0000 C   0  0  0  0  0  0  0  0  0  0  0  0
   -8.6451    4.3573    0.0000 C   0  0  0  0  0  0  0  0  0  0  0  0
   -9.2552    5.7276    0.0000 C   0  0  0  0  0  0  0  0  0  0  0  0
  -10.7225    6.0395    0.0000 C   0  0  0  0  0  0  0  0  0  0  0  0
  -10.8793    7.5313    0.0000 S   0  0  0  0  0  0  0  0  0  0  0  0
   -9.5089    8.1414    0.0000 C   0  0  0  0  0  0  0  0  0  0  0  0
   -9.1971    9.6086    0.0000 N   0  0  0  0  0  0  0  0  0  0  0  0
   -8.5052    7.0267    0.0000 N   0  0  0  0  0  0  0  0  0  0  0  0
   -7.1779    4.0454    0.0000 S   0  0  0  0  0  0  0  0  0  0  0  0
   -1.7537    2.4138    0.0000 N   0  0  0  0  0  0  0  0  0  0  0  0
   -1.4418    3.8810    0.0000 C   0  0  0  0  0  0  0  0  0  0  0  0
   -0.0152    4.3445    0.0000 C   0  0  0  0  0  0  0  0  0  0  0  0
    0.2966    5.8117    0.0000 C   0  0  0  0  0  0  0  0  0  0  0  0
    1.7232    6.2752    0.0000 N   0  0  0  0  0  0  0  0  0  0  0  0
   -0.8181    6.8154    0.0000 O   0  0  0  0  0  0  0  0  0  0  0  0
  1  2  1  0
  2  3  1  0
  3  4  2  0
  3  5  1  0
  5  6  2  0
  6  7  1  0
  7  8  2  0
  8  9  1  0
  9 10  2  0
  2 11  1  0
 11 12  2  0
 12 13  1  0
 13 14  2  0
 14 15  1  0
 15 16  2  0
 15 17  1  0
 17 18  1  0
 18 19  2  0
 19 20  1  0
 20 21  2  0
 20 22  1  0
 22 23  2  0
 23 24  1  0
 24 25  2  0
 25 26  1  0
 26 27  2  0
 27 28  1  0
 28 29  1  0
 29 30  1  0
 29 31  2  0
 25 32  1  0
 18 33  1  0
 33 34  1  0
 34 35  1  0
 35 36  1  0
 36 37  1  0
 36 38  2  0
 10  5  1  0
 16 11  1  0
 32 22  1  0
 33 14  1  0
 31 26  1  0
M  END
>  <Compound_ID>  (183) 
CHEMBL520432

>  <Molecule Name>  (183) 
nan

>  <Molecular Weight>  (183) 
545.65

>  <AlogP>  (183) 
3.63

>  <Smiles>  (183) 
CN(C(=O)c1ccccc1)c1ccc2c(c1)[nH]/c(=N\C(=O)c1ccc(-c3csc(N)n3)s1)n2CCC(N)=O

>  <Standard Type>  (183) 
IC50

>  <Standard Relation>  (183) 
'='

>  <Standard Units>  (183) 
nM

>  <Standard Value>  (183) 
10.0

>  <Assay ChEMBL ID>  (183) 
CHEMBL992190

>  <Assay Description>  (183) 
Inhibition of ITK by DELFIA method

>  <BAO Format ID>  (183) 
BAO_0000357

>  <BAO Label>  (183) 
single protein format

>  <Assay Organism>  (183) 
None

>  <Target ChEMBL ID>  (183) 
CHEMBL2959

>  <Target Name>  (183) 
Tyrosine-protein kinase ITK/TSK

>  <Target Organism>  (183) 
Homo sapiens

>  <Target Type>  (183) 
SINGLE PROTEIN

>  <Document ChEMBL ID>  (183) 
CHEMBL1143295

>  <Source Description>  (183) 
Scientific Literature

>  <Document Journal>  (183) 
Bioorg Med Chem Lett

>  <Document Year>  (183) 
2009.0

>  <Active>  (183) 
1.0

$$$$

     RDKit          2D

 37 41  0  0  0  0  0  0  0  0999 V2000
    0.7500   -3.8971    0.0000 C   0  0  0  0  0  0  0  0  0  0  0  0
    1.5000   -2.5981    0.0000 N   0  0  0  0  0  0  0  0  0  0  0  0
    3.0000   -2.5981    0.0000 C   0  0  0  0  0  0  0  0  0  0  0  0
    3.7500   -1.2990    0.0000 O   0  0  0  0  0  0  0  0  0  0  0  0
    3.7500   -3.8971    0.0000 C   0  0  0  0  0  0  0  0  0  0  0  0
    3.0000   -5.1962    0.0000 C   0  0  0  0  0  0  0  0  0  0  0  0
    3.7500   -6.4952    0.0000 C   0  0  0  0  0  0  0  0  0  0  0  0
    5.2500   -6.4952    0.0000 C   0  0  0  0  0  0  0  0  0  0  0  0
    6.0000   -5.1962    0.0000 C   0  0  0  0  0  0  0  0  0  0  0  0
    5.2500   -3.8971    0.0000 C   0  0  0  0  0  0  0  0  0  0  0  0
    0.7500   -1.2990    0.0000 C   0  0  0  0  0  0  0  0  0  0  0  0
    1.5000    0.0000    0.0000 C   0  0  0  0  0  0  0  0  0  0  0  0
    0.7500    1.2990    0.0000 C   0  0  0  0  0  0  0  0  0  0  0  0
   -0.7500    1.2990    0.0000 C   0  0  0  0  0  0  0  0  0  0  0  0
   -1.5000    0.0000    0.0000 C   0  0  0  0  0  0  0  0  0  0  0  0
   -0.7500   -1.2990    0.0000 C   0  0  0  0  0  0  0  0  0  0  0  0
   -2.9672    0.3119    0.0000 N   0  0  0  0  0  0  0  0  0  0  0  0
   -3.1240    1.8037    0.0000 C   0  0  0  0  0  0  0  0  0  0  0  0
   -4.4231    2.5537    0.0000 N   0  0  0  0  0  0  0  0  0  0  0  0
   -5.7221    1.8037    0.0000 C   0  0  0  0  0  0  0  0  0  0  0  0
   -5.7221    0.3037    0.0000 O   0  0  0  0  0  0  0  0  0  0  0  0
   -7.0211    2.5537    0.0000 C   0  0  0  0  0  0  0  0  0  0  0  0
   -8.3914    1.9435    0.0000 C   0  0  0  0  0  0  0  0  0  0  0  0
   -9.3951    3.0583    0.0000 C   0  0  0  0  0  0  0  0  0  0  0  0
   -8.6451    4.3573    0.0000 C   0  0  0  0  0  0  0  0  0  0  0  0
   -9.2552    5.7276    0.0000 C   0  0  0  0  0  0  0  0  0  0  0  0
  -10.7225    6.0395    0.0000 N   0  0  0  0  0  0  0  0  0  0  0  0
  -10.8793    7.5313    0.0000 C   0  0  0  0  0  0  0  0  0  0  0  0
   -9.5089    8.1414    0.0000 C   0  0  0  0  0  0  0  0  0  0  0  0
   -8.5052    7.0267    0.0000 O   0  0  0  0  0  0  0  0  0  0  0  0
   -7.1779    4.0454    0.0000 S   0  0  0  0  0  0  0  0  0  0  0  0
   -1.7537    2.4138    0.0000 N   0  0  0  0  0  0  0  0  0  0  0  0
   -1.4418    3.8810    0.0000 C   0  0  0  0  0  0  0  0  0  0  0  0
   -0.0152    4.3445    0.0000 C   0  0  0  0  0  0  0  0  0  0  0  0
    0.2966    5.8117    0.0000 C   0  0  0  0  0  0  0  0  0  0  0  0
    1.7232    6.2752    0.0000 N   0  0  0  0  0  0  0  0  0  0  0  0
   -0.8181    6.8154    0.0000 O   0  0  0  0  0  0  0  0  0  0  0  0
  1  2  1  0
  2  3  1  0
  3  4  2  0
  3  5  1  0
  5  6  2  0
  6  7  1  0
  7  8  2  0
  8  9  1  0
  9 10  2  0
  2 11  1  0
 11 12  2  0
 12 13  1  0
 13 14  2  0
 14 15  1  0
 15 16  2  0
 15 17  1  0
 17 18  1  0
 18 19  2  0
 19 20  1  0
 20 21  2  0
 20 22  1  0
 22 23  2  0
 23 24  1  0
 24 25  2  0
 25 26  1  0
 26 27  2  0
 27 28  1  0
 28 29  2  0
 29 30  1  0
 25 31  1  0
 18 32  1  0
 32 33  1  0
 33 34  1  0
 34 35  1  0
 35 36  1  0
 35 37  2  0
 10  5  1  0
 16 11  1  0
 31 22  1  0
 32 14  1  0
 30 26  1  0
M  END
>  <Compound_ID>  (184) 
CHEMBL482367

>  <Molecule Name>  (184) 
nan

>  <Molecular Weight>  (184) 
514.57

>  <AlogP>  (184) 
3.58

>  <Smiles>  (184) 
CN(C(=O)c1ccccc1)c1ccc2c(c1)[nH]/c(=N\C(=O)c1ccc(-c3ncco3)s1)n2CCC(N)=O

>  <Standard Type>  (184) 
IC50

>  <Standard Relation>  (184) 
'='

>  <Standard Units>  (184) 
nM

>  <Standard Value>  (184) 
8.0

>  <Assay ChEMBL ID>  (184) 
CHEMBL992190

>  <Assay Description>  (184) 
Inhibition of ITK by DELFIA method

>  <BAO Format ID>  (184) 
BAO_0000357

>  <BAO Label>  (184) 
single protein format

>  <Assay Organism>  (184) 
None

>  <Target ChEMBL ID>  (184) 
CHEMBL2959

>  <Target Name>  (184) 
Tyrosine-protein kinase ITK/TSK

>  <Target Organism>  (184) 
Homo sapiens

>  <Target Type>  (184) 
SINGLE PROTEIN

>  <Document ChEMBL ID>  (184) 
CHEMBL1143295

>  <Source Description>  (184) 
Scientific Literature

>  <Document Journal>  (184) 
Bioorg Med Chem Lett

>  <Document Year>  (184) 
2009.0

>  <Active>  (184) 
1.0

$$$$

     RDKit          2D

 23 25  0  0  0  0  0  0  0  0999 V2000
   10.5000   -7.7942    0.0000 C   0  0  0  0  0  0  0  0  0  0  0  0
    9.7500   -6.4952    0.0000 C   0  0  0  0  0  0  0  0  0  0  0  0
    8.2500   -6.4952    0.0000 C   0  0  0  0  0  0  0  0  0  0  0  0
    7.5000   -5.1962    0.0000 C   0  0  0  0  0  0  0  0  0  0  0  0
    6.0000   -5.1962    0.0000 C   0  0  0  0  0  0  0  0  0  0  0  0
    5.2500   -6.4952    0.0000 O   0  0  0  0  0  0  0  0  0  0  0  0
    5.2500   -3.8971    0.0000 N   0  0  0  0  0  0  0  0  0  0  0  0
    3.7500   -3.8971    0.0000 C   0  0  0  0  0  0  0  0  0  0  0  0
    3.0000   -5.1962    0.0000 C   0  0  0  0  0  0  0  0  0  0  0  0
    1.5000   -5.1962    0.0000 C   0  0  0  0  0  0  0  0  0  0  0  0
    0.7500   -3.8971    0.0000 C   0  0  0  0  0  0  0  0  0  0  0  0
    1.5000   -2.5981    0.0000 C   0  0  0  0  0  0  0  0  0  0  0  0
    0.7500   -1.2990    0.0000 C   0  0  0  0  0  0  0  0  0  0  0  0
    1.5000    0.0000    0.0000 C   0  0  0  0  0  0  0  0  0  0  0  0
    0.7500    1.2990    0.0000 N   0  0  0  0  0  0  0  0  0  0  0  0
   -0.7500    1.2990    0.0000 C   0  0  0  0  0  0  0  0  0  0  0  0
   -1.7537    2.4138    0.0000 N   0  0  0  0  0  0  0  0  0  0  0  0
   -3.1240    1.8037    0.0000 N   0  0  0  0  0  0  0  0  0  0  0  0
   -2.9672    0.3119    0.0000 C   0  0  0  0  0  0  0  0  0  0  0  0
   -4.0819   -0.6918    0.0000 C   0  0  0  0  0  0  0  0  0  0  0  0
   -1.5000    0.0000    0.0000 C   0  0  0  0  0  0  0  0  0  0  0  0
   -0.7500   -1.2990    0.0000 C   0  0  0  0  0  0  0  0  0  0  0  0
    3.0000   -2.5981    0.0000 C   0  0  0  0  0  0  0  0  0  0  0  0
  1  2  1  0
  2  3  1  0
  3  4  2  0
  4  5  1  0
  5  6  2  0
  5  7  1  0
  7  8  1  0
  8  9  2  0
  9 10  1  0
 10 11  2  0
 11 12  1  0
 12 13  1  0
 13 14  2  0
 14 15  1  0
 15 16  2  0
 16 17  1  0
 17 18  1  0
 18 19  2  0
 19 20  1  0
 19 21  1  0
 21 22  2  0
 12 23  2  0
 23  8  1  0
 22 13  1  0
 21 16  1  0
M  END
>  <Compound_ID>  (185) 
CHEMBL3967741

>  <Molecule Name>  (185) 
nan

>  <Molecular Weight>  (185) 
306.37

>  <AlogP>  (185) 
3.84

>  <Smiles>  (185) 
CC/C=C/C(=O)Nc1cccc(-c2cnc3[nH]nc(C)c3c2)c1

>  <Standard Type>  (185) 
IC50

>  <Standard Relation>  (185) 
'='

>  <Standard Units>  (185) 
nM

>  <Standard Value>  (185) 
35.0

>  <Assay ChEMBL ID>  (185) 
CHEMBL3887687

>  <Assay Description>  (185) 
Biochemical Inhibition Assay: 1H-pyrrolo[2,3-b]pyridine, 1H-pyrazolo[3,4-b]pyridine and 5H-pyrrolo[2,3-b]pyrazine series of compounds exhibited over >100 fold selective against Janus and TEC family of kinases except for the BMX and TXK it had activity of 30 and 45 nM respectively.

>  <BAO Format ID>  (185) 
BAO_0000357

>  <BAO Label>  (185) 
single protein format

>  <Assay Organism>  (185) 
Homo sapiens

>  <Target ChEMBL ID>  (185) 
CHEMBL2959

>  <Target Name>  (185) 
Tyrosine-protein kinase ITK/TSK

>  <Target Organism>  (185) 
Homo sapiens

>  <Target Type>  (185) 
SINGLE PROTEIN

>  <Document ChEMBL ID>  (185) 
CHEMBL3886406

>  <Source Description>  (185) 
BindingDB Database

>  <Document Journal>  (185) 
nan

>  <Document Year>  (185) 
2015.0

>  <Active>  (185) 
1.0

$$$$

     RDKit          2D

 34 37  0  0  0  0  0  0  0  0999 V2000
    3.7500   -1.2990    0.0000 C   0  0  0  0  0  0  0  0  0  0  0  0
    3.0000    0.0000    0.0000 O   0  0  0  0  0  0  0  0  0  0  0  0
    1.5000    0.0000    0.0000 C   0  0  0  0  0  0  0  0  0  0  0  0
    0.7500   -1.2990    0.0000 C   0  0  0  0  0  0  0  0  0  0  0  0
   -0.7500   -1.2990    0.0000 C   0  0  0  0  0  0  0  0  0  0  0  0
   -1.5000   -2.5981    0.0000 C   0  0  0  0  0  0  0  0  0  0  0  0
   -1.5000    0.0000    0.0000 C   0  0  0  0  0  0  0  0  0  0  0  0
   -3.0000    0.0000    0.0000 S   0  0  0  0  0  0  0  0  0  0  0  0
   -3.7500    1.2990    0.0000 C   0  0  0  0  0  0  0  0  0  0  0  0
   -5.2418    1.4558    0.0000 C   0  0  0  0  0  0  0  0  0  0  0  0
   -5.5537    2.9231    0.0000 N   0  0  0  0  0  0  0  0  0  0  0  0
   -4.2546    3.6731    0.0000 C   0  0  0  0  0  0  0  0  0  0  0  0
   -4.0978    5.1648    0.0000 N   0  0  0  0  0  0  0  0  0  0  0  0
   -2.7275    5.7749    0.0000 C   0  0  0  0  0  0  0  0  0  0  0  0
   -1.5140    4.8933    0.0000 O   0  0  0  0  0  0  0  0  0  0  0  0
   -2.5707    7.2667    0.0000 C   0  0  0  0  0  0  0  0  0  0  0  0
   -3.6854    8.2704    0.0000 C   0  0  0  0  0  0  0  0  0  0  0  0
   -3.0753    9.6407    0.0000 C   0  0  0  0  0  0  0  0  0  0  0  0
   -1.5835    9.4839    0.0000 C   0  0  0  0  0  0  0  0  0  0  0  0
   -1.2717    8.0167    0.0000 N   0  0  0  0  0  0  0  0  0  0  0  0
   -3.1399    2.6694    0.0000 S   0  0  0  0  0  0  0  0  0  0  0  0
   -0.7500    1.2990    0.0000 C   0  0  0  0  0  0  0  0  0  0  0  0
    0.7500    1.2990    0.0000 C   0  0  0  0  0  0  0  0  0  0  0  0
    1.5000    2.5981    0.0000 C   0  0  0  0  0  0  0  0  0  0  0  0
    0.7500    3.8971    0.0000 O   0  0  0  0  0  0  0  0  0  0  0  0
    3.0000    2.5981    0.0000 N   0  0  0  0  0  0  0  0  0  0  0  0
    3.7500    1.2990    0.0000 C   0  0  0  0  0  0  0  0  0  0  0  0
    5.2500    1.2990    0.0000 C   0  0  0  0  0  0  0  0  0  0  0  0
    6.0000    2.5981    0.0000 N   0  0  0  0  0  0  0  0  0  0  0  0
    7.5000    2.5981    0.0000 C   0  0  0  0  0  0  0  0  0  0  0  0
    8.2500    1.2990    0.0000 C   0  0  0  0  0  0  0  0  0  0  0  0
    8.2500    3.8971    0.0000 O   0  0  0  0  0  0  0  0  0  0  0  0
    5.2500    3.8971    0.0000 C   0  0  0  0  0  0  0  0  0  0  0  0
    3.7500    3.8971    0.0000 C   0  0  0  0  0  0  0  0  0  0  0  0
  1  2  1  0
  2  3  1  0
  3  4  2  0
  4  5  1  0
  5  6  1  0
  5  7  2  0
  7  8  1  0
  8  9  1  0
  9 10  2  0
 10 11  1  0
 11 12  2  0
 12 13  1  0
 13 14  1  0
 14 15  2  0
 14 16  1  0
 16 17  2  0
 17 18  1  0
 18 19  2  0
 19 20  1  0
 12 21  1  0
  7 22  1  0
 22 23  2  0
 23 24  1  0
 24 25  2  0
 24 26  1  0
 26 27  1  0
 27 28  1  0
 28 29  1  0
 29 30  1  0
 30 31  1  0
 30 32  2  0
 29 33  1  0
 33 34  1  0
 23  3  1  0
 34 26  1  0
 21  9  1  0
 20 16  1  0
M  END
>  <Compound_ID>  (186) 
CHEMBL209163

>  <Molecule Name>  (186) 
nan

>  <Molecular Weight>  (186) 
499.62

>  <AlogP>  (186) 
3.50

>  <Smiles>  (186) 
COc1cc(C)c(Sc2cnc(NC(=O)c3ccc[nH]3)s2)cc1C(=O)N1CCN(C(C)=O)CC1

>  <Standard Type>  (186) 
IC50

>  <Standard Relation>  (186) 
'='

>  <Standard Units>  (186) 
nM

>  <Standard Value>  (186) 
14.0

>  <Assay ChEMBL ID>  (186) 
CHEMBL864159

>  <Assay Description>  (186) 
Inhibition of Itk

>  <BAO Format ID>  (186) 
BAO_0000357

>  <BAO Label>  (186) 
single protein format

>  <Assay Organism>  (186) 
Homo sapiens

>  <Target ChEMBL ID>  (186) 
CHEMBL2959

>  <Target Name>  (186) 
Tyrosine-protein kinase ITK/TSK

>  <Target Organism>  (186) 
Homo sapiens

>  <Target Type>  (186) 
SINGLE PROTEIN

>  <Document ChEMBL ID>  (186) 
CHEMBL1138957

>  <Source Description>  (186) 
Scientific Literature

>  <Document Journal>  (186) 
Bioorg Med Chem Lett

>  <Document Year>  (186) 
2006.0

>  <Active>  (186) 
1.0

$$$$

     RDKit          2D

 38 42  0  0  0  0  0  0  0  0999 V2000
    0.7500   -3.8971    0.0000 C   0  0  0  0  0  0  0  0  0  0  0  0
    1.5000   -2.5981    0.0000 N   0  0  0  0  0  0  0  0  0  0  0  0
    3.0000   -2.5981    0.0000 C   0  0  0  0  0  0  0  0  0  0  0  0
    3.7500   -1.2990    0.0000 O   0  0  0  0  0  0  0  0  0  0  0  0
    3.7500   -3.8971    0.0000 C   0  0  0  0  0  0  0  0  0  0  0  0
    3.0000   -5.1962    0.0000 C   0  0  0  0  0  0  0  0  0  0  0  0
    3.7500   -6.4952    0.0000 C   0  0  0  0  0  0  0  0  0  0  0  0
    5.2500   -6.4952    0.0000 C   0  0  0  0  0  0  0  0  0  0  0  0
    6.0000   -5.1962    0.0000 C   0  0  0  0  0  0  0  0  0  0  0  0
    5.2500   -3.8971    0.0000 C   0  0  0  0  0  0  0  0  0  0  0  0
    0.7500   -1.2990    0.0000 C   0  0  0  0  0  0  0  0  0  0  0  0
    1.5000    0.0000    0.0000 C   0  0  0  0  0  0  0  0  0  0  0  0
    0.7500    1.2990    0.0000 C   0  0  0  0  0  0  0  0  0  0  0  0
   -0.7500    1.2990    0.0000 C   0  0  0  0  0  0  0  0  0  0  0  0
   -1.5000    0.0000    0.0000 C   0  0  0  0  0  0  0  0  0  0  0  0
   -0.7500   -1.2990    0.0000 C   0  0  0  0  0  0  0  0  0  0  0  0
   -2.9672    0.3119    0.0000 N   0  0  0  0  0  0  0  0  0  0  0  0
   -3.1240    1.8037    0.0000 C   0  0  0  0  0  0  0  0  0  0  0  0
   -4.4231    2.5537    0.0000 N   0  0  0  0  0  0  0  0  0  0  0  0
   -5.7221    1.8037    0.0000 C   0  0  0  0  0  0  0  0  0  0  0  0
   -5.7221    0.3037    0.0000 O   0  0  0  0  0  0  0  0  0  0  0  0
   -7.0211    2.5537    0.0000 C   0  0  0  0  0  0  0  0  0  0  0  0
   -8.3914    1.9435    0.0000 C   0  0  0  0  0  0  0  0  0  0  0  0
   -9.3951    3.0583    0.0000 C   0  0  0  0  0  0  0  0  0  0  0  0
   -8.6451    4.3573    0.0000 C   0  0  0  0  0  0  0  0  0  0  0  0
   -9.2552    5.7276    0.0000 C   0  0  0  0  0  0  0  0  0  0  0  0
   -8.3736    6.9411    0.0000 C   0  0  0  0  0  0  0  0  0  0  0  0
   -8.9837    8.3115    0.0000 C   0  0  0  0  0  0  0  0  0  0  0  0
  -10.4755    8.4683    0.0000 C   0  0  0  0  0  0  0  0  0  0  0  0
  -11.3571    7.2547    0.0000 C   0  0  0  0  0  0  0  0  0  0  0  0
  -10.7470    5.8844    0.0000 C   0  0  0  0  0  0  0  0  0  0  0  0
   -7.1779    4.0454    0.0000 S   0  0  0  0  0  0  0  0  0  0  0  0
   -1.7537    2.4138    0.0000 N   0  0  0  0  0  0  0  0  0  0  0  0
   -1.4418    3.8810    0.0000 C   0  0  0  0  0  0  0  0  0  0  0  0
   -0.0152    4.3445    0.0000 C   0  0  0  0  0  0  0  0  0  0  0  0
    0.2966    5.8117    0.0000 C   0  0  0  0  0  0  0  0  0  0  0  0
    1.7232    6.2752    0.0000 N   0  0  0  0  0  0  0  0  0  0  0  0
   -0.8181    6.8154    0.0000 O   0  0  0  0  0  0  0  0  0  0  0  0
  1  2  1  0
  2  3  1  0
  3  4  2  0
  3  5  1  0
  5  6  2  0
  6  7  1  0
  7  8  2  0
  8  9  1  0
  9 10  2  0
  2 11  1  0
 11 12  2  0
 12 13  1  0
 13 14  2  0
 14 15  1  0
 15 16  2  0
 15 17  1  0
 17 18  1  0
 18 19  2  0
 19 20  1  0
 20 21  2  0
 20 22  1  0
 22 23  2  0
 23 24  1  0
 24 25  2  0
 25 26  1  0
 26 27  2  0
 27 28  1  0
 28 29  2  0
 29 30  1  0
 30 31  2  0
 25 32  1  0
 18 33  1  0
 33 34  1  0
 34 35  1  0
 35 36  1  0
 36 37  1  0
 36 38  2  0
 10  5  1  0
 16 11  1  0
 32 22  1  0
 33 14  1  0
 31 26  1  0
M  END
>  <Compound_ID>  (187) 
CHEMBL518937

>  <Molecule Name>  (187) 
nan

>  <Molecular Weight>  (187) 
523.62

>  <AlogP>  (187) 
4.59

>  <Smiles>  (187) 
CN(C(=O)c1ccccc1)c1ccc2c(c1)[nH]/c(=N\C(=O)c1ccc(-c3ccccc3)s1)n2CCC(N)=O

>  <Standard Type>  (187) 
IC50

>  <Standard Relation>  (187) 
'='

>  <Standard Units>  (187) 
nM

>  <Standard Value>  (187) 
39.0

>  <Assay ChEMBL ID>  (187) 
CHEMBL992190

>  <Assay Description>  (187) 
Inhibition of ITK by DELFIA method

>  <BAO Format ID>  (187) 
BAO_0000357

>  <BAO Label>  (187) 
single protein format

>  <Assay Organism>  (187) 
None

>  <Target ChEMBL ID>  (187) 
CHEMBL2959

>  <Target Name>  (187) 
Tyrosine-protein kinase ITK/TSK

>  <Target Organism>  (187) 
Homo sapiens

>  <Target Type>  (187) 
SINGLE PROTEIN

>  <Document ChEMBL ID>  (187) 
CHEMBL1143295

>  <Source Description>  (187) 
Scientific Literature

>  <Document Journal>  (187) 
Bioorg Med Chem Lett

>  <Document Year>  (187) 
2009.0

>  <Active>  (187) 
1.0

$$$$

     RDKit          2D

 33 36  0  0  0  0  0  0  0  0999 V2000
    0.7500   -3.8971    0.0000 C   0  0  0  0  0  0  0  0  0  0  0  0
    1.5000   -2.5981    0.0000 N   0  0  0  0  0  0  0  0  0  0  0  0
    3.0000   -2.5981    0.0000 C   0  0  0  0  0  0  0  0  0  0  0  0
    3.7500   -1.2990    0.0000 O   0  0  0  0  0  0  0  0  0  0  0  0
    3.7500   -3.8971    0.0000 C   0  0  0  0  0  0  0  0  0  0  0  0
    3.0000   -5.1962    0.0000 C   0  0  0  0  0  0  0  0  0  0  0  0
    3.7500   -6.4952    0.0000 C   0  0  0  0  0  0  0  0  0  0  0  0
    5.2500   -6.4952    0.0000 C   0  0  0  0  0  0  0  0  0  0  0  0
    6.0000   -5.1962    0.0000 C   0  0  0  0  0  0  0  0  0  0  0  0
    5.2500   -3.8971    0.0000 C   0  0  0  0  0  0  0  0  0  0  0  0
    0.7500   -1.2990    0.0000 C   0  0  0  0  0  0  0  0  0  0  0  0
    1.5000    0.0000    0.0000 C   0  0  0  0  0  0  0  0  0  0  0  0
    0.7500    1.2990    0.0000 C   0  0  0  0  0  0  0  0  0  0  0  0
   -0.7500    1.2990    0.0000 C   0  0  0  0  0  0  0  0  0  0  0  0
   -1.5000    0.0000    0.0000 C   0  0  0  0  0  0  0  0  0  0  0  0
   -0.7500   -1.2990    0.0000 C   0  0  0  0  0  0  0  0  0  0  0  0
   -2.9672    0.3119    0.0000 N   0  0  0  0  0  0  0  0  0  0  0  0
   -3.1240    1.8037    0.0000 C   0  0  0  0  0  0  0  0  0  0  0  0
   -4.4231    2.5537    0.0000 N   0  0  0  0  0  0  0  0  0  0  0  0
   -4.4231    4.0537    0.0000 C   0  0  0  0  0  0  0  0  0  0  0  0
   -3.1240    4.8037    0.0000 O   0  0  0  0  0  0  0  0  0  0  0  0
   -5.7221    4.8037    0.0000 C   0  0  0  0  0  0  0  0  0  0  0  0
   -5.7221    6.3037    0.0000 C   0  0  0  0  0  0  0  0  0  0  0  0
   -7.0211    7.0537    0.0000 C   0  0  0  0  0  0  0  0  0  0  0  0
   -8.3202    6.3037    0.0000 C   0  0  0  0  0  0  0  0  0  0  0  0
   -8.3202    4.8037    0.0000 C   0  0  0  0  0  0  0  0  0  0  0  0
   -7.0211    4.0537    0.0000 C   0  0  0  0  0  0  0  0  0  0  0  0
   -1.7537    2.4138    0.0000 N   0  0  0  0  0  0  0  0  0  0  0  0
   -1.4418    3.8810    0.0000 C   0  0  0  0  0  0  0  0  0  0  0  0
   -0.0152    4.3445    0.0000 C   0  0  0  0  0  0  0  0  0  0  0  0
    0.2966    5.8117    0.0000 C   0  0  0  0  0  0  0  0  0  0  0  0
    1.7232    6.2752    0.0000 N   0  0  0  0  0  0  0  0  0  0  0  0
   -0.8181    6.8154    0.0000 O   0  0  0  0  0  0  0  0  0  0  0  0
  1  2  1  0
  2  3  1  0
  3  4  2  0
  3  5  1  0
  5  6  1  0
  6  7  1  0
  7  8  1  0
  8  9  1  0
  9 10  1  0
  2 11  1  0
 11 12  2  0
 12 13  1  0
 13 14  2  0
 14 15  1  0
 15 16  2  0
 15 17  1  0
 17 18  2  0
 18 19  1  0
 19 20  1  0
 20 21  2  0
 20 22  1  0
 22 23  2  0
 23 24  1  0
 24 25  2  0
 25 26  1  0
 26 27  2  0
 18 28  1  0
 28 29  1  0
 29 30  1  0
 30 31  1  0
 31 32  1  0
 31 33  2  0
 10  5  1  0
 16 11  1  0
 27 22  1  0
 28 14  1  0
M  END
>  <Compound_ID>  (188) 
CHEMBL519698

>  <Molecule Name>  (188) 
nan

>  <Molecular Weight>  (188) 
447.54

>  <AlogP>  (188) 
3.71

>  <Smiles>  (188) 
CN(C(=O)C1CCCCC1)c1ccc2c(c1)nc(NC(=O)c1ccccc1)n2CCC(N)=O

>  <Standard Type>  (188) 
IC50

>  <Standard Relation>  (188) 
'='

>  <Standard Units>  (188) 
nM

>  <Standard Value>  (188) 
16.0

>  <Assay ChEMBL ID>  (188) 
CHEMBL992563

>  <Assay Description>  (188) 
Inhibition of ITK by DELFIA assay

>  <BAO Format ID>  (188) 
BAO_0000357

>  <BAO Label>  (188) 
single protein format

>  <Assay Organism>  (188) 
None

>  <Target ChEMBL ID>  (188) 
CHEMBL2959

>  <Target Name>  (188) 
Tyrosine-protein kinase ITK/TSK

>  <Target Organism>  (188) 
Homo sapiens

>  <Target Type>  (188) 
SINGLE PROTEIN

>  <Document ChEMBL ID>  (188) 
CHEMBL1142468

>  <Source Description>  (188) 
Scientific Literature

>  <Document Journal>  (188) 
Bioorg Med Chem Lett

>  <Document Year>  (188) 
2008.0

>  <Active>  (188) 
1.0

$$$$

     RDKit          2D

 37 41  0  0  0  0  0  0  0  0999 V2000
    0.7500   -3.8971    0.0000 C   0  0  0  0  0  0  0  0  0  0  0  0
    1.5000   -2.5981    0.0000 N   0  0  0  0  0  0  0  0  0  0  0  0
    3.0000   -2.5981    0.0000 C   0  0  0  0  0  0  0  0  0  0  0  0
    3.7500   -1.2990    0.0000 O   0  0  0  0  0  0  0  0  0  0  0  0
    3.7500   -3.8971    0.0000 C   0  0  0  0  0  0  0  0  0  0  0  0
    3.0000   -5.1962    0.0000 C   0  0  0  0  0  0  0  0  0  0  0  0
    3.7500   -6.4952    0.0000 C   0  0  0  0  0  0  0  0  0  0  0  0
    5.2500   -6.4952    0.0000 C   0  0  0  0  0  0  0  0  0  0  0  0
    6.0000   -5.1962    0.0000 C   0  0  0  0  0  0  0  0  0  0  0  0
    5.2500   -3.8971    0.0000 C   0  0  0  0  0  0  0  0  0  0  0  0
    0.7500   -1.2990    0.0000 C   0  0  0  0  0  0  0  0  0  0  0  0
    1.5000    0.0000    0.0000 C   0  0  0  0  0  0  0  0  0  0  0  0
    0.7500    1.2990    0.0000 C   0  0  0  0  0  0  0  0  0  0  0  0
   -0.7500    1.2990    0.0000 C   0  0  0  0  0  0  0  0  0  0  0  0
   -1.5000    0.0000    0.0000 C   0  0  0  0  0  0  0  0  0  0  0  0
   -0.7500   -1.2990    0.0000 C   0  0  0  0  0  0  0  0  0  0  0  0
   -2.9672    0.3119    0.0000 N   0  0  0  0  0  0  0  0  0  0  0  0
   -3.1240    1.8037    0.0000 C   0  0  0  0  0  0  0  0  0  0  0  0
   -4.4231    2.5537    0.0000 N   0  0  0  0  0  0  0  0  0  0  0  0
   -5.7221    1.8037    0.0000 C   0  0  0  0  0  0  0  0  0  0  0  0
   -5.7221    0.3037    0.0000 O   0  0  0  0  0  0  0  0  0  0  0  0
   -7.0211    2.5537    0.0000 C   0  0  0  0  0  0  0  0  0  0  0  0
   -8.3914    1.9435    0.0000 C   0  0  0  0  0  0  0  0  0  0  0  0
   -9.3951    3.0583    0.0000 C   0  0  0  0  0  0  0  0  0  0  0  0
   -8.6451    4.3573    0.0000 C   0  0  0  0  0  0  0  0  0  0  0  0
   -9.2552    5.7276    0.0000 C   0  0  0  0  0  0  0  0  0  0  0  0
  -10.7225    6.0395    0.0000 C   0  0  0  0  0  0  0  0  0  0  0  0
  -10.8793    7.5313    0.0000 N   0  0  0  0  0  0  0  0  0  0  0  0
   -9.5089    8.1414    0.0000 C   0  0  0  0  0  0  0  0  0  0  0  0
   -8.5052    7.0267    0.0000 O   0  0  0  0  0  0  0  0  0  0  0  0
   -7.1779    4.0454    0.0000 S   0  0  0  0  0  0  0  0  0  0  0  0
   -1.7537    2.4138    0.0000 N   0  0  0  0  0  0  0  0  0  0  0  0
   -1.4418    3.8810    0.0000 C   0  0  0  0  0  0  0  0  0  0  0  0
   -0.0152    4.3445    0.0000 C   0  0  0  0  0  0  0  0  0  0  0  0
    0.2966    5.8117    0.0000 C   0  0  0  0  0  0  0  0  0  0  0  0
    1.7232    6.2752    0.0000 N   0  0  0  0  0  0  0  0  0  0  0  0
   -0.8181    6.8154    0.0000 O   0  0  0  0  0  0  0  0  0  0  0  0
  1  2  1  0
  2  3  1  0
  3  4  2  0
  3  5  1  0
  5  6  2  0
  6  7  1  0
  7  8  2  0
  8  9  1  0
  9 10  2  0
  2 11  1  0
 11 12  2  0
 12 13  1  0
 13 14  2  0
 14 15  1  0
 15 16  2  0
 15 17  1  0
 17 18  1  0
 18 19  2  0
 19 20  1  0
 20 21  2  0
 20 22  1  0
 22 23  2  0
 23 24  1  0
 24 25  2  0
 25 26  1  0
 26 27  2  0
 27 28  1  0
 28 29  2  0
 29 30  1  0
 25 31  1  0
 18 32  1  0
 32 33  1  0
 33 34  1  0
 34 35  1  0
 35 36  1  0
 35 37  2  0
 10  5  1  0
 16 11  1  0
 31 22  1  0
 32 14  1  0
 30 26  1  0
M  END
>  <Compound_ID>  (189) 
CHEMBL481884

>  <Molecule Name>  (189) 
nan

>  <Molecular Weight>  (189) 
514.57

>  <AlogP>  (189) 
3.58

>  <Smiles>  (189) 
CN(C(=O)c1ccccc1)c1ccc2c(c1)[nH]/c(=N\C(=O)c1ccc(-c3cnco3)s1)n2CCC(N)=O

>  <Standard Type>  (189) 
IC50

>  <Standard Relation>  (189) 
'='

>  <Standard Units>  (189) 
nM

>  <Standard Value>  (189) 
2.0

>  <Assay ChEMBL ID>  (189) 
CHEMBL992190

>  <Assay Description>  (189) 
Inhibition of ITK by DELFIA method

>  <BAO Format ID>  (189) 
BAO_0000357

>  <BAO Label>  (189) 
single protein format

>  <Assay Organism>  (189) 
None

>  <Target ChEMBL ID>  (189) 
CHEMBL2959

>  <Target Name>  (189) 
Tyrosine-protein kinase ITK/TSK

>  <Target Organism>  (189) 
Homo sapiens

>  <Target Type>  (189) 
SINGLE PROTEIN

>  <Document ChEMBL ID>  (189) 
CHEMBL1143295

>  <Source Description>  (189) 
Scientific Literature

>  <Document Journal>  (189) 
Bioorg Med Chem Lett

>  <Document Year>  (189) 
2009.0

>  <Active>  (189) 
1.0

$$$$

     RDKit          2D

 35 38  0  0  0  0  0  0  0  0999 V2000
    0.7500   -3.8971    0.0000 C   0  0  0  0  0  0  0  0  0  0  0  0
    1.5000   -2.5981    0.0000 N   0  0  0  0  0  0  0  0  0  0  0  0
    3.0000   -2.5981    0.0000 C   0  0  0  0  0  0  0  0  0  0  0  0
    3.7500   -1.2990    0.0000 O   0  0  0  0  0  0  0  0  0  0  0  0
    3.7500   -3.8971    0.0000 C   0  0  0  0  0  0  0  0  0  0  0  0
    3.0000   -5.1962    0.0000 C   0  0  0  0  0  0  0  0  0  0  0  0
    3.7500   -6.4952    0.0000 C   0  0  0  0  0  0  0  0  0  0  0  0
    5.2500   -6.4952    0.0000 N   0  0  0  0  0  0  0  0  0  0  0  0
    6.0000   -5.1962    0.0000 C   0  0  0  0  0  0  0  0  0  0  0  0
    5.2500   -3.8971    0.0000 C   0  0  0  0  0  0  0  0  0  0  0  0
    0.7500   -1.2990    0.0000 C   0  0  0  0  0  0  0  0  0  0  0  0
    1.5000    0.0000    0.0000 C   0  0  0  0  0  0  0  0  0  0  0  0
    0.7500    1.2990    0.0000 C   0  0  0  0  0  0  0  0  0  0  0  0
   -0.7500    1.2990    0.0000 C   0  0  0  0  0  0  0  0  0  0  0  0
   -1.5000    0.0000    0.0000 C   0  0  0  0  0  0  0  0  0  0  0  0
   -0.7500   -1.2990    0.0000 C   0  0  0  0  0  0  0  0  0  0  0  0
   -2.9672    0.3119    0.0000 N   0  0  0  0  0  0  0  0  0  0  0  0
   -3.1240    1.8037    0.0000 C   0  0  0  0  0  0  0  0  0  0  0  0
   -4.4231    2.5537    0.0000 N   0  0  0  0  0  0  0  0  0  0  0  0
   -4.4231    4.0537    0.0000 C   0  0  0  0  0  0  0  0  0  0  0  0
   -3.1240    4.8037    0.0000 O   0  0  0  0  0  0  0  0  0  0  0  0
   -5.7221    4.8037    0.0000 C   0  0  0  0  0  0  0  0  0  0  0  0
   -5.7221    6.3037    0.0000 C   0  0  0  0  0  0  0  0  0  0  0  0
   -7.0211    7.0537    0.0000 C   0  0  0  0  0  0  0  0  0  0  0  0
   -8.3202    6.3037    0.0000 C   0  0  0  0  0  0  0  0  0  0  0  0
   -9.6192    7.0537    0.0000 C   0  0  0  0  0  0  0  0  0  0  0  0
  -10.9182    7.8037    0.0000 N   0  0  0  0  0  0  0  0  0  0  0  0
   -8.3202    4.8037    0.0000 C   0  0  0  0  0  0  0  0  0  0  0  0
   -7.0211    4.0537    0.0000 C   0  0  0  0  0  0  0  0  0  0  0  0
   -1.7537    2.4138    0.0000 N   0  0  0  0  0  0  0  0  0  0  0  0
   -1.4418    3.8810    0.0000 C   0  0  0  0  0  0  0  0  0  0  0  0
   -0.0152    4.3445    0.0000 C   0  0  0  0  0  0  0  0  0  0  0  0
    0.2966    5.8117    0.0000 C   0  0  0  0  0  0  0  0  0  0  0  0
    1.7232    6.2752    0.0000 N   0  0  0  0  0  0  0  0  0  0  0  0
   -0.8181    6.8154    0.0000 O   0  0  0  0  0  0  0  0  0  0  0  0
  1  2  1  0
  2  3  1  0
  3  4  2  0
  3  5  1  0
  5  6  2  0
  6  7  1  0
  7  8  2  0
  8  9  1  0
  9 10  2  0
  2 11  1  0
 11 12  2  0
 12 13  1  0
 13 14  2  0
 14 15  1  0
 15 16  2  0
 15 17  1  0
 17 18  2  0
 18 19  1  0
 19 20  1  0
 20 21  2  0
 20 22  1  0
 22 23  2  0
 23 24  1  0
 24 25  2  0
 25 26  1  0
 26 27  3  0
 25 28  1  0
 28 29  2  0
 18 30  1  0
 30 31  1  0
 31 32  1  0
 32 33  1  0
 33 34  1  0
 33 35  2  0
 10  5  1  0
 16 11  1  0
 29 22  1  0
 30 14  1  0
M  END
>  <Compound_ID>  (190) 
CHEMBL485201

>  <Molecule Name>  (190) 
nan

>  <Molecular Weight>  (190) 
467.49

>  <AlogP>  (190) 
2.71

>  <Smiles>  (190) 
CN(C(=O)c1ccncc1)c1ccc2c(c1)nc(NC(=O)c1ccc(C#N)cc1)n2CCC(N)=O

>  <Standard Type>  (190) 
IC50

>  <Standard Relation>  (190) 
'='

>  <Standard Units>  (190) 
nM

>  <Standard Value>  (190) 
27.0

>  <Assay ChEMBL ID>  (190) 
CHEMBL992543

>  <Assay Description>  (190) 
Inhibition of recombinant ITK by DELFIA assay

>  <BAO Format ID>  (190) 
BAO_0000357

>  <BAO Label>  (190) 
single protein format

>  <Assay Organism>  (190) 
None

>  <Target ChEMBL ID>  (190) 
CHEMBL2959

>  <Target Name>  (190) 
Tyrosine-protein kinase ITK/TSK

>  <Target Organism>  (190) 
Homo sapiens

>  <Target Type>  (190) 
SINGLE PROTEIN

>  <Document ChEMBL ID>  (190) 
CHEMBL1142466

>  <Source Description>  (190) 
Scientific Literature

>  <Document Journal>  (190) 
Bioorg Med Chem Lett

>  <Document Year>  (190) 
2008.0

>  <Active>  (190) 
1.0

$$$$

     RDKit          2D

 39 43  0  0  0  0  0  0  0  0999 V2000
    0.7500   -3.8971    0.0000 C   0  0  0  0  0  0  0  0  0  0  0  0
    1.5000   -2.5981    0.0000 N   0  0  0  0  0  0  0  0  0  0  0  0
    3.0000   -2.5981    0.0000 C   0  0  0  0  0  0  0  0  0  0  0  0
    3.7500   -1.2990    0.0000 O   0  0  0  0  0  0  0  0  0  0  0  0
    3.7500   -3.8971    0.0000 C   0  0  0  0  0  0  0  0  0  0  0  0
    3.0000   -5.1962    0.0000 C   0  0  0  0  0  0  0  0  0  0  0  0
    3.7500   -6.4952    0.0000 C   0  0  0  0  0  0  0  0  0  0  0  0
    5.2500   -6.4952    0.0000 C   0  0  0  0  0  0  0  0  0  0  0  0
    6.0000   -5.1962    0.0000 C   0  0  0  0  0  0  0  0  0  0  0  0
    5.2500   -3.8971    0.0000 C   0  0  0  0  0  0  0  0  0  0  0  0
    0.7500   -1.2990    0.0000 C   0  0  0  0  0  0  0  0  0  0  0  0
    1.5000    0.0000    0.0000 C   0  0  0  0  0  0  0  0  0  0  0  0
    0.7500    1.2990    0.0000 C   0  0  0  0  0  0  0  0  0  0  0  0
   -0.7500    1.2990    0.0000 C   0  0  0  0  0  0  0  0  0  0  0  0
   -1.5000    0.0000    0.0000 C   0  0  0  0  0  0  0  0  0  0  0  0
   -0.7500   -1.2990    0.0000 C   0  0  0  0  0  0  0  0  0  0  0  0
   -2.9672    0.3119    0.0000 N   0  0  0  0  0  0  0  0  0  0  0  0
   -3.1240    1.8037    0.0000 C   0  0  0  0  0  0  0  0  0  0  0  0
   -4.4231    2.5537    0.0000 N   0  0  0  0  0  0  0  0  0  0  0  0
   -5.7221    1.8037    0.0000 C   0  0  0  0  0  0  0  0  0  0  0  0
   -5.7221    0.3037    0.0000 O   0  0  0  0  0  0  0  0  0  0  0  0
   -7.0211    2.5537    0.0000 C   0  0  0  0  0  0  0  0  0  0  0  0
   -8.3914    1.9435    0.0000 C   0  0  0  0  0  0  0  0  0  0  0  0
   -9.3951    3.0583    0.0000 C   0  0  0  0  0  0  0  0  0  0  0  0
   -8.6451    4.3573    0.0000 C   0  0  0  0  0  0  0  0  0  0  0  0
   -9.2552    5.7276    0.0000 C   0  0  0  0  0  0  0  0  0  0  0  0
   -8.3736    6.9411    0.0000 C   0  0  0  0  0  0  0  0  0  0  0  0
   -8.9837    8.3115    0.0000 C   0  0  0  0  0  0  0  0  0  0  0  0
  -10.4755    8.4683    0.0000 C   0  0  0  0  0  0  0  0  0  0  0  0
  -11.0856    9.8386    0.0000 F   0  0  0  0  0  0  0  0  0  0  0  0
  -11.3571    7.2547    0.0000 N   0  0  0  0  0  0  0  0  0  0  0  0
  -10.7470    5.8844    0.0000 C   0  0  0  0  0  0  0  0  0  0  0  0
   -7.1779    4.0454    0.0000 S   0  0  0  0  0  0  0  0  0  0  0  0
   -1.7537    2.4138    0.0000 N   0  0  0  0  0  0  0  0  0  0  0  0
   -1.4418    3.8810    0.0000 C   0  0  0  0  0  0  0  0  0  0  0  0
   -0.0152    4.3445    0.0000 C   0  0  0  0  0  0  0  0  0  0  0  0
    0.2966    5.8117    0.0000 C   0  0  0  0  0  0  0  0  0  0  0  0
    1.7232    6.2752    0.0000 N   0  0  0  0  0  0  0  0  0  0  0  0
   -0.8181    6.8154    0.0000 O   0  0  0  0  0  0  0  0  0  0  0  0
  1  2  1  0
  2  3  1  0
  3  4  2  0
  3  5  1  0
  5  6  2  0
  6  7  1  0
  7  8  2  0
  8  9  1  0
  9 10  2  0
  2 11  1  0
 11 12  2  0
 12 13  1  0
 13 14  2  0
 14 15  1  0
 15 16  2  0
 15 17  1  0
 17 18  1  0
 18 19  2  0
 19 20  1  0
 20 21  2  0
 20 22  1  0
 22 23  2  0
 23 24  1  0
 24 25  2  0
 25 26  1  0
 26 27  2  0
 27 28  1  0
 28 29  2  0
 29 30  1  0
 29 31  1  0
 31 32  2  0
 25 33  1  0
 18 34  1  0
 34 35  1  0
 35 36  1  0
 36 37  1  0
 37 38  1  0
 37 39  2  0
 10  5  1  0
 16 11  1  0
 33 22  1  0
 34 14  1  0
 32 26  1  0
M  END
>  <Compound_ID>  (191) 
CHEMBL475593

>  <Molecule Name>  (191) 
nan

>  <Molecular Weight>  (191) 
542.6

>  <AlogP>  (191) 
4.13

>  <Smiles>  (191) 
CN(C(=O)c1ccccc1)c1ccc2c(c1)[nH]/c(=N\C(=O)c1ccc(-c3ccc(F)nc3)s1)n2CCC(N)=O

>  <Standard Type>  (191) 
IC50

>  <Standard Relation>  (191) 
'='

>  <Standard Units>  (191) 
nM

>  <Standard Value>  (191) 
5.0

>  <Assay ChEMBL ID>  (191) 
CHEMBL992190

>  <Assay Description>  (191) 
Inhibition of ITK by DELFIA method

>  <BAO Format ID>  (191) 
BAO_0000357

>  <BAO Label>  (191) 
single protein format

>  <Assay Organism>  (191) 
None

>  <Target ChEMBL ID>  (191) 
CHEMBL2959

>  <Target Name>  (191) 
Tyrosine-protein kinase ITK/TSK

>  <Target Organism>  (191) 
Homo sapiens

>  <Target Type>  (191) 
SINGLE PROTEIN

>  <Document ChEMBL ID>  (191) 
CHEMBL1143295

>  <Source Description>  (191) 
Scientific Literature

>  <Document Journal>  (191) 
Bioorg Med Chem Lett

>  <Document Year>  (191) 
2009.0

>  <Active>  (191) 
1.0

$$$$

     RDKit          2D

 41 46  0  0  0  0  0  0  0  0999 V2000
   -2.2703   -0.3522    0.0000 C   0  0  0  0  0  0  0  0  0  0  0  0
   -3.6406   -0.9623    0.0000 C   0  0  0  0  0  0  0  0  0  0  0  0
   -3.7974   -2.4540    0.0000 C   0  0  0  0  0  0  0  0  0  0  0  0
   -2.5838   -3.3357    0.0000 C   0  0  0  0  0  0  0  0  0  0  0  0
   -2.7406   -4.8275    0.0000 C   0  0  0  0  0  0  0  0  0  0  0  0
   -4.1110   -5.4376    0.0000 Cl  0  0  0  0  0  0  0  0  0  0  0  0
   -1.5271   -5.7092    0.0000 C   0  0  0  0  0  0  0  0  0  0  0  0
   -0.1568   -5.0991    0.0000 C   0  0  0  0  0  0  0  0  0  0  0  0
    1.0567   -5.9808    0.0000 C   0  0  0  0  0  0  0  0  0  0  0  0
    0.8999   -7.4725    0.0000 N   0  0  0  0  0  0  0  0  0  0  0  0
    2.4271   -5.3707    0.0000 O   0  0  0  0  0  0  0  0  0  0  0  0
   -0.0000   -3.6073    0.0000 C   0  0  0  0  0  0  0  0  0  0  0  0
    1.2135   -2.7256    0.0000 N   0  0  0  0  0  0  0  0  0  0  0  0
    0.7500   -1.2990    0.0000 C   0  0  0  0  0  0  0  0  0  0  0  0
    1.5000    0.0000    0.0000 C   0  0  0  0  0  0  0  0  0  0  0  0
    0.7500    1.2990    0.0000 C   0  0  0  0  0  0  0  0  0  0  0  0
    1.5000    2.5981    0.0000 C   0  0  0  0  0  0  0  0  0  0  0  0
    0.2010    3.3481    0.0000 C   0  0  0  0  0  0  0  0  0  0  0  0
    2.7990    1.8481    0.0000 C   0  0  0  0  0  0  0  0  0  0  0  0
    2.2500    3.8971    0.0000 O   0  0  0  0  0  0  0  0  0  0  0  0
   -0.7500    1.2990    0.0000 C   0  0  0  0  0  0  0  0  0  0  0  0
   -1.5000    0.0000    0.0000 C   0  0  0  0  0  0  0  0  0  0  0  0
   -0.7500   -1.2990    0.0000 C   0  0  0  0  0  0  0  0  0  0  0  0
   -1.2135   -2.7256    0.0000 C   0  0  0  0  0  0  0  0  0  0  0  0
   -5.1677   -3.0642    0.0000 C   0  0  0  0  0  0  0  0  0  0  0  0
   -6.3812   -2.1825    0.0000 C   0  0  0  0  0  0  0  0  0  0  0  0
   -6.2244   -0.6907    0.0000 C   0  0  0  0  0  0  0  0  0  0  0  0
   -4.8541   -0.0806    0.0000 C   0  0  0  0  0  0  0  0  0  0  0  0
   -4.6973    1.4112    0.0000 N   0  0  0  0  0  0  0  0  0  0  0  0
   -3.3270    2.0213    0.0000 C   0  0  0  0  0  0  0  0  0  0  0  0
   -2.1135    1.1396    0.0000 O   0  0  0  0  0  0  0  0  0  0  0  0
   -3.1702    3.5131    0.0000 C   0  0  0  0  0  0  0  0  0  0  0  0
   -4.3837    4.3948    0.0000 C   0  0  0  0  0  0  0  0  0  0  0  0
   -4.2269    5.8865    0.0000 C   0  0  0  0  0  0  0  0  0  0  0  0
   -2.8566    6.4966    0.0000 Cl  0  0  0  0  0  0  0  0  0  0  0  0
   -5.4405    6.7682    0.0000 C   0  0  0  0  0  0  0  0  0  0  0  0
   -6.8108    6.1581    0.0000 C   0  0  0  0  0  0  0  0  0  0  0  0
   -6.9676    4.6663    0.0000 C   0  0  0  0  0  0  0  0  0  0  0  0
   -5.7540    3.7847    0.0000 N   0  0  0  0  0  0  0  0  0  0  0  0
   -5.9108    2.2929    0.0000 C   0  0  0  0  0  0  0  0  0  0  0  0
   -7.2812    1.6828    0.0000 O   0  0  0  0  0  0  0  0  0  0  0  0
  1  2  1  0
  2  3  2  0
  3  4  1  0
  4  5  2  0
  5  6  1  0
  5  7  1  0
  7  8  2  0
  8  9  1  0
  9 10  1  0
  9 11  2  0
  8 12  1  0
 12 13  1  0
 13 14  1  0
 14 15  2  0
 15 16  1  0
 16 17  1  0
 17 18  1  0
 17 19  1  0
 17 20  1  0
 16 21  2  0
 21 22  1  0
 22 23  2  0
 23 24  1  0
  3 25  1  0
 25 26  2  0
 26 27  1  0
 27 28  2  0
 28 29  1  0
 29 30  1  0
 30 31  2  0
 30 32  1  0
 32 33  2  0
 33 34  1  0
 34 35  1  0
 34 36  2  0
 36 37  1  0
 37 38  2  0
 38 39  1  0
 39 40  1  0
 40 41  2  0
 28  2  1  0
 40 29  1  0
 24  4  1  0
 39 33  1  0
 24 12  2  0
 23 14  1  0
M  END
>  <Compound_ID>  (192) 
CHEMBL3928976

>  <Molecule Name>  (192) 
nan

>  <Molecular Weight>  (192) 
587.46

>  <AlogP>  (192) 
5.69

>  <Smiles>  (192) 
Cc1c(-c2c(Cl)cc(C(N)=O)c3[nH]c4cc(C(C)(C)O)ccc4c23)cccc1-n1c(=O)cc2c(Cl)cccn2c1=O

>  <Standard Type>  (192) 
IC50

>  <Standard Relation>  (192) 
'='

>  <Standard Units>  (192) 
nM

>  <Standard Value>  (192) 
21.0

>  <Assay ChEMBL ID>  (192) 
CHEMBL4672814

>  <Assay Description>  (192) 
Inhibition of ITK (unknown origin)

>  <BAO Format ID>  (192) 
BAO_0000357

>  <BAO Label>  (192) 
single protein format

>  <Assay Organism>  (192) 
Homo sapiens

>  <Target ChEMBL ID>  (192) 
CHEMBL2959

>  <Target Name>  (192) 
Tyrosine-protein kinase ITK/TSK

>  <Target Organism>  (192) 
Homo sapiens

>  <Target Type>  (192) 
SINGLE PROTEIN

>  <Document ChEMBL ID>  (192) 
CHEMBL4665894

>  <Source Description>  (192) 
Scientific Literature

>  <Document Journal>  (192) 
ACS Med Chem Lett

>  <Document Year>  (192) 
2020.0

>  <Active>  (192) 
1.0

$$$$

     RDKit          2D

 38 42  0  0  0  0  0  0  0  0999 V2000
   -6.4289   -8.5179    0.0000 C   0  0  0  0  0  0  0  0  0  0  0  0
   -6.1170   -7.0506    0.0000 C   0  0  0  0  0  0  0  0  0  0  0  0
   -4.6904   -6.5871    0.0000 C   0  0  0  0  0  0  0  0  0  0  0  0
   -3.5757   -7.5908    0.0000 O   0  0  0  0  0  0  0  0  0  0  0  0
   -4.3786   -5.1199    0.0000 N   0  0  0  0  0  0  0  0  0  0  0  0
   -5.4933   -4.1162    0.0000 C   0  0  0  0  0  0  0  0  0  0  0  0
   -5.1814   -2.6490    0.0000 C   0  0  0  0  0  0  0  0  0  0  0  0
   -3.7548   -2.1855    0.0000 C   0  0  0  0  0  0  0  0  0  0  0  0
   -2.6401   -3.1891    0.0000 C   0  0  0  0  0  0  0  0  0  0  0  0
   -1.2135   -2.7256    0.0000 N   0  0  0  0  0  0  0  0  0  0  0  0
   -0.0000   -3.6073    0.0000 N   0  0  0  0  0  0  0  0  0  0  0  0
    1.2135   -2.7256    0.0000 C   0  0  0  0  0  0  0  0  0  0  0  0
    2.6401   -3.1891    0.0000 C   0  0  0  0  0  0  0  0  0  0  0  0
    2.9520   -4.6564    0.0000 C   0  0  0  0  0  0  0  0  0  0  0  0
    4.3786   -5.1199    0.0000 C   0  0  0  0  0  0  0  0  0  0  0  0
    5.4933   -4.1162    0.0000 C   0  0  0  0  0  0  0  0  0  0  0  0
    5.1814   -2.6490    0.0000 C   0  0  0  0  0  0  0  0  0  0  0  0
    6.2961   -1.6453    0.0000 C   0  0  0  0  0  0  0  0  0  0  0  0
    5.9843   -0.1781    0.0000 O   0  0  0  0  0  0  0  0  0  0  0  0
    7.7227   -2.1088    0.0000 N   0  0  0  0  0  0  0  0  0  0  0  0
    8.8374   -1.1051    0.0000 C   0  0  0  0  0  0  0  0  0  0  0  0
   10.2640   -1.5686    0.0000 C   0  0  0  0  0  0  0  0  0  0  0  0
   11.3787   -0.5649    0.0000 C   0  0  0  0  0  0  0  0  0  0  0  0
   11.0669    0.9023    0.0000 C   0  0  0  0  0  0  0  0  0  0  0  0
   12.1816    1.9060    0.0000 C   0  0  0  0  0  0  0  0  0  0  0  0
   13.6082    1.4425    0.0000 C   0  0  0  0  0  0  0  0  0  0  0  0
   11.8697    3.3732    0.0000 C   0  0  0  0  0  0  0  0  0  0  0  0
    9.6403    1.3658    0.0000 C   0  0  0  0  0  0  0  0  0  0  0  0
    8.5256    0.3621    0.0000 C   0  0  0  0  0  0  0  0  0  0  0  0
    3.7548   -2.1855    0.0000 C   0  0  0  0  0  0  0  0  0  0  0  0
    0.7500   -1.2990    0.0000 C   0  0  0  0  0  0  0  0  0  0  0  0
    1.5000    0.0000    0.0000 C   0  0  0  0  0  0  0  0  0  0  0  0
    3.0000    0.0000    0.0000 N   0  0  0  0  0  0  0  0  0  0  0  0
    0.7500    1.2990    0.0000 N   0  0  0  0  0  0  0  0  0  0  0  0
   -0.7500    1.2990    0.0000 C   0  0  0  0  0  0  0  0  0  0  0  0
   -1.5000    0.0000    0.0000 N   0  0  0  0  0  0  0  0  0  0  0  0
   -0.7500   -1.2990    0.0000 C   0  0  0  0  0  0  0  0  0  0  0  0
   -2.9520   -4.6564    0.0000 C   0  0  0  0  0  0  0  0  0  0  0  0
  1  2  2  0
  2  3  1  0
  3  4  2  0
  3  5  1  0
  5  6  1  0
  6  7  1  0
  7  8  1  0
  8  9  1  0
  9 10  1  0
 10 11  1  0
 11 12  2  0
 12 13  1  0
 13 14  2  0
 14 15  1  0
 15 16  2  0
 16 17  1  0
 17 18  1  0
 18 19  2  0
 18 20  1  0
 20 21  1  0
 21 22  2  0
 22 23  1  0
 23 24  2  0
 24 25  1  0
 25 26  1  0
 25 27  1  0
 24 28  1  0
 28 29  2  0
 17 30  2  0
 12 31  1  0
 31 32  2  0
 32 33  1  0
 32 34  1  0
 34 35  2  0
 35 36  1  0
 36 37  2  0
  9 38  1  0
 38  5  1  0
 37 10  1  0
 30 13  1  0
 37 31  1  0
 29 21  1  0
M  END
>  <Compound_ID>  (193) 
CHEMBL2179788

>  <Molecule Name>  (193) 
nan

>  <Molecular Weight>  (193) 
509.61

>  <AlogP>  (193) 
4.80

>  <Smiles>  (193) 
C=CC(=O)N1CCCC(n2nc(-c3cccc(C(=O)Nc4ccc(C(C)C)cc4)c3)c3c(N)ncnc32)C1

>  <Standard Type>  (193) 
IC50

>  <Standard Relation>  (193) 
'='

>  <Standard Units>  (193) 
nM

>  <Standard Value>  (193) 
40.0

>  <Assay ChEMBL ID>  (193) 
CHEMBL2185029

>  <Assay Description>  (193) 
Covalent inhibition of ITK in presence of 1 mM ATP

>  <BAO Format ID>  (193) 
BAO_0000357

>  <BAO Label>  (193) 
single protein format

>  <Assay Organism>  (193) 
None

>  <Target ChEMBL ID>  (193) 
CHEMBL2959

>  <Target Name>  (193) 
Tyrosine-protein kinase ITK/TSK

>  <Target Organism>  (193) 
Homo sapiens

>  <Target Type>  (193) 
SINGLE PROTEIN

>  <Document ChEMBL ID>  (193) 
CHEMBL2177048

>  <Source Description>  (193) 
Scientific Literature

>  <Document Journal>  (193) 
J Med Chem

>  <Document Year>  (193) 
2012.0

>  <Active>  (193) 
1.0

$$$$

     RDKit          2D

 37 41  0  0  0  0  0  0  0  0999 V2000
  -10.2497   -1.4504    0.0000 C   0  0  0  0  0  0  0  0  0  0  0  0
   -8.8231   -1.9139    0.0000 C   0  0  0  0  0  0  0  0  0  0  0  0
   -8.5112   -3.3811    0.0000 C   0  0  0  0  0  0  0  0  0  0  0  0
   -9.6260   -4.3848    0.0000 O   0  0  0  0  0  0  0  0  0  0  0  0
   -7.0847   -3.8447    0.0000 N   0  0  0  0  0  0  0  0  0  0  0  0
   -6.6211   -5.2713    0.0000 C   0  0  0  0  0  0  0  0  0  0  0  0
   -5.1211   -5.2713    0.0000 C   0  0  0  0  0  0  0  0  0  0  0  0
   -4.6576   -3.8447    0.0000 C   0  0  0  0  0  0  0  0  0  0  0  0
   -5.8711   -2.9630    0.0000 C   0  0  0  0  0  0  0  0  0  0  0  0
   -3.3211   -4.5257    0.0000 C   0  0  0  0  0  0  0  0  0  0  0  0
   -2.6401   -3.1891    0.0000 C   0  0  0  0  0  0  0  0  0  0  0  0
   -1.2135   -2.7256    0.0000 N   0  0  0  0  0  0  0  0  0  0  0  0
   -0.0000   -3.6073    0.0000 C   0  0  0  0  0  0  0  0  0  0  0  0
   -0.0000   -5.1073    0.0000 N   0  0  0  0  0  0  0  0  0  0  0  0
   -1.2990   -5.8573    0.0000 C   0  0  0  0  0  0  0  0  0  0  0  0
   -2.5981   -5.1073    0.0000 O   0  0  0  0  0  0  0  0  0  0  0  0
   -1.2990   -7.3573    0.0000 C   0  0  0  0  0  0  0  0  0  0  0  0
   -0.0855   -8.2390    0.0000 C   0  0  0  0  0  0  0  0  0  0  0  0
   -0.5490   -9.6656    0.0000 N   0  0  0  0  0  0  0  0  0  0  0  0
   -2.0490   -9.6656    0.0000 C   0  0  0  0  0  0  0  0  0  0  0  0
   -2.5126   -8.2390    0.0000 S   0  0  0  0  0  0  0  0  0  0  0  0
    1.2135   -2.7256    0.0000 N   0  0  0  0  0  0  0  0  0  0  0  0
    0.7500   -1.2990    0.0000 C   0  0  0  0  0  0  0  0  0  0  0  0
    1.5000    0.0000    0.0000 C   0  0  0  0  0  0  0  0  0  0  0  0
    0.7500    1.2990    0.0000 C   0  0  0  0  0  0  0  0  0  0  0  0
    1.5000    2.5981    0.0000 C   0  0  0  0  0  0  0  0  0  0  0  0
    3.0000    2.5981    0.0000 N   0  0  0  0  0  0  0  0  0  0  0  0
    3.7500    3.8971    0.0000 C   0  0  0  0  0  0  0  0  0  0  0  0
    5.2500    3.8971    0.0000 C   0  0  0  0  0  0  0  0  0  0  0  0
    3.0000    5.1962    0.0000 C   0  0  0  0  0  0  0  0  0  0  0  0
    4.2990    5.9462    0.0000 C   0  0  0  0  0  0  0  0  0  0  0  0
    1.7010    4.4462    0.0000 C   0  0  0  0  0  0  0  0  0  0  0  0
    2.2500    6.4952    0.0000 C   0  0  0  0  0  0  0  0  0  0  0  0
   -0.7500    1.2990    0.0000 C   0  0  0  0  0  0  0  0  0  0  0  0
   -1.5000    0.0000    0.0000 C   0  0  0  0  0  0  0  0  0  0  0  0
   -0.7500   -1.2990    0.0000 C   0  0  0  0  0  0  0  0  0  0  0  0
   -3.9766   -2.5082    0.0000 C   0  0  0  0  0  0  0  0  0  0  0  0
  1  2  2  0
  2  3  1  0
  3  4  2  0
  3  5  1  0
  5  6  1  0
  6  7  1  0
  8  7  1  1
  8  9  1  0
  8 10  1  0
 10 11  1  0
 11 12  1  1
 12 13  1  0
 13 14  1  0
 14 15  1  0
 15 16  2  0
 15 17  1  0
 17 18  2  0
 18 19  1  0
 19 20  2  0
 20 21  1  0
 13 22  2  0
 22 23  1  0
 23 24  2  0
 24 25  1  0
 25 26  1  0
 26 27  1  0
 27 28  1  0
 28 29  1  6
 28 30  1  0
 30 31  1  0
 30 32  1  0
 30 33  1  0
 25 34  2  0
 34 35  1  0
 35 36  2  0
 11 37  1  0
  9  5  1  0
 36 12  1  0
 37  8  1  0
 21 17  1  0
 36 23  1  0
M  END
>  <Compound_ID>  (194) 
CHEMBL4202618

>  <Molecule Name>  (194) 
nan

>  <Molecular Weight>  (194) 
520.7

>  <AlogP>  (194) 
5.01

>  <Smiles>  (194) 
C=CC(=O)N1CC[C@]2(C1)C[C@H](n1c(NC(=O)c3cncs3)nc3cc(CN[C@@H](C)C(C)(C)C)ccc31)C2

>  <Standard Type>  (194) 
IC50

>  <Standard Relation>  (194) 
'='

>  <Standard Units>  (194) 
nM

>  <Standard Value>  (194) 
10.1

>  <Assay ChEMBL ID>  (194) 
CHEMBL4199503

>  <Assay Description>  (194) 
Inhibition of ITK (unknown origin) using fluorescently labeled peptide as substrate after 3 hrs by microfluidic mobility shift assay

>  <BAO Format ID>  (194) 
BAO_0000357

>  <BAO Label>  (194) 
single protein format

>  <Assay Organism>  (194) 
Homo sapiens

>  <Target ChEMBL ID>  (194) 
CHEMBL2959

>  <Target Name>  (194) 
Tyrosine-protein kinase ITK/TSK

>  <Target Organism>  (194) 
Homo sapiens

>  <Target Type>  (194) 
SINGLE PROTEIN

>  <Document ChEMBL ID>  (194) 
CHEMBL4196110

>  <Source Description>  (194) 
Scientific Literature

>  <Document Journal>  (194) 
ACS Med Chem Lett

>  <Document Year>  (194) 
2018.0

>  <Active>  (194) 
1.0

$$$$

     RDKit          2D

 34 37  0  0  0  0  0  0  0  0999 V2000
    0.7500   -3.8971    0.0000 C   0  0  0  0  0  0  0  0  0  0  0  0
    1.5000   -2.5981    0.0000 N   0  0  0  0  0  0  0  0  0  0  0  0
    3.0000   -2.5981    0.0000 C   0  0  0  0  0  0  0  0  0  0  0  0
    3.7500   -1.2990    0.0000 O   0  0  0  0  0  0  0  0  0  0  0  0
    3.7500   -3.8971    0.0000 C   0  0  0  0  0  0  0  0  0  0  0  0
    3.0000   -5.1962    0.0000 C   0  0  0  0  0  0  0  0  0  0  0  0
    3.7500   -6.4952    0.0000 C   0  0  0  0  0  0  0  0  0  0  0  0
    5.2500   -6.4952    0.0000 C   0  0  0  0  0  0  0  0  0  0  0  0
    6.0000   -5.1962    0.0000 C   0  0  0  0  0  0  0  0  0  0  0  0
    5.2500   -3.8971    0.0000 C   0  0  0  0  0  0  0  0  0  0  0  0
    0.7500   -1.2990    0.0000 C   0  0  0  0  0  0  0  0  0  0  0  0
    1.5000    0.0000    0.0000 C   0  0  0  0  0  0  0  0  0  0  0  0
    0.7500    1.2990    0.0000 C   0  0  0  0  0  0  0  0  0  0  0  0
   -0.7500    1.2990    0.0000 C   0  0  0  0  0  0  0  0  0  0  0  0
   -1.5000    0.0000    0.0000 C   0  0  0  0  0  0  0  0  0  0  0  0
   -0.7500   -1.2990    0.0000 C   0  0  0  0  0  0  0  0  0  0  0  0
   -2.9672    0.3119    0.0000 N   0  0  0  0  0  0  0  0  0  0  0  0
   -3.1240    1.8037    0.0000 C   0  0  0  0  0  0  0  0  0  0  0  0
   -4.4231    2.5537    0.0000 N   0  0  0  0  0  0  0  0  0  0  0  0
   -4.4231    4.0537    0.0000 C   0  0  0  0  0  0  0  0  0  0  0  0
   -3.1240    4.8037    0.0000 O   0  0  0  0  0  0  0  0  0  0  0  0
   -5.7221    4.8037    0.0000 C   0  0  0  0  0  0  0  0  0  0  0  0
   -5.7221    6.3037    0.0000 C   0  0  0  0  0  0  0  0  0  0  0  0
   -7.0211    7.0537    0.0000 C   0  0  0  0  0  0  0  0  0  0  0  0
   -8.3202    6.3037    0.0000 C   0  0  0  0  0  0  0  0  0  0  0  0
   -9.6192    7.0537    0.0000 Br  0  0  0  0  0  0  0  0  0  0  0  0
   -8.3202    4.8037    0.0000 C   0  0  0  0  0  0  0  0  0  0  0  0
   -7.0211    4.0537    0.0000 C   0  0  0  0  0  0  0  0  0  0  0  0
   -1.7537    2.4138    0.0000 N   0  0  0  0  0  0  0  0  0  0  0  0
   -1.4418    3.8810    0.0000 C   0  0  0  0  0  0  0  0  0  0  0  0
   -0.0152    4.3445    0.0000 C   0  0  0  0  0  0  0  0  0  0  0  0
    0.2966    5.8117    0.0000 C   0  0  0  0  0  0  0  0  0  0  0  0
    1.7232    6.2752    0.0000 N   0  0  0  0  0  0  0  0  0  0  0  0
   -0.8181    6.8154    0.0000 O   0  0  0  0  0  0  0  0  0  0  0  0
  1  2  1  0
  2  3  1  0
  3  4  2  0
  3  5  1  0
  5  6  1  0
  6  7  1  0
  7  8  1  0
  8  9  1  0
  9 10  1  0
  2 11  1  0
 11 12  2  0
 12 13  1  0
 13 14  2  0
 14 15  1  0
 15 16  2  0
 15 17  1  0
 17 18  2  0
 18 19  1  0
 19 20  1  0
 20 21  2  0
 20 22  1  0
 22 23  2  0
 23 24  1  0
 24 25  2  0
 25 26  1  0
 25 27  1  0
 27 28  2  0
 18 29  1  0
 29 30  1  0
 30 31  1  0
 31 32  1  0
 32 33  1  0
 32 34  2  0
 10  5  1  0
 16 11  1  0
 28 22  1  0
 29 14  1  0
M  END
>  <Compound_ID>  (195) 
CHEMBL485607

>  <Molecule Name>  (195) 
nan

>  <Molecular Weight>  (195) 
526.44

>  <AlogP>  (195) 
4.47

>  <Smiles>  (195) 
CN(C(=O)C1CCCCC1)c1ccc2c(c1)nc(NC(=O)c1ccc(Br)cc1)n2CCC(N)=O

>  <Standard Type>  (195) 
IC50

>  <Standard Relation>  (195) 
'='

>  <Standard Units>  (195) 
nM

>  <Standard Value>  (195) 
3.0

>  <Assay ChEMBL ID>  (195) 
CHEMBL992563

>  <Assay Description>  (195) 
Inhibition of ITK by DELFIA assay

>  <BAO Format ID>  (195) 
BAO_0000357

>  <BAO Label>  (195) 
single protein format

>  <Assay Organism>  (195) 
None

>  <Target ChEMBL ID>  (195) 
CHEMBL2959

>  <Target Name>  (195) 
Tyrosine-protein kinase ITK/TSK

>  <Target Organism>  (195) 
Homo sapiens

>  <Target Type>  (195) 
SINGLE PROTEIN

>  <Document ChEMBL ID>  (195) 
CHEMBL1142468

>  <Source Description>  (195) 
Scientific Literature

>  <Document Journal>  (195) 
Bioorg Med Chem Lett

>  <Document Year>  (195) 
2008.0

>  <Active>  (195) 
1.0

$$$$

     RDKit          2D

 35 38  0  0  0  0  0  0  0  0999 V2000
    0.2775  -12.2494    0.0000 C   0  0  0  0  0  0  0  0  0  0  0  0
   -0.3326  -10.8791    0.0000 C   0  0  0  0  0  0  0  0  0  0  0  0
   -1.8244  -10.7223    0.0000 C   0  0  0  0  0  0  0  0  0  0  0  0
    0.5490   -9.6656    0.0000 C   0  0  0  0  0  0  0  0  0  0  0  0
    2.0490   -9.6656    0.0000 C   0  0  0  0  0  0  0  0  0  0  0  0
    2.5126   -8.2390    0.0000 C   0  0  0  0  0  0  0  0  0  0  0  0
    1.2990   -7.3573    0.0000 C   0  0  0  0  0  0  0  0  0  0  0  0
    1.2990   -5.8573    0.0000 C   0  0  0  0  0  0  0  0  0  0  0  0
    2.5981   -5.1073    0.0000 O   0  0  0  0  0  0  0  0  0  0  0  0
   -0.0000   -5.1073    0.0000 N   0  0  0  0  0  0  0  0  0  0  0  0
   -0.0000   -3.6073    0.0000 C   0  0  0  0  0  0  0  0  0  0  0  0
    1.2135   -2.7256    0.0000 N   0  0  0  0  0  0  0  0  0  0  0  0
    0.7500   -1.2990    0.0000 C   0  0  0  0  0  0  0  0  0  0  0  0
    1.5000    0.0000    0.0000 C   0  0  0  0  0  0  0  0  0  0  0  0
    0.7500    1.2990    0.0000 C   0  0  0  0  0  0  0  0  0  0  0  0
    1.5000    2.5981    0.0000 N   0  0  0  0  0  0  0  0  0  0  0  0
    3.0000    2.5981    0.0000 C   0  0  0  0  0  0  0  0  0  0  0  0
    0.7500    3.8971    0.0000 C   0  0  0  0  0  0  0  0  0  0  0  0
   -0.7500    3.8971    0.0000 O   0  0  0  0  0  0  0  0  0  0  0  0
    1.5000    5.1962    0.0000 C   0  0  0  0  0  0  0  0  0  0  0  0
    3.0000    5.1962    0.0000 C   0  0  0  0  0  0  0  0  0  0  0  0
    3.7500    6.4952    0.0000 C   0  0  0  0  0  0  0  0  0  0  0  0
    3.0000    7.7942    0.0000 C   0  0  0  0  0  0  0  0  0  0  0  0
    1.5000    7.7942    0.0000 C   0  0  0  0  0  0  0  0  0  0  0  0
    0.7500    6.4952    0.0000 C   0  0  0  0  0  0  0  0  0  0  0  0
   -0.7500    1.2990    0.0000 C   0  0  0  0  0  0  0  0  0  0  0  0
   -1.5000    0.0000    0.0000 C   0  0  0  0  0  0  0  0  0  0  0  0
   -0.7500   -1.2990    0.0000 C   0  0  0  0  0  0  0  0  0  0  0  0
   -1.2135   -2.7256    0.0000 N   0  0  0  0  0  0  0  0  0  0  0  0
   -2.6401   -3.1891    0.0000 C   0  0  0  0  0  0  0  0  0  0  0  0
   -3.7548   -2.1855    0.0000 C   0  0  0  0  0  0  0  0  0  0  0  0
   -5.1814   -2.6490    0.0000 C   0  0  0  0  0  0  0  0  0  0  0  0
   -6.2961   -1.6453    0.0000 N   0  0  0  0  0  0  0  0  0  0  0  0
   -5.4933   -4.1162    0.0000 O   0  0  0  0  0  0  0  0  0  0  0  0
    0.0855   -8.2390    0.0000 S   0  0  0  0  0  0  0  0  0  0  0  0
  1  2  2  0
  2  3  1  0
  2  4  1  0
  4  5  2  0
  5  6  1  0
  6  7  2  0
  7  8  1  0
  8  9  2  0
  8 10  1  0
 10 11  2  0
 11 12  1  0
 12 13  1  0
 13 14  2  0
 14 15  1  0
 15 16  1  0
 16 17  1  0
 16 18  1  0
 18 19  2  0
 18 20  1  0
 20 21  2  0
 21 22  1  0
 22 23  2  0
 23 24  1  0
 24 25  2  0
 15 26  2  0
 26 27  1  0
 27 28  2  0
 28 29  1  0
 29 30  1  0
 30 31  1  0
 31 32  1  0
 32 33  1  0
 32 34  2  0
  7 35  1  0
 35  4  1  0
 29 11  1  0
 28 13  1  0
 25 20  1  0
M  END
>  <Compound_ID>  (196) 
CHEMBL485937

>  <Molecule Name>  (196) 
nan

>  <Molecular Weight>  (196) 
487.59

>  <AlogP>  (196) 
3.96

>  <Smiles>  (196) 
C=C(C)c1ccc(C(=O)/N=c2\[nH]c3cc(N(C)C(=O)c4ccccc4)ccc3n2CCC(N)=O)s1

>  <Standard Type>  (196) 
IC50

>  <Standard Relation>  (196) 
'='

>  <Standard Units>  (196) 
nM

>  <Standard Value>  (196) 
37.0

>  <Assay ChEMBL ID>  (196) 
CHEMBL942219

>  <Assay Description>  (196) 
Inhibition of ITK by DELPHIA

>  <BAO Format ID>  (196) 
BAO_0000357

>  <BAO Label>  (196) 
single protein format

>  <Assay Organism>  (196) 
None

>  <Target ChEMBL ID>  (196) 
CHEMBL2959

>  <Target Name>  (196) 
Tyrosine-protein kinase ITK/TSK

>  <Target Organism>  (196) 
Homo sapiens

>  <Target Type>  (196) 
SINGLE PROTEIN

>  <Document ChEMBL ID>  (196) 
CHEMBL1152261

>  <Source Description>  (196) 
Scientific Literature

>  <Document Journal>  (196) 
Bioorg Med Chem Lett

>  <Document Year>  (196) 
2008.0

>  <Active>  (196) 
1.0

$$$$

     RDKit          2D

 29 32  0  0  0  0  0  0  0  0999 V2000
    8.2500   -1.2990    0.0000 O   0  0  0  0  0  0  0  0  0  0  0  0
    7.5000   -2.5981    0.0000 C   0  0  0  0  0  0  0  0  0  0  0  0
    8.2500   -3.8971    0.0000 C   0  0  0  0  0  0  0  0  0  0  0  0
    9.7500   -3.8971    0.0000 Cl  0  0  0  0  0  0  0  0  0  0  0  0
    6.0000   -2.5981    0.0000 N   0  0  0  0  0  0  0  0  0  0  0  0
    5.2500   -1.2990    0.0000 C   0  0  0  0  0  0  0  0  0  0  0  0
    3.7500   -1.2990    0.0000 C   0  0  0  0  0  0  0  0  0  0  0  0
    3.0000    0.0000    0.0000 O   0  0  0  0  0  0  0  0  0  0  0  0
    1.5000    0.0000    0.0000 C   0  0  0  0  0  0  0  0  0  0  0  0
    0.7500   -1.2990    0.0000 C   0  0  0  0  0  0  0  0  0  0  0  0
   -0.7500   -1.2990    0.0000 C   0  0  0  0  0  0  0  0  0  0  0  0
   -1.5000    0.0000    0.0000 C   0  0  0  0  0  0  0  0  0  0  0  0
   -0.7500    1.2990    0.0000 C   0  0  0  0  0  0  0  0  0  0  0  0
   -1.2135    2.7256    0.0000 N   0  0  0  0  0  0  0  0  0  0  0  0
   -0.0000    3.6073    0.0000 C   0  0  0  0  0  0  0  0  0  0  0  0
   -0.0000    5.1073    0.0000 C   0  0  0  0  0  0  0  0  0  0  0  0
    1.2135    5.9890    0.0000 N   0  0  0  0  0  0  0  0  0  0  0  0
    0.7500    7.4156    0.0000 N   0  0  0  0  0  0  0  0  0  0  0  0
   -0.7500    7.4156    0.0000 C   0  0  0  0  0  0  0  0  0  0  0  0
   -1.7537    8.5303    0.0000 C   0  0  0  0  0  0  0  0  0  0  0  0
   -3.2209    8.2184    0.0000 C   0  0  0  0  0  0  0  0  0  0  0  0
   -4.2246    9.3331    0.0000 C   0  0  0  0  0  0  0  0  0  0  0  0
   -3.7611   10.7597    0.0000 F   0  0  0  0  0  0  0  0  0  0  0  0
   -5.6918    9.0213    0.0000 F   0  0  0  0  0  0  0  0  0  0  0  0
   -3.6844    6.7918    0.0000 C   0  0  0  0  0  0  0  0  0  0  0  0
   -2.6807    5.6771    0.0000 C   0  0  0  0  0  0  0  0  0  0  0  0
   -1.2135    5.9890    0.0000 C   0  0  0  0  0  0  0  0  0  0  0  0
    1.2135    2.7256    0.0000 C   0  0  0  0  0  0  0  0  0  0  0  0
    0.7500    1.2990    0.0000 C   0  0  0  0  0  0  0  0  0  0  0  0
  1  2  2  0
  2  3  1  0
  3  4  1  0
  2  5  1  0
  5  6  1  0
  6  7  1  0
  7  8  1  0
  8  9  1  0
  9 10  2  0
 10 11  1  0
 11 12  2  0
 12 13  1  0
 13 14  1  0
 14 15  1  0
 15 16  1  0
 16 17  2  0
 17 18  1  0
 18 19  1  0
 19 20  2  0
 20 21  1  0
 21 22  1  0
 22 23  1  0
 22 24  1  0
 21 25  2  0
 25 26  1  0
 26 27  2  0
 15 28  2  0
 28 29  1  0
 29  9  1  0
 29 13  2  0
 27 16  1  0
 27 19  1  0
M  END
>  <Compound_ID>  (197) 
CHEMBL4638552

>  <Molecule Name>  (197) 
nan

>  <Molecular Weight>  (197) 
418.83

>  <AlogP>  (197) 
4.38

>  <Smiles>  (197) 
O=C(CCl)NCCOc1cccc2[nH]c(-c3n[nH]c4cc(C(F)F)ccc34)cc12

>  <Standard Type>  (197) 
IC50

>  <Standard Relation>  (197) 
'='

>  <Standard Units>  (197) 
nM

>  <Standard Value>  (197) 
9.0

>  <Assay ChEMBL ID>  (197) 
CHEMBL4603778

>  <Assay Description>  (197) 
Inhibition of ITK (unknown origin) using TK as substrate incubated for 30 mins by HTRF assay

>  <BAO Format ID>  (197) 
BAO_0000357

>  <BAO Label>  (197) 
single protein format

>  <Assay Organism>  (197) 
Homo sapiens

>  <Target ChEMBL ID>  (197) 
CHEMBL2959

>  <Target Name>  (197) 
Tyrosine-protein kinase ITK/TSK

>  <Target Organism>  (197) 
Homo sapiens

>  <Target Type>  (197) 
SINGLE PROTEIN

>  <Document ChEMBL ID>  (197) 
CHEMBL4602634

>  <Source Description>  (197) 
Scientific Literature

>  <Document Journal>  (197) 
Eur J Med Chem

>  <Document Year>  (197) 
2020.0

>  <Active>  (197) 
1.0

$$$$

     RDKit          2D

 43 48  0  0  0  0  0  0  0  0999 V2000
  -11.1975    2.9107    0.0000 C   0  0  0  0  0  0  0  0  0  0  0  0
   -9.7709    3.3742    0.0000 C   0  0  0  0  0  0  0  0  0  0  0  0
   -8.6562    2.3705    0.0000 C   0  0  0  0  0  0  0  0  0  0  0  0
   -8.9681    0.9033    0.0000 O   0  0  0  0  0  0  0  0  0  0  0  0
   -7.2296    2.8340    0.0000 N   0  0  0  0  0  0  0  0  0  0  0  0
   -6.1149    1.8303    0.0000 C   0  0  0  0  0  0  0  0  0  0  0  0
   -4.6883    2.2939    0.0000 C   0  0  0  0  0  0  0  0  0  0  0  0
   -3.5736    1.2902    0.0000 O   0  0  0  0  0  0  0  0  0  0  0  0
   -2.1470    1.7537    0.0000 C   0  0  0  0  0  0  0  0  0  0  0  0
   -1.8351    3.2209    0.0000 C   0  0  0  0  0  0  0  0  0  0  0  0
   -0.4086    3.6844    0.0000 C   0  0  0  0  0  0  0  0  0  0  0  0
   -0.0967    5.1517    0.0000 C   0  0  0  0  0  0  0  0  0  0  0  0
   -1.2114    6.1554    0.0000 O   0  0  0  0  0  0  0  0  0  0  0  0
   -0.8995    7.6226    0.0000 C   0  0  0  0  0  0  0  0  0  0  0  0
    0.5271    8.0861    0.0000 C   0  0  0  0  0  0  0  0  0  0  0  0
    0.8389    9.5533    0.0000 C   0  0  0  0  0  0  0  0  0  0  0  0
   -0.2758   10.5570    0.0000 O   0  0  0  0  0  0  0  0  0  0  0  0
   -1.7024   10.0935    0.0000 C   0  0  0  0  0  0  0  0  0  0  0  0
   -2.0143    8.6263    0.0000 C   0  0  0  0  0  0  0  0  0  0  0  0
    1.3299    5.6152    0.0000 C   0  0  0  0  0  0  0  0  0  0  0  0
    2.4446    4.6115    0.0000 C   0  0  0  0  0  0  0  0  0  0  0  0
    3.8712    5.0750    0.0000 C   0  0  0  0  0  0  0  0  0  0  0  0
    4.1831    6.5422    0.0000 C   0  0  0  0  0  0  0  0  0  0  0  0
    3.0684    7.5459    0.0000 C   0  0  0  0  0  0  0  0  0  0  0  0
    1.6418    7.0824    0.0000 C   0  0  0  0  0  0  0  0  0  0  0  0
    0.7062    2.6807    0.0000 C   0  0  0  0  0  0  0  0  0  0  0  0
    0.3943    1.2135    0.0000 C   0  0  0  0  0  0  0  0  0  0  0  0
    1.2760    0.0000    0.0000 N   0  0  0  0  0  0  0  0  0  0  0  0
    0.3943   -1.2135    0.0000 C   0  0  0  0  0  0  0  0  0  0  0  0
    0.8578   -2.6401    0.0000 C   0  0  0  0  0  0  0  0  0  0  0  0
    2.2844   -3.1036    0.0000 N   0  0  0  0  0  0  0  0  0  0  0  0
    2.2844   -4.6036    0.0000 N   0  0  0  0  0  0  0  0  0  0  0  0
    0.8578   -5.0672    0.0000 C   0  0  0  0  0  0  0  0  0  0  0  0
    0.2477   -6.4375    0.0000 C   0  0  0  0  0  0  0  0  0  0  0  0
   -1.2441   -6.5943    0.0000 C   0  0  0  0  0  0  0  0  0  0  0  0
   -1.8542   -7.9646    0.0000 C   0  0  0  0  0  0  0  0  0  0  0  0
   -3.3460   -8.1214    0.0000 F   0  0  0  0  0  0  0  0  0  0  0  0
   -0.9725   -9.1781    0.0000 F   0  0  0  0  0  0  0  0  0  0  0  0
   -2.1257   -5.3807    0.0000 C   0  0  0  0  0  0  0  0  0  0  0  0
   -1.5156   -4.0104    0.0000 C   0  0  0  0  0  0  0  0  0  0  0  0
   -0.0239   -3.8536    0.0000 C   0  0  0  0  0  0  0  0  0  0  0  0
   -1.0323   -0.7500    0.0000 C   0  0  0  0  0  0  0  0  0  0  0  0
   -1.0323    0.7500    0.0000 C   0  0  0  0  0  0  0  0  0  0  0  0
  1  2  2  0
  2  3  1  0
  3  4  2  0
  3  5  1  0
  5  6  1  0
  6  7  1  0
  7  8  1  0
  8  9  1  0
  9 10  2  0
 10 11  1  0
 11 12  1  0
 12 13  1  0
 13 14  1  0
 14 15  1  0
 15 16  1  0
 16 17  1  0
 17 18  1  0
 18 19  1  0
 12 20  1  0
 20 21  2  0
 21 22  1  0
 22 23  2  0
 23 24  1  0
 24 25  2  0
 11 26  2  0
 26 27  1  0
 27 28  1  0
 28 29  1  0
 29 30  1  0
 30 31  2  0
 31 32  1  0
 32 33  1  0
 33 34  2  0
 34 35  1  0
 35 36  1  0
 36 37  1  0
 36 38  1  0
 35 39  2  0
 39 40  1  0
 40 41  2  0
 29 42  2  0
 42 43  1  0
 43  9  1  0
 19 14  1  0
 25 20  1  0
 43 27  2  0
 41 30  1  0
 41 33  1  0
M  END
>  <Compound_ID>  (198) 
CHEMBL4633295

>  <Molecule Name>  (198) 
nan

>  <Molecular Weight>  (198) 
586.64

>  <AlogP>  (198) 
6.61

>  <Smiles>  (198) 
C=CC(=O)NCCOc1cc(C(OC2CCOCC2)c2ccccc2)cc2[nH]c(-c3n[nH]c4cc(C(F)F)ccc34)cc12

>  <Standard Type>  (198) 
IC50

>  <Standard Relation>  (198) 
'='

>  <Standard Units>  (198) 
nM

>  <Standard Value>  (198) 
6.2

>  <Assay ChEMBL ID>  (198) 
CHEMBL4603778

>  <Assay Description>  (198) 
Inhibition of ITK (unknown origin) using TK as substrate incubated for 30 mins by HTRF assay

>  <BAO Format ID>  (198) 
BAO_0000357

>  <BAO Label>  (198) 
single protein format

>  <Assay Organism>  (198) 
Homo sapiens

>  <Target ChEMBL ID>  (198) 
CHEMBL2959

>  <Target Name>  (198) 
Tyrosine-protein kinase ITK/TSK

>  <Target Organism>  (198) 
Homo sapiens

>  <Target Type>  (198) 
SINGLE PROTEIN

>  <Document ChEMBL ID>  (198) 
CHEMBL4602634

>  <Source Description>  (198) 
Scientific Literature

>  <Document Journal>  (198) 
Eur J Med Chem

>  <Document Year>  (198) 
2020.0

>  <Active>  (198) 
1.0

$$$$

     RDKit          2D

 35 38  0  0  0  0  0  0  0  0999 V2000
   -7.7227   -2.1088    0.0000 C   0  0  0  0  0  0  0  0  0  0  0  0
   -6.2961   -1.6453    0.0000 O   0  0  0  0  0  0  0  0  0  0  0  0
   -5.1814   -2.6490    0.0000 C   0  0  0  0  0  0  0  0  0  0  0  0
   -3.7548   -2.1855    0.0000 C   0  0  0  0  0  0  0  0  0  0  0  0
   -2.6401   -3.1891    0.0000 C   0  0  0  0  0  0  0  0  0  0  0  0
   -1.2135   -2.7256    0.0000 N   0  0  0  0  0  0  0  0  0  0  0  0
   -0.0000   -3.6073    0.0000 C   0  0  0  0  0  0  0  0  0  0  0  0
   -0.0000   -5.1073    0.0000 N   0  0  0  0  0  0  0  0  0  0  0  0
   -1.2990   -5.8573    0.0000 C   0  0  0  0  0  0  0  0  0  0  0  0
   -2.5981   -5.1073    0.0000 O   0  0  0  0  0  0  0  0  0  0  0  0
   -1.2990   -7.3573    0.0000 C   0  0  0  0  0  0  0  0  0  0  0  0
   -2.5981   -8.1073    0.0000 C   0  0  0  0  0  0  0  0  0  0  0  0
   -2.5981   -9.6073    0.0000 C   0  0  0  0  0  0  0  0  0  0  0  0
   -1.2990  -10.3573    0.0000 C   0  0  0  0  0  0  0  0  0  0  0  0
   -1.2990  -11.8573    0.0000 C   0  0  0  0  0  0  0  0  0  0  0  0
   -1.2990  -13.3573    0.0000 N   0  0  0  0  0  0  0  0  0  0  0  0
   -0.0000   -9.6073    0.0000 C   0  0  0  0  0  0  0  0  0  0  0  0
   -0.0000   -8.1073    0.0000 C   0  0  0  0  0  0  0  0  0  0  0  0
    1.2135   -2.7256    0.0000 N   0  0  0  0  0  0  0  0  0  0  0  0
    0.7500   -1.2990    0.0000 C   0  0  0  0  0  0  0  0  0  0  0  0
    1.5000    0.0000    0.0000 C   0  0  0  0  0  0  0  0  0  0  0  0
    0.7500    1.2990    0.0000 C   0  0  0  0  0  0  0  0  0  0  0  0
    1.5000    2.5981    0.0000 N   0  0  0  0  0  0  0  0  0  0  0  0
    3.0000    2.5981    0.0000 C   0  0  0  0  0  0  0  0  0  0  0  0
    0.7500    3.8971    0.0000 C   0  0  0  0  0  0  0  0  0  0  0  0
   -0.7500    3.8971    0.0000 O   0  0  0  0  0  0  0  0  0  0  0  0
    1.5000    5.1962    0.0000 C   0  0  0  0  0  0  0  0  0  0  0  0
    3.0000    5.1962    0.0000 C   0  0  0  0  0  0  0  0  0  0  0  0
    3.7500    6.4952    0.0000 C   0  0  0  0  0  0  0  0  0  0  0  0
    3.0000    7.7942    0.0000 C   0  0  0  0  0  0  0  0  0  0  0  0
    1.5000    7.7942    0.0000 C   0  0  0  0  0  0  0  0  0  0  0  0
    0.7500    6.4952    0.0000 C   0  0  0  0  0  0  0  0  0  0  0  0
   -0.7500    1.2990    0.0000 C   0  0  0  0  0  0  0  0  0  0  0  0
   -1.5000    0.0000    0.0000 C   0  0  0  0  0  0  0  0  0  0  0  0
   -0.7500   -1.2990    0.0000 C   0  0  0  0  0  0  0  0  0  0  0  0
  1  2  1  0
  2  3  1  0
  3  4  1  0
  4  5  1  0
  5  6  1  0
  6  7  1  0
  7  8  1  0
  8  9  1  0
  9 10  2  0
  9 11  1  0
 11 12  2  0
 12 13  1  0
 13 14  2  0
 14 15  1  0
 15 16  3  0
 14 17  1  0
 17 18  2  0
  7 19  2  0
 19 20  1  0
 20 21  2  0
 21 22  1  0
 22 23  1  0
 23 24  1  0
 23 25  1  0
 25 26  2  0
 25 27  1  0
 27 28  1  0
 28 29  1  0
 29 30  1  0
 30 31  1  0
 31 32  1  0
 22 33  2  0
 33 34  1  0
 34 35  2  0
 35  6  1  0
 18 11  1  0
 35 20  1  0
 32 27  1  0
M  END
>  <Compound_ID>  (199) 
CHEMBL484767

>  <Molecule Name>  (199) 
nan

>  <Molecular Weight>  (199) 
473.58

>  <AlogP>  (199) 
4.74

>  <Smiles>  (199) 
COCCCn1c(NC(=O)c2ccc(C#N)cc2)nc2cc(N(C)C(=O)C3CCCCC3)ccc21

>  <Standard Type>  (199) 
IC50

>  <Standard Relation>  (199) 
'='

>  <Standard Units>  (199) 
nM

>  <Standard Value>  (199) 
16.0

>  <Assay ChEMBL ID>  (199) 
CHEMBL992563

>  <Assay Description>  (199) 
Inhibition of ITK by DELFIA assay

>  <BAO Format ID>  (199) 
BAO_0000357

>  <BAO Label>  (199) 
single protein format

>  <Assay Organism>  (199) 
None

>  <Target ChEMBL ID>  (199) 
CHEMBL2959

>  <Target Name>  (199) 
Tyrosine-protein kinase ITK/TSK

>  <Target Organism>  (199) 
Homo sapiens

>  <Target Type>  (199) 
SINGLE PROTEIN

>  <Document ChEMBL ID>  (199) 
CHEMBL1142468

>  <Source Description>  (199) 
Scientific Literature

>  <Document Journal>  (199) 
Bioorg Med Chem Lett

>  <Document Year>  (199) 
2008.0

>  <Active>  (199) 
1.0

$$$$

     RDKit          2D

 37 40  0  0  0  0  0  0  0  0999 V2000
   -7.7227   -2.1088    0.0000 C   0  0  0  0  0  0  0  0  0  0  0  0
   -6.2961   -1.6453    0.0000 N   0  0  0  0  0  0  0  0  0  0  0  0
   -5.9843   -0.1781    0.0000 C   0  0  0  0  0  0  0  0  0  0  0  0
   -5.1814   -2.6490    0.0000 C   0  0  0  0  0  0  0  0  0  0  0  0
   -5.4933   -4.1162    0.0000 O   0  0  0  0  0  0  0  0  0  0  0  0
   -3.7548   -2.1855    0.0000 C   0  0  0  0  0  0  0  0  0  0  0  0
   -2.6401   -3.1891    0.0000 C   0  0  0  0  0  0  0  0  0  0  0  0
   -1.2135   -2.7256    0.0000 N   0  0  0  0  0  0  0  0  0  0  0  0
   -0.0000   -3.6073    0.0000 C   0  0  0  0  0  0  0  0  0  0  0  0
   -0.0000   -5.1073    0.0000 N   0  0  0  0  0  0  0  0  0  0  0  0
   -1.2990   -5.8573    0.0000 C   0  0  0  0  0  0  0  0  0  0  0  0
   -2.5981   -5.1073    0.0000 O   0  0  0  0  0  0  0  0  0  0  0  0
   -1.2990   -7.3573    0.0000 C   0  0  0  0  0  0  0  0  0  0  0  0
   -2.5981   -8.1073    0.0000 C   0  0  0  0  0  0  0  0  0  0  0  0
   -2.5981   -9.6073    0.0000 C   0  0  0  0  0  0  0  0  0  0  0  0
   -1.2990  -10.3573    0.0000 C   0  0  0  0  0  0  0  0  0  0  0  0
   -1.2990  -11.8573    0.0000 C   0  0  0  0  0  0  0  0  0  0  0  0
   -1.2990  -13.3573    0.0000 N   0  0  0  0  0  0  0  0  0  0  0  0
   -0.0000   -9.6073    0.0000 C   0  0  0  0  0  0  0  0  0  0  0  0
   -0.0000   -8.1073    0.0000 C   0  0  0  0  0  0  0  0  0  0  0  0
    1.2135   -2.7256    0.0000 N   0  0  0  0  0  0  0  0  0  0  0  0
    0.7500   -1.2990    0.0000 C   0  0  0  0  0  0  0  0  0  0  0  0
    1.5000    0.0000    0.0000 C   0  0  0  0  0  0  0  0  0  0  0  0
    0.7500    1.2990    0.0000 C   0  0  0  0  0  0  0  0  0  0  0  0
    1.5000    2.5981    0.0000 N   0  0  0  0  0  0  0  0  0  0  0  0
    3.0000    2.5981    0.0000 C   0  0  0  0  0  0  0  0  0  0  0  0
    0.7500    3.8971    0.0000 C   0  0  0  0  0  0  0  0  0  0  0  0
   -0.7500    3.8971    0.0000 O   0  0  0  0  0  0  0  0  0  0  0  0
    1.5000    5.1962    0.0000 C   0  0  0  0  0  0  0  0  0  0  0  0
    3.0000    5.1962    0.0000 C   0  0  0  0  0  0  0  0  0  0  0  0
    3.7500    6.4952    0.0000 C   0  0  0  0  0  0  0  0  0  0  0  0
    3.0000    7.7942    0.0000 C   0  0  0  0  0  0  0  0  0  0  0  0
    1.5000    7.7942    0.0000 C   0  0  0  0  0  0  0  0  0  0  0  0
    0.7500    6.4952    0.0000 C   0  0  0  0  0  0  0  0  0  0  0  0
   -0.7500    1.2990    0.0000 C   0  0  0  0  0  0  0  0  0  0  0  0
   -1.5000    0.0000    0.0000 C   0  0  0  0  0  0  0  0  0  0  0  0
   -0.7500   -1.2990    0.0000 C   0  0  0  0  0  0  0  0  0  0  0  0
  1  2  1  0
  2  3  1  0
  2  4  1  0
  4  5  2  0
  4  6  1  0
  6  7  1  0
  7  8  1  0
  8  9  1  0
  9 10  1  0
 10 11  1  0
 11 12  2  0
 11 13  1  0
 13 14  2  0
 14 15  1  0
 15 16  2  0
 16 17  1  0
 17 18  3  0
 16 19  1  0
 19 20  2  0
  9 21  2  0
 21 22  1  0
 22 23  2  0
 23 24  1  0
 24 25  1  0
 25 26  1  0
 25 27  1  0
 27 28  2  0
 27 29  1  0
 29 30  1  0
 30 31  1  0
 31 32  1  0
 32 33  1  0
 33 34  1  0
 24 35  2  0
 35 36  1  0
 36 37  2  0
 37  8  1  0
 20 13  1  0
 37 22  1  0
 34 29  1  0
M  END
>  <Compound_ID>  (200) 
CHEMBL483764

>  <Molecule Name>  (200) 
nan

>  <Molecular Weight>  (200) 
500.6

>  <AlogP>  (200) 
4.18

>  <Smiles>  (200) 
CN(C)C(=O)CCn1c(NC(=O)c2ccc(C#N)cc2)nc2cc(N(C)C(=O)C3CCCCC3)ccc21

>  <Standard Type>  (200) 
IC50

>  <Standard Relation>  (200) 
'='

>  <Standard Units>  (200) 
nM

>  <Standard Value>  (200) 
14.0

>  <Assay ChEMBL ID>  (200) 
CHEMBL992563

>  <Assay Description>  (200) 
Inhibition of ITK by DELFIA assay

>  <BAO Format ID>  (200) 
BAO_0000357

>  <BAO Label>  (200) 
single protein format

>  <Assay Organism>  (200) 
None

>  <Target ChEMBL ID>  (200) 
CHEMBL2959

>  <Target Name>  (200) 
Tyrosine-protein kinase ITK/TSK

>  <Target Organism>  (200) 
Homo sapiens

>  <Target Type>  (200) 
SINGLE PROTEIN

>  <Document ChEMBL ID>  (200) 
CHEMBL1142468

>  <Source Description>  (200) 
Scientific Literature

>  <Document Journal>  (200) 
Bioorg Med Chem Lett

>  <Document Year>  (200) 
2008.0

>  <Active>  (200) 
1.0

$$$$

     RDKit          2D

 22 24  0  0  0  0  0  0  0  0999 V2000
   -2.2500   -9.0933    0.0000 C   0  0  0  0  0  0  0  0  0  0  0  0
   -1.5000   -7.7942    0.0000 C   0  0  0  0  0  0  0  0  0  0  0  0
   -0.7500   -6.4952    0.0000 C   0  0  0  0  0  0  0  0  0  0  0  0
   -1.5000   -5.1962    0.0000 O   0  0  0  0  0  0  0  0  0  0  0  0
    0.7500   -6.4952    0.0000 N   0  0  0  0  0  0  0  0  0  0  0  0
    1.5000   -5.1962    0.0000 C   0  0  0  0  0  0  0  0  0  0  0  0
    0.7500   -3.8971    0.0000 C   0  0  0  0  0  0  0  0  0  0  0  0
    1.5000   -2.5981    0.0000 C   0  0  0  0  0  0  0  0  0  0  0  0
    0.7500   -1.2990    0.0000 C   0  0  0  0  0  0  0  0  0  0  0  0
    1.5000    0.0000    0.0000 C   0  0  0  0  0  0  0  0  0  0  0  0
    0.7500    1.2990    0.0000 N   0  0  0  0  0  0  0  0  0  0  0  0
   -0.7500    1.2990    0.0000 C   0  0  0  0  0  0  0  0  0  0  0  0
   -1.7537    2.4138    0.0000 N   0  0  0  0  0  0  0  0  0  0  0  0
   -3.1240    1.8037    0.0000 C   0  0  0  0  0  0  0  0  0  0  0  0
   -2.9672    0.3119    0.0000 C   0  0  0  0  0  0  0  0  0  0  0  0
   -4.0819   -0.6918    0.0000 Cl  0  0  0  0  0  0  0  0  0  0  0  0
   -1.5000    0.0000    0.0000 C   0  0  0  0  0  0  0  0  0  0  0  0
   -0.7500   -1.2990    0.0000 C   0  0  0  0  0  0  0  0  0  0  0  0
    3.0000   -2.5981    0.0000 C   0  0  0  0  0  0  0  0  0  0  0  0
    3.7500   -3.8971    0.0000 C   0  0  0  0  0  0  0  0  0  0  0  0
    3.0000   -5.1962    0.0000 C   0  0  0  0  0  0  0  0  0  0  0  0
    3.7500   -6.4952    0.0000 F   0  0  0  0  0  0  0  0  0  0  0  0
  1  2  3  0
  2  3  1  0
  3  4  2  0
  3  5  1  0
  5  6  1  0
  6  7  2  0
  7  8  1  0
  8  9  1  0
  9 10  2  0
 10 11  1  0
 11 12  2  0
 12 13  1  0
 13 14  1  0
 14 15  2  0
 15 16  1  0
 15 17  1  0
 17 18  2  0
  8 19  2  0
 19 20  1  0
 20 21  2  0
 21 22  1  0
 21  6  1  0
 18  9  1  0
 17 12  1  0
M  END
>  <Compound_ID>  (201) 
CHEMBL3957567

>  <Molecule Name>  (201) 
nan

>  <Molecular Weight>  (201) 
313.72

>  <AlogP>  (201) 
3.59

>  <Smiles>  (201) 
C#CC(=O)Nc1cc(-c2cnc3[nH]cc(Cl)c3c2)ccc1F

>  <Standard Type>  (201) 
IC50

>  <Standard Relation>  (201) 
'='

>  <Standard Units>  (201) 
nM

>  <Standard Value>  (201) 
35.0

>  <Assay ChEMBL ID>  (201) 
CHEMBL3887687

>  <Assay Description>  (201) 
Biochemical Inhibition Assay: 1H-pyrrolo[2,3-b]pyridine, 1H-pyrazolo[3,4-b]pyridine and 5H-pyrrolo[2,3-b]pyrazine series of compounds exhibited over >100 fold selective against Janus and TEC family of kinases except for the BMX and TXK it had activity of 30 and 45 nM respectively.

>  <BAO Format ID>  (201) 
BAO_0000357

>  <BAO Label>  (201) 
single protein format

>  <Assay Organism>  (201) 
Homo sapiens

>  <Target ChEMBL ID>  (201) 
CHEMBL2959

>  <Target Name>  (201) 
Tyrosine-protein kinase ITK/TSK

>  <Target Organism>  (201) 
Homo sapiens

>  <Target Type>  (201) 
SINGLE PROTEIN

>  <Document ChEMBL ID>  (201) 
CHEMBL3886406

>  <Source Description>  (201) 
BindingDB Database

>  <Document Journal>  (201) 
nan

>  <Document Year>  (201) 
2015.0

>  <Active>  (201) 
1.0

$$$$

     RDKit          2D

 33 36  0  0  0  0  0  0  0  0999 V2000
    1.5000   -5.1962    0.0000 C   0  0  0  0  0  0  0  0  0  0  0  0
    0.7500   -3.8971    0.0000 C   0  0  0  0  0  0  0  0  0  0  0  0
    1.5000   -2.5981    0.0000 N   0  0  0  0  0  0  0  0  0  0  0  0
    3.0000   -2.5981    0.0000 C   0  0  0  0  0  0  0  0  0  0  0  0
    3.7500   -1.2990    0.0000 O   0  0  0  0  0  0  0  0  0  0  0  0
    3.7500   -3.8971    0.0000 C   0  0  0  0  0  0  0  0  0  0  0  0
    3.0000   -5.1962    0.0000 C   0  0  0  0  0  0  0  0  0  0  0  0
    3.7500   -6.4952    0.0000 C   0  0  0  0  0  0  0  0  0  0  0  0
    5.2500   -6.4952    0.0000 C   0  0  0  0  0  0  0  0  0  0  0  0
    6.0000   -5.1962    0.0000 C   0  0  0  0  0  0  0  0  0  0  0  0
    5.2500   -3.8971    0.0000 C   0  0  0  0  0  0  0  0  0  0  0  0
    0.7500   -1.2990    0.0000 C   0  0  0  0  0  0  0  0  0  0  0  0
    1.5000    0.0000    0.0000 C   0  0  0  0  0  0  0  0  0  0  0  0
    0.7500    1.2990    0.0000 C   0  0  0  0  0  0  0  0  0  0  0  0
   -0.7500    1.2990    0.0000 C   0  0  0  0  0  0  0  0  0  0  0  0
   -1.5000    0.0000    0.0000 C   0  0  0  0  0  0  0  0  0  0  0  0
   -0.7500   -1.2990    0.0000 C   0  0  0  0  0  0  0  0  0  0  0  0
   -2.9672    0.3119    0.0000 N   0  0  0  0  0  0  0  0  0  0  0  0
   -3.1240    1.8037    0.0000 C   0  0  0  0  0  0  0  0  0  0  0  0
   -4.4231    2.5537    0.0000 N   0  0  0  0  0  0  0  0  0  0  0  0
   -4.4231    4.0537    0.0000 C   0  0  0  0  0  0  0  0  0  0  0  0
   -3.1240    4.8037    0.0000 O   0  0  0  0  0  0  0  0  0  0  0  0
   -5.7221    4.8037    0.0000 C   0  0  0  0  0  0  0  0  0  0  0  0
   -7.0924    4.1935    0.0000 C   0  0  0  0  0  0  0  0  0  0  0  0
   -8.0961    5.3083    0.0000 C   0  0  0  0  0  0  0  0  0  0  0  0
   -7.3461    6.6073    0.0000 N   0  0  0  0  0  0  0  0  0  0  0  0
   -5.8789    6.2954    0.0000 O   0  0  0  0  0  0  0  0  0  0  0  0
   -1.7537    2.4138    0.0000 N   0  0  0  0  0  0  0  0  0  0  0  0
   -1.4418    3.8810    0.0000 C   0  0  0  0  0  0  0  0  0  0  0  0
   -0.0152    4.3445    0.0000 C   0  0  0  0  0  0  0  0  0  0  0  0
    0.2966    5.8117    0.0000 C   0  0  0  0  0  0  0  0  0  0  0  0
    1.7232    6.2752    0.0000 N   0  0  0  0  0  0  0  0  0  0  0  0
   -0.8181    6.8154    0.0000 O   0  0  0  0  0  0  0  0  0  0  0  0
  1  2  1  0
  2  3  1  0
  3  4  1  0
  4  5  2  0
  4  6  1  0
  6  7  2  0
  7  8  1  0
  8  9  2  0
  9 10  1  0
 10 11  2  0
  3 12  1  0
 12 13  2  0
 13 14  1  0
 14 15  2  0
 15 16  1  0
 16 17  2  0
 16 18  1  0
 18 19  2  0
 19 20  1  0
 20 21  1  0
 21 22  2  0
 21 23  1  0
 23 24  2  0
 24 25  1  0
 25 26  2  0
 26 27  1  0
 19 28  1  0
 28 29  1  0
 29 30  1  0
 30 31  1  0
 31 32  1  0
 31 33  2  0
 11  6  1  0
 17 12  1  0
 27 23  1  0
 28 15  1  0
M  END
>  <Compound_ID>  (202) 
CHEMBL517901

>  <Molecule Name>  (202) 
nan

>  <Molecular Weight>  (202) 
446.47

>  <AlogP>  (202) 
2.82

>  <Smiles>  (202) 
CCN(C(=O)c1ccccc1)c1ccc2c(c1)nc(NC(=O)c1ccno1)n2CCC(N)=O

>  <Standard Type>  (202) 
IC50

>  <Standard Relation>  (202) 
'='

>  <Standard Units>  (202) 
nM

>  <Standard Value>  (202) 
27.0

>  <Assay ChEMBL ID>  (202) 
CHEMBL992543

>  <Assay Description>  (202) 
Inhibition of recombinant ITK by DELFIA assay

>  <BAO Format ID>  (202) 
BAO_0000357

>  <BAO Label>  (202) 
single protein format

>  <Assay Organism>  (202) 
None

>  <Target ChEMBL ID>  (202) 
CHEMBL2959

>  <Target Name>  (202) 
Tyrosine-protein kinase ITK/TSK

>  <Target Organism>  (202) 
Homo sapiens

>  <Target Type>  (202) 
SINGLE PROTEIN

>  <Document ChEMBL ID>  (202) 
CHEMBL1142466

>  <Source Description>  (202) 
Scientific Literature

>  <Document Journal>  (202) 
Bioorg Med Chem Lett

>  <Document Year>  (202) 
2008.0

>  <Active>  (202) 
1.0

$$$$

     RDKit          2D

 40 43  0  0  0  0  0  0  0  0999 V2000
    0.7500   -3.8971    0.0000 C   0  0  0  0  0  0  0  0  0  0  0  0
    1.5000   -2.5981    0.0000 N   0  0  0  0  0  0  0  0  0  0  0  0
    3.0000   -2.5981    0.0000 C   0  0  0  0  0  0  0  0  0  0  0  0
    3.7500   -1.2990    0.0000 O   0  0  0  0  0  0  0  0  0  0  0  0
    3.7500   -3.8971    0.0000 C   0  0  0  0  0  0  0  0  0  0  0  0
    3.0000   -5.1962    0.0000 C   0  0  0  0  0  0  0  0  0  0  0  0
    3.7500   -6.4952    0.0000 C   0  0  0  0  0  0  0  0  0  0  0  0
    5.2500   -6.4952    0.0000 C   0  0  0  0  0  0  0  0  0  0  0  0
    6.0000   -7.7942    0.0000 O   0  0  0  0  0  0  0  0  0  0  0  0
    5.2500   -9.0933    0.0000 C   0  0  0  0  0  0  0  0  0  0  0  0
    4.5000  -10.3923    0.0000 F   0  0  0  0  0  0  0  0  0  0  0  0
    6.5490   -9.8433    0.0000 F   0  0  0  0  0  0  0  0  0  0  0  0
    3.9510   -8.3433    0.0000 F   0  0  0  0  0  0  0  0  0  0  0  0
    6.0000   -5.1962    0.0000 C   0  0  0  0  0  0  0  0  0  0  0  0
    5.2500   -3.8971    0.0000 C   0  0  0  0  0  0  0  0  0  0  0  0
    0.7500   -1.2990    0.0000 C   0  0  0  0  0  0  0  0  0  0  0  0
    1.5000    0.0000    0.0000 C   0  0  0  0  0  0  0  0  0  0  0  0
    0.7500    1.2990    0.0000 C   0  0  0  0  0  0  0  0  0  0  0  0
   -0.7500    1.2990    0.0000 C   0  0  0  0  0  0  0  0  0  0  0  0
   -1.5000    0.0000    0.0000 C   0  0  0  0  0  0  0  0  0  0  0  0
   -0.7500   -1.2990    0.0000 C   0  0  0  0  0  0  0  0  0  0  0  0
   -2.9672    0.3119    0.0000 N   0  0  0  0  0  0  0  0  0  0  0  0
   -3.1240    1.8037    0.0000 C   0  0  0  0  0  0  0  0  0  0  0  0
   -4.4231    2.5537    0.0000 N   0  0  0  0  0  0  0  0  0  0  0  0
   -4.4231    4.0537    0.0000 C   0  0  0  0  0  0  0  0  0  0  0  0
   -3.1240    4.8037    0.0000 O   0  0  0  0  0  0  0  0  0  0  0  0
   -5.7221    4.8037    0.0000 C   0  0  0  0  0  0  0  0  0  0  0  0
   -5.7221    6.3037    0.0000 C   0  0  0  0  0  0  0  0  0  0  0  0
   -7.0211    7.0537    0.0000 C   0  0  0  0  0  0  0  0  0  0  0  0
   -8.3202    6.3037    0.0000 C   0  0  0  0  0  0  0  0  0  0  0  0
   -9.6192    7.0537    0.0000 C   0  0  0  0  0  0  0  0  0  0  0  0
  -10.9182    7.8037    0.0000 N   0  0  0  0  0  0  0  0  0  0  0  0
   -8.3202    4.8037    0.0000 C   0  0  0  0  0  0  0  0  0  0  0  0
   -7.0211    4.0537    0.0000 C   0  0  0  0  0  0  0  0  0  0  0  0
   -1.7537    2.4138    0.0000 N   0  0  0  0  0  0  0  0  0  0  0  0
   -1.4418    3.8810    0.0000 C   0  0  0  0  0  0  0  0  0  0  0  0
   -0.0152    4.3445    0.0000 C   0  0  0  0  0  0  0  0  0  0  0  0
    0.2966    5.8117    0.0000 C   0  0  0  0  0  0  0  0  0  0  0  0
    1.7232    6.2752    0.0000 N   0  0  0  0  0  0  0  0  0  0  0  0
   -0.8181    6.8154    0.0000 O   0  0  0  0  0  0  0  0  0  0  0  0
  1  2  1  0
  2  3  1  0
  3  4  2  0
  3  5  1  0
  5  6  2  0
  6  7  1  0
  7  8  2  0
  8  9  1  0
  9 10  1  0
 10 11  1  0
 10 12  1  0
 10 13  1  0
  8 14  1  0
 14 15  2  0
  2 16  1  0
 16 17  2  0
 17 18  1  0
 18 19  2  0
 19 20  1  0
 20 21  2  0
 20 22  1  0
 22 23  2  0
 23 24  1  0
 24 25  1  0
 25 26  2  0
 25 27  1  0
 27 28  2  0
 28 29  1  0
 29 30  2  0
 30 31  1  0
 31 32  3  0
 30 33  1  0
 33 34  2  0
 23 35  1  0
 35 36  1  0
 36 37  1  0
 37 38  1  0
 38 39  1  0
 38 40  2  0
 15  5  1  0
 21 16  1  0
 34 27  1  0
 35 19  1  0
M  END
>  <Compound_ID>  (203) 
CHEMBL490269

>  <Molecule Name>  (203) 
nan

>  <Molecular Weight>  (203) 
550.5

>  <AlogP>  (203) 
4.21

>  <Smiles>  (203) 
CN(C(=O)c1ccc(OC(F)(F)F)cc1)c1ccc2c(c1)nc(NC(=O)c1ccc(C#N)cc1)n2CCC(N)=O

>  <Standard Type>  (203) 
IC50

>  <Standard Relation>  (203) 
'='

>  <Standard Units>  (203) 
nM

>  <Standard Value>  (203) 
35.0

>  <Assay ChEMBL ID>  (203) 
CHEMBL992543

>  <Assay Description>  (203) 
Inhibition of recombinant ITK by DELFIA assay

>  <BAO Format ID>  (203) 
BAO_0000357

>  <BAO Label>  (203) 
single protein format

>  <Assay Organism>  (203) 
None

>  <Target ChEMBL ID>  (203) 
CHEMBL2959

>  <Target Name>  (203) 
Tyrosine-protein kinase ITK/TSK

>  <Target Organism>  (203) 
Homo sapiens

>  <Target Type>  (203) 
SINGLE PROTEIN

>  <Document ChEMBL ID>  (203) 
CHEMBL1142466

>  <Source Description>  (203) 
Scientific Literature

>  <Document Journal>  (203) 
Bioorg Med Chem Lett

>  <Document Year>  (203) 
2008.0

>  <Active>  (203) 
1.0

$$$$

     RDKit          2D

 36 41  0  0  0  0  0  0  0  0999 V2000
  -10.2497   -1.4504    0.0000 C   0  0  0  0  0  0  0  0  0  0  0  0
   -8.8231   -1.9139    0.0000 C   0  0  0  0  0  0  0  0  0  0  0  0
   -8.5112   -3.3811    0.0000 C   0  0  0  0  0  0  0  0  0  0  0  0
   -9.6260   -4.3848    0.0000 O   0  0  0  0  0  0  0  0  0  0  0  0
   -7.0847   -3.8447    0.0000 N   0  0  0  0  0  0  0  0  0  0  0  0
   -6.6211   -5.2713    0.0000 C   0  0  0  0  0  0  0  0  0  0  0  0
   -5.1211   -5.2713    0.0000 C   0  0  0  0  0  0  0  0  0  0  0  0
   -4.6576   -3.8447    0.0000 C   0  0  0  0  0  0  0  0  0  0  0  0
   -5.8711   -2.9630    0.0000 C   0  0  0  0  0  0  0  0  0  0  0  0
   -3.3211   -4.5257    0.0000 C   0  0  0  0  0  0  0  0  0  0  0  0
   -2.6401   -3.1891    0.0000 C   0  0  0  0  0  0  0  0  0  0  0  0
   -1.2135   -2.7256    0.0000 N   0  0  0  0  0  0  0  0  0  0  0  0
   -0.0000   -3.6073    0.0000 C   0  0  0  0  0  0  0  0  0  0  0  0
   -0.0000   -5.1073    0.0000 N   0  0  0  0  0  0  0  0  0  0  0  0
   -1.2990   -5.8573    0.0000 C   0  0  0  0  0  0  0  0  0  0  0  0
   -2.5981   -5.1073    0.0000 O   0  0  0  0  0  0  0  0  0  0  0  0
   -1.2990   -7.3573    0.0000 C   0  0  0  0  0  0  0  0  0  0  0  0
   -0.0855   -8.2390    0.0000 C   0  0  0  0  0  0  0  0  0  0  0  0
   -0.5490   -9.6656    0.0000 C   0  0  0  0  0  0  0  0  0  0  0  0
   -2.0490   -9.6656    0.0000 C   0  0  0  0  0  0  0  0  0  0  0  0
   -2.9307  -10.8791    0.0000 C   0  0  0  0  0  0  0  0  0  0  0  0
   -4.4225  -10.7223    0.0000 C   0  0  0  0  0  0  0  0  0  0  0  0
   -5.3042  -11.9358    0.0000 C   0  0  0  0  0  0  0  0  0  0  0  0
   -4.6941  -13.3061    0.0000 N   0  0  0  0  0  0  0  0  0  0  0  0
   -3.2023  -13.4629    0.0000 C   0  0  0  0  0  0  0  0  0  0  0  0
   -2.5922  -14.8333    0.0000 N   0  0  0  0  0  0  0  0  0  0  0  0
   -2.3206  -12.2494    0.0000 N   0  0  0  0  0  0  0  0  0  0  0  0
   -2.5126   -8.2390    0.0000 S   0  0  0  0  0  0  0  0  0  0  0  0
    1.2135   -2.7256    0.0000 N   0  0  0  0  0  0  0  0  0  0  0  0
    0.7500   -1.2990    0.0000 C   0  0  0  0  0  0  0  0  0  0  0  0
    1.5000    0.0000    0.0000 C   0  0  0  0  0  0  0  0  0  0  0  0
    0.7500    1.2990    0.0000 C   0  0  0  0  0  0  0  0  0  0  0  0
   -0.7500    1.2990    0.0000 C   0  0  0  0  0  0  0  0  0  0  0  0
   -1.5000    0.0000    0.0000 C   0  0  0  0  0  0  0  0  0  0  0  0
   -0.7500   -1.2990    0.0000 C   0  0  0  0  0  0  0  0  0  0  0  0
   -3.9766   -2.5082    0.0000 C   0  0  0  0  0  0  0  0  0  0  0  0
  1  2  2  0
  2  3  1  0
  3  4  2  0
  3  5  1  0
  5  6  1  0
  6  7  1  0
  8  7  1  1
  8  9  1  0
  8 10  1  0
 10 11  1  0
 11 12  1  1
 12 13  1  0
 13 14  1  0
 14 15  1  0
 15 16  2  0
 15 17  1  0
 17 18  2  0
 18 19  1  0
 19 20  2  0
 20 21  1  0
 21 22  2  0
 22 23  1  0
 23 24  2  0
 24 25  1  0
 25 26  1  0
 25 27  2  0
 20 28  1  0
 13 29  2  0
 29 30  1  0
 30 31  2  0
 31 32  1  0
 32 33  2  0
 33 34  1  0
 34 35  2  0
 11 36  1  0
  9  5  1  0
 35 12  1  0
 36  8  1  0
 28 17  1  0
 35 30  1  0
 27 21  1  0
M  END
>  <Compound_ID>  (204) 
CHEMBL4217959

>  <Molecule Name>  (204) 
nan

>  <Molecular Weight>  (204) 
499.6

>  <AlogP>  (204) 
4.13

>  <Smiles>  (204) 
C=CC(=O)N1CC[C@]2(C1)C[C@H](n1c(NC(=O)c3ccc(-c4ccnc(N)n4)s3)nc3ccccc31)C2

>  <Standard Type>  (204) 
IC50

>  <Standard Relation>  (204) 
'='

>  <Standard Units>  (204) 
nM

>  <Standard Value>  (204) 
0.92

>  <Assay ChEMBL ID>  (204) 
CHEMBL4199503

>  <Assay Description>  (204) 
Inhibition of ITK (unknown origin) using fluorescently labeled peptide as substrate after 3 hrs by microfluidic mobility shift assay

>  <BAO Format ID>  (204) 
BAO_0000357

>  <BAO Label>  (204) 
single protein format

>  <Assay Organism>  (204) 
Homo sapiens

>  <Target ChEMBL ID>  (204) 
CHEMBL2959

>  <Target Name>  (204) 
Tyrosine-protein kinase ITK/TSK

>  <Target Organism>  (204) 
Homo sapiens

>  <Target Type>  (204) 
SINGLE PROTEIN

>  <Document ChEMBL ID>  (204) 
CHEMBL4196110

>  <Source Description>  (204) 
Scientific Literature

>  <Document Journal>  (204) 
ACS Med Chem Lett

>  <Document Year>  (204) 
2018.0

>  <Active>  (204) 
1.0

$$$$

     RDKit          2D

 38 42  0  0  0  0  0  0  0  0999 V2000
  -11.1975    2.9107    0.0000 C   0  0  0  0  0  0  0  0  0  0  0  0
   -9.7709    3.3742    0.0000 C   0  0  0  0  0  0  0  0  0  0  0  0
   -8.6562    2.3705    0.0000 C   0  0  0  0  0  0  0  0  0  0  0  0
   -8.9681    0.9033    0.0000 O   0  0  0  0  0  0  0  0  0  0  0  0
   -7.2296    2.8340    0.0000 N   0  0  0  0  0  0  0  0  0  0  0  0
   -6.1149    1.8303    0.0000 C   0  0  0  0  0  0  0  0  0  0  0  0
   -4.6883    2.2939    0.0000 C   0  0  0  0  0  0  0  0  0  0  0  0
   -3.5736    1.2902    0.0000 O   0  0  0  0  0  0  0  0  0  0  0  0
   -2.1470    1.7537    0.0000 C   0  0  0  0  0  0  0  0  0  0  0  0
   -1.8351    3.2209    0.0000 C   0  0  0  0  0  0  0  0  0  0  0  0
   -0.4086    3.6844    0.0000 C   0  0  0  0  0  0  0  0  0  0  0  0
   -0.0967    5.1517    0.0000 C   0  0  0  0  0  0  0  0  0  0  0  0
    1.3299    5.6152    0.0000 C   0  0  0  0  0  0  0  0  0  0  0  0
    2.4446    4.6115    0.0000 C   0  0  0  0  0  0  0  0  0  0  0  0
    3.8712    5.0750    0.0000 C   0  0  0  0  0  0  0  0  0  0  0  0
    4.1831    6.5422    0.0000 C   0  0  0  0  0  0  0  0  0  0  0  0
    3.0684    7.5459    0.0000 C   0  0  0  0  0  0  0  0  0  0  0  0
    3.3802    9.0132    0.0000 O   0  0  0  0  0  0  0  0  0  0  0  0
    4.8068    9.4767    0.0000 C   0  0  0  0  0  0  0  0  0  0  0  0
    1.6418    7.0824    0.0000 C   0  0  0  0  0  0  0  0  0  0  0  0
    0.7062    2.6807    0.0000 C   0  0  0  0  0  0  0  0  0  0  0  0
    0.3943    1.2135    0.0000 C   0  0  0  0  0  0  0  0  0  0  0  0
    1.2760    0.0000    0.0000 N   0  0  0  0  0  0  0  0  0  0  0  0
    0.3943   -1.2135    0.0000 C   0  0  0  0  0  0  0  0  0  0  0  0
    0.8578   -2.6401    0.0000 C   0  0  0  0  0  0  0  0  0  0  0  0
    2.2844   -3.1036    0.0000 N   0  0  0  0  0  0  0  0  0  0  0  0
    2.2844   -4.6036    0.0000 N   0  0  0  0  0  0  0  0  0  0  0  0
    0.8578   -5.0672    0.0000 C   0  0  0  0  0  0  0  0  0  0  0  0
    0.2477   -6.4375    0.0000 C   0  0  0  0  0  0  0  0  0  0  0  0
   -1.2441   -6.5943    0.0000 C   0  0  0  0  0  0  0  0  0  0  0  0
   -1.8542   -7.9646    0.0000 C   0  0  0  0  0  0  0  0  0  0  0  0
   -3.3460   -8.1214    0.0000 F   0  0  0  0  0  0  0  0  0  0  0  0
   -0.9725   -9.1781    0.0000 F   0  0  0  0  0  0  0  0  0  0  0  0
   -2.1257   -5.3807    0.0000 C   0  0  0  0  0  0  0  0  0  0  0  0
   -1.5156   -4.0104    0.0000 C   0  0  0  0  0  0  0  0  0  0  0  0
   -0.0239   -3.8536    0.0000 C   0  0  0  0  0  0  0  0  0  0  0  0
   -1.0323   -0.7500    0.0000 C   0  0  0  0  0  0  0  0  0  0  0  0
   -1.0323    0.7500    0.0000 C   0  0  0  0  0  0  0  0  0  0  0  0
  1  2  2  0
  2  3  1  0
  3  4  2  0
  3  5  1  0
  5  6  1  0
  6  7  1  0
  7  8  1  0
  8  9  1  0
  9 10  2  0
 10 11  1  0
 11 12  1  0
 12 13  1  0
 13 14  2  0
 14 15  1  0
 15 16  2  0
 16 17  1  0
 17 18  1  0
 18 19  1  0
 17 20  2  0
 11 21  2  0
 21 22  1  0
 22 23  1  0
 23 24  1  0
 24 25  1  0
 25 26  2  0
 26 27  1  0
 27 28  1  0
 28 29  2  0
 29 30  1  0
 30 31  1  0
 31 32  1  0
 31 33  1  0
 30 34  2  0
 34 35  1  0
 35 36  2  0
 24 37  2  0
 37 38  1  0
 38  9  1  0
 20 13  1  0
 38 22  2  0
 36 25  1  0
 36 28  1  0
M  END
>  <Compound_ID>  (205) 
CHEMBL4635070

>  <Molecule Name>  (205) 
nan

>  <Molecular Weight>  (205) 
516.55

>  <AlogP>  (205) 
5.93

>  <Smiles>  (205) 
C=CC(=O)NCCOc1cc(Cc2cccc(OC)c2)cc2[nH]c(-c3n[nH]c4cc(C(F)F)ccc34)cc12

>  <Standard Type>  (205) 
IC50

>  <Standard Relation>  (205) 
'='

>  <Standard Units>  (205) 
nM

>  <Standard Value>  (205) 
9.0

>  <Assay ChEMBL ID>  (205) 
CHEMBL4603778

>  <Assay Description>  (205) 
Inhibition of ITK (unknown origin) using TK as substrate incubated for 30 mins by HTRF assay

>  <BAO Format ID>  (205) 
BAO_0000357

>  <BAO Label>  (205) 
single protein format

>  <Assay Organism>  (205) 
Homo sapiens

>  <Target ChEMBL ID>  (205) 
CHEMBL2959

>  <Target Name>  (205) 
Tyrosine-protein kinase ITK/TSK

>  <Target Organism>  (205) 
Homo sapiens

>  <Target Type>  (205) 
SINGLE PROTEIN

>  <Document ChEMBL ID>  (205) 
CHEMBL4602634

>  <Source Description>  (205) 
Scientific Literature

>  <Document Journal>  (205) 
Eur J Med Chem

>  <Document Year>  (205) 
2020.0

>  <Active>  (205) 
1.0

$$$$

     RDKit          2D

 40 44  0  0  0  0  0  0  0  0999 V2000
    3.7500   -1.2990    0.0000 C   0  0  0  0  0  0  0  0  0  0  0  0
    3.0000    0.0000    0.0000 O   0  0  0  0  0  0  0  0  0  0  0  0
    1.5000    0.0000    0.0000 C   0  0  0  0  0  0  0  0  0  0  0  0
    0.7500   -1.2990    0.0000 C   0  0  0  0  0  0  0  0  0  0  0  0
   -0.7500   -1.2990    0.0000 C   0  0  0  0  0  0  0  0  0  0  0  0
   -1.5000    0.0000    0.0000 C   0  0  0  0  0  0  0  0  0  0  0  0
   -3.0000    0.0000    0.0000 C   0  0  0  0  0  0  0  0  0  0  0  0
   -3.7500   -1.2990    0.0000 O   0  0  0  0  0  0  0  0  0  0  0  0
   -5.2500   -1.2990    0.0000 C   0  0  0  0  0  0  0  0  0  0  0  0
   -6.0000    0.0000    0.0000 C   0  0  0  0  0  0  0  0  0  0  0  0
   -7.5000    0.0000    0.0000 C   0  0  0  0  0  0  0  0  0  0  0  0
   -8.2500   -1.2990    0.0000 C   0  0  0  0  0  0  0  0  0  0  0  0
   -9.7500   -1.2990    0.0000 N   0  0  0  0  0  0  0  0  0  0  0  0
  -10.5000    0.0000    0.0000 C   0  0  0  0  0  0  0  0  0  0  0  0
   -9.7500    1.2990    0.0000 O   0  0  0  0  0  0  0  0  0  0  0  0
  -12.0000    0.0000    0.0000 C   0  0  0  0  0  0  0  0  0  0  0  0
  -12.8817   -1.2135    0.0000 C   0  0  0  0  0  0  0  0  0  0  0  0
  -12.4182   -2.6401    0.0000 C   0  0  0  0  0  0  0  0  0  0  0  0
  -14.3083   -0.7500    0.0000 N   0  0  0  0  0  0  0  0  0  0  0  0
  -15.5218   -1.6317    0.0000 C   0  0  0  0  0  0  0  0  0  0  0  0
  -16.8921   -1.0216    0.0000 C   0  0  0  0  0  0  0  0  0  0  0  0
  -16.2820    0.3487    0.0000 C   0  0  0  0  0  0  0  0  0  0  0  0
  -17.5022   -2.3919    0.0000 C   0  0  0  0  0  0  0  0  0  0  0  0
  -18.2624   -0.4115    0.0000 O   0  0  0  0  0  0  0  0  0  0  0  0
  -14.3083    0.7500    0.0000 N   0  0  0  0  0  0  0  0  0  0  0  0
  -15.5218    1.6317    0.0000 C   0  0  0  0  0  0  0  0  0  0  0  0
  -15.3650    3.1235    0.0000 C   0  0  0  0  0  0  0  0  0  0  0  0
  -16.5785    4.0051    0.0000 C   0  0  0  0  0  0  0  0  0  0  0  0
  -17.9488    3.3950    0.0000 C   0  0  0  0  0  0  0  0  0  0  0  0
  -18.1056    1.9033    0.0000 C   0  0  0  0  0  0  0  0  0  0  0  0
  -16.8921    1.0216    0.0000 C   0  0  0  0  0  0  0  0  0  0  0  0
  -12.8817    1.2135    0.0000 C   0  0  0  0  0  0  0  0  0  0  0  0
  -12.4182    2.6401    0.0000 O   0  0  0  0  0  0  0  0  0  0  0  0
   -7.5000   -2.5981    0.0000 N   0  0  0  0  0  0  0  0  0  0  0  0
   -6.0000   -2.5981    0.0000 C   0  0  0  0  0  0  0  0  0  0  0  0
   -3.7500    1.2990    0.0000 C   0  0  0  0  0  0  0  0  0  0  0  0
   -3.0000    2.5981    0.0000 C   0  0  0  0  0  0  0  0  0  0  0  0
   -1.5000    2.5981    0.0000 N   0  0  0  0  0  0  0  0  0  0  0  0
   -0.7500    1.2990    0.0000 C   0  0  0  0  0  0  0  0  0  0  0  0
    0.7500    1.2990    0.0000 C   0  0  0  0  0  0  0  0  0  0  0  0
  1  2  1  0
  2  3  1  0
  3  4  2  0
  4  5  1  0
  5  6  2  0
  6  7  1  0
  7  8  1  0
  8  9  1  0
  9 10  2  0
 10 11  1  0
 11 12  2  0
 12 13  1  0
 13 14  1  0
 14 15  2  0
 14 16  1  0
 16 17  2  0
 17 18  1  0
 17 19  1  0
 19 20  1  0
 20 21  1  0
 21 22  1  0
 21 23  1  0
 21 24  1  0
 19 25  1  0
 25 26  1  0
 26 27  2  0
 27 28  1  0
 28 29  2  0
 29 30  1  0
 30 31  2  0
 25 32  1  0
 32 33  2  0
 12 34  1  0
 34 35  2  0
  7 36  2  0
 36 37  1  0
 37 38  2  0
 38 39  1  0
 39 40  2  0
 40  3  1  0
 39  6  1  0
 35  9  1  0
 32 16  1  0
 31 26  1  0
M  END
>  <Compound_ID>  (206) 
CHEMBL460472

>  <Molecule Name>  (206) 
nan

>  <Molecular Weight>  (206) 
539.59

>  <AlogP>  (206) 
4.71

>  <Smiles>  (206) 
COc1ccc2c(Oc3ccc(NC(=O)c4c(C)n(CC(C)(C)O)n(-c5ccccc5)c4=O)nc3)ccnc2c1

>  <Standard Type>  (206) 
IC50

>  <Standard Relation>  (206) 
'='

>  <Standard Units>  (206) 
nM

>  <Standard Value>  (206) 
62.0

>  <Assay ChEMBL ID>  (206) 
CHEMBL985581

>  <Assay Description>  (206) 
Inhibition of ITK

>  <BAO Format ID>  (206) 
BAO_0000357

>  <BAO Label>  (206) 
single protein format

>  <Assay Organism>  (206) 
None

>  <Target ChEMBL ID>  (206) 
CHEMBL2959

>  <Target Name>  (206) 
Tyrosine-protein kinase ITK/TSK

>  <Target Organism>  (206) 
Homo sapiens

>  <Target Type>  (206) 
SINGLE PROTEIN

>  <Document ChEMBL ID>  (206) 
CHEMBL1157538

>  <Source Description>  (206) 
Scientific Literature

>  <Document Journal>  (206) 
J Med Chem

>  <Document Year>  (206) 
2008.0

>  <Active>  (206) 
1.0

$$$$

     RDKit          2D

 36 39  0  0  0  0  0  0  0  0999 V2000
    3.7500   -1.2990    0.0000 C   0  0  0  0  0  0  0  0  0  0  0  0
    3.0000    0.0000    0.0000 C   0  0  0  0  0  0  0  0  0  0  0  0
    3.7500    1.2990    0.0000 O   0  0  0  0  0  0  0  0  0  0  0  0
    1.5000    0.0000    0.0000 N   0  0  0  0  0  0  0  0  0  0  0  0
    0.7500   -1.2990    0.0000 C   0  0  0  0  0  0  0  0  0  0  0  0
   -0.7500   -1.2990    0.0000 C   0  0  0  0  0  0  0  0  0  0  0  0
   -1.5000    0.0000    0.0000 N   0  0  0  0  0  0  0  0  0  0  0  0
   -3.0000    0.0000    0.0000 C   0  0  0  0  0  0  0  0  0  0  0  0
   -3.7500   -1.2990    0.0000 O   0  0  0  0  0  0  0  0  0  0  0  0
   -3.7500    1.2990    0.0000 C   0  0  0  0  0  0  0  0  0  0  0  0
   -3.0000    2.5981    0.0000 C   0  0  0  0  0  0  0  0  0  0  0  0
   -3.7500    3.8971    0.0000 C   0  0  0  0  0  0  0  0  0  0  0  0
   -3.0000    5.1962    0.0000 S   0  0  0  0  0  0  0  0  0  0  0  0
   -1.5000    5.1962    0.0000 C   0  0  0  0  0  0  0  0  0  0  0  0
   -0.6183    6.4097    0.0000 C   0  0  0  0  0  0  0  0  0  0  0  0
    0.8083    5.9462    0.0000 N   0  0  0  0  0  0  0  0  0  0  0  0
    0.8083    4.4462    0.0000 C   0  0  0  0  0  0  0  0  0  0  0  0
    2.0218    3.5645    0.0000 N   0  0  0  0  0  0  0  0  0  0  0  0
    3.3921    4.1746    0.0000 C   0  0  0  0  0  0  0  0  0  0  0  0
    3.5489    5.6664    0.0000 O   0  0  0  0  0  0  0  0  0  0  0  0
    4.6056    3.2929    0.0000 C   0  0  0  0  0  0  0  0  0  0  0  0
    4.4488    1.8011    0.0000 C   0  0  0  0  0  0  0  0  0  0  0  0
    5.6624    0.9194    0.0000 C   0  0  0  0  0  0  0  0  0  0  0  0
    7.0327    1.5295    0.0000 C   0  0  0  0  0  0  0  0  0  0  0  0
    8.2462    0.6479    0.0000 N   0  0  0  0  0  0  0  0  0  0  0  0
    8.0894   -0.8439    0.0000 C   0  0  0  0  0  0  0  0  0  0  0  0
    9.6165    1.2580    0.0000 C   0  0  0  0  0  0  0  0  0  0  0  0
    7.1895    3.0213    0.0000 C   0  0  0  0  0  0  0  0  0  0  0  0
    5.9760    3.9030    0.0000 C   0  0  0  0  0  0  0  0  0  0  0  0
   -0.6183    3.9826    0.0000 S   0  0  0  0  0  0  0  0  0  0  0  0
   -5.2500    3.8971    0.0000 C   0  0  0  0  0  0  0  0  0  0  0  0
   -6.0000    2.5981    0.0000 C   0  0  0  0  0  0  0  0  0  0  0  0
   -5.2500    1.2990    0.0000 C   0  0  0  0  0  0  0  0  0  0  0  0
   -6.0000    0.0000    0.0000 O   0  0  0  0  0  0  0  0  0  0  0  0
   -0.7500    1.2990    0.0000 C   0  0  0  0  0  0  0  0  0  0  0  0
    0.7500    1.2990    0.0000 C   0  0  0  0  0  0  0  0  0  0  0  0
  1  2  1  0
  2  3  2  0
  2  4  1  0
  4  5  1  0
  5  6  1  0
  6  7  1  0
  7  8  1  0
  8  9  2  0
  8 10  1  0
 10 11  2  0
 11 12  1  0
 12 13  1  0
 13 14  1  0
 14 15  2  0
 15 16  1  0
 16 17  2  0
 17 18  1  0
 18 19  1  0
 19 20  2  0
 19 21  1  0
 21 22  2  0
 22 23  1  0
 23 24  2  0
 24 25  1  0
 25 26  1  0
 25 27  1  0
 24 28  1  0
 28 29  2  0
 17 30  1  0
 12 31  2  0
 31 32  1  0
 32 33  2  0
 33 34  1  0
  7 35  1  0
 35 36  1  0
 36  4  1  0
 33 10  1  0
 30 14  1  0
 29 21  1  0
M  END
>  <Compound_ID>  (207) 
CHEMBL209004

>  <Molecule Name>  (207) 
nan

>  <Molecular Weight>  (207) 
525.66

>  <AlogP>  (207) 
3.62

>  <Smiles>  (207) 
CC(=O)N1CCN(C(=O)c2cc(Sc3cnc(NC(=O)c4ccc(N(C)C)cc4)s3)ccc2O)CC1

>  <Standard Type>  (207) 
IC50

>  <Standard Relation>  (207) 
'='

>  <Standard Units>  (207) 
nM

>  <Standard Value>  (207) 
30.0

>  <Assay ChEMBL ID>  (207) 
CHEMBL864159

>  <Assay Description>  (207) 
Inhibition of Itk

>  <BAO Format ID>  (207) 
BAO_0000357

>  <BAO Label>  (207) 
single protein format

>  <Assay Organism>  (207) 
Homo sapiens

>  <Target ChEMBL ID>  (207) 
CHEMBL2959

>  <Target Name>  (207) 
Tyrosine-protein kinase ITK/TSK

>  <Target Organism>  (207) 
Homo sapiens

>  <Target Type>  (207) 
SINGLE PROTEIN

>  <Document ChEMBL ID>  (207) 
CHEMBL1138957

>  <Source Description>  (207) 
Scientific Literature

>  <Document Journal>  (207) 
Bioorg Med Chem Lett

>  <Document Year>  (207) 
2006.0

>  <Active>  (207) 
1.0

$$$$

     RDKit          2D

 32 35  0  0  0  0  0  0  0  0999 V2000
    3.7500    1.2990    0.0000 O   0  0  0  0  0  0  0  0  0  0  0  0
    3.0000    0.0000    0.0000 C   0  0  0  0  0  0  0  0  0  0  0  0
    3.7500   -1.2990    0.0000 O   0  0  0  0  0  0  0  0  0  0  0  0
    1.5000    0.0000    0.0000 C   0  0  0  0  0  0  0  0  0  0  0  0
    0.7500   -1.2990    0.0000 C   0  0  0  0  0  0  0  0  0  0  0  0
   -0.7500   -1.2990    0.0000 C   0  0  0  0  0  0  0  0  0  0  0  0
   -1.5000    0.0000    0.0000 C   0  0  0  0  0  0  0  0  0  0  0  0
   -0.7500    1.2990    0.0000 N   0  0  0  0  0  0  0  0  0  0  0  0
   -1.5000    2.5981    0.0000 C   0  0  0  0  0  0  0  0  0  0  0  0
   -3.0000    2.5981    0.0000 O   0  0  0  0  0  0  0  0  0  0  0  0
   -0.7500    3.8971    0.0000 C   0  0  0  0  0  0  0  0  0  0  0  0
    0.7500    3.8971    0.0000 C   0  0  0  0  0  0  0  0  0  0  0  0
    1.5000    5.1962    0.0000 C   0  0  0  0  0  0  0  0  0  0  0  0
    3.0000    5.1962    0.0000 S   0  0  0  0  0  0  0  0  0  0  0  0
    3.7500    6.4952    0.0000 C   0  0  0  0  0  0  0  0  0  0  0  0
    3.1399    7.8655    0.0000 C   0  0  0  0  0  0  0  0  0  0  0  0
    4.2546    8.8692    0.0000 N   0  0  0  0  0  0  0  0  0  0  0  0
    5.5537    8.1192    0.0000 C   0  0  0  0  0  0  0  0  0  0  0  0
    6.9240    8.7293    0.0000 N   0  0  0  0  0  0  0  0  0  0  0  0
    7.0808   10.2211    0.0000 C   0  0  0  0  0  0  0  0  0  0  0  0
    8.4511   10.8312    0.0000 C   0  0  0  0  0  0  0  0  0  0  0  0
    8.6079   12.3230    0.0000 C   0  0  0  0  0  0  0  0  0  0  0  0
    7.3943   13.2047    0.0000 C   0  0  0  0  0  0  0  0  0  0  0  0
    6.0240   12.5946    0.0000 C   0  0  0  0  0  0  0  0  0  0  0  0
    4.8105   13.4762    0.0000 Br  0  0  0  0  0  0  0  0  0  0  0  0
    5.8672   11.1028    0.0000 N   0  0  0  0  0  0  0  0  0  0  0  0
    5.2418    6.6520    0.0000 S   0  0  0  0  0  0  0  0  0  0  0  0
    0.7500    6.4952    0.0000 C   0  0  0  0  0  0  0  0  0  0  0  0
   -0.7500    6.4952    0.0000 C   0  0  0  0  0  0  0  0  0  0  0  0
   -1.5000    5.1962    0.0000 C   0  0  0  0  0  0  0  0  0  0  0  0
   -3.0000    5.1962    0.0000 O   0  0  0  0  0  0  0  0  0  0  0  0
    0.7500    1.2990    0.0000 C   0  0  0  0  0  0  0  0  0  0  0  0
  1  2  2  0
  2  3  1  0
  2  4  1  0
  4  5  1  0
  5  6  1  0
  6  7  1  0
  7  8  1  0
  8  9  1  0
  9 10  2  0
  9 11  1  0
 11 12  2  0
 12 13  1  0
 13 14  1  0
 14 15  1  0
 15 16  2  0
 16 17  1  0
 17 18  2  0
 18 19  1  0
 19 20  1  0
 20 21  2  0
 21 22  1  0
 22 23  2  0
 23 24  1  0
 24 25  1  0
 24 26  2  0
 18 27  1  0
 13 28  2  0
 28 29  1  0
 29 30  2  0
 30 31  1  0
  8 32  1  0
 32  4  1  0
 30 11  1  0
 27 15  1  0
 26 20  1  0
M  END
>  <Compound_ID>  (208) 
CHEMBL384680

>  <Molecule Name>  (208) 
nan

>  <Molecular Weight>  (208) 
535.45

>  <AlogP>  (208) 
4.84

>  <Smiles>  (208) 
O=C(O)C1CCCN(C(=O)c2cc(Sc3cnc(Nc4cccc(Br)n4)s3)ccc2O)C1

>  <Standard Type>  (208) 
IC50

>  <Standard Relation>  (208) 
'='

>  <Standard Units>  (208) 
nM

>  <Standard Value>  (208) 
34.0

>  <Assay ChEMBL ID>  (208) 
CHEMBL864159

>  <Assay Description>  (208) 
Inhibition of Itk

>  <BAO Format ID>  (208) 
BAO_0000357

>  <BAO Label>  (208) 
single protein format

>  <Assay Organism>  (208) 
Homo sapiens

>  <Target ChEMBL ID>  (208) 
CHEMBL2959

>  <Target Name>  (208) 
Tyrosine-protein kinase ITK/TSK

>  <Target Organism>  (208) 
Homo sapiens

>  <Target Type>  (208) 
SINGLE PROTEIN

>  <Document ChEMBL ID>  (208) 
CHEMBL1138957

>  <Source Description>  (208) 
Scientific Literature

>  <Document Journal>  (208) 
Bioorg Med Chem Lett

>  <Document Year>  (208) 
2006.0

>  <Active>  (208) 
1.0

$$$$

     RDKit          2D

 32 35  0  0  0  0  0  0  0  0999 V2000
    0.7500   -3.8971    0.0000 C   0  0  0  0  0  0  0  0  0  0  0  0
    1.5000   -2.5981    0.0000 N   0  0  0  0  0  0  0  0  0  0  0  0
    3.0000   -2.5981    0.0000 C   0  0  0  0  0  0  0  0  0  0  0  0
    3.7500   -1.2990    0.0000 O   0  0  0  0  0  0  0  0  0  0  0  0
    3.7500   -3.8971    0.0000 C   0  0  0  0  0  0  0  0  0  0  0  0
    3.0000   -5.1962    0.0000 C   0  0  0  0  0  0  0  0  0  0  0  0
    3.7500   -6.4952    0.0000 C   0  0  0  0  0  0  0  0  0  0  0  0
    5.2500   -6.4952    0.0000 C   0  0  0  0  0  0  0  0  0  0  0  0
    6.0000   -5.1962    0.0000 C   0  0  0  0  0  0  0  0  0  0  0  0
    5.2500   -3.8971    0.0000 C   0  0  0  0  0  0  0  0  0  0  0  0
    0.7500   -1.2990    0.0000 C   0  0  0  0  0  0  0  0  0  0  0  0
    1.5000    0.0000    0.0000 C   0  0  0  0  0  0  0  0  0  0  0  0
    0.7500    1.2990    0.0000 C   0  0  0  0  0  0  0  0  0  0  0  0
   -0.7500    1.2990    0.0000 C   0  0  0  0  0  0  0  0  0  0  0  0
   -1.5000    0.0000    0.0000 C   0  0  0  0  0  0  0  0  0  0  0  0
   -0.7500   -1.2990    0.0000 C   0  0  0  0  0  0  0  0  0  0  0  0
   -2.9672    0.3119    0.0000 N   0  0  0  0  0  0  0  0  0  0  0  0
   -3.1240    1.8037    0.0000 C   0  0  0  0  0  0  0  0  0  0  0  0
   -4.4231    2.5537    0.0000 N   0  0  0  0  0  0  0  0  0  0  0  0
   -4.4231    4.0537    0.0000 C   0  0  0  0  0  0  0  0  0  0  0  0
   -3.1240    4.8037    0.0000 O   0  0  0  0  0  0  0  0  0  0  0  0
   -5.7221    4.8037    0.0000 C   0  0  0  0  0  0  0  0  0  0  0  0
   -7.0924    4.1935    0.0000 C   0  0  0  0  0  0  0  0  0  0  0  0
   -8.0961    5.3083    0.0000 C   0  0  0  0  0  0  0  0  0  0  0  0
   -7.3461    6.6073    0.0000 C   0  0  0  0  0  0  0  0  0  0  0  0
   -5.8789    6.2954    0.0000 O   0  0  0  0  0  0  0  0  0  0  0  0
   -1.7537    2.4138    0.0000 N   0  0  0  0  0  0  0  0  0  0  0  0
   -1.4418    3.8810    0.0000 C   0  0  0  0  0  0  0  0  0  0  0  0
   -0.0152    4.3445    0.0000 C   0  0  0  0  0  0  0  0  0  0  0  0
    0.2966    5.8117    0.0000 C   0  0  0  0  0  0  0  0  0  0  0  0
    1.7232    6.2752    0.0000 N   0  0  0  0  0  0  0  0  0  0  0  0
   -0.8181    6.8154    0.0000 O   0  0  0  0  0  0  0  0  0  0  0  0
  1  2  1  0
  2  3  1  0
  3  4  2  0
  3  5  1  0
  5  6  1  0
  6  7  1  0
  7  8  1  0
  8  9  1  0
  9 10  1  0
  2 11  1  0
 11 12  2  0
 12 13  1  0
 13 14  2  0
 14 15  1  0
 15 16  2  0
 15 17  1  0
 17 18  2  0
 18 19  1  0
 19 20  1  0
 20 21  2  0
 20 22  1  0
 22 23  2  0
 23 24  1  0
 24 25  2  0
 25 26  1  0
 18 27  1  0
 27 28  1  0
 28 29  1  0
 29 30  1  0
 30 31  1  0
 30 32  2  0
 10  5  1  0
 16 11  1  0
 26 22  1  0
 27 14  1  0
M  END
>  <Compound_ID>  (209) 
CHEMBL485233

>  <Molecule Name>  (209) 
nan

>  <Molecular Weight>  (209) 
437.5

>  <AlogP>  (209) 
3.30

>  <Smiles>  (209) 
CN(C(=O)C1CCCCC1)c1ccc2c(c1)nc(NC(=O)c1ccco1)n2CCC(N)=O

>  <Standard Type>  (209) 
IC50

>  <Standard Relation>  (209) 
'='

>  <Standard Units>  (209) 
nM

>  <Standard Value>  (209) 
10.0

>  <Assay ChEMBL ID>  (209) 
CHEMBL992563

>  <Assay Description>  (209) 
Inhibition of ITK by DELFIA assay

>  <BAO Format ID>  (209) 
BAO_0000357

>  <BAO Label>  (209) 
single protein format

>  <Assay Organism>  (209) 
None

>  <Target ChEMBL ID>  (209) 
CHEMBL2959

>  <Target Name>  (209) 
Tyrosine-protein kinase ITK/TSK

>  <Target Organism>  (209) 
Homo sapiens

>  <Target Type>  (209) 
SINGLE PROTEIN

>  <Document ChEMBL ID>  (209) 
CHEMBL1142468

>  <Source Description>  (209) 
Scientific Literature

>  <Document Journal>  (209) 
Bioorg Med Chem Lett

>  <Document Year>  (209) 
2008.0

>  <Active>  (209) 
1.0

$$$$

     RDKit          2D

 34 37  0  0  0  0  0  0  0  0999 V2000
    0.7500   -3.8971    0.0000 C   0  0  0  0  0  0  0  0  0  0  0  0
    1.5000   -2.5981    0.0000 N   0  0  0  0  0  0  0  0  0  0  0  0
    3.0000   -2.5981    0.0000 C   0  0  0  0  0  0  0  0  0  0  0  0
    3.7500   -1.2990    0.0000 O   0  0  0  0  0  0  0  0  0  0  0  0
    3.7500   -3.8971    0.0000 C   0  0  0  0  0  0  0  0  0  0  0  0
    3.0000   -5.1962    0.0000 C   0  0  0  0  0  0  0  0  0  0  0  0
    3.7500   -6.4952    0.0000 C   0  0  0  0  0  0  0  0  0  0  0  0
    5.2500   -6.4952    0.0000 C   0  0  0  0  0  0  0  0  0  0  0  0
    6.0000   -5.1962    0.0000 C   0  0  0  0  0  0  0  0  0  0  0  0
    5.2500   -3.8971    0.0000 C   0  0  0  0  0  0  0  0  0  0  0  0
    0.7500   -1.2990    0.0000 C   0  0  0  0  0  0  0  0  0  0  0  0
    1.5000    0.0000    0.0000 C   0  0  0  0  0  0  0  0  0  0  0  0
    0.7500    1.2990    0.0000 C   0  0  0  0  0  0  0  0  0  0  0  0
   -0.7500    1.2990    0.0000 C   0  0  0  0  0  0  0  0  0  0  0  0
   -1.5000    0.0000    0.0000 C   0  0  0  0  0  0  0  0  0  0  0  0
   -0.7500   -1.2990    0.0000 C   0  0  0  0  0  0  0  0  0  0  0  0
   -2.9672    0.3119    0.0000 N   0  0  0  0  0  0  0  0  0  0  0  0
   -3.1240    1.8037    0.0000 C   0  0  0  0  0  0  0  0  0  0  0  0
   -4.4231    2.5537    0.0000 N   0  0  0  0  0  0  0  0  0  0  0  0
   -4.4231    4.0537    0.0000 C   0  0  0  0  0  0  0  0  0  0  0  0
   -3.1240    4.8037    0.0000 O   0  0  0  0  0  0  0  0  0  0  0  0
   -5.7221    4.8037    0.0000 C   0  0  0  0  0  0  0  0  0  0  0  0
   -5.7221    6.3037    0.0000 C   0  0  0  0  0  0  0  0  0  0  0  0
   -7.0211    7.0537    0.0000 C   0  0  0  0  0  0  0  0  0  0  0  0
   -8.3202    6.3037    0.0000 C   0  0  0  0  0  0  0  0  0  0  0  0
   -9.6192    7.0537    0.0000 Cl  0  0  0  0  0  0  0  0  0  0  0  0
   -8.3202    4.8037    0.0000 C   0  0  0  0  0  0  0  0  0  0  0  0
   -7.0211    4.0537    0.0000 C   0  0  0  0  0  0  0  0  0  0  0  0
   -1.7537    2.4138    0.0000 N   0  0  0  0  0  0  0  0  0  0  0  0
   -1.4418    3.8810    0.0000 C   0  0  0  0  0  0  0  0  0  0  0  0
   -0.0152    4.3445    0.0000 C   0  0  0  0  0  0  0  0  0  0  0  0
    0.2966    5.8117    0.0000 C   0  0  0  0  0  0  0  0  0  0  0  0
    1.7232    6.2752    0.0000 N   0  0  0  0  0  0  0  0  0  0  0  0
   -0.8181    6.8154    0.0000 O   0  0  0  0  0  0  0  0  0  0  0  0
  1  2  1  0
  2  3  1  0
  3  4  2  0
  3  5  1  0
  5  6  1  0
  6  7  1  0
  7  8  1  0
  8  9  1  0
  9 10  1  0
  2 11  1  0
 11 12  2  0
 12 13  1  0
 13 14  2  0
 14 15  1  0
 15 16  2  0
 15 17  1  0
 17 18  2  0
 18 19  1  0
 19 20  1  0
 20 21  2  0
 20 22  1  0
 22 23  2  0
 23 24  1  0
 24 25  2  0
 25 26  1  0
 25 27  1  0
 27 28  2  0
 18 29  1  0
 29 30  1  0
 30 31  1  0
 31 32  1  0
 32 33  1  0
 32 34  2  0
 10  5  1  0
 16 11  1  0
 28 22  1  0
 29 14  1  0
M  END
>  <Compound_ID>  (210) 
CHEMBL483403

>  <Molecule Name>  (210) 
nan

>  <Molecular Weight>  (210) 
481.98

>  <AlogP>  (210) 
4.36

>  <Smiles>  (210) 
CN(C(=O)C1CCCCC1)c1ccc2c(c1)nc(NC(=O)c1ccc(Cl)cc1)n2CCC(N)=O

>  <Standard Type>  (210) 
IC50

>  <Standard Relation>  (210) 
'='

>  <Standard Units>  (210) 
nM

>  <Standard Value>  (210) 
4.0

>  <Assay ChEMBL ID>  (210) 
CHEMBL992563

>  <Assay Description>  (210) 
Inhibition of ITK by DELFIA assay

>  <BAO Format ID>  (210) 
BAO_0000357

>  <BAO Label>  (210) 
single protein format

>  <Assay Organism>  (210) 
None

>  <Target ChEMBL ID>  (210) 
CHEMBL2959

>  <Target Name>  (210) 
Tyrosine-protein kinase ITK/TSK

>  <Target Organism>  (210) 
Homo sapiens

>  <Target Type>  (210) 
SINGLE PROTEIN

>  <Document ChEMBL ID>  (210) 
CHEMBL1142468

>  <Source Description>  (210) 
Scientific Literature

>  <Document Journal>  (210) 
Bioorg Med Chem Lett

>  <Document Year>  (210) 
2008.0

>  <Active>  (210) 
1.0

$$$$

     RDKit          2D

 23 25  0  0  0  0  0  0  0  0999 V2000
   11.2500   -6.4952    0.0000 C   0  0  0  0  0  0  0  0  0  0  0  0
   10.5000   -5.1962    0.0000 C   0  0  0  0  0  0  0  0  0  0  0  0
    9.0000   -5.1962    0.0000 C   0  0  0  0  0  0  0  0  0  0  0  0
    7.5000   -5.1962    0.0000 C   0  0  0  0  0  0  0  0  0  0  0  0
    6.0000   -5.1962    0.0000 C   0  0  0  0  0  0  0  0  0  0  0  0
    5.2500   -6.4952    0.0000 O   0  0  0  0  0  0  0  0  0  0  0  0
    5.2500   -3.8971    0.0000 N   0  0  0  0  0  0  0  0  0  0  0  0
    3.7500   -3.8971    0.0000 C   0  0  0  0  0  0  0  0  0  0  0  0
    3.0000   -5.1962    0.0000 C   0  0  0  0  0  0  0  0  0  0  0  0
    1.5000   -5.1962    0.0000 C   0  0  0  0  0  0  0  0  0  0  0  0
    0.7500   -3.8971    0.0000 C   0  0  0  0  0  0  0  0  0  0  0  0
    1.5000   -2.5981    0.0000 C   0  0  0  0  0  0  0  0  0  0  0  0
    0.7500   -1.2990    0.0000 C   0  0  0  0  0  0  0  0  0  0  0  0
    1.5000    0.0000    0.0000 C   0  0  0  0  0  0  0  0  0  0  0  0
    0.7500    1.2990    0.0000 N   0  0  0  0  0  0  0  0  0  0  0  0
   -0.7500    1.2990    0.0000 C   0  0  0  0  0  0  0  0  0  0  0  0
   -1.7537    2.4138    0.0000 N   0  0  0  0  0  0  0  0  0  0  0  0
   -3.1240    1.8037    0.0000 C   0  0  0  0  0  0  0  0  0  0  0  0
   -2.9672    0.3119    0.0000 C   0  0  0  0  0  0  0  0  0  0  0  0
   -4.0819   -0.6918    0.0000 Cl  0  0  0  0  0  0  0  0  0  0  0  0
   -1.5000    0.0000    0.0000 C   0  0  0  0  0  0  0  0  0  0  0  0
   -0.7500   -1.2990    0.0000 C   0  0  0  0  0  0  0  0  0  0  0  0
    3.0000   -2.5981    0.0000 N   0  0  0  0  0  0  0  0  0  0  0  0
  1  2  1  0
  2  3  1  0
  3  4  3  0
  4  5  1  0
  5  6  2  0
  5  7  1  0
  7  8  1  0
  8  9  2  0
  9 10  1  0
 10 11  2  0
 11 12  1  0
 12 13  1  0
 13 14  2  0
 14 15  1  0
 15 16  2  0
 16 17  1  0
 17 18  1  0
 18 19  2  0
 19 20  1  0
 19 21  1  0
 21 22  2  0
 12 23  2  0
 23  8  1  0
 22 13  1  0
 21 16  1  0
M  END
>  <Compound_ID>  (211) 
CHEMBL3966831

>  <Molecule Name>  (211) 
nan

>  <Molecular Weight>  (211) 
324.77

>  <AlogP>  (211) 
3.63

>  <Smiles>  (211) 
CCC#CC(=O)Nc1cccc(-c2cnc3[nH]cc(Cl)c3c2)n1

>  <Standard Type>  (211) 
IC50

>  <Standard Relation>  (211) 
'='

>  <Standard Units>  (211) 
nM

>  <Standard Value>  (211) 
35.0

>  <Assay ChEMBL ID>  (211) 
CHEMBL3887687

>  <Assay Description>  (211) 
Biochemical Inhibition Assay: 1H-pyrrolo[2,3-b]pyridine, 1H-pyrazolo[3,4-b]pyridine and 5H-pyrrolo[2,3-b]pyrazine series of compounds exhibited over >100 fold selective against Janus and TEC family of kinases except for the BMX and TXK it had activity of 30 and 45 nM respectively.

>  <BAO Format ID>  (211) 
BAO_0000357

>  <BAO Label>  (211) 
single protein format

>  <Assay Organism>  (211) 
Homo sapiens

>  <Target ChEMBL ID>  (211) 
CHEMBL2959

>  <Target Name>  (211) 
Tyrosine-protein kinase ITK/TSK

>  <Target Organism>  (211) 
Homo sapiens

>  <Target Type>  (211) 
SINGLE PROTEIN

>  <Document ChEMBL ID>  (211) 
CHEMBL3886406

>  <Source Description>  (211) 
BindingDB Database

>  <Document Journal>  (211) 
nan

>  <Document Year>  (211) 
2015.0

>  <Active>  (211) 
1.0

$$$$

     RDKit          2D

 33 37  0  0  0  0  0  0  0  0999 V2000
    4.5000    0.0000    0.0000 N   0  0  0  0  0  0  0  0  0  0  0  0
    3.0000    0.0000    0.0000 C   0  0  0  0  0  0  0  0  0  0  0  0
    1.5000    0.0000    0.0000 C   0  0  0  0  0  0  0  0  0  0  0  0
    0.7500   -1.2990    0.0000 C   0  0  0  0  0  0  0  0  0  0  0  0
   -0.7500   -1.2990    0.0000 C   0  0  0  0  0  0  0  0  0  0  0  0
   -1.5000    0.0000    0.0000 C   0  0  0  0  0  0  0  0  0  0  0  0
   -2.9672    0.3119    0.0000 N   0  0  0  0  0  0  0  0  0  0  0  0
   -3.1240    1.8037    0.0000 C   0  0  0  0  0  0  0  0  0  0  0  0
   -4.4231    2.5537    0.0000 N   0  0  0  0  0  0  0  0  0  0  0  0
   -4.4231    4.0537    0.0000 C   0  0  0  0  0  0  0  0  0  0  0  0
   -3.1240    4.8037    0.0000 C   0  0  0  0  0  0  0  0  0  0  0  0
   -3.1240    6.3037    0.0000 C   0  0  0  0  0  0  0  0  0  0  0  0
   -1.8250    7.0537    0.0000 C   0  0  0  0  0  0  0  0  0  0  0  0
   -0.5259    6.3037    0.0000 C   0  0  0  0  0  0  0  0  0  0  0  0
   -0.5259    4.8037    0.0000 C   0  0  0  0  0  0  0  0  0  0  0  0
    0.7731    4.0537    0.0000 C   0  0  0  0  0  0  0  0  0  0  0  0
    2.0721    4.8037    0.0000 C   0  0  0  0  0  0  0  0  0  0  0  0
    2.0721    6.3037    0.0000 C   0  0  0  0  0  0  0  0  0  0  0  0
    0.7731    7.0537    0.0000 C   0  0  0  0  0  0  0  0  0  0  0  0
   -4.4231    7.0537    0.0000 N   0  0  0  0  0  0  0  0  0  0  0  0
   -5.7221    6.3037    0.0000 C   0  0  0  0  0  0  0  0  0  0  0  0
   -7.0211    7.0537    0.0000 N   0  0  0  0  0  0  0  0  0  0  0  0
   -7.0211    8.5537    0.0000 C   0  0  0  0  0  0  0  0  0  0  0  0
   -5.7221    9.3037    0.0000 C   0  0  0  0  0  0  0  0  0  0  0  0
   -5.7221   10.8037    0.0000 C   0  0  0  0  0  0  0  0  0  0  0  0
   -7.0211   11.5537    0.0000 C   0  0  0  0  0  0  0  0  0  0  0  0
   -7.0211   13.0537    0.0000 O   0  0  0  0  0  0  0  0  0  0  0  0
   -8.3202   10.8037    0.0000 C   0  0  0  0  0  0  0  0  0  0  0  0
   -8.3202    9.3037    0.0000 C   0  0  0  0  0  0  0  0  0  0  0  0
   -5.7221    4.8037    0.0000 N   0  0  0  0  0  0  0  0  0  0  0  0
   -1.7537    2.4138    0.0000 S   0  0  0  0  0  0  0  0  0  0  0  0
   -0.7500    1.2990    0.0000 C   0  0  0  0  0  0  0  0  0  0  0  0
    0.7500    1.2990    0.0000 C   0  0  0  0  0  0  0  0  0  0  0  0
  1  2  3  0
  2  3  1  0
  3  4  2  0
  4  5  1  0
  5  6  2  0
  6  7  1  0
  7  8  2  0
  8  9  1  0
  9 10  1  0
 10 11  2  0
 11 12  1  0
 12 13  1  0
 13 14  1  0
 14 15  2  0
 15 16  1  0
 16 17  2  0
 17 18  1  0
 18 19  2  0
 12 20  2  0
 20 21  1  0
 21 22  1  0
 23 22  1  6
 23 24  1  0
 24 25  1  0
 25 26  1  0
 26 27  1  1
 26 28  1  0
 28 29  1  0
 21 30  2  0
  8 31  1  0
 31 32  1  0
 32 33  2  0
 33  3  1  0
 32  6  1  0
 30 10  1  0
 19 14  1  0
 29 23  1  0
M  END
>  <Compound_ID>  (212) 
CHEMBL2441274

>  <Molecule Name>  (212) 
nan

>  <Molecular Weight>  (212) 
456.58

>  <AlogP>  (212) 
5.01

>  <Smiles>  (212) 
N#Cc1ccc2nc(Nc3cc(Cc4ccccc4)nc(N[C@H]4CC[C@H](O)CC4)n3)sc2c1

>  <Standard Type>  (212) 
Ki

>  <Standard Relation>  (212) 
'='

>  <Standard Units>  (212) 
nM

>  <Standard Value>  (212) 
0.2512

>  <Assay ChEMBL ID>  (212) 
CHEMBL2446687

>  <Assay Description>  (212) 
Inhibition of recombinant human FLAG-tagged ITK using biotinylated GST-SAM68 as substrate after 30 mins

>  <BAO Format ID>  (212) 
BAO_0000357

>  <BAO Label>  (212) 
single protein format

>  <Assay Organism>  (212) 
Homo sapiens

>  <Target ChEMBL ID>  (212) 
CHEMBL2959

>  <Target Name>  (212) 
Tyrosine-protein kinase ITK/TSK

>  <Target Organism>  (212) 
Homo sapiens

>  <Target Type>  (212) 
SINGLE PROTEIN

>  <Document ChEMBL ID>  (212) 
CHEMBL2440060

>  <Source Description>  (212) 
Scientific Literature

>  <Document Journal>  (212) 
ACS Med Chem Lett

>  <Document Year>  (212) 
2013.0

>  <Active>  (212) 
1.0

$$$$

     RDKit          2D

 21 23  0  0  0  0  0  0  0  0999 V2000
    8.2500   -6.4952    0.0000 C   0  0  0  0  0  0  0  0  0  0  0  0
    7.5000   -5.1962    0.0000 C   0  0  0  0  0  0  0  0  0  0  0  0
    6.0000   -5.1962    0.0000 C   0  0  0  0  0  0  0  0  0  0  0  0
    5.2500   -6.4952    0.0000 O   0  0  0  0  0  0  0  0  0  0  0  0
    5.2500   -3.8971    0.0000 N   0  0  0  0  0  0  0  0  0  0  0  0
    3.7500   -3.8971    0.0000 C   0  0  0  0  0  0  0  0  0  0  0  0
    3.0000   -5.1962    0.0000 C   0  0  0  0  0  0  0  0  0  0  0  0
    1.5000   -5.1962    0.0000 C   0  0  0  0  0  0  0  0  0  0  0  0
    0.7500   -3.8971    0.0000 C   0  0  0  0  0  0  0  0  0  0  0  0
    1.5000   -2.5981    0.0000 C   0  0  0  0  0  0  0  0  0  0  0  0
    0.7500   -1.2990    0.0000 C   0  0  0  0  0  0  0  0  0  0  0  0
    1.5000    0.0000    0.0000 C   0  0  0  0  0  0  0  0  0  0  0  0
    0.7500    1.2990    0.0000 N   0  0  0  0  0  0  0  0  0  0  0  0
   -0.7500    1.2990    0.0000 C   0  0  0  0  0  0  0  0  0  0  0  0
   -1.7537    2.4138    0.0000 N   0  0  0  0  0  0  0  0  0  0  0  0
   -3.1240    1.8037    0.0000 C   0  0  0  0  0  0  0  0  0  0  0  0
   -2.9672    0.3119    0.0000 C   0  0  0  0  0  0  0  0  0  0  0  0
   -4.0819   -0.6918    0.0000 Cl  0  0  0  0  0  0  0  0  0  0  0  0
   -1.5000    0.0000    0.0000 C   0  0  0  0  0  0  0  0  0  0  0  0
   -0.7500   -1.2990    0.0000 C   0  0  0  0  0  0  0  0  0  0  0  0
    3.0000   -2.5981    0.0000 N   0  0  0  0  0  0  0  0  0  0  0  0
  1  2  2  0
  2  3  1  0
  3  4  2  0
  3  5  1  0
  5  6  1  0
  6  7  2  0
  7  8  1  0
  8  9  2  0
  9 10  1  0
 10 11  1  0
 11 12  2  0
 12 13  1  0
 13 14  2  0
 14 15  1  0
 15 16  1  0
 16 17  2  0
 17 18  1  0
 17 19  1  0
 19 20  2  0
 10 21  2  0
 21  6  1  0
 20 11  1  0
 19 14  1  0
M  END
>  <Compound_ID>  (213) 
CHEMBL3964955

>  <Molecule Name>  (213) 
nan

>  <Molecular Weight>  (213) 
298.73

>  <AlogP>  (213) 
3.40

>  <Smiles>  (213) 
C=CC(=O)Nc1cccc(-c2cnc3[nH]cc(Cl)c3c2)n1

>  <Standard Type>  (213) 
IC50

>  <Standard Relation>  (213) 
'='

>  <Standard Units>  (213) 
nM

>  <Standard Value>  (213) 
35.0

>  <Assay ChEMBL ID>  (213) 
CHEMBL3887687

>  <Assay Description>  (213) 
Biochemical Inhibition Assay: 1H-pyrrolo[2,3-b]pyridine, 1H-pyrazolo[3,4-b]pyridine and 5H-pyrrolo[2,3-b]pyrazine series of compounds exhibited over >100 fold selective against Janus and TEC family of kinases except for the BMX and TXK it had activity of 30 and 45 nM respectively.

>  <BAO Format ID>  (213) 
BAO_0000357

>  <BAO Label>  (213) 
single protein format

>  <Assay Organism>  (213) 
Homo sapiens

>  <Target ChEMBL ID>  (213) 
CHEMBL2959

>  <Target Name>  (213) 
Tyrosine-protein kinase ITK/TSK

>  <Target Organism>  (213) 
Homo sapiens

>  <Target Type>  (213) 
SINGLE PROTEIN

>  <Document ChEMBL ID>  (213) 
CHEMBL3886406

>  <Source Description>  (213) 
BindingDB Database

>  <Document Journal>  (213) 
nan

>  <Document Year>  (213) 
2015.0

>  <Active>  (213) 
1.0

$$$$

     RDKit          2D

 27 30  0  0  0  0  0  0  0  0999 V2000
    9.7500   -3.8971    0.0000 C   0  0  0  0  0  0  0  0  0  0  0  0
    8.2500   -3.8971    0.0000 C   0  0  0  0  0  0  0  0  0  0  0  0
    7.5000   -2.5981    0.0000 C   0  0  0  0  0  0  0  0  0  0  0  0
    8.2500   -1.2990    0.0000 O   0  0  0  0  0  0  0  0  0  0  0  0
    6.0000   -2.5981    0.0000 N   0  0  0  0  0  0  0  0  0  0  0  0
    5.2500   -1.2990    0.0000 C   0  0  0  0  0  0  0  0  0  0  0  0
    3.7500   -1.2990    0.0000 C   0  0  0  0  0  0  0  0  0  0  0  0
    3.0000    0.0000    0.0000 O   0  0  0  0  0  0  0  0  0  0  0  0
    1.5000    0.0000    0.0000 C   0  0  0  0  0  0  0  0  0  0  0  0
    0.7500   -1.2990    0.0000 C   0  0  0  0  0  0  0  0  0  0  0  0
   -0.7500   -1.2990    0.0000 C   0  0  0  0  0  0  0  0  0  0  0  0
   -1.5000    0.0000    0.0000 C   0  0  0  0  0  0  0  0  0  0  0  0
   -0.7500    1.2990    0.0000 C   0  0  0  0  0  0  0  0  0  0  0  0
   -1.2135    2.7256    0.0000 N   0  0  0  0  0  0  0  0  0  0  0  0
   -0.0000    3.6073    0.0000 C   0  0  0  0  0  0  0  0  0  0  0  0
   -0.0000    5.1073    0.0000 C   0  0  0  0  0  0  0  0  0  0  0  0
    1.2135    5.9890    0.0000 N   0  0  0  0  0  0  0  0  0  0  0  0
    0.7500    7.4156    0.0000 N   0  0  0  0  0  0  0  0  0  0  0  0
   -0.7500    7.4156    0.0000 C   0  0  0  0  0  0  0  0  0  0  0  0
   -1.7537    8.5303    0.0000 C   0  0  0  0  0  0  0  0  0  0  0  0
   -3.2209    8.2184    0.0000 C   0  0  0  0  0  0  0  0  0  0  0  0
   -4.2246    9.3331    0.0000 Br  0  0  0  0  0  0  0  0  0  0  0  0
   -3.6844    6.7918    0.0000 C   0  0  0  0  0  0  0  0  0  0  0  0
   -2.6807    5.6771    0.0000 C   0  0  0  0  0  0  0  0  0  0  0  0
   -1.2135    5.9890    0.0000 C   0  0  0  0  0  0  0  0  0  0  0  0
    1.2135    2.7256    0.0000 C   0  0  0  0  0  0  0  0  0  0  0  0
    0.7500    1.2990    0.0000 C   0  0  0  0  0  0  0  0  0  0  0  0
  1  2  2  0
  2  3  1  0
  3  4  2  0
  3  5  1  0
  5  6  1  0
  6  7  1  0
  7  8  1  0
  8  9  1  0
  9 10  2  0
 10 11  1  0
 11 12  2  0
 12 13  1  0
 13 14  1  0
 14 15  1  0
 15 16  1  0
 16 17  2  0
 17 18  1  0
 18 19  1  0
 19 20  2  0
 20 21  1  0
 21 22  1  0
 21 23  2  0
 23 24  1  0
 24 25  2  0
 15 26  2  0
 26 27  1  0
 27  9  1  0
 27 13  2  0
 25 16  1  0
 25 19  1  0
M  END
>  <Compound_ID>  (214) 
CHEMBL4637293

>  <Molecule Name>  (214) 
nan

>  <Molecular Weight>  (214) 
425.29

>  <AlogP>  (214) 
4.15

>  <Smiles>  (214) 
C=CC(=O)NCCOc1cccc2[nH]c(-c3n[nH]c4cc(Br)ccc34)cc12

>  <Standard Type>  (214) 
IC50

>  <Standard Relation>  (214) 
'='

>  <Standard Units>  (214) 
nM

>  <Standard Value>  (214) 
40.0

>  <Assay ChEMBL ID>  (214) 
CHEMBL4603778

>  <Assay Description>  (214) 
Inhibition of ITK (unknown origin) using TK as substrate incubated for 30 mins by HTRF assay

>  <BAO Format ID>  (214) 
BAO_0000357

>  <BAO Label>  (214) 
single protein format

>  <Assay Organism>  (214) 
Homo sapiens

>  <Target ChEMBL ID>  (214) 
CHEMBL2959

>  <Target Name>  (214) 
Tyrosine-protein kinase ITK/TSK

>  <Target Organism>  (214) 
Homo sapiens

>  <Target Type>  (214) 
SINGLE PROTEIN

>  <Document ChEMBL ID>  (214) 
CHEMBL4602634

>  <Source Description>  (214) 
Scientific Literature

>  <Document Journal>  (214) 
Eur J Med Chem

>  <Document Year>  (214) 
2020.0

>  <Active>  (214) 
1.0

$$$$

     RDKit          2D

 38 42  0  0  0  0  0  0  0  0999 V2000
  -11.1975    2.9107    0.0000 C   0  0  0  0  0  0  0  0  0  0  0  0
   -9.7709    3.3742    0.0000 C   0  0  0  0  0  0  0  0  0  0  0  0
   -8.6562    2.3705    0.0000 C   0  0  0  0  0  0  0  0  0  0  0  0
   -8.9681    0.9033    0.0000 O   0  0  0  0  0  0  0  0  0  0  0  0
   -7.2296    2.8340    0.0000 N   0  0  0  0  0  0  0  0  0  0  0  0
   -6.1149    1.8303    0.0000 C   0  0  0  0  0  0  0  0  0  0  0  0
   -4.6883    2.2939    0.0000 C   0  0  0  0  0  0  0  0  0  0  0  0
   -3.5736    1.2902    0.0000 O   0  0  0  0  0  0  0  0  0  0  0  0
   -2.1470    1.7537    0.0000 C   0  0  0  0  0  0  0  0  0  0  0  0
   -1.8351    3.2209    0.0000 C   0  0  0  0  0  0  0  0  0  0  0  0
   -0.4086    3.6844    0.0000 C   0  0  0  0  0  0  0  0  0  0  0  0
   -0.0967    5.1517    0.0000 C   0  0  0  0  0  0  0  0  0  0  0  0
    1.3299    5.6152    0.0000 C   0  0  0  0  0  0  0  0  0  0  0  0
    2.4446    4.6115    0.0000 C   0  0  0  0  0  0  0  0  0  0  0  0
    3.8712    5.0750    0.0000 C   0  0  0  0  0  0  0  0  0  0  0  0
    4.1831    6.5422    0.0000 C   0  0  0  0  0  0  0  0  0  0  0  0
    5.6097    7.0058    0.0000 O   0  0  0  0  0  0  0  0  0  0  0  0
    6.7244    6.0021    0.0000 C   0  0  0  0  0  0  0  0  0  0  0  0
    3.0684    7.5459    0.0000 C   0  0  0  0  0  0  0  0  0  0  0  0
    1.6418    7.0824    0.0000 C   0  0  0  0  0  0  0  0  0  0  0  0
    0.7062    2.6807    0.0000 C   0  0  0  0  0  0  0  0  0  0  0  0
    0.3943    1.2135    0.0000 C   0  0  0  0  0  0  0  0  0  0  0  0
    1.2760    0.0000    0.0000 N   0  0  0  0  0  0  0  0  0  0  0  0
    0.3943   -1.2135    0.0000 C   0  0  0  0  0  0  0  0  0  0  0  0
    0.8578   -2.6401    0.0000 C   0  0  0  0  0  0  0  0  0  0  0  0
    2.2844   -3.1036    0.0000 N   0  0  0  0  0  0  0  0  0  0  0  0
    2.2844   -4.6036    0.0000 N   0  0  0  0  0  0  0  0  0  0  0  0
    0.8578   -5.0672    0.0000 C   0  0  0  0  0  0  0  0  0  0  0  0
    0.2477   -6.4375    0.0000 C   0  0  0  0  0  0  0  0  0  0  0  0
   -1.2441   -6.5943    0.0000 C   0  0  0  0  0  0  0  0  0  0  0  0
   -1.8542   -7.9646    0.0000 C   0  0  0  0  0  0  0  0  0  0  0  0
   -3.3460   -8.1214    0.0000 F   0  0  0  0  0  0  0  0  0  0  0  0
   -0.9725   -9.1781    0.0000 F   0  0  0  0  0  0  0  0  0  0  0  0
   -2.1257   -5.3807    0.0000 C   0  0  0  0  0  0  0  0  0  0  0  0
   -1.5156   -4.0104    0.0000 C   0  0  0  0  0  0  0  0  0  0  0  0
   -0.0239   -3.8536    0.0000 C   0  0  0  0  0  0  0  0  0  0  0  0
   -1.0323   -0.7500    0.0000 C   0  0  0  0  0  0  0  0  0  0  0  0
   -1.0323    0.7500    0.0000 C   0  0  0  0  0  0  0  0  0  0  0  0
  1  2  2  0
  2  3  1  0
  3  4  2  0
  3  5  1  0
  5  6  1  0
  6  7  1  0
  7  8  1  0
  8  9  1  0
  9 10  2  0
 10 11  1  0
 11 12  1  0
 12 13  1  0
 13 14  2  0
 14 15  1  0
 15 16  2  0
 16 17  1  0
 17 18  1  0
 16 19  1  0
 19 20  2  0
 11 21  2  0
 21 22  1  0
 22 23  1  0
 23 24  1  0
 24 25  1  0
 25 26  2  0
 26 27  1  0
 27 28  1  0
 28 29  2  0
 29 30  1  0
 30 31  1  0
 31 32  1  0
 31 33  1  0
 30 34  2  0
 34 35  1  0
 35 36  2  0
 24 37  2  0
 37 38  1  0
 38  9  1  0
 20 13  1  0
 38 22  2  0
 36 25  1  0
 36 28  1  0
M  END
>  <Compound_ID>  (215) 
CHEMBL4645126

>  <Molecule Name>  (215) 
nan

>  <Molecular Weight>  (215) 
516.55

>  <AlogP>  (215) 
5.93

>  <Smiles>  (215) 
C=CC(=O)NCCOc1cc(Cc2ccc(OC)cc2)cc2[nH]c(-c3n[nH]c4cc(C(F)F)ccc34)cc12

>  <Standard Type>  (215) 
IC50

>  <Standard Relation>  (215) 
'='

>  <Standard Units>  (215) 
nM

>  <Standard Value>  (215) 
5.0

>  <Assay ChEMBL ID>  (215) 
CHEMBL4603778

>  <Assay Description>  (215) 
Inhibition of ITK (unknown origin) using TK as substrate incubated for 30 mins by HTRF assay

>  <BAO Format ID>  (215) 
BAO_0000357

>  <BAO Label>  (215) 
single protein format

>  <Assay Organism>  (215) 
Homo sapiens

>  <Target ChEMBL ID>  (215) 
CHEMBL2959

>  <Target Name>  (215) 
Tyrosine-protein kinase ITK/TSK

>  <Target Organism>  (215) 
Homo sapiens

>  <Target Type>  (215) 
SINGLE PROTEIN

>  <Document ChEMBL ID>  (215) 
CHEMBL4602634

>  <Source Description>  (215) 
Scientific Literature

>  <Document Journal>  (215) 
Eur J Med Chem

>  <Document Year>  (215) 
2020.0

>  <Active>  (215) 
1.0

$$$$

     RDKit          2D

 25 28  0  0  0  0  0  0  0  0999 V2000
   -3.7548   -2.1855    0.0000 O   0  0  0  0  0  0  0  0  0  0  0  0
   -2.6401   -3.1891    0.0000 C   0  0  0  0  0  0  0  0  0  0  0  0
   -2.9520   -4.6564    0.0000 N   0  0  0  0  0  0  0  0  0  0  0  0
   -4.3786   -5.1199    0.0000 C   0  0  0  0  0  0  0  0  0  0  0  0
   -4.8421   -6.5465    0.0000 C   0  0  0  0  0  0  0  0  0  0  0  0
   -6.3421   -6.5465    0.0000 N   0  0  0  0  0  0  0  0  0  0  0  0
   -6.8056   -5.1199    0.0000 N   0  0  0  0  0  0  0  0  0  0  0  0
   -8.2322   -4.6564    0.0000 C   0  0  0  0  0  0  0  0  0  0  0  0
   -8.5441   -3.1891    0.0000 C   0  0  0  0  0  0  0  0  0  0  0  0
   -7.4293   -2.1855    0.0000 C   0  0  0  0  0  0  0  0  0  0  0  0
   -7.7412   -0.7182    0.0000 C   0  0  0  0  0  0  0  0  0  0  0  0
   -9.1678   -0.2547    0.0000 C   0  0  0  0  0  0  0  0  0  0  0  0
  -10.2825   -1.2584    0.0000 C   0  0  0  0  0  0  0  0  0  0  0  0
  -11.7091   -0.7949    0.0000 Cl  0  0  0  0  0  0  0  0  0  0  0  0
   -9.9707   -2.7256    0.0000 C   0  0  0  0  0  0  0  0  0  0  0  0
   -5.5921   -4.2382    0.0000 C   0  0  0  0  0  0  0  0  0  0  0  0
   -1.2135   -2.7256    0.0000 C   0  0  0  0  0  0  0  0  0  0  0  0
   -0.0000   -3.6073    0.0000 N   0  0  0  0  0  0  0  0  0  0  0  0
    1.2135   -2.7256    0.0000 N   0  0  0  0  0  0  0  0  0  0  0  0
    0.7500   -1.2990    0.0000 C   0  0  0  0  0  0  0  0  0  0  0  0
    1.5000    0.0000    0.0000 C   0  0  0  0  0  0  0  0  0  0  0  0
    0.7500    1.2990    0.0000 C   0  0  0  0  0  0  0  0  0  0  0  0
   -0.7500    1.2990    0.0000 C   0  0  0  0  0  0  0  0  0  0  0  0
   -1.5000    0.0000    0.0000 C   0  0  0  0  0  0  0  0  0  0  0  0
   -0.7500   -1.2990    0.0000 C   0  0  0  0  0  0  0  0  0  0  0  0
  1  2  2  0
  2  3  1  0
  3  4  1  0
  4  5  1  0
  5  6  2  0
  6  7  1  0
  7  8  1  0
  8  9  1  0
  9 10  2  0
 10 11  1  0
 11 12  2  0
 12 13  1  0
 13 14  1  0
 13 15  2  0
  7 16  1  0
  2 17  1  0
 17 18  2  0
 18 19  1  0
 19 20  1  0
 20 21  2  0
 21 22  1  0
 22 23  2  0
 23 24  1  0
 24 25  2  0
 16  4  2  0
 25 17  1  0
 15  9  1  0
 25 20  1  0
M  END
>  <Compound_ID>  (216) 
CHEMBL3263047

>  <Molecule Name>  (216) 
nan

>  <Molecular Weight>  (216) 
351.8

>  <AlogP>  (216) 
3.71

>  <Smiles>  (216) 
O=C(Nc1cnn(Cc2cccc(Cl)c2)c1)c1n[nH]c2ccccc12

>  <Standard Type>  (216) 
Ki

>  <Standard Relation>  (216) 
'='

>  <Standard Units>  (216) 
nM

>  <Standard Value>  (216) 
35.0

>  <Assay ChEMBL ID>  (216) 
CHEMBL3267591

>  <Assay Description>  (216) 
Inhibition of full-length ITK (unknown origin) using biotin-EQEDEPEGIYGVLF-NH2 as substrate by plate reader analysis

>  <BAO Format ID>  (216) 
BAO_0000357

>  <BAO Label>  (216) 
single protein format

>  <Assay Organism>  (216) 
Homo sapiens

>  <Target ChEMBL ID>  (216) 
CHEMBL2959

>  <Target Name>  (216) 
Tyrosine-protein kinase ITK/TSK

>  <Target Organism>  (216) 
Homo sapiens

>  <Target Type>  (216) 
SINGLE PROTEIN

>  <Document ChEMBL ID>  (216) 
CHEMBL3259776

>  <Source Description>  (216) 
Scientific Literature

>  <Document Journal>  (216) 
Bioorg Med Chem Lett

>  <Document Year>  (216) 
2014.0

>  <Active>  (216) 
1.0

$$$$

     RDKit          2D

 35 39  0  0  0  0  0  0  0  0999 V2000
    0.2010   -3.3481    0.0000 O   0  0  0  0  0  0  0  0  0  0  0  0
    1.5000   -2.5981    0.0000 S   0  0  0  0  0  0  0  0  0  0  0  0
    2.7990   -1.8481    0.0000 O   0  0  0  0  0  0  0  0  0  0  0  0
    0.7500   -1.2990    0.0000 C   0  0  0  0  0  0  0  0  0  0  0  0
    1.5000    0.0000    0.0000 C   0  0  0  0  0  0  0  0  0  0  0  0
    0.7500    1.2990    0.0000 C   0  0  0  0  0  0  0  0  0  0  0  0
   -0.7500    1.2990    0.0000 C   0  0  0  0  0  0  0  0  0  0  0  0
   -1.5000    0.0000    0.0000 C   0  0  0  0  0  0  0  0  0  0  0  0
   -0.7500   -1.2990    0.0000 C   0  0  0  0  0  0  0  0  0  0  0  0
    2.2500   -3.8971    0.0000 C   0  0  0  0  0  0  0  0  0  0  0  0
    1.5000   -5.1962    0.0000 C   0  0  0  0  0  0  0  0  0  0  0  0
    2.2500   -6.4952    0.0000 C   0  0  0  0  0  0  0  0  0  0  0  0
    1.5000   -7.7942    0.0000 N   0  0  0  0  0  0  0  0  0  0  0  0
    0.0000   -7.7942    0.0000 C   0  0  0  0  0  0  0  0  0  0  0  0
   -0.8817   -9.0078    0.0000 C   0  0  0  0  0  0  0  0  0  0  0  0
   -2.3083   -8.5442    0.0000 C   0  0  0  0  0  0  0  0  0  0  0  0
   -3.5218   -9.4259    0.0000 C   0  0  0  0  0  0  0  0  0  0  0  0
   -4.8921   -8.8158    0.0000 C   0  0  0  0  0  0  0  0  0  0  0  0
   -6.1056   -9.6975    0.0000 C   0  0  0  0  0  0  0  0  0  0  0  0
   -5.9488  -11.1893    0.0000 C   0  0  0  0  0  0  0  0  0  0  0  0
   -4.5785  -11.7994    0.0000 C   0  0  0  0  0  0  0  0  0  0  0  0
   -3.3650  -10.9177    0.0000 C   0  0  0  0  0  0  0  0  0  0  0  0
   -2.3083   -7.0442    0.0000 N   0  0  0  0  0  0  0  0  0  0  0  0
   -0.8817   -6.5807    0.0000 N   0  0  0  0  0  0  0  0  0  0  0  0
    3.7500   -6.4952    0.0000 N   0  0  0  0  0  0  0  0  0  0  0  0
    4.5000   -5.1962    0.0000 C   0  0  0  0  0  0  0  0  0  0  0  0
    6.0000   -5.1962    0.0000 N   0  0  0  0  0  0  0  0  0  0  0  0
    6.7500   -6.4952    0.0000 C   0  0  0  0  0  0  0  0  0  0  0  0
    6.0000   -7.7942    0.0000 C   0  0  0  0  0  0  0  0  0  0  0  0
    6.7500   -9.0933    0.0000 C   0  0  0  0  0  0  0  0  0  0  0  0
    8.2500   -9.0933    0.0000 C   0  0  0  0  0  0  0  0  0  0  0  0
    9.0000  -10.3923    0.0000 O   0  0  0  0  0  0  0  0  0  0  0  0
    9.0000   -7.7942    0.0000 C   0  0  0  0  0  0  0  0  0  0  0  0
    8.2500   -6.4952    0.0000 C   0  0  0  0  0  0  0  0  0  0  0  0
    3.7500   -3.8971    0.0000 C   0  0  0  0  0  0  0  0  0  0  0  0
  1  2  2  0
  2  3  2  0
  2  4  1  0
  4  5  2  0
  5  6  1  0
  6  7  2  0
  7  8  1  0
  8  9  2  0
  2 10  1  0
 10 11  2  0
 11 12  1  0
 12 13  1  0
 13 14  1  0
 14 15  1  0
 15 16  2  0
 16 17  1  0
 17 18  2  0
 18 19  1  0
 19 20  2  0
 20 21  1  0
 21 22  2  0
 16 23  1  0
 23 24  1  0
 12 25  2  0
 25 26  1  0
 26 27  1  0
 28 27  1  6
 28 29  1  0
 29 30  1  0
 30 31  1  0
 31 32  1  1
 31 33  1  0
 33 34  1  0
 26 35  2  0
  9  4  1  0
 35 10  1  0
 24 14  2  0
 34 28  1  0
 22 17  1  0
M  END
>  <Compound_ID>  (217) 
CHEMBL3355730

>  <Molecule Name>  (217) 
nan

>  <Molecular Weight>  (217) 
489.6

>  <AlogP>  (217) 
4.76

>  <Smiles>  (217) 
O=S(=O)(c1ccccc1)c1cc(Nc2cc(-c3ccccc3)[nH]n2)nc(N[C@H]2CC[C@H](O)CC2)c1

>  <Standard Type>  (217) 
Ki

>  <Standard Relation>  (217) 
'='

>  <Standard Units>  (217) 
nM

>  <Standard Value>  (217) 
2.3

>  <Assay ChEMBL ID>  (217) 
CHEMBL3389531

>  <Assay Description>  (217) 
Inhibition of GST-tagged full-length ITK (unknown origin) using Ac-EFPIYDFLPAKKK-NH2 as substrate after 35 mins by LC/MS analysis

>  <BAO Format ID>  (217) 
BAO_0000357

>  <BAO Label>  (217) 
single protein format

>  <Assay Organism>  (217) 
Homo sapiens

>  <Target ChEMBL ID>  (217) 
CHEMBL2959

>  <Target Name>  (217) 
Tyrosine-protein kinase ITK/TSK

>  <Target Organism>  (217) 
Homo sapiens

>  <Target Type>  (217) 
SINGLE PROTEIN

>  <Document ChEMBL ID>  (217) 
CHEMBL3352735

>  <Source Description>  (217) 
Scientific Literature

>  <Document Journal>  (217) 
Bioorg Med Chem Lett

>  <Document Year>  (217) 
2014.0

>  <Active>  (217) 
1.0

$$$$

     RDKit          2D

 35 38  0  0  0  0  0  0  0  0999 V2000
    0.7500   -3.8971    0.0000 C   0  0  0  0  0  0  0  0  0  0  0  0
    1.5000   -2.5981    0.0000 N   0  0  0  0  0  0  0  0  0  0  0  0
    3.0000   -2.5981    0.0000 C   0  0  0  0  0  0  0  0  0  0  0  0
    3.7500   -1.2990    0.0000 O   0  0  0  0  0  0  0  0  0  0  0  0
    3.7500   -3.8971    0.0000 C   0  0  0  0  0  0  0  0  0  0  0  0
    3.0000   -5.1962    0.0000 C   0  0  0  0  0  0  0  0  0  0  0  0
    3.7500   -6.4952    0.0000 C   0  0  0  0  0  0  0  0  0  0  0  0
    5.2500   -6.4952    0.0000 C   0  0  0  0  0  0  0  0  0  0  0  0
    6.0000   -5.1962    0.0000 C   0  0  0  0  0  0  0  0  0  0  0  0
    5.2500   -3.8971    0.0000 C   0  0  0  0  0  0  0  0  0  0  0  0
    0.7500   -1.2990    0.0000 C   0  0  0  0  0  0  0  0  0  0  0  0
    1.5000    0.0000    0.0000 C   0  0  0  0  0  0  0  0  0  0  0  0
    0.7500    1.2990    0.0000 C   0  0  0  0  0  0  0  0  0  0  0  0
   -0.7500    1.2990    0.0000 C   0  0  0  0  0  0  0  0  0  0  0  0
   -1.5000    0.0000    0.0000 C   0  0  0  0  0  0  0  0  0  0  0  0
   -0.7500   -1.2990    0.0000 C   0  0  0  0  0  0  0  0  0  0  0  0
   -2.9672    0.3119    0.0000 N   0  0  0  0  0  0  0  0  0  0  0  0
   -3.1240    1.8037    0.0000 C   0  0  0  0  0  0  0  0  0  0  0  0
   -4.4231    2.5537    0.0000 N   0  0  0  0  0  0  0  0  0  0  0  0
   -4.4231    4.0537    0.0000 C   0  0  0  0  0  0  0  0  0  0  0  0
   -3.1240    4.8037    0.0000 O   0  0  0  0  0  0  0  0  0  0  0  0
   -5.7221    4.8037    0.0000 C   0  0  0  0  0  0  0  0  0  0  0  0
   -5.7221    6.3037    0.0000 C   0  0  0  0  0  0  0  0  0  0  0  0
   -7.0211    7.0537    0.0000 C   0  0  0  0  0  0  0  0  0  0  0  0
   -8.3202    6.3037    0.0000 C   0  0  0  0  0  0  0  0  0  0  0  0
   -9.6192    7.0537    0.0000 C   0  0  0  0  0  0  0  0  0  0  0  0
  -10.9182    7.8037    0.0000 N   0  0  0  0  0  0  0  0  0  0  0  0
   -8.3202    4.8037    0.0000 N   0  0  0  0  0  0  0  0  0  0  0  0
   -7.0211    4.0537    0.0000 C   0  0  0  0  0  0  0  0  0  0  0  0
   -1.7537    2.4138    0.0000 N   0  0  0  0  0  0  0  0  0  0  0  0
   -1.4418    3.8810    0.0000 C   0  0  0  0  0  0  0  0  0  0  0  0
   -0.0152    4.3445    0.0000 C   0  0  0  0  0  0  0  0  0  0  0  0
    0.2966    5.8117    0.0000 C   0  0  0  0  0  0  0  0  0  0  0  0
    1.7232    6.2752    0.0000 N   0  0  0  0  0  0  0  0  0  0  0  0
   -0.8181    6.8154    0.0000 O   0  0  0  0  0  0  0  0  0  0  0  0
  1  2  1  0
  2  3  1  0
  3  4  2  0
  3  5  1  0
  5  6  2  0
  6  7  1  0
  7  8  2  0
  8  9  1  0
  9 10  2  0
  2 11  1  0
 11 12  2  0
 12 13  1  0
 13 14  2  0
 14 15  1  0
 15 16  2  0
 15 17  1  0
 17 18  2  0
 18 19  1  0
 19 20  1  0
 20 21  2  0
 20 22  1  0
 22 23  2  0
 23 24  1  0
 24 25  2  0
 25 26  1  0
 26 27  3  0
 25 28  1  0
 28 29  2  0
 18 30  1  0
 30 31  1  0
 31 32  1  0
 32 33  1  0
 33 34  1  0
 33 35  2  0
 10  5  1  0
 16 11  1  0
 29 22  1  0
 30 14  1  0
M  END
>  <Compound_ID>  (218) 
CHEMBL457705

>  <Molecule Name>  (218) 
nan

>  <Molecular Weight>  (218) 
467.49

>  <AlogP>  (218) 
2.71

>  <Smiles>  (218) 
CN(C(=O)c1ccccc1)c1ccc2c(c1)nc(NC(=O)c1ccc(C#N)nc1)n2CCC(N)=O

>  <Standard Type>  (218) 
IC50

>  <Standard Relation>  (218) 
'='

>  <Standard Units>  (218) 
nM

>  <Standard Value>  (218) 
23.0

>  <Assay ChEMBL ID>  (218) 
CHEMBL992543

>  <Assay Description>  (218) 
Inhibition of recombinant ITK by DELFIA assay

>  <BAO Format ID>  (218) 
BAO_0000357

>  <BAO Label>  (218) 
single protein format

>  <Assay Organism>  (218) 
None

>  <Target ChEMBL ID>  (218) 
CHEMBL2959

>  <Target Name>  (218) 
Tyrosine-protein kinase ITK/TSK

>  <Target Organism>  (218) 
Homo sapiens

>  <Target Type>  (218) 
SINGLE PROTEIN

>  <Document ChEMBL ID>  (218) 
CHEMBL1142466

>  <Source Description>  (218) 
Scientific Literature

>  <Document Journal>  (218) 
Bioorg Med Chem Lett

>  <Document Year>  (218) 
2008.0

>  <Active>  (218) 
1.0

$$$$

     RDKit          2D

 34 38  0  0  0  0  0  0  0  0999 V2000
    1.5000   -5.1962    0.0000 C   0  0  0  0  0  0  0  0  0  0  0  0
    0.7500   -3.8971    0.0000 N   0  0  0  0  0  0  0  0  0  0  0  0
    1.5000   -2.5981    0.0000 C   0  0  0  0  0  0  0  0  0  0  0  0
    0.7500   -1.2990    0.0000 C   0  0  0  0  0  0  0  0  0  0  0  0
    1.5000    0.0000    0.0000 C   0  0  0  0  0  0  0  0  0  0  0  0
    0.7500    1.2990    0.0000 C   0  0  0  0  0  0  0  0  0  0  0  0
   -0.7500    1.2990    0.0000 C   0  0  0  0  0  0  0  0  0  0  0  0
   -1.5000    0.0000    0.0000 C   0  0  0  0  0  0  0  0  0  0  0  0
   -0.7500   -1.2990    0.0000 C   0  0  0  0  0  0  0  0  0  0  0  0
   -2.9672    0.3119    0.0000 N   0  0  0  0  0  0  0  0  0  0  0  0
   -3.1240    1.8037    0.0000 C   0  0  0  0  0  0  0  0  0  0  0  0
   -4.4231    2.5537    0.0000 N   0  0  0  0  0  0  0  0  0  0  0  0
   -4.4231    4.0537    0.0000 C   0  0  0  0  0  0  0  0  0  0  0  0
   -3.1240    4.8037    0.0000 O   0  0  0  0  0  0  0  0  0  0  0  0
   -5.7221    4.8037    0.0000 C   0  0  0  0  0  0  0  0  0  0  0  0
   -7.0924    4.1935    0.0000 C   0  0  0  0  0  0  0  0  0  0  0  0
   -8.0961    5.3083    0.0000 C   0  0  0  0  0  0  0  0  0  0  0  0
   -7.3461    6.6073    0.0000 N   0  0  0  0  0  0  0  0  0  0  0  0
   -5.8789    6.2954    0.0000 O   0  0  0  0  0  0  0  0  0  0  0  0
   -1.7537    2.4138    0.0000 N   0  0  0  0  0  0  0  0  0  0  0  0
   -1.4418    3.8810    0.0000 C   0  0  0  0  0  0  0  0  0  0  0  0
   -0.0152    4.3445    0.0000 C   0  0  0  0  0  0  0  0  0  0  0  0
    0.2966    5.8117    0.0000 C   0  0  0  0  0  0  0  0  0  0  0  0
    1.7232    6.2752    0.0000 N   0  0  0  0  0  0  0  0  0  0  0  0
    2.1867    7.7018    0.0000 C   0  0  0  0  0  0  0  0  0  0  0  0
    3.6867    7.7018    0.0000 C   0  0  0  0  0  0  0  0  0  0  0  0
    4.1503    6.2752    0.0000 N   0  0  0  0  0  0  0  0  0  0  0  0
    2.9367    5.3936    0.0000 C   0  0  0  0  0  0  0  0  0  0  0  0
   -0.7500   -3.8971    0.0000 C   0  0  0  0  0  0  0  0  0  0  0  0
   -1.5000   -2.5981    0.0000 C   0  0  0  0  0  0  0  0  0  0  0  0
   -3.0000   -2.5981    0.0000 C   0  0  0  0  0  0  0  0  0  0  0  0
   -3.7500   -3.8971    0.0000 C   0  0  0  0  0  0  0  0  0  0  0  0
   -3.0000   -5.1962    0.0000 C   0  0  0  0  0  0  0  0  0  0  0  0
   -1.5000   -5.1962    0.0000 C   0  0  0  0  0  0  0  0  0  0  0  0
  1  2  1  0
  2  3  1  0
  3  4  1  0
  4  5  2  0
  5  6  1  0
  6  7  2  0
  7  8  1  0
  8  9  2  0
  8 10  1  0
 10 11  2  0
 11 12  1  0
 12 13  1  0
 13 14  2  0
 13 15  1  0
 15 16  2  0
 16 17  1  0
 17 18  2  0
 18 19  1  0
 11 20  1  0
 20 21  1  0
 21 22  1  0
 22 23  1  0
 23 24  1  0
 24 25  1  0
 25 26  2  0
 26 27  1  0
 27 28  2  0
  2 29  1  0
 29 30  1  0
 30 31  1  0
 31 32  1  0
 32 33  1  0
 33 34  1  0
  9  4  1  0
 19 15  1  0
 28 24  1  0
 34 29  1  0
 20  7  1  0
M  END
>  <Compound_ID>  (219) 
CHEMBL488398

>  <Molecule Name>  (219) 
nan

>  <Molecular Weight>  (219) 
461.57

>  <AlogP>  (219) 
4.33

>  <Smiles>  (219) 
CN(Cc1ccc2c(c1)nc(NC(=O)c1ccno1)n2CCCn1ccnc1)C1CCCCC1

>  <Standard Type>  (219) 
IC50

>  <Standard Relation>  (219) 
'='

>  <Standard Units>  (219) 
nM

>  <Standard Value>  (219) 
46.0

>  <Assay ChEMBL ID>  (219) 
CHEMBL1006237

>  <Assay Description>  (219) 
Inhibition of ITK by DELPHIA assay

>  <BAO Format ID>  (219) 
BAO_0000357

>  <BAO Label>  (219) 
single protein format

>  <Assay Organism>  (219) 
None

>  <Target ChEMBL ID>  (219) 
CHEMBL2959

>  <Target Name>  (219) 
Tyrosine-protein kinase ITK/TSK

>  <Target Organism>  (219) 
Homo sapiens

>  <Target Type>  (219) 
SINGLE PROTEIN

>  <Document ChEMBL ID>  (219) 
CHEMBL1152240

>  <Source Description>  (219) 
Scientific Literature

>  <Document Journal>  (219) 
Bioorg Med Chem Lett

>  <Document Year>  (219) 
2008.0

>  <Active>  (219) 
1.0

$$$$

     RDKit          2D

 34 37  0  0  0  0  0  0  0  0999 V2000
   -7.7227   -2.1088    0.0000 C   0  0  0  0  0  0  0  0  0  0  0  0
   -6.2961   -1.6453    0.0000 O   0  0  0  0  0  0  0  0  0  0  0  0
   -5.1814   -2.6490    0.0000 C   0  0  0  0  0  0  0  0  0  0  0  0
   -3.7548   -2.1855    0.0000 C   0  0  0  0  0  0  0  0  0  0  0  0
   -2.6401   -3.1891    0.0000 C   0  0  0  0  0  0  0  0  0  0  0  0
   -1.2135   -2.7256    0.0000 N   0  0  0  0  0  0  0  0  0  0  0  0
   -0.0000   -3.6073    0.0000 C   0  0  0  0  0  0  0  0  0  0  0  0
   -0.0000   -5.1073    0.0000 N   0  0  0  0  0  0  0  0  0  0  0  0
   -1.2990   -5.8573    0.0000 C   0  0  0  0  0  0  0  0  0  0  0  0
   -2.5981   -5.1073    0.0000 O   0  0  0  0  0  0  0  0  0  0  0  0
   -1.2990   -7.3573    0.0000 C   0  0  0  0  0  0  0  0  0  0  0  0
   -2.5981   -8.1073    0.0000 C   0  0  0  0  0  0  0  0  0  0  0  0
   -2.5981   -9.6073    0.0000 C   0  0  0  0  0  0  0  0  0  0  0  0
   -1.2990  -10.3573    0.0000 C   0  0  0  0  0  0  0  0  0  0  0  0
   -1.2990  -11.8573    0.0000 C   0  0  0  0  0  0  0  0  0  0  0  0
   -1.2990  -13.3573    0.0000 N   0  0  0  0  0  0  0  0  0  0  0  0
   -0.0000   -9.6073    0.0000 C   0  0  0  0  0  0  0  0  0  0  0  0
   -0.0000   -8.1073    0.0000 C   0  0  0  0  0  0  0  0  0  0  0  0
    1.2135   -2.7256    0.0000 N   0  0  0  0  0  0  0  0  0  0  0  0
    0.7500   -1.2990    0.0000 C   0  0  0  0  0  0  0  0  0  0  0  0
    1.5000    0.0000    0.0000 C   0  0  0  0  0  0  0  0  0  0  0  0
    0.7500    1.2990    0.0000 C   0  0  0  0  0  0  0  0  0  0  0  0
    1.5000    2.5981    0.0000 C   0  0  0  0  0  0  0  0  0  0  0  0
    3.0000    2.5981    0.0000 N   0  0  0  0  0  0  0  0  0  0  0  0
    3.7500    3.8971    0.0000 C   0  0  0  0  0  0  0  0  0  0  0  0
    3.7500    1.2990    0.0000 C   0  0  0  0  0  0  0  0  0  0  0  0
    5.2500    1.2990    0.0000 C   0  0  0  0  0  0  0  0  0  0  0  0
    6.1317    2.5126    0.0000 C   0  0  0  0  0  0  0  0  0  0  0  0
    7.5583    2.0490    0.0000 C   0  0  0  0  0  0  0  0  0  0  0  0
    7.5583    0.5490    0.0000 C   0  0  0  0  0  0  0  0  0  0  0  0
    6.1317    0.0855    0.0000 C   0  0  0  0  0  0  0  0  0  0  0  0
   -0.7500    1.2990    0.0000 C   0  0  0  0  0  0  0  0  0  0  0  0
   -1.5000    0.0000    0.0000 C   0  0  0  0  0  0  0  0  0  0  0  0
   -0.7500   -1.2990    0.0000 C   0  0  0  0  0  0  0  0  0  0  0  0
  1  2  1  0
  2  3  1  0
  3  4  1  0
  4  5  1  0
  5  6  1  0
  6  7  1  0
  7  8  1  0
  8  9  1  0
  9 10  2  0
  9 11  1  0
 11 12  2  0
 12 13  1  0
 13 14  2  0
 14 15  1  0
 15 16  3  0
 14 17  1  0
 17 18  2  0
  7 19  2  0
 19 20  1  0
 20 21  2  0
 21 22  1  0
 22 23  1  0
 23 24  1  0
 24 25  1  0
 24 26  1  0
 26 27  1  0
 27 28  1  0
 28 29  1  0
 29 30  1  0
 30 31  1  0
 22 32  2  0
 32 33  1  0
 33 34  2  0
 34  6  1  0
 18 11  1  0
 34 20  1  0
 31 27  1  0
M  END
>  <Compound_ID>  (220) 
CHEMBL487983

>  <Molecule Name>  (220) 
nan

>  <Molecular Weight>  (220) 
459.59

>  <AlogP>  (220) 
4.82

>  <Smiles>  (220) 
COCCCn1c(NC(=O)c2ccc(C#N)cc2)nc2cc(CN(C)CC3CCCC3)ccc21

>  <Standard Type>  (220) 
IC50

>  <Standard Relation>  (220) 
'='

>  <Standard Units>  (220) 
nM

>  <Standard Value>  (220) 
34.0

>  <Assay ChEMBL ID>  (220) 
CHEMBL1006237

>  <Assay Description>  (220) 
Inhibition of ITK by DELPHIA assay

>  <BAO Format ID>  (220) 
BAO_0000357

>  <BAO Label>  (220) 
single protein format

>  <Assay Organism>  (220) 
None

>  <Target ChEMBL ID>  (220) 
CHEMBL2959

>  <Target Name>  (220) 
Tyrosine-protein kinase ITK/TSK

>  <Target Organism>  (220) 
Homo sapiens

>  <Target Type>  (220) 
SINGLE PROTEIN

>  <Document ChEMBL ID>  (220) 
CHEMBL1152240

>  <Source Description>  (220) 
Scientific Literature

>  <Document Journal>  (220) 
Bioorg Med Chem Lett

>  <Document Year>  (220) 
2008.0

>  <Active>  (220) 
1.0

$$$$

     RDKit          2D

 30 34  0  0  0  0  0  0  0  0999 V2000
    5.5470   -2.9863    0.0000 N   0  0  0  0  0  0  0  0  0  0  0  0
    4.2479   -2.2363    0.0000 C   0  0  0  0  0  0  0  0  0  0  0  0
    4.2479   -0.7363    0.0000 O   0  0  0  0  0  0  0  0  0  0  0  0
    2.9489   -2.9863    0.0000 C   0  0  0  0  0  0  0  0  0  0  0  0
    2.5607   -4.4352    0.0000 C   0  0  0  0  0  0  0  0  0  0  0  0
    1.1118   -4.0470    0.0000 C   0  0  0  0  0  0  0  0  0  0  0  0
    1.5000   -2.5981    0.0000 N   0  0  0  0  0  0  0  0  0  0  0  0
    0.7500   -1.2990    0.0000 C   0  0  0  0  0  0  0  0  0  0  0  0
    1.5000    0.0000    0.0000 N   0  0  0  0  0  0  0  0  0  0  0  0
    0.7500    1.2990    0.0000 C   0  0  0  0  0  0  0  0  0  0  0  0
    1.5000    2.5981    0.0000 C   0  0  0  0  0  0  0  0  0  0  0  0
    3.0000    2.5981    0.0000 C   0  0  0  0  0  0  0  0  0  0  0  0
    3.7500    1.2990    0.0000 C   0  0  0  0  0  0  0  0  0  0  0  0
    5.2500    1.2990    0.0000 C   0  0  0  0  0  0  0  0  0  0  0  0
    6.0000    2.5981    0.0000 C   0  0  0  0  0  0  0  0  0  0  0  0
    5.2500    3.8971    0.0000 C   0  0  0  0  0  0  0  0  0  0  0  0
    3.7500    3.8971    0.0000 C   0  0  0  0  0  0  0  0  0  0  0  0
   -0.7500    1.2990    0.0000 C   0  0  0  0  0  0  0  0  0  0  0  0
   -1.5000    0.0000    0.0000 C   0  0  0  0  0  0  0  0  0  0  0  0
   -3.0000    0.0000    0.0000 N   0  0  0  0  0  0  0  0  0  0  0  0
   -3.7500    1.2990    0.0000 C   0  0  0  0  0  0  0  0  0  0  0  0
   -5.2418    1.4558    0.0000 C   0  0  0  0  0  0  0  0  0  0  0  0
   -5.5537    2.9231    0.0000 C   0  0  0  0  0  0  0  0  0  0  0  0
   -6.9240    3.5332    0.0000 C   0  0  0  0  0  0  0  0  0  0  0  0
   -7.4615    4.9335    0.0000 C   0  0  0  0  0  0  0  0  0  0  0  0
   -8.8619    4.3960    0.0000 C   0  0  0  0  0  0  0  0  0  0  0  0
   -8.3243    2.9956    0.0000 C   0  0  0  0  0  0  0  0  0  0  0  0
   -4.2546    3.6731    0.0000 N   0  0  0  0  0  0  0  0  0  0  0  0
   -3.1399    2.6694    0.0000 N   0  0  0  0  0  0  0  0  0  0  0  0
   -0.7500   -1.2990    0.0000 N   0  0  0  0  0  0  0  0  0  0  0  0
  1  2  1  0
  2  3  2  0
  2  4  1  0
  4  5  1  0
  5  6  1  0
  6  7  1  0
  7  8  1  0
  8  9  2  0
  9 10  1  0
 10 11  1  0
 11 12  1  0
 12 13  2  0
 13 14  1  0
 14 15  2  0
 15 16  1  0
 16 17  2  0
 10 18  2  0
 18 19  1  0
 19 20  1  0
 20 21  1  0
 21 22  1  0
 22 23  2  0
 23 24  1  0
 24 25  1  0
 25 26  1  0
 26 27  1  0
 23 28  1  0
 28 29  1  0
 19 30  2  0
  7  4  1  0
 30  8  1  0
 17 12  1  0
 29 21  2  0
 27 24  1  0
M  END
>  <Compound_ID>  (221) 
CHEMBL2441278

>  <Molecule Name>  (221) 
nan

>  <Molecular Weight>  (221) 
403.49

>  <AlogP>  (221) 
2.87

>  <Smiles>  (221) 
NC(=O)C1CCN1c1nc(Cc2ccccc2)cc(Nc2cc(C3CCC3)[nH]n2)n1

>  <Standard Type>  (221) 
Ki

>  <Standard Relation>  (221) 
'='

>  <Standard Units>  (221) 
nM

>  <Standard Value>  (221) 
15.85

>  <Assay ChEMBL ID>  (221) 
CHEMBL2446691

>  <Assay Description>  (221) 
Inhibition of ITK (unknown origin)

>  <BAO Format ID>  (221) 
BAO_0000357

>  <BAO Label>  (221) 
single protein format

>  <Assay Organism>  (221) 
Homo sapiens

>  <Target ChEMBL ID>  (221) 
CHEMBL2959

>  <Target Name>  (221) 
Tyrosine-protein kinase ITK/TSK

>  <Target Organism>  (221) 
Homo sapiens

>  <Target Type>  (221) 
SINGLE PROTEIN

>  <Document ChEMBL ID>  (221) 
CHEMBL2440060

>  <Source Description>  (221) 
Scientific Literature

>  <Document Journal>  (221) 
ACS Med Chem Lett

>  <Document Year>  (221) 
2013.0

>  <Active>  (221) 
1.0

$$$$

     RDKit          2D

 38 42  0  0  0  0  0  0  0  0999 V2000
    0.7500   -3.8971    0.0000 C   0  0  0  0  0  0  0  0  0  0  0  0
    1.5000   -2.5981    0.0000 N   0  0  0  0  0  0  0  0  0  0  0  0
    3.0000   -2.5981    0.0000 C   0  0  0  0  0  0  0  0  0  0  0  0
    3.7500   -1.2990    0.0000 O   0  0  0  0  0  0  0  0  0  0  0  0
    3.7500   -3.8971    0.0000 C   0  0  0  0  0  0  0  0  0  0  0  0
    3.0000   -5.1962    0.0000 C   0  0  0  0  0  0  0  0  0  0  0  0
    3.7500   -6.4952    0.0000 C   0  0  0  0  0  0  0  0  0  0  0  0
    5.2500   -6.4952    0.0000 C   0  0  0  0  0  0  0  0  0  0  0  0
    6.0000   -5.1962    0.0000 C   0  0  0  0  0  0  0  0  0  0  0  0
    5.2500   -3.8971    0.0000 C   0  0  0  0  0  0  0  0  0  0  0  0
    0.7500   -1.2990    0.0000 C   0  0  0  0  0  0  0  0  0  0  0  0
    1.5000    0.0000    0.0000 C   0  0  0  0  0  0  0  0  0  0  0  0
    0.7500    1.2990    0.0000 C   0  0  0  0  0  0  0  0  0  0  0  0
   -0.7500    1.2990    0.0000 C   0  0  0  0  0  0  0  0  0  0  0  0
   -1.5000    0.0000    0.0000 C   0  0  0  0  0  0  0  0  0  0  0  0
   -0.7500   -1.2990    0.0000 C   0  0  0  0  0  0  0  0  0  0  0  0
   -2.9672    0.3119    0.0000 N   0  0  0  0  0  0  0  0  0  0  0  0
   -3.1240    1.8037    0.0000 C   0  0  0  0  0  0  0  0  0  0  0  0
   -4.4231    2.5537    0.0000 N   0  0  0  0  0  0  0  0  0  0  0  0
   -5.7221    1.8037    0.0000 C   0  0  0  0  0  0  0  0  0  0  0  0
   -5.7221    0.3037    0.0000 O   0  0  0  0  0  0  0  0  0  0  0  0
   -7.0211    2.5537    0.0000 C   0  0  0  0  0  0  0  0  0  0  0  0
   -8.3914    1.9435    0.0000 C   0  0  0  0  0  0  0  0  0  0  0  0
   -9.3951    3.0583    0.0000 C   0  0  0  0  0  0  0  0  0  0  0  0
   -8.6451    4.3573    0.0000 C   0  0  0  0  0  0  0  0  0  0  0  0
   -9.2552    5.7276    0.0000 C   0  0  0  0  0  0  0  0  0  0  0  0
   -8.3736    6.9411    0.0000 C   0  0  0  0  0  0  0  0  0  0  0  0
   -8.9837    8.3115    0.0000 C   0  0  0  0  0  0  0  0  0  0  0  0
  -10.4755    8.4683    0.0000 C   0  0  0  0  0  0  0  0  0  0  0  0
  -11.3571    7.2547    0.0000 C   0  0  0  0  0  0  0  0  0  0  0  0
  -10.7470    5.8844    0.0000 N   0  0  0  0  0  0  0  0  0  0  0  0
   -7.1779    4.0454    0.0000 S   0  0  0  0  0  0  0  0  0  0  0  0
   -1.7537    2.4138    0.0000 N   0  0  0  0  0  0  0  0  0  0  0  0
   -1.4418    3.8810    0.0000 C   0  0  0  0  0  0  0  0  0  0  0  0
   -0.0152    4.3445    0.0000 C   0  0  0  0  0  0  0  0  0  0  0  0
    0.2966    5.8117    0.0000 C   0  0  0  0  0  0  0  0  0  0  0  0
    1.7232    6.2752    0.0000 N   0  0  0  0  0  0  0  0  0  0  0  0
   -0.8181    6.8154    0.0000 O   0  0  0  0  0  0  0  0  0  0  0  0
  1  2  1  0
  2  3  1  0
  3  4  2  0
  3  5  1  0
  5  6  2  0
  6  7  1  0
  7  8  2  0
  8  9  1  0
  9 10  2  0
  2 11  1  0
 11 12  2  0
 12 13  1  0
 13 14  2  0
 14 15  1  0
 15 16  2  0
 15 17  1  0
 17 18  1  0
 18 19  2  0
 19 20  1  0
 20 21  2  0
 20 22  1  0
 22 23  2  0
 23 24  1  0
 24 25  2  0
 25 26  1  0
 26 27  2  0
 27 28  1  0
 28 29  2  0
 29 30  1  0
 30 31  2  0
 25 32  1  0
 18 33  1  0
 33 34  1  0
 34 35  1  0
 35 36  1  0
 36 37  1  0
 36 38  2  0
 10  5  1  0
 16 11  1  0
 32 22  1  0
 33 14  1  0
 31 26  1  0
M  END
>  <Compound_ID>  (222) 
CHEMBL481721

>  <Molecule Name>  (222) 
nan

>  <Molecular Weight>  (222) 
524.61

>  <AlogP>  (222) 
3.99

>  <Smiles>  (222) 
CN(C(=O)c1ccccc1)c1ccc2c(c1)[nH]/c(=N\C(=O)c1ccc(-c3ccccn3)s1)n2CCC(N)=O

>  <Standard Type>  (222) 
IC50

>  <Standard Relation>  (222) 
'='

>  <Standard Units>  (222) 
nM

>  <Standard Value>  (222) 
19.0

>  <Assay ChEMBL ID>  (222) 
CHEMBL992190

>  <Assay Description>  (222) 
Inhibition of ITK by DELFIA method

>  <BAO Format ID>  (222) 
BAO_0000357

>  <BAO Label>  (222) 
single protein format

>  <Assay Organism>  (222) 
None

>  <Target ChEMBL ID>  (222) 
CHEMBL2959

>  <Target Name>  (222) 
Tyrosine-protein kinase ITK/TSK

>  <Target Organism>  (222) 
Homo sapiens

>  <Target Type>  (222) 
SINGLE PROTEIN

>  <Document ChEMBL ID>  (222) 
CHEMBL1143295

>  <Source Description>  (222) 
Scientific Literature

>  <Document Journal>  (222) 
Bioorg Med Chem Lett

>  <Document Year>  (222) 
2009.0

>  <Active>  (222) 
1.0

$$$$

     RDKit          2D

 38 42  0  0  0  0  0  0  0  0999 V2000
    0.7500   -3.8971    0.0000 C   0  0  0  0  0  0  0  0  0  0  0  0
    1.5000   -2.5981    0.0000 N   0  0  0  0  0  0  0  0  0  0  0  0
    3.0000   -2.5981    0.0000 C   0  0  0  0  0  0  0  0  0  0  0  0
    3.7500   -1.2990    0.0000 O   0  0  0  0  0  0  0  0  0  0  0  0
    3.7500   -3.8971    0.0000 C   0  0  0  0  0  0  0  0  0  0  0  0
    3.0000   -5.1962    0.0000 C   0  0  0  0  0  0  0  0  0  0  0  0
    3.7500   -6.4952    0.0000 C   0  0  0  0  0  0  0  0  0  0  0  0
    5.2500   -6.4952    0.0000 C   0  0  0  0  0  0  0  0  0  0  0  0
    6.0000   -5.1962    0.0000 C   0  0  0  0  0  0  0  0  0  0  0  0
    5.2500   -3.8971    0.0000 C   0  0  0  0  0  0  0  0  0  0  0  0
    0.7500   -1.2990    0.0000 C   0  0  0  0  0  0  0  0  0  0  0  0
    1.5000    0.0000    0.0000 C   0  0  0  0  0  0  0  0  0  0  0  0
    0.7500    1.2990    0.0000 C   0  0  0  0  0  0  0  0  0  0  0  0
   -0.7500    1.2990    0.0000 C   0  0  0  0  0  0  0  0  0  0  0  0
   -1.5000    0.0000    0.0000 C   0  0  0  0  0  0  0  0  0  0  0  0
   -0.7500   -1.2990    0.0000 C   0  0  0  0  0  0  0  0  0  0  0  0
   -2.9672    0.3119    0.0000 N   0  0  0  0  0  0  0  0  0  0  0  0
   -3.1240    1.8037    0.0000 C   0  0  0  0  0  0  0  0  0  0  0  0
   -4.4231    2.5537    0.0000 N   0  0  0  0  0  0  0  0  0  0  0  0
   -5.7221    1.8037    0.0000 C   0  0  0  0  0  0  0  0  0  0  0  0
   -5.7221    0.3037    0.0000 O   0  0  0  0  0  0  0  0  0  0  0  0
   -7.0211    2.5537    0.0000 C   0  0  0  0  0  0  0  0  0  0  0  0
   -8.3914    1.9435    0.0000 C   0  0  0  0  0  0  0  0  0  0  0  0
   -9.3951    3.0583    0.0000 C   0  0  0  0  0  0  0  0  0  0  0  0
   -8.6451    4.3573    0.0000 C   0  0  0  0  0  0  0  0  0  0  0  0
   -9.2552    5.7276    0.0000 N   0  0  0  0  0  0  0  0  0  0  0  0
   -8.3736    6.9411    0.0000 C   0  0  0  0  0  0  0  0  0  0  0  0
   -8.9837    8.3115    0.0000 C   0  0  0  0  0  0  0  0  0  0  0  0
  -10.4755    8.4683    0.0000 O   0  0  0  0  0  0  0  0  0  0  0  0
  -11.3571    7.2547    0.0000 C   0  0  0  0  0  0  0  0  0  0  0  0
  -10.7470    5.8844    0.0000 C   0  0  0  0  0  0  0  0  0  0  0  0
   -7.1779    4.0454    0.0000 S   0  0  0  0  0  0  0  0  0  0  0  0
   -1.7537    2.4138    0.0000 N   0  0  0  0  0  0  0  0  0  0  0  0
   -1.4418    3.8810    0.0000 C   0  0  0  0  0  0  0  0  0  0  0  0
   -0.0152    4.3445    0.0000 C   0  0  0  0  0  0  0  0  0  0  0  0
    0.2966    5.8117    0.0000 C   0  0  0  0  0  0  0  0  0  0  0  0
    1.7232    6.2752    0.0000 N   0  0  0  0  0  0  0  0  0  0  0  0
   -0.8181    6.8154    0.0000 O   0  0  0  0  0  0  0  0  0  0  0  0
  1  2  1  0
  2  3  1  0
  3  4  2  0
  3  5  1  0
  5  6  2  0
  6  7  1  0
  7  8  2  0
  8  9  1  0
  9 10  2  0
  2 11  1  0
 11 12  2  0
 12 13  1  0
 13 14  2  0
 14 15  1  0
 15 16  2  0
 15 17  1  0
 17 18  1  0
 18 19  2  0
 19 20  1  0
 20 21  2  0
 20 22  1  0
 22 23  2  0
 23 24  1  0
 24 25  2  0
 25 26  1  0
 26 27  1  0
 27 28  1  0
 28 29  1  0
 29 30  1  0
 30 31  1  0
 25 32  1  0
 18 33  1  0
 33 34  1  0
 34 35  1  0
 35 36  1  0
 36 37  1  0
 36 38  2  0
 10  5  1  0
 16 11  1  0
 32 22  1  0
 33 14  1  0
 31 26  1  0
M  END
>  <Compound_ID>  (223) 
CHEMBL480753

>  <Molecule Name>  (223) 
nan

>  <Molecular Weight>  (223) 
532.63

>  <AlogP>  (223) 
2.76

>  <Smiles>  (223) 
CN(C(=O)c1ccccc1)c1ccc2c(c1)[nH]/c(=N\C(=O)c1ccc(N3CCOCC3)s1)n2CCC(N)=O

>  <Standard Type>  (223) 
IC50

>  <Standard Relation>  (223) 
'='

>  <Standard Units>  (223) 
nM

>  <Standard Value>  (223) 
74.0

>  <Assay ChEMBL ID>  (223) 
CHEMBL992190

>  <Assay Description>  (223) 
Inhibition of ITK by DELFIA method

>  <BAO Format ID>  (223) 
BAO_0000357

>  <BAO Label>  (223) 
single protein format

>  <Assay Organism>  (223) 
None

>  <Target ChEMBL ID>  (223) 
CHEMBL2959

>  <Target Name>  (223) 
Tyrosine-protein kinase ITK/TSK

>  <Target Organism>  (223) 
Homo sapiens

>  <Target Type>  (223) 
SINGLE PROTEIN

>  <Document ChEMBL ID>  (223) 
CHEMBL1143295

>  <Source Description>  (223) 
Scientific Literature

>  <Document Journal>  (223) 
Bioorg Med Chem Lett

>  <Document Year>  (223) 
2009.0

>  <Active>  (223) 
1.0

$$$$

     RDKit          2D

 26 29  0  0  0  0  0  0  0  0999 V2000
   -9.9707   -2.7256    0.0000 C   0  0  0  0  0  0  0  0  0  0  0  0
   -8.5441   -3.1891    0.0000 C   0  0  0  0  0  0  0  0  0  0  0  0
   -8.2322   -4.6564    0.0000 C   0  0  0  0  0  0  0  0  0  0  0  0
   -9.3469   -5.6601    0.0000 C   0  0  0  0  0  0  0  0  0  0  0  0
  -10.7735   -5.1965    0.0000 C   0  0  0  0  0  0  0  0  0  0  0  0
  -11.8882   -6.2002    0.0000 C   0  0  0  0  0  0  0  0  0  0  0  0
  -11.5764   -7.6675    0.0000 C   0  0  0  0  0  0  0  0  0  0  0  0
  -10.1498   -8.1310    0.0000 C   0  0  0  0  0  0  0  0  0  0  0  0
   -9.0350   -7.1273    0.0000 C   0  0  0  0  0  0  0  0  0  0  0  0
   -6.8056   -5.1199    0.0000 N   0  0  0  0  0  0  0  0  0  0  0  0
   -5.5921   -4.2382    0.0000 C   0  0  0  0  0  0  0  0  0  0  0  0
   -4.3786   -5.1199    0.0000 C   0  0  0  0  0  0  0  0  0  0  0  0
   -2.9520   -4.6564    0.0000 N   0  0  0  0  0  0  0  0  0  0  0  0
   -2.6401   -3.1891    0.0000 C   0  0  0  0  0  0  0  0  0  0  0  0
   -3.7548   -2.1855    0.0000 O   0  0  0  0  0  0  0  0  0  0  0  0
   -1.2135   -2.7256    0.0000 C   0  0  0  0  0  0  0  0  0  0  0  0
   -0.0000   -3.6073    0.0000 N   0  0  0  0  0  0  0  0  0  0  0  0
    1.2135   -2.7256    0.0000 N   0  0  0  0  0  0  0  0  0  0  0  0
    0.7500   -1.2990    0.0000 C   0  0  0  0  0  0  0  0  0  0  0  0
    1.5000    0.0000    0.0000 C   0  0  0  0  0  0  0  0  0  0  0  0
    0.7500    1.2990    0.0000 C   0  0  0  0  0  0  0  0  0  0  0  0
   -0.7500    1.2990    0.0000 C   0  0  0  0  0  0  0  0  0  0  0  0
   -1.5000    0.0000    0.0000 C   0  0  0  0  0  0  0  0  0  0  0  0
   -0.7500   -1.2990    0.0000 C   0  0  0  0  0  0  0  0  0  0  0  0
   -4.8421   -6.5465    0.0000 C   0  0  0  0  0  0  0  0  0  0  0  0
   -6.3421   -6.5465    0.0000 N   0  0  0  0  0  0  0  0  0  0  0  0
  1  2  1  0
  3  2  1  1
  3  4  1  0
  4  5  2  0
  5  6  1  0
  6  7  2  0
  7  8  1  0
  8  9  2  0
  3 10  1  0
 10 11  1  0
 11 12  2  0
 12 13  1  0
 13 14  1  0
 14 15  2  0
 14 16  1  0
 16 17  2  0
 17 18  1  0
 18 19  1  0
 19 20  2  0
 20 21  1  0
 21 22  2  0
 22 23  1  0
 23 24  2  0
 12 25  1  0
 25 26  2  0
  9  4  1  0
 26 10  1  0
 24 16  1  0
 24 19  1  0
M  END
>  <Compound_ID>  (224) 
CHEMBL3263043

>  <Molecule Name>  (224) 
nan

>  <Molecular Weight>  (224) 
345.41

>  <AlogP>  (224) 
4.01

>  <Smiles>  (224) 
CC[C@H](c1ccccc1)n1cc(NC(=O)c2n[nH]c3ccccc23)cn1

>  <Standard Type>  (224) 
Ki

>  <Standard Relation>  (224) 
'='

>  <Standard Units>  (224) 
nM

>  <Standard Value>  (224) 
53.0

>  <Assay ChEMBL ID>  (224) 
CHEMBL3267591

>  <Assay Description>  (224) 
Inhibition of full-length ITK (unknown origin) using biotin-EQEDEPEGIYGVLF-NH2 as substrate by plate reader analysis

>  <BAO Format ID>  (224) 
BAO_0000357

>  <BAO Label>  (224) 
single protein format

>  <Assay Organism>  (224) 
Homo sapiens

>  <Target ChEMBL ID>  (224) 
CHEMBL2959

>  <Target Name>  (224) 
Tyrosine-protein kinase ITK/TSK

>  <Target Organism>  (224) 
Homo sapiens

>  <Target Type>  (224) 
SINGLE PROTEIN

>  <Document ChEMBL ID>  (224) 
CHEMBL3259776

>  <Source Description>  (224) 
Scientific Literature

>  <Document Journal>  (224) 
Bioorg Med Chem Lett

>  <Document Year>  (224) 
2014.0

>  <Active>  (224) 
1.0

$$$$

     RDKit          2D

 34 39  0  0  0  0  0  0  0  0999 V2000
   -1.1830    0.5490    0.0000 C   0  0  0  0  0  0  0  0  0  0  0  0
   -0.4330   -0.7500    0.0000 C   0  0  0  0  0  0  0  0  0  0  0  0
   -1.7321   -1.5000    0.0000 C   0  0  0  0  0  0  0  0  0  0  0  0
   -3.0311   -0.7500    0.0000 C   0  0  0  0  0  0  0  0  0  0  0  0
   -4.4577   -1.2135    0.0000 N   0  0  0  0  0  0  0  0  0  0  0  0
   -5.3394   -0.0000    0.0000 N   0  0  0  0  0  0  0  0  0  0  0  0
   -4.4577    1.2135    0.0000 C   0  0  0  0  0  0  0  0  0  0  0  0
   -4.9212    2.6401    0.0000 C   0  0  0  0  0  0  0  0  0  0  0  0
   -3.9175    3.7548    0.0000 O   0  0  0  0  0  0  0  0  0  0  0  0
   -6.3884    2.9520    0.0000 N   0  0  0  0  0  0  0  0  0  0  0  0
   -6.8519    4.3786    0.0000 C   0  0  0  0  0  0  0  0  0  0  0  0
   -8.2785    4.8421    0.0000 C   0  0  0  0  0  0  0  0  0  0  0  0
   -8.2785    6.3421    0.0000 N   0  0  0  0  0  0  0  0  0  0  0  0
   -6.8519    6.8056    0.0000 N   0  0  0  0  0  0  0  0  0  0  0  0
   -6.3884    8.2322    0.0000 C   0  0  0  0  0  0  0  0  0  0  0  0
   -7.3921    9.3469    0.0000 C   0  0  0  0  0  0  0  0  0  0  0  0
   -6.9286   10.7735    0.0000 C   0  0  0  0  0  0  0  0  0  0  0  0
   -7.9323   11.8882    0.0000 C   0  0  0  0  0  0  0  0  0  0  0  0
   -9.3995   11.5764    0.0000 C   0  0  0  0  0  0  0  0  0  0  0  0
   -9.8630   10.1498    0.0000 C   0  0  0  0  0  0  0  0  0  0  0  0
   -8.8593    9.0350    0.0000 C   0  0  0  0  0  0  0  0  0  0  0  0
   -4.9212    8.5441    0.0000 C   0  0  0  0  0  0  0  0  0  0  0  0
   -3.9175    7.4293    0.0000 C   0  0  0  0  0  0  0  0  0  0  0  0
   -2.4503    7.7412    0.0000 C   0  0  0  0  0  0  0  0  0  0  0  0
   -1.9868    9.1678    0.0000 S   0  0  0  0  0  0  0  0  0  0  0  0
   -1.0633   10.3498    0.0000 O   0  0  0  0  0  0  0  0  0  0  0  0
   -0.6623    8.4636    0.0000 O   0  0  0  0  0  0  0  0  0  0  0  0
   -2.9905   10.2825    0.0000 C   0  0  0  0  0  0  0  0  0  0  0  0
   -4.4577    9.9707    0.0000 C   0  0  0  0  0  0  0  0  0  0  0  0
   -5.9703    5.5921    0.0000 C   0  0  0  0  0  0  0  0  0  0  0  0
   -3.0311    0.7500    0.0000 C   0  0  0  0  0  0  0  0  0  0  0  0
   -1.7321    1.5000    0.0000 C   0  0  0  0  0  0  0  0  0  0  0  0
   -0.4330    0.7500    0.0000 C   0  0  0  0  0  0  0  0  0  0  0  0
    0.8660    0.0000    0.0000 C   0  0  0  0  0  0  0  0  0  0  0  0
  2  1  1  1
  2  3  1  0
  3  4  1  0
  4  5  1  0
  5  6  1  0
  6  7  2  0
  7  8  1  0
  8  9  2  0
  8 10  1  0
 10 11  1  0
 11 12  1  0
 12 13  2  0
 13 14  1  0
 14 15  1  0
 15 16  1  0
 16 17  2  0
 17 18  1  0
 18 19  2  0
 19 20  1  0
 20 21  2  0
 15 22  1  6
 22 23  1  0
 23 24  1  0
 24 25  1  0
 25 26  2  0
 25 27  2  0
 25 28  1  0
 28 29  1  0
 14 30  1  0
  7 31  1  0
 31 32  1  0
 33 32  1  6
 33 34  1  0
 33  2  1  0
 34  2  1  0
 31  4  2  0
 30 11  2  0
 21 16  1  0
 29 22  1  0
M  END
>  <Compound_ID>  (225) 
CHEMBL3426308

>  <Molecule Name>  (225) 
nan

>  <Molecular Weight>  (225) 
479.61

>  <AlogP>  (225) 
3.40

>  <Smiles>  (225) 
C[C@@]12Cc3[nH]nc(C(=O)Nc4cnn([C@H](c5ccccc5)C5CCS(=O)(=O)CC5)c4)c3C[C@@H]1C2

>  <Standard Type>  (225) 
Ki

>  <Standard Relation>  (225) 
'='

>  <Standard Units>  (225) 
nM

>  <Standard Value>  (225) 
0.2

>  <Assay ChEMBL ID>  (225) 
CHEMBL3428280

>  <Assay Description>  (225) 
Inhibition of GST-tagged recombinant full length human ITK using AcEFPIYDFLPAKKK-NH2 as substrate after 35 mins by Morrison plot analysis

>  <BAO Format ID>  (225) 
BAO_0000357

>  <BAO Label>  (225) 
single protein format

>  <Assay Organism>  (225) 
Homo sapiens

>  <Target ChEMBL ID>  (225) 
CHEMBL2959

>  <Target Name>  (225) 
Tyrosine-protein kinase ITK/TSK

>  <Target Organism>  (225) 
Homo sapiens

>  <Target Type>  (225) 
SINGLE PROTEIN

>  <Document ChEMBL ID>  (225) 
CHEMBL3425442

>  <Source Description>  (225) 
Scientific Literature

>  <Document Journal>  (225) 
J Med Chem

>  <Document Year>  (225) 
2015.0

>  <Active>  (225) 
1.0

$$$$

     RDKit          2D

 28 31  0  0  0  0  0  0  0  0999 V2000
  -13.4476    1.1359    0.0000 C   0  0  0  0  0  0  0  0  0  0  0  0
  -12.0210    0.6723    0.0000 N   0  0  0  0  0  0  0  0  0  0  0  0
  -10.9063    1.6760    0.0000 C   0  0  0  0  0  0  0  0  0  0  0  0
  -11.7091   -0.7949    0.0000 C   0  0  0  0  0  0  0  0  0  0  0  0
  -10.2825   -1.2584    0.0000 C   0  0  0  0  0  0  0  0  0  0  0  0
   -9.1678   -0.2547    0.0000 C   0  0  0  0  0  0  0  0  0  0  0  0
   -7.7412   -0.7182    0.0000 C   0  0  0  0  0  0  0  0  0  0  0  0
   -7.4293   -2.1855    0.0000 C   0  0  0  0  0  0  0  0  0  0  0  0
   -8.5441   -3.1891    0.0000 C   0  0  0  0  0  0  0  0  0  0  0  0
   -8.2322   -4.6564    0.0000 C   0  0  0  0  0  0  0  0  0  0  0  0
   -6.8056   -5.1199    0.0000 N   0  0  0  0  0  0  0  0  0  0  0  0
   -5.5921   -4.2382    0.0000 C   0  0  0  0  0  0  0  0  0  0  0  0
   -4.3786   -5.1199    0.0000 C   0  0  0  0  0  0  0  0  0  0  0  0
   -2.9520   -4.6564    0.0000 N   0  0  0  0  0  0  0  0  0  0  0  0
   -2.6401   -3.1891    0.0000 C   0  0  0  0  0  0  0  0  0  0  0  0
   -3.7548   -2.1855    0.0000 O   0  0  0  0  0  0  0  0  0  0  0  0
   -1.2135   -2.7256    0.0000 C   0  0  0  0  0  0  0  0  0  0  0  0
   -0.0000   -3.6073    0.0000 N   0  0  0  0  0  0  0  0  0  0  0  0
    1.2135   -2.7256    0.0000 N   0  0  0  0  0  0  0  0  0  0  0  0
    0.7500   -1.2990    0.0000 C   0  0  0  0  0  0  0  0  0  0  0  0
    1.5000    0.0000    0.0000 C   0  0  0  0  0  0  0  0  0  0  0  0
    0.7500    1.2990    0.0000 C   0  0  0  0  0  0  0  0  0  0  0  0
   -0.7500    1.2990    0.0000 C   0  0  0  0  0  0  0  0  0  0  0  0
   -1.5000    0.0000    0.0000 C   0  0  0  0  0  0  0  0  0  0  0  0
   -0.7500   -1.2990    0.0000 C   0  0  0  0  0  0  0  0  0  0  0  0
   -4.8421   -6.5465    0.0000 C   0  0  0  0  0  0  0  0  0  0  0  0
   -6.3421   -6.5465    0.0000 N   0  0  0  0  0  0  0  0  0  0  0  0
   -9.9707   -2.7256    0.0000 C   0  0  0  0  0  0  0  0  0  0  0  0
  1  2  1  0
  2  3  1  0
  2  4  1  0
  4  5  1  0
  5  6  2  0
  6  7  1  0
  7  8  2  0
  8  9  1  0
  9 10  1  0
 10 11  1  0
 11 12  1  0
 12 13  2  0
 13 14  1  0
 14 15  1  0
 15 16  2  0
 15 17  1  0
 17 18  2  0
 18 19  1  0
 19 20  1  0
 20 21  2  0
 21 22  1  0
 22 23  2  0
 23 24  1  0
 24 25  2  0
 13 26  1  0
 26 27  2  0
  9 28  2  0
 28  5  1  0
 27 11  1  0
 25 17  1  0
 25 20  1  0
M  END
>  <Compound_ID>  (226) 
CHEMBL3263048

>  <Molecule Name>  (226) 
nan

>  <Molecular Weight>  (226) 
374.45

>  <AlogP>  (226) 
3.12

>  <Smiles>  (226) 
CN(C)Cc1cccc(Cn2cc(NC(=O)c3n[nH]c4ccccc34)cn2)c1

>  <Standard Type>  (226) 
Ki

>  <Standard Relation>  (226) 
'='

>  <Standard Units>  (226) 
nM

>  <Standard Value>  (226) 
44.0

>  <Assay ChEMBL ID>  (226) 
CHEMBL3267591

>  <Assay Description>  (226) 
Inhibition of full-length ITK (unknown origin) using biotin-EQEDEPEGIYGVLF-NH2 as substrate by plate reader analysis

>  <BAO Format ID>  (226) 
BAO_0000357

>  <BAO Label>  (226) 
single protein format

>  <Assay Organism>  (226) 
Homo sapiens

>  <Target ChEMBL ID>  (226) 
CHEMBL2959

>  <Target Name>  (226) 
Tyrosine-protein kinase ITK/TSK

>  <Target Organism>  (226) 
Homo sapiens

>  <Target Type>  (226) 
SINGLE PROTEIN

>  <Document ChEMBL ID>  (226) 
CHEMBL3259776

>  <Source Description>  (226) 
Scientific Literature

>  <Document Journal>  (226) 
Bioorg Med Chem Lett

>  <Document Year>  (226) 
2014.0

>  <Active>  (226) 
1.0

$$$$

     RDKit          2D

 37 41  0  0  0  0  0  0  0  0999 V2000
    3.7500   -1.2990    0.0000 C   0  0  0  0  0  0  0  0  0  0  0  0
    3.0000    0.0000    0.0000 N   0  0  0  0  0  0  0  0  0  0  0  0
    1.5000    0.0000    0.0000 C   0  0  0  0  0  0  0  0  0  0  0  0
    0.7500   -1.2990    0.0000 C   0  0  0  0  0  0  0  0  0  0  0  0
   -0.7500   -1.2990    0.0000 C   0  0  0  0  0  0  0  0  0  0  0  0
   -1.5000   -2.5981    0.0000 C   0  0  0  0  0  0  0  0  0  0  0  0
   -2.2500   -3.8971    0.0000 N   0  0  0  0  0  0  0  0  0  0  0  0
   -1.5000    0.0000    0.0000 C   0  0  0  0  0  0  0  0  0  0  0  0
   -0.7500    1.2990    0.0000 C   0  0  0  0  0  0  0  0  0  0  0  0
   -1.5000    2.5981    0.0000 C   0  0  0  0  0  0  0  0  0  0  0  0
   -0.7500    3.8971    0.0000 C   0  0  0  0  0  0  0  0  0  0  0  0
   -1.5000    5.1962    0.0000 N   0  0  0  0  0  0  0  0  0  0  0  0
   -3.0000    5.1962    0.0000 C   0  0  0  0  0  0  0  0  0  0  0  0
   -3.7500    6.4952    0.0000 O   0  0  0  0  0  0  0  0  0  0  0  0
   -3.7500    3.8971    0.0000 C   0  0  0  0  0  0  0  0  0  0  0  0
   -5.2500    3.8971    0.0000 N   0  0  0  0  0  0  0  0  0  0  0  0
   -6.0000    2.5981    0.0000 C   0  0  0  0  0  0  0  0  0  0  0  0
   -5.2500    1.2990    0.0000 O   0  0  0  0  0  0  0  0  0  0  0  0
   -7.5000    2.5981    0.0000 C   0  0  0  0  0  0  0  0  0  0  0  0
   -8.2500    3.8971    0.0000 C   0  0  0  0  0  0  0  0  0  0  0  0
   -9.7500    3.8971    0.0000 C   0  0  0  0  0  0  0  0  0  0  0  0
  -10.5000    2.5981    0.0000 C   0  0  0  0  0  0  0  0  0  0  0  0
  -12.0000    2.5981    0.0000 N   0  0  0  0  0  0  0  0  0  0  0  0
  -12.8817    1.3846    0.0000 C   0  0  0  0  0  0  0  0  0  0  0  0
  -14.3083    1.8481    0.0000 C   0  0  0  0  0  0  0  0  0  0  0  0
  -14.3083    3.3481    0.0000 C   0  0  0  0  0  0  0  0  0  0  0  0
  -12.8817    3.8116    0.0000 C   0  0  0  0  0  0  0  0  0  0  0  0
  -12.4182    5.2382    0.0000 C   0  0  0  0  0  0  0  0  0  0  0  0
  -13.4218    6.3529    0.0000 N   0  0  0  0  0  0  0  0  0  0  0  0
  -14.9136    6.1961    0.0000 C   0  0  0  0  0  0  0  0  0  0  0  0
  -15.5237    7.5664    0.0000 C   0  0  0  0  0  0  0  0  0  0  0  0
  -14.4090    8.5701    0.0000 C   0  0  0  0  0  0  0  0  0  0  0  0
  -13.1100    7.8201    0.0000 C   0  0  0  0  0  0  0  0  0  0  0  0
   -9.7500    1.2990    0.0000 C   0  0  0  0  0  0  0  0  0  0  0  0
   -8.2500    1.2990    0.0000 C   0  0  0  0  0  0  0  0  0  0  0  0
   -3.0000    2.5981    0.0000 C   0  0  0  0  0  0  0  0  0  0  0  0
    0.7500    1.2990    0.0000 C   0  0  0  0  0  0  0  0  0  0  0  0
  1  2  1  0
  2  3  1  0
  3  4  2  0
  4  5  1  0
  5  6  1  0
  6  7  3  0
  5  8  2  0
  8  9  1  0
  9 10  1  0
 10 11  2  0
 11 12  1  0
 12 13  1  0
 13 14  2  0
 13 15  1  0
 15 16  1  0
 16 17  1  0
 17 18  2  0
 17 19  1  0
 19 20  2  0
 20 21  1  0
 21 22  2  0
 22 23  1  0
 23 24  1  0
 24 25  1  0
 25 26  1  0
 26 27  1  0
 27 28  1  1
 28 29  1  0
 29 30  1  0
 30 31  1  0
 31 32  1  0
 32 33  1  0
 22 34  1  0
 34 35  2  0
 15 36  2  0
  9 37  2  0
 37  3  1  0
 36 10  1  0
 35 19  1  0
 27 23  1  0
 33 29  1  0
M  END
>  <Compound_ID>  (227) 
CHEMBL1765784

>  <Molecule Name>  (227) 
nan

>  <Molecular Weight>  (227) 
496.62

>  <AlogP>  (227) 
4.27

>  <Smiles>  (227) 
CNc1cc(C#N)cc(-c2c[nH]c(=O)c(NC(=O)c3ccc(N4CCC[C@H]4CN4CCCC4)cc3)c2)c1

>  <Standard Type>  (227) 
Ki

>  <Standard Relation>  (227) 
'='

>  <Standard Units>  (227) 
nM

>  <Standard Value>  (227) 
27.0

>  <Assay ChEMBL ID>  (227) 
CHEMBL1768448

>  <Assay Description>  (227) 
Inhibition of Itk after 40 mins by radiometric phosphate incorporation assay

>  <BAO Format ID>  (227) 
BAO_0000357

>  <BAO Label>  (227) 
single protein format

>  <Assay Organism>  (227) 
None

>  <Target ChEMBL ID>  (227) 
CHEMBL2959

>  <Target Name>  (227) 
Tyrosine-protein kinase ITK/TSK

>  <Target Organism>  (227) 
Homo sapiens

>  <Target Type>  (227) 
SINGLE PROTEIN

>  <Document ChEMBL ID>  (227) 
CHEMBL1765075

>  <Source Description>  (227) 
Scientific Literature

>  <Document Journal>  (227) 
J Med Chem

>  <Document Year>  (227) 
2011.0

>  <Active>  (227) 
1.0

$$$$

     RDKit          2D

 39 43  0  0  0  0  0  0  0  0999 V2000
    0.2010   -3.3481    0.0000 O   0  0  0  0  0  0  0  0  0  0  0  0
    1.5000   -2.5981    0.0000 S   0  0  0  0  0  0  0  0  0  0  0  0
    2.7990   -1.8481    0.0000 O   0  0  0  0  0  0  0  0  0  0  0  0
    0.7500   -1.2990    0.0000 C   0  0  0  0  0  0  0  0  0  0  0  0
    1.5000    0.0000    0.0000 C   0  0  0  0  0  0  0  0  0  0  0  0
    0.7500    1.2990    0.0000 C   0  0  0  0  0  0  0  0  0  0  0  0
   -0.7500    1.2990    0.0000 C   0  0  0  0  0  0  0  0  0  0  0  0
   -1.5000    0.0000    0.0000 C   0  0  0  0  0  0  0  0  0  0  0  0
   -0.7500   -1.2990    0.0000 C   0  0  0  0  0  0  0  0  0  0  0  0
    2.2500   -3.8971    0.0000 C   0  0  0  0  0  0  0  0  0  0  0  0
    1.5000   -5.1962    0.0000 C   0  0  0  0  0  0  0  0  0  0  0  0
    2.2500   -6.4952    0.0000 C   0  0  0  0  0  0  0  0  0  0  0  0
    1.5000   -7.7942    0.0000 N   0  0  0  0  0  0  0  0  0  0  0  0
    0.0000   -7.7942    0.0000 C   0  0  0  0  0  0  0  0  0  0  0  0
   -0.8817   -9.0078    0.0000 C   0  0  0  0  0  0  0  0  0  0  0  0
   -2.3083   -8.5442    0.0000 C   0  0  0  0  0  0  0  0  0  0  0  0
   -3.5218   -9.4259    0.0000 C   0  0  0  0  0  0  0  0  0  0  0  0
   -4.8921   -8.8158    0.0000 C   0  0  0  0  0  0  0  0  0  0  0  0
   -6.1056   -9.6975    0.0000 C   0  0  0  0  0  0  0  0  0  0  0  0
   -5.9488  -11.1893    0.0000 C   0  0  0  0  0  0  0  0  0  0  0  0
   -7.1624  -12.0709    0.0000 C   0  0  0  0  0  0  0  0  0  0  0  0
   -8.3759  -12.9526    0.0000 F   0  0  0  0  0  0  0  0  0  0  0  0
   -8.0440  -10.8574    0.0000 F   0  0  0  0  0  0  0  0  0  0  0  0
   -6.2807  -13.2845    0.0000 F   0  0  0  0  0  0  0  0  0  0  0  0
   -4.5785  -11.7994    0.0000 C   0  0  0  0  0  0  0  0  0  0  0  0
   -3.3650  -10.9177    0.0000 C   0  0  0  0  0  0  0  0  0  0  0  0
   -2.3083   -7.0442    0.0000 N   0  0  0  0  0  0  0  0  0  0  0  0
   -0.8817   -6.5807    0.0000 N   0  0  0  0  0  0  0  0  0  0  0  0
    3.7500   -6.4952    0.0000 N   0  0  0  0  0  0  0  0  0  0  0  0
    4.5000   -5.1962    0.0000 C   0  0  0  0  0  0  0  0  0  0  0  0
    6.0000   -5.1962    0.0000 N   0  0  0  0  0  0  0  0  0  0  0  0
    6.7500   -6.4952    0.0000 C   0  0  0  0  0  0  0  0  0  0  0  0
    6.0000   -7.7942    0.0000 C   0  0  0  0  0  0  0  0  0  0  0  0
    6.7500   -9.0933    0.0000 C   0  0  0  0  0  0  0  0  0  0  0  0
    8.2500   -9.0933    0.0000 C   0  0  0  0  0  0  0  0  0  0  0  0
    9.0000  -10.3923    0.0000 O   0  0  0  0  0  0  0  0  0  0  0  0
    9.0000   -7.7942    0.0000 C   0  0  0  0  0  0  0  0  0  0  0  0
    8.2500   -6.4952    0.0000 C   0  0  0  0  0  0  0  0  0  0  0  0
    3.7500   -3.8971    0.0000 C   0  0  0  0  0  0  0  0  0  0  0  0
  1  2  2  0
  2  3  2  0
  2  4  1  0
  4  5  2  0
  5  6  1  0
  6  7  2  0
  7  8  1  0
  8  9  2  0
  2 10  1  0
 10 11  2  0
 11 12  1  0
 12 13  1  0
 13 14  1  0
 14 15  1  0
 15 16  2  0
 16 17  1  0
 17 18  2  0
 18 19  1  0
 19 20  2  0
 20 21  1  0
 21 22  1  0
 21 23  1  0
 21 24  1  0
 20 25  1  0
 25 26  2  0
 16 27  1  0
 27 28  1  0
 12 29  2  0
 29 30  1  0
 30 31  1  0
 32 31  1  6
 32 33  1  0
 33 34  1  0
 34 35  1  0
 35 36  1  1
 35 37  1  0
 37 38  1  0
 30 39  2  0
  9  4  1  0
 39 10  1  0
 28 14  2  0
 38 32  1  0
 26 17  1  0
M  END
>  <Compound_ID>  (228) 
CHEMBL3355734

>  <Molecule Name>  (228) 
nan

>  <Molecular Weight>  (228) 
557.6

>  <AlogP>  (228) 
5.78

>  <Smiles>  (228) 
O=S(=O)(c1ccccc1)c1cc(Nc2cc(-c3ccc(C(F)(F)F)cc3)[nH]n2)nc(N[C@H]2CC[C@H](O)CC2)c1

>  <Standard Type>  (228) 
Ki

>  <Standard Relation>  (228) 
'='

>  <Standard Units>  (228) 
nM

>  <Standard Value>  (228) 
20.0

>  <Assay ChEMBL ID>  (228) 
CHEMBL3389531

>  <Assay Description>  (228) 
Inhibition of GST-tagged full-length ITK (unknown origin) using Ac-EFPIYDFLPAKKK-NH2 as substrate after 35 mins by LC/MS analysis

>  <BAO Format ID>  (228) 
BAO_0000357

>  <BAO Label>  (228) 
single protein format

>  <Assay Organism>  (228) 
Homo sapiens

>  <Target ChEMBL ID>  (228) 
CHEMBL2959

>  <Target Name>  (228) 
Tyrosine-protein kinase ITK/TSK

>  <Target Organism>  (228) 
Homo sapiens

>  <Target Type>  (228) 
SINGLE PROTEIN

>  <Document ChEMBL ID>  (228) 
CHEMBL3352735

>  <Source Description>  (228) 
Scientific Literature

>  <Document Journal>  (228) 
Bioorg Med Chem Lett

>  <Document Year>  (228) 
2014.0

>  <Active>  (228) 
1.0

$$$$

     RDKit          2D

 43 47  0  0  0  0  0  0  0  0999 V2000
  -11.1975    2.9107    0.0000 C   0  0  0  0  0  0  0  0  0  0  0  0
   -9.7709    3.3742    0.0000 C   0  0  0  0  0  0  0  0  0  0  0  0
   -8.6562    2.3705    0.0000 C   0  0  0  0  0  0  0  0  0  0  0  0
   -8.9681    0.9033    0.0000 O   0  0  0  0  0  0  0  0  0  0  0  0
   -7.2296    2.8340    0.0000 N   0  0  0  0  0  0  0  0  0  0  0  0
   -6.1149    1.8303    0.0000 C   0  0  0  0  0  0  0  0  0  0  0  0
   -4.6883    2.2939    0.0000 C   0  0  0  0  0  0  0  0  0  0  0  0
   -3.5736    1.2902    0.0000 O   0  0  0  0  0  0  0  0  0  0  0  0
   -2.1470    1.7537    0.0000 C   0  0  0  0  0  0  0  0  0  0  0  0
   -1.8351    3.2209    0.0000 C   0  0  0  0  0  0  0  0  0  0  0  0
   -0.4086    3.6844    0.0000 C   0  0  0  0  0  0  0  0  0  0  0  0
   -0.0967    5.1517    0.0000 C   0  0  0  0  0  0  0  0  0  0  0  0
   -1.2114    6.1554    0.0000 O   0  0  0  0  0  0  0  0  0  0  0  0
   -0.8995    7.6226    0.0000 C   0  0  0  0  0  0  0  0  0  0  0  0
   -2.0143    8.6263    0.0000 C   0  0  0  0  0  0  0  0  0  0  0  0
   -1.7024   10.0935    0.0000 S   0  0  0  0  0  0  0  0  0  0  0  0
   -1.3905   11.5607    0.0000 C   0  0  0  0  0  0  0  0  0  0  0  0
   -0.2352    9.7816    0.0000 O   0  0  0  0  0  0  0  0  0  0  0  0
   -3.1696   10.4054    0.0000 O   0  0  0  0  0  0  0  0  0  0  0  0
    1.3299    5.6152    0.0000 C   0  0  0  0  0  0  0  0  0  0  0  0
    2.4446    4.6115    0.0000 C   0  0  0  0  0  0  0  0  0  0  0  0
    3.8712    5.0750    0.0000 C   0  0  0  0  0  0  0  0  0  0  0  0
    4.1831    6.5422    0.0000 C   0  0  0  0  0  0  0  0  0  0  0  0
    3.0684    7.5459    0.0000 C   0  0  0  0  0  0  0  0  0  0  0  0
    1.6418    7.0824    0.0000 C   0  0  0  0  0  0  0  0  0  0  0  0
    0.7062    2.6807    0.0000 C   0  0  0  0  0  0  0  0  0  0  0  0
    0.3943    1.2135    0.0000 C   0  0  0  0  0  0  0  0  0  0  0  0
    1.2760    0.0000    0.0000 N   0  0  0  0  0  0  0  0  0  0  0  0
    0.3943   -1.2135    0.0000 C   0  0  0  0  0  0  0  0  0  0  0  0
    0.8578   -2.6401    0.0000 C   0  0  0  0  0  0  0  0  0  0  0  0
    2.2844   -3.1036    0.0000 N   0  0  0  0  0  0  0  0  0  0  0  0
    2.2844   -4.6036    0.0000 N   0  0  0  0  0  0  0  0  0  0  0  0
    0.8578   -5.0672    0.0000 C   0  0  0  0  0  0  0  0  0  0  0  0
    0.2477   -6.4375    0.0000 C   0  0  0  0  0  0  0  0  0  0  0  0
   -1.2441   -6.5943    0.0000 C   0  0  0  0  0  0  0  0  0  0  0  0
   -1.8542   -7.9646    0.0000 C   0  0  0  0  0  0  0  0  0  0  0  0
   -3.3460   -8.1214    0.0000 F   0  0  0  0  0  0  0  0  0  0  0  0
   -0.9725   -9.1781    0.0000 F   0  0  0  0  0  0  0  0  0  0  0  0
   -2.1257   -5.3807    0.0000 C   0  0  0  0  0  0  0  0  0  0  0  0
   -1.5156   -4.0104    0.0000 C   0  0  0  0  0  0  0  0  0  0  0  0
   -0.0239   -3.8536    0.0000 C   0  0  0  0  0  0  0  0  0  0  0  0
   -1.0323   -0.7500    0.0000 C   0  0  0  0  0  0  0  0  0  0  0  0
   -1.0323    0.7500    0.0000 C   0  0  0  0  0  0  0  0  0  0  0  0
  1  2  2  0
  2  3  1  0
  3  4  2  0
  3  5  1  0
  5  6  1  0
  6  7  1  0
  7  8  1  0
  8  9  1  0
  9 10  2  0
 10 11  1  0
 11 12  1  0
 12 13  1  0
 13 14  1  0
 14 15  1  0
 15 16  1  0
 16 17  1  0
 16 18  2  0
 16 19  2  0
 12 20  1  0
 20 21  2  0
 21 22  1  0
 22 23  2  0
 23 24  1  0
 24 25  2  0
 11 26  2  0
 26 27  1  0
 27 28  1  0
 28 29  1  0
 29 30  1  0
 30 31  2  0
 31 32  1  0
 32 33  1  0
 33 34  2  0
 34 35  1  0
 35 36  1  0
 36 37  1  0
 36 38  1  0
 35 39  2  0
 39 40  1  0
 40 41  2  0
 29 42  2  0
 42 43  1  0
 43  9  1  0
 25 20  1  0
 43 27  2  0
 41 30  1  0
 41 33  1  0
M  END
>  <Compound_ID>  (229) 
CHEMBL4645223

>  <Molecule Name>  (229) 
nan

>  <Molecular Weight>  (229) 
608.67

>  <AlogP>  (229) 
5.48

>  <Smiles>  (229) 
C=CC(=O)NCCOc1cc(C(OCCS(C)(=O)=O)c2ccccc2)cc2[nH]c(-c3n[nH]c4cc(C(F)F)ccc34)cc12

>  <Standard Type>  (229) 
IC50

>  <Standard Relation>  (229) 
'='

>  <Standard Units>  (229) 
nM

>  <Standard Value>  (229) 
65.0

>  <Assay ChEMBL ID>  (229) 
CHEMBL4603778

>  <Assay Description>  (229) 
Inhibition of ITK (unknown origin) using TK as substrate incubated for 30 mins by HTRF assay

>  <BAO Format ID>  (229) 
BAO_0000357

>  <BAO Label>  (229) 
single protein format

>  <Assay Organism>  (229) 
Homo sapiens

>  <Target ChEMBL ID>  (229) 
CHEMBL2959

>  <Target Name>  (229) 
Tyrosine-protein kinase ITK/TSK

>  <Target Organism>  (229) 
Homo sapiens

>  <Target Type>  (229) 
SINGLE PROTEIN

>  <Document ChEMBL ID>  (229) 
CHEMBL4602634

>  <Source Description>  (229) 
Scientific Literature

>  <Document Journal>  (229) 
Eur J Med Chem

>  <Document Year>  (229) 
2020.0

>  <Active>  (229) 
1.0

$$$$

     RDKit          2D

 36 40  0  0  0  0  0  0  0  0999 V2000
    0.2010   -3.3481    0.0000 O   0  0  0  0  0  0  0  0  0  0  0  0
    1.5000   -2.5981    0.0000 S   0  0  0  0  0  0  0  0  0  0  0  0
    2.7990   -1.8481    0.0000 O   0  0  0  0  0  0  0  0  0  0  0  0
    0.7500   -1.2990    0.0000 C   0  0  0  0  0  0  0  0  0  0  0  0
    1.5000    0.0000    0.0000 C   0  0  0  0  0  0  0  0  0  0  0  0
    0.7500    1.2990    0.0000 C   0  0  0  0  0  0  0  0  0  0  0  0
   -0.7500    1.2990    0.0000 C   0  0  0  0  0  0  0  0  0  0  0  0
   -1.5000    0.0000    0.0000 C   0  0  0  0  0  0  0  0  0  0  0  0
   -0.7500   -1.2990    0.0000 C   0  0  0  0  0  0  0  0  0  0  0  0
    2.2500   -3.8971    0.0000 C   0  0  0  0  0  0  0  0  0  0  0  0
    1.5000   -5.1962    0.0000 C   0  0  0  0  0  0  0  0  0  0  0  0
    2.2500   -6.4952    0.0000 C   0  0  0  0  0  0  0  0  0  0  0  0
    1.5000   -7.7942    0.0000 N   0  0  0  0  0  0  0  0  0  0  0  0
    0.0000   -7.7942    0.0000 C   0  0  0  0  0  0  0  0  0  0  0  0
   -0.8817   -9.0078    0.0000 C   0  0  0  0  0  0  0  0  0  0  0  0
   -2.3083   -8.5442    0.0000 C   0  0  0  0  0  0  0  0  0  0  0  0
   -3.5218   -9.4259    0.0000 C   0  0  0  0  0  0  0  0  0  0  0  0
   -4.8921   -8.8158    0.0000 C   0  0  0  0  0  0  0  0  0  0  0  0
   -6.1056   -9.6975    0.0000 C   0  0  0  0  0  0  0  0  0  0  0  0
   -5.9488  -11.1893    0.0000 C   0  0  0  0  0  0  0  0  0  0  0  0
   -7.1624  -12.0709    0.0000 F   0  0  0  0  0  0  0  0  0  0  0  0
   -4.5785  -11.7994    0.0000 C   0  0  0  0  0  0  0  0  0  0  0  0
   -3.3650  -10.9177    0.0000 C   0  0  0  0  0  0  0  0  0  0  0  0
   -2.3083   -7.0442    0.0000 N   0  0  0  0  0  0  0  0  0  0  0  0
   -0.8817   -6.5807    0.0000 N   0  0  0  0  0  0  0  0  0  0  0  0
    3.7500   -6.4952    0.0000 N   0  0  0  0  0  0  0  0  0  0  0  0
    4.5000   -5.1962    0.0000 C   0  0  0  0  0  0  0  0  0  0  0  0
    6.0000   -5.1962    0.0000 N   0  0  0  0  0  0  0  0  0  0  0  0
    6.7500   -6.4952    0.0000 C   0  0  0  0  0  0  0  0  0  0  0  0
    6.0000   -7.7942    0.0000 C   0  0  0  0  0  0  0  0  0  0  0  0
    6.7500   -9.0933    0.0000 C   0  0  0  0  0  0  0  0  0  0  0  0
    8.2500   -9.0933    0.0000 C   0  0  0  0  0  0  0  0  0  0  0  0
    9.0000  -10.3923    0.0000 O   0  0  0  0  0  0  0  0  0  0  0  0
    9.0000   -7.7942    0.0000 C   0  0  0  0  0  0  0  0  0  0  0  0
    8.2500   -6.4952    0.0000 C   0  0  0  0  0  0  0  0  0  0  0  0
    3.7500   -3.8971    0.0000 C   0  0  0  0  0  0  0  0  0  0  0  0
  1  2  2  0
  2  3  2  0
  2  4  1  0
  4  5  2  0
  5  6  1  0
  6  7  2  0
  7  8  1  0
  8  9  2  0
  2 10  1  0
 10 11  2  0
 11 12  1  0
 12 13  1  0
 13 14  1  0
 14 15  1  0
 15 16  2  0
 16 17  1  0
 17 18  2  0
 18 19  1  0
 19 20  2  0
 20 21  1  0
 20 22  1  0
 22 23  2  0
 16 24  1  0
 24 25  1  0
 12 26  2  0
 26 27  1  0
 27 28  1  0
 29 28  1  6
 29 30  1  0
 30 31  1  0
 31 32  1  0
 32 33  1  1
 32 34  1  0
 34 35  1  0
 27 36  2  0
  9  4  1  0
 36 10  1  0
 25 14  2  0
 35 29  1  0
 23 17  1  0
M  END
>  <Compound_ID>  (230) 
CHEMBL3355733

>  <Molecule Name>  (230) 
nan

>  <Molecular Weight>  (230) 
507.59

>  <AlogP>  (230) 
4.90

>  <Smiles>  (230) 
O=S(=O)(c1ccccc1)c1cc(Nc2cc(-c3ccc(F)cc3)[nH]n2)nc(N[C@H]2CC[C@H](O)CC2)c1

>  <Standard Type>  (230) 
Ki

>  <Standard Relation>  (230) 
'='

>  <Standard Units>  (230) 
nM

>  <Standard Value>  (230) 
1.8

>  <Assay ChEMBL ID>  (230) 
CHEMBL3389531

>  <Assay Description>  (230) 
Inhibition of GST-tagged full-length ITK (unknown origin) using Ac-EFPIYDFLPAKKK-NH2 as substrate after 35 mins by LC/MS analysis

>  <BAO Format ID>  (230) 
BAO_0000357

>  <BAO Label>  (230) 
single protein format

>  <Assay Organism>  (230) 
Homo sapiens

>  <Target ChEMBL ID>  (230) 
CHEMBL2959

>  <Target Name>  (230) 
Tyrosine-protein kinase ITK/TSK

>  <Target Organism>  (230) 
Homo sapiens

>  <Target Type>  (230) 
SINGLE PROTEIN

>  <Document ChEMBL ID>  (230) 
CHEMBL3352735

>  <Source Description>  (230) 
Scientific Literature

>  <Document Journal>  (230) 
Bioorg Med Chem Lett

>  <Document Year>  (230) 
2014.0

>  <Active>  (230) 
1.0

$$$$

     RDKit          2D

 35 39  0  0  0  0  0  0  0  0999 V2000
    0.2010   -3.3481    0.0000 O   0  0  0  0  0  0  0  0  0  0  0  0
    1.5000   -2.5981    0.0000 S   0  0  0  0  0  0  0  0  0  0  0  0
    2.7990   -1.8481    0.0000 O   0  0  0  0  0  0  0  0  0  0  0  0
    0.7500   -1.2990    0.0000 C   0  0  0  0  0  0  0  0  0  0  0  0
    1.5000    0.0000    0.0000 C   0  0  0  0  0  0  0  0  0  0  0  0
    0.7500    1.2990    0.0000 C   0  0  0  0  0  0  0  0  0  0  0  0
   -0.7500    1.2990    0.0000 C   0  0  0  0  0  0  0  0  0  0  0  0
   -1.5000    0.0000    0.0000 C   0  0  0  0  0  0  0  0  0  0  0  0
   -0.7500   -1.2990    0.0000 C   0  0  0  0  0  0  0  0  0  0  0  0
    2.2500   -3.8971    0.0000 C   0  0  0  0  0  0  0  0  0  0  0  0
    1.5000   -5.1962    0.0000 C   0  0  0  0  0  0  0  0  0  0  0  0
    2.2500   -6.4952    0.0000 C   0  0  0  0  0  0  0  0  0  0  0  0
    1.5000   -7.7942    0.0000 N   0  0  0  0  0  0  0  0  0  0  0  0
    0.0000   -7.7942    0.0000 C   0  0  0  0  0  0  0  0  0  0  0  0
   -0.8817   -9.0078    0.0000 C   0  0  0  0  0  0  0  0  0  0  0  0
   -2.3083   -8.5442    0.0000 C   0  0  0  0  0  0  0  0  0  0  0  0
   -3.5218   -9.4259    0.0000 C   0  0  0  0  0  0  0  0  0  0  0  0
   -4.8921   -8.8158    0.0000 C   0  0  0  0  0  0  0  0  0  0  0  0
   -6.1056   -9.6975    0.0000 C   0  0  0  0  0  0  0  0  0  0  0  0
   -5.9488  -11.1893    0.0000 C   0  0  0  0  0  0  0  0  0  0  0  0
   -4.5785  -11.7994    0.0000 C   0  0  0  0  0  0  0  0  0  0  0  0
   -3.3650  -10.9177    0.0000 C   0  0  0  0  0  0  0  0  0  0  0  0
   -2.3083   -7.0442    0.0000 N   0  0  0  0  0  0  0  0  0  0  0  0
   -0.8817   -6.5807    0.0000 N   0  0  0  0  0  0  0  0  0  0  0  0
    3.7500   -6.4952    0.0000 N   0  0  0  0  0  0  0  0  0  0  0  0
    4.5000   -5.1962    0.0000 C   0  0  0  0  0  0  0  0  0  0  0  0
    6.0000   -5.1962    0.0000 N   0  0  0  0  0  0  0  0  0  0  0  0
    6.7500   -6.4952    0.0000 C   0  0  0  0  0  0  0  0  0  0  0  0
    6.0000   -7.7942    0.0000 C   0  0  0  0  0  0  0  0  0  0  0  0
    6.7500   -9.0933    0.0000 C   0  0  0  0  0  0  0  0  0  0  0  0
    8.2500   -9.0933    0.0000 C   0  0  0  0  0  0  0  0  0  0  0  0
    9.0000  -10.3923    0.0000 O   0  0  0  0  0  0  0  0  0  0  0  0
    9.0000   -7.7942    0.0000 C   0  0  0  0  0  0  0  0  0  0  0  0
    8.2500   -6.4952    0.0000 C   0  0  0  0  0  0  0  0  0  0  0  0
    3.7500   -3.8971    0.0000 C   0  0  0  0  0  0  0  0  0  0  0  0
  1  2  2  0
  2  3  2  0
  2  4  1  0
  4  5  2  0
  5  6  1  0
  6  7  2  0
  7  8  1  0
  8  9  2  0
  2 10  1  0
 10 11  2  0
 11 12  1  0
 12 13  1  0
 13 14  1  0
 14 15  1  0
 15 16  2  0
 16 17  1  0
 17 18  1  0
 18 19  1  0
 19 20  1  0
 20 21  1  0
 21 22  1  0
 16 23  1  0
 23 24  1  0
 12 25  2  0
 25 26  1  0
 26 27  1  0
 28 27  1  6
 28 29  1  0
 29 30  1  0
 30 31  1  0
 31 32  1  1
 31 33  1  0
 33 34  1  0
 26 35  2  0
  9  4  1  0
 35 10  1  0
 24 14  2  0
 34 28  1  0
 22 17  1  0
M  END
>  <Compound_ID>  (231) 
CHEMBL3355738

>  <Molecule Name>  (231) 
nan

>  <Molecular Weight>  (231) 
495.65

>  <AlogP>  (231) 
5.14

>  <Smiles>  (231) 
O=S(=O)(c1ccccc1)c1cc(Nc2cc(C3CCCCC3)[nH]n2)nc(N[C@H]2CC[C@H](O)CC2)c1

>  <Standard Type>  (231) 
Ki

>  <Standard Relation>  (231) 
'='

>  <Standard Units>  (231) 
nM

>  <Standard Value>  (231) 
0.38

>  <Assay ChEMBL ID>  (231) 
CHEMBL3389531

>  <Assay Description>  (231) 
Inhibition of GST-tagged full-length ITK (unknown origin) using Ac-EFPIYDFLPAKKK-NH2 as substrate after 35 mins by LC/MS analysis

>  <BAO Format ID>  (231) 
BAO_0000357

>  <BAO Label>  (231) 
single protein format

>  <Assay Organism>  (231) 
Homo sapiens

>  <Target ChEMBL ID>  (231) 
CHEMBL2959

>  <Target Name>  (231) 
Tyrosine-protein kinase ITK/TSK

>  <Target Organism>  (231) 
Homo sapiens

>  <Target Type>  (231) 
SINGLE PROTEIN

>  <Document ChEMBL ID>  (231) 
CHEMBL3352735

>  <Source Description>  (231) 
Scientific Literature

>  <Document Journal>  (231) 
Bioorg Med Chem Lett

>  <Document Year>  (231) 
2014.0

>  <Active>  (231) 
1.0

$$$$

     RDKit          2D

 37 41  0  0  0  0  0  0  0  0999 V2000
    3.0000    0.0000    0.0000 O   0  0  0  0  0  0  0  0  0  0  0  0
    1.5000    0.0000    0.0000 C   0  0  0  0  0  0  0  0  0  0  0  0
    0.7500   -1.2990    0.0000 C   0  0  0  0  0  0  0  0  0  0  0  0
   -0.7500   -1.2990    0.0000 C   0  0  0  0  0  0  0  0  0  0  0  0
   -1.5000    0.0000    0.0000 C   0  0  0  0  0  0  0  0  0  0  0  0
   -3.0000    0.0000    0.0000 N   0  0  0  0  0  0  0  0  0  0  0  0
   -3.7500    1.2990    0.0000 C   0  0  0  0  0  0  0  0  0  0  0  0
   -3.0000    2.5981    0.0000 N   0  0  0  0  0  0  0  0  0  0  0  0
   -3.7500    3.8971    0.0000 C   0  0  0  0  0  0  0  0  0  0  0  0
   -3.0000    5.1962    0.0000 N   0  0  0  0  0  0  0  0  0  0  0  0
   -1.5000    5.1962    0.0000 C   0  0  0  0  0  0  0  0  0  0  0  0
   -0.6183    6.4097    0.0000 N   0  0  0  0  0  0  0  0  0  0  0  0
    0.8083    5.9462    0.0000 C   0  0  0  0  0  0  0  0  0  0  0  0
    0.8083    4.4462    0.0000 C   0  0  0  0  0  0  0  0  0  0  0  0
    2.0218    3.5645    0.0000 C   0  0  0  0  0  0  0  0  0  0  0  0
    3.3921    4.1746    0.0000 C   0  0  0  0  0  0  0  0  0  0  0  0
    4.6056    3.2929    0.0000 C   0  0  0  0  0  0  0  0  0  0  0  0
    5.9760    3.9030    0.0000 C   0  0  0  0  0  0  0  0  0  0  0  0
    6.1327    5.3948    0.0000 C   0  0  0  0  0  0  0  0  0  0  0  0
    4.9192    6.2765    0.0000 C   0  0  0  0  0  0  0  0  0  0  0  0
    3.5489    5.6664    0.0000 C   0  0  0  0  0  0  0  0  0  0  0  0
   -0.6183    3.9826    0.0000 S   0  0  0  0  0  0  0  0  0  0  0  0
   -5.2500    3.8971    0.0000 C   0  0  0  0  0  0  0  0  0  0  0  0
   -6.0000    2.5981    0.0000 C   0  0  0  0  0  0  0  0  0  0  0  0
   -7.5000    2.5981    0.0000 C   0  0  0  0  0  0  0  0  0  0  0  0
   -7.5000    1.0981    0.0000 F   0  0  0  0  0  0  0  0  0  0  0  0
   -7.5000    4.0981    0.0000 F   0  0  0  0  0  0  0  0  0  0  0  0
   -9.0000    2.5981    0.0000 C   0  0  0  0  0  0  0  0  0  0  0  0
   -9.7500    3.8971    0.0000 C   0  0  0  0  0  0  0  0  0  0  0  0
  -11.2500    3.8971    0.0000 C   0  0  0  0  0  0  0  0  0  0  0  0
  -12.0000    2.5981    0.0000 C   0  0  0  0  0  0  0  0  0  0  0  0
  -13.5000    2.5981    0.0000 F   0  0  0  0  0  0  0  0  0  0  0  0
  -11.2500    1.2990    0.0000 C   0  0  0  0  0  0  0  0  0  0  0  0
   -9.7500    1.2990    0.0000 C   0  0  0  0  0  0  0  0  0  0  0  0
   -5.2500    1.2990    0.0000 N   0  0  0  0  0  0  0  0  0  0  0  0
   -0.7500    1.2990    0.0000 C   0  0  0  0  0  0  0  0  0  0  0  0
    0.7500    1.2990    0.0000 C   0  0  0  0  0  0  0  0  0  0  0  0
  2  1  1  1
  2  3  1  0
  3  4  1  0
  4  5  1  0
  5  6  1  6
  6  7  1  0
  7  8  2  0
  8  9  1  0
  9 10  1  0
 10 11  1  0
 11 12  2  0
 12 13  1  0
 13 14  2  0
 14 15  1  0
 15 16  1  0
 16 17  2  0
 17 18  1  0
 18 19  2  0
 19 20  1  0
 20 21  2  0
 14 22  1  0
  9 23  2  0
 23 24  1  0
 24 25  1  0
 25 26  1  0
 25 27  1  0
 25 28  1  0
 28 29  2  0
 29 30  1  0
 30 31  2  0
 31 32  1  0
 31 33  1  0
 33 34  2  0
 24 35  2  0
  5 36  1  0
 36 37  1  0
 37  2  1  0
 35  7  1  0
 22 11  1  0
 34 28  1  0
 21 16  1  0
M  END
>  <Compound_ID>  (232) 
CHEMBL2441283

>  <Molecule Name>  (232) 
nan

>  <Molecular Weight>  (232) 
525.6

>  <AlogP>  (232) 
6.26

>  <Smiles>  (232) 
O[C@H]1CC[C@H](Nc2nc(Nc3ncc(Cc4ccccc4)s3)cc(C(F)(F)c3ccc(F)cc3)n2)CC1

>  <Standard Type>  (232) 
Ki

>  <Standard Relation>  (232) 
'='

>  <Standard Units>  (232) 
nM

>  <Standard Value>  (232) 
63.1

>  <Assay ChEMBL ID>  (232) 
CHEMBL2446687

>  <Assay Description>  (232) 
Inhibition of recombinant human FLAG-tagged ITK using biotinylated GST-SAM68 as substrate after 30 mins

>  <BAO Format ID>  (232) 
BAO_0000357

>  <BAO Label>  (232) 
single protein format

>  <Assay Organism>  (232) 
Homo sapiens

>  <Target ChEMBL ID>  (232) 
CHEMBL2959

>  <Target Name>  (232) 
Tyrosine-protein kinase ITK/TSK

>  <Target Organism>  (232) 
Homo sapiens

>  <Target Type>  (232) 
SINGLE PROTEIN

>  <Document ChEMBL ID>  (232) 
CHEMBL2440060

>  <Source Description>  (232) 
Scientific Literature

>  <Document Journal>  (232) 
ACS Med Chem Lett

>  <Document Year>  (232) 
2013.0

>  <Active>  (232) 
1.0

$$$$

     RDKit          2D

 33 37  0  0  0  0  0  0  0  0999 V2000
    3.7500   -1.2990    0.0000 C   0  0  0  0  0  0  0  0  0  0  0  0
    3.0000    0.0000    0.0000 C   0  0  0  0  0  0  0  0  0  0  0  0
    1.5000    0.0000    0.0000 C   0  0  0  0  0  0  0  0  0  0  0  0
    0.7500   -1.2990    0.0000 C   0  0  0  0  0  0  0  0  0  0  0  0
   -0.7500   -1.2990    0.0000 C   0  0  0  0  0  0  0  0  0  0  0  0
   -1.5000    0.0000    0.0000 C   0  0  0  0  0  0  0  0  0  0  0  0
   -2.9672    0.3119    0.0000 N   0  0  0  0  0  0  0  0  0  0  0  0
   -3.1240    1.8037    0.0000 C   0  0  0  0  0  0  0  0  0  0  0  0
   -4.4231    2.5537    0.0000 N   0  0  0  0  0  0  0  0  0  0  0  0
   -4.4231    4.0537    0.0000 C   0  0  0  0  0  0  0  0  0  0  0  0
   -3.1240    4.8037    0.0000 C   0  0  0  0  0  0  0  0  0  0  0  0
   -3.1240    6.3037    0.0000 C   0  0  0  0  0  0  0  0  0  0  0  0
   -1.8250    7.0537    0.0000 C   0  0  0  0  0  0  0  0  0  0  0  0
   -0.5259    6.3037    0.0000 C   0  0  0  0  0  0  0  0  0  0  0  0
   -0.5259    4.8037    0.0000 C   0  0  0  0  0  0  0  0  0  0  0  0
    0.7731    4.0537    0.0000 C   0  0  0  0  0  0  0  0  0  0  0  0
    2.0721    4.8037    0.0000 C   0  0  0  0  0  0  0  0  0  0  0  0
    2.0721    6.3037    0.0000 C   0  0  0  0  0  0  0  0  0  0  0  0
    0.7731    7.0537    0.0000 C   0  0  0  0  0  0  0  0  0  0  0  0
   -4.4231    7.0537    0.0000 N   0  0  0  0  0  0  0  0  0  0  0  0
   -5.7221    6.3037    0.0000 C   0  0  0  0  0  0  0  0  0  0  0  0
   -7.0211    7.0537    0.0000 N   0  0  0  0  0  0  0  0  0  0  0  0
   -7.0211    8.5537    0.0000 C   0  0  0  0  0  0  0  0  0  0  0  0
   -5.7221    9.3037    0.0000 C   0  0  0  0  0  0  0  0  0  0  0  0
   -5.7221   10.8037    0.0000 C   0  0  0  0  0  0  0  0  0  0  0  0
   -7.0211   11.5537    0.0000 C   0  0  0  0  0  0  0  0  0  0  0  0
   -7.0211   13.0537    0.0000 O   0  0  0  0  0  0  0  0  0  0  0  0
   -8.3202   10.8037    0.0000 C   0  0  0  0  0  0  0  0  0  0  0  0
   -8.3202    9.3037    0.0000 C   0  0  0  0  0  0  0  0  0  0  0  0
   -5.7221    4.8037    0.0000 N   0  0  0  0  0  0  0  0  0  0  0  0
   -1.7537    2.4138    0.0000 S   0  0  0  0  0  0  0  0  0  0  0  0
   -0.7500    1.2990    0.0000 C   0  0  0  0  0  0  0  0  0  0  0  0
    0.7500    1.2990    0.0000 N   0  0  0  0  0  0  0  0  0  0  0  0
  1  2  1  0
  2  3  1  0
  3  4  2  0
  4  5  1  0
  5  6  2  0
  6  7  1  0
  7  8  2  0
  8  9  1  0
  9 10  1  0
 10 11  2  0
 11 12  1  0
 12 13  1  0
 13 14  1  0
 14 15  2  0
 15 16  1  0
 16 17  2  0
 17 18  1  0
 18 19  2  0
 12 20  2  0
 20 21  1  0
 21 22  1  0
 23 22  1  6
 23 24  1  0
 24 25  1  0
 25 26  1  0
 26 27  1  1
 26 28  1  0
 28 29  1  0
 21 30  2  0
  8 31  1  0
 31 32  1  0
 32 33  2  0
 33  3  1  0
 32  6  1  0
 30 10  1  0
 19 14  1  0
 29 23  1  0
M  END
>  <Compound_ID>  (233) 
CHEMBL2441277

>  <Molecule Name>  (233) 
nan

>  <Molecular Weight>  (233) 
460.61

>  <AlogP>  (233) 
5.09

>  <Smiles>  (233) 
CCc1ccc2nc(Nc3cc(Cc4ccccc4)nc(N[C@H]4CC[C@H](O)CC4)n3)sc2n1

>  <Standard Type>  (233) 
Ki

>  <Standard Relation>  (233) 
'='

>  <Standard Units>  (233) 
nM

>  <Standard Value>  (233) 
1.585

>  <Assay ChEMBL ID>  (233) 
CHEMBL2446687

>  <Assay Description>  (233) 
Inhibition of recombinant human FLAG-tagged ITK using biotinylated GST-SAM68 as substrate after 30 mins

>  <BAO Format ID>  (233) 
BAO_0000357

>  <BAO Label>  (233) 
single protein format

>  <Assay Organism>  (233) 
Homo sapiens

>  <Target ChEMBL ID>  (233) 
CHEMBL2959

>  <Target Name>  (233) 
Tyrosine-protein kinase ITK/TSK

>  <Target Organism>  (233) 
Homo sapiens

>  <Target Type>  (233) 
SINGLE PROTEIN

>  <Document ChEMBL ID>  (233) 
CHEMBL2440060

>  <Source Description>  (233) 
Scientific Literature

>  <Document Journal>  (233) 
ACS Med Chem Lett

>  <Document Year>  (233) 
2013.0

>  <Active>  (233) 
1.0

$$$$

     RDKit          2D

 31 35  0  0  0  0  0  0  0  0999 V2000
   -5.1962    0.8927    0.0000 O   0  0  0  0  0  0  0  0  0  0  0  0
   -5.1962   -0.6073    0.0000 C   0  0  0  0  0  0  0  0  0  0  0  0
   -3.8971   -1.3573    0.0000 C   0  0  0  0  0  0  0  0  0  0  0  0
   -3.8971   -2.8573    0.0000 C   0  0  0  0  0  0  0  0  0  0  0  0
   -5.1962   -3.6073    0.0000 C   0  0  0  0  0  0  0  0  0  0  0  0
   -5.1962   -5.1073    0.0000 N   0  0  0  0  0  0  0  0  0  0  0  0
   -3.8971   -5.8573    0.0000 C   0  0  0  0  0  0  0  0  0  0  0  0
   -3.8971   -7.3573    0.0000 N   0  0  0  0  0  0  0  0  0  0  0  0
   -2.5981   -8.1073    0.0000 C   0  0  0  0  0  0  0  0  0  0  0  0
   -2.5981   -9.6073    0.0000 C   0  0  0  0  0  0  0  0  0  0  0  0
   -3.8971  -10.3573    0.0000 C   0  0  0  0  0  0  0  0  0  0  0  0
   -5.1962   -9.6073    0.0000 C   0  0  0  0  0  0  0  0  0  0  0  0
   -6.4952  -10.3573    0.0000 C   0  0  0  0  0  0  0  0  0  0  0  0
   -6.4952  -11.8573    0.0000 C   0  0  0  0  0  0  0  0  0  0  0  0
   -5.1962  -12.6073    0.0000 C   0  0  0  0  0  0  0  0  0  0  0  0
   -3.8971  -11.8573    0.0000 C   0  0  0  0  0  0  0  0  0  0  0  0
   -1.2990   -7.3573    0.0000 C   0  0  0  0  0  0  0  0  0  0  0  0
   -1.2990   -5.8573    0.0000 C   0  0  0  0  0  0  0  0  0  0  0  0
   -0.0000   -5.1073    0.0000 N   0  0  0  0  0  0  0  0  0  0  0  0
   -0.0000   -3.6073    0.0000 C   0  0  0  0  0  0  0  0  0  0  0  0
    1.2135   -2.7256    0.0000 N   0  0  0  0  0  0  0  0  0  0  0  0
    0.7500   -1.2990    0.0000 C   0  0  0  0  0  0  0  0  0  0  0  0
    1.5000    0.0000    0.0000 C   0  0  0  0  0  0  0  0  0  0  0  0
    0.7500    1.2990    0.0000 C   0  0  0  0  0  0  0  0  0  0  0  0
   -0.7500    1.2990    0.0000 C   0  0  0  0  0  0  0  0  0  0  0  0
   -1.5000    0.0000    0.0000 N   0  0  0  0  0  0  0  0  0  0  0  0
   -0.7500   -1.2990    0.0000 C   0  0  0  0  0  0  0  0  0  0  0  0
   -1.2135   -2.7256    0.0000 S   0  0  0  0  0  0  0  0  0  0  0  0
   -2.5981   -5.1073    0.0000 N   0  0  0  0  0  0  0  0  0  0  0  0
   -6.4952   -2.8573    0.0000 C   0  0  0  0  0  0  0  0  0  0  0  0
   -6.4952   -1.3573    0.0000 C   0  0  0  0  0  0  0  0  0  0  0  0
  2  1  1  1
  2  3  1  0
  3  4  1  0
  4  5  1  0
  5  6  1  6
  6  7  1  0
  7  8  2  0
  8  9  1  0
  9 10  1  0
 10 11  1  0
 11 12  2  0
 12 13  1  0
 13 14  2  0
 14 15  1  0
 15 16  2  0
  9 17  2  0
 17 18  1  0
 18 19  1  0
 19 20  1  0
 20 21  2  0
 21 22  1  0
 22 23  2  0
 23 24  1  0
 24 25  2  0
 25 26  1  0
 26 27  2  0
 27 28  1  0
 18 29  2  0
  5 30  1  0
 30 31  1  0
 31  2  1  0
 29  7  1  0
 16 11  1  0
 28 20  1  0
 27 22  1  0
M  END
>  <Compound_ID>  (234) 
CHEMBL2441276

>  <Molecule Name>  (234) 
nan

>  <Molecular Weight>  (234) 
432.55

>  <AlogP>  (234) 
4.53

>  <Smiles>  (234) 
O[C@H]1CC[C@H](Nc2nc(Cc3ccccc3)cc(Nc3nc4cccnc4s3)n2)CC1

>  <Standard Type>  (234) 
Ki

>  <Standard Relation>  (234) 
'='

>  <Standard Units>  (234) 
nM

>  <Standard Value>  (234) 
0.2512

>  <Assay ChEMBL ID>  (234) 
CHEMBL2446687

>  <Assay Description>  (234) 
Inhibition of recombinant human FLAG-tagged ITK using biotinylated GST-SAM68 as substrate after 30 mins

>  <BAO Format ID>  (234) 
BAO_0000357

>  <BAO Label>  (234) 
single protein format

>  <Assay Organism>  (234) 
Homo sapiens

>  <Target ChEMBL ID>  (234) 
CHEMBL2959

>  <Target Name>  (234) 
Tyrosine-protein kinase ITK/TSK

>  <Target Organism>  (234) 
Homo sapiens

>  <Target Type>  (234) 
SINGLE PROTEIN

>  <Document ChEMBL ID>  (234) 
CHEMBL2440060

>  <Source Description>  (234) 
Scientific Literature

>  <Document Journal>  (234) 
ACS Med Chem Lett

>  <Document Year>  (234) 
2013.0

>  <Active>  (234) 
1.0

$$$$

     RDKit          2D

 20 22  0  0  0  0  0  0  0  0999 V2000
  -10.5738    5.8451    0.0000 C   0  0  0  0  0  0  0  0  0  0  0  0
   -9.4590    4.8414    0.0000 C   0  0  0  0  0  0  0  0  0  0  0  0
   -8.0325    5.3050    0.0000 C   0  0  0  0  0  0  0  0  0  0  0  0
   -7.7206    6.7722    0.0000 O   0  0  0  0  0  0  0  0  0  0  0  0
   -6.9177    4.3013    0.0000 N   0  0  0  0  0  0  0  0  0  0  0  0
   -5.4912    4.7648    0.0000 C   0  0  0  0  0  0  0  0  0  0  0  0
   -5.1793    6.2320    0.0000 C   0  0  0  0  0  0  0  0  0  0  0  0
   -3.7527    6.6955    0.0000 C   0  0  0  0  0  0  0  0  0  0  0  0
   -2.6380    5.6918    0.0000 C   0  0  0  0  0  0  0  0  0  0  0  0
   -2.9499    4.2246    0.0000 C   0  0  0  0  0  0  0  0  0  0  0  0
   -1.8351    3.2209    0.0000 C   0  0  0  0  0  0  0  0  0  0  0  0
   -0.4086    3.6844    0.0000 C   0  0  0  0  0  0  0  0  0  0  0  0
    0.7062    2.6807    0.0000 N   0  0  0  0  0  0  0  0  0  0  0  0
    0.3943    1.2135    0.0000 C   0  0  0  0  0  0  0  0  0  0  0  0
    1.2760    0.0000    0.0000 N   0  0  0  0  0  0  0  0  0  0  0  0
    0.3943   -1.2135    0.0000 C   0  0  0  0  0  0  0  0  0  0  0  0
   -1.0323   -0.7500    0.0000 C   0  0  0  0  0  0  0  0  0  0  0  0
   -1.0323    0.7500    0.0000 C   0  0  0  0  0  0  0  0  0  0  0  0
   -2.1470    1.7537    0.0000 C   0  0  0  0  0  0  0  0  0  0  0  0
   -4.3764    3.7611    0.0000 N   0  0  0  0  0  0  0  0  0  0  0  0
  1  2  2  0
  2  3  1  0
  3  4  2  0
  3  5  1  0
  5  6  1  0
  6  7  2  0
  7  8  1  0
  8  9  2  0
  9 10  1  0
 10 11  1  0
 11 12  2  0
 12 13  1  0
 13 14  2  0
 14 15  1  0
 15 16  1  0
 16 17  2  0
 17 18  1  0
 18 19  2  0
 10 20  2  0
 20  6  1  0
 19 11  1  0
 18 14  1  0
M  END
>  <Compound_ID>  (235) 
CHEMBL3976245

>  <Molecule Name>  (235) 
nan

>  <Molecular Weight>  (235) 
264.29

>  <AlogP>  (235) 
2.75

>  <Smiles>  (235) 
C=CC(=O)Nc1cccc(-c2cnc3[nH]ccc3c2)n1

>  <Standard Type>  (235) 
IC50

>  <Standard Relation>  (235) 
'='

>  <Standard Units>  (235) 
nM

>  <Standard Value>  (235) 
30.0

>  <Assay ChEMBL ID>  (235) 
CHEMBL3887687

>  <Assay Description>  (235) 
Biochemical Inhibition Assay: 1H-pyrrolo[2,3-b]pyridine, 1H-pyrazolo[3,4-b]pyridine and 5H-pyrrolo[2,3-b]pyrazine series of compounds exhibited over >100 fold selective against Janus and TEC family of kinases except for the BMX and TXK it had activity of 30 and 45 nM respectively.

>  <BAO Format ID>  (235) 
BAO_0000357

>  <BAO Label>  (235) 
single protein format

>  <Assay Organism>  (235) 
Homo sapiens

>  <Target ChEMBL ID>  (235) 
CHEMBL2959

>  <Target Name>  (235) 
Tyrosine-protein kinase ITK/TSK

>  <Target Organism>  (235) 
Homo sapiens

>  <Target Type>  (235) 
SINGLE PROTEIN

>  <Document ChEMBL ID>  (235) 
CHEMBL3886406

>  <Source Description>  (235) 
BindingDB Database

>  <Document Journal>  (235) 
nan

>  <Document Year>  (235) 
2015.0

>  <Active>  (235) 
1.0

$$$$

     RDKit          2D

 33 37  0  0  0  0  0  0  0  0999 V2000
    3.7500   -1.2990    0.0000 C   0  0  0  0  0  0  0  0  0  0  0  0
    3.0000    0.0000    0.0000 O   0  0  0  0  0  0  0  0  0  0  0  0
    1.5000    0.0000    0.0000 C   0  0  0  0  0  0  0  0  0  0  0  0
    0.7500   -1.2990    0.0000 C   0  0  0  0  0  0  0  0  0  0  0  0
   -0.7500   -1.2990    0.0000 C   0  0  0  0  0  0  0  0  0  0  0  0
   -1.5000    0.0000    0.0000 C   0  0  0  0  0  0  0  0  0  0  0  0
   -2.9672    0.3119    0.0000 N   0  0  0  0  0  0  0  0  0  0  0  0
   -3.1240    1.8037    0.0000 C   0  0  0  0  0  0  0  0  0  0  0  0
   -4.4231    2.5537    0.0000 N   0  0  0  0  0  0  0  0  0  0  0  0
   -4.4231    4.0537    0.0000 C   0  0  0  0  0  0  0  0  0  0  0  0
   -3.1240    4.8037    0.0000 C   0  0  0  0  0  0  0  0  0  0  0  0
   -3.1240    6.3037    0.0000 C   0  0  0  0  0  0  0  0  0  0  0  0
   -1.8250    7.0537    0.0000 C   0  0  0  0  0  0  0  0  0  0  0  0
   -0.5259    6.3037    0.0000 C   0  0  0  0  0  0  0  0  0  0  0  0
   -0.5259    4.8037    0.0000 C   0  0  0  0  0  0  0  0  0  0  0  0
    0.7731    4.0537    0.0000 C   0  0  0  0  0  0  0  0  0  0  0  0
    2.0721    4.8037    0.0000 C   0  0  0  0  0  0  0  0  0  0  0  0
    2.0721    6.3037    0.0000 C   0  0  0  0  0  0  0  0  0  0  0  0
    0.7731    7.0537    0.0000 C   0  0  0  0  0  0  0  0  0  0  0  0
   -4.4231    7.0537    0.0000 N   0  0  0  0  0  0  0  0  0  0  0  0
   -5.7221    6.3037    0.0000 C   0  0  0  0  0  0  0  0  0  0  0  0
   -7.0211    7.0537    0.0000 N   0  0  0  0  0  0  0  0  0  0  0  0
   -7.0211    8.5537    0.0000 C   0  0  0  0  0  0  0  0  0  0  0  0
   -5.7221    9.3037    0.0000 C   0  0  0  0  0  0  0  0  0  0  0  0
   -5.7221   10.8037    0.0000 C   0  0  0  0  0  0  0  0  0  0  0  0
   -7.0211   11.5537    0.0000 C   0  0  0  0  0  0  0  0  0  0  0  0
   -7.0211   13.0537    0.0000 O   0  0  0  0  0  0  0  0  0  0  0  0
   -8.3202   10.8037    0.0000 C   0  0  0  0  0  0  0  0  0  0  0  0
   -8.3202    9.3037    0.0000 C   0  0  0  0  0  0  0  0  0  0  0  0
   -5.7221    4.8037    0.0000 N   0  0  0  0  0  0  0  0  0  0  0  0
   -1.7537    2.4138    0.0000 S   0  0  0  0  0  0  0  0  0  0  0  0
   -0.7500    1.2990    0.0000 C   0  0  0  0  0  0  0  0  0  0  0  0
    0.7500    1.2990    0.0000 C   0  0  0  0  0  0  0  0  0  0  0  0
  1  2  1  0
  2  3  1  0
  3  4  2  0
  4  5  1  0
  5  6  2  0
  6  7  1  0
  7  8  2  0
  8  9  1  0
  9 10  1  0
 10 11  2  0
 11 12  1  0
 12 13  1  0
 13 14  1  0
 14 15  2  0
 15 16  1  0
 16 17  2  0
 17 18  1  0
 18 19  2  0
 12 20  2  0
 20 21  1  0
 21 22  1  0
 23 22  1  6
 23 24  1  0
 24 25  1  0
 25 26  1  0
 26 27  1  1
 26 28  1  0
 28 29  1  0
 21 30  2  0
  8 31  1  0
 31 32  1  0
 32 33  2  0
 33  3  1  0
 32  6  1  0
 30 10  1  0
 19 14  1  0
 29 23  1  0
M  END
>  <Compound_ID>  (236) 
CHEMBL2441112

>  <Molecule Name>  (236) 
nan

>  <Molecular Weight>  (236) 
461.59

>  <AlogP>  (236) 
5.14

>  <Smiles>  (236) 
COc1ccc2nc(Nc3cc(Cc4ccccc4)nc(N[C@H]4CC[C@H](O)CC4)n3)sc2c1

>  <Standard Type>  (236) 
Ki

>  <Standard Relation>  (236) 
'='

>  <Standard Units>  (236) 
nM

>  <Standard Value>  (236) 
3.981

>  <Assay ChEMBL ID>  (236) 
CHEMBL2446687

>  <Assay Description>  (236) 
Inhibition of recombinant human FLAG-tagged ITK using biotinylated GST-SAM68 as substrate after 30 mins

>  <BAO Format ID>  (236) 
BAO_0000357

>  <BAO Label>  (236) 
single protein format

>  <Assay Organism>  (236) 
Homo sapiens

>  <Target ChEMBL ID>  (236) 
CHEMBL2959

>  <Target Name>  (236) 
Tyrosine-protein kinase ITK/TSK

>  <Target Organism>  (236) 
Homo sapiens

>  <Target Type>  (236) 
SINGLE PROTEIN

>  <Document ChEMBL ID>  (236) 
CHEMBL2440060

>  <Source Description>  (236) 
Scientific Literature

>  <Document Journal>  (236) 
ACS Med Chem Lett

>  <Document Year>  (236) 
2013.0

>  <Active>  (236) 
1.0

$$$$

     RDKit          2D

 27 30  0  0  0  0  0  0  0  0999 V2000
    9.7500   -3.8971    0.0000 C   0  0  0  0  0  0  0  0  0  0  0  0
    8.2500   -3.8971    0.0000 C   0  0  0  0  0  0  0  0  0  0  0  0
    7.5000   -2.5981    0.0000 C   0  0  0  0  0  0  0  0  0  0  0  0
    8.2500   -1.2990    0.0000 O   0  0  0  0  0  0  0  0  0  0  0  0
    6.0000   -2.5981    0.0000 N   0  0  0  0  0  0  0  0  0  0  0  0
    5.2500   -1.2990    0.0000 C   0  0  0  0  0  0  0  0  0  0  0  0
    3.7500   -1.2990    0.0000 C   0  0  0  0  0  0  0  0  0  0  0  0
    3.0000    0.0000    0.0000 O   0  0  0  0  0  0  0  0  0  0  0  0
    1.5000    0.0000    0.0000 C   0  0  0  0  0  0  0  0  0  0  0  0
    0.7500   -1.2990    0.0000 C   0  0  0  0  0  0  0  0  0  0  0  0
   -0.7500   -1.2990    0.0000 C   0  0  0  0  0  0  0  0  0  0  0  0
   -1.5000    0.0000    0.0000 C   0  0  0  0  0  0  0  0  0  0  0  0
   -0.7500    1.2990    0.0000 C   0  0  0  0  0  0  0  0  0  0  0  0
   -1.2135    2.7256    0.0000 N   0  0  0  0  0  0  0  0  0  0  0  0
   -0.0000    3.6073    0.0000 C   0  0  0  0  0  0  0  0  0  0  0  0
   -0.0000    5.1073    0.0000 C   0  0  0  0  0  0  0  0  0  0  0  0
    1.2135    5.9890    0.0000 N   0  0  0  0  0  0  0  0  0  0  0  0
    0.7500    7.4156    0.0000 N   0  0  0  0  0  0  0  0  0  0  0  0
   -0.7500    7.4156    0.0000 C   0  0  0  0  0  0  0  0  0  0  0  0
   -1.7537    8.5303    0.0000 C   0  0  0  0  0  0  0  0  0  0  0  0
   -3.2209    8.2184    0.0000 C   0  0  0  0  0  0  0  0  0  0  0  0
   -4.2246    9.3331    0.0000 C   0  0  0  0  0  0  0  0  0  0  0  0
   -3.6844    6.7918    0.0000 C   0  0  0  0  0  0  0  0  0  0  0  0
   -2.6807    5.6771    0.0000 C   0  0  0  0  0  0  0  0  0  0  0  0
   -1.2135    5.9890    0.0000 C   0  0  0  0  0  0  0  0  0  0  0  0
    1.2135    2.7256    0.0000 C   0  0  0  0  0  0  0  0  0  0  0  0
    0.7500    1.2990    0.0000 C   0  0  0  0  0  0  0  0  0  0  0  0
  1  2  2  0
  2  3  1  0
  3  4  2  0
  3  5  1  0
  5  6  1  0
  6  7  1  0
  7  8  1  0
  8  9  1  0
  9 10  2  0
 10 11  1  0
 11 12  2  0
 12 13  1  0
 13 14  1  0
 14 15  1  0
 15 16  1  0
 16 17  2  0
 17 18  1  0
 18 19  1  0
 19 20  2  0
 20 21  1  0
 21 22  1  0
 21 23  2  0
 23 24  1  0
 24 25  2  0
 15 26  2  0
 26 27  1  0
 27  9  1  0
 27 13  2  0
 25 16  1  0
 25 19  1  0
M  END
>  <Compound_ID>  (237) 
CHEMBL4632386

>  <Molecule Name>  (237) 
nan

>  <Molecular Weight>  (237) 
360.42

>  <AlogP>  (237) 
3.70

>  <Smiles>  (237) 
C=CC(=O)NCCOc1cccc2[nH]c(-c3n[nH]c4cc(C)ccc34)cc12

>  <Standard Type>  (237) 
IC50

>  <Standard Relation>  (237) 
'='

>  <Standard Units>  (237) 
nM

>  <Standard Value>  (237) 
23.0

>  <Assay ChEMBL ID>  (237) 
CHEMBL4603778

>  <Assay Description>  (237) 
Inhibition of ITK (unknown origin) using TK as substrate incubated for 30 mins by HTRF assay

>  <BAO Format ID>  (237) 
BAO_0000357

>  <BAO Label>  (237) 
single protein format

>  <Assay Organism>  (237) 
Homo sapiens

>  <Target ChEMBL ID>  (237) 
CHEMBL2959

>  <Target Name>  (237) 
Tyrosine-protein kinase ITK/TSK

>  <Target Organism>  (237) 
Homo sapiens

>  <Target Type>  (237) 
SINGLE PROTEIN

>  <Document ChEMBL ID>  (237) 
CHEMBL4602634

>  <Source Description>  (237) 
Scientific Literature

>  <Document Journal>  (237) 
Eur J Med Chem

>  <Document Year>  (237) 
2020.0

>  <Active>  (237) 
1.0

$$$$

     RDKit          2D

 22 24  0  0  0  0  0  0  0  0999 V2000
   -3.0000   -7.7942    0.0000 C   0  0  0  0  0  0  0  0  0  0  0  0
   -1.5000   -7.7942    0.0000 C   0  0  0  0  0  0  0  0  0  0  0  0
   -0.7500   -6.4952    0.0000 C   0  0  0  0  0  0  0  0  0  0  0  0
   -1.5000   -5.1962    0.0000 O   0  0  0  0  0  0  0  0  0  0  0  0
    0.7500   -6.4952    0.0000 N   0  0  0  0  0  0  0  0  0  0  0  0
    1.5000   -5.1962    0.0000 C   0  0  0  0  0  0  0  0  0  0  0  0
    0.7500   -3.8971    0.0000 C   0  0  0  0  0  0  0  0  0  0  0  0
    1.5000   -2.5981    0.0000 C   0  0  0  0  0  0  0  0  0  0  0  0
    0.7500   -1.2990    0.0000 C   0  0  0  0  0  0  0  0  0  0  0  0
    1.5000    0.0000    0.0000 C   0  0  0  0  0  0  0  0  0  0  0  0
    0.7500    1.2990    0.0000 N   0  0  0  0  0  0  0  0  0  0  0  0
   -0.7500    1.2990    0.0000 C   0  0  0  0  0  0  0  0  0  0  0  0
   -1.7537    2.4138    0.0000 N   0  0  0  0  0  0  0  0  0  0  0  0
   -3.1240    1.8037    0.0000 N   0  0  0  0  0  0  0  0  0  0  0  0
   -2.9672    0.3119    0.0000 C   0  0  0  0  0  0  0  0  0  0  0  0
   -4.0819   -0.6918    0.0000 C   0  0  0  0  0  0  0  0  0  0  0  0
   -1.5000    0.0000    0.0000 C   0  0  0  0  0  0  0  0  0  0  0  0
   -0.7500   -1.2990    0.0000 C   0  0  0  0  0  0  0  0  0  0  0  0
    3.0000   -2.5981    0.0000 C   0  0  0  0  0  0  0  0  0  0  0  0
    3.7500   -3.8971    0.0000 C   0  0  0  0  0  0  0  0  0  0  0  0
    3.0000   -5.1962    0.0000 C   0  0  0  0  0  0  0  0  0  0  0  0
    3.7500   -6.4952    0.0000 Cl  0  0  0  0  0  0  0  0  0  0  0  0
  1  2  2  0
  2  3  1  0
  3  4  2  0
  3  5  1  0
  5  6  1  0
  6  7  2  0
  7  8  1  0
  8  9  1  0
  9 10  2  0
 10 11  1  0
 11 12  2  0
 12 13  1  0
 13 14  1  0
 14 15  2  0
 15 16  1  0
 15 17  1  0
 17 18  2  0
  8 19  2  0
 19 20  1  0
 20 21  2  0
 21 22  1  0
 21  6  1  0
 18  9  1  0
 17 12  1  0
M  END
>  <Compound_ID>  (238) 
CHEMBL3968188

>  <Molecule Name>  (238) 
nan

>  <Molecular Weight>  (238) 
312.76

>  <AlogP>  (238) 
3.71

>  <Smiles>  (238) 
C=CC(=O)Nc1cc(-c2cnc3[nH]nc(C)c3c2)ccc1Cl

>  <Standard Type>  (238) 
IC50

>  <Standard Relation>  (238) 
'='

>  <Standard Units>  (238) 
nM

>  <Standard Value>  (238) 
30.0

>  <Assay ChEMBL ID>  (238) 
CHEMBL3887687

>  <Assay Description>  (238) 
Biochemical Inhibition Assay: 1H-pyrrolo[2,3-b]pyridine, 1H-pyrazolo[3,4-b]pyridine and 5H-pyrrolo[2,3-b]pyrazine series of compounds exhibited over >100 fold selective against Janus and TEC family of kinases except for the BMX and TXK it had activity of 30 and 45 nM respectively.

>  <BAO Format ID>  (238) 
BAO_0000357

>  <BAO Label>  (238) 
single protein format

>  <Assay Organism>  (238) 
Homo sapiens

>  <Target ChEMBL ID>  (238) 
CHEMBL2959

>  <Target Name>  (238) 
Tyrosine-protein kinase ITK/TSK

>  <Target Organism>  (238) 
Homo sapiens

>  <Target Type>  (238) 
SINGLE PROTEIN

>  <Document ChEMBL ID>  (238) 
CHEMBL3886406

>  <Source Description>  (238) 
BindingDB Database

>  <Document Journal>  (238) 
nan

>  <Document Year>  (238) 
2015.0

>  <Active>  (238) 
1.0

$$$$

     RDKit          2D

 32 36  0  0  0  0  0  0  0  0999 V2000
  -13.1357   -0.3314    0.0000 N   0  0  0  0  0  0  0  0  0  0  0  0
  -11.7091   -0.7949    0.0000 C   0  0  0  0  0  0  0  0  0  0  0  0
  -10.2825   -1.2584    0.0000 C   0  0  0  0  0  0  0  0  0  0  0  0
   -9.1678   -0.2547    0.0000 C   0  0  0  0  0  0  0  0  0  0  0  0
   -7.7412   -0.7182    0.0000 C   0  0  0  0  0  0  0  0  0  0  0  0
   -7.4293   -2.1855    0.0000 C   0  0  0  0  0  0  0  0  0  0  0  0
   -8.5441   -3.1891    0.0000 C   0  0  0  0  0  0  0  0  0  0  0  0
   -8.2322   -4.6564    0.0000 C   0  0  0  0  0  0  0  0  0  0  0  0
   -6.8056   -5.1199    0.0000 N   0  0  0  0  0  0  0  0  0  0  0  0
   -5.5921   -4.2382    0.0000 C   0  0  0  0  0  0  0  0  0  0  0  0
   -4.3786   -5.1199    0.0000 C   0  0  0  0  0  0  0  0  0  0  0  0
   -2.9520   -4.6564    0.0000 N   0  0  0  0  0  0  0  0  0  0  0  0
   -2.6401   -3.1891    0.0000 C   0  0  0  0  0  0  0  0  0  0  0  0
   -3.7548   -2.1855    0.0000 O   0  0  0  0  0  0  0  0  0  0  0  0
   -1.2135   -2.7256    0.0000 C   0  0  0  0  0  0  0  0  0  0  0  0
   -0.0000   -3.6073    0.0000 N   0  0  0  0  0  0  0  0  0  0  0  0
    1.2135   -2.7256    0.0000 N   0  0  0  0  0  0  0  0  0  0  0  0
    0.7500   -1.2990    0.0000 C   0  0  0  0  0  0  0  0  0  0  0  0
    1.5000    0.0000    0.0000 C   0  0  0  0  0  0  0  0  0  0  0  0
    0.7500    1.2990    0.0000 C   0  0  0  0  0  0  0  0  0  0  0  0
    1.5000    2.5981    0.0000 C   0  0  0  0  0  0  0  0  0  0  0  0
    3.0000    2.5981    0.0000 C   0  0  0  0  0  0  0  0  0  0  0  0
    3.7500    3.8971    0.0000 C   0  0  0  0  0  0  0  0  0  0  0  0
    3.0000    5.1962    0.0000 N   0  0  0  0  0  0  0  0  0  0  0  0
    1.5000    5.1962    0.0000 C   0  0  0  0  0  0  0  0  0  0  0  0
    0.7500    3.8971    0.0000 C   0  0  0  0  0  0  0  0  0  0  0  0
   -0.7500    1.2990    0.0000 C   0  0  0  0  0  0  0  0  0  0  0  0
   -1.5000    0.0000    0.0000 C   0  0  0  0  0  0  0  0  0  0  0  0
   -0.7500   -1.2990    0.0000 C   0  0  0  0  0  0  0  0  0  0  0  0
   -4.8421   -6.5465    0.0000 C   0  0  0  0  0  0  0  0  0  0  0  0
   -6.3421   -6.5465    0.0000 N   0  0  0  0  0  0  0  0  0  0  0  0
   -9.9707   -2.7256    0.0000 C   0  0  0  0  0  0  0  0  0  0  0  0
  1  2  3  0
  2  3  1  0
  3  4  2  0
  4  5  1  0
  5  6  2  0
  6  7  1  0
  7  8  1  0
  8  9  1  0
  9 10  1  0
 10 11  2  0
 11 12  1  0
 12 13  1  0
 13 14  2  0
 13 15  1  0
 15 16  2  0
 16 17  1  0
 17 18  1  0
 18 19  2  0
 19 20  1  0
 20 21  1  0
 21 22  2  0
 22 23  1  0
 23 24  2  0
 24 25  1  0
 25 26  2  0
 20 27  2  0
 27 28  1  0
 28 29  2  0
 11 30  1  0
 30 31  2  0
  7 32  2  0
 32  3  1  0
 31  9  1  0
 29 15  1  0
 29 18  1  0
 26 21  1  0
M  END
>  <Compound_ID>  (239) 
CHEMBL3262782

>  <Molecule Name>  (239) 
nan

>  <Molecular Weight>  (239) 
419.45

>  <AlogP>  (239) 
3.99

>  <Smiles>  (239) 
N#Cc1cccc(Cn2cc(NC(=O)c3n[nH]c4cc(-c5ccncc5)ccc34)cn2)c1

>  <Standard Type>  (239) 
Ki

>  <Standard Relation>  (239) 
'='

>  <Standard Units>  (239) 
nM

>  <Standard Value>  (239) 
59.0

>  <Assay ChEMBL ID>  (239) 
CHEMBL3267591

>  <Assay Description>  (239) 
Inhibition of full-length ITK (unknown origin) using biotin-EQEDEPEGIYGVLF-NH2 as substrate by plate reader analysis

>  <BAO Format ID>  (239) 
BAO_0000357

>  <BAO Label>  (239) 
single protein format

>  <Assay Organism>  (239) 
Homo sapiens

>  <Target ChEMBL ID>  (239) 
CHEMBL2959

>  <Target Name>  (239) 
Tyrosine-protein kinase ITK/TSK

>  <Target Organism>  (239) 
Homo sapiens

>  <Target Type>  (239) 
SINGLE PROTEIN

>  <Document ChEMBL ID>  (239) 
CHEMBL3259776

>  <Source Description>  (239) 
Scientific Literature

>  <Document Journal>  (239) 
Bioorg Med Chem Lett

>  <Document Year>  (239) 
2014.0

>  <Active>  (239) 
1.0

$$$$

     RDKit          2D

 28 31  0  0  0  0  0  0  0  0999 V2000
    8.2500   -6.4952    0.0000 C   0  0  0  0  0  0  0  0  0  0  0  0
    7.5000   -5.1962    0.0000 C   0  0  0  0  0  0  0  0  0  0  0  0
    6.0000   -5.1962    0.0000 C   0  0  0  0  0  0  0  0  0  0  0  0
    5.2500   -6.4952    0.0000 O   0  0  0  0  0  0  0  0  0  0  0  0
    5.2500   -3.8971    0.0000 N   0  0  0  0  0  0  0  0  0  0  0  0
    3.7500   -3.8971    0.0000 C   0  0  0  0  0  0  0  0  0  0  0  0
    3.0000   -5.1962    0.0000 C   0  0  0  0  0  0  0  0  0  0  0  0
    1.5000   -5.1962    0.0000 C   0  0  0  0  0  0  0  0  0  0  0  0
    0.7500   -3.8971    0.0000 C   0  0  0  0  0  0  0  0  0  0  0  0
    1.5000   -2.5981    0.0000 C   0  0  0  0  0  0  0  0  0  0  0  0
    0.7500   -1.2990    0.0000 C   0  0  0  0  0  0  0  0  0  0  0  0
    1.5000    0.0000    0.0000 C   0  0  0  0  0  0  0  0  0  0  0  0
    0.7500    1.2990    0.0000 N   0  0  0  0  0  0  0  0  0  0  0  0
   -0.7500    1.2990    0.0000 C   0  0  0  0  0  0  0  0  0  0  0  0
   -1.7537    2.4138    0.0000 N   0  0  0  0  0  0  0  0  0  0  0  0
   -3.1240    1.8037    0.0000 C   0  0  0  0  0  0  0  0  0  0  0  0
   -2.9672    0.3119    0.0000 C   0  0  0  0  0  0  0  0  0  0  0  0
   -4.0819   -0.6918    0.0000 C   0  0  0  0  0  0  0  0  0  0  0  0
   -5.5085   -0.2283    0.0000 C   0  0  0  0  0  0  0  0  0  0  0  0
   -6.6232   -1.2320    0.0000 C   0  0  0  0  0  0  0  0  0  0  0  0
   -6.3114   -2.6992    0.0000 C   0  0  0  0  0  0  0  0  0  0  0  0
   -4.8848   -3.1627    0.0000 C   0  0  0  0  0  0  0  0  0  0  0  0
   -4.5729   -4.6300    0.0000 C   0  0  0  0  0  0  0  0  0  0  0  0
   -3.7701   -2.1590    0.0000 C   0  0  0  0  0  0  0  0  0  0  0  0
   -2.3435   -2.6226    0.0000 F   0  0  0  0  0  0  0  0  0  0  0  0
   -1.5000    0.0000    0.0000 C   0  0  0  0  0  0  0  0  0  0  0  0
   -0.7500   -1.2990    0.0000 C   0  0  0  0  0  0  0  0  0  0  0  0
    3.0000   -2.5981    0.0000 C   0  0  0  0  0  0  0  0  0  0  0  0
  1  2  2  0
  2  3  1  0
  3  4  2  0
  3  5  1  0
  5  6  1  0
  6  7  2  0
  7  8  1  0
  8  9  2  0
  9 10  1  0
 10 11  1  0
 11 12  2  0
 12 13  1  0
 13 14  2  0
 14 15  1  0
 15 16  1  0
 16 17  2  0
 17 18  1  0
 18 19  2  0
 19 20  1  0
 20 21  2  0
 21 22  1  0
 22 23  1  0
 22 24  2  0
 24 25  1  0
 17 26  1  0
 26 27  2  0
 10 28  2  0
 28  6  1  0
 27 11  1  0
 26 14  1  0
 24 18  1  0
M  END
>  <Compound_ID>  (240) 
CHEMBL3919033

>  <Molecule Name>  (240) 
nan

>  <Molecular Weight>  (240) 
371.42

>  <AlogP>  (240) 
5.47

>  <Smiles>  (240) 
C=CC(=O)Nc1cccc(-c2cnc3[nH]cc(-c4cccc(C)c4F)c3c2)c1

>  <Standard Type>  (240) 
IC50

>  <Standard Relation>  (240) 
'='

>  <Standard Units>  (240) 
nM

>  <Standard Value>  (240) 
72.4

>  <Assay ChEMBL ID>  (240) 
CHEMBL3887687

>  <Assay Description>  (240) 
Biochemical Inhibition Assay: 1H-pyrrolo[2,3-b]pyridine, 1H-pyrazolo[3,4-b]pyridine and 5H-pyrrolo[2,3-b]pyrazine series of compounds exhibited over >100 fold selective against Janus and TEC family of kinases except for the BMX and TXK it had activity of 30 and 45 nM respectively.

>  <BAO Format ID>  (240) 
BAO_0000357

>  <BAO Label>  (240) 
single protein format

>  <Assay Organism>  (240) 
Homo sapiens

>  <Target ChEMBL ID>  (240) 
CHEMBL2959

>  <Target Name>  (240) 
Tyrosine-protein kinase ITK/TSK

>  <Target Organism>  (240) 
Homo sapiens

>  <Target Type>  (240) 
SINGLE PROTEIN

>  <Document ChEMBL ID>  (240) 
CHEMBL3886406

>  <Source Description>  (240) 
BindingDB Database

>  <Document Journal>  (240) 
nan

>  <Document Year>  (240) 
2015.0

>  <Active>  (240) 
1.0

$$$$

     RDKit          2D

 30 33  0  0  0  0  0  0  0  0999 V2000
   11.0890   -8.6599    0.0000 C   0  0  0  0  0  0  0  0  0  0  0  0
    9.5972   -8.8167    0.0000 N   0  0  0  0  0  0  0  0  0  0  0  0
    8.9871  -10.1871    0.0000 C   0  0  0  0  0  0  0  0  0  0  0  0
    8.7155   -7.6032    0.0000 C   0  0  0  0  0  0  0  0  0  0  0  0
    7.2238   -7.7600    0.0000 C   0  0  0  0  0  0  0  0  0  0  0  0
    6.6137   -9.1303    0.0000 C   0  0  0  0  0  0  0  0  0  0  0  0
    5.1219   -9.2871    0.0000 C   0  0  0  0  0  0  0  0  0  0  0  0
    4.5118  -10.6574    0.0000 C   0  0  0  0  0  0  0  0  0  0  0  0
    5.3935  -11.8710    0.0000 C   0  0  0  0  0  0  0  0  0  0  0  0
    6.8852  -11.7142    0.0000 C   0  0  0  0  0  0  0  0  0  0  0  0
    7.4953  -10.3438    0.0000 C   0  0  0  0  0  0  0  0  0  0  0  0
    6.3421   -6.5465    0.0000 N   0  0  0  0  0  0  0  0  0  0  0  0
    4.8421   -6.5465    0.0000 C   0  0  0  0  0  0  0  0  0  0  0  0
    4.3786   -5.1199    0.0000 C   0  0  0  0  0  0  0  0  0  0  0  0
    2.9520   -4.6564    0.0000 N   0  0  0  0  0  0  0  0  0  0  0  0
    2.6401   -3.1891    0.0000 C   0  0  0  0  0  0  0  0  0  0  0  0
    3.7548   -2.1855    0.0000 O   0  0  0  0  0  0  0  0  0  0  0  0
    1.2135   -2.7256    0.0000 C   0  0  0  0  0  0  0  0  0  0  0  0
   -0.0000   -3.6073    0.0000 N   0  0  0  0  0  0  0  0  0  0  0  0
   -1.2135   -2.7256    0.0000 N   0  0  0  0  0  0  0  0  0  0  0  0
   -0.7500   -1.2990    0.0000 C   0  0  0  0  0  0  0  0  0  0  0  0
    0.7500   -1.2990    0.0000 C   0  0  0  0  0  0  0  0  0  0  0  0
    1.5000    0.0000    0.0000 C   0  0  0  0  0  0  0  0  0  0  0  0
    0.7500    1.2990    0.0000 C   0  0  0  0  0  0  0  0  0  0  0  0
   -0.7500    1.2990    0.0000 C   0  0  0  0  0  0  0  0  0  0  0  0
   -2.1595    1.8121    0.0000 C   0  0  0  0  0  0  0  0  0  0  0  0
   -0.4895    2.7762    0.0000 C   0  0  0  0  0  0  0  0  0  0  0  0
   -1.5000    0.0000    0.0000 C   0  0  0  0  0  0  0  0  0  0  0  0
    5.5921   -4.2382    0.0000 C   0  0  0  0  0  0  0  0  0  0  0  0
    6.8056   -5.1199    0.0000 N   0  0  0  0  0  0  0  0  0  0  0  0
  1  2  1  0
  2  3  1  0
  2  4  1  0
  5  4  1  1
  5  6  1  0
  6  7  2  0
  7  8  1  0
  8  9  2  0
  9 10  1  0
 10 11  2  0
  5 12  1  0
 12 13  1  0
 13 14  2  0
 14 15  1  0
 15 16  1  0
 16 17  2  0
 16 18  1  0
 18 19  2  0
 19 20  1  0
 20 21  1  0
 21 22  2  0
 22 23  1  0
 23 24  1  0
 24 25  1  0
 25 26  1  0
 25 27  1  0
 25 28  1  0
 14 29  1  0
 29 30  2  0
 11  6  1  0
 30 12  1  0
 22 18  1  0
 28 21  1  0
M  END
>  <Compound_ID>  (241) 
CHEMBL3298370

>  <Molecule Name>  (241) 
nan

>  <Molecular Weight>  (241) 
406.53

>  <AlogP>  (241) 
3.52

>  <Smiles>  (241) 
CN(C)C[C@@H](c1ccccc1)n1cc(NC(=O)c2n[nH]c3c2CCC(C)(C)C3)cn1

>  <Standard Type>  (241) 
Ki

>  <Standard Relation>  (241) 
'='

>  <Standard Units>  (241) 
nM

>  <Standard Value>  (241) 
0.8

>  <Assay ChEMBL ID>  (241) 
CHEMBL3380548

>  <Assay Description>  (241) 
Inhibition of GST-tagged full length ITK (unknown origin) using BLK peptide as substrate after 35 mins

>  <BAO Format ID>  (241) 
BAO_0000357

>  <BAO Label>  (241) 
single protein format

>  <Assay Organism>  (241) 
Homo sapiens

>  <Target ChEMBL ID>  (241) 
CHEMBL2959

>  <Target Name>  (241) 
Tyrosine-protein kinase ITK/TSK

>  <Target Organism>  (241) 
Homo sapiens

>  <Target Type>  (241) 
SINGLE PROTEIN

>  <Document ChEMBL ID>  (241) 
CHEMBL3297697

>  <Source Description>  (241) 
Scientific Literature

>  <Document Journal>  (241) 
J Med Chem

>  <Document Year>  (241) 
2014.0

>  <Active>  (241) 
1.0

$$$$

     RDKit          2D

 37 41  0  0  0  0  0  0  0  0999 V2000
  -11.1975    2.9107    0.0000 C   0  0  0  0  0  0  0  0  0  0  0  0
   -9.7709    3.3742    0.0000 C   0  0  0  0  0  0  0  0  0  0  0  0
   -8.6562    2.3705    0.0000 C   0  0  0  0  0  0  0  0  0  0  0  0
   -8.9681    0.9033    0.0000 O   0  0  0  0  0  0  0  0  0  0  0  0
   -7.2296    2.8340    0.0000 N   0  0  0  0  0  0  0  0  0  0  0  0
   -6.1149    1.8303    0.0000 C   0  0  0  0  0  0  0  0  0  0  0  0
   -4.6883    2.2939    0.0000 C   0  0  0  0  0  0  0  0  0  0  0  0
   -3.5736    1.2902    0.0000 O   0  0  0  0  0  0  0  0  0  0  0  0
   -2.1470    1.7537    0.0000 C   0  0  0  0  0  0  0  0  0  0  0  0
   -1.8351    3.2209    0.0000 C   0  0  0  0  0  0  0  0  0  0  0  0
   -0.4086    3.6844    0.0000 C   0  0  0  0  0  0  0  0  0  0  0  0
   -0.0967    5.1517    0.0000 C   0  0  0  0  0  0  0  0  0  0  0  0
    1.3299    5.6152    0.0000 C   0  0  0  0  0  0  0  0  0  0  0  0
    2.4446    4.6115    0.0000 C   0  0  0  0  0  0  0  0  0  0  0  0
    3.8712    5.0750    0.0000 C   0  0  0  0  0  0  0  0  0  0  0  0
    4.1831    6.5422    0.0000 C   0  0  0  0  0  0  0  0  0  0  0  0
    3.0684    7.5459    0.0000 C   0  0  0  0  0  0  0  0  0  0  0  0
    3.3802    9.0132    0.0000 Cl  0  0  0  0  0  0  0  0  0  0  0  0
    1.6418    7.0824    0.0000 C   0  0  0  0  0  0  0  0  0  0  0  0
    0.7062    2.6807    0.0000 C   0  0  0  0  0  0  0  0  0  0  0  0
    0.3943    1.2135    0.0000 C   0  0  0  0  0  0  0  0  0  0  0  0
    1.2760    0.0000    0.0000 N   0  0  0  0  0  0  0  0  0  0  0  0
    0.3943   -1.2135    0.0000 C   0  0  0  0  0  0  0  0  0  0  0  0
    0.8578   -2.6401    0.0000 C   0  0  0  0  0  0  0  0  0  0  0  0
    2.2844   -3.1036    0.0000 N   0  0  0  0  0  0  0  0  0  0  0  0
    2.2844   -4.6036    0.0000 N   0  0  0  0  0  0  0  0  0  0  0  0
    0.8578   -5.0672    0.0000 C   0  0  0  0  0  0  0  0  0  0  0  0
    0.2477   -6.4375    0.0000 C   0  0  0  0  0  0  0  0  0  0  0  0
   -1.2441   -6.5943    0.0000 C   0  0  0  0  0  0  0  0  0  0  0  0
   -1.8542   -7.9646    0.0000 C   0  0  0  0  0  0  0  0  0  0  0  0
   -3.3460   -8.1214    0.0000 F   0  0  0  0  0  0  0  0  0  0  0  0
   -0.9725   -9.1781    0.0000 F   0  0  0  0  0  0  0  0  0  0  0  0
   -2.1257   -5.3807    0.0000 C   0  0  0  0  0  0  0  0  0  0  0  0
   -1.5156   -4.0104    0.0000 C   0  0  0  0  0  0  0  0  0  0  0  0
   -0.0239   -3.8536    0.0000 C   0  0  0  0  0  0  0  0  0  0  0  0
   -1.0323   -0.7500    0.0000 C   0  0  0  0  0  0  0  0  0  0  0  0
   -1.0323    0.7500    0.0000 C   0  0  0  0  0  0  0  0  0  0  0  0
  1  2  2  0
  2  3  1  0
  3  4  2  0
  3  5  1  0
  5  6  1  0
  6  7  1  0
  7  8  1  0
  8  9  1  0
  9 10  2  0
 10 11  1  0
 11 12  1  0
 12 13  1  0
 13 14  2  0
 14 15  1  0
 15 16  2  0
 16 17  1  0
 17 18  1  0
 17 19  2  0
 11 20  2  0
 20 21  1  0
 21 22  1  0
 22 23  1  0
 23 24  1  0
 24 25  2  0
 25 26  1  0
 26 27  1  0
 27 28  2  0
 28 29  1  0
 29 30  1  0
 30 31  1  0
 30 32  1  0
 29 33  2  0
 33 34  1  0
 34 35  2  0
 23 36  2  0
 36 37  1  0
 37  9  1  0
 19 13  1  0
 37 21  2  0
 35 24  1  0
 35 27  1  0
M  END
>  <Compound_ID>  (242) 
CHEMBL4640218

>  <Molecule Name>  (242) 
nan

>  <Molecular Weight>  (242) 
520.97

>  <AlogP>  (242) 
6.57

>  <Smiles>  (242) 
C=CC(=O)NCCOc1cc(Cc2cccc(Cl)c2)cc2[nH]c(-c3n[nH]c4cc(C(F)F)ccc34)cc12

>  <Standard Type>  (242) 
IC50

>  <Standard Relation>  (242) 
'='

>  <Standard Units>  (242) 
nM

>  <Standard Value>  (242) 
78.0

>  <Assay ChEMBL ID>  (242) 
CHEMBL4603778

>  <Assay Description>  (242) 
Inhibition of ITK (unknown origin) using TK as substrate incubated for 30 mins by HTRF assay

>  <BAO Format ID>  (242) 
BAO_0000357

>  <BAO Label>  (242) 
single protein format

>  <Assay Organism>  (242) 
Homo sapiens

>  <Target ChEMBL ID>  (242) 
CHEMBL2959

>  <Target Name>  (242) 
Tyrosine-protein kinase ITK/TSK

>  <Target Organism>  (242) 
Homo sapiens

>  <Target Type>  (242) 
SINGLE PROTEIN

>  <Document ChEMBL ID>  (242) 
CHEMBL4602634

>  <Source Description>  (242) 
Scientific Literature

>  <Document Journal>  (242) 
Eur J Med Chem

>  <Document Year>  (242) 
2020.0

>  <Active>  (242) 
1.0

$$$$

     RDKit          2D

 30 33  0  0  0  0  0  0  0  0999 V2000
    0.4022   -7.7629    0.0000 C   0  0  0  0  0  0  0  0  0  0  0  0
    0.2454   -6.2711    0.0000 C   0  0  0  0  0  0  0  0  0  0  0  0
    1.3601   -5.2674    0.0000 C   0  0  0  0  0  0  0  0  0  0  0  0
    0.7500   -3.8971    0.0000 C   0  0  0  0  0  0  0  0  0  0  0  0
    1.5000   -2.5981    0.0000 N   0  0  0  0  0  0  0  0  0  0  0  0
    0.7500   -1.2990    0.0000 C   0  0  0  0  0  0  0  0  0  0  0  0
    1.5000    0.0000    0.0000 C   0  0  0  0  0  0  0  0  0  0  0  0
    0.7500    1.2990    0.0000 C   0  0  0  0  0  0  0  0  0  0  0  0
    1.5000    2.5981    0.0000 S   0  0  0  0  0  0  0  0  0  0  0  0
    0.2010    3.3481    0.0000 O   0  0  0  0  0  0  0  0  0  0  0  0
    2.7990    1.8481    0.0000 O   0  0  0  0  0  0  0  0  0  0  0  0
    2.2500    3.8971    0.0000 C   0  0  0  0  0  0  0  0  0  0  0  0
    3.7500    3.8971    0.0000 C   0  0  0  0  0  0  0  0  0  0  0  0
    4.5000    5.1962    0.0000 C   0  0  0  0  0  0  0  0  0  0  0  0
    3.7500    6.4952    0.0000 C   0  0  0  0  0  0  0  0  0  0  0  0
    2.2500    6.4952    0.0000 C   0  0  0  0  0  0  0  0  0  0  0  0
    1.5000    5.1962    0.0000 C   0  0  0  0  0  0  0  0  0  0  0  0
   -0.7500    1.2990    0.0000 C   0  0  0  0  0  0  0  0  0  0  0  0
   -1.5000    0.0000    0.0000 C   0  0  0  0  0  0  0  0  0  0  0  0
   -3.0000    0.0000    0.0000 N   0  0  0  0  0  0  0  0  0  0  0  0
   -3.7500    1.2990    0.0000 C   0  0  0  0  0  0  0  0  0  0  0  0
   -3.0000    2.5981    0.0000 C   0  0  0  0  0  0  0  0  0  0  0  0
   -3.7500    3.8971    0.0000 C   0  0  0  0  0  0  0  0  0  0  0  0
   -5.2500    3.8971    0.0000 C   0  0  0  0  0  0  0  0  0  0  0  0
   -6.0000    5.1962    0.0000 O   0  0  0  0  0  0  0  0  0  0  0  0
   -6.0000    2.5981    0.0000 C   0  0  0  0  0  0  0  0  0  0  0  0
   -5.2500    1.2990    0.0000 C   0  0  0  0  0  0  0  0  0  0  0  0
   -0.7500   -1.2990    0.0000 N   0  0  0  0  0  0  0  0  0  0  0  0
   -0.7418   -4.0539    0.0000 N   0  0  0  0  0  0  0  0  0  0  0  0
   -1.0537   -5.5211    0.0000 N   0  0  0  0  0  0  0  0  0  0  0  0
  1  2  1  0
  2  3  2  0
  3  4  1  0
  4  5  1  0
  5  6  1  0
  6  7  2  0
  7  8  1  0
  8  9  1  0
  9 10  2  0
  9 11  2  0
  9 12  1  0
 12 13  2  0
 13 14  1  0
 14 15  2  0
 15 16  1  0
 16 17  2  0
  8 18  2  0
 18 19  1  0
 19 20  1  0
 21 20  1  6
 21 22  1  0
 22 23  1  0
 23 24  1  0
 24 25  1  1
 24 26  1  0
 26 27  1  0
 19 28  2  0
  4 29  2  0
 29 30  1  0
 30  2  1  0
 28  6  1  0
 17 12  1  0
 27 21  1  0
M  END
>  <Compound_ID>  (243) 
CHEMBL3355726

>  <Molecule Name>  (243) 
nan

>  <Molecular Weight>  (243) 
427.53

>  <AlogP>  (243) 
3.40

>  <Smiles>  (243) 
Cc1cc(Nc2cc(S(=O)(=O)c3ccccc3)cc(N[C@H]3CC[C@H](O)CC3)n2)n[nH]1

>  <Standard Type>  (243) 
Ki

>  <Standard Relation>  (243) 
'='

>  <Standard Units>  (243) 
nM

>  <Standard Value>  (243) 
4.0

>  <Assay ChEMBL ID>  (243) 
CHEMBL3389531

>  <Assay Description>  (243) 
Inhibition of GST-tagged full-length ITK (unknown origin) using Ac-EFPIYDFLPAKKK-NH2 as substrate after 35 mins by LC/MS analysis

>  <BAO Format ID>  (243) 
BAO_0000357

>  <BAO Label>  (243) 
single protein format

>  <Assay Organism>  (243) 
Homo sapiens

>  <Target ChEMBL ID>  (243) 
CHEMBL2959

>  <Target Name>  (243) 
Tyrosine-protein kinase ITK/TSK

>  <Target Organism>  (243) 
Homo sapiens

>  <Target Type>  (243) 
SINGLE PROTEIN

>  <Document ChEMBL ID>  (243) 
CHEMBL3352735

>  <Source Description>  (243) 
Scientific Literature

>  <Document Journal>  (243) 
Bioorg Med Chem Lett

>  <Document Year>  (243) 
2014.0

>  <Active>  (243) 
1.0

$$$$

     RDKit          2D

 37 41  0  0  0  0  0  0  0  0999 V2000
    3.7500   -1.2990    0.0000 C   0  0  0  0  0  0  0  0  0  0  0  0
    3.0000    0.0000    0.0000 O   0  0  0  0  0  0  0  0  0  0  0  0
    1.5000    0.0000    0.0000 C   0  0  0  0  0  0  0  0  0  0  0  0
    0.7500   -1.2990    0.0000 C   0  0  0  0  0  0  0  0  0  0  0  0
   -0.7500   -1.2990    0.0000 C   0  0  0  0  0  0  0  0  0  0  0  0
   -1.5000    0.0000    0.0000 C   0  0  0  0  0  0  0  0  0  0  0  0
   -3.0000    0.0000    0.0000 C   0  0  0  0  0  0  0  0  0  0  0  0
   -3.8817   -1.2135    0.0000 C   0  0  0  0  0  0  0  0  0  0  0  0
   -5.3083   -0.7500    0.0000 C   0  0  0  0  0  0  0  0  0  0  0  0
   -6.5218   -1.6317    0.0000 N   0  0  0  0  0  0  0  0  0  0  0  0
   -7.8921   -1.0216    0.0000 C   0  0  0  0  0  0  0  0  0  0  0  0
   -8.0489    0.4702    0.0000 C   0  0  0  0  0  0  0  0  0  0  0  0
   -9.4192    1.0803    0.0000 C   0  0  0  0  0  0  0  0  0  0  0  0
   -9.5760    2.5721    0.0000 S   0  0  0  0  0  0  0  0  0  0  0  0
  -11.0678    2.4153    0.0000 O   0  0  0  0  0  0  0  0  0  0  0  0
   -8.0842    2.7289    0.0000 O   0  0  0  0  0  0  0  0  0  0  0  0
   -9.7328    4.0639    0.0000 C   0  0  0  0  0  0  0  0  0  0  0  0
   -8.5193    4.9456    0.0000 C   0  0  0  0  0  0  0  0  0  0  0  0
   -8.6761    6.4373    0.0000 C   0  0  0  0  0  0  0  0  0  0  0  0
  -10.0464    7.0474    0.0000 C   0  0  0  0  0  0  0  0  0  0  0  0
  -11.2599    6.1658    0.0000 C   0  0  0  0  0  0  0  0  0  0  0  0
  -11.1031    4.6740    0.0000 C   0  0  0  0  0  0  0  0  0  0  0  0
  -10.6327    0.1986    0.0000 C   0  0  0  0  0  0  0  0  0  0  0  0
  -10.4760   -1.2931    0.0000 C   0  0  0  0  0  0  0  0  0  0  0  0
  -11.6895   -2.1748    0.0000 N   0  0  0  0  0  0  0  0  0  0  0  0
  -13.0598   -1.5647    0.0000 C   0  0  0  0  0  0  0  0  0  0  0  0
  -13.2166   -0.0729    0.0000 C   0  0  0  0  0  0  0  0  0  0  0  0
  -14.5869    0.5372    0.0000 C   0  0  0  0  0  0  0  0  0  0  0  0
  -15.8004   -0.3445    0.0000 C   0  0  0  0  0  0  0  0  0  0  0  0
  -17.1707    0.2656    0.0000 O   0  0  0  0  0  0  0  0  0  0  0  0
  -15.6436   -1.8363    0.0000 C   0  0  0  0  0  0  0  0  0  0  0  0
  -14.2733   -2.4464    0.0000 C   0  0  0  0  0  0  0  0  0  0  0  0
   -9.1056   -1.9033    0.0000 N   0  0  0  0  0  0  0  0  0  0  0  0
   -5.3083    0.7500    0.0000 N   0  0  0  0  0  0  0  0  0  0  0  0
   -3.8817    1.2135    0.0000 N   0  0  0  0  0  0  0  0  0  0  0  0
   -0.7500    1.2990    0.0000 C   0  0  0  0  0  0  0  0  0  0  0  0
    0.7500    1.2990    0.0000 C   0  0  0  0  0  0  0  0  0  0  0  0
  1  2  1  0
  2  3  1  0
  3  4  2  0
  4  5  1  0
  5  6  2  0
  6  7  1  0
  7  8  2  0
  8  9  1  0
  9 10  1  0
 10 11  1  0
 11 12  2  0
 12 13  1  0
 13 14  1  0
 14 15  2  0
 14 16  2  0
 14 17  1  0
 17 18  2  0
 18 19  1  0
 19 20  2  0
 20 21  1  0
 21 22  2  0
 13 23  2  0
 23 24  1  0
 24 25  1  0
 26 25  1  6
 26 27  1  0
 27 28  1  0
 28 29  1  0
 29 30  1  1
 29 31  1  0
 31 32  1  0
 24 33  2  0
  9 34  2  0
 34 35  1  0
  6 36  1  0
 36 37  2  0
 37  3  1  0
 35  7  1  0
 33 11  1  0
 22 17  1  0
 32 26  1  0
M  END
>  <Compound_ID>  (244) 
CHEMBL3355732

>  <Molecule Name>  (244) 
nan

>  <Molecular Weight>  (244) 
519.63

>  <AlogP>  (244) 
4.77

>  <Smiles>  (244) 
COc1ccc(-c2cc(Nc3cc(S(=O)(=O)c4ccccc4)cc(N[C@H]4CC[C@H](O)CC4)n3)n[nH]2)cc1

>  <Standard Type>  (244) 
Ki

>  <Standard Relation>  (244) 
'='

>  <Standard Units>  (244) 
nM

>  <Standard Value>  (244) 
1.2

>  <Assay ChEMBL ID>  (244) 
CHEMBL3389531

>  <Assay Description>  (244) 
Inhibition of GST-tagged full-length ITK (unknown origin) using Ac-EFPIYDFLPAKKK-NH2 as substrate after 35 mins by LC/MS analysis

>  <BAO Format ID>  (244) 
BAO_0000357

>  <BAO Label>  (244) 
single protein format

>  <Assay Organism>  (244) 
Homo sapiens

>  <Target ChEMBL ID>  (244) 
CHEMBL2959

>  <Target Name>  (244) 
Tyrosine-protein kinase ITK/TSK

>  <Target Organism>  (244) 
Homo sapiens

>  <Target Type>  (244) 
SINGLE PROTEIN

>  <Document ChEMBL ID>  (244) 
CHEMBL3352735

>  <Source Description>  (244) 
Scientific Literature

>  <Document Journal>  (244) 
Bioorg Med Chem Lett

>  <Document Year>  (244) 
2014.0

>  <Active>  (244) 
1.0

$$$$

     RDKit          2D

 36 39  0  0  0  0  0  0  0  0999 V2000
    3.7500   -1.2990    0.0000 C   0  0  0  0  0  0  0  0  0  0  0  0
    3.0000    0.0000    0.0000 C   0  0  0  0  0  0  0  0  0  0  0  0
    3.7500    1.2990    0.0000 O   0  0  0  0  0  0  0  0  0  0  0  0
    1.5000    0.0000    0.0000 N   0  0  0  0  0  0  0  0  0  0  0  0
    0.7500   -1.2990    0.0000 C   0  0  0  0  0  0  0  0  0  0  0  0
   -0.7500   -1.2990    0.0000 C   0  0  0  0  0  0  0  0  0  0  0  0
   -1.5000    0.0000    0.0000 N   0  0  0  0  0  0  0  0  0  0  0  0
   -3.0000    0.0000    0.0000 C   0  0  0  0  0  0  0  0  0  0  0  0
   -3.7500   -1.2990    0.0000 O   0  0  0  0  0  0  0  0  0  0  0  0
   -3.7500    1.2990    0.0000 C   0  0  0  0  0  0  0  0  0  0  0  0
   -3.0000    2.5981    0.0000 C   0  0  0  0  0  0  0  0  0  0  0  0
   -3.7500    3.8971    0.0000 C   0  0  0  0  0  0  0  0  0  0  0  0
   -3.0000    5.1962    0.0000 S   0  0  0  0  0  0  0  0  0  0  0  0
   -1.5000    5.1962    0.0000 C   0  0  0  0  0  0  0  0  0  0  0  0
   -0.6183    6.4097    0.0000 C   0  0  0  0  0  0  0  0  0  0  0  0
    0.8083    5.9462    0.0000 N   0  0  0  0  0  0  0  0  0  0  0  0
    0.8083    4.4462    0.0000 C   0  0  0  0  0  0  0  0  0  0  0  0
    2.0218    3.5645    0.0000 N   0  0  0  0  0  0  0  0  0  0  0  0
    3.3921    4.1746    0.0000 C   0  0  0  0  0  0  0  0  0  0  0  0
    3.5489    5.6664    0.0000 O   0  0  0  0  0  0  0  0  0  0  0  0
    4.6056    3.2929    0.0000 C   0  0  0  0  0  0  0  0  0  0  0  0
    4.4488    1.8011    0.0000 C   0  0  0  0  0  0  0  0  0  0  0  0
    5.6624    0.9194    0.0000 C   0  0  0  0  0  0  0  0  0  0  0  0
    7.0327    1.5295    0.0000 C   0  0  0  0  0  0  0  0  0  0  0  0
    8.2462    0.6479    0.0000 N   0  0  0  0  0  0  0  0  0  0  0  0
    8.0894   -0.8439    0.0000 C   0  0  0  0  0  0  0  0  0  0  0  0
    9.6165    1.2580    0.0000 C   0  0  0  0  0  0  0  0  0  0  0  0
    7.1895    3.0213    0.0000 C   0  0  0  0  0  0  0  0  0  0  0  0
    5.9760    3.9030    0.0000 C   0  0  0  0  0  0  0  0  0  0  0  0
   -0.6183    3.9826    0.0000 S   0  0  0  0  0  0  0  0  0  0  0  0
   -5.2500    3.8971    0.0000 C   0  0  0  0  0  0  0  0  0  0  0  0
   -6.0000    2.5981    0.0000 C   0  0  0  0  0  0  0  0  0  0  0  0
   -5.2500    1.2990    0.0000 C   0  0  0  0  0  0  0  0  0  0  0  0
   -6.0000    0.0000    0.0000 N   0  0  0  0  0  0  0  0  0  0  0  0
   -0.7500    1.2990    0.0000 C   0  0  0  0  0  0  0  0  0  0  0  0
    0.7500    1.2990    0.0000 C   0  0  0  0  0  0  0  0  0  0  0  0
  1  2  1  0
  2  3  2  0
  2  4  1  0
  4  5  1  0
  5  6  1  0
  6  7  1  0
  7  8  1  0
  8  9  2  0
  8 10  1  0
 10 11  2  0
 11 12  1  0
 12 13  1  0
 13 14  1  0
 14 15  2  0
 15 16  1  0
 16 17  2  0
 17 18  1  0
 18 19  1  0
 19 20  2  0
 19 21  1  0
 21 22  2  0
 22 23  1  0
 23 24  2  0
 24 25  1  0
 25 26  1  0
 25 27  1  0
 24 28  1  0
 28 29  2  0
 17 30  1  0
 12 31  2  0
 31 32  1  0
 32 33  2  0
 33 34  1  0
  7 35  1  0
 35 36  1  0
 36  4  1  0
 33 10  1  0
 30 14  1  0
 29 21  1  0
M  END
>  <Compound_ID>  (245) 
CHEMBL210243

>  <Molecule Name>  (245) 
nan

>  <Molecular Weight>  (245) 
524.67

>  <AlogP>  (245) 
3.50

>  <Smiles>  (245) 
CC(=O)N1CCN(C(=O)c2cc(Sc3cnc(NC(=O)c4ccc(N(C)C)cc4)s3)ccc2N)CC1

>  <Standard Type>  (245) 
IC50

>  <Standard Relation>  (245) 
'='

>  <Standard Units>  (245) 
nM

>  <Standard Value>  (245) 
90.0

>  <Assay ChEMBL ID>  (245) 
CHEMBL864159

>  <Assay Description>  (245) 
Inhibition of Itk

>  <BAO Format ID>  (245) 
BAO_0000357

>  <BAO Label>  (245) 
single protein format

>  <Assay Organism>  (245) 
Homo sapiens

>  <Target ChEMBL ID>  (245) 
CHEMBL2959

>  <Target Name>  (245) 
Tyrosine-protein kinase ITK/TSK

>  <Target Organism>  (245) 
Homo sapiens

>  <Target Type>  (245) 
SINGLE PROTEIN

>  <Document ChEMBL ID>  (245) 
CHEMBL1138957

>  <Source Description>  (245) 
Scientific Literature

>  <Document Journal>  (245) 
Bioorg Med Chem Lett

>  <Document Year>  (245) 
2006.0

>  <Active>  (245) 
1.0

$$$$

     RDKit          2D

 37 40  0  0  0  0  0  0  0  0999 V2000
    3.7500   -1.2990    0.0000 C   0  0  0  0  0  0  0  0  0  0  0  0
    3.0000    0.0000    0.0000 C   0  0  0  0  0  0  0  0  0  0  0  0
    3.7500    1.2990    0.0000 O   0  0  0  0  0  0  0  0  0  0  0  0
    1.5000    0.0000    0.0000 N   0  0  0  0  0  0  0  0  0  0  0  0
    0.7500   -1.2990    0.0000 C   0  0  0  0  0  0  0  0  0  0  0  0
   -0.7500   -1.2990    0.0000 C   0  0  0  0  0  0  0  0  0  0  0  0
   -1.5000    0.0000    0.0000 N   0  0  0  0  0  0  0  0  0  0  0  0
   -3.0000    0.0000    0.0000 C   0  0  0  0  0  0  0  0  0  0  0  0
   -3.7500   -1.2990    0.0000 O   0  0  0  0  0  0  0  0  0  0  0  0
   -3.7500    1.2990    0.0000 C   0  0  0  0  0  0  0  0  0  0  0  0
   -3.0000    2.5981    0.0000 C   0  0  0  0  0  0  0  0  0  0  0  0
   -3.7500    3.8971    0.0000 C   0  0  0  0  0  0  0  0  0  0  0  0
   -3.0000    5.1962    0.0000 S   0  0  0  0  0  0  0  0  0  0  0  0
   -1.5000    5.1962    0.0000 C   0  0  0  0  0  0  0  0  0  0  0  0
   -0.6183    6.4097    0.0000 C   0  0  0  0  0  0  0  0  0  0  0  0
    0.8083    5.9462    0.0000 N   0  0  0  0  0  0  0  0  0  0  0  0
    0.8083    4.4462    0.0000 C   0  0  0  0  0  0  0  0  0  0  0  0
    2.0218    3.5645    0.0000 N   0  0  0  0  0  0  0  0  0  0  0  0
    3.3921    4.1746    0.0000 C   0  0  0  0  0  0  0  0  0  0  0  0
    3.5489    5.6664    0.0000 O   0  0  0  0  0  0  0  0  0  0  0  0
    4.6056    3.2929    0.0000 C   0  0  0  0  0  0  0  0  0  0  0  0
    4.4488    1.8011    0.0000 C   0  0  0  0  0  0  0  0  0  0  0  0
    5.6624    0.9194    0.0000 C   0  0  0  0  0  0  0  0  0  0  0  0
    7.0327    1.5295    0.0000 C   0  0  0  0  0  0  0  0  0  0  0  0
    8.2462    0.6479    0.0000 N   0  0  0  0  0  0  0  0  0  0  0  0
    8.0894   -0.8439    0.0000 C   0  0  0  0  0  0  0  0  0  0  0  0
    9.6165    1.2580    0.0000 C   0  0  0  0  0  0  0  0  0  0  0  0
    7.1895    3.0213    0.0000 C   0  0  0  0  0  0  0  0  0  0  0  0
    5.9760    3.9030    0.0000 C   0  0  0  0  0  0  0  0  0  0  0  0
   -0.6183    3.9826    0.0000 S   0  0  0  0  0  0  0  0  0  0  0  0
   -5.2500    3.8971    0.0000 C   0  0  0  0  0  0  0  0  0  0  0  0
   -6.0000    5.1962    0.0000 C   0  0  0  0  0  0  0  0  0  0  0  0
   -6.0000    2.5981    0.0000 C   0  0  0  0  0  0  0  0  0  0  0  0
   -5.2500    1.2990    0.0000 C   0  0  0  0  0  0  0  0  0  0  0  0
   -6.0000    0.0000    0.0000 O   0  0  0  0  0  0  0  0  0  0  0  0
   -0.7500    1.2990    0.0000 C   0  0  0  0  0  0  0  0  0  0  0  0
    0.7500    1.2990    0.0000 C   0  0  0  0  0  0  0  0  0  0  0  0
  1  2  1  0
  2  3  2  0
  2  4  1  0
  4  5  1  0
  5  6  1  0
  6  7  1  0
  7  8  1  0
  8  9  2  0
  8 10  1  0
 10 11  2  0
 11 12  1  0
 12 13  1  0
 13 14  1  0
 14 15  2  0
 15 16  1  0
 16 17  2  0
 17 18  1  0
 18 19  1  0
 19 20  2  0
 19 21  1  0
 21 22  2  0
 22 23  1  0
 23 24  2  0
 24 25  1  0
 25 26  1  0
 25 27  1  0
 24 28  1  0
 28 29  2  0
 17 30  1  0
 12 31  2  0
 31 32  1  0
 31 33  1  0
 33 34  2  0
 34 35  1  0
  7 36  1  0
 36 37  1  0
 37  4  1  0
 34 10  1  0
 30 14  1  0
 29 21  1  0
M  END
>  <Compound_ID>  (246) 
CHEMBL211355

>  <Molecule Name>  (246) 
nan

>  <Molecular Weight>  (246) 
539.68

>  <AlogP>  (246) 
3.93

>  <Smiles>  (246) 
CC(=O)N1CCN(C(=O)c2cc(Sc3cnc(NC(=O)c4ccc(N(C)C)cc4)s3)c(C)cc2O)CC1

>  <Standard Type>  (246) 
IC50

>  <Standard Relation>  (246) 
'='

>  <Standard Units>  (246) 
nM

>  <Standard Value>  (246) 
12.0

>  <Assay ChEMBL ID>  (246) 
CHEMBL864159

>  <Assay Description>  (246) 
Inhibition of Itk

>  <BAO Format ID>  (246) 
BAO_0000357

>  <BAO Label>  (246) 
single protein format

>  <Assay Organism>  (246) 
Homo sapiens

>  <Target ChEMBL ID>  (246) 
CHEMBL2959

>  <Target Name>  (246) 
Tyrosine-protein kinase ITK/TSK

>  <Target Organism>  (246) 
Homo sapiens

>  <Target Type>  (246) 
SINGLE PROTEIN

>  <Document ChEMBL ID>  (246) 
CHEMBL1138957

>  <Source Description>  (246) 
Scientific Literature

>  <Document Journal>  (246) 
Bioorg Med Chem Lett

>  <Document Year>  (246) 
2006.0

>  <Active>  (246) 
1.0

$$$$

     RDKit          2D

 39 43  0  0  0  0  0  0  0  0999 V2000
   -6.4289   -8.5179    0.0000 C   0  0  0  0  0  0  0  0  0  0  0  0
   -6.1170   -7.0506    0.0000 C   0  0  0  0  0  0  0  0  0  0  0  0
   -4.6904   -6.5871    0.0000 C   0  0  0  0  0  0  0  0  0  0  0  0
   -3.5757   -7.5908    0.0000 O   0  0  0  0  0  0  0  0  0  0  0  0
   -4.3786   -5.1199    0.0000 N   0  0  0  0  0  0  0  0  0  0  0  0
   -5.4933   -4.1162    0.0000 C   0  0  0  0  0  0  0  0  0  0  0  0
   -5.1814   -2.6490    0.0000 C   0  0  0  0  0  0  0  0  0  0  0  0
   -3.7548   -2.1855    0.0000 C   0  0  0  0  0  0  0  0  0  0  0  0
   -2.6401   -3.1891    0.0000 C   0  0  0  0  0  0  0  0  0  0  0  0
   -1.2135   -2.7256    0.0000 N   0  0  0  0  0  0  0  0  0  0  0  0
   -0.0000   -3.6073    0.0000 N   0  0  0  0  0  0  0  0  0  0  0  0
    1.2135   -2.7256    0.0000 C   0  0  0  0  0  0  0  0  0  0  0  0
    2.6401   -3.1891    0.0000 C   0  0  0  0  0  0  0  0  0  0  0  0
    2.9520   -4.6564    0.0000 C   0  0  0  0  0  0  0  0  0  0  0  0
    4.3786   -5.1199    0.0000 C   0  0  0  0  0  0  0  0  0  0  0  0
    5.4933   -4.1162    0.0000 C   0  0  0  0  0  0  0  0  0  0  0  0
    5.1814   -2.6490    0.0000 C   0  0  0  0  0  0  0  0  0  0  0  0
    6.2961   -1.6453    0.0000 C   0  0  0  0  0  0  0  0  0  0  0  0
    5.9843   -0.1781    0.0000 O   0  0  0  0  0  0  0  0  0  0  0  0
    7.7227   -2.1088    0.0000 N   0  0  0  0  0  0  0  0  0  0  0  0
    8.8374   -1.1051    0.0000 C   0  0  0  0  0  0  0  0  0  0  0  0
   10.2640   -1.5686    0.0000 C   0  0  0  0  0  0  0  0  0  0  0  0
   11.3787   -0.5649    0.0000 C   0  0  0  0  0  0  0  0  0  0  0  0
   11.0669    0.9023    0.0000 C   0  0  0  0  0  0  0  0  0  0  0  0
    9.6403    1.3658    0.0000 C   0  0  0  0  0  0  0  0  0  0  0  0
    9.3284    2.8330    0.0000 C   0  0  0  0  0  0  0  0  0  0  0  0
   10.7956    3.1449    0.0000 C   0  0  0  0  0  0  0  0  0  0  0  0
    7.8612    2.5212    0.0000 C   0  0  0  0  0  0  0  0  0  0  0  0
    9.0165    4.3002    0.0000 C   0  0  0  0  0  0  0  0  0  0  0  0
    8.5256    0.3621    0.0000 C   0  0  0  0  0  0  0  0  0  0  0  0
    3.7548   -2.1855    0.0000 C   0  0  0  0  0  0  0  0  0  0  0  0
    0.7500   -1.2990    0.0000 C   0  0  0  0  0  0  0  0  0  0  0  0
    1.5000    0.0000    0.0000 C   0  0  0  0  0  0  0  0  0  0  0  0
    3.0000    0.0000    0.0000 N   0  0  0  0  0  0  0  0  0  0  0  0
    0.7500    1.2990    0.0000 N   0  0  0  0  0  0  0  0  0  0  0  0
   -0.7500    1.2990    0.0000 C   0  0  0  0  0  0  0  0  0  0  0  0
   -1.5000    0.0000    0.0000 N   0  0  0  0  0  0  0  0  0  0  0  0
   -0.7500   -1.2990    0.0000 C   0  0  0  0  0  0  0  0  0  0  0  0
   -2.9520   -4.6564    0.0000 C   0  0  0  0  0  0  0  0  0  0  0  0
  1  2  2  0
  2  3  1  0
  3  4  2  0
  3  5  1  0
  5  6  1  0
  6  7  1  0
  7  8  1  0
  8  9  1  0
  9 10  1  0
 10 11  1  0
 11 12  2  0
 12 13  1  0
 13 14  2  0
 14 15  1  0
 15 16  2  0
 16 17  1  0
 17 18  1  0
 18 19  2  0
 18 20  1  0
 20 21  1  0
 21 22  2  0
 22 23  1  0
 23 24  2  0
 24 25  1  0
 25 26  1  0
 26 27  1  0
 26 28  1  0
 26 29  1  0
 25 30  2  0
 17 31  2  0
 12 32  1  0
 32 33  2  0
 33 34  1  0
 33 35  1  0
 35 36  2  0
 36 37  1  0
 37 38  2  0
  9 39  1  0
 39  5  1  0
 38 10  1  0
 31 13  1  0
 38 32  1  0
 30 21  1  0
M  END
>  <Compound_ID>  (247) 
CHEMBL2179790

>  <Molecule Name>  (247) 
nan

>  <Molecular Weight>  (247) 
523.64

>  <AlogP>  (247) 
4.97

>  <Smiles>  (247) 
C=CC(=O)N1CCCC(n2nc(-c3cccc(C(=O)Nc4cccc(C(C)(C)C)c4)c3)c3c(N)ncnc32)C1

>  <Standard Type>  (247) 
IC50

>  <Standard Relation>  (247) 
'='

>  <Standard Units>  (247) 
nM

>  <Standard Value>  (247) 
73.0

>  <Assay ChEMBL ID>  (247) 
CHEMBL2185029

>  <Assay Description>  (247) 
Covalent inhibition of ITK in presence of 1 mM ATP

>  <BAO Format ID>  (247) 
BAO_0000357

>  <BAO Label>  (247) 
single protein format

>  <Assay Organism>  (247) 
None

>  <Target ChEMBL ID>  (247) 
CHEMBL2959

>  <Target Name>  (247) 
Tyrosine-protein kinase ITK/TSK

>  <Target Organism>  (247) 
Homo sapiens

>  <Target Type>  (247) 
SINGLE PROTEIN

>  <Document ChEMBL ID>  (247) 
CHEMBL2177048

>  <Source Description>  (247) 
Scientific Literature

>  <Document Journal>  (247) 
J Med Chem

>  <Document Year>  (247) 
2012.0

>  <Active>  (247) 
1.0

$$$$

     RDKit          2D

 35 38  0  0  0  0  0  0  0  0999 V2000
    0.7500   -3.8971    0.0000 C   0  0  0  0  0  0  0  0  0  0  0  0
    1.5000   -2.5981    0.0000 N   0  0  0  0  0  0  0  0  0  0  0  0
    3.0000   -2.5981    0.0000 C   0  0  0  0  0  0  0  0  0  0  0  0
    3.7500   -1.2990    0.0000 O   0  0  0  0  0  0  0  0  0  0  0  0
    3.7500   -3.8971    0.0000 C   0  0  0  0  0  0  0  0  0  0  0  0
    3.0000   -5.1962    0.0000 C   0  0  0  0  0  0  0  0  0  0  0  0
    3.7500   -6.4952    0.0000 C   0  0  0  0  0  0  0  0  0  0  0  0
    5.2500   -6.4952    0.0000 C   0  0  0  0  0  0  0  0  0  0  0  0
    6.0000   -5.1962    0.0000 C   0  0  0  0  0  0  0  0  0  0  0  0
    5.2500   -3.8971    0.0000 C   0  0  0  0  0  0  0  0  0  0  0  0
    0.7500   -1.2990    0.0000 C   0  0  0  0  0  0  0  0  0  0  0  0
    1.5000    0.0000    0.0000 C   0  0  0  0  0  0  0  0  0  0  0  0
    0.7500    1.2990    0.0000 C   0  0  0  0  0  0  0  0  0  0  0  0
   -0.7500    1.2990    0.0000 C   0  0  0  0  0  0  0  0  0  0  0  0
   -1.5000    0.0000    0.0000 C   0  0  0  0  0  0  0  0  0  0  0  0
   -0.7500   -1.2990    0.0000 C   0  0  0  0  0  0  0  0  0  0  0  0
   -2.9672    0.3119    0.0000 N   0  0  0  0  0  0  0  0  0  0  0  0
   -3.1240    1.8037    0.0000 C   0  0  0  0  0  0  0  0  0  0  0  0
   -4.4231    2.5537    0.0000 N   0  0  0  0  0  0  0  0  0  0  0  0
   -4.4231    4.0537    0.0000 C   0  0  0  0  0  0  0  0  0  0  0  0
   -3.1240    4.8037    0.0000 O   0  0  0  0  0  0  0  0  0  0  0  0
   -5.7221    4.8037    0.0000 C   0  0  0  0  0  0  0  0  0  0  0  0
   -5.7221    6.3037    0.0000 C   0  0  0  0  0  0  0  0  0  0  0  0
   -7.0211    7.0537    0.0000 C   0  0  0  0  0  0  0  0  0  0  0  0
   -8.3202    6.3037    0.0000 C   0  0  0  0  0  0  0  0  0  0  0  0
   -8.3202    4.8037    0.0000 C   0  0  0  0  0  0  0  0  0  0  0  0
   -9.6192    4.0537    0.0000 C   0  0  0  0  0  0  0  0  0  0  0  0
  -10.9182    3.3037    0.0000 N   0  0  0  0  0  0  0  0  0  0  0  0
   -7.0211    4.0537    0.0000 C   0  0  0  0  0  0  0  0  0  0  0  0
   -1.7537    2.4138    0.0000 N   0  0  0  0  0  0  0  0  0  0  0  0
   -1.4418    3.8810    0.0000 C   0  0  0  0  0  0  0  0  0  0  0  0
   -0.0152    4.3445    0.0000 C   0  0  0  0  0  0  0  0  0  0  0  0
    0.2966    5.8117    0.0000 C   0  0  0  0  0  0  0  0  0  0  0  0
    1.7232    6.2752    0.0000 N   0  0  0  0  0  0  0  0  0  0  0  0
   -0.8181    6.8154    0.0000 O   0  0  0  0  0  0  0  0  0  0  0  0
  1  2  1  0
  2  3  1  0
  3  4  2  0
  3  5  1  0
  5  6  1  0
  6  7  1  0
  7  8  1  0
  8  9  1  0
  9 10  1  0
  2 11  1  0
 11 12  2  0
 12 13  1  0
 13 14  2  0
 14 15  1  0
 15 16  2  0
 15 17  1  0
 17 18  2  0
 18 19  1  0
 19 20  1  0
 20 21  2  0
 20 22  1  0
 22 23  2  0
 23 24  1  0
 24 25  2  0
 25 26  1  0
 26 27  1  0
 27 28  3  0
 26 29  2  0
 18 30  1  0
 30 31  1  0
 31 32  1  0
 32 33  1  0
 33 34  1  0
 33 35  2  0
 10  5  1  0
 16 11  1  0
 29 22  1  0
 30 14  1  0
M  END
>  <Compound_ID>  (248) 
CHEMBL485555

>  <Molecule Name>  (248) 
nan

>  <Molecular Weight>  (248) 
472.55

>  <AlogP>  (248) 
3.58

>  <Smiles>  (248) 
CN(C(=O)C1CCCCC1)c1ccc2c(c1)nc(NC(=O)c1cccc(C#N)c1)n2CCC(N)=O

>  <Standard Type>  (248) 
IC50

>  <Standard Relation>  (248) 
'='

>  <Standard Units>  (248) 
nM

>  <Standard Value>  (248) 
4.0

>  <Assay ChEMBL ID>  (248) 
CHEMBL992563

>  <Assay Description>  (248) 
Inhibition of ITK by DELFIA assay

>  <BAO Format ID>  (248) 
BAO_0000357

>  <BAO Label>  (248) 
single protein format

>  <Assay Organism>  (248) 
None

>  <Target ChEMBL ID>  (248) 
CHEMBL2959

>  <Target Name>  (248) 
Tyrosine-protein kinase ITK/TSK

>  <Target Organism>  (248) 
Homo sapiens

>  <Target Type>  (248) 
SINGLE PROTEIN

>  <Document ChEMBL ID>  (248) 
CHEMBL1142468

>  <Source Description>  (248) 
Scientific Literature

>  <Document Journal>  (248) 
Bioorg Med Chem Lett

>  <Document Year>  (248) 
2008.0

>  <Active>  (248) 
1.0

$$$$

     RDKit          2D

 32 35  0  0  0  0  0  0  0  0999 V2000
    0.7500   -3.8971    0.0000 C   0  0  0  0  0  0  0  0  0  0  0  0
    1.5000   -2.5981    0.0000 N   0  0  0  0  0  0  0  0  0  0  0  0
    3.0000   -2.5981    0.0000 C   0  0  0  0  0  0  0  0  0  0  0  0
    3.7500   -1.2990    0.0000 O   0  0  0  0  0  0  0  0  0  0  0  0
    3.7500   -3.8971    0.0000 C   0  0  0  0  0  0  0  0  0  0  0  0
    3.0000   -5.1962    0.0000 C   0  0  0  0  0  0  0  0  0  0  0  0
    3.7500   -6.4952    0.0000 C   0  0  0  0  0  0  0  0  0  0  0  0
    5.2500   -6.4952    0.0000 C   0  0  0  0  0  0  0  0  0  0  0  0
    6.0000   -5.1962    0.0000 C   0  0  0  0  0  0  0  0  0  0  0  0
    5.2500   -3.8971    0.0000 C   0  0  0  0  0  0  0  0  0  0  0  0
    0.7500   -1.2990    0.0000 C   0  0  0  0  0  0  0  0  0  0  0  0
    1.5000    0.0000    0.0000 C   0  0  0  0  0  0  0  0  0  0  0  0
    0.7500    1.2990    0.0000 C   0  0  0  0  0  0  0  0  0  0  0  0
   -0.7500    1.2990    0.0000 C   0  0  0  0  0  0  0  0  0  0  0  0
   -1.5000    0.0000    0.0000 C   0  0  0  0  0  0  0  0  0  0  0  0
   -0.7500   -1.2990    0.0000 C   0  0  0  0  0  0  0  0  0  0  0  0
   -2.9672    0.3119    0.0000 N   0  0  0  0  0  0  0  0  0  0  0  0
   -3.1240    1.8037    0.0000 C   0  0  0  0  0  0  0  0  0  0  0  0
   -4.4231    2.5537    0.0000 N   0  0  0  0  0  0  0  0  0  0  0  0
   -4.4231    4.0537    0.0000 C   0  0  0  0  0  0  0  0  0  0  0  0
   -3.1240    4.8037    0.0000 O   0  0  0  0  0  0  0  0  0  0  0  0
   -5.7221    4.8037    0.0000 C   0  0  0  0  0  0  0  0  0  0  0  0
   -7.0924    4.1935    0.0000 C   0  0  0  0  0  0  0  0  0  0  0  0
   -8.0961    5.3083    0.0000 C   0  0  0  0  0  0  0  0  0  0  0  0
   -7.3461    6.6073    0.0000 N   0  0  0  0  0  0  0  0  0  0  0  0
   -5.8789    6.2954    0.0000 O   0  0  0  0  0  0  0  0  0  0  0  0
   -1.7537    2.4138    0.0000 N   0  0  0  0  0  0  0  0  0  0  0  0
   -1.4418    3.8810    0.0000 C   0  0  0  0  0  0  0  0  0  0  0  0
   -0.0152    4.3445    0.0000 C   0  0  0  0  0  0  0  0  0  0  0  0
    0.2966    5.8117    0.0000 C   0  0  0  0  0  0  0  0  0  0  0  0
    1.7232    6.2752    0.0000 N   0  0  0  0  0  0  0  0  0  0  0  0
   -0.8181    6.8154    0.0000 O   0  0  0  0  0  0  0  0  0  0  0  0
  1  2  1  0
  2  3  1  0
  3  4  2  0
  3  5  1  0
  5  6  1  0
  6  7  1  0
  7  8  1  0
  8  9  1  0
  9 10  1  0
  2 11  1  0
 11 12  2  0
 12 13  1  0
 13 14  2  0
 14 15  1  0
 15 16  2  0
 15 17  1  0
 17 18  2  0
 18 19  1  0
 19 20  1  0
 20 21  2  0
 20 22  1  0
 22 23  2  0
 23 24  1  0
 24 25  2  0
 25 26  1  0
 18 27  1  0
 27 28  1  0
 28 29  1  0
 29 30  1  0
 30 31  1  0
 30 32  2  0
 10  5  1  0
 16 11  1  0
 26 22  1  0
 27 14  1  0
M  END
>  <Compound_ID>  (249) 
CHEMBL485565

>  <Molecule Name>  (249) 
nan

>  <Molecular Weight>  (249) 
438.49

>  <AlogP>  (249) 
2.70

>  <Smiles>  (249) 
CN(C(=O)C1CCCCC1)c1ccc2c(c1)nc(NC(=O)c1ccno1)n2CCC(N)=O

>  <Standard Type>  (249) 
IC50

>  <Standard Relation>  (249) 
'='

>  <Standard Units>  (249) 
nM

>  <Standard Value>  (249) 
10.0

>  <Assay ChEMBL ID>  (249) 
CHEMBL992563

>  <Assay Description>  (249) 
Inhibition of ITK by DELFIA assay

>  <BAO Format ID>  (249) 
BAO_0000357

>  <BAO Label>  (249) 
single protein format

>  <Assay Organism>  (249) 
None

>  <Target ChEMBL ID>  (249) 
CHEMBL2959

>  <Target Name>  (249) 
Tyrosine-protein kinase ITK/TSK

>  <Target Organism>  (249) 
Homo sapiens

>  <Target Type>  (249) 
SINGLE PROTEIN

>  <Document ChEMBL ID>  (249) 
CHEMBL1142468

>  <Source Description>  (249) 
Scientific Literature

>  <Document Journal>  (249) 
Bioorg Med Chem Lett

>  <Document Year>  (249) 
2008.0

>  <Active>  (249) 
1.0

$$$$

     RDKit          2D

 34 37  0  0  0  0  0  0  0  0999 V2000
    1.2990  -10.3573    0.0000 C   0  0  0  0  0  0  0  0  0  0  0  0
   -0.0000   -9.6073    0.0000 C   0  0  0  0  0  0  0  0  0  0  0  0
   -1.2990  -10.3573    0.0000 C   0  0  0  0  0  0  0  0  0  0  0  0
   -2.5981   -9.6073    0.0000 C   0  0  0  0  0  0  0  0  0  0  0  0
   -2.5981   -8.1073    0.0000 C   0  0  0  0  0  0  0  0  0  0  0  0
   -1.2990   -7.3573    0.0000 C   0  0  0  0  0  0  0  0  0  0  0  0
   -1.2990   -5.8573    0.0000 C   0  0  0  0  0  0  0  0  0  0  0  0
   -2.5981   -5.1073    0.0000 O   0  0  0  0  0  0  0  0  0  0  0  0
   -0.0000   -5.1073    0.0000 N   0  0  0  0  0  0  0  0  0  0  0  0
   -0.0000   -3.6073    0.0000 C   0  0  0  0  0  0  0  0  0  0  0  0
    1.2135   -2.7256    0.0000 N   0  0  0  0  0  0  0  0  0  0  0  0
    0.7500   -1.2990    0.0000 C   0  0  0  0  0  0  0  0  0  0  0  0
    1.5000    0.0000    0.0000 C   0  0  0  0  0  0  0  0  0  0  0  0
    0.7500    1.2990    0.0000 C   0  0  0  0  0  0  0  0  0  0  0  0
    1.5000    2.5981    0.0000 N   0  0  0  0  0  0  0  0  0  0  0  0
    3.0000    2.5981    0.0000 C   0  0  0  0  0  0  0  0  0  0  0  0
    0.7500    3.8971    0.0000 C   0  0  0  0  0  0  0  0  0  0  0  0
   -0.7500    3.8971    0.0000 O   0  0  0  0  0  0  0  0  0  0  0  0
    1.5000    5.1962    0.0000 C   0  0  0  0  0  0  0  0  0  0  0  0
    3.0000    5.1962    0.0000 C   0  0  0  0  0  0  0  0  0  0  0  0
    3.7500    6.4952    0.0000 C   0  0  0  0  0  0  0  0  0  0  0  0
    3.0000    7.7942    0.0000 C   0  0  0  0  0  0  0  0  0  0  0  0
    1.5000    7.7942    0.0000 C   0  0  0  0  0  0  0  0  0  0  0  0
    0.7500    6.4952    0.0000 C   0  0  0  0  0  0  0  0  0  0  0  0
   -0.7500    1.2990    0.0000 C   0  0  0  0  0  0  0  0  0  0  0  0
   -1.5000    0.0000    0.0000 C   0  0  0  0  0  0  0  0  0  0  0  0
   -0.7500   -1.2990    0.0000 C   0  0  0  0  0  0  0  0  0  0  0  0
   -1.2135   -2.7256    0.0000 N   0  0  0  0  0  0  0  0  0  0  0  0
   -2.6401   -3.1891    0.0000 C   0  0  0  0  0  0  0  0  0  0  0  0
   -3.7548   -2.1855    0.0000 C   0  0  0  0  0  0  0  0  0  0  0  0
   -5.1814   -2.6490    0.0000 C   0  0  0  0  0  0  0  0  0  0  0  0
   -6.2961   -1.6453    0.0000 N   0  0  0  0  0  0  0  0  0  0  0  0
   -5.4933   -4.1162    0.0000 O   0  0  0  0  0  0  0  0  0  0  0  0
   -0.0000   -8.1073    0.0000 C   0  0  0  0  0  0  0  0  0  0  0  0
  1  2  1  0
  2  3  2  0
  3  4  1  0
  4  5  2  0
  5  6  1  0
  6  7  1  0
  7  8  2  0
  7  9  1  0
  9 10  1  0
 10 11  2  0
 11 12  1  0
 12 13  2  0
 13 14  1  0
 14 15  1  0
 15 16  1  0
 15 17  1  0
 17 18  2  0
 17 19  1  0
 19 20  1  0
 20 21  1  0
 21 22  1  0
 22 23  1  0
 23 24  1  0
 14 25  2  0
 25 26  1  0
 26 27  2  0
 27 28  1  0
 28 29  1  0
 29 30  1  0
 30 31  1  0
 31 32  1  0
 31 33  2  0
  6 34  2  0
 34  2  1  0
 28 10  1  0
 27 12  1  0
 24 19  1  0
M  END
>  <Compound_ID>  (250) 
CHEMBL483602

>  <Molecule Name>  (250) 
nan

>  <Molecular Weight>  (250) 
461.57

>  <AlogP>  (250) 
4.02

>  <Smiles>  (250) 
Cc1cccc(C(=O)Nc2nc3cc(N(C)C(=O)C4CCCCC4)ccc3n2CCC(N)=O)c1

>  <Standard Type>  (250) 
IC50

>  <Standard Relation>  (250) 
'='

>  <Standard Units>  (250) 
nM

>  <Standard Value>  (250) 
56.0

>  <Assay ChEMBL ID>  (250) 
CHEMBL992563

>  <Assay Description>  (250) 
Inhibition of ITK by DELFIA assay

>  <BAO Format ID>  (250) 
BAO_0000357

>  <BAO Label>  (250) 
single protein format

>  <Assay Organism>  (250) 
None

>  <Target ChEMBL ID>  (250) 
CHEMBL2959

>  <Target Name>  (250) 
Tyrosine-protein kinase ITK/TSK

>  <Target Organism>  (250) 
Homo sapiens

>  <Target Type>  (250) 
SINGLE PROTEIN

>  <Document ChEMBL ID>  (250) 
CHEMBL1142468

>  <Source Description>  (250) 
Scientific Literature

>  <Document Journal>  (250) 
Bioorg Med Chem Lett

>  <Document Year>  (250) 
2008.0

>  <Active>  (250) 
1.0

$$$$

     RDKit          2D

 35 38  0  0  0  0  0  0  0  0999 V2000
   -1.8244  -10.7223    0.0000 C   0  0  0  0  0  0  0  0  0  0  0  0
   -0.3326  -10.8791    0.0000 C   0  0  0  0  0  0  0  0  0  0  0  0
    0.2775  -12.2494    0.0000 O   0  0  0  0  0  0  0  0  0  0  0  0
    0.5490   -9.6656    0.0000 C   0  0  0  0  0  0  0  0  0  0  0  0
    2.0490   -9.6656    0.0000 C   0  0  0  0  0  0  0  0  0  0  0  0
    2.5126   -8.2390    0.0000 C   0  0  0  0  0  0  0  0  0  0  0  0
    1.2990   -7.3573    0.0000 C   0  0  0  0  0  0  0  0  0  0  0  0
    1.2990   -5.8573    0.0000 C   0  0  0  0  0  0  0  0  0  0  0  0
    2.5981   -5.1073    0.0000 O   0  0  0  0  0  0  0  0  0  0  0  0
   -0.0000   -5.1073    0.0000 N   0  0  0  0  0  0  0  0  0  0  0  0
   -0.0000   -3.6073    0.0000 C   0  0  0  0  0  0  0  0  0  0  0  0
    1.2135   -2.7256    0.0000 N   0  0  0  0  0  0  0  0  0  0  0  0
    0.7500   -1.2990    0.0000 C   0  0  0  0  0  0  0  0  0  0  0  0
    1.5000    0.0000    0.0000 C   0  0  0  0  0  0  0  0  0  0  0  0
    0.7500    1.2990    0.0000 C   0  0  0  0  0  0  0  0  0  0  0  0
    1.5000    2.5981    0.0000 N   0  0  0  0  0  0  0  0  0  0  0  0
    3.0000    2.5981    0.0000 C   0  0  0  0  0  0  0  0  0  0  0  0
    0.7500    3.8971    0.0000 C   0  0  0  0  0  0  0  0  0  0  0  0
   -0.7500    3.8971    0.0000 O   0  0  0  0  0  0  0  0  0  0  0  0
    1.5000    5.1962    0.0000 C   0  0  0  0  0  0  0  0  0  0  0  0
    3.0000    5.1962    0.0000 C   0  0  0  0  0  0  0  0  0  0  0  0
    3.7500    6.4952    0.0000 C   0  0  0  0  0  0  0  0  0  0  0  0
    3.0000    7.7942    0.0000 C   0  0  0  0  0  0  0  0  0  0  0  0
    1.5000    7.7942    0.0000 C   0  0  0  0  0  0  0  0  0  0  0  0
    0.7500    6.4952    0.0000 C   0  0  0  0  0  0  0  0  0  0  0  0
   -0.7500    1.2990    0.0000 C   0  0  0  0  0  0  0  0  0  0  0  0
   -1.5000    0.0000    0.0000 C   0  0  0  0  0  0  0  0  0  0  0  0
   -0.7500   -1.2990    0.0000 C   0  0  0  0  0  0  0  0  0  0  0  0
   -1.2135   -2.7256    0.0000 N   0  0  0  0  0  0  0  0  0  0  0  0
   -2.6401   -3.1891    0.0000 C   0  0  0  0  0  0  0  0  0  0  0  0
   -3.7548   -2.1855    0.0000 C   0  0  0  0  0  0  0  0  0  0  0  0
   -5.1814   -2.6490    0.0000 C   0  0  0  0  0  0  0  0  0  0  0  0
   -6.2961   -1.6453    0.0000 N   0  0  0  0  0  0  0  0  0  0  0  0
   -5.4933   -4.1162    0.0000 O   0  0  0  0  0  0  0  0  0  0  0  0
    0.0855   -8.2390    0.0000 S   0  0  0  0  0  0  0  0  0  0  0  0
  1  2  1  0
  2  3  2  0
  2  4  1  0
  4  5  2  0
  5  6  1  0
  6  7  2  0
  7  8  1  0
  8  9  2  0
  8 10  1  0
 10 11  2  0
 11 12  1  0
 12 13  1  0
 13 14  2  0
 14 15  1  0
 15 16  1  0
 16 17  1  0
 16 18  1  0
 18 19  2  0
 18 20  1  0
 20 21  2  0
 21 22  1  0
 22 23  2  0
 23 24  1  0
 24 25  2  0
 15 26  2  0
 26 27  1  0
 27 28  2  0
 28 29  1  0
 29 30  1  0
 30 31  1  0
 31 32  1  0
 32 33  1  0
 32 34  2  0
  7 35  1  0
 35  4  1  0
 29 11  1  0
 28 13  1  0
 25 20  1  0
M  END
>  <Compound_ID>  (251) 
CHEMBL480573

>  <Molecule Name>  (251) 
nan

>  <Molecular Weight>  (251) 
489.56

>  <AlogP>  (251) 
3.13

>  <Smiles>  (251) 
CC(=O)c1ccc(C(=O)/N=c2\[nH]c3cc(N(C)C(=O)c4ccccc4)ccc3n2CCC(N)=O)s1

>  <Standard Type>  (251) 
IC50

>  <Standard Relation>  (251) 
'='

>  <Standard Units>  (251) 
nM

>  <Standard Value>  (251) 
14.0

>  <Assay ChEMBL ID>  (251) 
CHEMBL992190

>  <Assay Description>  (251) 
Inhibition of ITK by DELFIA method

>  <BAO Format ID>  (251) 
BAO_0000357

>  <BAO Label>  (251) 
single protein format

>  <Assay Organism>  (251) 
None

>  <Target ChEMBL ID>  (251) 
CHEMBL2959

>  <Target Name>  (251) 
Tyrosine-protein kinase ITK/TSK

>  <Target Organism>  (251) 
Homo sapiens

>  <Target Type>  (251) 
SINGLE PROTEIN

>  <Document ChEMBL ID>  (251) 
CHEMBL1143295

>  <Source Description>  (251) 
Scientific Literature

>  <Document Journal>  (251) 
Bioorg Med Chem Lett

>  <Document Year>  (251) 
2009.0

>  <Active>  (251) 
1.0

$$$$

     RDKit          2D

 33 36  0  0  0  0  0  0  0  0999 V2000
    0.7500   -3.8971    0.0000 C   0  0  0  0  0  0  0  0  0  0  0  0
    1.5000   -2.5981    0.0000 N   0  0  0  0  0  0  0  0  0  0  0  0
    3.0000   -2.5981    0.0000 C   0  0  0  0  0  0  0  0  0  0  0  0
    3.7500   -1.2990    0.0000 O   0  0  0  0  0  0  0  0  0  0  0  0
    3.7500   -3.8971    0.0000 C   0  0  0  0  0  0  0  0  0  0  0  0
    3.3618   -5.3460    0.0000 C   0  0  0  0  0  0  0  0  0  0  0  0
    4.8107   -5.7342    0.0000 C   0  0  0  0  0  0  0  0  0  0  0  0
    5.1989   -4.2853    0.0000 C   0  0  0  0  0  0  0  0  0  0  0  0
    0.7500   -1.2990    0.0000 C   0  0  0  0  0  0  0  0  0  0  0  0
    1.5000    0.0000    0.0000 C   0  0  0  0  0  0  0  0  0  0  0  0
    0.7500    1.2990    0.0000 C   0  0  0  0  0  0  0  0  0  0  0  0
   -0.7500    1.2990    0.0000 C   0  0  0  0  0  0  0  0  0  0  0  0
   -1.5000    0.0000    0.0000 C   0  0  0  0  0  0  0  0  0  0  0  0
   -0.7500   -1.2990    0.0000 C   0  0  0  0  0  0  0  0  0  0  0  0
   -2.9672    0.3119    0.0000 N   0  0  0  0  0  0  0  0  0  0  0  0
   -3.1240    1.8037    0.0000 C   0  0  0  0  0  0  0  0  0  0  0  0
   -4.4231    2.5537    0.0000 N   0  0  0  0  0  0  0  0  0  0  0  0
   -4.4231    4.0537    0.0000 C   0  0  0  0  0  0  0  0  0  0  0  0
   -3.1240    4.8037    0.0000 O   0  0  0  0  0  0  0  0  0  0  0  0
   -5.7221    4.8037    0.0000 C   0  0  0  0  0  0  0  0  0  0  0  0
   -5.7221    6.3037    0.0000 C   0  0  0  0  0  0  0  0  0  0  0  0
   -7.0211    7.0537    0.0000 C   0  0  0  0  0  0  0  0  0  0  0  0
   -8.3202    6.3037    0.0000 C   0  0  0  0  0  0  0  0  0  0  0  0
   -9.6192    7.0537    0.0000 C   0  0  0  0  0  0  0  0  0  0  0  0
  -10.9182    7.8037    0.0000 N   0  0  0  0  0  0  0  0  0  0  0  0
   -8.3202    4.8037    0.0000 C   0  0  0  0  0  0  0  0  0  0  0  0
   -7.0211    4.0537    0.0000 C   0  0  0  0  0  0  0  0  0  0  0  0
   -1.7537    2.4138    0.0000 N   0  0  0  0  0  0  0  0  0  0  0  0
   -1.4418    3.8810    0.0000 C   0  0  0  0  0  0  0  0  0  0  0  0
   -0.0152    4.3445    0.0000 C   0  0  0  0  0  0  0  0  0  0  0  0
    0.2966    5.8117    0.0000 C   0  0  0  0  0  0  0  0  0  0  0  0
    1.7232    6.2752    0.0000 N   0  0  0  0  0  0  0  0  0  0  0  0
   -0.8181    6.8154    0.0000 O   0  0  0  0  0  0  0  0  0  0  0  0
  1  2  1  0
  2  3  1  0
  3  4  2  0
  3  5  1  0
  5  6  1  0
  6  7  1  0
  7  8  1  0
  2  9  1  0
  9 10  2  0
 10 11  1  0
 11 12  2  0
 12 13  1  0
 13 14  2  0
 13 15  1  0
 15 16  2  0
 16 17  1  0
 17 18  1  0
 18 19  2  0
 18 20  1  0
 20 21  2  0
 21 22  1  0
 22 23  2  0
 23 24  1  0
 24 25  3  0
 23 26  1  0
 26 27  2  0
 16 28  1  0
 28 29  1  0
 29 30  1  0
 30 31  1  0
 31 32  1  0
 31 33  2  0
  8  5  1  0
 14  9  1  0
 27 20  1  0
 28 12  1  0
M  END
>  <Compound_ID>  (252) 
CHEMBL516958

>  <Molecule Name>  (252) 
nan

>  <Molecular Weight>  (252) 
444.5

>  <AlogP>  (252) 
2.80

>  <Smiles>  (252) 
CN(C(=O)C1CCC1)c1ccc2c(c1)nc(NC(=O)c1ccc(C#N)cc1)n2CCC(N)=O

>  <Standard Type>  (252) 
IC50

>  <Standard Relation>  (252) 
'='

>  <Standard Units>  (252) 
nM

>  <Standard Value>  (252) 
8.0

>  <Assay ChEMBL ID>  (252) 
CHEMBL992563

>  <Assay Description>  (252) 
Inhibition of ITK by DELFIA assay

>  <BAO Format ID>  (252) 
BAO_0000357

>  <BAO Label>  (252) 
single protein format

>  <Assay Organism>  (252) 
None

>  <Target ChEMBL ID>  (252) 
CHEMBL2959

>  <Target Name>  (252) 
Tyrosine-protein kinase ITK/TSK

>  <Target Organism>  (252) 
Homo sapiens

>  <Target Type>  (252) 
SINGLE PROTEIN

>  <Document ChEMBL ID>  (252) 
CHEMBL1142468

>  <Source Description>  (252) 
Scientific Literature

>  <Document Journal>  (252) 
Bioorg Med Chem Lett

>  <Document Year>  (252) 
2008.0

>  <Active>  (252) 
1.0

$$$$

     RDKit          2D

 37 42  0  0  0  0  0  0  0  0999 V2000
  -10.2497   -1.4504    0.0000 C   0  0  0  0  0  0  0  0  0  0  0  0
   -8.8231   -1.9139    0.0000 C   0  0  0  0  0  0  0  0  0  0  0  0
   -8.5112   -3.3811    0.0000 C   0  0  0  0  0  0  0  0  0  0  0  0
   -9.6260   -4.3848    0.0000 O   0  0  0  0  0  0  0  0  0  0  0  0
   -7.0847   -3.8447    0.0000 N   0  0  0  0  0  0  0  0  0  0  0  0
   -6.6211   -5.2713    0.0000 C   0  0  0  0  0  0  0  0  0  0  0  0
   -5.1211   -5.2713    0.0000 C   0  0  0  0  0  0  0  0  0  0  0  0
   -4.6576   -3.8447    0.0000 C   0  0  0  0  0  0  0  0  0  0  0  0
   -5.8711   -2.9630    0.0000 C   0  0  0  0  0  0  0  0  0  0  0  0
   -3.3211   -4.5257    0.0000 C   0  0  0  0  0  0  0  0  0  0  0  0
   -2.6401   -3.1891    0.0000 C   0  0  0  0  0  0  0  0  0  0  0  0
   -1.2135   -2.7256    0.0000 N   0  0  0  0  0  0  0  0  0  0  0  0
   -0.0000   -3.6073    0.0000 C   0  0  0  0  0  0  0  0  0  0  0  0
   -0.0000   -5.1073    0.0000 N   0  0  0  0  0  0  0  0  0  0  0  0
   -1.2990   -5.8573    0.0000 C   0  0  0  0  0  0  0  0  0  0  0  0
   -2.5981   -5.1073    0.0000 O   0  0  0  0  0  0  0  0  0  0  0  0
   -1.2990   -7.3573    0.0000 C   0  0  0  0  0  0  0  0  0  0  0  0
   -0.0855   -8.2390    0.0000 C   0  0  0  0  0  0  0  0  0  0  0  0
   -0.5490   -9.6656    0.0000 C   0  0  0  0  0  0  0  0  0  0  0  0
   -2.0490   -9.6656    0.0000 C   0  0  0  0  0  0  0  0  0  0  0  0
   -2.9307  -10.8791    0.0000 C   0  0  0  0  0  0  0  0  0  0  0  0
   -4.4225  -10.7223    0.0000 C   0  0  0  0  0  0  0  0  0  0  0  0
   -5.3042  -11.9358    0.0000 C   0  0  0  0  0  0  0  0  0  0  0  0
   -4.6941  -13.3061    0.0000 N   0  0  0  0  0  0  0  0  0  0  0  0
   -3.2023  -13.4629    0.0000 C   0  0  0  0  0  0  0  0  0  0  0  0
   -2.5922  -14.8333    0.0000 N   0  0  0  0  0  0  0  0  0  0  0  0
   -3.4739  -16.0468    0.0000 C   0  0  0  0  0  0  0  0  0  0  0  0
   -2.3206  -12.2494    0.0000 C   0  0  0  0  0  0  0  0  0  0  0  0
   -2.5126   -8.2390    0.0000 S   0  0  0  0  0  0  0  0  0  0  0  0
    1.2135   -2.7256    0.0000 N   0  0  0  0  0  0  0  0  0  0  0  0
    0.7500   -1.2990    0.0000 C   0  0  0  0  0  0  0  0  0  0  0  0
    1.5000    0.0000    0.0000 C   0  0  0  0  0  0  0  0  0  0  0  0
    0.7500    1.2990    0.0000 C   0  0  0  0  0  0  0  0  0  0  0  0
   -0.7500    1.2990    0.0000 C   0  0  0  0  0  0  0  0  0  0  0  0
   -1.5000    0.0000    0.0000 C   0  0  0  0  0  0  0  0  0  0  0  0
   -0.7500   -1.2990    0.0000 C   0  0  0  0  0  0  0  0  0  0  0  0
   -3.9766   -2.5082    0.0000 C   0  0  0  0  0  0  0  0  0  0  0  0
  1  2  2  0
  2  3  1  0
  3  4  2  0
  3  5  1  0
  5  6  1  0
  6  7  1  0
  8  7  1  1
  8  9  1  0
  8 10  1  0
 10 11  1  0
 11 12  1  1
 12 13  1  0
 13 14  1  0
 14 15  1  0
 15 16  2  0
 15 17  1  0
 17 18  2  0
 18 19  1  0
 19 20  2  0
 20 21  1  0
 21 22  2  0
 22 23  1  0
 23 24  2  0
 24 25  1  0
 25 26  1  0
 26 27  1  0
 25 28  2  0
 20 29  1  0
 13 30  2  0
 30 31  1  0
 31 32  2  0
 32 33  1  0
 33 34  2  0
 34 35  1  0
 35 36  2  0
 11 37  1  0
  9  5  1  0
 36 12  1  0
 37  8  1  0
 29 17  1  0
 36 31  1  0
 28 21  1  0
M  END
>  <Compound_ID>  (253) 
CHEMBL4219011

>  <Molecule Name>  (253) 
nan

>  <Molecular Weight>  (253) 
512.64

>  <AlogP>  (253) 
5.19

>  <Smiles>  (253) 
C=CC(=O)N1CC[C@]2(C1)C[C@H](n1c(NC(=O)c3ccc(-c4ccnc(NC)c4)s3)nc3ccccc31)C2

>  <Standard Type>  (253) 
IC50

>  <Standard Relation>  (253) 
'='

>  <Standard Units>  (253) 
nM

>  <Standard Value>  (253) 
0.41

>  <Assay ChEMBL ID>  (253) 
CHEMBL4199503

>  <Assay Description>  (253) 
Inhibition of ITK (unknown origin) using fluorescently labeled peptide as substrate after 3 hrs by microfluidic mobility shift assay

>  <BAO Format ID>  (253) 
BAO_0000357

>  <BAO Label>  (253) 
single protein format

>  <Assay Organism>  (253) 
Homo sapiens

>  <Target ChEMBL ID>  (253) 
CHEMBL2959

>  <Target Name>  (253) 
Tyrosine-protein kinase ITK/TSK

>  <Target Organism>  (253) 
Homo sapiens

>  <Target Type>  (253) 
SINGLE PROTEIN

>  <Document ChEMBL ID>  (253) 
CHEMBL4196110

>  <Source Description>  (253) 
Scientific Literature

>  <Document Journal>  (253) 
ACS Med Chem Lett

>  <Document Year>  (253) 
2018.0

>  <Active>  (253) 
1.0

$$$$

     RDKit          2D

 40 44  0  0  0  0  0  0  0  0999 V2000
  -10.2497   -1.4504    0.0000 C   0  0  0  0  0  0  0  0  0  0  0  0
   -8.8231   -1.9139    0.0000 C   0  0  0  0  0  0  0  0  0  0  0  0
   -8.5112   -3.3811    0.0000 C   0  0  0  0  0  0  0  0  0  0  0  0
   -9.6260   -4.3848    0.0000 O   0  0  0  0  0  0  0  0  0  0  0  0
   -7.0847   -3.8447    0.0000 N   0  0  0  0  0  0  0  0  0  0  0  0
   -6.6211   -5.2713    0.0000 C   0  0  0  0  0  0  0  0  0  0  0  0
   -5.1211   -5.2713    0.0000 C   0  0  0  0  0  0  0  0  0  0  0  0
   -4.6576   -3.8447    0.0000 C   0  0  0  0  0  0  0  0  0  0  0  0
   -5.8711   -2.9630    0.0000 C   0  0  0  0  0  0  0  0  0  0  0  0
   -3.3211   -4.5257    0.0000 C   0  0  0  0  0  0  0  0  0  0  0  0
   -2.6401   -3.1891    0.0000 C   0  0  0  0  0  0  0  0  0  0  0  0
   -1.2135   -2.7256    0.0000 N   0  0  0  0  0  0  0  0  0  0  0  0
   -0.0000   -3.6073    0.0000 C   0  0  0  0  0  0  0  0  0  0  0  0
   -0.0000   -5.1073    0.0000 N   0  0  0  0  0  0  0  0  0  0  0  0
   -1.2990   -5.8573    0.0000 C   0  0  0  0  0  0  0  0  0  0  0  0
   -2.5981   -5.1073    0.0000 O   0  0  0  0  0  0  0  0  0  0  0  0
   -1.2990   -7.3573    0.0000 C   0  0  0  0  0  0  0  0  0  0  0  0
   -2.5981   -8.1073    0.0000 C   0  0  0  0  0  0  0  0  0  0  0  0
   -2.5981   -9.6073    0.0000 C   0  0  0  0  0  0  0  0  0  0  0  0
   -1.2990  -10.3573    0.0000 C   0  0  0  0  0  0  0  0  0  0  0  0
   -1.2990  -11.8573    0.0000 C   0  0  0  0  0  0  0  0  0  0  0  0
   -1.2990  -13.3573    0.0000 N   0  0  0  0  0  0  0  0  0  0  0  0
    0.0000   -9.6073    0.0000 C   0  0  0  0  0  0  0  0  0  0  0  0
    0.0000   -8.1073    0.0000 C   0  0  0  0  0  0  0  0  0  0  0  0
    1.2135   -2.7256    0.0000 N   0  0  0  0  0  0  0  0  0  0  0  0
    0.7500   -1.2990    0.0000 C   0  0  0  0  0  0  0  0  0  0  0  0
    1.5000    0.0000    0.0000 C   0  0  0  0  0  0  0  0  0  0  0  0
    0.7500    1.2990    0.0000 C   0  0  0  0  0  0  0  0  0  0  0  0
    1.5000    2.5981    0.0000 C   0  0  0  0  0  0  0  0  0  0  0  0
    3.0000    2.5981    0.0000 N   0  0  0  0  0  0  0  0  0  0  0  0
    3.7500    3.8971    0.0000 C   0  0  0  0  0  0  0  0  0  0  0  0
    5.2500    3.8971    0.0000 C   0  0  0  0  0  0  0  0  0  0  0  0
    3.0000    5.1962    0.0000 C   0  0  0  0  0  0  0  0  0  0  0  0
    4.2990    5.9462    0.0000 C   0  0  0  0  0  0  0  0  0  0  0  0
    1.7010    4.4462    0.0000 C   0  0  0  0  0  0  0  0  0  0  0  0
    2.2500    6.4952    0.0000 C   0  0  0  0  0  0  0  0  0  0  0  0
   -0.7500    1.2990    0.0000 C   0  0  0  0  0  0  0  0  0  0  0  0
   -1.5000    0.0000    0.0000 C   0  0  0  0  0  0  0  0  0  0  0  0
   -0.7500   -1.2990    0.0000 C   0  0  0  0  0  0  0  0  0  0  0  0
   -3.9766   -2.5082    0.0000 C   0  0  0  0  0  0  0  0  0  0  0  0
  1  2  2  0
  2  3  1  0
  3  4  2  0
  3  5  1  0
  5  6  1  0
  6  7  1  0
  8  7  1  1
  8  9  1  0
  8 10  1  0
 10 11  1  0
 11 12  1  1
 12 13  1  0
 13 14  1  0
 14 15  1  0
 15 16  2  0
 15 17  1  0
 17 18  2  0
 18 19  1  0
 19 20  2  0
 20 21  1  0
 21 22  3  0
 20 23  1  0
 23 24  2  0
 13 25  2  0
 25 26  1  0
 26 27  2  0
 27 28  1  0
 28 29  1  0
 29 30  1  0
 30 31  1  0
 31 32  1  6
 31 33  1  0
 33 34  1  0
 33 35  1  0
 33 36  1  0
 28 37  2  0
 37 38  1  0
 38 39  2  0
 11 40  1  0
  9  5  1  0
 39 12  1  0
 40  8  1  0
 24 17  1  0
 39 26  1  0
M  END
>  <Compound_ID>  (254) 
CHEMBL4210857

>  <Molecule Name>  (254) 
nan

>  <Molecular Weight>  (254) 
538.7

>  <AlogP>  (254) 
5.42

>  <Smiles>  (254) 
C=CC(=O)N1CC[C@]2(C1)C[C@H](n1c(NC(=O)c3ccc(C#N)cc3)nc3cc(CN[C@@H](C)C(C)(C)C)ccc31)C2

>  <Standard Type>  (254) 
IC50

>  <Standard Relation>  (254) 
'='

>  <Standard Units>  (254) 
nM

>  <Standard Value>  (254) 
1.5

>  <Assay ChEMBL ID>  (254) 
CHEMBL4199503

>  <Assay Description>  (254) 
Inhibition of ITK (unknown origin) using fluorescently labeled peptide as substrate after 3 hrs by microfluidic mobility shift assay

>  <BAO Format ID>  (254) 
BAO_0000357

>  <BAO Label>  (254) 
single protein format

>  <Assay Organism>  (254) 
Homo sapiens

>  <Target ChEMBL ID>  (254) 
CHEMBL2959

>  <Target Name>  (254) 
Tyrosine-protein kinase ITK/TSK

>  <Target Organism>  (254) 
Homo sapiens

>  <Target Type>  (254) 
SINGLE PROTEIN

>  <Document ChEMBL ID>  (254) 
CHEMBL4196110

>  <Source Description>  (254) 
Scientific Literature

>  <Document Journal>  (254) 
ACS Med Chem Lett

>  <Document Year>  (254) 
2018.0

>  <Active>  (254) 
1.0

$$$$

     RDKit          2D

 30 33  0  0  0  0  0  0  0  0999 V2000
   10.5000   -5.1962    0.0000 C   0  0  0  0  0  0  0  0  0  0  0  0
    9.7500   -3.8971    0.0000 C   0  0  0  0  0  0  0  0  0  0  0  0
    8.2500   -3.8971    0.0000 C   0  0  0  0  0  0  0  0  0  0  0  0
    7.5000   -2.5981    0.0000 C   0  0  0  0  0  0  0  0  0  0  0  0
    8.2500   -1.2990    0.0000 O   0  0  0  0  0  0  0  0  0  0  0  0
    6.0000   -2.5981    0.0000 N   0  0  0  0  0  0  0  0  0  0  0  0
    5.2500   -1.2990    0.0000 C   0  0  0  0  0  0  0  0  0  0  0  0
    3.7500   -1.2990    0.0000 C   0  0  0  0  0  0  0  0  0  0  0  0
    3.0000    0.0000    0.0000 O   0  0  0  0  0  0  0  0  0  0  0  0
    1.5000    0.0000    0.0000 C   0  0  0  0  0  0  0  0  0  0  0  0
    0.7500   -1.2990    0.0000 C   0  0  0  0  0  0  0  0  0  0  0  0
   -0.7500   -1.2990    0.0000 C   0  0  0  0  0  0  0  0  0  0  0  0
   -1.5000    0.0000    0.0000 C   0  0  0  0  0  0  0  0  0  0  0  0
   -0.7500    1.2990    0.0000 C   0  0  0  0  0  0  0  0  0  0  0  0
   -1.2135    2.7256    0.0000 N   0  0  0  0  0  0  0  0  0  0  0  0
   -0.0000    3.6073    0.0000 C   0  0  0  0  0  0  0  0  0  0  0  0
   -0.0000    5.1073    0.0000 C   0  0  0  0  0  0  0  0  0  0  0  0
    1.2135    5.9890    0.0000 N   0  0  0  0  0  0  0  0  0  0  0  0
    0.7500    7.4156    0.0000 N   0  0  0  0  0  0  0  0  0  0  0  0
   -0.7500    7.4156    0.0000 C   0  0  0  0  0  0  0  0  0  0  0  0
   -1.7537    8.5303    0.0000 C   0  0  0  0  0  0  0  0  0  0  0  0
   -3.2209    8.2184    0.0000 C   0  0  0  0  0  0  0  0  0  0  0  0
   -4.2246    9.3331    0.0000 C   0  0  0  0  0  0  0  0  0  0  0  0
   -3.7611   10.7597    0.0000 F   0  0  0  0  0  0  0  0  0  0  0  0
   -5.6918    9.0213    0.0000 F   0  0  0  0  0  0  0  0  0  0  0  0
   -3.6844    6.7918    0.0000 C   0  0  0  0  0  0  0  0  0  0  0  0
   -2.6807    5.6771    0.0000 C   0  0  0  0  0  0  0  0  0  0  0  0
   -1.2135    5.9890    0.0000 C   0  0  0  0  0  0  0  0  0  0  0  0
    1.2135    2.7256    0.0000 C   0  0  0  0  0  0  0  0  0  0  0  0
    0.7500    1.2990    0.0000 C   0  0  0  0  0  0  0  0  0  0  0  0
  1  2  1  0
  2  3  2  0
  3  4  1  0
  4  5  2  0
  4  6  1  0
  6  7  1  0
  7  8  1  0
  8  9  1  0
  9 10  1  0
 10 11  2  0
 11 12  1  0
 12 13  2  0
 13 14  1  0
 14 15  1  0
 15 16  1  0
 16 17  1  0
 17 18  2  0
 18 19  1  0
 19 20  1  0
 20 21  2  0
 21 22  1  0
 22 23  1  0
 23 24  1  0
 23 25  1  0
 22 26  2  0
 26 27  1  0
 27 28  2  0
 16 29  2  0
 29 30  1  0
 30 10  1  0
 30 14  2  0
 28 17  1  0
 28 20  1  0
M  END
>  <Compound_ID>  (255) 
CHEMBL4637765

>  <Molecule Name>  (255) 
nan

>  <Molecular Weight>  (255) 
410.42

>  <AlogP>  (255) 
4.72

>  <Smiles>  (255) 
C/C=C/C(=O)NCCOc1cccc2[nH]c(-c3n[nH]c4cc(C(F)F)ccc34)cc12

>  <Standard Type>  (255) 
IC50

>  <Standard Relation>  (255) 
'='

>  <Standard Units>  (255) 
nM

>  <Standard Value>  (255) 
84.0

>  <Assay ChEMBL ID>  (255) 
CHEMBL4603778

>  <Assay Description>  (255) 
Inhibition of ITK (unknown origin) using TK as substrate incubated for 30 mins by HTRF assay

>  <BAO Format ID>  (255) 
BAO_0000357

>  <BAO Label>  (255) 
single protein format

>  <Assay Organism>  (255) 
Homo sapiens

>  <Target ChEMBL ID>  (255) 
CHEMBL2959

>  <Target Name>  (255) 
Tyrosine-protein kinase ITK/TSK

>  <Target Organism>  (255) 
Homo sapiens

>  <Target Type>  (255) 
SINGLE PROTEIN

>  <Document ChEMBL ID>  (255) 
CHEMBL4602634

>  <Source Description>  (255) 
Scientific Literature

>  <Document Journal>  (255) 
Eur J Med Chem

>  <Document Year>  (255) 
2020.0

>  <Active>  (255) 
1.0

$$$$

     RDKit          2D

 39 44  0  0  0  0  0  0  0  0999 V2000
  -10.2497   -1.4504    0.0000 C   0  0  0  0  0  0  0  0  0  0  0  0
   -8.8231   -1.9139    0.0000 C   0  0  0  0  0  0  0  0  0  0  0  0
   -8.5112   -3.3811    0.0000 C   0  0  0  0  0  0  0  0  0  0  0  0
   -9.6260   -4.3848    0.0000 O   0  0  0  0  0  0  0  0  0  0  0  0
   -7.0847   -3.8447    0.0000 N   0  0  0  0  0  0  0  0  0  0  0  0
   -6.6211   -5.2713    0.0000 C   0  0  0  0  0  0  0  0  0  0  0  0
   -5.1211   -5.2713    0.0000 C   0  0  0  0  0  0  0  0  0  0  0  0
   -4.6576   -3.8447    0.0000 C   0  0  0  0  0  0  0  0  0  0  0  0
   -5.8711   -2.9630    0.0000 C   0  0  0  0  0  0  0  0  0  0  0  0
   -3.3211   -4.5257    0.0000 C   0  0  0  0  0  0  0  0  0  0  0  0
   -2.6401   -3.1891    0.0000 C   0  0  0  0  0  0  0  0  0  0  0  0
   -1.2135   -2.7256    0.0000 N   0  0  0  0  0  0  0  0  0  0  0  0
   -0.0000   -3.6073    0.0000 C   0  0  0  0  0  0  0  0  0  0  0  0
   -0.0000   -5.1073    0.0000 N   0  0  0  0  0  0  0  0  0  0  0  0
   -1.2990   -5.8573    0.0000 C   0  0  0  0  0  0  0  0  0  0  0  0
   -2.5981   -5.1073    0.0000 O   0  0  0  0  0  0  0  0  0  0  0  0
   -1.2990   -7.3573    0.0000 C   0  0  0  0  0  0  0  0  0  0  0  0
   -0.0855   -8.2390    0.0000 C   0  0  0  0  0  0  0  0  0  0  0  0
   -0.5490   -9.6656    0.0000 C   0  0  0  0  0  0  0  0  0  0  0  0
   -2.0490   -9.6656    0.0000 C   0  0  0  0  0  0  0  0  0  0  0  0
   -2.9307  -10.8791    0.0000 C   0  0  0  0  0  0  0  0  0  0  0  0
   -4.4225  -10.7223    0.0000 F   0  0  0  0  0  0  0  0  0  0  0  0
   -2.3206  -12.2494    0.0000 F   0  0  0  0  0  0  0  0  0  0  0  0
   -2.5126   -8.2390    0.0000 S   0  0  0  0  0  0  0  0  0  0  0  0
    1.2135   -2.7256    0.0000 N   0  0  0  0  0  0  0  0  0  0  0  0
    0.7500   -1.2990    0.0000 C   0  0  0  0  0  0  0  0  0  0  0  0
    1.5000    0.0000    0.0000 C   0  0  0  0  0  0  0  0  0  0  0  0
    0.7500    1.2990    0.0000 C   0  0  0  0  0  0  0  0  0  0  0  0
    1.5000    2.5981    0.0000 C   0  0  0  0  0  0  0  0  0  0  0  0
    3.0000    2.5981    0.0000 N   0  0  0  0  0  0  0  0  0  0  0  0
    3.7500    1.2990    0.0000 C   0  0  0  0  0  0  0  0  0  0  0  0
    5.2500    1.2990    0.0000 C   0  0  0  0  0  0  0  0  0  0  0  0
    6.0000    2.5981    0.0000 O   0  0  0  0  0  0  0  0  0  0  0  0
    5.2500    3.8971    0.0000 C   0  0  0  0  0  0  0  0  0  0  0  0
    3.7500    3.8971    0.0000 C   0  0  0  0  0  0  0  0  0  0  0  0
   -0.7500    1.2990    0.0000 C   0  0  0  0  0  0  0  0  0  0  0  0
   -1.5000    0.0000    0.0000 C   0  0  0  0  0  0  0  0  0  0  0  0
   -0.7500   -1.2990    0.0000 C   0  0  0  0  0  0  0  0  0  0  0  0
   -3.9766   -2.5082    0.0000 C   0  0  0  0  0  0  0  0  0  0  0  0
  1  2  2  0
  2  3  1  0
  3  4  2  0
  3  5  1  0
  5  6  1  0
  6  7  1  0
  8  7  1  1
  8  9  1  0
  8 10  1  0
 10 11  1  0
 11 12  1  1
 12 13  1  0
 13 14  1  0
 14 15  1  0
 15 16  2  0
 15 17  1  0
 17 18  2  0
 18 19  1  0
 19 20  2  0
 20 21  1  0
 21 22  1  0
 21 23  1  0
 20 24  1  0
 13 25  2  0
 25 26  1  0
 26 27  2  0
 27 28  1  0
 28 29  1  0
 29 30  1  0
 30 31  1  0
 31 32  1  0
 32 33  1  0
 33 34  1  0
 34 35  1  0
 28 36  2  0
 36 37  1  0
 37 38  2  0
 11 39  1  0
  9  5  1  0
 38 12  1  0
 39  8  1  0
 24 17  1  0
 38 26  1  0
 35 30  1  0
M  END
>  <Compound_ID>  (256) 
CHEMBL4218914

>  <Molecule Name>  (256) 
nan

>  <Molecular Weight>  (256) 
555.65

>  <AlogP>  (256) 
4.86

>  <Smiles>  (256) 
C=CC(=O)N1CC[C@]2(C1)C[C@H](n1c(NC(=O)c3ccc(C(F)F)s3)nc3cc(CN4CCOCC4)ccc31)C2

>  <Standard Type>  (256) 
IC50

>  <Standard Relation>  (256) 
'='

>  <Standard Units>  (256) 
nM

>  <Standard Value>  (256) 
1.52

>  <Assay ChEMBL ID>  (256) 
CHEMBL4199503

>  <Assay Description>  (256) 
Inhibition of ITK (unknown origin) using fluorescently labeled peptide as substrate after 3 hrs by microfluidic mobility shift assay

>  <BAO Format ID>  (256) 
BAO_0000357

>  <BAO Label>  (256) 
single protein format

>  <Assay Organism>  (256) 
Homo sapiens

>  <Target ChEMBL ID>  (256) 
CHEMBL2959

>  <Target Name>  (256) 
Tyrosine-protein kinase ITK/TSK

>  <Target Organism>  (256) 
Homo sapiens

>  <Target Type>  (256) 
SINGLE PROTEIN

>  <Document ChEMBL ID>  (256) 
CHEMBL4196110

>  <Source Description>  (256) 
Scientific Literature

>  <Document Journal>  (256) 
ACS Med Chem Lett

>  <Document Year>  (256) 
2018.0

>  <Active>  (256) 
1.0

$$$$

     RDKit          2D

 38 41  0  0  0  0  0  0  0  0999 V2000
    5.2500   -1.2990    0.0000 C   0  0  0  0  0  0  0  0  0  0  0  0
    3.7500   -1.2990    0.0000 O   0  0  0  0  0  0  0  0  0  0  0  0
    3.0000    0.0000    0.0000 C   0  0  0  0  0  0  0  0  0  0  0  0
    1.5000    0.0000    0.0000 C   0  0  0  0  0  0  0  0  0  0  0  0
    0.7500   -1.2990    0.0000 C   0  0  0  0  0  0  0  0  0  0  0  0
   -0.7500   -1.2990    0.0000 C   0  0  0  0  0  0  0  0  0  0  0  0
   -1.5000    0.0000    0.0000 C   0  0  0  0  0  0  0  0  0  0  0  0
   -3.0000    0.0000    0.0000 C   0  0  0  0  0  0  0  0  0  0  0  0
   -3.7500   -1.2990    0.0000 O   0  0  0  0  0  0  0  0  0  0  0  0
   -3.7500    1.2990    0.0000 N   0  0  0  0  0  0  0  0  0  0  0  0
   -5.2500    1.2990    0.0000 C   0  0  0  0  0  0  0  0  0  0  0  0
   -6.1317    0.0855    0.0000 N   0  0  0  0  0  0  0  0  0  0  0  0
   -7.5583    0.5490    0.0000 C   0  0  0  0  0  0  0  0  0  0  0  0
   -7.5583    2.0490    0.0000 C   0  0  0  0  0  0  0  0  0  0  0  0
   -8.7718    2.9307    0.0000 S   0  0  0  0  0  0  0  0  0  0  0  0
   -8.6150    4.4225    0.0000 C   0  0  0  0  0  0  0  0  0  0  0  0
   -7.2447    5.0326    0.0000 C   0  0  0  0  0  0  0  0  0  0  0  0
   -7.0879    6.5244    0.0000 C   0  0  0  0  0  0  0  0  0  0  0  0
   -5.7176    7.1345    0.0000 C   0  0  0  0  0  0  0  0  0  0  0  0
   -5.5608    8.6263    0.0000 O   0  0  0  0  0  0  0  0  0  0  0  0
   -4.5040    6.2528    0.0000 N   0  0  0  0  0  0  0  0  0  0  0  0
   -4.6608    4.7610    0.0000 C   0  0  0  0  0  0  0  0  0  0  0  0
   -3.4473    3.8794    0.0000 C   0  0  0  0  0  0  0  0  0  0  0  0
   -2.0770    4.4895    0.0000 N   0  0  0  0  0  0  0  0  0  0  0  0
   -0.8635    3.6078    0.0000 C   0  0  0  0  0  0  0  0  0  0  0  0
    0.5069    4.2179    0.0000 C   0  0  0  0  0  0  0  0  0  0  0  0
   -1.0203    2.1160    0.0000 O   0  0  0  0  0  0  0  0  0  0  0  0
   -1.9202    5.9812    0.0000 C   0  0  0  0  0  0  0  0  0  0  0  0
   -3.1337    6.8629    0.0000 C   0  0  0  0  0  0  0  0  0  0  0  0
   -8.3014    7.4061    0.0000 C   0  0  0  0  0  0  0  0  0  0  0  0
   -8.1446    8.8978    0.0000 O   0  0  0  0  0  0  0  0  0  0  0  0
   -9.3581    9.7795    0.0000 C   0  0  0  0  0  0  0  0  0  0  0  0
   -9.6717    6.7960    0.0000 C   0  0  0  0  0  0  0  0  0  0  0  0
   -9.8285    5.3042    0.0000 C   0  0  0  0  0  0  0  0  0  0  0  0
  -11.1988    4.6941    0.0000 C   0  0  0  0  0  0  0  0  0  0  0  0
   -6.1317    2.5126    0.0000 S   0  0  0  0  0  0  0  0  0  0  0  0
   -0.7500    1.2990    0.0000 C   0  0  0  0  0  0  0  0  0  0  0  0
    0.7500    1.2990    0.0000 C   0  0  0  0  0  0  0  0  0  0  0  0
  1  2  1  0
  2  3  1  0
  3  4  1  0
  4  5  2  0
  5  6  1  0
  6  7  2  0
  7  8  1  0
  8  9  2  0
  8 10  1  0
 10 11  1  0
 11 12  2  0
 12 13  1  0
 13 14  2  0
 14 15  1  0
 15 16  1  0
 16 17  2  0
 17 18  1  0
 18 19  1  0
 19 20  2  0
 19 21  1  0
 21 22  1  0
 22 23  1  0
 23 24  1  0
 24 25  1  0
 25 26  1  0
 25 27  2  0
 24 28  1  0
 28 29  1  0
 18 30  2  0
 30 31  1  0
 31 32  1  0
 30 33  1  0
 33 34  2  0
 34 35  1  0
 14 36  1  0
  7 37  1  0
 37 38  2  0
 38  4  1  0
 36 11  1  0
 34 16  1  0
 29 21  1  0
M  END
>  <Compound_ID>  (257) 
CHEMBL211291

>  <Molecule Name>  (257) 
nan

>  <Molecular Weight>  (257) 
554.69

>  <AlogP>  (257) 
4.31

>  <Smiles>  (257) 
COCc1ccc(C(=O)Nc2ncc(Sc3cc(C(=O)N4CCN(C(C)=O)CC4)c(OC)cc3C)s2)cc1

>  <Standard Type>  (257) 
IC50

>  <Standard Relation>  (257) 
'='

>  <Standard Units>  (257) 
nM

>  <Standard Value>  (257) 
20.0

>  <Assay ChEMBL ID>  (257) 
CHEMBL864159

>  <Assay Description>  (257) 
Inhibition of Itk

>  <BAO Format ID>  (257) 
BAO_0000357

>  <BAO Label>  (257) 
single protein format

>  <Assay Organism>  (257) 
Homo sapiens

>  <Target ChEMBL ID>  (257) 
CHEMBL2959

>  <Target Name>  (257) 
Tyrosine-protein kinase ITK/TSK

>  <Target Organism>  (257) 
Homo sapiens

>  <Target Type>  (257) 
SINGLE PROTEIN

>  <Document ChEMBL ID>  (257) 
CHEMBL1138957

>  <Source Description>  (257) 
Scientific Literature

>  <Document Journal>  (257) 
Bioorg Med Chem Lett

>  <Document Year>  (257) 
2006.0

>  <Active>  (257) 
1.0

$$$$

     RDKit          2D

 30 33  0  0  0  0  0  0  0  0999 V2000
   -2.4240   -6.1312    0.0000 C   0  0  0  0  0  0  0  0  0  0  0  0
   -1.0537   -5.5211    0.0000 N   0  0  0  0  0  0  0  0  0  0  0  0
    0.2454   -6.2711    0.0000 C   0  0  0  0  0  0  0  0  0  0  0  0
    1.3601   -5.2674    0.0000 N   0  0  0  0  0  0  0  0  0  0  0  0
    0.7500   -3.8971    0.0000 C   0  0  0  0  0  0  0  0  0  0  0  0
    1.5000   -2.5981    0.0000 N   0  0  0  0  0  0  0  0  0  0  0  0
    0.7500   -1.2990    0.0000 C   0  0  0  0  0  0  0  0  0  0  0  0
    1.5000    0.0000    0.0000 C   0  0  0  0  0  0  0  0  0  0  0  0
    0.7500    1.2990    0.0000 C   0  0  0  0  0  0  0  0  0  0  0  0
    1.5000    2.5981    0.0000 S   0  0  0  0  0  0  0  0  0  0  0  0
    0.2010    3.3481    0.0000 O   0  0  0  0  0  0  0  0  0  0  0  0
    2.7990    1.8481    0.0000 O   0  0  0  0  0  0  0  0  0  0  0  0
    2.2500    3.8971    0.0000 C   0  0  0  0  0  0  0  0  0  0  0  0
    3.7500    3.8971    0.0000 C   0  0  0  0  0  0  0  0  0  0  0  0
    4.5000    5.1962    0.0000 C   0  0  0  0  0  0  0  0  0  0  0  0
    3.7500    6.4952    0.0000 C   0  0  0  0  0  0  0  0  0  0  0  0
    2.2500    6.4952    0.0000 C   0  0  0  0  0  0  0  0  0  0  0  0
    1.5000    5.1962    0.0000 C   0  0  0  0  0  0  0  0  0  0  0  0
   -0.7500    1.2990    0.0000 C   0  0  0  0  0  0  0  0  0  0  0  0
   -1.5000    0.0000    0.0000 C   0  0  0  0  0  0  0  0  0  0  0  0
   -3.0000    0.0000    0.0000 N   0  0  0  0  0  0  0  0  0  0  0  0
   -3.7500    1.2990    0.0000 C   0  0  0  0  0  0  0  0  0  0  0  0
   -3.0000    2.5981    0.0000 C   0  0  0  0  0  0  0  0  0  0  0  0
   -3.7500    3.8971    0.0000 C   0  0  0  0  0  0  0  0  0  0  0  0
   -5.2500    3.8971    0.0000 C   0  0  0  0  0  0  0  0  0  0  0  0
   -6.0000    5.1962    0.0000 O   0  0  0  0  0  0  0  0  0  0  0  0
   -6.0000    2.5981    0.0000 C   0  0  0  0  0  0  0  0  0  0  0  0
   -5.2500    1.2990    0.0000 C   0  0  0  0  0  0  0  0  0  0  0  0
   -0.7500   -1.2990    0.0000 N   0  0  0  0  0  0  0  0  0  0  0  0
   -0.7418   -4.0539    0.0000 C   0  0  0  0  0  0  0  0  0  0  0  0
  1  2  1  0
  2  3  1  0
  3  4  2  0
  4  5  1  0
  5  6  1  0
  6  7  1  0
  7  8  2  0
  8  9  1  0
  9 10  1  0
 10 11  2  0
 10 12  2  0
 10 13  1  0
 13 14  2  0
 14 15  1  0
 15 16  2  0
 16 17  1  0
 17 18  2  0
  9 19  2  0
 19 20  1  0
 20 21  1  0
 22 21  1  6
 22 23  1  0
 23 24  1  0
 24 25  1  0
 25 26  1  1
 25 27  1  0
 27 28  1  0
 20 29  2  0
  5 30  2  0
 30  2  1  0
 29  7  1  0
 18 13  1  0
 28 22  1  0
M  END
>  <Compound_ID>  (258) 
CHEMBL3355727

>  <Molecule Name>  (258) 
nan

>  <Molecular Weight>  (258) 
427.53

>  <AlogP>  (258) 
3.11

>  <Smiles>  (258) 
Cn1cnc(Nc2cc(S(=O)(=O)c3ccccc3)cc(N[C@H]3CC[C@H](O)CC3)n2)c1

>  <Standard Type>  (258) 
Ki

>  <Standard Relation>  (258) 
'='

>  <Standard Units>  (258) 
nM

>  <Standard Value>  (258) 
14.0

>  <Assay ChEMBL ID>  (258) 
CHEMBL3389531

>  <Assay Description>  (258) 
Inhibition of GST-tagged full-length ITK (unknown origin) using Ac-EFPIYDFLPAKKK-NH2 as substrate after 35 mins by LC/MS analysis

>  <BAO Format ID>  (258) 
BAO_0000357

>  <BAO Label>  (258) 
single protein format

>  <Assay Organism>  (258) 
Homo sapiens

>  <Target ChEMBL ID>  (258) 
CHEMBL2959

>  <Target Name>  (258) 
Tyrosine-protein kinase ITK/TSK

>  <Target Organism>  (258) 
Homo sapiens

>  <Target Type>  (258) 
SINGLE PROTEIN

>  <Document ChEMBL ID>  (258) 
CHEMBL3352735

>  <Source Description>  (258) 
Scientific Literature

>  <Document Journal>  (258) 
Bioorg Med Chem Lett

>  <Document Year>  (258) 
2014.0

>  <Active>  (258) 
1.0

$$$$

     RDKit          2D

 48 53  0  0  0  0  0  0  0  0999 V2000
  -11.8697    3.3732    0.0000 C   0  0  0  0  0  0  0  0  0  0  0  0
  -12.1816    1.9060    0.0000 C   0  0  0  0  0  0  0  0  0  0  0  0
  -13.6082    1.4425    0.0000 C   0  0  0  0  0  0  0  0  0  0  0  0
  -11.0669    0.9023    0.0000 C   0  0  0  0  0  0  0  0  0  0  0  0
   -9.6403    1.3658    0.0000 C   0  0  0  0  0  0  0  0  0  0  0  0
   -8.5256    0.3621    0.0000 C   0  0  0  0  0  0  0  0  0  0  0  0
   -8.8374   -1.1051    0.0000 C   0  0  0  0  0  0  0  0  0  0  0  0
   -7.7227   -2.1088    0.0000 N   0  0  0  0  0  0  0  0  0  0  0  0
   -6.2961   -1.6453    0.0000 C   0  0  0  0  0  0  0  0  0  0  0  0
   -5.9843   -0.1781    0.0000 O   0  0  0  0  0  0  0  0  0  0  0  0
   -5.1814   -2.6490    0.0000 C   0  0  0  0  0  0  0  0  0  0  0  0
   -5.4933   -4.1162    0.0000 C   0  0  0  0  0  0  0  0  0  0  0  0
   -4.3786   -5.1199    0.0000 C   0  0  0  0  0  0  0  0  0  0  0  0
   -2.9520   -4.6564    0.0000 C   0  0  0  0  0  0  0  0  0  0  0  0
   -2.6401   -3.1891    0.0000 C   0  0  0  0  0  0  0  0  0  0  0  0
   -1.2135   -2.7256    0.0000 C   0  0  0  0  0  0  0  0  0  0  0  0
   -0.0000   -3.6073    0.0000 N   0  0  0  0  0  0  0  0  0  0  0  0
    1.2135   -2.7256    0.0000 N   0  0  0  0  0  0  0  0  0  0  0  0
    2.6401   -3.1891    0.0000 C   0  0  0  0  0  0  0  0  0  0  0  0
    2.9520   -4.6564    0.0000 C   0  0  0  0  0  0  0  0  0  0  0  0
    4.3786   -5.1199    0.0000 C   0  0  0  0  0  0  0  0  0  0  0  0
    5.4933   -4.1162    0.0000 C   0  0  0  0  0  0  0  0  0  0  0  0
    5.1814   -2.6490    0.0000 N   0  0  0  0  0  0  0  0  0  0  0  0
    6.2961   -1.6453    0.0000 C   0  0  0  0  0  0  0  0  0  0  0  0
    5.9843   -0.1781    0.0000 O   0  0  0  0  0  0  0  0  0  0  0  0
    7.7227   -2.1088    0.0000 C   0  0  0  0  0  0  0  0  0  0  0  0
    8.8374   -1.1051    0.0000 C   0  0  0  0  0  0  0  0  0  0  0  0
   10.2640   -1.5686    0.0000 C   0  0  0  0  0  0  0  0  0  0  0  0
   11.3787   -0.5649    0.0000 N   0  0  0  0  0  0  0  0  0  0  0  0
   12.8053   -1.0285    0.0000 C   0  0  0  0  0  0  0  0  0  0  0  0
   13.9200   -0.0248    0.0000 C   0  0  0  0  0  0  0  0  0  0  0  0
   13.6082    1.4425    0.0000 N   0  0  0  0  0  0  0  0  0  0  0  0
   14.7229    2.4461    0.0000 C   0  0  0  0  0  0  0  0  0  0  0  0
   16.1495    1.9826    0.0000 C   0  0  0  0  0  0  0  0  0  0  0  0
   17.2642    2.9863    0.0000 N   0  0  0  0  0  0  0  0  0  0  0  0
   12.1816    1.9060    0.0000 C   0  0  0  0  0  0  0  0  0  0  0  0
   11.0669    0.9023    0.0000 C   0  0  0  0  0  0  0  0  0  0  0  0
    3.7548   -2.1855    0.0000 C   0  0  0  0  0  0  0  0  0  0  0  0
    0.7500   -1.2990    0.0000 C   0  0  0  0  0  0  0  0  0  0  0  0
    1.5000    0.0000    0.0000 N   0  0  0  0  0  0  0  0  0  0  0  0
    0.7500    1.2990    0.0000 C   0  0  0  0  0  0  0  0  0  0  0  0
   -0.7500    1.2990    0.0000 N   0  0  0  0  0  0  0  0  0  0  0  0
   -1.5000    0.0000    0.0000 C   0  0  0  0  0  0  0  0  0  0  0  0
   -3.0000    0.0000    0.0000 N   0  0  0  0  0  0  0  0  0  0  0  0
   -0.7500   -1.2990    0.0000 C   0  0  0  0  0  0  0  0  0  0  0  0
   -3.7548   -2.1855    0.0000 C   0  0  0  0  0  0  0  0  0  0  0  0
  -10.2640   -1.5686    0.0000 C   0  0  0  0  0  0  0  0  0  0  0  0
  -11.3787   -0.5649    0.0000 C   0  0  0  0  0  0  0  0  0  0  0  0
  1  2  1  0
  2  3  1  0
  2  4  1  0
  4  5  2  0
  5  6  1  0
  6  7  2  0
  7  8  1  0
  8  9  1  0
  9 10  2  0
  9 11  1  0
 11 12  2  0
 12 13  1  0
 13 14  2  0
 14 15  1  0
 15 16  1  0
 16 17  2  0
 17 18  1  0
 19 18  1  1
 19 20  1  0
 20 21  1  0
 21 22  1  0
 22 23  1  0
 23 24  1  0
 24 25  2  0
 24 26  1  0
 26 27  2  0
 27 28  1  0
 28 29  1  0
 29 30  1  0
 30 31  1  0
 31 32  1  0
 32 33  1  0
 33 34  1  0
 34 35  1  0
 32 36  1  0
 36 37  1  0
 23 38  1  0
 18 39  1  0
 39 40  2  0
 40 41  1  0
 41 42  2  0
 42 43  1  0
 43 44  1  0
 43 45  2  0
 15 46  2  0
  7 47  1  0
 47 48  2  0
 48  4  1  0
 46 11  1  0
 45 16  1  0
 38 19  1  0
 45 39  1  0
 37 29  1  0
M  END
>  <Compound_ID>  (259) 
CHEMBL2179780

>  <Molecule Name>  (259) 
nan

>  <Molecular Weight>  (259) 
650.83

>  <AlogP>  (259) 
3.75

>  <Smiles>  (259) 
CC(C)c1ccc(NC(=O)c2cccc(-c3nn([C@@H]4CCCN(C(=O)/C=C/CN5CCN(CCN)CC5)C4)c4ncnc(N)c34)c2)cc1

>  <Standard Type>  (259) 
IC50

>  <Standard Relation>  (259) 
'='

>  <Standard Units>  (259) 
nM

>  <Standard Value>  (259) 
100.0

>  <Assay ChEMBL ID>  (259) 
CHEMBL2185029

>  <Assay Description>  (259) 
Covalent inhibition of ITK in presence of 1 mM ATP

>  <BAO Format ID>  (259) 
BAO_0000357

>  <BAO Label>  (259) 
single protein format

>  <Assay Organism>  (259) 
None

>  <Target ChEMBL ID>  (259) 
CHEMBL2959

>  <Target Name>  (259) 
Tyrosine-protein kinase ITK/TSK

>  <Target Organism>  (259) 
Homo sapiens

>  <Target Type>  (259) 
SINGLE PROTEIN

>  <Document ChEMBL ID>  (259) 
CHEMBL2177048

>  <Source Description>  (259) 
Scientific Literature

>  <Document Journal>  (259) 
J Med Chem

>  <Document Year>  (259) 
2012.0

>  <Active>  (259) 
1.0

$$$$

     RDKit          2D

 24 27  0  0  0  0  0  0  0  0999 V2000
    0.7981   -9.7226    0.0000 C   0  0  0  0  0  0  0  0  0  0  0  0
   -0.3509   -8.7584    0.0000 C   0  0  0  0  0  0  0  0  0  0  0  0
   -1.5000   -7.7942    0.0000 C   0  0  0  0  0  0  0  0  0  0  0  0
   -0.7500   -6.4952    0.0000 C   0  0  0  0  0  0  0  0  0  0  0  0
   -1.5000   -5.1962    0.0000 O   0  0  0  0  0  0  0  0  0  0  0  0
    0.7500   -6.4952    0.0000 N   0  0  0  0  0  0  0  0  0  0  0  0
    1.5000   -5.1962    0.0000 C   0  0  0  0  0  0  0  0  0  0  0  0
    3.0000   -5.1962    0.0000 C   0  0  0  0  0  0  0  0  0  0  0  0
    3.7500   -3.8971    0.0000 C   0  0  0  0  0  0  0  0  0  0  0  0
    3.0000   -2.5981    0.0000 C   0  0  0  0  0  0  0  0  0  0  0  0
    1.5000   -2.5981    0.0000 C   0  0  0  0  0  0  0  0  0  0  0  0
    0.7500   -1.2990    0.0000 C   0  0  0  0  0  0  0  0  0  0  0  0
    1.5000    0.0000    0.0000 C   0  0  0  0  0  0  0  0  0  0  0  0
    0.7500    1.2990    0.0000 N   0  0  0  0  0  0  0  0  0  0  0  0
   -0.7500    1.2990    0.0000 C   0  0  0  0  0  0  0  0  0  0  0  0
   -1.7537    2.4138    0.0000 N   0  0  0  0  0  0  0  0  0  0  0  0
   -3.1240    1.8037    0.0000 C   0  0  0  0  0  0  0  0  0  0  0  0
   -2.9672    0.3119    0.0000 C   0  0  0  0  0  0  0  0  0  0  0  0
   -4.0819   -0.6918    0.0000 Cl  0  0  0  0  0  0  0  0  0  0  0  0
   -1.5000    0.0000    0.0000 C   0  0  0  0  0  0  0  0  0  0  0  0
   -0.7500   -1.2990    0.0000 C   0  0  0  0  0  0  0  0  0  0  0  0
    0.7500   -3.8971    0.0000 C   0  0  0  0  0  0  0  0  0  0  0  0
   -2.6491   -8.7584    0.0000 C   0  0  0  0  0  0  0  0  0  0  0  0
   -2.9095   -7.2812    0.0000 C   0  0  0  0  0  0  0  0  0  0  0  0
  1  2  3  0
  2  3  1  0
  3  4  1  0
  4  5  2  0
  4  6  1  0
  6  7  1  0
  7  8  2  0
  8  9  1  0
  9 10  2  0
 10 11  1  0
 11 12  1  0
 12 13  2  0
 13 14  1  0
 14 15  2  0
 15 16  1  0
 16 17  1  0
 17 18  2  0
 18 19  1  0
 18 20  1  0
 20 21  2  0
 11 22  2  0
  3 23  1  0
 23 24  1  0
 24  3  1  0
 22  7  1  0
 21 12  1  0
 20 15  1  0
M  END
>  <Compound_ID>  (260) 
CHEMBL3901385

>  <Molecule Name>  (260) 
nan

>  <Molecular Weight>  (260) 
335.79

>  <AlogP>  (260) 
4.24

>  <Smiles>  (260) 
C#CC1(C(=O)Nc2cccc(-c3cnc4[nH]cc(Cl)c4c3)c2)CC1

>  <Standard Type>  (260) 
IC50

>  <Standard Relation>  (260) 
'='

>  <Standard Units>  (260) 
nM

>  <Standard Value>  (260) 
35.0

>  <Assay ChEMBL ID>  (260) 
CHEMBL3887687

>  <Assay Description>  (260) 
Biochemical Inhibition Assay: 1H-pyrrolo[2,3-b]pyridine, 1H-pyrazolo[3,4-b]pyridine and 5H-pyrrolo[2,3-b]pyrazine series of compounds exhibited over >100 fold selective against Janus and TEC family of kinases except for the BMX and TXK it had activity of 30 and 45 nM respectively.

>  <BAO Format ID>  (260) 
BAO_0000357

>  <BAO Label>  (260) 
single protein format

>  <Assay Organism>  (260) 
Homo sapiens

>  <Target ChEMBL ID>  (260) 
CHEMBL2959

>  <Target Name>  (260) 
Tyrosine-protein kinase ITK/TSK

>  <Target Organism>  (260) 
Homo sapiens

>  <Target Type>  (260) 
SINGLE PROTEIN

>  <Document ChEMBL ID>  (260) 
CHEMBL3886406

>  <Source Description>  (260) 
BindingDB Database

>  <Document Journal>  (260) 
nan

>  <Document Year>  (260) 
2015.0

>  <Active>  (260) 
1.0

$$$$

     RDKit          2D

 23 25  0  0  0  0  0  0  0  0999 V2000
   11.2500   -6.4952    0.0000 C   0  0  0  0  0  0  0  0  0  0  0  0
   10.5000   -5.1962    0.0000 C   0  0  0  0  0  0  0  0  0  0  0  0
    9.0000   -5.1962    0.0000 C   0  0  0  0  0  0  0  0  0  0  0  0
    7.5000   -5.1962    0.0000 C   0  0  0  0  0  0  0  0  0  0  0  0
    6.0000   -5.1962    0.0000 C   0  0  0  0  0  0  0  0  0  0  0  0
    5.2500   -6.4952    0.0000 O   0  0  0  0  0  0  0  0  0  0  0  0
    5.2500   -3.8971    0.0000 N   0  0  0  0  0  0  0  0  0  0  0  0
    3.7500   -3.8971    0.0000 C   0  0  0  0  0  0  0  0  0  0  0  0
    3.0000   -5.1962    0.0000 C   0  0  0  0  0  0  0  0  0  0  0  0
    1.5000   -5.1962    0.0000 C   0  0  0  0  0  0  0  0  0  0  0  0
    0.7500   -3.8971    0.0000 C   0  0  0  0  0  0  0  0  0  0  0  0
    1.5000   -2.5981    0.0000 C   0  0  0  0  0  0  0  0  0  0  0  0
    0.7500   -1.2990    0.0000 C   0  0  0  0  0  0  0  0  0  0  0  0
    1.5000    0.0000    0.0000 C   0  0  0  0  0  0  0  0  0  0  0  0
    0.7500    1.2990    0.0000 N   0  0  0  0  0  0  0  0  0  0  0  0
   -0.7500    1.2990    0.0000 C   0  0  0  0  0  0  0  0  0  0  0  0
   -1.7537    2.4138    0.0000 N   0  0  0  0  0  0  0  0  0  0  0  0
   -3.1240    1.8037    0.0000 C   0  0  0  0  0  0  0  0  0  0  0  0
   -2.9672    0.3119    0.0000 C   0  0  0  0  0  0  0  0  0  0  0  0
   -4.0819   -0.6918    0.0000 C   0  0  0  0  0  0  0  0  0  0  0  0
   -1.5000    0.0000    0.0000 C   0  0  0  0  0  0  0  0  0  0  0  0
   -0.7500   -1.2990    0.0000 C   0  0  0  0  0  0  0  0  0  0  0  0
    3.0000   -2.5981    0.0000 C   0  0  0  0  0  0  0  0  0  0  0  0
  1  2  1  0
  2  3  1  0
  3  4  3  0
  4  5  1  0
  5  6  2  0
  5  7  1  0
  7  8  1  0
  8  9  2  0
  9 10  1  0
 10 11  2  0
 11 12  1  0
 12 13  1  0
 13 14  2  0
 14 15  1  0
 15 16  2  0
 16 17  1  0
 17 18  1  0
 18 19  2  0
 19 20  1  0
 19 21  1  0
 21 22  2  0
 12 23  2  0
 23  8  1  0
 22 13  1  0
 21 16  1  0
M  END
>  <Compound_ID>  (261) 
CHEMBL3962690

>  <Molecule Name>  (261) 
nan

>  <Molecular Weight>  (261) 
303.37

>  <AlogP>  (261) 
3.89

>  <Smiles>  (261) 
CCC#CC(=O)Nc1cccc(-c2cnc3[nH]cc(C)c3c2)c1

>  <Standard Type>  (261) 
IC50

>  <Standard Relation>  (261) 
'='

>  <Standard Units>  (261) 
nM

>  <Standard Value>  (261) 
35.0

>  <Assay ChEMBL ID>  (261) 
CHEMBL3887687

>  <Assay Description>  (261) 
Biochemical Inhibition Assay: 1H-pyrrolo[2,3-b]pyridine, 1H-pyrazolo[3,4-b]pyridine and 5H-pyrrolo[2,3-b]pyrazine series of compounds exhibited over >100 fold selective against Janus and TEC family of kinases except for the BMX and TXK it had activity of 30 and 45 nM respectively.

>  <BAO Format ID>  (261) 
BAO_0000357

>  <BAO Label>  (261) 
single protein format

>  <Assay Organism>  (261) 
Homo sapiens

>  <Target ChEMBL ID>  (261) 
CHEMBL2959

>  <Target Name>  (261) 
Tyrosine-protein kinase ITK/TSK

>  <Target Organism>  (261) 
Homo sapiens

>  <Target Type>  (261) 
SINGLE PROTEIN

>  <Document ChEMBL ID>  (261) 
CHEMBL3886406

>  <Source Description>  (261) 
BindingDB Database

>  <Document Journal>  (261) 
nan

>  <Document Year>  (261) 
2015.0

>  <Active>  (261) 
1.0

$$$$

     RDKit          2D

 27 29  0  0  0  0  0  0  0  0999 V2000
    6.0000   -7.7942    0.0000 C   0  0  0  0  0  0  0  0  0  0  0  0
    6.7500   -6.4952    0.0000 C   0  0  0  0  0  0  0  0  0  0  0  0
    6.0000   -5.1962    0.0000 S   0  0  0  0  0  0  0  0  0  0  0  0
    4.7010   -5.9462    0.0000 O   0  0  0  0  0  0  0  0  0  0  0  0
    7.2990   -4.4462    0.0000 O   0  0  0  0  0  0  0  0  0  0  0  0
    5.2500   -3.8971    0.0000 N   0  0  0  0  0  0  0  0  0  0  0  0
    3.7500   -3.8971    0.0000 C   0  0  0  0  0  0  0  0  0  0  0  0
    3.0000   -5.1962    0.0000 C   0  0  0  0  0  0  0  0  0  0  0  0
    1.5000   -5.1962    0.0000 C   0  0  0  0  0  0  0  0  0  0  0  0
    0.7500   -3.8971    0.0000 C   0  0  0  0  0  0  0  0  0  0  0  0
    1.5000   -2.5981    0.0000 C   0  0  0  0  0  0  0  0  0  0  0  0
    0.7500   -1.2990    0.0000 C   0  0  0  0  0  0  0  0  0  0  0  0
    1.5000    0.0000    0.0000 C   0  0  0  0  0  0  0  0  0  0  0  0
    0.7500    1.2990    0.0000 C   0  0  0  0  0  0  0  0  0  0  0  0
   -0.7500    1.2990    0.0000 C   0  0  0  0  0  0  0  0  0  0  0  0
   -1.5000    2.5981    0.0000 C   0  0  0  0  0  0  0  0  0  0  0  0
   -0.7500    3.8971    0.0000 N   0  0  0  0  0  0  0  0  0  0  0  0
   -3.0000    2.5981    0.0000 O   0  0  0  0  0  0  0  0  0  0  0  0
   -1.5000    0.0000    0.0000 C   0  0  0  0  0  0  0  0  0  0  0  0
   -2.9672   -0.3119    0.0000 N   0  0  0  0  0  0  0  0  0  0  0  0
   -3.1240   -1.8037    0.0000 C   0  0  0  0  0  0  0  0  0  0  0  0
   -4.4231   -2.5537    0.0000 C   0  0  0  0  0  0  0  0  0  0  0  0
   -1.7537   -2.4138    0.0000 C   0  0  0  0  0  0  0  0  0  0  0  0
   -1.4418   -3.8810    0.0000 C   0  0  0  0  0  0  0  0  0  0  0  0
   -0.7500   -1.2990    0.0000 C   0  0  0  0  0  0  0  0  0  0  0  0
    3.0000   -2.5981    0.0000 C   0  0  0  0  0  0  0  0  0  0  0  0
    3.7500   -1.2990    0.0000 C   0  0  0  0  0  0  0  0  0  0  0  0
  1  2  2  0
  2  3  1  0
  3  4  2  0
  3  5  2  0
  3  6  1  0
  6  7  1  0
  7  8  2  0
  8  9  1  0
  9 10  2  0
 10 11  1  0
 11 12  1  0
 12 13  2  0
 13 14  1  0
 14 15  2  0
 15 16  1  0
 16 17  1  0
 16 18  2  0
 15 19  1  0
 19 20  1  0
 20 21  1  0
 21 22  1  0
 21 23  2  0
 23 24  1  0
 23 25  1  0
 11 26  2  0
 26 27  1  0
 26  7  1  0
 25 12  1  0
 25 19  2  0
M  END
>  <Compound_ID>  (262) 
CHEMBL4248386

>  <Molecule Name>  (262) 
nan

>  <Molecular Weight>  (262) 
383.47

>  <AlogP>  (262) 
3.74

>  <Smiles>  (262) 
C=CS(=O)(=O)Nc1cccc(-c2ccc(C(N)=O)c3[nH]c(C)c(C)c23)c1C

>  <Standard Type>  (262) 
IC50

>  <Standard Relation>  (262) 
'='

>  <Standard Units>  (262) 
nM

>  <Standard Value>  (262) 
8.3

>  <Assay ChEMBL ID>  (262) 
CHEMBL4235701

>  <Assay Description>  (262) 
Inhibition of ITK (unknown origin)

>  <BAO Format ID>  (262) 
BAO_0000357

>  <BAO Label>  (262) 
single protein format

>  <Assay Organism>  (262) 
Homo sapiens

>  <Target ChEMBL ID>  (262) 
CHEMBL2959

>  <Target Name>  (262) 
Tyrosine-protein kinase ITK/TSK

>  <Target Organism>  (262) 
Homo sapiens

>  <Target Type>  (262) 
SINGLE PROTEIN

>  <Document ChEMBL ID>  (262) 
CHEMBL4229517

>  <Source Description>  (262) 
Scientific Literature

>  <Document Journal>  (262) 
Bioorg Med Chem Lett

>  <Document Year>  (262) 
2018.0

>  <Active>  (262) 
1.0

$$$$

     RDKit          2D

 23 25  0  0  0  0  0  0  0  0999 V2000
   11.2500   -6.4952    0.0000 C   0  0  0  0  0  0  0  0  0  0  0  0
   10.5000   -5.1962    0.0000 C   0  0  0  0  0  0  0  0  0  0  0  0
    9.0000   -5.1962    0.0000 C   0  0  0  0  0  0  0  0  0  0  0  0
    7.5000   -5.1962    0.0000 C   0  0  0  0  0  0  0  0  0  0  0  0
    6.0000   -5.1962    0.0000 C   0  0  0  0  0  0  0  0  0  0  0  0
    5.2500   -6.4952    0.0000 O   0  0  0  0  0  0  0  0  0  0  0  0
    5.2500   -3.8971    0.0000 N   0  0  0  0  0  0  0  0  0  0  0  0
    3.7500   -3.8971    0.0000 C   0  0  0  0  0  0  0  0  0  0  0  0
    3.0000   -5.1962    0.0000 C   0  0  0  0  0  0  0  0  0  0  0  0
    1.5000   -5.1962    0.0000 C   0  0  0  0  0  0  0  0  0  0  0  0
    0.7500   -3.8971    0.0000 C   0  0  0  0  0  0  0  0  0  0  0  0
    1.5000   -2.5981    0.0000 C   0  0  0  0  0  0  0  0  0  0  0  0
    0.7500   -1.2990    0.0000 C   0  0  0  0  0  0  0  0  0  0  0  0
    1.5000    0.0000    0.0000 C   0  0  0  0  0  0  0  0  0  0  0  0
    0.7500    1.2990    0.0000 N   0  0  0  0  0  0  0  0  0  0  0  0
   -0.7500    1.2990    0.0000 C   0  0  0  0  0  0  0  0  0  0  0  0
   -1.7537    2.4138    0.0000 N   0  0  0  0  0  0  0  0  0  0  0  0
   -3.1240    1.8037    0.0000 C   0  0  0  0  0  0  0  0  0  0  0  0
   -2.9672    0.3119    0.0000 C   0  0  0  0  0  0  0  0  0  0  0  0
   -4.0819   -0.6918    0.0000 C   0  0  0  0  0  0  0  0  0  0  0  0
   -1.5000    0.0000    0.0000 C   0  0  0  0  0  0  0  0  0  0  0  0
   -0.7500   -1.2990    0.0000 C   0  0  0  0  0  0  0  0  0  0  0  0
    3.0000   -2.5981    0.0000 N   0  0  0  0  0  0  0  0  0  0  0  0
  1  2  1  0
  2  3  1  0
  3  4  3  0
  4  5  1  0
  5  6  2  0
  5  7  1  0
  7  8  1  0
  8  9  2  0
  9 10  1  0
 10 11  2  0
 11 12  1  0
 12 13  1  0
 13 14  2  0
 14 15  1  0
 15 16  2  0
 16 17  1  0
 17 18  1  0
 18 19  2  0
 19 20  1  0
 19 21  1  0
 21 22  2  0
 12 23  2  0
 23  8  1  0
 22 13  1  0
 21 16  1  0
M  END
>  <Compound_ID>  (263) 
CHEMBL3927614

>  <Molecule Name>  (263) 
nan

>  <Molecular Weight>  (263) 
304.35

>  <AlogP>  (263) 
3.29

>  <Smiles>  (263) 
CCC#CC(=O)Nc1cccc(-c2cnc3[nH]cc(C)c3c2)n1

>  <Standard Type>  (263) 
IC50

>  <Standard Relation>  (263) 
'='

>  <Standard Units>  (263) 
nM

>  <Standard Value>  (263) 
35.0

>  <Assay ChEMBL ID>  (263) 
CHEMBL3887687

>  <Assay Description>  (263) 
Biochemical Inhibition Assay: 1H-pyrrolo[2,3-b]pyridine, 1H-pyrazolo[3,4-b]pyridine and 5H-pyrrolo[2,3-b]pyrazine series of compounds exhibited over >100 fold selective against Janus and TEC family of kinases except for the BMX and TXK it had activity of 30 and 45 nM respectively.

>  <BAO Format ID>  (263) 
BAO_0000357

>  <BAO Label>  (263) 
single protein format

>  <Assay Organism>  (263) 
Homo sapiens

>  <Target ChEMBL ID>  (263) 
CHEMBL2959

>  <Target Name>  (263) 
Tyrosine-protein kinase ITK/TSK

>  <Target Organism>  (263) 
Homo sapiens

>  <Target Type>  (263) 
SINGLE PROTEIN

>  <Document ChEMBL ID>  (263) 
CHEMBL3886406

>  <Source Description>  (263) 
BindingDB Database

>  <Document Journal>  (263) 
nan

>  <Document Year>  (263) 
2015.0

>  <Active>  (263) 
1.0

$$$$

     RDKit          2D

 34 37  0  0  0  0  0  0  0  0999 V2000
    0.7500   -3.8971    0.0000 C   0  0  0  0  0  0  0  0  0  0  0  0
    1.5000   -2.5981    0.0000 N   0  0  0  0  0  0  0  0  0  0  0  0
    3.0000   -2.5981    0.0000 C   0  0  0  0  0  0  0  0  0  0  0  0
    3.7500   -1.2990    0.0000 O   0  0  0  0  0  0  0  0  0  0  0  0
    3.7500   -3.8971    0.0000 C   0  0  0  0  0  0  0  0  0  0  0  0
    3.0000   -5.1962    0.0000 C   0  0  0  0  0  0  0  0  0  0  0  0
    3.7500   -6.4952    0.0000 C   0  0  0  0  0  0  0  0  0  0  0  0
    5.2500   -6.4952    0.0000 C   0  0  0  0  0  0  0  0  0  0  0  0
    6.0000   -5.1962    0.0000 C   0  0  0  0  0  0  0  0  0  0  0  0
    5.2500   -3.8971    0.0000 C   0  0  0  0  0  0  0  0  0  0  0  0
    0.7500   -1.2990    0.0000 C   0  0  0  0  0  0  0  0  0  0  0  0
    1.5000    0.0000    0.0000 C   0  0  0  0  0  0  0  0  0  0  0  0
    0.7500    1.2990    0.0000 C   0  0  0  0  0  0  0  0  0  0  0  0
   -0.7500    1.2990    0.0000 C   0  0  0  0  0  0  0  0  0  0  0  0
   -1.5000    0.0000    0.0000 C   0  0  0  0  0  0  0  0  0  0  0  0
   -0.7500   -1.2990    0.0000 C   0  0  0  0  0  0  0  0  0  0  0  0
   -2.9672    0.3119    0.0000 N   0  0  0  0  0  0  0  0  0  0  0  0
   -3.1240    1.8037    0.0000 C   0  0  0  0  0  0  0  0  0  0  0  0
   -4.4231    2.5537    0.0000 N   0  0  0  0  0  0  0  0  0  0  0  0
   -5.7221    1.8037    0.0000 C   0  0  0  0  0  0  0  0  0  0  0  0
   -5.7221    0.3037    0.0000 O   0  0  0  0  0  0  0  0  0  0  0  0
   -7.0211    2.5537    0.0000 C   0  0  0  0  0  0  0  0  0  0  0  0
   -8.3914    1.9435    0.0000 C   0  0  0  0  0  0  0  0  0  0  0  0
   -9.3951    3.0583    0.0000 C   0  0  0  0  0  0  0  0  0  0  0  0
   -8.6451    4.3573    0.0000 C   0  0  0  0  0  0  0  0  0  0  0  0
   -9.2552    5.7276    0.0000 C   0  0  0  0  0  0  0  0  0  0  0  0
   -8.3736    6.9411    0.0000 O   0  0  0  0  0  0  0  0  0  0  0  0
   -7.1779    4.0454    0.0000 S   0  0  0  0  0  0  0  0  0  0  0  0
   -1.7537    2.4138    0.0000 N   0  0  0  0  0  0  0  0  0  0  0  0
   -1.4418    3.8810    0.0000 C   0  0  0  0  0  0  0  0  0  0  0  0
   -0.0152    4.3445    0.0000 C   0  0  0  0  0  0  0  0  0  0  0  0
    0.2966    5.8117    0.0000 C   0  0  0  0  0  0  0  0  0  0  0  0
    1.7232    6.2752    0.0000 N   0  0  0  0  0  0  0  0  0  0  0  0
   -0.8181    6.8154    0.0000 O   0  0  0  0  0  0  0  0  0  0  0  0
  1  2  1  0
  2  3  1  0
  3  4  2  0
  3  5  1  0
  5  6  2  0
  6  7  1  0
  7  8  2  0
  8  9  1  0
  9 10  2  0
  2 11  1  0
 11 12  2  0
 12 13  1  0
 13 14  2  0
 14 15  1  0
 15 16  2  0
 15 17  1  0
 17 18  1  0
 18 19  2  0
 19 20  1  0
 20 21  2  0
 20 22  1  0
 22 23  2  0
 23 24  1  0
 24 25  2  0
 25 26  1  0
 26 27  2  0
 25 28  1  0
 18 29  1  0
 29 30  1  0
 30 31  1  0
 31 32  1  0
 32 33  1  0
 32 34  2  0
 10  5  1  0
 16 11  1  0
 28 22  1  0
 29 14  1  0
M  END
>  <Compound_ID>  (264) 
CHEMBL482169

>  <Molecule Name>  (264) 
nan

>  <Molecular Weight>  (264) 
475.53

>  <AlogP>  (264) 
2.74

>  <Smiles>  (264) 
CN(C(=O)c1ccccc1)c1ccc2c(c1)[nH]/c(=N\C(=O)c1ccc(C=O)s1)n2CCC(N)=O

>  <Standard Type>  (264) 
IC50

>  <Standard Relation>  (264) 
'='

>  <Standard Units>  (264) 
nM

>  <Standard Value>  (264) 
2.0

>  <Assay ChEMBL ID>  (264) 
CHEMBL992190

>  <Assay Description>  (264) 
Inhibition of ITK by DELFIA method

>  <BAO Format ID>  (264) 
BAO_0000357

>  <BAO Label>  (264) 
single protein format

>  <Assay Organism>  (264) 
None

>  <Target ChEMBL ID>  (264) 
CHEMBL2959

>  <Target Name>  (264) 
Tyrosine-protein kinase ITK/TSK

>  <Target Organism>  (264) 
Homo sapiens

>  <Target Type>  (264) 
SINGLE PROTEIN

>  <Document ChEMBL ID>  (264) 
CHEMBL1143295

>  <Source Description>  (264) 
Scientific Literature

>  <Document Journal>  (264) 
Bioorg Med Chem Lett

>  <Document Year>  (264) 
2009.0

>  <Active>  (264) 
1.0

$$$$

     RDKit          2D

 30 33  0  0  0  0  0  0  0  0999 V2000
    9.7500   -6.4952    0.0000 C   0  0  0  0  0  0  0  0  0  0  0  0
    9.0000   -5.1962    0.0000 C   0  0  0  0  0  0  0  0  0  0  0  0
    8.2500   -3.8971    0.0000 C   0  0  0  0  0  0  0  0  0  0  0  0
    7.5000   -2.5981    0.0000 C   0  0  0  0  0  0  0  0  0  0  0  0
    8.2500   -1.2990    0.0000 O   0  0  0  0  0  0  0  0  0  0  0  0
    6.0000   -2.5981    0.0000 N   0  0  0  0  0  0  0  0  0  0  0  0
    5.2500   -1.2990    0.0000 C   0  0  0  0  0  0  0  0  0  0  0  0
    3.7500   -1.2990    0.0000 C   0  0  0  0  0  0  0  0  0  0  0  0
    3.0000    0.0000    0.0000 O   0  0  0  0  0  0  0  0  0  0  0  0
    1.5000    0.0000    0.0000 C   0  0  0  0  0  0  0  0  0  0  0  0
    0.7500   -1.2990    0.0000 C   0  0  0  0  0  0  0  0  0  0  0  0
   -0.7500   -1.2990    0.0000 C   0  0  0  0  0  0  0  0  0  0  0  0
   -1.5000    0.0000    0.0000 C   0  0  0  0  0  0  0  0  0  0  0  0
   -0.7500    1.2990    0.0000 C   0  0  0  0  0  0  0  0  0  0  0  0
   -1.2135    2.7256    0.0000 N   0  0  0  0  0  0  0  0  0  0  0  0
   -0.0000    3.6073    0.0000 C   0  0  0  0  0  0  0  0  0  0  0  0
   -0.0000    5.1073    0.0000 C   0  0  0  0  0  0  0  0  0  0  0  0
    1.2135    5.9890    0.0000 N   0  0  0  0  0  0  0  0  0  0  0  0
    0.7500    7.4156    0.0000 N   0  0  0  0  0  0  0  0  0  0  0  0
   -0.7500    7.4156    0.0000 C   0  0  0  0  0  0  0  0  0  0  0  0
   -1.7537    8.5303    0.0000 C   0  0  0  0  0  0  0  0  0  0  0  0
   -3.2209    8.2184    0.0000 C   0  0  0  0  0  0  0  0  0  0  0  0
   -4.2246    9.3331    0.0000 C   0  0  0  0  0  0  0  0  0  0  0  0
   -3.7611   10.7597    0.0000 F   0  0  0  0  0  0  0  0  0  0  0  0
   -5.6918    9.0213    0.0000 F   0  0  0  0  0  0  0  0  0  0  0  0
   -3.6844    6.7918    0.0000 C   0  0  0  0  0  0  0  0  0  0  0  0
   -2.6807    5.6771    0.0000 C   0  0  0  0  0  0  0  0  0  0  0  0
   -1.2135    5.9890    0.0000 C   0  0  0  0  0  0  0  0  0  0  0  0
    1.2135    2.7256    0.0000 C   0  0  0  0  0  0  0  0  0  0  0  0
    0.7500    1.2990    0.0000 C   0  0  0  0  0  0  0  0  0  0  0  0
  1  2  1  0
  2  3  3  0
  3  4  1  0
  4  5  2  0
  4  6  1  0
  6  7  1  0
  7  8  1  0
  8  9  1  0
  9 10  1  0
 10 11  2  0
 11 12  1  0
 12 13  2  0
 13 14  1  0
 14 15  1  0
 15 16  1  0
 16 17  1  0
 17 18  2  0
 18 19  1  0
 19 20  1  0
 20 21  2  0
 21 22  1  0
 22 23  1  0
 23 24  1  0
 23 25  1  0
 22 26  2  0
 26 27  1  0
 27 28  2  0
 16 29  2  0
 29 30  1  0
 30 10  1  0
 30 14  2  0
 28 17  1  0
 28 20  1  0
M  END
>  <Compound_ID>  (265) 
CHEMBL4632698

>  <Molecule Name>  (265) 
nan

>  <Molecular Weight>  (265) 
408.41

>  <AlogP>  (265) 
4.17

>  <Smiles>  (265) 
CC#CC(=O)NCCOc1cccc2[nH]c(-c3n[nH]c4cc(C(F)F)ccc34)cc12

>  <Standard Type>  (265) 
IC50

>  <Standard Relation>  (265) 
'='

>  <Standard Units>  (265) 
nM

>  <Standard Value>  (265) 
90.0

>  <Assay ChEMBL ID>  (265) 
CHEMBL4603778

>  <Assay Description>  (265) 
Inhibition of ITK (unknown origin) using TK as substrate incubated for 30 mins by HTRF assay

>  <BAO Format ID>  (265) 
BAO_0000357

>  <BAO Label>  (265) 
single protein format

>  <Assay Organism>  (265) 
Homo sapiens

>  <Target ChEMBL ID>  (265) 
CHEMBL2959

>  <Target Name>  (265) 
Tyrosine-protein kinase ITK/TSK

>  <Target Organism>  (265) 
Homo sapiens

>  <Target Type>  (265) 
SINGLE PROTEIN

>  <Document ChEMBL ID>  (265) 
CHEMBL4602634

>  <Source Description>  (265) 
Scientific Literature

>  <Document Journal>  (265) 
Eur J Med Chem

>  <Document Year>  (265) 
2020.0

>  <Active>  (265) 
1.0

$$$$

     RDKit          2D

 30 33  0  0  0  0  0  0  0  0999 V2000
   -2.4240   -6.1312    0.0000 C   0  0  0  0  0  0  0  0  0  0  0  0
   -1.0537   -5.5211    0.0000 C   0  0  0  0  0  0  0  0  0  0  0  0
    0.2454   -6.2711    0.0000 C   0  0  0  0  0  0  0  0  0  0  0  0
    1.3601   -5.2674    0.0000 N   0  0  0  0  0  0  0  0  0  0  0  0
    0.7500   -3.8971    0.0000 C   0  0  0  0  0  0  0  0  0  0  0  0
    1.5000   -2.5981    0.0000 N   0  0  0  0  0  0  0  0  0  0  0  0
    0.7500   -1.2990    0.0000 C   0  0  0  0  0  0  0  0  0  0  0  0
    1.5000    0.0000    0.0000 C   0  0  0  0  0  0  0  0  0  0  0  0
    0.7500    1.2990    0.0000 C   0  0  0  0  0  0  0  0  0  0  0  0
    1.5000    2.5981    0.0000 S   0  0  0  0  0  0  0  0  0  0  0  0
    0.2010    3.3481    0.0000 O   0  0  0  0  0  0  0  0  0  0  0  0
    2.7990    1.8481    0.0000 O   0  0  0  0  0  0  0  0  0  0  0  0
    2.2500    3.8971    0.0000 C   0  0  0  0  0  0  0  0  0  0  0  0
    3.7500    3.8971    0.0000 C   0  0  0  0  0  0  0  0  0  0  0  0
    4.5000    5.1962    0.0000 C   0  0  0  0  0  0  0  0  0  0  0  0
    3.7500    6.4952    0.0000 C   0  0  0  0  0  0  0  0  0  0  0  0
    2.2500    6.4952    0.0000 C   0  0  0  0  0  0  0  0  0  0  0  0
    1.5000    5.1962    0.0000 C   0  0  0  0  0  0  0  0  0  0  0  0
   -0.7500    1.2990    0.0000 C   0  0  0  0  0  0  0  0  0  0  0  0
   -1.5000    0.0000    0.0000 C   0  0  0  0  0  0  0  0  0  0  0  0
   -3.0000    0.0000    0.0000 N   0  0  0  0  0  0  0  0  0  0  0  0
   -3.7500    1.2990    0.0000 C   0  0  0  0  0  0  0  0  0  0  0  0
   -3.0000    2.5981    0.0000 C   0  0  0  0  0  0  0  0  0  0  0  0
   -3.7500    3.8971    0.0000 C   0  0  0  0  0  0  0  0  0  0  0  0
   -5.2500    3.8971    0.0000 C   0  0  0  0  0  0  0  0  0  0  0  0
   -6.0000    5.1962    0.0000 O   0  0  0  0  0  0  0  0  0  0  0  0
   -6.0000    2.5981    0.0000 C   0  0  0  0  0  0  0  0  0  0  0  0
   -5.2500    1.2990    0.0000 C   0  0  0  0  0  0  0  0  0  0  0  0
   -0.7500   -1.2990    0.0000 N   0  0  0  0  0  0  0  0  0  0  0  0
   -0.7418   -4.0539    0.0000 S   0  0  0  0  0  0  0  0  0  0  0  0
  1  2  1  0
  2  3  2  0
  3  4  1  0
  4  5  2  0
  5  6  1  0
  6  7  1  0
  7  8  2  0
  8  9  1  0
  9 10  1  0
 10 11  2  0
 10 12  2  0
 10 13  1  0
 13 14  2  0
 14 15  1  0
 15 16  2  0
 16 17  1  0
 17 18  2  0
  9 19  2  0
 19 20  1  0
 20 21  1  0
 22 21  1  6
 22 23  1  0
 23 24  1  0
 24 25  1  0
 25 26  1  1
 25 27  1  0
 27 28  1  0
 20 29  2  0
  5 30  1  0
 30  2  1  0
 29  7  1  0
 18 13  1  0
 28 22  1  0
M  END
>  <Compound_ID>  (266) 
CHEMBL3355728

>  <Molecule Name>  (266) 
nan

>  <Molecular Weight>  (266) 
444.58

>  <AlogP>  (266) 
4.14

>  <Smiles>  (266) 
Cc1cnc(Nc2cc(S(=O)(=O)c3ccccc3)cc(N[C@H]3CC[C@H](O)CC3)n2)s1

>  <Standard Type>  (266) 
Ki

>  <Standard Relation>  (266) 
'='

>  <Standard Units>  (266) 
nM

>  <Standard Value>  (266) 
0.27

>  <Assay ChEMBL ID>  (266) 
CHEMBL3389531

>  <Assay Description>  (266) 
Inhibition of GST-tagged full-length ITK (unknown origin) using Ac-EFPIYDFLPAKKK-NH2 as substrate after 35 mins by LC/MS analysis

>  <BAO Format ID>  (266) 
BAO_0000357

>  <BAO Label>  (266) 
single protein format

>  <Assay Organism>  (266) 
Homo sapiens

>  <Target ChEMBL ID>  (266) 
CHEMBL2959

>  <Target Name>  (266) 
Tyrosine-protein kinase ITK/TSK

>  <Target Organism>  (266) 
Homo sapiens

>  <Target Type>  (266) 
SINGLE PROTEIN

>  <Document ChEMBL ID>  (266) 
CHEMBL3352735

>  <Source Description>  (266) 
Scientific Literature

>  <Document Journal>  (266) 
Bioorg Med Chem Lett

>  <Document Year>  (266) 
2014.0

>  <Active>  (266) 
1.0

$$$$

     RDKit          2D

 37 41  0  0  0  0  0  0  0  0999 V2000
    3.7500   -1.2990    0.0000 C   0  0  0  0  0  0  0  0  0  0  0  0
    3.0000    0.0000    0.0000 O   0  0  0  0  0  0  0  0  0  0  0  0
    1.5000    0.0000    0.0000 C   0  0  0  0  0  0  0  0  0  0  0  0
    0.7500   -1.2990    0.0000 C   0  0  0  0  0  0  0  0  0  0  0  0
   -0.7500   -1.2990    0.0000 C   0  0  0  0  0  0  0  0  0  0  0  0
   -1.5000    0.0000    0.0000 C   0  0  0  0  0  0  0  0  0  0  0  0
   -0.7500    1.2990    0.0000 C   0  0  0  0  0  0  0  0  0  0  0  0
   -1.5000    2.5981    0.0000 C   0  0  0  0  0  0  0  0  0  0  0  0
   -2.9918    2.7549    0.0000 C   0  0  0  0  0  0  0  0  0  0  0  0
   -3.3037    4.2221    0.0000 C   0  0  0  0  0  0  0  0  0  0  0  0
   -4.6740    4.8322    0.0000 N   0  0  0  0  0  0  0  0  0  0  0  0
   -4.8308    6.3240    0.0000 C   0  0  0  0  0  0  0  0  0  0  0  0
   -3.6172    7.2057    0.0000 C   0  0  0  0  0  0  0  0  0  0  0  0
   -3.7740    8.6974    0.0000 C   0  0  0  0  0  0  0  0  0  0  0  0
   -2.5605    9.5791    0.0000 S   0  0  0  0  0  0  0  0  0  0  0  0
   -3.4422   10.7926    0.0000 O   0  0  0  0  0  0  0  0  0  0  0  0
   -1.6788    8.3656    0.0000 O   0  0  0  0  0  0  0  0  0  0  0  0
   -1.3470   10.4608    0.0000 C   0  0  0  0  0  0  0  0  0  0  0  0
    0.0233    9.8507    0.0000 C   0  0  0  0  0  0  0  0  0  0  0  0
    1.2369   10.7324    0.0000 C   0  0  0  0  0  0  0  0  0  0  0  0
    1.0801   12.2242    0.0000 C   0  0  0  0  0  0  0  0  0  0  0  0
   -0.2902   12.8343    0.0000 C   0  0  0  0  0  0  0  0  0  0  0  0
   -1.5038   11.9526    0.0000 C   0  0  0  0  0  0  0  0  0  0  0  0
   -5.1443    9.3075    0.0000 C   0  0  0  0  0  0  0  0  0  0  0  0
   -6.3579    8.4259    0.0000 C   0  0  0  0  0  0  0  0  0  0  0  0
   -7.7282    9.0360    0.0000 N   0  0  0  0  0  0  0  0  0  0  0  0
   -7.8850   10.5278    0.0000 C   0  0  0  0  0  0  0  0  0  0  0  0
   -6.6715   11.4094    0.0000 C   0  0  0  0  0  0  0  0  0  0  0  0
   -6.8283   12.9012    0.0000 C   0  0  0  0  0  0  0  0  0  0  0  0
   -8.1986   13.5113    0.0000 C   0  0  0  0  0  0  0  0  0  0  0  0
   -8.3554   15.0031    0.0000 O   0  0  0  0  0  0  0  0  0  0  0  0
   -9.4121   12.6296    0.0000 C   0  0  0  0  0  0  0  0  0  0  0  0
   -9.2553   11.1379    0.0000 C   0  0  0  0  0  0  0  0  0  0  0  0
   -6.2011    6.9341    0.0000 N   0  0  0  0  0  0  0  0  0  0  0  0
   -2.0046    4.9721    0.0000 N   0  0  0  0  0  0  0  0  0  0  0  0
   -0.8899    3.9684    0.0000 N   0  0  0  0  0  0  0  0  0  0  0  0
    0.7500    1.2990    0.0000 C   0  0  0  0  0  0  0  0  0  0  0  0
  1  2  1  0
  2  3  1  0
  3  4  2  0
  4  5  1  0
  5  6  2  0
  6  7  1  0
  7  8  1  0
  8  9  2  0
  9 10  1  0
 10 11  1  0
 11 12  1  0
 12 13  2  0
 13 14  1  0
 14 15  1  0
 15 16  2  0
 15 17  2  0
 15 18  1  0
 18 19  2  0
 19 20  1  0
 20 21  2  0
 21 22  1  0
 22 23  2  0
 14 24  2  0
 24 25  1  0
 25 26  1  0
 27 26  1  6
 27 28  1  0
 28 29  1  0
 29 30  1  0
 30 31  1  1
 30 32  1  0
 32 33  1  0
 25 34  2  0
 10 35  2  0
 35 36  1  0
  7 37  2  0
 37  3  1  0
 36  8  1  0
 34 12  1  0
 23 18  1  0
 33 27  1  0
M  END
>  <Compound_ID>  (267) 
CHEMBL3355731

>  <Molecule Name>  (267) 
nan

>  <Molecular Weight>  (267) 
519.63

>  <AlogP>  (267) 
4.77

>  <Smiles>  (267) 
COc1cccc(-c2cc(Nc3cc(S(=O)(=O)c4ccccc4)cc(N[C@H]4CC[C@H](O)CC4)n3)n[nH]2)c1

>  <Standard Type>  (267) 
Ki

>  <Standard Relation>  (267) 
'='

>  <Standard Units>  (267) 
nM

>  <Standard Value>  (267) 
5.3

>  <Assay ChEMBL ID>  (267) 
CHEMBL3389531

>  <Assay Description>  (267) 
Inhibition of GST-tagged full-length ITK (unknown origin) using Ac-EFPIYDFLPAKKK-NH2 as substrate after 35 mins by LC/MS analysis

>  <BAO Format ID>  (267) 
BAO_0000357

>  <BAO Label>  (267) 
single protein format

>  <Assay Organism>  (267) 
Homo sapiens

>  <Target ChEMBL ID>  (267) 
CHEMBL2959

>  <Target Name>  (267) 
Tyrosine-protein kinase ITK/TSK

>  <Target Organism>  (267) 
Homo sapiens

>  <Target Type>  (267) 
SINGLE PROTEIN

>  <Document ChEMBL ID>  (267) 
CHEMBL3352735

>  <Source Description>  (267) 
Scientific Literature

>  <Document Journal>  (267) 
Bioorg Med Chem Lett

>  <Document Year>  (267) 
2014.0

>  <Active>  (267) 
1.0

$$$$

     RDKit          2D

 28 32  0  0  0  0  0  0  0  0999 V2000
   -0.0305    6.8928    0.0000 O   0  0  0  0  0  0  0  0  0  0  0  0
    1.4612    6.7361    0.0000 C   0  0  0  0  0  0  0  0  0  0  0  0
    2.3429    7.9496    0.0000 N   0  0  0  0  0  0  0  0  0  0  0  0
    1.7328    9.3199    0.0000 C   0  0  0  0  0  0  0  0  0  0  0  0
    0.2656    9.6318    0.0000 C   0  0  0  0  0  0  0  0  0  0  0  0
    0.1088   11.1235    0.0000 N   0  0  0  0  0  0  0  0  0  0  0  0
    1.4791   11.7337    0.0000 N   0  0  0  0  0  0  0  0  0  0  0  0
    1.7910   13.2009    0.0000 C   0  0  0  0  0  0  0  0  0  0  0  0
    3.2176   13.6644    0.0000 C   0  0  0  0  0  0  0  0  0  0  0  0
    4.3323   12.6607    0.0000 C   0  0  0  0  0  0  0  0  0  0  0  0
    5.7589   13.1242    0.0000 C   0  0  0  0  0  0  0  0  0  0  0  0
    6.0707   14.5914    0.0000 C   0  0  0  0  0  0  0  0  0  0  0  0
    4.9560   15.5951    0.0000 C   0  0  0  0  0  0  0  0  0  0  0  0
    3.5294   15.1316    0.0000 C   0  0  0  0  0  0  0  0  0  0  0  0
    2.4828   10.6189    0.0000 C   0  0  0  0  0  0  0  0  0  0  0  0
    2.0713    5.3657    0.0000 C   0  0  0  0  0  0  0  0  0  0  0  0
    3.5386    5.0539    0.0000 N   0  0  0  0  0  0  0  0  0  0  0  0
    3.6954    3.5621    0.0000 N   0  0  0  0  0  0  0  0  0  0  0  0
    2.3250    2.9520    0.0000 C   0  0  0  0  0  0  0  0  0  0  0  0
    1.3213    4.0667    0.0000 C   0  0  0  0  0  0  0  0  0  0  0  0
   -0.1459    3.7548    0.0000 C   0  0  0  0  0  0  0  0  0  0  0  0
   -0.6094    2.3282    0.0000 C   0  0  0  0  0  0  0  0  0  0  0  0
    0.3943    1.2135    0.0000 C   0  0  0  0  0  0  0  0  0  0  0  0
    1.2760    0.0000    0.0000 C   0  0  0  0  0  0  0  0  0  0  0  0
    0.3943   -1.2135    0.0000 C   0  0  0  0  0  0  0  0  0  0  0  0
   -1.0323   -0.7500    0.0000 O   0  0  0  0  0  0  0  0  0  0  0  0
   -1.0323    0.7500    0.0000 C   0  0  0  0  0  0  0  0  0  0  0  0
    1.8615    1.5254    0.0000 C   0  0  0  0  0  0  0  0  0  0  0  0
  1  2  2  0
  2  3  1  0
  3  4  1  0
  4  5  1  0
  5  6  2  0
  6  7  1  0
  7  8  1  0
  8  9  1  0
  9 10  2  0
 10 11  1  0
 11 12  2  0
 12 13  1  0
 13 14  2  0
  7 15  1  0
  2 16  1  0
 16 17  2  0
 17 18  1  0
 18 19  1  0
 19 20  2  0
 20 21  1  0
 21 22  1  0
 22 23  1  0
 23 24  1  0
 24 25  1  0
 25 26  1  0
 26 27  1  0
 23 28  1  0
 15  4  2  0
 20 16  1  0
 27 23  1  0
 14  9  1  0
 28 19  1  0
M  END
>  <Compound_ID>  (268) 
CHEMBL3298367

>  <Molecule Name>  (268) 
nan

>  <Molecular Weight>  (268) 
377.45

>  <AlogP>  (268) 
2.80

>  <Smiles>  (268) 
O=C(Nc1cnn(Cc2ccccc2)c1)c1n[nH]c2c1CCC1(CCOC1)C2

>  <Standard Type>  (268) 
Ki

>  <Standard Relation>  (268) 
'='

>  <Standard Units>  (268) 
nM

>  <Standard Value>  (268) 
55.0

>  <Assay ChEMBL ID>  (268) 
CHEMBL3380548

>  <Assay Description>  (268) 
Inhibition of GST-tagged full length ITK (unknown origin) using BLK peptide as substrate after 35 mins

>  <BAO Format ID>  (268) 
BAO_0000357

>  <BAO Label>  (268) 
single protein format

>  <Assay Organism>  (268) 
Homo sapiens

>  <Target ChEMBL ID>  (268) 
CHEMBL2959

>  <Target Name>  (268) 
Tyrosine-protein kinase ITK/TSK

>  <Target Organism>  (268) 
Homo sapiens

>  <Target Type>  (268) 
SINGLE PROTEIN

>  <Document ChEMBL ID>  (268) 
CHEMBL3297697

>  <Source Description>  (268) 
Scientific Literature

>  <Document Journal>  (268) 
J Med Chem

>  <Document Year>  (268) 
2014.0

>  <Active>  (268) 
1.0

$$$$

     RDKit          2D

 40 44  0  0  0  0  0  0  0  0999 V2000
  -11.1975    2.9107    0.0000 C   0  0  0  0  0  0  0  0  0  0  0  0
   -9.7709    3.3742    0.0000 C   0  0  0  0  0  0  0  0  0  0  0  0
   -8.6562    2.3705    0.0000 C   0  0  0  0  0  0  0  0  0  0  0  0
   -8.9681    0.9033    0.0000 O   0  0  0  0  0  0  0  0  0  0  0  0
   -7.2296    2.8340    0.0000 N   0  0  0  0  0  0  0  0  0  0  0  0
   -6.1149    1.8303    0.0000 C   0  0  0  0  0  0  0  0  0  0  0  0
   -4.6883    2.2939    0.0000 C   0  0  0  0  0  0  0  0  0  0  0  0
   -3.5736    1.2902    0.0000 O   0  0  0  0  0  0  0  0  0  0  0  0
   -2.1470    1.7537    0.0000 C   0  0  0  0  0  0  0  0  0  0  0  0
   -1.8351    3.2209    0.0000 C   0  0  0  0  0  0  0  0  0  0  0  0
   -0.4086    3.6844    0.0000 C   0  0  0  0  0  0  0  0  0  0  0  0
   -0.0967    5.1517    0.0000 C   0  0  0  0  0  0  0  0  0  0  0  0
    1.3299    5.6152    0.0000 C   0  0  0  0  0  0  0  0  0  0  0  0
    2.4446    4.6115    0.0000 C   0  0  0  0  0  0  0  0  0  0  0  0
    3.8712    5.0750    0.0000 C   0  0  0  0  0  0  0  0  0  0  0  0
    4.1831    6.5422    0.0000 C   0  0  0  0  0  0  0  0  0  0  0  0
    3.0684    7.5459    0.0000 C   0  0  0  0  0  0  0  0  0  0  0  0
    3.3802    9.0132    0.0000 C   0  0  0  0  0  0  0  0  0  0  0  0
    3.6921   10.4804    0.0000 F   0  0  0  0  0  0  0  0  0  0  0  0
    4.8474    8.7013    0.0000 F   0  0  0  0  0  0  0  0  0  0  0  0
    1.9130    9.3250    0.0000 F   0  0  0  0  0  0  0  0  0  0  0  0
    1.6418    7.0824    0.0000 C   0  0  0  0  0  0  0  0  0  0  0  0
    0.7062    2.6807    0.0000 C   0  0  0  0  0  0  0  0  0  0  0  0
    0.3943    1.2135    0.0000 C   0  0  0  0  0  0  0  0  0  0  0  0
    1.2760    0.0000    0.0000 N   0  0  0  0  0  0  0  0  0  0  0  0
    0.3943   -1.2135    0.0000 C   0  0  0  0  0  0  0  0  0  0  0  0
    0.8578   -2.6401    0.0000 C   0  0  0  0  0  0  0  0  0  0  0  0
    2.2844   -3.1036    0.0000 N   0  0  0  0  0  0  0  0  0  0  0  0
    2.2844   -4.6036    0.0000 N   0  0  0  0  0  0  0  0  0  0  0  0
    0.8578   -5.0672    0.0000 C   0  0  0  0  0  0  0  0  0  0  0  0
    0.2477   -6.4375    0.0000 C   0  0  0  0  0  0  0  0  0  0  0  0
   -1.2441   -6.5943    0.0000 C   0  0  0  0  0  0  0  0  0  0  0  0
   -1.8542   -7.9646    0.0000 C   0  0  0  0  0  0  0  0  0  0  0  0
   -3.3460   -8.1214    0.0000 F   0  0  0  0  0  0  0  0  0  0  0  0
   -0.9725   -9.1781    0.0000 F   0  0  0  0  0  0  0  0  0  0  0  0
   -2.1257   -5.3807    0.0000 C   0  0  0  0  0  0  0  0  0  0  0  0
   -1.5156   -4.0104    0.0000 C   0  0  0  0  0  0  0  0  0  0  0  0
   -0.0239   -3.8536    0.0000 C   0  0  0  0  0  0  0  0  0  0  0  0
   -1.0323   -0.7500    0.0000 C   0  0  0  0  0  0  0  0  0  0  0  0
   -1.0323    0.7500    0.0000 C   0  0  0  0  0  0  0  0  0  0  0  0
  1  2  2  0
  2  3  1  0
  3  4  2  0
  3  5  1  0
  5  6  1  0
  6  7  1  0
  7  8  1  0
  8  9  1  0
  9 10  2  0
 10 11  1  0
 11 12  1  0
 12 13  1  0
 13 14  2  0
 14 15  1  0
 15 16  2  0
 16 17  1  0
 17 18  1  0
 18 19  1  0
 18 20  1  0
 18 21  1  0
 17 22  2  0
 11 23  2  0
 23 24  1  0
 24 25  1  0
 25 26  1  0
 26 27  1  0
 27 28  2  0
 28 29  1  0
 29 30  1  0
 30 31  2  0
 31 32  1  0
 32 33  1  0
 33 34  1  0
 33 35  1  0
 32 36  2  0
 36 37  1  0
 37 38  2  0
 26 39  2  0
 39 40  1  0
 40  9  1  0
 22 13  1  0
 40 24  2  0
 38 27  1  0
 38 30  1  0
M  END
>  <Compound_ID>  (269) 
CHEMBL4646367

>  <Molecule Name>  (269) 
nan

>  <Molecular Weight>  (269) 
554.52

>  <AlogP>  (269) 
6.94

>  <Smiles>  (269) 
C=CC(=O)NCCOc1cc(Cc2cccc(C(F)(F)F)c2)cc2[nH]c(-c3n[nH]c4cc(C(F)F)ccc34)cc12

>  <Standard Type>  (269) 
IC50

>  <Standard Relation>  (269) 
'='

>  <Standard Units>  (269) 
nM

>  <Standard Value>  (269) 
58.0

>  <Assay ChEMBL ID>  (269) 
CHEMBL4603778

>  <Assay Description>  (269) 
Inhibition of ITK (unknown origin) using TK as substrate incubated for 30 mins by HTRF assay

>  <BAO Format ID>  (269) 
BAO_0000357

>  <BAO Label>  (269) 
single protein format

>  <Assay Organism>  (269) 
Homo sapiens

>  <Target ChEMBL ID>  (269) 
CHEMBL2959

>  <Target Name>  (269) 
Tyrosine-protein kinase ITK/TSK

>  <Target Organism>  (269) 
Homo sapiens

>  <Target Type>  (269) 
SINGLE PROTEIN

>  <Document ChEMBL ID>  (269) 
CHEMBL4602634

>  <Source Description>  (269) 
Scientific Literature

>  <Document Journal>  (269) 
Eur J Med Chem

>  <Document Year>  (269) 
2020.0

>  <Active>  (269) 
1.0

$$$$

     RDKit          2D

 30 34  0  0  0  0  0  0  0  0999 V2000
    8.8713   -3.8971    0.0000 C   0  0  0  0  0  0  0  0  0  0  0  0
    7.3713   -3.8971    0.0000 C   0  0  0  0  0  0  0  0  0  0  0  0
    6.6213   -2.5981    0.0000 C   0  0  0  0  0  0  0  0  0  0  0  0
    7.3713   -1.2990    0.0000 O   0  0  0  0  0  0  0  0  0  0  0  0
    5.1213   -2.5981    0.0000 N   0  0  0  0  0  0  0  0  0  0  0  0
    4.0607   -3.6587    0.0000 C   0  0  0  0  0  0  0  0  0  0  0  0
    3.0000   -2.5981    0.0000 C   0  0  0  0  0  0  0  0  0  0  0  0
    1.5000   -2.5981    0.0000 O   0  0  0  0  0  0  0  0  0  0  0  0
    0.7500   -1.2990    0.0000 C   0  0  0  0  0  0  0  0  0  0  0  0
    1.5000    0.0000    0.0000 C   0  0  0  0  0  0  0  0  0  0  0  0
    0.7500    1.2990    0.0000 C   0  0  0  0  0  0  0  0  0  0  0  0
   -0.7500    1.2990    0.0000 C   0  0  0  0  0  0  0  0  0  0  0  0
   -1.5000    0.0000    0.0000 C   0  0  0  0  0  0  0  0  0  0  0  0
   -2.9672   -0.3119    0.0000 N   0  0  0  0  0  0  0  0  0  0  0  0
   -3.1240   -1.8037    0.0000 C   0  0  0  0  0  0  0  0  0  0  0  0
   -4.4231   -2.5537    0.0000 C   0  0  0  0  0  0  0  0  0  0  0  0
   -5.7934   -1.9435    0.0000 N   0  0  0  0  0  0  0  0  0  0  0  0
   -6.7971   -3.0583    0.0000 N   0  0  0  0  0  0  0  0  0  0  0  0
   -6.0471   -4.3573    0.0000 C   0  0  0  0  0  0  0  0  0  0  0  0
   -6.5106   -5.7839    0.0000 C   0  0  0  0  0  0  0  0  0  0  0  0
   -5.5069   -6.8986    0.0000 C   0  0  0  0  0  0  0  0  0  0  0  0
   -5.9704   -8.3252    0.0000 C   0  0  0  0  0  0  0  0  0  0  0  0
   -7.4376   -8.6371    0.0000 F   0  0  0  0  0  0  0  0  0  0  0  0
   -4.9667   -9.4399    0.0000 F   0  0  0  0  0  0  0  0  0  0  0  0
   -4.0397   -6.5867    0.0000 C   0  0  0  0  0  0  0  0  0  0  0  0
   -3.5761   -5.1602    0.0000 C   0  0  0  0  0  0  0  0  0  0  0  0
   -4.5798   -4.0454    0.0000 C   0  0  0  0  0  0  0  0  0  0  0  0
   -1.7537   -2.4138    0.0000 C   0  0  0  0  0  0  0  0  0  0  0  0
   -0.7500   -1.2990    0.0000 C   0  0  0  0  0  0  0  0  0  0  0  0
    4.0607   -1.5374    0.0000 C   0  0  0  0  0  0  0  0  0  0  0  0
  1  2  2  0
  2  3  1  0
  3  4  2  0
  3  5  1  0
  5  6  1  0
  6  7  1  0
  7  8  1  0
  8  9  1  0
  9 10  2  0
 10 11  1  0
 11 12  2  0
 12 13  1  0
 13 14  1  0
 14 15  1  0
 15 16  1  0
 16 17  2  0
 17 18  1  0
 18 19  1  0
 19 20  2  0
 20 21  1  0
 21 22  1  0
 22 23  1  0
 22 24  1  0
 21 25  2  0
 25 26  1  0
 26 27  2  0
 15 28  2  0
 28 29  1  0
  7 30  1  0
 30  5  1  0
 29  9  1  0
 29 13  2  0
 27 16  1  0
 27 19  1  0
M  END
>  <Compound_ID>  (270) 
CHEMBL4643808

>  <Molecule Name>  (270) 
nan

>  <Molecular Weight>  (270) 
408.41

>  <AlogP>  (270) 
4.42

>  <Smiles>  (270) 
C=CC(=O)N1CC(Oc2cccc3[nH]c(-c4n[nH]c5cc(C(F)F)ccc45)cc23)C1

>  <Standard Type>  (270) 
IC50

>  <Standard Relation>  (270) 
'='

>  <Standard Units>  (270) 
nM

>  <Standard Value>  (270) 
58.0

>  <Assay ChEMBL ID>  (270) 
CHEMBL4603778

>  <Assay Description>  (270) 
Inhibition of ITK (unknown origin) using TK as substrate incubated for 30 mins by HTRF assay

>  <BAO Format ID>  (270) 
BAO_0000357

>  <BAO Label>  (270) 
single protein format

>  <Assay Organism>  (270) 
Homo sapiens

>  <Target ChEMBL ID>  (270) 
CHEMBL2959

>  <Target Name>  (270) 
Tyrosine-protein kinase ITK/TSK

>  <Target Organism>  (270) 
Homo sapiens

>  <Target Type>  (270) 
SINGLE PROTEIN

>  <Document ChEMBL ID>  (270) 
CHEMBL4602634

>  <Source Description>  (270) 
Scientific Literature

>  <Document Journal>  (270) 
Eur J Med Chem

>  <Document Year>  (270) 
2020.0

>  <Active>  (270) 
1.0

$$$$

     RDKit          2D

 22 24  0  0  0  0  0  0  0  0999 V2000
   -2.2500   -9.0933    0.0000 C   0  0  0  0  0  0  0  0  0  0  0  0
   -1.5000   -7.7942    0.0000 C   0  0  0  0  0  0  0  0  0  0  0  0
   -0.7500   -6.4952    0.0000 C   0  0  0  0  0  0  0  0  0  0  0  0
   -1.5000   -5.1962    0.0000 O   0  0  0  0  0  0  0  0  0  0  0  0
    0.7500   -6.4952    0.0000 N   0  0  0  0  0  0  0  0  0  0  0  0
    1.5000   -5.1962    0.0000 C   0  0  0  0  0  0  0  0  0  0  0  0
    0.7500   -3.8971    0.0000 C   0  0  0  0  0  0  0  0  0  0  0  0
    1.5000   -2.5981    0.0000 C   0  0  0  0  0  0  0  0  0  0  0  0
    0.7500   -1.2990    0.0000 C   0  0  0  0  0  0  0  0  0  0  0  0
    1.5000    0.0000    0.0000 C   0  0  0  0  0  0  0  0  0  0  0  0
    0.7500    1.2990    0.0000 N   0  0  0  0  0  0  0  0  0  0  0  0
   -0.7500    1.2990    0.0000 C   0  0  0  0  0  0  0  0  0  0  0  0
   -1.7537    2.4138    0.0000 N   0  0  0  0  0  0  0  0  0  0  0  0
   -3.1240    1.8037    0.0000 C   0  0  0  0  0  0  0  0  0  0  0  0
   -2.9672    0.3119    0.0000 C   0  0  0  0  0  0  0  0  0  0  0  0
   -4.0819   -0.6918    0.0000 C   0  0  0  0  0  0  0  0  0  0  0  0
   -1.5000    0.0000    0.0000 C   0  0  0  0  0  0  0  0  0  0  0  0
   -0.7500   -1.2990    0.0000 C   0  0  0  0  0  0  0  0  0  0  0  0
    3.0000   -2.5981    0.0000 C   0  0  0  0  0  0  0  0  0  0  0  0
    3.7500   -3.8971    0.0000 C   0  0  0  0  0  0  0  0  0  0  0  0
    3.0000   -5.1962    0.0000 C   0  0  0  0  0  0  0  0  0  0  0  0
    3.7500   -6.4952    0.0000 F   0  0  0  0  0  0  0  0  0  0  0  0
  1  2  3  0
  2  3  1  0
  3  4  2  0
  3  5  1  0
  5  6  1  0
  6  7  2  0
  7  8  1  0
  8  9  1  0
  9 10  2  0
 10 11  1  0
 11 12  2  0
 12 13  1  0
 13 14  1  0
 14 15  2  0
 15 16  1  0
 15 17  1  0
 17 18  2  0
  8 19  2  0
 19 20  1  0
 20 21  2  0
 21 22  1  0
 21  6  1  0
 18  9  1  0
 17 12  1  0
M  END
>  <Compound_ID>  (271) 
CHEMBL3893228

>  <Molecule Name>  (271) 
nan

>  <Molecular Weight>  (271) 
293.3

>  <AlogP>  (271) 
3.25

>  <Smiles>  (271) 
C#CC(=O)Nc1cc(-c2cnc3[nH]cc(C)c3c2)ccc1F

>  <Standard Type>  (271) 
IC50

>  <Standard Relation>  (271) 
'='

>  <Standard Units>  (271) 
nM

>  <Standard Value>  (271) 
30.0

>  <Assay ChEMBL ID>  (271) 
CHEMBL3887687

>  <Assay Description>  (271) 
Biochemical Inhibition Assay: 1H-pyrrolo[2,3-b]pyridine, 1H-pyrazolo[3,4-b]pyridine and 5H-pyrrolo[2,3-b]pyrazine series of compounds exhibited over >100 fold selective against Janus and TEC family of kinases except for the BMX and TXK it had activity of 30 and 45 nM respectively.

>  <BAO Format ID>  (271) 
BAO_0000357

>  <BAO Label>  (271) 
single protein format

>  <Assay Organism>  (271) 
Homo sapiens

>  <Target ChEMBL ID>  (271) 
CHEMBL2959

>  <Target Name>  (271) 
Tyrosine-protein kinase ITK/TSK

>  <Target Organism>  (271) 
Homo sapiens

>  <Target Type>  (271) 
SINGLE PROTEIN

>  <Document ChEMBL ID>  (271) 
CHEMBL3886406

>  <Source Description>  (271) 
BindingDB Database

>  <Document Journal>  (271) 
nan

>  <Document Year>  (271) 
2015.0

>  <Active>  (271) 
1.0

$$$$

     RDKit          2D

 37 40  0  0  0  0  0  0  0  0999 V2000
    3.7500   -1.2990    0.0000 C   0  0  0  0  0  0  0  0  0  0  0  0
    3.0000    0.0000    0.0000 O   0  0  0  0  0  0  0  0  0  0  0  0
    1.5000    0.0000    0.0000 C   0  0  0  0  0  0  0  0  0  0  0  0
    0.7500   -1.2990    0.0000 C   0  0  0  0  0  0  0  0  0  0  0  0
   -0.7500   -1.2990    0.0000 C   0  0  0  0  0  0  0  0  0  0  0  0
   -1.5000    0.0000    0.0000 C   0  0  0  0  0  0  0  0  0  0  0  0
   -3.0000    0.0000    0.0000 S   0  0  0  0  0  0  0  0  0  0  0  0
   -3.7500    1.2990    0.0000 C   0  0  0  0  0  0  0  0  0  0  0  0
   -5.2418    1.4558    0.0000 C   0  0  0  0  0  0  0  0  0  0  0  0
   -5.5537    2.9231    0.0000 N   0  0  0  0  0  0  0  0  0  0  0  0
   -4.2546    3.6731    0.0000 C   0  0  0  0  0  0  0  0  0  0  0  0
   -4.0978    5.1648    0.0000 N   0  0  0  0  0  0  0  0  0  0  0  0
   -2.7275    5.7749    0.0000 C   0  0  0  0  0  0  0  0  0  0  0  0
   -1.5140    4.8933    0.0000 O   0  0  0  0  0  0  0  0  0  0  0  0
   -2.5707    7.2667    0.0000 C   0  0  0  0  0  0  0  0  0  0  0  0
   -1.2004    7.8768    0.0000 C   0  0  0  0  0  0  0  0  0  0  0  0
   -1.0436    9.3686    0.0000 C   0  0  0  0  0  0  0  0  0  0  0  0
   -2.2571   10.2503    0.0000 C   0  0  0  0  0  0  0  0  0  0  0  0
   -2.1003   11.7421    0.0000 N   0  0  0  0  0  0  0  0  0  0  0  0
   -0.7300   12.3522    0.0000 C   0  0  0  0  0  0  0  0  0  0  0  0
   -3.3139   12.6237    0.0000 C   0  0  0  0  0  0  0  0  0  0  0  0
   -3.6274    9.6402    0.0000 C   0  0  0  0  0  0  0  0  0  0  0  0
   -3.7842    8.1484    0.0000 C   0  0  0  0  0  0  0  0  0  0  0  0
   -3.1399    2.6694    0.0000 S   0  0  0  0  0  0  0  0  0  0  0  0
   -0.7500    1.2990    0.0000 C   0  0  0  0  0  0  0  0  0  0  0  0
    0.7500    1.2990    0.0000 C   0  0  0  0  0  0  0  0  0  0  0  0
    1.5000    2.5981    0.0000 C   0  0  0  0  0  0  0  0  0  0  0  0
    0.7500    3.8971    0.0000 O   0  0  0  0  0  0  0  0  0  0  0  0
    3.0000    2.5981    0.0000 N   0  0  0  0  0  0  0  0  0  0  0  0
    3.7500    1.2990    0.0000 C   0  0  0  0  0  0  0  0  0  0  0  0
    5.2500    1.2990    0.0000 C   0  0  0  0  0  0  0  0  0  0  0  0
    6.0000    2.5981    0.0000 N   0  0  0  0  0  0  0  0  0  0  0  0
    7.5000    2.5981    0.0000 C   0  0  0  0  0  0  0  0  0  0  0  0
    8.2500    1.2990    0.0000 C   0  0  0  0  0  0  0  0  0  0  0  0
    8.2500    3.8971    0.0000 O   0  0  0  0  0  0  0  0  0  0  0  0
    5.2500    3.8971    0.0000 C   0  0  0  0  0  0  0  0  0  0  0  0
    3.7500    3.8971    0.0000 C   0  0  0  0  0  0  0  0  0  0  0  0
  1  2  1  0
  2  3  1  0
  3  4  2  0
  4  5  1  0
  5  6  2  0
  6  7  1  0
  7  8  1  0
  8  9  2  0
  9 10  1  0
 10 11  2  0
 11 12  1  0
 12 13  1  0
 13 14  2  0
 13 15  1  0
 15 16  2  0
 16 17  1  0
 17 18  2  0
 18 19  1  0
 19 20  1  0
 19 21  1  0
 18 22  1  0
 22 23  2  0
 11 24  1  0
  6 25  1  0
 25 26  2  0
 26 27  1  0
 27 28  2  0
 27 29  1  0
 29 30  1  0
 30 31  1  0
 31 32  1  0
 32 33  1  0
 33 34  1  0
 33 35  2  0
 32 36  1  0
 36 37  1  0
 26  3  1  0
 37 29  1  0
 24  8  1  0
 23 15  1  0
M  END
>  <Compound_ID>  (272) 
CHEMBL210528

>  <Molecule Name>  (272) 
nan

>  <Molecular Weight>  (272) 
539.68

>  <AlogP>  (272) 
3.93

>  <Smiles>  (272) 
COc1ccc(Sc2cnc(NC(=O)c3ccc(N(C)C)cc3)s2)cc1C(=O)N1CCN(C(C)=O)CC1

>  <Standard Type>  (272) 
IC50

>  <Standard Relation>  (272) 
'='

>  <Standard Units>  (272) 
nM

>  <Standard Value>  (272) 
34.0

>  <Assay ChEMBL ID>  (272) 
CHEMBL864159

>  <Assay Description>  (272) 
Inhibition of Itk

>  <BAO Format ID>  (272) 
BAO_0000357

>  <BAO Label>  (272) 
single protein format

>  <Assay Organism>  (272) 
Homo sapiens

>  <Target ChEMBL ID>  (272) 
CHEMBL2959

>  <Target Name>  (272) 
Tyrosine-protein kinase ITK/TSK

>  <Target Organism>  (272) 
Homo sapiens

>  <Target Type>  (272) 
SINGLE PROTEIN

>  <Document ChEMBL ID>  (272) 
CHEMBL1138957

>  <Source Description>  (272) 
Scientific Literature

>  <Document Journal>  (272) 
Bioorg Med Chem Lett

>  <Document Year>  (272) 
2006.0

>  <Active>  (272) 
1.0

$$$$

     RDKit          2D

 33 36  0  0  0  0  0  0  0  0999 V2000
   -3.7548   -2.1855    0.0000 C   0  0  0  0  0  0  0  0  0  0  0  0
   -2.6401   -3.1891    0.0000 C   0  0  0  0  0  0  0  0  0  0  0  0
   -2.9520   -4.6564    0.0000 C   0  0  0  0  0  0  0  0  0  0  0  0
   -1.2135   -2.7256    0.0000 N   0  0  0  0  0  0  0  0  0  0  0  0
   -0.0000   -3.6073    0.0000 C   0  0  0  0  0  0  0  0  0  0  0  0
   -0.0000   -5.1073    0.0000 N   0  0  0  0  0  0  0  0  0  0  0  0
    1.2990   -5.8573    0.0000 C   0  0  0  0  0  0  0  0  0  0  0  0
    2.5981   -5.1073    0.0000 O   0  0  0  0  0  0  0  0  0  0  0  0
    1.2990   -7.3573    0.0000 C   0  0  0  0  0  0  0  0  0  0  0  0
    2.5981   -8.1073    0.0000 C   0  0  0  0  0  0  0  0  0  0  0  0
    2.5981   -9.6073    0.0000 C   0  0  0  0  0  0  0  0  0  0  0  0
    1.2990  -10.3573    0.0000 C   0  0  0  0  0  0  0  0  0  0  0  0
    1.2990  -11.8573    0.0000 C   0  0  0  0  0  0  0  0  0  0  0  0
    1.2990  -13.3573    0.0000 N   0  0  0  0  0  0  0  0  0  0  0  0
   -0.0000   -9.6073    0.0000 C   0  0  0  0  0  0  0  0  0  0  0  0
   -0.0000   -8.1073    0.0000 C   0  0  0  0  0  0  0  0  0  0  0  0
    1.2135   -2.7256    0.0000 N   0  0  0  0  0  0  0  0  0  0  0  0
    0.7500   -1.2990    0.0000 C   0  0  0  0  0  0  0  0  0  0  0  0
    1.5000    0.0000    0.0000 C   0  0  0  0  0  0  0  0  0  0  0  0
    0.7500    1.2990    0.0000 C   0  0  0  0  0  0  0  0  0  0  0  0
    1.5000    2.5981    0.0000 N   0  0  0  0  0  0  0  0  0  0  0  0
    3.0000    2.5981    0.0000 C   0  0  0  0  0  0  0  0  0  0  0  0
    0.7500    3.8971    0.0000 C   0  0  0  0  0  0  0  0  0  0  0  0
   -0.7500    3.8971    0.0000 O   0  0  0  0  0  0  0  0  0  0  0  0
    1.5000    5.1962    0.0000 C   0  0  0  0  0  0  0  0  0  0  0  0
    3.0000    5.1962    0.0000 C   0  0  0  0  0  0  0  0  0  0  0  0
    3.7500    6.4952    0.0000 C   0  0  0  0  0  0  0  0  0  0  0  0
    3.0000    7.7942    0.0000 C   0  0  0  0  0  0  0  0  0  0  0  0
    1.5000    7.7942    0.0000 C   0  0  0  0  0  0  0  0  0  0  0  0
    0.7500    6.4952    0.0000 C   0  0  0  0  0  0  0  0  0  0  0  0
   -0.7500    1.2990    0.0000 C   0  0  0  0  0  0  0  0  0  0  0  0
   -1.5000    0.0000    0.0000 C   0  0  0  0  0  0  0  0  0  0  0  0
   -0.7500   -1.2990    0.0000 C   0  0  0  0  0  0  0  0  0  0  0  0
  1  2  1  0
  2  3  1  0
  2  4  1  0
  4  5  1  0
  5  6  1  0
  6  7  1  0
  7  8  2  0
  7  9  1  0
  9 10  2  0
 10 11  1  0
 11 12  2  0
 12 13  1  0
 13 14  3  0
 12 15  1  0
 15 16  2  0
  5 17  2  0
 17 18  1  0
 18 19  2  0
 19 20  1  0
 20 21  1  0
 21 22  1  0
 21 23  1  0
 23 24  2  0
 23 25  1  0
 25 26  1  0
 26 27  1  0
 27 28  1  0
 28 29  1  0
 29 30  1  0
 20 31  2  0
 31 32  1  0
 32 33  2  0
 33  4  1  0
 16  9  1  0
 33 18  1  0
 30 25  1  0
M  END
>  <Compound_ID>  (273) 
CHEMBL484395

>  <Molecule Name>  (273) 
nan

>  <Molecular Weight>  (273) 
443.55

>  <AlogP>  (273) 
5.28

>  <Smiles>  (273) 
CC(C)n1c(NC(=O)c2ccc(C#N)cc2)nc2cc(N(C)C(=O)C3CCCCC3)ccc21

>  <Standard Type>  (273) 
IC50

>  <Standard Relation>  (273) 
'='

>  <Standard Units>  (273) 
nM

>  <Standard Value>  (273) 
35.0

>  <Assay ChEMBL ID>  (273) 
CHEMBL992563

>  <Assay Description>  (273) 
Inhibition of ITK by DELFIA assay

>  <BAO Format ID>  (273) 
BAO_0000357

>  <BAO Label>  (273) 
single protein format

>  <Assay Organism>  (273) 
None

>  <Target ChEMBL ID>  (273) 
CHEMBL2959

>  <Target Name>  (273) 
Tyrosine-protein kinase ITK/TSK

>  <Target Organism>  (273) 
Homo sapiens

>  <Target Type>  (273) 
SINGLE PROTEIN

>  <Document ChEMBL ID>  (273) 
CHEMBL1142468

>  <Source Description>  (273) 
Scientific Literature

>  <Document Journal>  (273) 
Bioorg Med Chem Lett

>  <Document Year>  (273) 
2008.0

>  <Active>  (273) 
1.0

$$$$

     RDKit          2D

 42 47  0  0  0  0  0  0  0  0999 V2000
  -10.2497   -1.4504    0.0000 C   0  0  0  0  0  0  0  0  0  0  0  0
   -8.8231   -1.9139    0.0000 C   0  0  0  0  0  0  0  0  0  0  0  0
   -8.5112   -3.3811    0.0000 C   0  0  0  0  0  0  0  0  0  0  0  0
   -9.6260   -4.3848    0.0000 O   0  0  0  0  0  0  0  0  0  0  0  0
   -7.0847   -3.8447    0.0000 N   0  0  0  0  0  0  0  0  0  0  0  0
   -6.6211   -5.2713    0.0000 C   0  0  0  0  0  0  0  0  0  0  0  0
   -5.1211   -5.2713    0.0000 C   0  0  0  0  0  0  0  0  0  0  0  0
   -4.6576   -3.8447    0.0000 C   0  0  0  0  0  0  0  0  0  0  0  0
   -5.8711   -2.9630    0.0000 C   0  0  0  0  0  0  0  0  0  0  0  0
   -3.3211   -4.5257    0.0000 C   0  0  0  0  0  0  0  0  0  0  0  0
   -2.6401   -3.1891    0.0000 C   0  0  0  0  0  0  0  0  0  0  0  0
   -1.2135   -2.7256    0.0000 N   0  0  0  0  0  0  0  0  0  0  0  0
   -0.0000   -3.6073    0.0000 C   0  0  0  0  0  0  0  0  0  0  0  0
   -0.0000   -5.1073    0.0000 N   0  0  0  0  0  0  0  0  0  0  0  0
   -1.2990   -5.8573    0.0000 C   0  0  0  0  0  0  0  0  0  0  0  0
   -2.5981   -5.1073    0.0000 O   0  0  0  0  0  0  0  0  0  0  0  0
   -1.2990   -7.3573    0.0000 C   0  0  0  0  0  0  0  0  0  0  0  0
   -0.0855   -8.2390    0.0000 C   0  0  0  0  0  0  0  0  0  0  0  0
   -0.5490   -9.6656    0.0000 C   0  0  0  0  0  0  0  0  0  0  0  0
   -2.0490   -9.6656    0.0000 C   0  0  0  0  0  0  0  0  0  0  0  0
   -2.9307  -10.8791    0.0000 C   0  0  0  0  0  0  0  0  0  0  0  0
   -2.4672  -12.3057    0.0000 C   0  0  0  0  0  0  0  0  0  0  0  0
   -3.6807  -13.1874    0.0000 N   0  0  0  0  0  0  0  0  0  0  0  0
   -4.8942  -12.3057    0.0000 C   0  0  0  0  0  0  0  0  0  0  0  0
   -4.4307  -10.8791    0.0000 O   0  0  0  0  0  0  0  0  0  0  0  0
   -2.5126   -8.2390    0.0000 S   0  0  0  0  0  0  0  0  0  0  0  0
    1.2135   -2.7256    0.0000 N   0  0  0  0  0  0  0  0  0  0  0  0
    0.7500   -1.2990    0.0000 C   0  0  0  0  0  0  0  0  0  0  0  0
    1.5000    0.0000    0.0000 C   0  0  0  0  0  0  0  0  0  0  0  0
    0.7500    1.2990    0.0000 C   0  0  0  0  0  0  0  0  0  0  0  0
    1.5000    2.5981    0.0000 C   0  0  0  0  0  0  0  0  0  0  0  0
    3.0000    2.5981    0.0000 N   0  0  0  0  0  0  0  0  0  0  0  0
    3.7500    3.8971    0.0000 C   0  0  0  0  0  0  0  0  0  0  0  0
    5.2500    3.8971    0.0000 C   0  0  0  0  0  0  0  0  0  0  0  0
    5.2500    2.3971    0.0000 C   0  0  0  0  0  0  0  0  0  0  0  0
    5.2500    5.3971    0.0000 C   0  0  0  0  0  0  0  0  0  0  0  0
    6.7500    3.8971    0.0000 C   0  0  0  0  0  0  0  0  0  0  0  0
    7.5000    2.5981    0.0000 O   0  0  0  0  0  0  0  0  0  0  0  0
   -0.7500    1.2990    0.0000 C   0  0  0  0  0  0  0  0  0  0  0  0
   -1.5000    0.0000    0.0000 C   0  0  0  0  0  0  0  0  0  0  0  0
   -0.7500   -1.2990    0.0000 C   0  0  0  0  0  0  0  0  0  0  0  0
   -3.9766   -2.5082    0.0000 C   0  0  0  0  0  0  0  0  0  0  0  0
  1  2  2  0
  2  3  1  0
  3  4  2  0
  3  5  1  0
  5  6  1  0
  6  7  1  0
  8  7  1  1
  8  9  1  0
  8 10  1  0
 10 11  1  0
 11 12  1  1
 12 13  1  0
 13 14  1  0
 14 15  1  0
 15 16  2  0
 15 17  1  0
 17 18  2  0
 18 19  1  0
 19 20  2  0
 20 21  1  0
 21 22  2  0
 22 23  1  0
 23 24  2  0
 24 25  1  0
 20 26  1  0
 13 27  2  0
 27 28  1  0
 28 29  2  0
 29 30  1  0
 30 31  1  0
 31 32  1  0
 32 33  1  0
 33 34  1  0
 34 35  1  0
 34 36  1  0
 34 37  1  0
 37 38  1  0
 30 39  2  0
 39 40  1  0
 40 41  2  0
 11 42  1  0
  9  5  1  0
 41 12  1  0
 42  8  1  0
 26 17  1  0
 41 28  1  0
 25 21  1  0
M  END
>  <Compound_ID>  (274) 
CHEMBL4215147

>  <Molecule Name>  (274) 
nan

>  <Molecular Weight>  (274) 
588.73

>  <AlogP>  (274) 
4.85

>  <Smiles>  (274) 
C=CC(=O)N1CC[C@]2(C1)C[C@H](n1c(NC(=O)c3ccc(-c4cnco4)s3)nc3cc(CNCC(C)(C)CO)ccc31)C2

>  <Standard Type>  (274) 
IC50

>  <Standard Relation>  (274) 
'='

>  <Standard Units>  (274) 
nM

>  <Standard Value>  (274) 
0.7

>  <Assay ChEMBL ID>  (274) 
CHEMBL4199503

>  <Assay Description>  (274) 
Inhibition of ITK (unknown origin) using fluorescently labeled peptide as substrate after 3 hrs by microfluidic mobility shift assay

>  <BAO Format ID>  (274) 
BAO_0000357

>  <BAO Label>  (274) 
single protein format

>  <Assay Organism>  (274) 
Homo sapiens

>  <Target ChEMBL ID>  (274) 
CHEMBL2959

>  <Target Name>  (274) 
Tyrosine-protein kinase ITK/TSK

>  <Target Organism>  (274) 
Homo sapiens

>  <Target Type>  (274) 
SINGLE PROTEIN

>  <Document ChEMBL ID>  (274) 
CHEMBL4196110

>  <Source Description>  (274) 
Scientific Literature

>  <Document Journal>  (274) 
ACS Med Chem Lett

>  <Document Year>  (274) 
2018.0

>  <Active>  (274) 
1.0

$$$$

     RDKit          2D

 37 41  0  0  0  0  0  0  0  0999 V2000
  -10.2497   -1.4504    0.0000 C   0  0  0  0  0  0  0  0  0  0  0  0
   -8.8231   -1.9139    0.0000 C   0  0  0  0  0  0  0  0  0  0  0  0
   -8.5112   -3.3811    0.0000 C   0  0  0  0  0  0  0  0  0  0  0  0
   -9.6260   -4.3848    0.0000 O   0  0  0  0  0  0  0  0  0  0  0  0
   -7.0847   -3.8447    0.0000 N   0  0  0  0  0  0  0  0  0  0  0  0
   -6.6211   -5.2713    0.0000 C   0  0  0  0  0  0  0  0  0  0  0  0
   -5.1211   -5.2713    0.0000 C   0  0  0  0  0  0  0  0  0  0  0  0
   -4.6576   -3.8447    0.0000 C   0  0  0  0  0  0  0  0  0  0  0  0
   -5.8711   -2.9630    0.0000 C   0  0  0  0  0  0  0  0  0  0  0  0
   -3.3211   -4.5257    0.0000 C   0  0  0  0  0  0  0  0  0  0  0  0
   -2.6401   -3.1891    0.0000 C   0  0  0  0  0  0  0  0  0  0  0  0
   -1.2135   -2.7256    0.0000 N   0  0  0  0  0  0  0  0  0  0  0  0
   -0.0000   -3.6073    0.0000 C   0  0  0  0  0  0  0  0  0  0  0  0
   -0.0000   -5.1073    0.0000 N   0  0  0  0  0  0  0  0  0  0  0  0
   -1.2990   -5.8573    0.0000 C   0  0  0  0  0  0  0  0  0  0  0  0
   -2.5981   -5.1073    0.0000 O   0  0  0  0  0  0  0  0  0  0  0  0
   -1.2990   -7.3573    0.0000 C   0  0  0  0  0  0  0  0  0  0  0  0
   -0.0855   -8.2390    0.0000 C   0  0  0  0  0  0  0  0  0  0  0  0
   -0.5490   -9.6656    0.0000 C   0  0  0  0  0  0  0  0  0  0  0  0
   -2.0490   -9.6656    0.0000 N   0  0  0  0  0  0  0  0  0  0  0  0
   -2.5126   -8.2390    0.0000 S   0  0  0  0  0  0  0  0  0  0  0  0
    1.2135   -2.7256    0.0000 N   0  0  0  0  0  0  0  0  0  0  0  0
    0.7500   -1.2990    0.0000 C   0  0  0  0  0  0  0  0  0  0  0  0
    1.5000    0.0000    0.0000 C   0  0  0  0  0  0  0  0  0  0  0  0
    0.7500    1.2990    0.0000 C   0  0  0  0  0  0  0  0  0  0  0  0
    1.5000    2.5981    0.0000 C   0  0  0  0  0  0  0  0  0  0  0  0
    3.0000    2.5981    0.0000 N   0  0  0  0  0  0  0  0  0  0  0  0
    3.7500    3.8971    0.0000 C   0  0  0  0  0  0  0  0  0  0  0  0
    5.2500    3.8971    0.0000 C   0  0  0  0  0  0  0  0  0  0  0  0
    3.0000    5.1962    0.0000 C   0  0  0  0  0  0  0  0  0  0  0  0
    4.2990    5.9462    0.0000 C   0  0  0  0  0  0  0  0  0  0  0  0
    1.7010    4.4462    0.0000 C   0  0  0  0  0  0  0  0  0  0  0  0
    2.2500    6.4952    0.0000 C   0  0  0  0  0  0  0  0  0  0  0  0
   -0.7500    1.2990    0.0000 C   0  0  0  0  0  0  0  0  0  0  0  0
   -1.5000    0.0000    0.0000 C   0  0  0  0  0  0  0  0  0  0  0  0
   -0.7500   -1.2990    0.0000 C   0  0  0  0  0  0  0  0  0  0  0  0
   -3.9766   -2.5082    0.0000 C   0  0  0  0  0  0  0  0  0  0  0  0
  1  2  2  0
  2  3  1  0
  3  4  2  0
  3  5  1  0
  5  6  1  0
  6  7  1  0
  8  7  1  1
  8  9  1  0
  8 10  1  0
 10 11  1  0
 11 12  1  1
 12 13  1  0
 13 14  1  0
 14 15  1  0
 15 16  2  0
 15 17  1  0
 17 18  2  0
 18 19  1  0
 19 20  2  0
 20 21  1  0
 13 22  2  0
 22 23  1  0
 23 24  2  0
 24 25  1  0
 25 26  1  0
 26 27  1  0
 27 28  1  0
 28 29  1  6
 28 30  1  0
 30 31  1  0
 30 32  1  0
 30 33  1  0
 25 34  2  0
 34 35  1  0
 35 36  2  0
 11 37  1  0
  9  5  1  0
 36 12  1  0
 37  8  1  0
 21 17  1  0
 36 23  1  0
M  END
>  <Compound_ID>  (275) 
CHEMBL4215807

>  <Molecule Name>  (275) 
nan

>  <Molecular Weight>  (275) 
520.7

>  <AlogP>  (275) 
5.01

>  <Smiles>  (275) 
C=CC(=O)N1CC[C@]2(C1)C[C@H](n1c(NC(=O)c3ccns3)nc3cc(CN[C@@H](C)C(C)(C)C)ccc31)C2

>  <Standard Type>  (275) 
IC50

>  <Standard Relation>  (275) 
'='

>  <Standard Units>  (275) 
nM

>  <Standard Value>  (275) 
1.62

>  <Assay ChEMBL ID>  (275) 
CHEMBL4199503

>  <Assay Description>  (275) 
Inhibition of ITK (unknown origin) using fluorescently labeled peptide as substrate after 3 hrs by microfluidic mobility shift assay

>  <BAO Format ID>  (275) 
BAO_0000357

>  <BAO Label>  (275) 
single protein format

>  <Assay Organism>  (275) 
Homo sapiens

>  <Target ChEMBL ID>  (275) 
CHEMBL2959

>  <Target Name>  (275) 
Tyrosine-protein kinase ITK/TSK

>  <Target Organism>  (275) 
Homo sapiens

>  <Target Type>  (275) 
SINGLE PROTEIN

>  <Document ChEMBL ID>  (275) 
CHEMBL4196110

>  <Source Description>  (275) 
Scientific Literature

>  <Document Journal>  (275) 
ACS Med Chem Lett

>  <Document Year>  (275) 
2018.0

>  <Active>  (275) 
1.0

$$$$

     RDKit          2D

 31 35  0  0  0  0  0  0  0  0999 V2000
    9.7500   -3.8971    0.0000 C   0  0  0  0  0  0  0  0  0  0  0  0
    8.2500   -3.8971    0.0000 C   0  0  0  0  0  0  0  0  0  0  0  0
    7.5000   -2.5981    0.0000 C   0  0  0  0  0  0  0  0  0  0  0  0
    8.2500   -1.2990    0.0000 O   0  0  0  0  0  0  0  0  0  0  0  0
    6.0000   -2.5981    0.0000 N   0  0  0  0  0  0  0  0  0  0  0  0
    5.2500   -1.2990    0.0000 C   0  0  0  0  0  0  0  0  0  0  0  0
    3.7500   -1.2990    0.0000 C   0  0  0  0  0  0  0  0  0  0  0  0
    3.0000    0.0000    0.0000 O   0  0  0  0  0  0  0  0  0  0  0  0
    1.5000    0.0000    0.0000 C   0  0  0  0  0  0  0  0  0  0  0  0
    0.7500   -1.2990    0.0000 C   0  0  0  0  0  0  0  0  0  0  0  0
   -0.7500   -1.2990    0.0000 C   0  0  0  0  0  0  0  0  0  0  0  0
   -1.5000    0.0000    0.0000 C   0  0  0  0  0  0  0  0  0  0  0  0
   -0.7500    1.2990    0.0000 C   0  0  0  0  0  0  0  0  0  0  0  0
   -1.2135    2.7256    0.0000 N   0  0  0  0  0  0  0  0  0  0  0  0
   -0.0000    3.6073    0.0000 C   0  0  0  0  0  0  0  0  0  0  0  0
   -0.0000    5.1073    0.0000 C   0  0  0  0  0  0  0  0  0  0  0  0
    1.2135    5.9890    0.0000 N   0  0  0  0  0  0  0  0  0  0  0  0
    0.7500    7.4156    0.0000 N   0  0  0  0  0  0  0  0  0  0  0  0
   -0.7500    7.4156    0.0000 C   0  0  0  0  0  0  0  0  0  0  0  0
   -1.7537    8.5303    0.0000 C   0  0  0  0  0  0  0  0  0  0  0  0
   -3.2209    8.2184    0.0000 C   0  0  0  0  0  0  0  0  0  0  0  0
   -4.2246    9.3331    0.0000 C   0  0  0  0  0  0  0  0  0  0  0  0
   -5.7164    9.1763    0.0000 C   0  0  0  0  0  0  0  0  0  0  0  0
   -6.3265   10.5467    0.0000 N   0  0  0  0  0  0  0  0  0  0  0  0
   -5.2118   11.5504    0.0000 N   0  0  0  0  0  0  0  0  0  0  0  0
   -3.9127   10.8004    0.0000 C   0  0  0  0  0  0  0  0  0  0  0  0
   -3.6844    6.7918    0.0000 C   0  0  0  0  0  0  0  0  0  0  0  0
   -2.6807    5.6771    0.0000 C   0  0  0  0  0  0  0  0  0  0  0  0
   -1.2135    5.9890    0.0000 C   0  0  0  0  0  0  0  0  0  0  0  0
    1.2135    2.7256    0.0000 C   0  0  0  0  0  0  0  0  0  0  0  0
    0.7500    1.2990    0.0000 C   0  0  0  0  0  0  0  0  0  0  0  0
  1  2  2  0
  2  3  1  0
  3  4  2  0
  3  5  1  0
  5  6  1  0
  6  7  1  0
  7  8  1  0
  8  9  1  0
  9 10  2  0
 10 11  1  0
 11 12  2  0
 12 13  1  0
 13 14  1  0
 14 15  1  0
 15 16  1  0
 16 17  2  0
 17 18  1  0
 18 19  1  0
 19 20  2  0
 20 21  1  0
 21 22  1  0
 22 23  1  0
 23 24  2  0
 24 25  1  0
 25 26  1  0
 21 27  2  0
 27 28  1  0
 28 29  2  0
 15 30  2  0
 30 31  1  0
 31  9  1  0
 31 13  2  0
 29 16  1  0
 29 19  1  0
 26 22  2  0
M  END
>  <Compound_ID>  (276) 
CHEMBL4640397

>  <Molecule Name>  (276) 
nan

>  <Molecular Weight>  (276) 
412.45

>  <AlogP>  (276) 
3.78

>  <Smiles>  (276) 
C=CC(=O)NCCOc1cccc2[nH]c(-c3n[nH]c4cc(-c5cn[nH]c5)ccc34)cc12

>  <Standard Type>  (276) 
IC50

>  <Standard Relation>  (276) 
'='

>  <Standard Units>  (276) 
nM

>  <Standard Value>  (276) 
6.1

>  <Assay ChEMBL ID>  (276) 
CHEMBL4603778

>  <Assay Description>  (276) 
Inhibition of ITK (unknown origin) using TK as substrate incubated for 30 mins by HTRF assay

>  <BAO Format ID>  (276) 
BAO_0000357

>  <BAO Label>  (276) 
single protein format

>  <Assay Organism>  (276) 
Homo sapiens

>  <Target ChEMBL ID>  (276) 
CHEMBL2959

>  <Target Name>  (276) 
Tyrosine-protein kinase ITK/TSK

>  <Target Organism>  (276) 
Homo sapiens

>  <Target Type>  (276) 
SINGLE PROTEIN

>  <Document ChEMBL ID>  (276) 
CHEMBL4602634

>  <Source Description>  (276) 
Scientific Literature

>  <Document Journal>  (276) 
Eur J Med Chem

>  <Document Year>  (276) 
2020.0

>  <Active>  (276) 
1.0

$$$$

     RDKit          2D

 32 35  0  0  0  0  0  0  0  0999 V2000
   -9.7500   -6.4952    0.0000 C   0  0  0  0  0  0  0  0  0  0  0  0
   -8.2500   -6.4952    0.0000 C   0  0  0  0  0  0  0  0  0  0  0  0
   -7.5000   -5.1962    0.0000 C   0  0  0  0  0  0  0  0  0  0  0  0
   -8.2500   -3.8971    0.0000 O   0  0  0  0  0  0  0  0  0  0  0  0
   -6.0000   -5.1962    0.0000 N   0  0  0  0  0  0  0  0  0  0  0  0
   -5.2500   -3.8971    0.0000 C   0  0  0  0  0  0  0  0  0  0  0  0
   -6.0000   -2.5981    0.0000 C   0  0  0  0  0  0  0  0  0  0  0  0
   -5.2500   -1.2990    0.0000 C   0  0  0  0  0  0  0  0  0  0  0  0
   -3.7500   -1.2990    0.0000 C   0  0  0  0  0  0  0  0  0  0  0  0
   -3.0000   -2.5981    0.0000 C   0  0  0  0  0  0  0  0  0  0  0  0
   -1.5000   -2.5981    0.0000 N   0  0  0  0  0  0  0  0  0  0  0  0
   -0.7500   -3.8971    0.0000 C   0  0  0  0  0  0  0  0  0  0  0  0
   -1.5000   -5.1962    0.0000 O   0  0  0  0  0  0  0  0  0  0  0  0
    0.7500   -3.8971    0.0000 C   0  0  0  0  0  0  0  0  0  0  0  0
    1.5000   -5.1962    0.0000 C   0  0  0  0  0  0  0  0  0  0  0  0
    1.5000   -2.5981    0.0000 N   0  0  0  0  0  0  0  0  0  0  0  0
    0.7500   -1.2990    0.0000 C   0  0  0  0  0  0  0  0  0  0  0  0
    1.5000    0.0000    0.0000 C   0  0  0  0  0  0  0  0  0  0  0  0
    0.7500    1.2990    0.0000 N   0  0  0  0  0  0  0  0  0  0  0  0
   -0.7500    1.2990    0.0000 C   0  0  0  0  0  0  0  0  0  0  0  0
   -1.5000    2.5981    0.0000 N   0  0  0  0  0  0  0  0  0  0  0  0
   -0.7500    3.8971    0.0000 C   0  0  0  0  0  0  0  0  0  0  0  0
    0.7500    3.8971    0.0000 C   0  0  0  0  0  0  0  0  0  0  0  0
    1.5000    5.1962    0.0000 C   0  0  0  0  0  0  0  0  0  0  0  0
    0.7500    6.4952    0.0000 C   0  0  0  0  0  0  0  0  0  0  0  0
    1.5000    7.7942    0.0000 O   0  0  0  0  0  0  0  0  0  0  0  0
    3.0000    7.7942    0.0000 C   0  0  0  0  0  0  0  0  0  0  0  0
   -0.7500    6.4952    0.0000 C   0  0  0  0  0  0  0  0  0  0  0  0
   -1.5000    5.1962    0.0000 C   0  0  0  0  0  0  0  0  0  0  0  0
   -1.5000    0.0000    0.0000 N   0  0  0  0  0  0  0  0  0  0  0  0
   -0.7500   -1.2990    0.0000 C   0  0  0  0  0  0  0  0  0  0  0  0
   -3.7500   -3.8971    0.0000 C   0  0  0  0  0  0  0  0  0  0  0  0
  1  2  2  0
  2  3  1  0
  3  4  2  0
  3  5  1  0
  5  6  1  0
  6  7  2  0
  7  8  1  0
  8  9  2  0
  9 10  1  0
 10 11  1  0
 11 12  1  0
 12 13  2  0
 12 14  1  0
 14 15  1  0
 14 16  2  0
 16 17  1  0
 17 18  2  0
 18 19  1  0
 19 20  2  0
 20 21  1  0
 21 22  1  0
 22 23  2  0
 23 24  1  0
 24 25  2  0
 25 26  1  0
 26 27  1  0
 25 28  1  0
 28 29  2  0
 20 30  1  0
 30 31  2  0
 10 32  2  0
 32  6  1  0
 31 11  1  0
 31 17  1  0
 29 22  1  0
M  END
>  <Compound_ID>  (277) 
CHEMBL2437471

>  <Molecule Name>  (277) 
nan

>  <Molecular Weight>  (277) 
428.45

>  <AlogP>  (277) 
3.36

>  <Smiles>  (277) 
C=CC(=O)Nc1cccc(-n2c(=O)c(C)nc3cnc(Nc4ccc(OC)cc4)nc32)c1

>  <Standard Type>  (277) 
IC50

>  <Standard Relation>  (277) 
'='

>  <Standard Units>  (277) 
nM

>  <Standard Value>  (277) 
46.1

>  <Assay ChEMBL ID>  (277) 
CHEMBL5045466

>  <Assay Description>  (277) 
Inhibition of human ITK using poly-Glu-Tyr (4:1) as substrate incubated for 1 hr by ELISA

>  <BAO Format ID>  (277) 
BAO_0000357

>  <BAO Label>  (277) 
single protein format

>  <Assay Organism>  (277) 
Homo sapiens

>  <Target ChEMBL ID>  (277) 
CHEMBL2959

>  <Target Name>  (277) 
Tyrosine-protein kinase ITK/TSK

>  <Target Organism>  (277) 
Homo sapiens

>  <Target Type>  (277) 
SINGLE PROTEIN

>  <Document ChEMBL ID>  (277) 
CHEMBL5042540

>  <Source Description>  (277) 
Scientific Literature

>  <Document Journal>  (277) 
J Med Chem

>  <Document Year>  (277) 
2022.0

>  <Active>  (277) 
1.0

$$$$

     RDKit          2D

 35 39  0  0  0  0  0  0  0  0999 V2000
   -2.9520   -4.6564    0.0000 C   0  0  0  0  0  0  0  0  0  0  0  0
   -2.6401   -3.1891    0.0000 C   0  0  0  0  0  0  0  0  0  0  0  0
   -1.2135   -2.7256    0.0000 N   0  0  0  0  0  0  0  0  0  0  0  0
   -0.0000   -3.6073    0.0000 C   0  0  0  0  0  0  0  0  0  0  0  0
    1.2135   -2.7256    0.0000 C   0  0  0  0  0  0  0  0  0  0  0  0
    2.6401   -3.1891    0.0000 C   0  0  0  0  0  0  0  0  0  0  0  0
    3.7548   -2.1855    0.0000 C   0  0  0  0  0  0  0  0  0  0  0  0
    5.1814   -2.6490    0.0000 C   0  0  0  0  0  0  0  0  0  0  0  0
    5.4933   -4.1162    0.0000 C   0  0  0  0  0  0  0  0  0  0  0  0
    4.3786   -5.1199    0.0000 C   0  0  0  0  0  0  0  0  0  0  0  0
    2.9520   -4.6564    0.0000 C   0  0  0  0  0  0  0  0  0  0  0  0
    4.9887   -6.4902    0.0000 C   0  0  0  0  0  0  0  0  0  0  0  0
    6.4805   -6.3334    0.0000 C   0  0  0  0  0  0  0  0  0  0  0  0
    6.7923   -4.8662    0.0000 N   0  0  0  0  0  0  0  0  0  0  0  0
    8.1626   -4.2561    0.0000 C   0  0  0  0  0  0  0  0  0  0  0  0
    8.3194   -2.7643    0.0000 O   0  0  0  0  0  0  0  0  0  0  0  0
    9.3762   -5.1378    0.0000 C   0  0  0  0  0  0  0  0  0  0  0  0
   10.7465   -4.5277    0.0000 C   0  0  0  0  0  0  0  0  0  0  0  0
   11.9600   -5.4093    0.0000 C   0  0  0  0  0  0  0  0  0  0  0  0
   13.3303   -4.7992    0.0000 C   0  0  0  0  0  0  0  0  0  0  0  0
   13.4871   -3.3075    0.0000 C   0  0  0  0  0  0  0  0  0  0  0  0
   12.2736   -2.4258    0.0000 C   0  0  0  0  0  0  0  0  0  0  0  0
   12.4304   -0.9340    0.0000 O   0  0  0  0  0  0  0  0  0  0  0  0
   13.8007   -0.3239    0.0000 C   0  0  0  0  0  0  0  0  0  0  0  0
   15.1710    0.2862    0.0000 F   0  0  0  0  0  0  0  0  0  0  0  0
   13.1906    1.0464    0.0000 F   0  0  0  0  0  0  0  0  0  0  0  0
   14.4108   -1.6942    0.0000 F   0  0  0  0  0  0  0  0  0  0  0  0
   10.9033   -3.0359    0.0000 C   0  0  0  0  0  0  0  0  0  0  0  0
    0.7500   -1.2990    0.0000 C   0  0  0  0  0  0  0  0  0  0  0  0
    1.5000    0.0000    0.0000 C   0  0  0  0  0  0  0  0  0  0  0  0
    3.0000    0.0000    0.0000 N   0  0  0  0  0  0  0  0  0  0  0  0
    0.7500    1.2990    0.0000 N   0  0  0  0  0  0  0  0  0  0  0  0
   -0.7500    1.2990    0.0000 C   0  0  0  0  0  0  0  0  0  0  0  0
   -1.5000    0.0000    0.0000 N   0  0  0  0  0  0  0  0  0  0  0  0
   -0.7500   -1.2990    0.0000 C   0  0  0  0  0  0  0  0  0  0  0  0
  1  2  1  0
  2  3  1  0
  3  4  1  0
  4  5  2  0
  5  6  1  0
  6  7  2  0
  7  8  1  0
  8  9  2  0
  9 10  1  0
 10 11  2  0
 10 12  1  0
 12 13  1  0
 13 14  1  0
 14 15  1  0
 15 16  2  0
 15 17  1  0
 17 18  1  0
 18 19  2  0
 19 20  1  0
 20 21  2  0
 21 22  1  0
 22 23  1  0
 23 24  1  0
 24 25  1  0
 24 26  1  0
 24 27  1  0
 22 28  2  0
  5 29  1  0
 29 30  2  0
 30 31  1  0
 30 32  1  0
 32 33  2  0
 33 34  1  0
 34 35  2  0
 35  3  1  0
 11  6  1  0
 28 18  1  0
 35 29  1  0
 14  9  1  0
M  END
>  <Compound_ID>  (278) 
CHEMBL4281823

>  <Molecule Name>  (278) 
nan

>  <Molecular Weight>  (278) 
481.48

>  <AlogP>  (278) 
4.73

>  <Smiles>  (278) 
CCn1cc(-c2ccc3c(c2)CCN3C(=O)Cc2cccc(OC(F)(F)F)c2)c2c(N)ncnc21

>  <Standard Type>  (278) 
IC50

>  <Standard Relation>  (278) 
'='

>  <Standard Units>  (278) 
nM

>  <Standard Value>  (278) 
60.0

>  <Assay ChEMBL ID>  (278) 
CHEMBL4261420

>  <Assay Description>  (278) 
Inhibition of recombinant human Itk (352 to 617 residues) using myelin basic protein as substrate after 40 mins in presence of [gamma-33P]-ATP by scintillation counting analysis

>  <BAO Format ID>  (278) 
BAO_0000357

>  <BAO Label>  (278) 
single protein format

>  <Assay Organism>  (278) 
Homo sapiens

>  <Target ChEMBL ID>  (278) 
CHEMBL2959

>  <Target Name>  (278) 
Tyrosine-protein kinase ITK/TSK

>  <Target Organism>  (278) 
Homo sapiens

>  <Target Type>  (278) 
SINGLE PROTEIN

>  <Document ChEMBL ID>  (278) 
CHEMBL4257593

>  <Source Description>  (278) 
Scientific Literature

>  <Document Journal>  (278) 
J Med Chem

>  <Document Year>  (278) 
2018.0

>  <Active>  (278) 
1.0

$$$$

     RDKit          2D

 32 36  0  0  0  0  0  0  0  0999 V2000
  -13.1357   -0.3314    0.0000 N   0  0  0  0  0  0  0  0  0  0  0  0
  -11.7091   -0.7949    0.0000 C   0  0  0  0  0  0  0  0  0  0  0  0
  -10.2825   -1.2584    0.0000 C   0  0  0  0  0  0  0  0  0  0  0  0
   -9.1678   -0.2547    0.0000 C   0  0  0  0  0  0  0  0  0  0  0  0
   -7.7412   -0.7182    0.0000 C   0  0  0  0  0  0  0  0  0  0  0  0
   -7.4293   -2.1855    0.0000 C   0  0  0  0  0  0  0  0  0  0  0  0
   -8.5441   -3.1891    0.0000 C   0  0  0  0  0  0  0  0  0  0  0  0
   -8.2322   -4.6564    0.0000 C   0  0  0  0  0  0  0  0  0  0  0  0
   -6.8056   -5.1199    0.0000 N   0  0  0  0  0  0  0  0  0  0  0  0
   -5.5921   -4.2382    0.0000 C   0  0  0  0  0  0  0  0  0  0  0  0
   -4.3786   -5.1199    0.0000 C   0  0  0  0  0  0  0  0  0  0  0  0
   -2.9520   -4.6564    0.0000 N   0  0  0  0  0  0  0  0  0  0  0  0
   -2.6401   -3.1891    0.0000 C   0  0  0  0  0  0  0  0  0  0  0  0
   -3.7548   -2.1855    0.0000 O   0  0  0  0  0  0  0  0  0  0  0  0
   -1.2135   -2.7256    0.0000 C   0  0  0  0  0  0  0  0  0  0  0  0
   -0.0000   -3.6073    0.0000 N   0  0  0  0  0  0  0  0  0  0  0  0
    1.2135   -2.7256    0.0000 N   0  0  0  0  0  0  0  0  0  0  0  0
    0.7500   -1.2990    0.0000 C   0  0  0  0  0  0  0  0  0  0  0  0
    1.5000    0.0000    0.0000 C   0  0  0  0  0  0  0  0  0  0  0  0
    0.7500    1.2990    0.0000 C   0  0  0  0  0  0  0  0  0  0  0  0
    1.5000    2.5981    0.0000 C   0  0  0  0  0  0  0  0  0  0  0  0
    3.0000    2.5981    0.0000 C   0  0  0  0  0  0  0  0  0  0  0  0
    3.7500    3.8971    0.0000 C   0  0  0  0  0  0  0  0  0  0  0  0
    3.0000    5.1962    0.0000 C   0  0  0  0  0  0  0  0  0  0  0  0
    1.5000    5.1962    0.0000 N   0  0  0  0  0  0  0  0  0  0  0  0
    0.7500    3.8971    0.0000 C   0  0  0  0  0  0  0  0  0  0  0  0
   -0.7500    1.2990    0.0000 C   0  0  0  0  0  0  0  0  0  0  0  0
   -1.5000    0.0000    0.0000 C   0  0  0  0  0  0  0  0  0  0  0  0
   -0.7500   -1.2990    0.0000 C   0  0  0  0  0  0  0  0  0  0  0  0
   -4.8421   -6.5465    0.0000 C   0  0  0  0  0  0  0  0  0  0  0  0
   -6.3421   -6.5465    0.0000 N   0  0  0  0  0  0  0  0  0  0  0  0
   -9.9707   -2.7256    0.0000 C   0  0  0  0  0  0  0  0  0  0  0  0
  1  2  3  0
  2  3  1  0
  3  4  2  0
  4  5  1  0
  5  6  2  0
  6  7  1  0
  7  8  1  0
  8  9  1  0
  9 10  1  0
 10 11  2  0
 11 12  1  0
 12 13  1  0
 13 14  2  0
 13 15  1  0
 15 16  2  0
 16 17  1  0
 17 18  1  0
 18 19  2  0
 19 20  1  0
 20 21  1  0
 21 22  2  0
 22 23  1  0
 23 24  2  0
 24 25  1  0
 25 26  2  0
 20 27  2  0
 27 28  1  0
 28 29  2  0
 11 30  1  0
 30 31  2  0
  7 32  2  0
 32  3  1  0
 31  9  1  0
 29 15  1  0
 29 18  1  0
 26 21  1  0
M  END
>  <Compound_ID>  (279) 
CHEMBL3262783

>  <Molecule Name>  (279) 
nan

>  <Molecular Weight>  (279) 
419.45

>  <AlogP>  (279) 
3.99

>  <Smiles>  (279) 
N#Cc1cccc(Cn2cc(NC(=O)c3n[nH]c4cc(-c5cccnc5)ccc34)cn2)c1

>  <Standard Type>  (279) 
Ki

>  <Standard Relation>  (279) 
'='

>  <Standard Units>  (279) 
nM

>  <Standard Value>  (279) 
10.0

>  <Assay ChEMBL ID>  (279) 
CHEMBL3267591

>  <Assay Description>  (279) 
Inhibition of full-length ITK (unknown origin) using biotin-EQEDEPEGIYGVLF-NH2 as substrate by plate reader analysis

>  <BAO Format ID>  (279) 
BAO_0000357

>  <BAO Label>  (279) 
single protein format

>  <Assay Organism>  (279) 
Homo sapiens

>  <Target ChEMBL ID>  (279) 
CHEMBL2959

>  <Target Name>  (279) 
Tyrosine-protein kinase ITK/TSK

>  <Target Organism>  (279) 
Homo sapiens

>  <Target Type>  (279) 
SINGLE PROTEIN

>  <Document ChEMBL ID>  (279) 
CHEMBL3259776

>  <Source Description>  (279) 
Scientific Literature

>  <Document Journal>  (279) 
Bioorg Med Chem Lett

>  <Document Year>  (279) 
2014.0

>  <Active>  (279) 
1.0

$$$$

     RDKit          2D

 26 29  0  0  0  0  0  0  0  0999 V2000
   -9.9707   -2.7256    0.0000 C   0  0  0  0  0  0  0  0  0  0  0  0
   -8.5441   -3.1891    0.0000 C   0  0  0  0  0  0  0  0  0  0  0  0
   -8.2322   -4.6564    0.0000 C   0  0  0  0  0  0  0  0  0  0  0  0
   -9.3469   -5.6601    0.0000 C   0  0  0  0  0  0  0  0  0  0  0  0
  -10.7735   -5.1965    0.0000 C   0  0  0  0  0  0  0  0  0  0  0  0
  -11.8882   -6.2002    0.0000 C   0  0  0  0  0  0  0  0  0  0  0  0
  -11.5764   -7.6675    0.0000 C   0  0  0  0  0  0  0  0  0  0  0  0
  -10.1498   -8.1310    0.0000 C   0  0  0  0  0  0  0  0  0  0  0  0
   -9.0350   -7.1273    0.0000 C   0  0  0  0  0  0  0  0  0  0  0  0
   -6.8056   -5.1199    0.0000 N   0  0  0  0  0  0  0  0  0  0  0  0
   -5.5921   -4.2382    0.0000 C   0  0  0  0  0  0  0  0  0  0  0  0
   -4.3786   -5.1199    0.0000 C   0  0  0  0  0  0  0  0  0  0  0  0
   -2.9520   -4.6564    0.0000 N   0  0  0  0  0  0  0  0  0  0  0  0
   -2.6401   -3.1891    0.0000 C   0  0  0  0  0  0  0  0  0  0  0  0
   -3.7548   -2.1855    0.0000 O   0  0  0  0  0  0  0  0  0  0  0  0
   -1.2135   -2.7256    0.0000 C   0  0  0  0  0  0  0  0  0  0  0  0
   -0.0000   -3.6073    0.0000 N   0  0  0  0  0  0  0  0  0  0  0  0
    1.2135   -2.7256    0.0000 N   0  0  0  0  0  0  0  0  0  0  0  0
    0.7500   -1.2990    0.0000 C   0  0  0  0  0  0  0  0  0  0  0  0
    1.5000    0.0000    0.0000 C   0  0  0  0  0  0  0  0  0  0  0  0
    0.7500    1.2990    0.0000 C   0  0  0  0  0  0  0  0  0  0  0  0
   -0.7500    1.2990    0.0000 C   0  0  0  0  0  0  0  0  0  0  0  0
   -1.5000    0.0000    0.0000 C   0  0  0  0  0  0  0  0  0  0  0  0
   -0.7500   -1.2990    0.0000 C   0  0  0  0  0  0  0  0  0  0  0  0
   -4.8421   -6.5465    0.0000 C   0  0  0  0  0  0  0  0  0  0  0  0
   -6.3421   -6.5465    0.0000 N   0  0  0  0  0  0  0  0  0  0  0  0
  1  2  1  0
  3  2  1  6
  3  4  1  0
  4  5  2  0
  5  6  1  0
  6  7  2  0
  7  8  1  0
  8  9  2  0
  3 10  1  0
 10 11  1  0
 11 12  2  0
 12 13  1  0
 13 14  1  0
 14 15  2  0
 14 16  1  0
 16 17  2  0
 17 18  1  0
 18 19  1  0
 19 20  2  0
 20 21  1  0
 21 22  2  0
 22 23  1  0
 23 24  2  0
 12 25  1  0
 25 26  2  0
  9  4  1  0
 26 10  1  0
 24 16  1  0
 24 19  1  0
M  END
>  <Compound_ID>  (280) 
CHEMBL3263044

>  <Molecule Name>  (280) 
nan

>  <Molecular Weight>  (280) 
345.41

>  <AlogP>  (280) 
4.01

>  <Smiles>  (280) 
CC[C@@H](c1ccccc1)n1cc(NC(=O)c2n[nH]c3ccccc23)cn1

>  <Standard Type>  (280) 
Ki

>  <Standard Relation>  (280) 
'='

>  <Standard Units>  (280) 
nM

>  <Standard Value>  (280) 
11.0

>  <Assay ChEMBL ID>  (280) 
CHEMBL3267591

>  <Assay Description>  (280) 
Inhibition of full-length ITK (unknown origin) using biotin-EQEDEPEGIYGVLF-NH2 as substrate by plate reader analysis

>  <BAO Format ID>  (280) 
BAO_0000357

>  <BAO Label>  (280) 
single protein format

>  <Assay Organism>  (280) 
Homo sapiens

>  <Target ChEMBL ID>  (280) 
CHEMBL2959

>  <Target Name>  (280) 
Tyrosine-protein kinase ITK/TSK

>  <Target Organism>  (280) 
Homo sapiens

>  <Target Type>  (280) 
SINGLE PROTEIN

>  <Document ChEMBL ID>  (280) 
CHEMBL3259776

>  <Source Description>  (280) 
Scientific Literature

>  <Document Journal>  (280) 
Bioorg Med Chem Lett

>  <Document Year>  (280) 
2014.0

>  <Active>  (280) 
1.0

$$$$

     RDKit          2D

 34 38  0  0  0  0  0  0  0  0999 V2000
  -11.7091   -0.7949    0.0000 C   0  0  0  0  0  0  0  0  0  0  0  0
  -10.2825   -1.2584    0.0000 N   0  0  0  0  0  0  0  0  0  0  0  0
   -9.1678   -0.2547    0.0000 C   0  0  0  0  0  0  0  0  0  0  0  0
   -9.9707   -2.7256    0.0000 C   0  0  0  0  0  0  0  0  0  0  0  0
   -8.5441   -3.1891    0.0000 C   0  0  0  0  0  0  0  0  0  0  0  0
   -8.2322   -4.6564    0.0000 C   0  0  0  0  0  0  0  0  0  0  0  0
   -9.3469   -5.6601    0.0000 C   0  0  0  0  0  0  0  0  0  0  0  0
  -10.7735   -5.1965    0.0000 C   0  0  0  0  0  0  0  0  0  0  0  0
  -11.8882   -6.2002    0.0000 C   0  0  0  0  0  0  0  0  0  0  0  0
  -11.5764   -7.6675    0.0000 C   0  0  0  0  0  0  0  0  0  0  0  0
  -10.1498   -8.1310    0.0000 C   0  0  0  0  0  0  0  0  0  0  0  0
   -9.0350   -7.1273    0.0000 C   0  0  0  0  0  0  0  0  0  0  0  0
   -6.8056   -5.1199    0.0000 N   0  0  0  0  0  0  0  0  0  0  0  0
   -5.5921   -4.2382    0.0000 C   0  0  0  0  0  0  0  0  0  0  0  0
   -4.3786   -5.1199    0.0000 C   0  0  0  0  0  0  0  0  0  0  0  0
   -2.9520   -4.6564    0.0000 N   0  0  0  0  0  0  0  0  0  0  0  0
   -2.6401   -3.1891    0.0000 C   0  0  0  0  0  0  0  0  0  0  0  0
   -3.7548   -2.1855    0.0000 O   0  0  0  0  0  0  0  0  0  0  0  0
   -1.2135   -2.7256    0.0000 C   0  0  0  0  0  0  0  0  0  0  0  0
   -0.0000   -3.6073    0.0000 N   0  0  0  0  0  0  0  0  0  0  0  0
    1.2135   -2.7256    0.0000 N   0  0  0  0  0  0  0  0  0  0  0  0
    0.7500   -1.2990    0.0000 C   0  0  0  0  0  0  0  0  0  0  0  0
    1.5000    0.0000    0.0000 C   0  0  0  0  0  0  0  0  0  0  0  0
    0.7500    1.2990    0.0000 C   0  0  0  0  0  0  0  0  0  0  0  0
    1.5000    2.5981    0.0000 C   0  0  0  0  0  0  0  0  0  0  0  0
    0.8899    3.9684    0.0000 C   0  0  0  0  0  0  0  0  0  0  0  0
    2.0046    4.9721    0.0000 N   0  0  0  0  0  0  0  0  0  0  0  0
    3.3037    4.2221    0.0000 N   0  0  0  0  0  0  0  0  0  0  0  0
    2.9918    2.7549    0.0000 C   0  0  0  0  0  0  0  0  0  0  0  0
   -0.7500    1.2990    0.0000 C   0  0  0  0  0  0  0  0  0  0  0  0
   -1.5000    0.0000    0.0000 C   0  0  0  0  0  0  0  0  0  0  0  0
   -0.7500   -1.2990    0.0000 C   0  0  0  0  0  0  0  0  0  0  0  0
   -4.8421   -6.5465    0.0000 C   0  0  0  0  0  0  0  0  0  0  0  0
   -6.3421   -6.5465    0.0000 N   0  0  0  0  0  0  0  0  0  0  0  0
  1  2  1  0
  2  3  1  0
  2  4  1  0
  4  5  1  0
  6  5  1  1
  6  7  1  0
  7  8  2  0
  8  9  1  0
  9 10  2  0
 10 11  1  0
 11 12  2  0
  6 13  1  0
 13 14  1  0
 14 15  2  0
 15 16  1  0
 16 17  1  0
 17 18  2  0
 17 19  1  0
 19 20  2  0
 20 21  1  0
 21 22  1  0
 22 23  2  0
 23 24  1  0
 24 25  1  0
 25 26  1  0
 26 27  2  0
 27 28  1  0
 28 29  1  0
 24 30  2  0
 30 31  1  0
 31 32  2  0
 15 33  1  0
 33 34  2  0
 12  7  1  0
 34 13  1  0
 32 19  1  0
 32 22  1  0
 29 25  2  0
M  END
>  <Compound_ID>  (281) 
CHEMBL3263052

>  <Molecule Name>  (281) 
nan

>  <Molecular Weight>  (281) 
454.54

>  <AlogP>  (281) 
3.94

>  <Smiles>  (281) 
CN(C)CC[C@H](c1ccccc1)n1cc(NC(=O)c2n[nH]c3cc(-c4cn[nH]c4)ccc23)cn1

>  <Standard Type>  (281) 
Ki

>  <Standard Relation>  (281) 
'='

>  <Standard Units>  (281) 
nM

>  <Standard Value>  (281) 
0.93

>  <Assay ChEMBL ID>  (281) 
CHEMBL3267591

>  <Assay Description>  (281) 
Inhibition of full-length ITK (unknown origin) using biotin-EQEDEPEGIYGVLF-NH2 as substrate by plate reader analysis

>  <BAO Format ID>  (281) 
BAO_0000357

>  <BAO Label>  (281) 
single protein format

>  <Assay Organism>  (281) 
Homo sapiens

>  <Target ChEMBL ID>  (281) 
CHEMBL2959

>  <Target Name>  (281) 
Tyrosine-protein kinase ITK/TSK

>  <Target Organism>  (281) 
Homo sapiens

>  <Target Type>  (281) 
SINGLE PROTEIN

>  <Document ChEMBL ID>  (281) 
CHEMBL3259776

>  <Source Description>  (281) 
Scientific Literature

>  <Document Journal>  (281) 
Bioorg Med Chem Lett

>  <Document Year>  (281) 
2014.0

>  <Active>  (281) 
1.0

$$$$

     RDKit          2D

 40 44  0  0  0  0  0  0  0  0999 V2000
    0.2010   -3.3481    0.0000 O   0  0  0  0  0  0  0  0  0  0  0  0
    1.5000   -2.5981    0.0000 S   0  0  0  0  0  0  0  0  0  0  0  0
    2.7990   -1.8481    0.0000 O   0  0  0  0  0  0  0  0  0  0  0  0
    0.7500   -1.2990    0.0000 C   0  0  0  0  0  0  0  0  0  0  0  0
    1.5000    0.0000    0.0000 C   0  0  0  0  0  0  0  0  0  0  0  0
    0.7500    1.2990    0.0000 C   0  0  0  0  0  0  0  0  0  0  0  0
   -0.7500    1.2990    0.0000 C   0  0  0  0  0  0  0  0  0  0  0  0
   -1.5000    0.0000    0.0000 C   0  0  0  0  0  0  0  0  0  0  0  0
   -0.7500   -1.2990    0.0000 C   0  0  0  0  0  0  0  0  0  0  0  0
    2.2500   -3.8971    0.0000 C   0  0  0  0  0  0  0  0  0  0  0  0
    1.5000   -5.1962    0.0000 C   0  0  0  0  0  0  0  0  0  0  0  0
    2.2500   -6.4952    0.0000 C   0  0  0  0  0  0  0  0  0  0  0  0
    1.5000   -7.7942    0.0000 N   0  0  0  0  0  0  0  0  0  0  0  0
    0.0000   -7.7942    0.0000 C   0  0  0  0  0  0  0  0  0  0  0  0
   -0.8817   -9.0078    0.0000 C   0  0  0  0  0  0  0  0  0  0  0  0
   -2.3083   -8.5442    0.0000 C   0  0  0  0  0  0  0  0  0  0  0  0
   -3.5218   -9.4259    0.0000 C   0  0  0  0  0  0  0  0  0  0  0  0
   -4.8921   -8.8158    0.0000 C   0  0  0  0  0  0  0  0  0  0  0  0
   -6.1056   -9.6975    0.0000 C   0  0  0  0  0  0  0  0  0  0  0  0
   -5.9488  -11.1893    0.0000 C   0  0  0  0  0  0  0  0  0  0  0  0
   -7.1624  -12.0709    0.0000 O   0  0  0  0  0  0  0  0  0  0  0  0
   -8.5327  -11.4608    0.0000 C   0  0  0  0  0  0  0  0  0  0  0  0
   -9.9030  -10.8507    0.0000 F   0  0  0  0  0  0  0  0  0  0  0  0
   -9.1428  -12.8312    0.0000 F   0  0  0  0  0  0  0  0  0  0  0  0
   -7.9226  -10.0905    0.0000 F   0  0  0  0  0  0  0  0  0  0  0  0
   -4.5785  -11.7994    0.0000 C   0  0  0  0  0  0  0  0  0  0  0  0
   -3.3650  -10.9177    0.0000 C   0  0  0  0  0  0  0  0  0  0  0  0
   -2.3083   -7.0442    0.0000 N   0  0  0  0  0  0  0  0  0  0  0  0
   -0.8817   -6.5807    0.0000 N   0  0  0  0  0  0  0  0  0  0  0  0
    3.7500   -6.4952    0.0000 N   0  0  0  0  0  0  0  0  0  0  0  0
    4.5000   -5.1962    0.0000 C   0  0  0  0  0  0  0  0  0  0  0  0
    6.0000   -5.1962    0.0000 N   0  0  0  0  0  0  0  0  0  0  0  0
    6.7500   -6.4952    0.0000 C   0  0  0  0  0  0  0  0  0  0  0  0
    6.0000   -7.7942    0.0000 C   0  0  0  0  0  0  0  0  0  0  0  0
    6.7500   -9.0933    0.0000 C   0  0  0  0  0  0  0  0  0  0  0  0
    8.2500   -9.0933    0.0000 C   0  0  0  0  0  0  0  0  0  0  0  0
    9.0000  -10.3923    0.0000 O   0  0  0  0  0  0  0  0  0  0  0  0
    9.0000   -7.7942    0.0000 C   0  0  0  0  0  0  0  0  0  0  0  0
    8.2500   -6.4952    0.0000 C   0  0  0  0  0  0  0  0  0  0  0  0
    3.7500   -3.8971    0.0000 C   0  0  0  0  0  0  0  0  0  0  0  0
  1  2  2  0
  2  3  2  0
  2  4  1  0
  4  5  2  0
  5  6  1  0
  6  7  2  0
  7  8  1  0
  8  9  2  0
  2 10  1  0
 10 11  2  0
 11 12  1  0
 12 13  1  0
 13 14  1  0
 14 15  1  0
 15 16  2  0
 16 17  1  0
 17 18  2  0
 18 19  1  0
 19 20  2  0
 20 21  1  0
 21 22  1  0
 22 23  1  0
 22 24  1  0
 22 25  1  0
 20 26  1  0
 26 27  2  0
 16 28  1  0
 28 29  1  0
 12 30  2  0
 30 31  1  0
 31 32  1  0
 33 32  1  6
 33 34  1  0
 34 35  1  0
 35 36  1  0
 36 37  1  1
 36 38  1  0
 38 39  1  0
 31 40  2  0
  9  4  1  0
 40 10  1  0
 29 14  2  0
 39 33  1  0
 27 17  1  0
M  END
>  <Compound_ID>  (282) 
CHEMBL3355735

>  <Molecule Name>  (282) 
nan

>  <Molecular Weight>  (282) 
573.6

>  <AlogP>  (282) 
5.66

>  <Smiles>  (282) 
O=S(=O)(c1ccccc1)c1cc(Nc2cc(-c3ccc(OC(F)(F)F)cc3)[nH]n2)nc(N[C@H]2CC[C@H](O)CC2)c1

>  <Standard Type>  (282) 
Ki

>  <Standard Relation>  (282) 
'='

>  <Standard Units>  (282) 
nM

>  <Standard Value>  (282) 
61.0

>  <Assay ChEMBL ID>  (282) 
CHEMBL3389531

>  <Assay Description>  (282) 
Inhibition of GST-tagged full-length ITK (unknown origin) using Ac-EFPIYDFLPAKKK-NH2 as substrate after 35 mins by LC/MS analysis

>  <BAO Format ID>  (282) 
BAO_0000357

>  <BAO Label>  (282) 
single protein format

>  <Assay Organism>  (282) 
Homo sapiens

>  <Target ChEMBL ID>  (282) 
CHEMBL2959

>  <Target Name>  (282) 
Tyrosine-protein kinase ITK/TSK

>  <Target Organism>  (282) 
Homo sapiens

>  <Target Type>  (282) 
SINGLE PROTEIN

>  <Document ChEMBL ID>  (282) 
CHEMBL3352735

>  <Source Description>  (282) 
Scientific Literature

>  <Document Journal>  (282) 
Bioorg Med Chem Lett

>  <Document Year>  (282) 
2014.0

>  <Active>  (282) 
1.0

$$$$

     RDKit          2D

 33 37  0  0  0  0  0  0  0  0999 V2000
    0.2010   -3.3481    0.0000 O   0  0  0  0  0  0  0  0  0  0  0  0
    1.5000   -2.5981    0.0000 S   0  0  0  0  0  0  0  0  0  0  0  0
    2.7990   -1.8481    0.0000 O   0  0  0  0  0  0  0  0  0  0  0  0
    0.7500   -1.2990    0.0000 C   0  0  0  0  0  0  0  0  0  0  0  0
    1.5000    0.0000    0.0000 C   0  0  0  0  0  0  0  0  0  0  0  0
    0.7500    1.2990    0.0000 C   0  0  0  0  0  0  0  0  0  0  0  0
   -0.7500    1.2990    0.0000 C   0  0  0  0  0  0  0  0  0  0  0  0
   -1.5000    0.0000    0.0000 C   0  0  0  0  0  0  0  0  0  0  0  0
   -0.7500   -1.2990    0.0000 C   0  0  0  0  0  0  0  0  0  0  0  0
    2.2500   -3.8971    0.0000 C   0  0  0  0  0  0  0  0  0  0  0  0
    1.5000   -5.1962    0.0000 C   0  0  0  0  0  0  0  0  0  0  0  0
    2.2500   -6.4952    0.0000 C   0  0  0  0  0  0  0  0  0  0  0  0
    1.5000   -7.7942    0.0000 N   0  0  0  0  0  0  0  0  0  0  0  0
    0.0000   -7.7942    0.0000 C   0  0  0  0  0  0  0  0  0  0  0  0
   -0.8817   -9.0078    0.0000 C   0  0  0  0  0  0  0  0  0  0  0  0
   -2.3083   -8.5442    0.0000 C   0  0  0  0  0  0  0  0  0  0  0  0
   -3.5218   -9.4259    0.0000 C   0  0  0  0  0  0  0  0  0  0  0  0
   -5.0033   -9.1913    0.0000 C   0  0  0  0  0  0  0  0  0  0  0  0
   -5.2380  -10.6728    0.0000 C   0  0  0  0  0  0  0  0  0  0  0  0
   -3.7564  -10.9074    0.0000 C   0  0  0  0  0  0  0  0  0  0  0  0
   -2.3083   -7.0442    0.0000 N   0  0  0  0  0  0  0  0  0  0  0  0
   -0.8817   -6.5807    0.0000 N   0  0  0  0  0  0  0  0  0  0  0  0
    3.7500   -6.4952    0.0000 N   0  0  0  0  0  0  0  0  0  0  0  0
    4.5000   -5.1962    0.0000 C   0  0  0  0  0  0  0  0  0  0  0  0
    6.0000   -5.1962    0.0000 N   0  0  0  0  0  0  0  0  0  0  0  0
    6.7500   -6.4952    0.0000 C   0  0  0  0  0  0  0  0  0  0  0  0
    6.0000   -7.7942    0.0000 C   0  0  0  0  0  0  0  0  0  0  0  0
    6.7500   -9.0933    0.0000 C   0  0  0  0  0  0  0  0  0  0  0  0
    8.2500   -9.0933    0.0000 C   0  0  0  0  0  0  0  0  0  0  0  0
    9.0000  -10.3923    0.0000 O   0  0  0  0  0  0  0  0  0  0  0  0
    9.0000   -7.7942    0.0000 C   0  0  0  0  0  0  0  0  0  0  0  0
    8.2500   -6.4952    0.0000 C   0  0  0  0  0  0  0  0  0  0  0  0
    3.7500   -3.8971    0.0000 C   0  0  0  0  0  0  0  0  0  0  0  0
  1  2  2  0
  2  3  2  0
  2  4  1  0
  4  5  2  0
  5  6  1  0
  6  7  2  0
  7  8  1  0
  8  9  2  0
  2 10  1  0
 10 11  2  0
 11 12  1  0
 12 13  1  0
 13 14  1  0
 14 15  1  0
 15 16  2  0
 16 17  1  0
 17 18  1  0
 18 19  1  0
 19 20  1  0
 16 21  1  0
 21 22  1  0
 12 23  2  0
 23 24  1  0
 24 25  1  0
 26 25  1  6
 26 27  1  0
 27 28  1  0
 28 29  1  0
 29 30  1  1
 29 31  1  0
 31 32  1  0
 24 33  2  0
  9  4  1  0
 33 10  1  0
 22 14  2  0
 32 26  1  0
 20 17  1  0
M  END
>  <Compound_ID>  (283) 
CHEMBL3355736

>  <Molecule Name>  (283) 
nan

>  <Molecular Weight>  (283) 
467.6

>  <AlogP>  (283) 
4.36

>  <Smiles>  (283) 
O=S(=O)(c1ccccc1)c1cc(Nc2cc(C3CCC3)[nH]n2)nc(N[C@H]2CC[C@H](O)CC2)c1

>  <Standard Type>  (283) 
Ki

>  <Standard Relation>  (283) 
'='

>  <Standard Units>  (283) 
nM

>  <Standard Value>  (283) 
1.6

>  <Assay ChEMBL ID>  (283) 
CHEMBL3389531

>  <Assay Description>  (283) 
Inhibition of GST-tagged full-length ITK (unknown origin) using Ac-EFPIYDFLPAKKK-NH2 as substrate after 35 mins by LC/MS analysis

>  <BAO Format ID>  (283) 
BAO_0000357

>  <BAO Label>  (283) 
single protein format

>  <Assay Organism>  (283) 
Homo sapiens

>  <Target ChEMBL ID>  (283) 
CHEMBL2959

>  <Target Name>  (283) 
Tyrosine-protein kinase ITK/TSK

>  <Target Organism>  (283) 
Homo sapiens

>  <Target Type>  (283) 
SINGLE PROTEIN

>  <Document ChEMBL ID>  (283) 
CHEMBL3352735

>  <Source Description>  (283) 
Scientific Literature

>  <Document Journal>  (283) 
Bioorg Med Chem Lett

>  <Document Year>  (283) 
2014.0

>  <Active>  (283) 
1.0

$$$$

     RDKit          2D

 36 40  0  0  0  0  0  0  0  0999 V2000
    3.7500   -1.2990    0.0000 C   0  0  0  0  0  0  0  0  0  0  0  0
    3.0000    0.0000    0.0000 O   0  0  0  0  0  0  0  0  0  0  0  0
    1.5000    0.0000    0.0000 C   0  0  0  0  0  0  0  0  0  0  0  0
    0.7500   -1.2990    0.0000 C   0  0  0  0  0  0  0  0  0  0  0  0
   -0.7500   -1.2990    0.0000 C   0  0  0  0  0  0  0  0  0  0  0  0
   -1.5000    0.0000    0.0000 C   0  0  0  0  0  0  0  0  0  0  0  0
   -2.9672    0.3119    0.0000 N   0  0  0  0  0  0  0  0  0  0  0  0
   -3.1240    1.8037    0.0000 C   0  0  0  0  0  0  0  0  0  0  0  0
   -4.4231    2.5537    0.0000 N   0  0  0  0  0  0  0  0  0  0  0  0
   -4.4231    4.0537    0.0000 C   0  0  0  0  0  0  0  0  0  0  0  0
   -3.1240    4.8037    0.0000 C   0  0  0  0  0  0  0  0  0  0  0  0
   -3.1240    6.3037    0.0000 C   0  0  0  0  0  0  0  0  0  0  0  0
   -1.8250    7.0537    0.0000 C   0  0  0  0  0  0  0  0  0  0  0  0
   -2.5750    8.3527    0.0000 F   0  0  0  0  0  0  0  0  0  0  0  0
   -1.0750    5.7546    0.0000 F   0  0  0  0  0  0  0  0  0  0  0  0
   -0.5259    7.8037    0.0000 C   0  0  0  0  0  0  0  0  0  0  0  0
    0.7731    7.0537    0.0000 C   0  0  0  0  0  0  0  0  0  0  0  0
    2.0721    7.8037    0.0000 C   0  0  0  0  0  0  0  0  0  0  0  0
    2.0721    9.3037    0.0000 C   0  0  0  0  0  0  0  0  0  0  0  0
    3.3712   10.0537    0.0000 F   0  0  0  0  0  0  0  0  0  0  0  0
    0.7731   10.0537    0.0000 C   0  0  0  0  0  0  0  0  0  0  0  0
   -0.5259    9.3037    0.0000 C   0  0  0  0  0  0  0  0  0  0  0  0
   -4.4231    7.0537    0.0000 N   0  0  0  0  0  0  0  0  0  0  0  0
   -5.7221    6.3037    0.0000 C   0  0  0  0  0  0  0  0  0  0  0  0
   -7.0211    7.0537    0.0000 N   0  0  0  0  0  0  0  0  0  0  0  0
   -7.0211    8.5537    0.0000 C   0  0  0  0  0  0  0  0  0  0  0  0
   -5.7221    9.3037    0.0000 C   0  0  0  0  0  0  0  0  0  0  0  0
   -5.7221   10.8037    0.0000 C   0  0  0  0  0  0  0  0  0  0  0  0
   -7.0211   11.5537    0.0000 C   0  0  0  0  0  0  0  0  0  0  0  0
   -7.0211   13.0537    0.0000 O   0  0  0  0  0  0  0  0  0  0  0  0
   -8.3202   10.8037    0.0000 C   0  0  0  0  0  0  0  0  0  0  0  0
   -8.3202    9.3037    0.0000 C   0  0  0  0  0  0  0  0  0  0  0  0
   -5.7221    4.8037    0.0000 N   0  0  0  0  0  0  0  0  0  0  0  0
   -1.7537    2.4138    0.0000 S   0  0  0  0  0  0  0  0  0  0  0  0
   -0.7500    1.2990    0.0000 C   0  0  0  0  0  0  0  0  0  0  0  0
    0.7500    1.2990    0.0000 N   0  0  0  0  0  0  0  0  0  0  0  0
  1  2  1  0
  2  3  1  0
  3  4  2  0
  4  5  1  0
  5  6  2  0
  6  7  1  0
  7  8  2  0
  8  9  1  0
  9 10  1  0
 10 11  2  0
 11 12  1  0
 12 13  1  0
 13 14  1  0
 13 15  1  0
 13 16  1  0
 16 17  2  0
 17 18  1  0
 18 19  2  0
 19 20  1  0
 19 21  1  0
 21 22  2  0
 12 23  2  0
 23 24  1  0
 24 25  1  0
 26 25  1  6
 26 27  1  0
 27 28  1  0
 28 29  1  0
 29 30  1  1
 29 31  1  0
 31 32  1  0
 24 33  2  0
  8 34  1  0
 34 35  1  0
 35 36  2  0
 36  3  1  0
 35  6  1  0
 33 10  1  0
 22 16  1  0
 32 26  1  0
M  END
>  <Compound_ID>  (284) 
CHEMBL2441285

>  <Molecule Name>  (284) 
nan

>  <Molecular Weight>  (284) 
516.55

>  <AlogP>  (284) 
5.23

>  <Smiles>  (284) 
COc1ccc2nc(Nc3cc(C(F)(F)c4ccc(F)cc4)nc(N[C@H]4CC[C@H](O)CC4)n3)sc2n1

>  <Standard Type>  (284) 
Ki

>  <Standard Relation>  (284) 
'='

>  <Standard Units>  (284) 
nM

>  <Standard Value>  (284) 
15.85

>  <Assay ChEMBL ID>  (284) 
CHEMBL2446687

>  <Assay Description>  (284) 
Inhibition of recombinant human FLAG-tagged ITK using biotinylated GST-SAM68 as substrate after 30 mins

>  <BAO Format ID>  (284) 
BAO_0000357

>  <BAO Label>  (284) 
single protein format

>  <Assay Organism>  (284) 
Homo sapiens

>  <Target ChEMBL ID>  (284) 
CHEMBL2959

>  <Target Name>  (284) 
Tyrosine-protein kinase ITK/TSK

>  <Target Organism>  (284) 
Homo sapiens

>  <Target Type>  (284) 
SINGLE PROTEIN

>  <Document ChEMBL ID>  (284) 
CHEMBL2440060

>  <Source Description>  (284) 
Scientific Literature

>  <Document Journal>  (284) 
ACS Med Chem Lett

>  <Document Year>  (284) 
2013.0

>  <Active>  (284) 
1.0

$$$$

     RDKit          2D

 26 29  0  0  0  0  0  0  0  0999 V2000
    2.6491    0.9642    0.0000 C   0  0  0  0  0  0  0  0  0  0  0  0
    1.5000    0.0000    0.0000 C   0  0  0  0  0  0  0  0  0  0  0  0
    2.6491   -0.9642    0.0000 C   0  0  0  0  0  0  0  0  0  0  0  0
    0.7500   -1.2990    0.0000 C   0  0  0  0  0  0  0  0  0  0  0  0
   -0.7500   -1.2990    0.0000 C   0  0  0  0  0  0  0  0  0  0  0  0
   -1.5000    0.0000    0.0000 C   0  0  0  0  0  0  0  0  0  0  0  0
   -2.9672    0.3119    0.0000 N   0  0  0  0  0  0  0  0  0  0  0  0
   -3.1240    1.8037    0.0000 N   0  0  0  0  0  0  0  0  0  0  0  0
   -1.7537    2.4138    0.0000 C   0  0  0  0  0  0  0  0  0  0  0  0
   -1.4418    3.8810    0.0000 C   0  0  0  0  0  0  0  0  0  0  0  0
   -0.0152    4.3445    0.0000 O   0  0  0  0  0  0  0  0  0  0  0  0
   -2.5565    4.8847    0.0000 N   0  0  0  0  0  0  0  0  0  0  0  0
   -2.2447    6.3519    0.0000 C   0  0  0  0  0  0  0  0  0  0  0  0
   -3.2484    7.4666    0.0000 C   0  0  0  0  0  0  0  0  0  0  0  0
   -2.4984    8.7656    0.0000 N   0  0  0  0  0  0  0  0  0  0  0  0
   -1.0312    8.4538    0.0000 N   0  0  0  0  0  0  0  0  0  0  0  0
    0.0836    9.4575    0.0000 C   0  0  0  0  0  0  0  0  0  0  0  0
    1.5101    8.9940    0.0000 C   0  0  0  0  0  0  0  0  0  0  0  0
    1.8220    7.5267    0.0000 C   0  0  0  0  0  0  0  0  0  0  0  0
    3.2486    7.0632    0.0000 C   0  0  0  0  0  0  0  0  0  0  0  0
    4.3633    8.0669    0.0000 C   0  0  0  0  0  0  0  0  0  0  0  0
    4.0515    9.5341    0.0000 C   0  0  0  0  0  0  0  0  0  0  0  0
    2.6249    9.9976    0.0000 C   0  0  0  0  0  0  0  0  0  0  0  0
   -0.8744    6.9620    0.0000 C   0  0  0  0  0  0  0  0  0  0  0  0
   -0.7500    1.2990    0.0000 C   0  0  0  0  0  0  0  0  0  0  0  0
    0.7500    1.2990    0.0000 C   0  0  0  0  0  0  0  0  0  0  0  0
  1  2  1  0
  2  3  1  0
  2  4  1  0
  4  5  1  0
  5  6  1  0
  6  7  1  0
  7  8  1  0
  8  9  2  0
  9 10  1  0
 10 11  2  0
 10 12  1  0
 12 13  1  0
 13 14  1  0
 14 15  2  0
 15 16  1  0
 16 17  1  0
 17 18  1  0
 18 19  2  0
 19 20  1  0
 20 21  2  0
 21 22  1  0
 22 23  2  0
 16 24  1  0
  9 25  1  0
 25 26  1  0
 26  2  1  0
 25  6  2  0
 24 13  2  0
 23 18  1  0
M  END
>  <Compound_ID>  (285) 
CHEMBL3298289

>  <Molecule Name>  (285) 
nan

>  <Molecular Weight>  (285) 
349.44

>  <AlogP>  (285) 
3.42

>  <Smiles>  (285) 
CC1(C)CCc2[nH]nc(C(=O)Nc3cnn(Cc4ccccc4)c3)c2C1

>  <Standard Type>  (285) 
Ki

>  <Standard Relation>  (285) 
'='

>  <Standard Units>  (285) 
nM

>  <Standard Value>  (285) 
69.0

>  <Assay ChEMBL ID>  (285) 
CHEMBL3380548

>  <Assay Description>  (285) 
Inhibition of GST-tagged full length ITK (unknown origin) using BLK peptide as substrate after 35 mins

>  <BAO Format ID>  (285) 
BAO_0000357

>  <BAO Label>  (285) 
single protein format

>  <Assay Organism>  (285) 
Homo sapiens

>  <Target ChEMBL ID>  (285) 
CHEMBL2959

>  <Target Name>  (285) 
Tyrosine-protein kinase ITK/TSK

>  <Target Organism>  (285) 
Homo sapiens

>  <Target Type>  (285) 
SINGLE PROTEIN

>  <Document ChEMBL ID>  (285) 
CHEMBL3297697

>  <Source Description>  (285) 
Scientific Literature

>  <Document Journal>  (285) 
J Med Chem

>  <Document Year>  (285) 
2014.0

>  <Active>  (285) 
1.0

$$$$

     RDKit          2D

 33 38  0  0  0  0  0  0  0  0999 V2000
   -5.4122    9.0053    0.0000 C   0  0  0  0  0  0  0  0  0  0  0  0
   -5.7240    7.5381    0.0000 C   0  0  0  0  0  0  0  0  0  0  0  0
   -4.6093    6.5344    0.0000 C   0  0  0  0  0  0  0  0  0  0  0  0
   -4.9212    5.0672    0.0000 C   0  0  0  0  0  0  0  0  0  0  0  0
   -4.0395    3.8536    0.0000 N   0  0  0  0  0  0  0  0  0  0  0  0
   -4.9212    2.6401    0.0000 C   0  0  0  0  0  0  0  0  0  0  0  0
   -4.4577    1.2135    0.0000 C   0  0  0  0  0  0  0  0  0  0  0  0
   -5.3394   -0.0000    0.0000 N   0  0  0  0  0  0  0  0  0  0  0  0
   -4.4577   -1.2135    0.0000 N   0  0  0  0  0  0  0  0  0  0  0  0
   -3.0311   -0.7500    0.0000 C   0  0  0  0  0  0  0  0  0  0  0  0
   -3.0311    0.7500    0.0000 C   0  0  0  0  0  0  0  0  0  0  0  0
   -1.7321    1.5000    0.0000 C   0  0  0  0  0  0  0  0  0  0  0  0
   -0.4330    0.7500    0.0000 C   0  0  0  0  0  0  0  0  0  0  0  0
    0.8660    0.0000    0.0000 C   0  0  0  0  0  0  0  0  0  0  0  0
   -0.4330   -0.7500    0.0000 C   0  0  0  0  0  0  0  0  0  0  0  0
    0.3170   -2.0490    0.0000 C   0  0  0  0  0  0  0  0  0  0  0  0
   -1.7321   -1.5000    0.0000 C   0  0  0  0  0  0  0  0  0  0  0  0
   -6.3478    3.1036    0.0000 N   0  0  0  0  0  0  0  0  0  0  0  0
   -6.3478    4.6036    0.0000 C   0  0  0  0  0  0  0  0  0  0  0  0
   -7.4625    5.6073    0.0000 C   0  0  0  0  0  0  0  0  0  0  0  0
   -7.1506    7.0746    0.0000 C   0  0  0  0  0  0  0  0  0  0  0  0
   -8.2654    8.0782    0.0000 N   0  0  0  0  0  0  0  0  0  0  0  0
   -9.6919    7.6147    0.0000 C   0  0  0  0  0  0  0  0  0  0  0  0
   -7.9535    9.5455    0.0000 C   0  0  0  0  0  0  0  0  0  0  0  0
   -6.5269   10.0090    0.0000 O   0  0  0  0  0  0  0  0  0  0  0  0
   -9.0682   10.5492    0.0000 C   0  0  0  0  0  0  0  0  0  0  0  0
   -8.7563   12.0164    0.0000 C   0  0  0  0  0  0  0  0  0  0  0  0
  -10.4948   10.0856    0.0000 N   0  0  0  0  0  0  0  0  0  0  0  0
  -11.6095   11.0893    0.0000 C   0  0  0  0  0  0  0  0  0  0  0  0
  -13.0361   10.6258    0.0000 C   0  0  0  0  0  0  0  0  0  0  0  0
  -13.3480    9.1586    0.0000 O   0  0  0  0  0  0  0  0  0  0  0  0
  -12.2332    8.1549    0.0000 C   0  0  0  0  0  0  0  0  0  0  0  0
  -10.8067    8.6184    0.0000 C   0  0  0  0  0  0  0  0  0  0  0  0
  1  2  1  0
  2  3  2  0
  3  4  1  0
  4  5  1  0
  5  6  1  0
  6  7  1  0
  7  8  2  0
  8  9  1  0
  9 10  1  0
 10 11  2  0
 11 12  1  0
 13 12  1  6
 13 14  1  0
 14 15  1  0
 15 16  1  1
 15 17  1  0
  6 18  2  0
 18 19  1  0
 19 20  1  0
 20 21  2  0
 21 22  1  0
 22 23  1  0
 22 24  1  0
 24 25  2  0
 24 26  1  0
 26 27  1  1
 26 28  1  0
 28 29  1  0
 29 30  1  0
 30 31  1  0
 31 32  1  0
 32 33  1  0
 21  2  1  0
 33 28  1  0
 19  4  2  0
 11  7  1  0
 15 13  1  0
 17 10  1  0
M  END
>  <Compound_ID>  (286) 
CHEMBL5084598

>  <Molecule Name>  (286) 
nan

>  <Molecular Weight>  (286) 
448.57

>  <AlogP>  (286) 
3.07

>  <Smiles>  (286) 
Cc1cc2[nH]c(-c3n[nH]c4c3C[C@@H]3C[C@]3(C)C4)nc2cc1N(C)C(=O)[C@H](C)N1CCOCC1

>  <Standard Type>  (286) 
IC50

>  <Standard Relation>  (286) 
'='

>  <Standard Units>  (286) 
nM

>  <Standard Value>  (286) 
6.0

>  <Assay ChEMBL ID>  (286) 
CHEMBL5058465

>  <Assay Description>  (286) 
Inhibition of ITK (unknown origin) using BTK peptide as substrate preincubated for 30 mins followed by addition of substrate and measured after 60 mins by flourescence based plate reader assay

>  <BAO Format ID>  (286) 
BAO_0000357

>  <BAO Label>  (286) 
single protein format

>  <Assay Organism>  (286) 
Homo sapiens

>  <Target ChEMBL ID>  (286) 
CHEMBL2959

>  <Target Name>  (286) 
Tyrosine-protein kinase ITK/TSK

>  <Target Organism>  (286) 
Homo sapiens

>  <Target Type>  (286) 
SINGLE PROTEIN

>  <Document ChEMBL ID>  (286) 
CHEMBL5055688

>  <Source Description>  (286) 
Scientific Literature

>  <Document Journal>  (286) 
ACS Med Chem Lett

>  <Document Year>  (286) 
2021.0

>  <Active>  (286) 
1.0

$$$$

     RDKit          2D

 34 37  0  0  0  0  0  0  0  0999 V2000
    0.7500   -3.8971    0.0000 C   0  0  0  0  0  0  0  0  0  0  0  0
    1.5000   -2.5981    0.0000 N   0  0  0  0  0  0  0  0  0  0  0  0
    3.0000   -2.5981    0.0000 C   0  0  0  0  0  0  0  0  0  0  0  0
    3.7500   -1.2990    0.0000 O   0  0  0  0  0  0  0  0  0  0  0  0
    3.7500   -3.8971    0.0000 C   0  0  0  0  0  0  0  0  0  0  0  0
    3.0000   -5.1962    0.0000 C   0  0  0  0  0  0  0  0  0  0  0  0
    3.7500   -6.4952    0.0000 C   0  0  0  0  0  0  0  0  0  0  0  0
    5.2500   -6.4952    0.0000 C   0  0  0  0  0  0  0  0  0  0  0  0
    6.0000   -5.1962    0.0000 C   0  0  0  0  0  0  0  0  0  0  0  0
    5.2500   -3.8971    0.0000 C   0  0  0  0  0  0  0  0  0  0  0  0
    0.7500   -1.2990    0.0000 C   0  0  0  0  0  0  0  0  0  0  0  0
    1.5000    0.0000    0.0000 C   0  0  0  0  0  0  0  0  0  0  0  0
    0.7500    1.2990    0.0000 C   0  0  0  0  0  0  0  0  0  0  0  0
   -0.7500    1.2990    0.0000 C   0  0  0  0  0  0  0  0  0  0  0  0
   -1.5000    0.0000    0.0000 C   0  0  0  0  0  0  0  0  0  0  0  0
   -0.7500   -1.2990    0.0000 C   0  0  0  0  0  0  0  0  0  0  0  0
   -2.9672    0.3119    0.0000 N   0  0  0  0  0  0  0  0  0  0  0  0
   -3.1240    1.8037    0.0000 C   0  0  0  0  0  0  0  0  0  0  0  0
   -4.4231    2.5537    0.0000 N   0  0  0  0  0  0  0  0  0  0  0  0
   -4.4231    4.0537    0.0000 C   0  0  0  0  0  0  0  0  0  0  0  0
   -3.1240    4.8037    0.0000 O   0  0  0  0  0  0  0  0  0  0  0  0
   -5.7221    4.8037    0.0000 C   0  0  0  0  0  0  0  0  0  0  0  0
   -5.7221    6.3037    0.0000 C   0  0  0  0  0  0  0  0  0  0  0  0
   -7.0211    7.0537    0.0000 C   0  0  0  0  0  0  0  0  0  0  0  0
   -8.3202    6.3037    0.0000 C   0  0  0  0  0  0  0  0  0  0  0  0
   -9.6192    7.0537    0.0000 C   0  0  0  0  0  0  0  0  0  0  0  0
  -10.9182    7.8037    0.0000 N   0  0  0  0  0  0  0  0  0  0  0  0
   -8.3202    4.8037    0.0000 C   0  0  0  0  0  0  0  0  0  0  0  0
   -7.0211    4.0537    0.0000 C   0  0  0  0  0  0  0  0  0  0  0  0
   -1.7537    2.4138    0.0000 N   0  0  0  0  0  0  0  0  0  0  0  0
   -1.4418    3.8810    0.0000 C   0  0  0  0  0  0  0  0  0  0  0  0
   -0.0152    4.3445    0.0000 C   0  0  0  0  0  0  0  0  0  0  0  0
    0.2966    5.8117    0.0000 N   0  0  0  0  0  0  0  0  0  0  0  0
    1.0995    3.3408    0.0000 O   0  0  0  0  0  0  0  0  0  0  0  0
  1  2  1  0
  2  3  1  0
  3  4  2  0
  3  5  1  0
  5  6  1  0
  6  7  1  0
  7  8  1  0
  8  9  1  0
  9 10  1  0
  2 11  1  0
 11 12  2  0
 12 13  1  0
 13 14  2  0
 14 15  1  0
 15 16  2  0
 15 17  1  0
 17 18  2  0
 18 19  1  0
 19 20  1  0
 20 21  2  0
 20 22  1  0
 22 23  2  0
 23 24  1  0
 24 25  2  0
 25 26  1  0
 26 27  3  0
 25 28  1  0
 28 29  2  0
 18 30  1  0
 30 31  1  0
 31 32  1  0
 32 33  1  0
 32 34  2  0
 10  5  1  0
 16 11  1  0
 29 22  1  0
 30 14  1  0
M  END
>  <Compound_ID>  (287) 
CHEMBL484934

>  <Molecule Name>  (287) 
nan

>  <Molecular Weight>  (287) 
458.52

>  <AlogP>  (287) 
3.19

>  <Smiles>  (287) 
CN(C(=O)C1CCCCC1)c1ccc2c(c1)nc(NC(=O)c1ccc(C#N)cc1)n2CC(N)=O

>  <Standard Type>  (287) 
IC50

>  <Standard Relation>  (287) 
'='

>  <Standard Units>  (287) 
nM

>  <Standard Value>  (287) 
73.0

>  <Assay ChEMBL ID>  (287) 
CHEMBL992563

>  <Assay Description>  (287) 
Inhibition of ITK by DELFIA assay

>  <BAO Format ID>  (287) 
BAO_0000357

>  <BAO Label>  (287) 
single protein format

>  <Assay Organism>  (287) 
None

>  <Target ChEMBL ID>  (287) 
CHEMBL2959

>  <Target Name>  (287) 
Tyrosine-protein kinase ITK/TSK

>  <Target Organism>  (287) 
Homo sapiens

>  <Target Type>  (287) 
SINGLE PROTEIN

>  <Document ChEMBL ID>  (287) 
CHEMBL1142468

>  <Source Description>  (287) 
Scientific Literature

>  <Document Journal>  (287) 
Bioorg Med Chem Lett

>  <Document Year>  (287) 
2008.0

>  <Active>  (287) 
1.0

$$$$

     RDKit          2D

 35 38  0  0  0  0  0  0  0  0999 V2000
   -2.5981  -12.6073    0.0000 C   0  0  0  0  0  0  0  0  0  0  0  0
   -1.2990  -11.8573    0.0000 O   0  0  0  0  0  0  0  0  0  0  0  0
   -1.2990  -10.3573    0.0000 C   0  0  0  0  0  0  0  0  0  0  0  0
   -2.5981   -9.6073    0.0000 C   0  0  0  0  0  0  0  0  0  0  0  0
   -2.5981   -8.1073    0.0000 C   0  0  0  0  0  0  0  0  0  0  0  0
   -1.2990   -7.3573    0.0000 C   0  0  0  0  0  0  0  0  0  0  0  0
   -1.2990   -5.8573    0.0000 C   0  0  0  0  0  0  0  0  0  0  0  0
   -2.5981   -5.1073    0.0000 O   0  0  0  0  0  0  0  0  0  0  0  0
   -0.0000   -5.1073    0.0000 N   0  0  0  0  0  0  0  0  0  0  0  0
   -0.0000   -3.6073    0.0000 C   0  0  0  0  0  0  0  0  0  0  0  0
    1.2135   -2.7256    0.0000 N   0  0  0  0  0  0  0  0  0  0  0  0
    0.7500   -1.2990    0.0000 C   0  0  0  0  0  0  0  0  0  0  0  0
    1.5000    0.0000    0.0000 C   0  0  0  0  0  0  0  0  0  0  0  0
    0.7500    1.2990    0.0000 C   0  0  0  0  0  0  0  0  0  0  0  0
    1.5000    2.5981    0.0000 N   0  0  0  0  0  0  0  0  0  0  0  0
    3.0000    2.5981    0.0000 C   0  0  0  0  0  0  0  0  0  0  0  0
    0.7500    3.8971    0.0000 C   0  0  0  0  0  0  0  0  0  0  0  0
   -0.7500    3.8971    0.0000 O   0  0  0  0  0  0  0  0  0  0  0  0
    1.5000    5.1962    0.0000 C   0  0  0  0  0  0  0  0  0  0  0  0
    3.0000    5.1962    0.0000 C   0  0  0  0  0  0  0  0  0  0  0  0
    3.7500    6.4952    0.0000 C   0  0  0  0  0  0  0  0  0  0  0  0
    3.0000    7.7942    0.0000 C   0  0  0  0  0  0  0  0  0  0  0  0
    1.5000    7.7942    0.0000 C   0  0  0  0  0  0  0  0  0  0  0  0
    0.7500    6.4952    0.0000 C   0  0  0  0  0  0  0  0  0  0  0  0
   -0.7500    1.2990    0.0000 C   0  0  0  0  0  0  0  0  0  0  0  0
   -1.5000    0.0000    0.0000 C   0  0  0  0  0  0  0  0  0  0  0  0
   -0.7500   -1.2990    0.0000 C   0  0  0  0  0  0  0  0  0  0  0  0
   -1.2135   -2.7256    0.0000 N   0  0  0  0  0  0  0  0  0  0  0  0
   -2.6401   -3.1891    0.0000 C   0  0  0  0  0  0  0  0  0  0  0  0
   -3.7548   -2.1855    0.0000 C   0  0  0  0  0  0  0  0  0  0  0  0
   -5.1814   -2.6490    0.0000 C   0  0  0  0  0  0  0  0  0  0  0  0
   -6.2961   -1.6453    0.0000 N   0  0  0  0  0  0  0  0  0  0  0  0
   -5.4933   -4.1162    0.0000 O   0  0  0  0  0  0  0  0  0  0  0  0
    0.0000   -8.1073    0.0000 C   0  0  0  0  0  0  0  0  0  0  0  0
    0.0000   -9.6073    0.0000 C   0  0  0  0  0  0  0  0  0  0  0  0
  1  2  1  0
  2  3  1  0
  3  4  2  0
  4  5  1  0
  5  6  2  0
  6  7  1  0
  7  8  2  0
  7  9  1  0
  9 10  1  0
 10 11  2  0
 11 12  1  0
 12 13  2  0
 13 14  1  0
 14 15  1  0
 15 16  1  0
 15 17  1  0
 17 18  2  0
 17 19  1  0
 19 20  1  0
 20 21  1  0
 21 22  1  0
 22 23  1  0
 23 24  1  0
 14 25  2  0
 25 26  1  0
 26 27  2  0
 27 28  1  0
 28 29  1  0
 29 30  1  0
 30 31  1  0
 31 32  1  0
 31 33  2  0
  6 34  1  0
 34 35  2  0
 35  3  1  0
 28 10  1  0
 27 12  1  0
 24 19  1  0
M  END
>  <Compound_ID>  (288) 
CHEMBL484940

>  <Molecule Name>  (288) 
nan

>  <Molecular Weight>  (288) 
477.57

>  <AlogP>  (288) 
3.72

>  <Smiles>  (288) 
COc1ccc(C(=O)Nc2nc3cc(N(C)C(=O)C4CCCCC4)ccc3n2CCC(N)=O)cc1

>  <Standard Type>  (288) 
IC50

>  <Standard Relation>  (288) 
'='

>  <Standard Units>  (288) 
nM

>  <Standard Value>  (288) 
12.0

>  <Assay ChEMBL ID>  (288) 
CHEMBL992563

>  <Assay Description>  (288) 
Inhibition of ITK by DELFIA assay

>  <BAO Format ID>  (288) 
BAO_0000357

>  <BAO Label>  (288) 
single protein format

>  <Assay Organism>  (288) 
None

>  <Target ChEMBL ID>  (288) 
CHEMBL2959

>  <Target Name>  (288) 
Tyrosine-protein kinase ITK/TSK

>  <Target Organism>  (288) 
Homo sapiens

>  <Target Type>  (288) 
SINGLE PROTEIN

>  <Document ChEMBL ID>  (288) 
CHEMBL1142468

>  <Source Description>  (288) 
Scientific Literature

>  <Document Journal>  (288) 
Bioorg Med Chem Lett

>  <Document Year>  (288) 
2008.0

>  <Active>  (288) 
1.0

$$$$

     RDKit          2D

 36 39  0  0  0  0  0  0  0  0999 V2000
   -2.5981  -12.6073    0.0000 C   0  0  0  0  0  0  0  0  0  0  0  0
   -1.2990  -11.8573    0.0000 C   0  0  0  0  0  0  0  0  0  0  0  0
    0.0000  -12.6073    0.0000 O   0  0  0  0  0  0  0  0  0  0  0  0
   -1.2990  -10.3573    0.0000 C   0  0  0  0  0  0  0  0  0  0  0  0
   -2.5981   -9.6073    0.0000 C   0  0  0  0  0  0  0  0  0  0  0  0
   -2.5981   -8.1073    0.0000 C   0  0  0  0  0  0  0  0  0  0  0  0
   -1.2990   -7.3573    0.0000 C   0  0  0  0  0  0  0  0  0  0  0  0
   -1.2990   -5.8573    0.0000 C   0  0  0  0  0  0  0  0  0  0  0  0
   -2.5981   -5.1073    0.0000 O   0  0  0  0  0  0  0  0  0  0  0  0
   -0.0000   -5.1073    0.0000 N   0  0  0  0  0  0  0  0  0  0  0  0
   -0.0000   -3.6073    0.0000 C   0  0  0  0  0  0  0  0  0  0  0  0
    1.2135   -2.7256    0.0000 N   0  0  0  0  0  0  0  0  0  0  0  0
    0.7500   -1.2990    0.0000 C   0  0  0  0  0  0  0  0  0  0  0  0
    1.5000    0.0000    0.0000 C   0  0  0  0  0  0  0  0  0  0  0  0
    0.7500    1.2990    0.0000 C   0  0  0  0  0  0  0  0  0  0  0  0
    1.5000    2.5981    0.0000 N   0  0  0  0  0  0  0  0  0  0  0  0
    3.0000    2.5981    0.0000 C   0  0  0  0  0  0  0  0  0  0  0  0
    0.7500    3.8971    0.0000 C   0  0  0  0  0  0  0  0  0  0  0  0
   -0.7500    3.8971    0.0000 O   0  0  0  0  0  0  0  0  0  0  0  0
    1.5000    5.1962    0.0000 C   0  0  0  0  0  0  0  0  0  0  0  0
    3.0000    5.1962    0.0000 C   0  0  0  0  0  0  0  0  0  0  0  0
    3.7500    6.4952    0.0000 C   0  0  0  0  0  0  0  0  0  0  0  0
    3.0000    7.7942    0.0000 C   0  0  0  0  0  0  0  0  0  0  0  0
    1.5000    7.7942    0.0000 C   0  0  0  0  0  0  0  0  0  0  0  0
    0.7500    6.4952    0.0000 C   0  0  0  0  0  0  0  0  0  0  0  0
   -0.7500    1.2990    0.0000 C   0  0  0  0  0  0  0  0  0  0  0  0
   -1.5000    0.0000    0.0000 C   0  0  0  0  0  0  0  0  0  0  0  0
   -0.7500   -1.2990    0.0000 C   0  0  0  0  0  0  0  0  0  0  0  0
   -1.2135   -2.7256    0.0000 N   0  0  0  0  0  0  0  0  0  0  0  0
   -2.6401   -3.1891    0.0000 C   0  0  0  0  0  0  0  0  0  0  0  0
   -3.7548   -2.1855    0.0000 C   0  0  0  0  0  0  0  0  0  0  0  0
   -5.1814   -2.6490    0.0000 C   0  0  0  0  0  0  0  0  0  0  0  0
   -6.2961   -1.6453    0.0000 N   0  0  0  0  0  0  0  0  0  0  0  0
   -5.4933   -4.1162    0.0000 O   0  0  0  0  0  0  0  0  0  0  0  0
    0.0000   -8.1073    0.0000 C   0  0  0  0  0  0  0  0  0  0  0  0
    0.0000   -9.6073    0.0000 C   0  0  0  0  0  0  0  0  0  0  0  0
  1  2  1  0
  2  3  2  0
  2  4  1  0
  4  5  2  0
  5  6  1  0
  6  7  2  0
  7  8  1  0
  8  9  2  0
  8 10  1  0
 10 11  1  0
 11 12  2  0
 12 13  1  0
 13 14  2  0
 14 15  1  0
 15 16  1  0
 16 17  1  0
 16 18  1  0
 18 19  2  0
 18 20  1  0
 20 21  1  0
 21 22  1  0
 22 23  1  0
 23 24  1  0
 24 25  1  0
 15 26  2  0
 26 27  1  0
 27 28  2  0
 28 29  1  0
 29 30  1  0
 30 31  1  0
 31 32  1  0
 32 33  1  0
 32 34  2  0
  7 35  1  0
 35 36  2  0
 36  4  1  0
 29 11  1  0
 28 13  1  0
 25 20  1  0
M  END
>  <Compound_ID>  (289) 
CHEMBL483181

>  <Molecule Name>  (289) 
nan

>  <Molecular Weight>  (289) 
489.58

>  <AlogP>  (289) 
3.91

>  <Smiles>  (289) 
CC(=O)c1ccc(C(=O)Nc2nc3cc(N(C)C(=O)C4CCCCC4)ccc3n2CCC(N)=O)cc1

>  <Standard Type>  (289) 
IC50

>  <Standard Relation>  (289) 
'='

>  <Standard Units>  (289) 
nM

>  <Standard Value>  (289) 
68.0

>  <Assay ChEMBL ID>  (289) 
CHEMBL992563

>  <Assay Description>  (289) 
Inhibition of ITK by DELFIA assay

>  <BAO Format ID>  (289) 
BAO_0000357

>  <BAO Label>  (289) 
single protein format

>  <Assay Organism>  (289) 
None

>  <Target ChEMBL ID>  (289) 
CHEMBL2959

>  <Target Name>  (289) 
Tyrosine-protein kinase ITK/TSK

>  <Target Organism>  (289) 
Homo sapiens

>  <Target Type>  (289) 
SINGLE PROTEIN

>  <Document ChEMBL ID>  (289) 
CHEMBL1142468

>  <Source Description>  (289) 
Scientific Literature

>  <Document Journal>  (289) 
Bioorg Med Chem Lett

>  <Document Year>  (289) 
2008.0

>  <Active>  (289) 
1.0

$$$$

     RDKit          2D

 33 38  0  0  0  0  0  0  0  0999 V2000
  -12.2332    8.1549    0.0000 C   0  0  0  0  0  0  0  0  0  0  0  0
  -10.8067    8.6184    0.0000 C   0  0  0  0  0  0  0  0  0  0  0  0
   -9.6919    7.6147    0.0000 C   0  0  0  0  0  0  0  0  0  0  0  0
  -10.0038    6.1475    0.0000 O   0  0  0  0  0  0  0  0  0  0  0  0
   -8.2654    8.0782    0.0000 N   0  0  0  0  0  0  0  0  0  0  0  0
   -7.9535    9.5455    0.0000 C   0  0  0  0  0  0  0  0  0  0  0  0
   -7.1506    7.0746    0.0000 C   0  0  0  0  0  0  0  0  0  0  0  0
   -5.7240    7.5381    0.0000 C   0  0  0  0  0  0  0  0  0  0  0  0
   -4.6093    6.5344    0.0000 C   0  0  0  0  0  0  0  0  0  0  0  0
   -3.1827    6.9979    0.0000 O   0  0  0  0  0  0  0  0  0  0  0  0
   -4.9212    5.0672    0.0000 C   0  0  0  0  0  0  0  0  0  0  0  0
   -4.0395    3.8536    0.0000 N   0  0  0  0  0  0  0  0  0  0  0  0
   -4.9212    2.6401    0.0000 C   0  0  0  0  0  0  0  0  0  0  0  0
   -4.4577    1.2135    0.0000 C   0  0  0  0  0  0  0  0  0  0  0  0
   -5.3394   -0.0000    0.0000 N   0  0  0  0  0  0  0  0  0  0  0  0
   -4.4577   -1.2135    0.0000 N   0  0  0  0  0  0  0  0  0  0  0  0
   -3.0311   -0.7500    0.0000 C   0  0  0  0  0  0  0  0  0  0  0  0
   -3.0311    0.7500    0.0000 C   0  0  0  0  0  0  0  0  0  0  0  0
   -1.7321    1.5000    0.0000 C   0  0  0  0  0  0  0  0  0  0  0  0
   -0.4330    0.7500    0.0000 C   0  0  0  0  0  0  0  0  0  0  0  0
    0.8660    0.0000    0.0000 C   0  0  0  0  0  0  0  0  0  0  0  0
   -0.4330   -0.7500    0.0000 C   0  0  0  0  0  0  0  0  0  0  0  0
    0.3170   -2.0490    0.0000 C   0  0  0  0  0  0  0  0  0  0  0  0
   -1.7321   -1.5000    0.0000 C   0  0  0  0  0  0  0  0  0  0  0  0
   -6.3478    3.1036    0.0000 N   0  0  0  0  0  0  0  0  0  0  0  0
   -6.3478    4.6036    0.0000 C   0  0  0  0  0  0  0  0  0  0  0  0
   -7.4625    5.6073    0.0000 C   0  0  0  0  0  0  0  0  0  0  0  0
  -10.4948   10.0856    0.0000 N   0  0  0  0  0  0  0  0  0  0  0  0
   -9.0682   10.5492    0.0000 C   0  0  0  0  0  0  0  0  0  0  0  0
   -8.7563   12.0164    0.0000 C   0  0  0  0  0  0  0  0  0  0  0  0
   -9.8711   13.0201    0.0000 O   0  0  0  0  0  0  0  0  0  0  0  0
  -11.2976   12.5566    0.0000 C   0  0  0  0  0  0  0  0  0  0  0  0
  -11.6095   11.0893    0.0000 C   0  0  0  0  0  0  0  0  0  0  0  0
  2  1  1  6
  2  3  1  0
  3  4  2  0
  3  5  1  0
  5  6  1  0
  5  7  1  0
  7  8  2  0
  8  9  1  0
  9 10  1  0
  9 11  2  0
 11 12  1  0
 12 13  1  0
 13 14  1  0
 14 15  2  0
 15 16  1  0
 16 17  1  0
 17 18  2  0
 18 19  1  0
 20 19  1  6
 20 21  1  0
 21 22  1  0
 22 23  1  1
 22 24  1  0
 13 25  2  0
 25 26  1  0
 26 27  2  0
  2 28  1  0
 28 29  1  0
 29 30  1  0
 30 31  1  0
 31 32  1  0
 32 33  1  0
 27  7  1  0
 33 28  1  0
 26 11  1  0
 18 14  1  0
 22 20  1  0
 24 17  1  0
M  END
>  <Compound_ID>  (290) 
CHEMBL5079033

>  <Molecule Name>  (290) 
nan

>  <Molecular Weight>  (290) 
450.54

>  <AlogP>  (290) 
2.47

>  <Smiles>  (290) 
C[C@@H](C(=O)N(C)c1cc(O)c2[nH]c(-c3n[nH]c4c3C[C@@H]3C[C@]3(C)C4)nc2c1)N1CCOCC1

>  <Standard Type>  (290) 
IC50

>  <Standard Relation>  (290) 
'='

>  <Standard Units>  (290) 
nM

>  <Standard Value>  (290) 
8.0

>  <Assay ChEMBL ID>  (290) 
CHEMBL5058465

>  <Assay Description>  (290) 
Inhibition of ITK (unknown origin) using BTK peptide as substrate preincubated for 30 mins followed by addition of substrate and measured after 60 mins by flourescence based plate reader assay

>  <BAO Format ID>  (290) 
BAO_0000357

>  <BAO Label>  (290) 
single protein format

>  <Assay Organism>  (290) 
Homo sapiens

>  <Target ChEMBL ID>  (290) 
CHEMBL2959

>  <Target Name>  (290) 
Tyrosine-protein kinase ITK/TSK

>  <Target Organism>  (290) 
Homo sapiens

>  <Target Type>  (290) 
SINGLE PROTEIN

>  <Document ChEMBL ID>  (290) 
CHEMBL5055688

>  <Source Description>  (290) 
Scientific Literature

>  <Document Journal>  (290) 
ACS Med Chem Lett

>  <Document Year>  (290) 
2021.0

>  <Active>  (290) 
1.0

$$$$

     RDKit          2D

 40 44  0  0  0  0  0  0  0  0999 V2000
  -10.2497   -1.4504    0.0000 C   0  0  0  0  0  0  0  0  0  0  0  0
   -8.8231   -1.9139    0.0000 C   0  0  0  0  0  0  0  0  0  0  0  0
   -8.5112   -3.3811    0.0000 C   0  0  0  0  0  0  0  0  0  0  0  0
   -9.6260   -4.3848    0.0000 O   0  0  0  0  0  0  0  0  0  0  0  0
   -7.0847   -3.8447    0.0000 N   0  0  0  0  0  0  0  0  0  0  0  0
   -6.6211   -5.2713    0.0000 C   0  0  0  0  0  0  0  0  0  0  0  0
   -5.1211   -5.2713    0.0000 C   0  0  0  0  0  0  0  0  0  0  0  0
   -4.6576   -3.8447    0.0000 C   0  0  0  0  0  0  0  0  0  0  0  0
   -5.8711   -2.9630    0.0000 C   0  0  0  0  0  0  0  0  0  0  0  0
   -3.3211   -4.5257    0.0000 C   0  0  0  0  0  0  0  0  0  0  0  0
   -2.6401   -3.1891    0.0000 C   0  0  0  0  0  0  0  0  0  0  0  0
   -1.2135   -2.7256    0.0000 N   0  0  0  0  0  0  0  0  0  0  0  0
   -0.0000   -3.6073    0.0000 C   0  0  0  0  0  0  0  0  0  0  0  0
   -0.0000   -5.1073    0.0000 N   0  0  0  0  0  0  0  0  0  0  0  0
   -1.2990   -5.8573    0.0000 C   0  0  0  0  0  0  0  0  0  0  0  0
   -2.5981   -5.1073    0.0000 O   0  0  0  0  0  0  0  0  0  0  0  0
   -1.2990   -7.3573    0.0000 C   0  0  0  0  0  0  0  0  0  0  0  0
   -0.0855   -8.2390    0.0000 C   0  0  0  0  0  0  0  0  0  0  0  0
   -0.5490   -9.6656    0.0000 C   0  0  0  0  0  0  0  0  0  0  0  0
   -2.0490   -9.6656    0.0000 C   0  0  0  0  0  0  0  0  0  0  0  0
   -2.9307  -10.8791    0.0000 C   0  0  0  0  0  0  0  0  0  0  0  0
   -4.4225  -10.7223    0.0000 F   0  0  0  0  0  0  0  0  0  0  0  0
   -2.3206  -12.2494    0.0000 F   0  0  0  0  0  0  0  0  0  0  0  0
   -2.5126   -8.2390    0.0000 S   0  0  0  0  0  0  0  0  0  0  0  0
    1.2135   -2.7256    0.0000 N   0  0  0  0  0  0  0  0  0  0  0  0
    0.7500   -1.2990    0.0000 C   0  0  0  0  0  0  0  0  0  0  0  0
    1.5000    0.0000    0.0000 C   0  0  0  0  0  0  0  0  0  0  0  0
    0.7500    1.2990    0.0000 C   0  0  0  0  0  0  0  0  0  0  0  0
    1.5000    2.5981    0.0000 C   0  0  0  0  0  0  0  0  0  0  0  0
    3.0000    2.5981    0.0000 N   0  0  0  0  0  0  0  0  0  0  0  0
    3.7500    3.8971    0.0000 C   0  0  0  0  0  0  0  0  0  0  0  0
    5.2500    3.8971    0.0000 C   0  0  0  0  0  0  0  0  0  0  0  0
    3.0000    5.1962    0.0000 C   0  0  0  0  0  0  0  0  0  0  0  0
    4.2990    5.9462    0.0000 C   0  0  0  0  0  0  0  0  0  0  0  0
    1.7010    4.4462    0.0000 C   0  0  0  0  0  0  0  0  0  0  0  0
    2.2500    6.4952    0.0000 C   0  0  0  0  0  0  0  0  0  0  0  0
   -0.7500    1.2990    0.0000 C   0  0  0  0  0  0  0  0  0  0  0  0
   -1.5000    0.0000    0.0000 C   0  0  0  0  0  0  0  0  0  0  0  0
   -0.7500   -1.2990    0.0000 C   0  0  0  0  0  0  0  0  0  0  0  0
   -3.9766   -2.5082    0.0000 C   0  0  0  0  0  0  0  0  0  0  0  0
  1  2  2  0
  2  3  1  0
  3  4  2  0
  3  5  1  0
  5  6  1  0
  6  7  1  0
  8  7  1  1
  8  9  1  0
  8 10  1  0
 10 11  1  0
 11 12  1  1
 12 13  1  0
 13 14  1  0
 14 15  1  0
 15 16  2  0
 15 17  1  0
 17 18  2  0
 18 19  1  0
 19 20  2  0
 20 21  1  0
 21 22  1  0
 21 23  1  0
 20 24  1  0
 13 25  2  0
 25 26  1  0
 26 27  2  0
 27 28  1  0
 28 29  1  0
 29 30  1  0
 30 31  1  0
 31 32  1  6
 31 33  1  0
 33 34  1  0
 33 35  1  0
 33 36  1  0
 28 37  2  0
 37 38  1  0
 38 39  2  0
 11 40  1  0
  9  5  1  0
 39 12  1  0
 40  8  1  0
 24 17  1  0
 39 26  1  0
M  END
>  <Compound_ID>  (291) 
CHEMBL4206487

>  <Molecule Name>  (291) 
nan

>  <Molecular Weight>  (291) 
569.72

>  <AlogP>  (291) 
6.55

>  <Smiles>  (291) 
C=CC(=O)N1CC[C@]2(C1)C[C@H](n1c(NC(=O)c3ccc(C(F)F)s3)nc3cc(CN[C@@H](C)C(C)(C)C)ccc31)C2

>  <Standard Type>  (291) 
IC50

>  <Standard Relation>  (291) 
'='

>  <Standard Units>  (291) 
nM

>  <Standard Value>  (291) 
3.23

>  <Assay ChEMBL ID>  (291) 
CHEMBL4199503

>  <Assay Description>  (291) 
Inhibition of ITK (unknown origin) using fluorescently labeled peptide as substrate after 3 hrs by microfluidic mobility shift assay

>  <BAO Format ID>  (291) 
BAO_0000357

>  <BAO Label>  (291) 
single protein format

>  <Assay Organism>  (291) 
Homo sapiens

>  <Target ChEMBL ID>  (291) 
CHEMBL2959

>  <Target Name>  (291) 
Tyrosine-protein kinase ITK/TSK

>  <Target Organism>  (291) 
Homo sapiens

>  <Target Type>  (291) 
SINGLE PROTEIN

>  <Document ChEMBL ID>  (291) 
CHEMBL4196110

>  <Source Description>  (291) 
Scientific Literature

>  <Document Journal>  (291) 
ACS Med Chem Lett

>  <Document Year>  (291) 
2018.0

>  <Active>  (291) 
1.0

$$$$

     RDKit          2D

 39 43  0  0  0  0  0  0  0  0999 V2000
  -11.1975    2.9107    0.0000 C   0  0  0  0  0  0  0  0  0  0  0  0
   -9.7709    3.3742    0.0000 C   0  0  0  0  0  0  0  0  0  0  0  0
   -8.6562    2.3705    0.0000 C   0  0  0  0  0  0  0  0  0  0  0  0
   -8.9681    0.9033    0.0000 O   0  0  0  0  0  0  0  0  0  0  0  0
   -7.2296    2.8340    0.0000 N   0  0  0  0  0  0  0  0  0  0  0  0
   -6.1149    1.8303    0.0000 C   0  0  0  0  0  0  0  0  0  0  0  0
   -4.6883    2.2939    0.0000 C   0  0  0  0  0  0  0  0  0  0  0  0
   -3.5736    1.2902    0.0000 O   0  0  0  0  0  0  0  0  0  0  0  0
   -2.1470    1.7537    0.0000 C   0  0  0  0  0  0  0  0  0  0  0  0
   -1.8351    3.2209    0.0000 C   0  0  0  0  0  0  0  0  0  0  0  0
   -0.4086    3.6844    0.0000 C   0  0  0  0  0  0  0  0  0  0  0  0
   -0.0967    5.1517    0.0000 C   0  0  0  0  0  0  0  0  0  0  0  0
    1.3299    5.6152    0.0000 C   0  0  0  0  0  0  0  0  0  0  0  0
    2.4446    4.6115    0.0000 C   0  0  0  0  0  0  0  0  0  0  0  0
    2.1328    3.1443    0.0000 C   0  0  0  0  0  0  0  0  0  0  0  0
    3.8712    5.0750    0.0000 C   0  0  0  0  0  0  0  0  0  0  0  0
    4.1831    6.5422    0.0000 C   0  0  0  0  0  0  0  0  0  0  0  0
    5.6097    7.0058    0.0000 C   0  0  0  0  0  0  0  0  0  0  0  0
    3.0684    7.5459    0.0000 C   0  0  0  0  0  0  0  0  0  0  0  0
    1.6418    7.0824    0.0000 C   0  0  0  0  0  0  0  0  0  0  0  0
    0.5271    8.0861    0.0000 C   0  0  0  0  0  0  0  0  0  0  0  0
    0.7062    2.6807    0.0000 C   0  0  0  0  0  0  0  0  0  0  0  0
    0.3943    1.2135    0.0000 C   0  0  0  0  0  0  0  0  0  0  0  0
    1.2760    0.0000    0.0000 N   0  0  0  0  0  0  0  0  0  0  0  0
    0.3943   -1.2135    0.0000 C   0  0  0  0  0  0  0  0  0  0  0  0
    0.8578   -2.6401    0.0000 C   0  0  0  0  0  0  0  0  0  0  0  0
    2.2844   -3.1036    0.0000 N   0  0  0  0  0  0  0  0  0  0  0  0
    2.2844   -4.6036    0.0000 N   0  0  0  0  0  0  0  0  0  0  0  0
    0.8578   -5.0672    0.0000 C   0  0  0  0  0  0  0  0  0  0  0  0
    0.2477   -6.4375    0.0000 C   0  0  0  0  0  0  0  0  0  0  0  0
   -1.2441   -6.5943    0.0000 C   0  0  0  0  0  0  0  0  0  0  0  0
   -1.8542   -7.9646    0.0000 C   0  0  0  0  0  0  0  0  0  0  0  0
   -3.3460   -8.1214    0.0000 F   0  0  0  0  0  0  0  0  0  0  0  0
   -0.9725   -9.1781    0.0000 F   0  0  0  0  0  0  0  0  0  0  0  0
   -2.1257   -5.3807    0.0000 C   0  0  0  0  0  0  0  0  0  0  0  0
   -1.5156   -4.0104    0.0000 C   0  0  0  0  0  0  0  0  0  0  0  0
   -0.0239   -3.8536    0.0000 C   0  0  0  0  0  0  0  0  0  0  0  0
   -1.0323   -0.7500    0.0000 C   0  0  0  0  0  0  0  0  0  0  0  0
   -1.0323    0.7500    0.0000 C   0  0  0  0  0  0  0  0  0  0  0  0
  1  2  2  0
  2  3  1  0
  3  4  2  0
  3  5  1  0
  5  6  1  0
  6  7  1  0
  7  8  1  0
  8  9  1  0
  9 10  2  0
 10 11  1  0
 11 12  1  0
 12 13  1  0
 13 14  2  0
 14 15  1  0
 14 16  1  0
 16 17  2  0
 17 18  1  0
 17 19  1  0
 19 20  2  0
 20 21  1  0
 11 22  2  0
 22 23  1  0
 23 24  1  0
 24 25  1  0
 25 26  1  0
 26 27  2  0
 27 28  1  0
 28 29  1  0
 29 30  2  0
 30 31  1  0
 31 32  1  0
 32 33  1  0
 32 34  1  0
 31 35  2  0
 35 36  1  0
 36 37  2  0
 25 38  2  0
 38 39  1  0
 39  9  1  0
 20 13  1  0
 39 23  2  0
 37 26  1  0
 37 29  1  0
M  END
>  <Compound_ID>  (292) 
CHEMBL4640845

>  <Molecule Name>  (292) 
nan

>  <Molecular Weight>  (292) 
528.6

>  <AlogP>  (292) 
6.85

>  <Smiles>  (292) 
C=CC(=O)NCCOc1cc(Cc2c(C)cc(C)cc2C)cc2[nH]c(-c3n[nH]c4cc(C(F)F)ccc34)cc12

>  <Standard Type>  (292) 
IC50

>  <Standard Relation>  (292) 
'='

>  <Standard Units>  (292) 
nM

>  <Standard Value>  (292) 
62.0

>  <Assay ChEMBL ID>  (292) 
CHEMBL4603778

>  <Assay Description>  (292) 
Inhibition of ITK (unknown origin) using TK as substrate incubated for 30 mins by HTRF assay

>  <BAO Format ID>  (292) 
BAO_0000357

>  <BAO Label>  (292) 
single protein format

>  <Assay Organism>  (292) 
Homo sapiens

>  <Target ChEMBL ID>  (292) 
CHEMBL2959

>  <Target Name>  (292) 
Tyrosine-protein kinase ITK/TSK

>  <Target Organism>  (292) 
Homo sapiens

>  <Target Type>  (292) 
SINGLE PROTEIN

>  <Document ChEMBL ID>  (292) 
CHEMBL4602634

>  <Source Description>  (292) 
Scientific Literature

>  <Document Journal>  (292) 
Eur J Med Chem

>  <Document Year>  (292) 
2020.0

>  <Active>  (292) 
1.0

$$$$

     RDKit          2D

 33 36  0  0  0  0  0  0  0  0999 V2000
    8.2500   -1.2990    0.0000 O   0  0  0  0  0  0  0  0  0  0  0  0
    7.5000   -2.5981    0.0000 C   0  0  0  0  0  0  0  0  0  0  0  0
    8.2500   -3.8971    0.0000 C   0  0  0  0  0  0  0  0  0  0  0  0
    9.7500   -3.8971    0.0000 C   0  0  0  0  0  0  0  0  0  0  0  0
   10.5000   -5.1962    0.0000 C   0  0  0  0  0  0  0  0  0  0  0  0
   11.2500   -6.4952    0.0000 F   0  0  0  0  0  0  0  0  0  0  0  0
   11.7990   -4.4462    0.0000 F   0  0  0  0  0  0  0  0  0  0  0  0
    9.2010   -5.9462    0.0000 F   0  0  0  0  0  0  0  0  0  0  0  0
    6.0000   -2.5981    0.0000 N   0  0  0  0  0  0  0  0  0  0  0  0
    5.2500   -1.2990    0.0000 C   0  0  0  0  0  0  0  0  0  0  0  0
    3.7500   -1.2990    0.0000 C   0  0  0  0  0  0  0  0  0  0  0  0
    3.0000    0.0000    0.0000 O   0  0  0  0  0  0  0  0  0  0  0  0
    1.5000    0.0000    0.0000 C   0  0  0  0  0  0  0  0  0  0  0  0
    0.7500   -1.2990    0.0000 C   0  0  0  0  0  0  0  0  0  0  0  0
   -0.7500   -1.2990    0.0000 C   0  0  0  0  0  0  0  0  0  0  0  0
   -1.5000    0.0000    0.0000 C   0  0  0  0  0  0  0  0  0  0  0  0
   -0.7500    1.2990    0.0000 C   0  0  0  0  0  0  0  0  0  0  0  0
   -1.2135    2.7256    0.0000 N   0  0  0  0  0  0  0  0  0  0  0  0
   -0.0000    3.6073    0.0000 C   0  0  0  0  0  0  0  0  0  0  0  0
   -0.0000    5.1073    0.0000 C   0  0  0  0  0  0  0  0  0  0  0  0
    1.2135    5.9890    0.0000 N   0  0  0  0  0  0  0  0  0  0  0  0
    0.7500    7.4156    0.0000 N   0  0  0  0  0  0  0  0  0  0  0  0
   -0.7500    7.4156    0.0000 C   0  0  0  0  0  0  0  0  0  0  0  0
   -1.7537    8.5303    0.0000 C   0  0  0  0  0  0  0  0  0  0  0  0
   -3.2209    8.2184    0.0000 C   0  0  0  0  0  0  0  0  0  0  0  0
   -4.2246    9.3331    0.0000 C   0  0  0  0  0  0  0  0  0  0  0  0
   -3.7611   10.7597    0.0000 F   0  0  0  0  0  0  0  0  0  0  0  0
   -5.6918    9.0213    0.0000 F   0  0  0  0  0  0  0  0  0  0  0  0
   -3.6844    6.7918    0.0000 C   0  0  0  0  0  0  0  0  0  0  0  0
   -2.6807    5.6771    0.0000 C   0  0  0  0  0  0  0  0  0  0  0  0
   -1.2135    5.9890    0.0000 C   0  0  0  0  0  0  0  0  0  0  0  0
    1.2135    2.7256    0.0000 C   0  0  0  0  0  0  0  0  0  0  0  0
    0.7500    1.2990    0.0000 C   0  0  0  0  0  0  0  0  0  0  0  0
  1  2  2  0
  2  3  1  0
  3  4  2  0
  4  5  1  0
  5  6  1  0
  5  7  1  0
  5  8  1  0
  2  9  1  0
  9 10  1  0
 10 11  1  0
 11 12  1  0
 12 13  1  0
 13 14  2  0
 14 15  1  0
 15 16  2  0
 16 17  1  0
 17 18  1  0
 18 19  1  0
 19 20  1  0
 20 21  2  0
 21 22  1  0
 22 23  1  0
 23 24  2  0
 24 25  1  0
 25 26  1  0
 26 27  1  0
 26 28  1  0
 25 29  2  0
 29 30  1  0
 30 31  2  0
 19 32  2  0
 32 33  1  0
 33 13  1  0
 33 17  2  0
 31 20  1  0
 31 23  1  0
M  END
>  <Compound_ID>  (293) 
CHEMBL4638862

>  <Molecule Name>  (293) 
nan

>  <Molecular Weight>  (293) 
464.39

>  <AlogP>  (293) 
5.26

>  <Smiles>  (293) 
O=C(/C=C/C(F)(F)F)NCCOc1cccc2[nH]c(-c3n[nH]c4cc(C(F)F)ccc34)cc12

>  <Standard Type>  (293) 
IC50

>  <Standard Relation>  (293) 
'='

>  <Standard Units>  (293) 
nM

>  <Standard Value>  (293) 
31.0

>  <Assay ChEMBL ID>  (293) 
CHEMBL4603778

>  <Assay Description>  (293) 
Inhibition of ITK (unknown origin) using TK as substrate incubated for 30 mins by HTRF assay

>  <BAO Format ID>  (293) 
BAO_0000357

>  <BAO Label>  (293) 
single protein format

>  <Assay Organism>  (293) 
Homo sapiens

>  <Target ChEMBL ID>  (293) 
CHEMBL2959

>  <Target Name>  (293) 
Tyrosine-protein kinase ITK/TSK

>  <Target Organism>  (293) 
Homo sapiens

>  <Target Type>  (293) 
SINGLE PROTEIN

>  <Document ChEMBL ID>  (293) 
CHEMBL4602634

>  <Source Description>  (293) 
Scientific Literature

>  <Document Journal>  (293) 
Eur J Med Chem

>  <Document Year>  (293) 
2020.0

>  <Active>  (293) 
1.0

$$$$

     RDKit          2D

 43 48  0  0  0  0  0  0  0  0999 V2000
  -11.1975    2.9107    0.0000 C   0  0  0  0  0  0  0  0  0  0  0  0
   -9.7709    3.3742    0.0000 C   0  0  0  0  0  0  0  0  0  0  0  0
   -8.6562    2.3705    0.0000 C   0  0  0  0  0  0  0  0  0  0  0  0
   -8.9681    0.9033    0.0000 O   0  0  0  0  0  0  0  0  0  0  0  0
   -7.2296    2.8340    0.0000 N   0  0  0  0  0  0  0  0  0  0  0  0
   -6.1149    1.8303    0.0000 C   0  0  0  0  0  0  0  0  0  0  0  0
   -4.6883    2.2939    0.0000 C   0  0  0  0  0  0  0  0  0  0  0  0
   -3.5736    1.2902    0.0000 O   0  0  0  0  0  0  0  0  0  0  0  0
   -2.1470    1.7537    0.0000 C   0  0  0  0  0  0  0  0  0  0  0  0
   -1.8351    3.2209    0.0000 C   0  0  0  0  0  0  0  0  0  0  0  0
   -0.4086    3.6844    0.0000 C   0  0  0  0  0  0  0  0  0  0  0  0
   -0.0967    5.1517    0.0000 C   0  0  0  0  0  0  0  0  0  0  0  0
    0.2152    6.6189    0.0000 O   0  0  0  0  0  0  0  0  0  0  0  0
   -1.5639    5.4635    0.0000 C   0  0  0  0  0  0  0  0  0  0  0  0
   -2.0274    6.8901    0.0000 C   0  0  0  0  0  0  0  0  0  0  0  0
   -3.4947    7.2020    0.0000 C   0  0  0  0  0  0  0  0  0  0  0  0
   -4.4983    6.0873    0.0000 C   0  0  0  0  0  0  0  0  0  0  0  0
   -4.0348    4.6607    0.0000 C   0  0  0  0  0  0  0  0  0  0  0  0
   -2.5676    4.3488    0.0000 C   0  0  0  0  0  0  0  0  0  0  0  0
    1.3705    4.8398    0.0000 C   0  0  0  0  0  0  0  0  0  0  0  0
    1.8341    3.4132    0.0000 C   0  0  0  0  0  0  0  0  0  0  0  0
    3.3013    3.1013    0.0000 C   0  0  0  0  0  0  0  0  0  0  0  0
    4.3050    4.2161    0.0000 C   0  0  0  0  0  0  0  0  0  0  0  0
    3.8415    5.6426    0.0000 C   0  0  0  0  0  0  0  0  0  0  0  0
    2.3742    5.9545    0.0000 C   0  0  0  0  0  0  0  0  0  0  0  0
    0.7062    2.6807    0.0000 C   0  0  0  0  0  0  0  0  0  0  0  0
    0.3943    1.2135    0.0000 C   0  0  0  0  0  0  0  0  0  0  0  0
    1.2760    0.0000    0.0000 N   0  0  0  0  0  0  0  0  0  0  0  0
    0.3943   -1.2135    0.0000 C   0  0  0  0  0  0  0  0  0  0  0  0
    0.8578   -2.6401    0.0000 C   0  0  0  0  0  0  0  0  0  0  0  0
    2.2844   -3.1036    0.0000 N   0  0  0  0  0  0  0  0  0  0  0  0
    2.2844   -4.6036    0.0000 N   0  0  0  0  0  0  0  0  0  0  0  0
    0.8578   -5.0672    0.0000 C   0  0  0  0  0  0  0  0  0  0  0  0
    0.2477   -6.4375    0.0000 C   0  0  0  0  0  0  0  0  0  0  0  0
   -1.2441   -6.5943    0.0000 C   0  0  0  0  0  0  0  0  0  0  0  0
   -1.8542   -7.9646    0.0000 C   0  0  0  0  0  0  0  0  0  0  0  0
   -3.3460   -8.1214    0.0000 F   0  0  0  0  0  0  0  0  0  0  0  0
   -0.9725   -9.1781    0.0000 F   0  0  0  0  0  0  0  0  0  0  0  0
   -2.1257   -5.3807    0.0000 C   0  0  0  0  0  0  0  0  0  0  0  0
   -1.5156   -4.0104    0.0000 C   0  0  0  0  0  0  0  0  0  0  0  0
   -0.0239   -3.8536    0.0000 C   0  0  0  0  0  0  0  0  0  0  0  0
   -1.0323   -0.7500    0.0000 C   0  0  0  0  0  0  0  0  0  0  0  0
   -1.0323    0.7500    0.0000 C   0  0  0  0  0  0  0  0  0  0  0  0
  1  2  2  0
  2  3  1  0
  3  4  2  0
  3  5  1  0
  5  6  1  0
  6  7  1  0
  7  8  1  0
  8  9  1  0
  9 10  2  0
 10 11  1  0
 11 12  1  0
 12 13  1  0
 12 14  1  0
 14 15  2  0
 15 16  1  0
 16 17  2  0
 17 18  1  0
 18 19  2  0
 12 20  1  0
 20 21  2  0
 21 22  1  0
 22 23  2  0
 23 24  1  0
 24 25  2  0
 11 26  2  0
 26 27  1  0
 27 28  1  0
 28 29  1  0
 29 30  1  0
 30 31  2  0
 31 32  1  0
 32 33  1  0
 33 34  2  0
 34 35  1  0
 35 36  1  0
 36 37  1  0
 36 38  1  0
 35 39  2  0
 39 40  1  0
 40 41  2  0
 29 42  2  0
 42 43  1  0
 43  9  1  0
 19 14  1  0
 25 20  1  0
 43 27  2  0
 41 30  1  0
 41 33  1  0
M  END
>  <Compound_ID>  (294) 
CHEMBL4639930

>  <Molecule Name>  (294) 
nan

>  <Molecular Weight>  (294) 
578.62

>  <AlogP>  (294) 
6.61

>  <Smiles>  (294) 
C=CC(=O)NCCOc1cc(C(O)(c2ccccc2)c2ccccc2)cc2[nH]c(-c3n[nH]c4cc(C(F)F)ccc34)cc12

>  <Standard Type>  (294) 
IC50

>  <Standard Relation>  (294) 
'='

>  <Standard Units>  (294) 
nM

>  <Standard Value>  (294) 
25.0

>  <Assay ChEMBL ID>  (294) 
CHEMBL4603778

>  <Assay Description>  (294) 
Inhibition of ITK (unknown origin) using TK as substrate incubated for 30 mins by HTRF assay

>  <BAO Format ID>  (294) 
BAO_0000357

>  <BAO Label>  (294) 
single protein format

>  <Assay Organism>  (294) 
Homo sapiens

>  <Target ChEMBL ID>  (294) 
CHEMBL2959

>  <Target Name>  (294) 
Tyrosine-protein kinase ITK/TSK

>  <Target Organism>  (294) 
Homo sapiens

>  <Target Type>  (294) 
SINGLE PROTEIN

>  <Document ChEMBL ID>  (294) 
CHEMBL4602634

>  <Source Description>  (294) 
Scientific Literature

>  <Document Journal>  (294) 
Eur J Med Chem

>  <Document Year>  (294) 
2020.0

>  <Active>  (294) 
1.0

$$$$

     RDKit          2D

 41 45  0  0  0  0  0  0  0  0999 V2000
   -9.1472    6.3086    0.0000 C   0  0  0  0  0  0  0  0  0  0  0  0
   -8.0325    5.3050    0.0000 C   0  0  0  0  0  0  0  0  0  0  0  0
   -6.9177    4.3013    0.0000 C   0  0  0  0  0  0  0  0  0  0  0  0
   -5.4912    4.7648    0.0000 C   0  0  0  0  0  0  0  0  0  0  0  0
   -4.3764    3.7611    0.0000 O   0  0  0  0  0  0  0  0  0  0  0  0
   -2.9499    4.2246    0.0000 C   0  0  0  0  0  0  0  0  0  0  0  0
   -2.6380    5.6918    0.0000 C   0  0  0  0  0  0  0  0  0  0  0  0
   -1.2114    6.1554    0.0000 C   0  0  0  0  0  0  0  0  0  0  0  0
   -0.8995    7.6226    0.0000 C   0  0  0  0  0  0  0  0  0  0  0  0
   -2.0143    8.6263    0.0000 C   0  0  0  0  0  0  0  0  0  0  0  0
   -3.4408    8.1628    0.0000 C   0  0  0  0  0  0  0  0  0  0  0  0
   -3.7527    6.6955    0.0000 C   0  0  0  0  0  0  0  0  0  0  0  0
   -1.8351    3.2209    0.0000 C   0  0  0  0  0  0  0  0  0  0  0  0
   -0.4086    3.6844    0.0000 C   0  0  0  0  0  0  0  0  0  0  0  0
    0.7062    2.6807    0.0000 C   0  0  0  0  0  0  0  0  0  0  0  0
    2.1328    3.1443    0.0000 O   0  0  0  0  0  0  0  0  0  0  0  0
    2.4446    4.6115    0.0000 C   0  0  0  0  0  0  0  0  0  0  0  0
    3.8712    5.0750    0.0000 C   0  0  0  0  0  0  0  0  0  0  0  0
    4.1831    6.5422    0.0000 N   0  0  0  0  0  0  0  0  0  0  0  0
    5.6097    7.0058    0.0000 C   0  0  0  0  0  0  0  0  0  0  0  0
    6.7244    6.0021    0.0000 O   0  0  0  0  0  0  0  0  0  0  0  0
    5.9215    8.4730    0.0000 C   0  0  0  0  0  0  0  0  0  0  0  0
    7.3481    8.9365    0.0000 C   0  0  0  0  0  0  0  0  0  0  0  0
    0.3943    1.2135    0.0000 C   0  0  0  0  0  0  0  0  0  0  0  0
    1.2760    0.0000    0.0000 C   0  0  0  0  0  0  0  0  0  0  0  0
    0.3943   -1.2135    0.0000 C   0  0  0  0  0  0  0  0  0  0  0  0
    0.8578   -2.6401    0.0000 C   0  0  0  0  0  0  0  0  0  0  0  0
   -0.0239   -3.8536    0.0000 N   0  0  0  0  0  0  0  0  0  0  0  0
    0.8578   -5.0672    0.0000 N   0  0  0  0  0  0  0  0  0  0  0  0
    2.2844   -4.6036    0.0000 C   0  0  0  0  0  0  0  0  0  0  0  0
    3.5834   -5.3536    0.0000 C   0  0  0  0  0  0  0  0  0  0  0  0
    4.8825   -4.6036    0.0000 C   0  0  0  0  0  0  0  0  0  0  0  0
    6.1815   -5.3536    0.0000 C   0  0  0  0  0  0  0  0  0  0  0  0
    6.1815   -6.8536    0.0000 F   0  0  0  0  0  0  0  0  0  0  0  0
    7.4806   -4.6036    0.0000 F   0  0  0  0  0  0  0  0  0  0  0  0
    4.8825   -3.1036    0.0000 C   0  0  0  0  0  0  0  0  0  0  0  0
    3.5834   -2.3536    0.0000 C   0  0  0  0  0  0  0  0  0  0  0  0
    2.2844   -3.1036    0.0000 C   0  0  0  0  0  0  0  0  0  0  0  0
   -1.0323   -0.7500    0.0000 N   0  0  0  0  0  0  0  0  0  0  0  0
   -1.0323    0.7500    0.0000 C   0  0  0  0  0  0  0  0  0  0  0  0
   -2.1470    1.7537    0.0000 C   0  0  0  0  0  0  0  0  0  0  0  0
  1  2  3  0
  2  3  1  0
  3  4  1  0
  4  5  1  0
  5  6  1  0
  6  7  1  0
  7  8  2  0
  8  9  1  0
  9 10  2  0
 10 11  1  0
 11 12  2  0
  6 13  1  0
 13 14  2  0
 14 15  1  0
 15 16  1  0
 16 17  1  0
 17 18  1  0
 18 19  1  0
 19 20  1  0
 20 21  2  0
 20 22  1  0
 22 23  2  0
 15 24  2  0
 24 25  1  0
 25 26  2  0
 26 27  1  0
 27 28  2  0
 28 29  1  0
 29 30  1  0
 30 31  2  0
 31 32  1  0
 32 33  1  0
 33 34  1  0
 33 35  1  0
 32 36  2  0
 36 37  1  0
 37 38  2  0
 26 39  1  0
 39 40  1  0
 40 41  2  0
 12  7  1  0
 41 13  1  0
 40 24  1  0
 38 27  1  0
 38 30  1  0
M  END
>  <Compound_ID>  (295) 
CHEMBL4638717

>  <Molecule Name>  (295) 
nan

>  <Molecular Weight>  (295) 
554.6

>  <AlogP>  (295) 
6.46

>  <Smiles>  (295) 
C#CCCOC(c1ccccc1)c1cc(OCCNC(=O)C=C)c2cc(-c3n[nH]c4cc(C(F)F)ccc34)[nH]c2c1

>  <Standard Type>  (295) 
IC50

>  <Standard Relation>  (295) 
'='

>  <Standard Units>  (295) 
nM

>  <Standard Value>  (295) 
8.5

>  <Assay ChEMBL ID>  (295) 
CHEMBL4603778

>  <Assay Description>  (295) 
Inhibition of ITK (unknown origin) using TK as substrate incubated for 30 mins by HTRF assay

>  <BAO Format ID>  (295) 
BAO_0000357

>  <BAO Label>  (295) 
single protein format

>  <Assay Organism>  (295) 
Homo sapiens

>  <Target ChEMBL ID>  (295) 
CHEMBL2959

>  <Target Name>  (295) 
Tyrosine-protein kinase ITK/TSK

>  <Target Organism>  (295) 
Homo sapiens

>  <Target Type>  (295) 
SINGLE PROTEIN

>  <Document ChEMBL ID>  (295) 
CHEMBL4602634

>  <Source Description>  (295) 
Scientific Literature

>  <Document Journal>  (295) 
Eur J Med Chem

>  <Document Year>  (295) 
2020.0

>  <Active>  (295) 
1.0

$$$$

     RDKit          2D

 31 35  0  0  0  0  0  0  0  0999 V2000
    1.9728   -8.7799    0.0000 C   0  0  0  0  0  0  0  0  0  0  0  0
    1.7123   -7.3027    0.0000 C   0  0  0  0  0  0  0  0  0  0  0  0
    2.8614   -6.3385    0.0000 C   0  0  0  0  0  0  0  0  0  0  0  0
    4.2709   -6.8515    0.0000 O   0  0  0  0  0  0  0  0  0  0  0  0
    2.6009   -4.8613    0.0000 N   0  0  0  0  0  0  0  0  0  0  0  0
    3.7500   -3.8971    0.0000 C   0  0  0  0  0  0  0  0  0  0  0  0
    3.0000   -2.5981    0.0000 C   0  0  0  0  0  0  0  0  0  0  0  0
    1.5000   -2.5981    0.0000 O   0  0  0  0  0  0  0  0  0  0  0  0
    0.7500   -1.2990    0.0000 C   0  0  0  0  0  0  0  0  0  0  0  0
    1.5000    0.0000    0.0000 C   0  0  0  0  0  0  0  0  0  0  0  0
    0.7500    1.2990    0.0000 C   0  0  0  0  0  0  0  0  0  0  0  0
   -0.7500    1.2990    0.0000 C   0  0  0  0  0  0  0  0  0  0  0  0
   -1.5000    0.0000    0.0000 C   0  0  0  0  0  0  0  0  0  0  0  0
   -2.9672   -0.3119    0.0000 N   0  0  0  0  0  0  0  0  0  0  0  0
   -3.1240   -1.8037    0.0000 C   0  0  0  0  0  0  0  0  0  0  0  0
   -4.4231   -2.5537    0.0000 C   0  0  0  0  0  0  0  0  0  0  0  0
   -5.7934   -1.9435    0.0000 N   0  0  0  0  0  0  0  0  0  0  0  0
   -6.7971   -3.0583    0.0000 N   0  0  0  0  0  0  0  0  0  0  0  0
   -6.0471   -4.3573    0.0000 C   0  0  0  0  0  0  0  0  0  0  0  0
   -6.5106   -5.7839    0.0000 C   0  0  0  0  0  0  0  0  0  0  0  0
   -5.5069   -6.8986    0.0000 C   0  0  0  0  0  0  0  0  0  0  0  0
   -5.9704   -8.3252    0.0000 C   0  0  0  0  0  0  0  0  0  0  0  0
   -7.4376   -8.6371    0.0000 F   0  0  0  0  0  0  0  0  0  0  0  0
   -4.9667   -9.4399    0.0000 F   0  0  0  0  0  0  0  0  0  0  0  0
   -4.0397   -6.5867    0.0000 C   0  0  0  0  0  0  0  0  0  0  0  0
   -3.5761   -5.1602    0.0000 C   0  0  0  0  0  0  0  0  0  0  0  0
   -4.5798   -4.0454    0.0000 C   0  0  0  0  0  0  0  0  0  0  0  0
   -1.7537   -2.4138    0.0000 C   0  0  0  0  0  0  0  0  0  0  0  0
   -0.7500   -1.2990    0.0000 C   0  0  0  0  0  0  0  0  0  0  0  0
    4.8991   -4.8613    0.0000 C   0  0  0  0  0  0  0  0  0  0  0  0
    5.1595   -3.3841    0.0000 C   0  0  0  0  0  0  0  0  0  0  0  0
  1  2  2  0
  2  3  1  0
  3  4  2  0
  3  5  1  0
  5  6  1  0
  6  7  1  0
  7  8  1  0
  8  9  1  0
  9 10  2  0
 10 11  1  0
 11 12  2  0
 12 13  1  0
 13 14  1  0
 14 15  1  0
 15 16  1  0
 16 17  2  0
 17 18  1  0
 18 19  1  0
 19 20  2  0
 20 21  1  0
 21 22  1  0
 22 23  1  0
 22 24  1  0
 21 25  2  0
 25 26  1  0
 26 27  2  0
 15 28  2  0
 28 29  1  0
  6 30  1  0
 30 31  1  0
 31  6  1  0
 29  9  1  0
 29 13  2  0
 27 16  1  0
 27 19  1  0
M  END
>  <Compound_ID>  (296) 
CHEMBL4644905

>  <Molecule Name>  (296) 
nan

>  <Molecular Weight>  (296) 
422.44

>  <AlogP>  (296) 
4.86

>  <Smiles>  (296) 
C=CC(=O)NC1(COc2cccc3[nH]c(-c4n[nH]c5cc(C(F)F)ccc45)cc23)CC1

>  <Standard Type>  (296) 
IC50

>  <Standard Relation>  (296) 
'='

>  <Standard Units>  (296) 
nM

>  <Standard Value>  (296) 
11.0

>  <Assay ChEMBL ID>  (296) 
CHEMBL4603778

>  <Assay Description>  (296) 
Inhibition of ITK (unknown origin) using TK as substrate incubated for 30 mins by HTRF assay

>  <BAO Format ID>  (296) 
BAO_0000357

>  <BAO Label>  (296) 
single protein format

>  <Assay Organism>  (296) 
Homo sapiens

>  <Target ChEMBL ID>  (296) 
CHEMBL2959

>  <Target Name>  (296) 
Tyrosine-protein kinase ITK/TSK

>  <Target Organism>  (296) 
Homo sapiens

>  <Target Type>  (296) 
SINGLE PROTEIN

>  <Document ChEMBL ID>  (296) 
CHEMBL4602634

>  <Source Description>  (296) 
Scientific Literature

>  <Document Journal>  (296) 
Eur J Med Chem

>  <Document Year>  (296) 
2020.0

>  <Active>  (296) 
1.0

$$$$

     RDKit          2D

 37 41  0  0  0  0  0  0  0  0999 V2000
  -11.1975    2.9107    0.0000 C   0  0  0  0  0  0  0  0  0  0  0  0
   -9.7709    3.3742    0.0000 C   0  0  0  0  0  0  0  0  0  0  0  0
   -8.6562    2.3705    0.0000 C   0  0  0  0  0  0  0  0  0  0  0  0
   -8.9681    0.9033    0.0000 O   0  0  0  0  0  0  0  0  0  0  0  0
   -7.2296    2.8340    0.0000 N   0  0  0  0  0  0  0  0  0  0  0  0
   -6.1149    1.8303    0.0000 C   0  0  0  0  0  0  0  0  0  0  0  0
   -4.6883    2.2939    0.0000 C   0  0  0  0  0  0  0  0  0  0  0  0
   -3.5736    1.2902    0.0000 O   0  0  0  0  0  0  0  0  0  0  0  0
   -2.1470    1.7537    0.0000 C   0  0  0  0  0  0  0  0  0  0  0  0
   -1.8351    3.2209    0.0000 C   0  0  0  0  0  0  0  0  0  0  0  0
   -0.4086    3.6844    0.0000 C   0  0  0  0  0  0  0  0  0  0  0  0
   -0.0967    5.1517    0.0000 C   0  0  0  0  0  0  0  0  0  0  0  0
    1.3299    5.6152    0.0000 C   0  0  0  0  0  0  0  0  0  0  0  0
    2.4446    4.6115    0.0000 C   0  0  0  0  0  0  0  0  0  0  0  0
    3.8712    5.0750    0.0000 C   0  0  0  0  0  0  0  0  0  0  0  0
    4.1831    6.5422    0.0000 C   0  0  0  0  0  0  0  0  0  0  0  0
    3.0684    7.5459    0.0000 C   0  0  0  0  0  0  0  0  0  0  0  0
    3.3802    9.0132    0.0000 C   0  0  0  0  0  0  0  0  0  0  0  0
    1.6418    7.0824    0.0000 C   0  0  0  0  0  0  0  0  0  0  0  0
    0.7062    2.6807    0.0000 C   0  0  0  0  0  0  0  0  0  0  0  0
    0.3943    1.2135    0.0000 C   0  0  0  0  0  0  0  0  0  0  0  0
    1.2760    0.0000    0.0000 N   0  0  0  0  0  0  0  0  0  0  0  0
    0.3943   -1.2135    0.0000 C   0  0  0  0  0  0  0  0  0  0  0  0
    0.8578   -2.6401    0.0000 C   0  0  0  0  0  0  0  0  0  0  0  0
    2.2844   -3.1036    0.0000 N   0  0  0  0  0  0  0  0  0  0  0  0
    2.2844   -4.6036    0.0000 N   0  0  0  0  0  0  0  0  0  0  0  0
    0.8578   -5.0672    0.0000 C   0  0  0  0  0  0  0  0  0  0  0  0
    0.2477   -6.4375    0.0000 C   0  0  0  0  0  0  0  0  0  0  0  0
   -1.2441   -6.5943    0.0000 C   0  0  0  0  0  0  0  0  0  0  0  0
   -1.8542   -7.9646    0.0000 C   0  0  0  0  0  0  0  0  0  0  0  0
   -3.3460   -8.1214    0.0000 F   0  0  0  0  0  0  0  0  0  0  0  0
   -0.9725   -9.1781    0.0000 F   0  0  0  0  0  0  0  0  0  0  0  0
   -2.1257   -5.3807    0.0000 C   0  0  0  0  0  0  0  0  0  0  0  0
   -1.5156   -4.0104    0.0000 C   0  0  0  0  0  0  0  0  0  0  0  0
   -0.0239   -3.8536    0.0000 C   0  0  0  0  0  0  0  0  0  0  0  0
   -1.0323   -0.7500    0.0000 C   0  0  0  0  0  0  0  0  0  0  0  0
   -1.0323    0.7500    0.0000 C   0  0  0  0  0  0  0  0  0  0  0  0
  1  2  2  0
  2  3  1  0
  3  4  2  0
  3  5  1  0
  5  6  1  0
  6  7  1  0
  7  8  1  0
  8  9  1  0
  9 10  2  0
 10 11  1  0
 11 12  1  0
 12 13  1  0
 13 14  2  0
 14 15  1  0
 15 16  2  0
 16 17  1  0
 17 18  1  0
 17 19  2  0
 11 20  2  0
 20 21  1  0
 21 22  1  0
 22 23  1  0
 23 24  1  0
 24 25  2  0
 25 26  1  0
 26 27  1  0
 27 28  2  0
 28 29  1  0
 29 30  1  0
 30 31  1  0
 30 32  1  0
 29 33  2  0
 33 34  1  0
 34 35  2  0
 23 36  2  0
 36 37  1  0
 37  9  1  0
 19 13  1  0
 37 21  2  0
 35 24  1  0
 35 27  1  0
M  END
>  <Compound_ID>  (297) 
CHEMBL4642453

>  <Molecule Name>  (297) 
nan

>  <Molecular Weight>  (297) 
500.55

>  <AlogP>  (297) 
6.23

>  <Smiles>  (297) 
C=CC(=O)NCCOc1cc(Cc2cccc(C)c2)cc2[nH]c(-c3n[nH]c4cc(C(F)F)ccc34)cc12

>  <Standard Type>  (297) 
IC50

>  <Standard Relation>  (297) 
'='

>  <Standard Units>  (297) 
nM

>  <Standard Value>  (297) 
34.0

>  <Assay ChEMBL ID>  (297) 
CHEMBL4603778

>  <Assay Description>  (297) 
Inhibition of ITK (unknown origin) using TK as substrate incubated for 30 mins by HTRF assay

>  <BAO Format ID>  (297) 
BAO_0000357

>  <BAO Label>  (297) 
single protein format

>  <Assay Organism>  (297) 
Homo sapiens

>  <Target ChEMBL ID>  (297) 
CHEMBL2959

>  <Target Name>  (297) 
Tyrosine-protein kinase ITK/TSK

>  <Target Organism>  (297) 
Homo sapiens

>  <Target Type>  (297) 
SINGLE PROTEIN

>  <Document ChEMBL ID>  (297) 
CHEMBL4602634

>  <Source Description>  (297) 
Scientific Literature

>  <Document Journal>  (297) 
Eur J Med Chem

>  <Document Year>  (297) 
2020.0

>  <Active>  (297) 
1.0

$$$$

     RDKit          2D

 40 44  0  0  0  0  0  0  0  0999 V2000
   -9.6403    1.3658    0.0000 C   0  0  0  0  0  0  0  0  0  0  0  0
   -8.5256    0.3621    0.0000 N   0  0  0  0  0  0  0  0  0  0  0  0
   -7.0990    0.8256    0.0000 C   0  0  0  0  0  0  0  0  0  0  0  0
   -5.9843   -0.1781    0.0000 C   0  0  0  0  0  0  0  0  0  0  0  0
   -6.2961   -1.6453    0.0000 N   0  0  0  0  0  0  0  0  0  0  0  0
   -5.1814   -2.6490    0.0000 C   0  0  0  0  0  0  0  0  0  0  0  0
   -3.7548   -2.1855    0.0000 C   0  0  0  0  0  0  0  0  0  0  0  0
   -2.6401   -3.1891    0.0000 C   0  0  0  0  0  0  0  0  0  0  0  0
   -1.2135   -2.7256    0.0000 N   0  0  0  0  0  0  0  0  0  0  0  0
   -0.0000   -3.6073    0.0000 C   0  0  0  0  0  0  0  0  0  0  0  0
   -0.0000   -5.1073    0.0000 N   0  0  0  0  0  0  0  0  0  0  0  0
   -1.2990   -5.8573    0.0000 C   0  0  0  0  0  0  0  0  0  0  0  0
   -2.5981   -5.1073    0.0000 O   0  0  0  0  0  0  0  0  0  0  0  0
   -1.2990   -7.3573    0.0000 C   0  0  0  0  0  0  0  0  0  0  0  0
   -2.5981   -8.1073    0.0000 C   0  0  0  0  0  0  0  0  0  0  0  0
   -2.5981   -9.6073    0.0000 C   0  0  0  0  0  0  0  0  0  0  0  0
   -1.2990  -10.3573    0.0000 C   0  0  0  0  0  0  0  0  0  0  0  0
   -1.2990  -11.8573    0.0000 C   0  0  0  0  0  0  0  0  0  0  0  0
   -1.2990  -13.3573    0.0000 N   0  0  0  0  0  0  0  0  0  0  0  0
    0.0000   -9.6073    0.0000 C   0  0  0  0  0  0  0  0  0  0  0  0
    0.0000   -8.1073    0.0000 C   0  0  0  0  0  0  0  0  0  0  0  0
    1.2135   -2.7256    0.0000 N   0  0  0  0  0  0  0  0  0  0  0  0
    0.7500   -1.2990    0.0000 C   0  0  0  0  0  0  0  0  0  0  0  0
    1.5000    0.0000    0.0000 C   0  0  0  0  0  0  0  0  0  0  0  0
    0.7500    1.2990    0.0000 C   0  0  0  0  0  0  0  0  0  0  0  0
    1.5000    2.5981    0.0000 N   0  0  0  0  0  0  0  0  0  0  0  0
    3.0000    2.5981    0.0000 C   0  0  0  0  0  0  0  0  0  0  0  0
    0.7500    3.8971    0.0000 C   0  0  0  0  0  0  0  0  0  0  0  0
   -0.7500    3.8971    0.0000 O   0  0  0  0  0  0  0  0  0  0  0  0
    1.5000    5.1962    0.0000 C   0  0  0  0  0  0  0  0  0  0  0  0
    3.0000    5.1962    0.0000 C   0  0  0  0  0  0  0  0  0  0  0  0
    3.7500    6.4952    0.0000 C   0  0  0  0  0  0  0  0  0  0  0  0
    3.0000    7.7942    0.0000 C   0  0  0  0  0  0  0  0  0  0  0  0
    1.5000    7.7942    0.0000 C   0  0  0  0  0  0  0  0  0  0  0  0
    0.7500    6.4952    0.0000 C   0  0  0  0  0  0  0  0  0  0  0  0
   -0.7500    1.2990    0.0000 C   0  0  0  0  0  0  0  0  0  0  0  0
   -1.5000    0.0000    0.0000 C   0  0  0  0  0  0  0  0  0  0  0  0
   -0.7500   -1.2990    0.0000 C   0  0  0  0  0  0  0  0  0  0  0  0
   -7.7227   -2.1088    0.0000 C   0  0  0  0  0  0  0  0  0  0  0  0
   -8.8374   -1.1051    0.0000 C   0  0  0  0  0  0  0  0  0  0  0  0
  1  2  1  0
  2  3  1  0
  3  4  1  0
  4  5  1  0
  5  6  1  0
  6  7  1  0
  7  8  1  0
  8  9  1  0
  9 10  1  0
 10 11  1  0
 11 12  1  0
 12 13  2  0
 12 14  1  0
 14 15  2  0
 15 16  1  0
 16 17  2  0
 17 18  1  0
 18 19  3  0
 17 20  1  0
 20 21  2  0
 10 22  2  0
 22 23  1  0
 23 24  2  0
 24 25  1  0
 25 26  1  0
 26 27  1  0
 26 28  1  0
 28 29  2  0
 28 30  1  0
 30 31  1  0
 31 32  1  0
 32 33  1  0
 33 34  1  0
 34 35  1  0
 25 36  2  0
 36 37  1  0
 37 38  2  0
  5 39  1  0
 39 40  1  0
 40  2  1  0
 38  9  1  0
 21 14  1  0
 38 23  1  0
 35 30  1  0
M  END
>  <Compound_ID>  (298) 
CHEMBL523633

>  <Molecule Name>  (298) 
nan

>  <Molecular Weight>  (298) 
541.7

>  <AlogP>  (298) 
4.34

>  <Smiles>  (298) 
CN1CCN(CCCn2c(NC(=O)c3ccc(C#N)cc3)nc3cc(N(C)C(=O)C4CCCCC4)ccc32)CC1

>  <Standard Type>  (298) 
IC50

>  <Standard Relation>  (298) 
'='

>  <Standard Units>  (298) 
nM

>  <Standard Value>  (298) 
5.0

>  <Assay ChEMBL ID>  (298) 
CHEMBL992563

>  <Assay Description>  (298) 
Inhibition of ITK by DELFIA assay

>  <BAO Format ID>  (298) 
BAO_0000357

>  <BAO Label>  (298) 
single protein format

>  <Assay Organism>  (298) 
None

>  <Target ChEMBL ID>  (298) 
CHEMBL2959

>  <Target Name>  (298) 
Tyrosine-protein kinase ITK/TSK

>  <Target Organism>  (298) 
Homo sapiens

>  <Target Type>  (298) 
SINGLE PROTEIN

>  <Document ChEMBL ID>  (298) 
CHEMBL1142468

>  <Source Description>  (298) 
Scientific Literature

>  <Document Journal>  (298) 
Bioorg Med Chem Lett

>  <Document Year>  (298) 
2008.0

>  <Active>  (298) 
1.0

$$$$

     RDKit          2D

 29 32  0  0  0  0  0  0  0  0999 V2000
    9.7500   -3.8971    0.0000 C   0  0  0  0  0  0  0  0  0  0  0  0
    8.2500   -3.8971    0.0000 C   0  0  0  0  0  0  0  0  0  0  0  0
    7.5000   -2.5981    0.0000 C   0  0  0  0  0  0  0  0  0  0  0  0
    8.2500   -1.2990    0.0000 O   0  0  0  0  0  0  0  0  0  0  0  0
    6.0000   -2.5981    0.0000 N   0  0  0  0  0  0  0  0  0  0  0  0
    5.2500   -1.2990    0.0000 C   0  0  0  0  0  0  0  0  0  0  0  0
    3.7500   -1.2990    0.0000 C   0  0  0  0  0  0  0  0  0  0  0  0
    3.0000    0.0000    0.0000 O   0  0  0  0  0  0  0  0  0  0  0  0
    1.5000    0.0000    0.0000 C   0  0  0  0  0  0  0  0  0  0  0  0
    0.7500   -1.2990    0.0000 C   0  0  0  0  0  0  0  0  0  0  0  0
   -0.7500   -1.2990    0.0000 C   0  0  0  0  0  0  0  0  0  0  0  0
   -1.5000    0.0000    0.0000 C   0  0  0  0  0  0  0  0  0  0  0  0
   -0.7500    1.2990    0.0000 C   0  0  0  0  0  0  0  0  0  0  0  0
   -1.2135    2.7256    0.0000 N   0  0  0  0  0  0  0  0  0  0  0  0
   -0.0000    3.6073    0.0000 C   0  0  0  0  0  0  0  0  0  0  0  0
   -0.0000    5.1073    0.0000 C   0  0  0  0  0  0  0  0  0  0  0  0
    1.2135    5.9890    0.0000 N   0  0  0  0  0  0  0  0  0  0  0  0
    0.7500    7.4156    0.0000 N   0  0  0  0  0  0  0  0  0  0  0  0
   -0.7500    7.4156    0.0000 C   0  0  0  0  0  0  0  0  0  0  0  0
   -1.7537    8.5303    0.0000 C   0  0  0  0  0  0  0  0  0  0  0  0
   -3.2209    8.2184    0.0000 C   0  0  0  0  0  0  0  0  0  0  0  0
   -4.2246    9.3331    0.0000 C   0  0  0  0  0  0  0  0  0  0  0  0
   -3.7611   10.7597    0.0000 F   0  0  0  0  0  0  0  0  0  0  0  0
   -5.6918    9.0213    0.0000 F   0  0  0  0  0  0  0  0  0  0  0  0
   -3.6844    6.7918    0.0000 C   0  0  0  0  0  0  0  0  0  0  0  0
   -2.6807    5.6771    0.0000 C   0  0  0  0  0  0  0  0  0  0  0  0
   -1.2135    5.9890    0.0000 C   0  0  0  0  0  0  0  0  0  0  0  0
    1.2135    2.7256    0.0000 C   0  0  0  0  0  0  0  0  0  0  0  0
    0.7500    1.2990    0.0000 C   0  0  0  0  0  0  0  0  0  0  0  0
  1  2  2  0
  2  3  1  0
  3  4  2  0
  3  5  1  0
  5  6  1  0
  6  7  1  0
  7  8  1  0
  8  9  1  0
  9 10  2  0
 10 11  1  0
 11 12  2  0
 12 13  1  0
 13 14  1  0
 14 15  1  0
 15 16  1  0
 16 17  2  0
 17 18  1  0
 18 19  1  0
 19 20  2  0
 20 21  1  0
 21 22  1  0
 22 23  1  0
 22 24  1  0
 21 25  2  0
 25 26  1  0
 26 27  2  0
 15 28  2  0
 28 29  1  0
 29  9  1  0
 29 13  2  0
 27 16  1  0
 27 19  1  0
M  END
>  <Compound_ID>  (299) 
CHEMBL4640099

>  <Molecule Name>  (299) 
nan

>  <Molecular Weight>  (299) 
396.4

>  <AlogP>  (299) 
4.33

>  <Smiles>  (299) 
C=CC(=O)NCCOc1cccc2[nH]c(-c3n[nH]c4cc(C(F)F)ccc34)cc12

>  <Standard Type>  (299) 
IC50

>  <Standard Relation>  (299) 
'='

>  <Standard Units>  (299) 
nM

>  <Standard Value>  (299) 
5.6

>  <Assay ChEMBL ID>  (299) 
CHEMBL4603778

>  <Assay Description>  (299) 
Inhibition of ITK (unknown origin) using TK as substrate incubated for 30 mins by HTRF assay

>  <BAO Format ID>  (299) 
BAO_0000357

>  <BAO Label>  (299) 
single protein format

>  <Assay Organism>  (299) 
Homo sapiens

>  <Target ChEMBL ID>  (299) 
CHEMBL2959

>  <Target Name>  (299) 
Tyrosine-protein kinase ITK/TSK

>  <Target Organism>  (299) 
Homo sapiens

>  <Target Type>  (299) 
SINGLE PROTEIN

>  <Document ChEMBL ID>  (299) 
CHEMBL4602634

>  <Source Description>  (299) 
Scientific Literature

>  <Document Journal>  (299) 
Eur J Med Chem

>  <Document Year>  (299) 
2020.0

>  <Active>  (299) 
1.0

$$$$

     RDKit          2D

 36 39  0  0  0  0  0  0  0  0999 V2000
    1.5000   -5.1962    0.0000 C   0  0  0  0  0  0  0  0  0  0  0  0
    0.7500   -3.8971    0.0000 C   0  0  0  0  0  0  0  0  0  0  0  0
    1.5000   -2.5981    0.0000 N   0  0  0  0  0  0  0  0  0  0  0  0
    3.0000   -2.5981    0.0000 C   0  0  0  0  0  0  0  0  0  0  0  0
    3.7500   -1.2990    0.0000 O   0  0  0  0  0  0  0  0  0  0  0  0
    3.7500   -3.8971    0.0000 C   0  0  0  0  0  0  0  0  0  0  0  0
    3.0000   -5.1962    0.0000 C   0  0  0  0  0  0  0  0  0  0  0  0
    3.7500   -6.4952    0.0000 C   0  0  0  0  0  0  0  0  0  0  0  0
    5.2500   -6.4952    0.0000 C   0  0  0  0  0  0  0  0  0  0  0  0
    6.0000   -5.1962    0.0000 C   0  0  0  0  0  0  0  0  0  0  0  0
    5.2500   -3.8971    0.0000 C   0  0  0  0  0  0  0  0  0  0  0  0
    0.7500   -1.2990    0.0000 C   0  0  0  0  0  0  0  0  0  0  0  0
    1.5000    0.0000    0.0000 C   0  0  0  0  0  0  0  0  0  0  0  0
    0.7500    1.2990    0.0000 C   0  0  0  0  0  0  0  0  0  0  0  0
   -0.7500    1.2990    0.0000 C   0  0  0  0  0  0  0  0  0  0  0  0
   -1.5000    0.0000    0.0000 C   0  0  0  0  0  0  0  0  0  0  0  0
   -0.7500   -1.2990    0.0000 C   0  0  0  0  0  0  0  0  0  0  0  0
   -2.9672    0.3119    0.0000 N   0  0  0  0  0  0  0  0  0  0  0  0
   -3.1240    1.8037    0.0000 C   0  0  0  0  0  0  0  0  0  0  0  0
   -4.4231    2.5537    0.0000 N   0  0  0  0  0  0  0  0  0  0  0  0
   -4.4231    4.0537    0.0000 C   0  0  0  0  0  0  0  0  0  0  0  0
   -3.1240    4.8037    0.0000 O   0  0  0  0  0  0  0  0  0  0  0  0
   -5.7221    4.8037    0.0000 C   0  0  0  0  0  0  0  0  0  0  0  0
   -5.7221    6.3037    0.0000 C   0  0  0  0  0  0  0  0  0  0  0  0
   -7.0211    7.0537    0.0000 C   0  0  0  0  0  0  0  0  0  0  0  0
   -8.3202    6.3037    0.0000 C   0  0  0  0  0  0  0  0  0  0  0  0
   -9.6192    7.0537    0.0000 C   0  0  0  0  0  0  0  0  0  0  0  0
  -10.9182    7.8037    0.0000 N   0  0  0  0  0  0  0  0  0  0  0  0
   -8.3202    4.8037    0.0000 C   0  0  0  0  0  0  0  0  0  0  0  0
   -7.0211    4.0537    0.0000 C   0  0  0  0  0  0  0  0  0  0  0  0
   -1.7537    2.4138    0.0000 N   0  0  0  0  0  0  0  0  0  0  0  0
   -1.4418    3.8810    0.0000 C   0  0  0  0  0  0  0  0  0  0  0  0
   -0.0152    4.3445    0.0000 C   0  0  0  0  0  0  0  0  0  0  0  0
    0.2966    5.8117    0.0000 C   0  0  0  0  0  0  0  0  0  0  0  0
    1.7232    6.2752    0.0000 N   0  0  0  0  0  0  0  0  0  0  0  0
   -0.8181    6.8154    0.0000 O   0  0  0  0  0  0  0  0  0  0  0  0
  1  2  1  0
  2  3  1  0
  3  4  1  0
  4  5  2  0
  4  6  1  0
  6  7  1  0
  7  8  1  0
  8  9  1  0
  9 10  1  0
 10 11  1  0
  3 12  1  0
 12 13  2  0
 13 14  1  0
 14 15  2  0
 15 16  1  0
 16 17  2  0
 16 18  1  0
 18 19  2  0
 19 20  1  0
 20 21  1  0
 21 22  2  0
 21 23  1  0
 23 24  2  0
 24 25  1  0
 25 26  2  0
 26 27  1  0
 27 28  3  0
 26 29  1  0
 29 30  2  0
 19 31  1  0
 31 32  1  0
 32 33  1  0
 33 34  1  0
 34 35  1  0
 34 36  2  0
 11  6  1  0
 17 12  1  0
 30 23  1  0
 31 15  1  0
M  END
>  <Compound_ID>  (300) 
CHEMBL458787

>  <Molecule Name>  (300) 
nan

>  <Molecular Weight>  (300) 
486.58

>  <AlogP>  (300) 
3.97

>  <Smiles>  (300) 
CCN(C(=O)C1CCCCC1)c1ccc2c(c1)nc(NC(=O)c1ccc(C#N)cc1)n2CCC(N)=O

>  <Standard Type>  (300) 
IC50

>  <Standard Relation>  (300) 
'='

>  <Standard Units>  (300) 
nM

>  <Standard Value>  (300) 
7.0

>  <Assay ChEMBL ID>  (300) 
CHEMBL992563

>  <Assay Description>  (300) 
Inhibition of ITK by DELFIA assay

>  <BAO Format ID>  (300) 
BAO_0000357

>  <BAO Label>  (300) 
single protein format

>  <Assay Organism>  (300) 
None

>  <Target ChEMBL ID>  (300) 
CHEMBL2959

>  <Target Name>  (300) 
Tyrosine-protein kinase ITK/TSK

>  <Target Organism>  (300) 
Homo sapiens

>  <Target Type>  (300) 
SINGLE PROTEIN

>  <Document ChEMBL ID>  (300) 
CHEMBL1142468

>  <Source Description>  (300) 
Scientific Literature

>  <Document Journal>  (300) 
Bioorg Med Chem Lett

>  <Document Year>  (300) 
2008.0

>  <Active>  (300) 
1.0

$$$$

     RDKit          2D

 38 42  0  0  0  0  0  0  0  0999 V2000
  -11.1975    2.9107    0.0000 C   0  0  0  0  0  0  0  0  0  0  0  0
   -9.7709    3.3742    0.0000 C   0  0  0  0  0  0  0  0  0  0  0  0
   -8.6562    2.3705    0.0000 C   0  0  0  0  0  0  0  0  0  0  0  0
   -8.9681    0.9033    0.0000 O   0  0  0  0  0  0  0  0  0  0  0  0
   -7.2296    2.8340    0.0000 N   0  0  0  0  0  0  0  0  0  0  0  0
   -6.1149    1.8303    0.0000 C   0  0  0  0  0  0  0  0  0  0  0  0
   -4.6883    2.2939    0.0000 C   0  0  0  0  0  0  0  0  0  0  0  0
   -3.5736    1.2902    0.0000 O   0  0  0  0  0  0  0  0  0  0  0  0
   -2.1470    1.7537    0.0000 C   0  0  0  0  0  0  0  0  0  0  0  0
   -1.8351    3.2209    0.0000 C   0  0  0  0  0  0  0  0  0  0  0  0
   -0.4086    3.6844    0.0000 C   0  0  0  0  0  0  0  0  0  0  0  0
   -0.0967    5.1517    0.0000 C   0  0  0  0  0  0  0  0  0  0  0  0
    1.3299    5.6152    0.0000 C   0  0  0  0  0  0  0  0  0  0  0  0
    2.4446    4.6115    0.0000 C   0  0  0  0  0  0  0  0  0  0  0  0
    3.8712    5.0750    0.0000 C   0  0  0  0  0  0  0  0  0  0  0  0
    4.1831    6.5422    0.0000 C   0  0  0  0  0  0  0  0  0  0  0  0
    3.0684    7.5459    0.0000 C   0  0  0  0  0  0  0  0  0  0  0  0
    1.6418    7.0824    0.0000 C   0  0  0  0  0  0  0  0  0  0  0  0
    0.5271    8.0861    0.0000 O   0  0  0  0  0  0  0  0  0  0  0  0
    0.8389    9.5533    0.0000 C   0  0  0  0  0  0  0  0  0  0  0  0
    0.7062    2.6807    0.0000 C   0  0  0  0  0  0  0  0  0  0  0  0
    0.3943    1.2135    0.0000 C   0  0  0  0  0  0  0  0  0  0  0  0
    1.2760    0.0000    0.0000 N   0  0  0  0  0  0  0  0  0  0  0  0
    0.3943   -1.2135    0.0000 C   0  0  0  0  0  0  0  0  0  0  0  0
    0.8578   -2.6401    0.0000 C   0  0  0  0  0  0  0  0  0  0  0  0
    2.2844   -3.1036    0.0000 N   0  0  0  0  0  0  0  0  0  0  0  0
    2.2844   -4.6036    0.0000 N   0  0  0  0  0  0  0  0  0  0  0  0
    0.8578   -5.0672    0.0000 C   0  0  0  0  0  0  0  0  0  0  0  0
    0.2477   -6.4375    0.0000 C   0  0  0  0  0  0  0  0  0  0  0  0
   -1.2441   -6.5943    0.0000 C   0  0  0  0  0  0  0  0  0  0  0  0
   -1.8542   -7.9646    0.0000 C   0  0  0  0  0  0  0  0  0  0  0  0
   -3.3460   -8.1214    0.0000 F   0  0  0  0  0  0  0  0  0  0  0  0
   -0.9725   -9.1781    0.0000 F   0  0  0  0  0  0  0  0  0  0  0  0
   -2.1257   -5.3807    0.0000 C   0  0  0  0  0  0  0  0  0  0  0  0
   -1.5156   -4.0104    0.0000 C   0  0  0  0  0  0  0  0  0  0  0  0
   -0.0239   -3.8536    0.0000 C   0  0  0  0  0  0  0  0  0  0  0  0
   -1.0323   -0.7500    0.0000 C   0  0  0  0  0  0  0  0  0  0  0  0
   -1.0323    0.7500    0.0000 C   0  0  0  0  0  0  0  0  0  0  0  0
  1  2  2  0
  2  3  1  0
  3  4  2  0
  3  5  1  0
  5  6  1  0
  6  7  1  0
  7  8  1  0
  8  9  1  0
  9 10  2  0
 10 11  1  0
 11 12  1  0
 12 13  1  0
 13 14  2  0
 14 15  1  0
 15 16  2  0
 16 17  1  0
 17 18  2  0
 18 19  1  0
 19 20  1  0
 11 21  2  0
 21 22  1  0
 22 23  1  0
 23 24  1  0
 24 25  1  0
 25 26  2  0
 26 27  1  0
 27 28  1  0
 28 29  2  0
 29 30  1  0
 30 31  1  0
 31 32  1  0
 31 33  1  0
 30 34  2  0
 34 35  1  0
 35 36  2  0
 24 37  2  0
 37 38  1  0
 38  9  1  0
 18 13  1  0
 38 22  2  0
 36 25  1  0
 36 28  1  0
M  END
>  <Compound_ID>  (301) 
CHEMBL4644593

>  <Molecule Name>  (301) 
nan

>  <Molecular Weight>  (301) 
516.55

>  <AlogP>  (301) 
5.93

>  <Smiles>  (301) 
C=CC(=O)NCCOc1cc(Cc2ccccc2OC)cc2[nH]c(-c3n[nH]c4cc(C(F)F)ccc34)cc12

>  <Standard Type>  (301) 
IC50

>  <Standard Relation>  (301) 
'='

>  <Standard Units>  (301) 
nM

>  <Standard Value>  (301) 
32.0

>  <Assay ChEMBL ID>  (301) 
CHEMBL4603778

>  <Assay Description>  (301) 
Inhibition of ITK (unknown origin) using TK as substrate incubated for 30 mins by HTRF assay

>  <BAO Format ID>  (301) 
BAO_0000357

>  <BAO Label>  (301) 
single protein format

>  <Assay Organism>  (301) 
Homo sapiens

>  <Target ChEMBL ID>  (301) 
CHEMBL2959

>  <Target Name>  (301) 
Tyrosine-protein kinase ITK/TSK

>  <Target Organism>  (301) 
Homo sapiens

>  <Target Type>  (301) 
SINGLE PROTEIN

>  <Document ChEMBL ID>  (301) 
CHEMBL4602634

>  <Source Description>  (301) 
Scientific Literature

>  <Document Journal>  (301) 
Eur J Med Chem

>  <Document Year>  (301) 
2020.0

>  <Active>  (301) 
1.0

$$$$

     RDKit          2D

 43 49  0  0  0  0  0  0  0  0999 V2000
  -10.2497   -1.4504    0.0000 C   0  0  0  0  0  0  0  0  0  0  0  0
   -8.8231   -1.9139    0.0000 C   0  0  0  0  0  0  0  0  0  0  0  0
   -8.5112   -3.3811    0.0000 C   0  0  0  0  0  0  0  0  0  0  0  0
   -9.6260   -4.3848    0.0000 O   0  0  0  0  0  0  0  0  0  0  0  0
   -7.0847   -3.8447    0.0000 N   0  0  0  0  0  0  0  0  0  0  0  0
   -6.6211   -5.2713    0.0000 C   0  0  0  0  0  0  0  0  0  0  0  0
   -5.1211   -5.2713    0.0000 C   0  0  0  0  0  0  0  0  0  0  0  0
   -4.6576   -3.8447    0.0000 C   0  0  0  0  0  0  0  0  0  0  0  0
   -5.8711   -2.9630    0.0000 C   0  0  0  0  0  0  0  0  0  0  0  0
   -3.3211   -4.5257    0.0000 C   0  0  0  0  0  0  0  0  0  0  0  0
   -2.6401   -3.1891    0.0000 C   0  0  0  0  0  0  0  0  0  0  0  0
   -1.2135   -2.7256    0.0000 N   0  0  0  0  0  0  0  0  0  0  0  0
   -0.0000   -3.6073    0.0000 C   0  0  0  0  0  0  0  0  0  0  0  0
   -0.0000   -5.1073    0.0000 N   0  0  0  0  0  0  0  0  0  0  0  0
   -1.2990   -5.8573    0.0000 C   0  0  0  0  0  0  0  0  0  0  0  0
   -2.5981   -5.1073    0.0000 O   0  0  0  0  0  0  0  0  0  0  0  0
   -1.2990   -7.3573    0.0000 C   0  0  0  0  0  0  0  0  0  0  0  0
   -0.0855   -8.2390    0.0000 C   0  0  0  0  0  0  0  0  0  0  0  0
   -0.5490   -9.6656    0.0000 C   0  0  0  0  0  0  0  0  0  0  0  0
   -2.0490   -9.6656    0.0000 C   0  0  0  0  0  0  0  0  0  0  0  0
   -2.9307  -10.8791    0.0000 C   0  0  0  0  0  0  0  0  0  0  0  0
   -2.4672  -12.3057    0.0000 C   0  0  0  0  0  0  0  0  0  0  0  0
   -3.6807  -13.1874    0.0000 N   0  0  0  0  0  0  0  0  0  0  0  0
   -4.8942  -12.3057    0.0000 C   0  0  0  0  0  0  0  0  0  0  0  0
   -4.4307  -10.8791    0.0000 O   0  0  0  0  0  0  0  0  0  0  0  0
   -2.5126   -8.2390    0.0000 S   0  0  0  0  0  0  0  0  0  0  0  0
    1.2135   -2.7256    0.0000 N   0  0  0  0  0  0  0  0  0  0  0  0
    0.7500   -1.2990    0.0000 C   0  0  0  0  0  0  0  0  0  0  0  0
    1.5000    0.0000    0.0000 C   0  0  0  0  0  0  0  0  0  0  0  0
    0.7500    1.2990    0.0000 C   0  0  0  0  0  0  0  0  0  0  0  0
    1.5000    2.5981    0.0000 C   0  0  0  0  0  0  0  0  0  0  0  0
    3.0000    2.5981    0.0000 N   0  0  0  0  0  0  0  0  0  0  0  0
    3.7500    3.8971    0.0000 C   0  0  0  0  0  0  0  0  0  0  0  0
    5.2500    3.8971    0.0000 C   0  0  0  0  0  0  0  0  0  0  0  0
    6.0000    5.1962    0.0000 C   0  0  0  0  0  0  0  0  0  0  0  0
    5.2500    6.4952    0.0000 C   0  0  0  0  0  0  0  0  0  0  0  0
    6.0000    7.7942    0.0000 O   0  0  0  0  0  0  0  0  0  0  0  0
    3.7500    6.4952    0.0000 C   0  0  0  0  0  0  0  0  0  0  0  0
    3.0000    5.1962    0.0000 C   0  0  0  0  0  0  0  0  0  0  0  0
   -0.7500    1.2990    0.0000 C   0  0  0  0  0  0  0  0  0  0  0  0
   -1.5000    0.0000    0.0000 C   0  0  0  0  0  0  0  0  0  0  0  0
   -0.7500   -1.2990    0.0000 C   0  0  0  0  0  0  0  0  0  0  0  0
   -3.9766   -2.5082    0.0000 C   0  0  0  0  0  0  0  0  0  0  0  0
  1  2  2  0
  2  3  1  0
  3  4  2  0
  3  5  1  0
  5  6  1  0
  6  7  1  0
  8  7  1  1
  8  9  1  0
  8 10  1  0
 10 11  1  0
 11 12  1  1
 12 13  1  0
 13 14  1  0
 14 15  1  0
 15 16  2  0
 15 17  1  0
 17 18  2  0
 18 19  1  0
 19 20  2  0
 20 21  1  0
 21 22  2  0
 22 23  1  0
 23 24  2  0
 24 25  1  0
 20 26  1  0
 13 27  2  0
 27 28  1  0
 28 29  2  0
 29 30  1  0
 30 31  1  0
 31 32  1  0
 33 32  1  6
 33 34  1  0
 34 35  1  0
 35 36  1  0
 36 37  1  1
 36 38  1  0
 38 39  1  0
 30 40  2  0
 40 41  1  0
 41 42  2  0
 11 43  1  0
  9  5  1  0
 42 12  1  0
 43  8  1  0
 26 17  1  0
 42 28  1  0
 25 21  1  0
 39 33  1  0
M  END
>  <Compound_ID>  (302) 
CHEMBL4216529

>  <Molecule Name>  (302) 
nan

>  <Molecular Weight>  (302) 
600.75

>  <AlogP>  (302) 
5.14

>  <Smiles>  (302) 
C=CC(=O)N1CC[C@]2(C1)C[C@H](n1c(NC(=O)c3ccc(-c4cnco4)s3)nc3cc(CN[C@H]4CC[C@H](O)CC4)ccc31)C2

>  <Standard Type>  (302) 
IC50

>  <Standard Relation>  (302) 
'='

>  <Standard Units>  (302) 
nM

>  <Standard Value>  (302) 
0.64

>  <Assay ChEMBL ID>  (302) 
CHEMBL4199503

>  <Assay Description>  (302) 
Inhibition of ITK (unknown origin) using fluorescently labeled peptide as substrate after 3 hrs by microfluidic mobility shift assay

>  <BAO Format ID>  (302) 
BAO_0000357

>  <BAO Label>  (302) 
single protein format

>  <Assay Organism>  (302) 
Homo sapiens

>  <Target ChEMBL ID>  (302) 
CHEMBL2959

>  <Target Name>  (302) 
Tyrosine-protein kinase ITK/TSK

>  <Target Organism>  (302) 
Homo sapiens

>  <Target Type>  (302) 
SINGLE PROTEIN

>  <Document ChEMBL ID>  (302) 
CHEMBL4196110

>  <Source Description>  (302) 
Scientific Literature

>  <Document Journal>  (302) 
ACS Med Chem Lett

>  <Document Year>  (302) 
2018.0

>  <Active>  (302) 
1.0

$$$$

     RDKit          2D

 36 41  0  0  0  0  0  0  0  0999 V2000
  -10.2497   -1.4504    0.0000 C   0  0  0  0  0  0  0  0  0  0  0  0
   -8.8231   -1.9139    0.0000 C   0  0  0  0  0  0  0  0  0  0  0  0
   -8.5112   -3.3811    0.0000 C   0  0  0  0  0  0  0  0  0  0  0  0
   -9.6260   -4.3848    0.0000 O   0  0  0  0  0  0  0  0  0  0  0  0
   -7.0847   -3.8447    0.0000 N   0  0  0  0  0  0  0  0  0  0  0  0
   -6.6211   -5.2713    0.0000 C   0  0  0  0  0  0  0  0  0  0  0  0
   -5.1211   -5.2713    0.0000 C   0  0  0  0  0  0  0  0  0  0  0  0
   -4.6576   -3.8447    0.0000 C   0  0  0  0  0  0  0  0  0  0  0  0
   -5.8711   -2.9630    0.0000 C   0  0  0  0  0  0  0  0  0  0  0  0
   -3.3211   -4.5257    0.0000 C   0  0  0  0  0  0  0  0  0  0  0  0
   -2.6401   -3.1891    0.0000 C   0  0  0  0  0  0  0  0  0  0  0  0
   -1.2135   -2.7256    0.0000 N   0  0  0  0  0  0  0  0  0  0  0  0
   -0.0000   -3.6073    0.0000 C   0  0  0  0  0  0  0  0  0  0  0  0
   -0.0000   -5.1073    0.0000 N   0  0  0  0  0  0  0  0  0  0  0  0
   -1.2990   -5.8573    0.0000 C   0  0  0  0  0  0  0  0  0  0  0  0
   -2.5981   -5.1073    0.0000 O   0  0  0  0  0  0  0  0  0  0  0  0
   -1.2990   -7.3573    0.0000 C   0  0  0  0  0  0  0  0  0  0  0  0
   -0.0855   -8.2390    0.0000 C   0  0  0  0  0  0  0  0  0  0  0  0
   -0.5490   -9.6656    0.0000 C   0  0  0  0  0  0  0  0  0  0  0  0
   -2.0490   -9.6656    0.0000 C   0  0  0  0  0  0  0  0  0  0  0  0
   -2.9307  -10.8791    0.0000 C   0  0  0  0  0  0  0  0  0  0  0  0
   -4.4225  -10.7223    0.0000 C   0  0  0  0  0  0  0  0  0  0  0  0
   -5.3042  -11.9358    0.0000 C   0  0  0  0  0  0  0  0  0  0  0  0
   -4.6941  -13.3061    0.0000 N   0  0  0  0  0  0  0  0  0  0  0  0
   -3.2023  -13.4629    0.0000 C   0  0  0  0  0  0  0  0  0  0  0  0
   -2.5922  -14.8333    0.0000 O   0  0  0  0  0  0  0  0  0  0  0  0
   -2.3206  -12.2494    0.0000 C   0  0  0  0  0  0  0  0  0  0  0  0
   -2.5126   -8.2390    0.0000 S   0  0  0  0  0  0  0  0  0  0  0  0
    1.2135   -2.7256    0.0000 N   0  0  0  0  0  0  0  0  0  0  0  0
    0.7500   -1.2990    0.0000 C   0  0  0  0  0  0  0  0  0  0  0  0
    1.5000    0.0000    0.0000 C   0  0  0  0  0  0  0  0  0  0  0  0
    0.7500    1.2990    0.0000 C   0  0  0  0  0  0  0  0  0  0  0  0
   -0.7500    1.2990    0.0000 C   0  0  0  0  0  0  0  0  0  0  0  0
   -1.5000    0.0000    0.0000 C   0  0  0  0  0  0  0  0  0  0  0  0
   -0.7500   -1.2990    0.0000 C   0  0  0  0  0  0  0  0  0  0  0  0
   -3.9766   -2.5082    0.0000 C   0  0  0  0  0  0  0  0  0  0  0  0
  1  2  2  0
  2  3  1  0
  3  4  2  0
  3  5  1  0
  5  6  1  0
  6  7  1  0
  8  7  1  1
  8  9  1  0
  8 10  1  0
 10 11  1  0
 11 12  1  1
 12 13  1  0
 13 14  1  0
 14 15  1  0
 15 16  2  0
 15 17  1  0
 17 18  2  0
 18 19  1  0
 19 20  2  0
 20 21  1  0
 21 22  1  0
 22 23  2  0
 23 24  1  0
 24 25  1  0
 25 26  2  0
 25 27  1  0
 20 28  1  0
 13 29  2  0
 29 30  1  0
 30 31  2  0
 31 32  1  0
 32 33  2  0
 33 34  1  0
 34 35  2  0
 11 36  1  0
  9  5  1  0
 35 12  1  0
 36  8  1  0
 28 17  1  0
 35 30  1  0
 27 21  2  0
M  END
>  <Compound_ID>  (303) 
CHEMBL4206765

>  <Molecule Name>  (303) 
nan

>  <Molecular Weight>  (303) 
499.6

>  <AlogP>  (303) 
4.45

>  <Smiles>  (303) 
C=CC(=O)N1CC[C@]2(C1)C[C@H](n1c(NC(=O)c3ccc(-c4cc[nH]c(=O)c4)s3)nc3ccccc31)C2

>  <Standard Type>  (303) 
IC50

>  <Standard Relation>  (303) 
'='

>  <Standard Units>  (303) 
nM

>  <Standard Value>  (303) 
0.53

>  <Assay ChEMBL ID>  (303) 
CHEMBL4199503

>  <Assay Description>  (303) 
Inhibition of ITK (unknown origin) using fluorescently labeled peptide as substrate after 3 hrs by microfluidic mobility shift assay

>  <BAO Format ID>  (303) 
BAO_0000357

>  <BAO Label>  (303) 
single protein format

>  <Assay Organism>  (303) 
Homo sapiens

>  <Target ChEMBL ID>  (303) 
CHEMBL2959

>  <Target Name>  (303) 
Tyrosine-protein kinase ITK/TSK

>  <Target Organism>  (303) 
Homo sapiens

>  <Target Type>  (303) 
SINGLE PROTEIN

>  <Document ChEMBL ID>  (303) 
CHEMBL4196110

>  <Source Description>  (303) 
Scientific Literature

>  <Document Journal>  (303) 
ACS Med Chem Lett

>  <Document Year>  (303) 
2018.0

>  <Active>  (303) 
1.0

$$$$

     RDKit          2D

 36 40  0  0  0  0  0  0  0  0999 V2000
  -10.3354   -2.5210    0.0000 C   0  0  0  0  0  0  0  0  0  0  0  0
   -8.9651   -1.9109    0.0000 C   0  0  0  0  0  0  0  0  0  0  0  0
   -8.8083   -0.4191    0.0000 O   0  0  0  0  0  0  0  0  0  0  0  0
   -7.7515   -2.7926    0.0000 N   0  0  0  0  0  0  0  0  0  0  0  0
   -6.3812   -2.1825    0.0000 C   0  0  0  0  0  0  0  0  0  0  0  0
   -6.2244   -0.6907    0.0000 C   0  0  0  0  0  0  0  0  0  0  0  0
   -4.8541   -0.0806    0.0000 C   0  0  0  0  0  0  0  0  0  0  0  0
   -3.6406   -0.9623    0.0000 C   0  0  0  0  0  0  0  0  0  0  0  0
   -3.7974   -2.4540    0.0000 C   0  0  0  0  0  0  0  0  0  0  0  0
   -2.5838   -3.3357    0.0000 C   0  0  0  0  0  0  0  0  0  0  0  0
   -2.7406   -4.8275    0.0000 C   0  0  0  0  0  0  0  0  0  0  0  0
   -1.5271   -5.7092    0.0000 C   0  0  0  0  0  0  0  0  0  0  0  0
   -0.1568   -5.0991    0.0000 C   0  0  0  0  0  0  0  0  0  0  0  0
    1.0567   -5.9808    0.0000 C   0  0  0  0  0  0  0  0  0  0  0  0
    0.8999   -7.4725    0.0000 N   0  0  0  0  0  0  0  0  0  0  0  0
    2.4271   -5.3707    0.0000 O   0  0  0  0  0  0  0  0  0  0  0  0
   -0.0000   -3.6073    0.0000 C   0  0  0  0  0  0  0  0  0  0  0  0
    1.2135   -2.7256    0.0000 N   0  0  0  0  0  0  0  0  0  0  0  0
    0.7500   -1.2990    0.0000 C   0  0  0  0  0  0  0  0  0  0  0  0
    1.5000    0.0000    0.0000 C   0  0  0  0  0  0  0  0  0  0  0  0
    0.7500    1.2990    0.0000 C   0  0  0  0  0  0  0  0  0  0  0  0
    1.5000    2.5981    0.0000 C   0  0  0  0  0  0  0  0  0  0  0  0
    0.7500    3.8971    0.0000 O   0  0  0  0  0  0  0  0  0  0  0  0
    3.0000    2.5981    0.0000 N   0  0  0  0  0  0  0  0  0  0  0  0
    3.7500    1.2990    0.0000 C   0  0  0  0  0  0  0  0  0  0  0  0
    5.2500    1.2990    0.0000 C   0  0  0  0  0  0  0  0  0  0  0  0
    6.0000    2.5981    0.0000 N   0  0  0  0  0  0  0  0  0  0  0  0
    7.5000    2.5981    0.0000 C   0  0  0  0  0  0  0  0  0  0  0  0
    5.2500    3.8971    0.0000 C   0  0  0  0  0  0  0  0  0  0  0  0
    3.7500    3.8971    0.0000 C   0  0  0  0  0  0  0  0  0  0  0  0
   -0.7500    1.2990    0.0000 C   0  0  0  0  0  0  0  0  0  0  0  0
   -1.5000    0.0000    0.0000 C   0  0  0  0  0  0  0  0  0  0  0  0
   -0.7500   -1.2990    0.0000 C   0  0  0  0  0  0  0  0  0  0  0  0
   -1.2135   -2.7256    0.0000 C   0  0  0  0  0  0  0  0  0  0  0  0
   -5.1677   -3.0642    0.0000 C   0  0  0  0  0  0  0  0  0  0  0  0
   -5.3245   -4.5559    0.0000 C   0  0  0  0  0  0  0  0  0  0  0  0
  1  2  1  0
  2  3  2  0
  2  4  1  0
  4  5  1  0
  5  6  2  0
  6  7  1  0
  7  8  2  0
  8  9  1  0
  9 10  1  0
 10 11  2  0
 11 12  1  0
 12 13  2  0
 13 14  1  0
 14 15  1  0
 14 16  2  0
 13 17  1  0
 17 18  1  0
 18 19  1  0
 19 20  2  0
 20 21  1  0
 21 22  1  0
 22 23  2  0
 22 24  1  0
 24 25  1  0
 25 26  1  0
 26 27  1  0
 27 28  1  0
 27 29  1  0
 29 30  1  0
 21 31  2  0
 31 32  1  0
 32 33  2  0
 33 34  1  0
  9 35  2  0
 35 36  1  0
 35  5  1  0
 34 10  1  0
 34 17  2  0
 33 19  1  0
 30 24  1  0
M  END
>  <Compound_ID>  (304) 
CHEMBL3621515

>  <Molecule Name>  (304) 
nan

>  <Molecular Weight>  (304) 
483.57

>  <AlogP>  (304) 
3.74

>  <Smiles>  (304) 
CC(=O)Nc1cccc(-c2ccc(C(N)=O)c3[nH]c4cc(C(=O)N5CCN(C)CC5)ccc4c23)c1C

>  <Standard Type>  (304) 
IC50

>  <Standard Relation>  (304) 
'='

>  <Standard Units>  (304) 
nM

>  <Standard Value>  (304) 
55.0

>  <Assay ChEMBL ID>  (304) 
CHEMBL3627425

>  <Assay Description>  (304) 
Inhibition of ITK (unknown origin)

>  <BAO Format ID>  (304) 
BAO_0000357

>  <BAO Label>  (304) 
single protein format

>  <Assay Organism>  (304) 
Homo sapiens

>  <Target ChEMBL ID>  (304) 
CHEMBL2959

>  <Target Name>  (304) 
Tyrosine-protein kinase ITK/TSK

>  <Target Organism>  (304) 
Homo sapiens

>  <Target Type>  (304) 
SINGLE PROTEIN

>  <Document ChEMBL ID>  (304) 
CHEMBL3621099

>  <Source Description>  (304) 
Scientific Literature

>  <Document Journal>  (304) 
Bioorg Med Chem Lett

>  <Document Year>  (304) 
2015.0

>  <Active>  (304) 
1.0

$$$$

     RDKit          2D

 33 38  0  0  0  0  0  0  0  0999 V2000
   -3.9856    9.4688    0.0000 C   0  0  0  0  0  0  0  0  0  0  0  0
   -5.4122    9.0053    0.0000 N   0  0  0  0  0  0  0  0  0  0  0  0
   -6.5269   10.0090    0.0000 C   0  0  0  0  0  0  0  0  0  0  0  0
   -7.9535    9.5455    0.0000 O   0  0  0  0  0  0  0  0  0  0  0  0
   -6.2150   11.4762    0.0000 C   0  0  0  0  0  0  0  0  0  0  0  0
   -4.7478   11.1643    0.0000 F   0  0  0  0  0  0  0  0  0  0  0  0
   -7.6823   11.7881    0.0000 F   0  0  0  0  0  0  0  0  0  0  0  0
   -5.9032   12.9434    0.0000 C   0  0  0  0  0  0  0  0  0  0  0  0
   -4.4766   13.4070    0.0000 C   0  0  0  0  0  0  0  0  0  0  0  0
   -4.1647   14.8742    0.0000 C   0  0  0  0  0  0  0  0  0  0  0  0
   -5.2794   15.8779    0.0000 O   0  0  0  0  0  0  0  0  0  0  0  0
   -6.7060   15.4144    0.0000 C   0  0  0  0  0  0  0  0  0  0  0  0
   -7.0179   13.9471    0.0000 C   0  0  0  0  0  0  0  0  0  0  0  0
   -5.7240    7.5381    0.0000 C   0  0  0  0  0  0  0  0  0  0  0  0
   -7.1506    7.0746    0.0000 C   0  0  0  0  0  0  0  0  0  0  0  0
   -7.4625    5.6073    0.0000 C   0  0  0  0  0  0  0  0  0  0  0  0
   -6.3478    4.6036    0.0000 C   0  0  0  0  0  0  0  0  0  0  0  0
   -6.3478    3.1036    0.0000 N   0  0  0  0  0  0  0  0  0  0  0  0
   -4.9212    2.6401    0.0000 C   0  0  0  0  0  0  0  0  0  0  0  0
   -4.4577    1.2135    0.0000 C   0  0  0  0  0  0  0  0  0  0  0  0
   -5.3394   -0.0000    0.0000 N   0  0  0  0  0  0  0  0  0  0  0  0
   -4.4577   -1.2135    0.0000 N   0  0  0  0  0  0  0  0  0  0  0  0
   -3.0311   -0.7500    0.0000 C   0  0  0  0  0  0  0  0  0  0  0  0
   -3.0311    0.7500    0.0000 C   0  0  0  0  0  0  0  0  0  0  0  0
   -1.7321    1.5000    0.0000 C   0  0  0  0  0  0  0  0  0  0  0  0
   -0.4330    0.7500    0.0000 C   0  0  0  0  0  0  0  0  0  0  0  0
    0.8660    0.0000    0.0000 C   0  0  0  0  0  0  0  0  0  0  0  0
   -0.4330   -0.7500    0.0000 C   0  0  0  0  0  0  0  0  0  0  0  0
    0.3170   -2.0490    0.0000 C   0  0  0  0  0  0  0  0  0  0  0  0
   -1.7321   -1.5000    0.0000 C   0  0  0  0  0  0  0  0  0  0  0  0
   -4.0395    3.8536    0.0000 N   0  0  0  0  0  0  0  0  0  0  0  0
   -4.9212    5.0672    0.0000 C   0  0  0  0  0  0  0  0  0  0  0  0
   -4.6093    6.5344    0.0000 C   0  0  0  0  0  0  0  0  0  0  0  0
  1  2  1  0
  2  3  1  0
  3  4  2  0
  3  5  1  0
  5  6  1  0
  5  7  1  0
  5  8  1  0
  8  9  1  0
  9 10  1  0
 10 11  1  0
 11 12  1  0
 12 13  1  0
  2 14  1  0
 14 15  2  0
 15 16  1  0
 16 17  2  0
 17 18  1  0
 18 19  1  0
 19 20  1  0
 20 21  2  0
 21 22  1  0
 22 23  1  0
 23 24  2  0
 24 25  1  0
 26 25  1  6
 26 27  1  0
 27 28  1  0
 28 29  1  1
 28 30  1  0
 19 31  2  0
 31 32  1  0
 32 33  2  0
 13  8  1  0
 33 14  1  0
 32 17  1  0
 24 20  1  0
 28 26  1  0
 30 23  1  0
M  END
>  <Compound_ID>  (305) 
CHEMBL5088468

>  <Molecule Name>  (305) 
nan

>  <Molecular Weight>  (305) 
455.51

>  <AlogP>  (305) 
4.10

>  <Smiles>  (305) 
CN(C(=O)C(F)(F)C1CCOCC1)c1ccc2[nH]c(-c3n[nH]c4c3C[C@@H]3C[C@]3(C)C4)nc2c1

>  <Standard Type>  (305) 
IC50

>  <Standard Relation>  (305) 
'='

>  <Standard Units>  (305) 
nM

>  <Standard Value>  (305) 
3.0

>  <Assay ChEMBL ID>  (305) 
CHEMBL5058465

>  <Assay Description>  (305) 
Inhibition of ITK (unknown origin) using BTK peptide as substrate preincubated for 30 mins followed by addition of substrate and measured after 60 mins by flourescence based plate reader assay

>  <BAO Format ID>  (305) 
BAO_0000357

>  <BAO Label>  (305) 
single protein format

>  <Assay Organism>  (305) 
Homo sapiens

>  <Target ChEMBL ID>  (305) 
CHEMBL2959

>  <Target Name>  (305) 
Tyrosine-protein kinase ITK/TSK

>  <Target Organism>  (305) 
Homo sapiens

>  <Target Type>  (305) 
SINGLE PROTEIN

>  <Document ChEMBL ID>  (305) 
CHEMBL5055688

>  <Source Description>  (305) 
Scientific Literature

>  <Document Journal>  (305) 
ACS Med Chem Lett

>  <Document Year>  (305) 
2021.0

>  <Active>  (305) 
1.0

$$$$

     RDKit          2D

 24 26  0  0  0  0  0  0  0  0999 V2000
   -2.6401   -3.1891    0.0000 C   0  0  0  0  0  0  0  0  0  0  0  0
   -1.2135   -2.7256    0.0000 C   0  0  0  0  0  0  0  0  0  0  0  0
   -0.0000   -3.6073    0.0000 N   0  0  0  0  0  0  0  0  0  0  0  0
    1.2135   -2.7256    0.0000 N   0  0  0  0  0  0  0  0  0  0  0  0
    0.7500   -1.2990    0.0000 C   0  0  0  0  0  0  0  0  0  0  0  0
    1.5000    0.0000    0.0000 N   0  0  0  0  0  0  0  0  0  0  0  0
    0.7500    1.2990    0.0000 C   0  0  0  0  0  0  0  0  0  0  0  0
   -0.7500    1.2990    0.0000 C   0  0  0  0  0  0  0  0  0  0  0  0
   -1.5000    2.5981    0.0000 C   0  0  0  0  0  0  0  0  0  0  0  0
   -0.7500    3.8971    0.0000 C   0  0  0  0  0  0  0  0  0  0  0  0
   -1.5000    5.1962    0.0000 C   0  0  0  0  0  0  0  0  0  0  0  0
   -3.0000    5.1962    0.0000 C   0  0  0  0  0  0  0  0  0  0  0  0
   -3.7500    3.8971    0.0000 C   0  0  0  0  0  0  0  0  0  0  0  0
   -5.2500    3.8971    0.0000 N   0  0  0  0  0  0  0  0  0  0  0  0
   -6.0000    5.1962    0.0000 C   0  0  0  0  0  0  0  0  0  0  0  0
   -5.2500    6.4952    0.0000 O   0  0  0  0  0  0  0  0  0  0  0  0
   -7.5000    5.1962    0.0000 C   0  0  0  0  0  0  0  0  0  0  0  0
   -8.2500    6.4952    0.0000 C   0  0  0  0  0  0  0  0  0  0  0  0
   -9.7500    6.4952    0.0000 N   0  0  0  0  0  0  0  0  0  0  0  0
  -10.5000    7.7942    0.0000 C   0  0  0  0  0  0  0  0  0  0  0  0
  -10.5000    5.1962    0.0000 C   0  0  0  0  0  0  0  0  0  0  0  0
   -3.0000    2.5981    0.0000 C   0  0  0  0  0  0  0  0  0  0  0  0
   -1.5000    0.0000    0.0000 C   0  0  0  0  0  0  0  0  0  0  0  0
   -0.7500   -1.2990    0.0000 C   0  0  0  0  0  0  0  0  0  0  0  0
  1  2  1  0
  2  3  2  0
  3  4  1  0
  4  5  1  0
  5  6  2  0
  6  7  1  0
  7  8  2  0
  8  9  1  0
  9 10  2  0
 10 11  1  0
 11 12  2  0
 12 13  1  0
 13 14  1  0
 14 15  1  0
 15 16  2  0
 15 17  1  0
 17 18  2  0
 18 19  1  0
 19 20  1  0
 19 21  1  0
 13 22  2  0
  8 23  1  0
 23 24  2  0
 24  2  1  0
 24  5  1  0
 22  9  1  0
M  END
>  <Compound_ID>  (306) 
CHEMBL3979809

>  <Molecule Name>  (306) 
nan

>  <Molecular Weight>  (306) 
321.38

>  <AlogP>  (306) 
2.95

>  <Smiles>  (306) 
Cc1n[nH]c2ncc(-c3cccc(NC(=O)/C=C/N(C)C)c3)cc12

>  <Standard Type>  (306) 
IC50

>  <Standard Relation>  (306) 
'='

>  <Standard Units>  (306) 
nM

>  <Standard Value>  (306) 
30.0

>  <Assay ChEMBL ID>  (306) 
CHEMBL3887687

>  <Assay Description>  (306) 
Biochemical Inhibition Assay: 1H-pyrrolo[2,3-b]pyridine, 1H-pyrazolo[3,4-b]pyridine and 5H-pyrrolo[2,3-b]pyrazine series of compounds exhibited over >100 fold selective against Janus and TEC family of kinases except for the BMX and TXK it had activity of 30 and 45 nM respectively.

>  <BAO Format ID>  (306) 
BAO_0000357

>  <BAO Label>  (306) 
single protein format

>  <Assay Organism>  (306) 
Homo sapiens

>  <Target ChEMBL ID>  (306) 
CHEMBL2959

>  <Target Name>  (306) 
Tyrosine-protein kinase ITK/TSK

>  <Target Organism>  (306) 
Homo sapiens

>  <Target Type>  (306) 
SINGLE PROTEIN

>  <Document ChEMBL ID>  (306) 
CHEMBL3886406

>  <Source Description>  (306) 
BindingDB Database

>  <Document Journal>  (306) 
nan

>  <Document Year>  (306) 
2015.0

>  <Active>  (306) 
1.0

$$$$

     RDKit          2D

 33 38  0  0  0  0  0  0  0  0999 V2000
   -5.4122    9.0053    0.0000 C   0  0  0  0  0  0  0  0  0  0  0  0
   -5.7240    7.5381    0.0000 C   0  0  0  0  0  0  0  0  0  0  0  0
   -4.6093    6.5344    0.0000 C   0  0  0  0  0  0  0  0  0  0  0  0
   -4.9212    5.0672    0.0000 C   0  0  0  0  0  0  0  0  0  0  0  0
   -4.0395    3.8536    0.0000 N   0  0  0  0  0  0  0  0  0  0  0  0
   -4.9212    2.6401    0.0000 C   0  0  0  0  0  0  0  0  0  0  0  0
   -4.4577    1.2135    0.0000 C   0  0  0  0  0  0  0  0  0  0  0  0
   -5.3394   -0.0000    0.0000 N   0  0  0  0  0  0  0  0  0  0  0  0
   -4.4577   -1.2135    0.0000 N   0  0  0  0  0  0  0  0  0  0  0  0
   -3.0311   -0.7500    0.0000 C   0  0  0  0  0  0  0  0  0  0  0  0
   -3.0311    0.7500    0.0000 C   0  0  0  0  0  0  0  0  0  0  0  0
   -1.7321    1.5000    0.0000 C   0  0  0  0  0  0  0  0  0  0  0  0
   -0.4330    0.7500    0.0000 C   0  0  0  0  0  0  0  0  0  0  0  0
    0.8660    0.0000    0.0000 C   0  0  0  0  0  0  0  0  0  0  0  0
   -0.4330   -0.7500    0.0000 C   0  0  0  0  0  0  0  0  0  0  0  0
    0.3170   -2.0490    0.0000 C   0  0  0  0  0  0  0  0  0  0  0  0
   -1.7321   -1.5000    0.0000 C   0  0  0  0  0  0  0  0  0  0  0  0
   -6.3478    3.1036    0.0000 N   0  0  0  0  0  0  0  0  0  0  0  0
   -6.3478    4.6036    0.0000 C   0  0  0  0  0  0  0  0  0  0  0  0
   -7.4625    5.6073    0.0000 C   0  0  0  0  0  0  0  0  0  0  0  0
   -7.1506    7.0746    0.0000 C   0  0  0  0  0  0  0  0  0  0  0  0
   -8.2654    8.0782    0.0000 N   0  0  0  0  0  0  0  0  0  0  0  0
   -9.6919    7.6147    0.0000 C   0  0  0  0  0  0  0  0  0  0  0  0
   -7.9535    9.5455    0.0000 C   0  0  0  0  0  0  0  0  0  0  0  0
   -6.5269   10.0090    0.0000 O   0  0  0  0  0  0  0  0  0  0  0  0
   -9.0682   10.5492    0.0000 C   0  0  0  0  0  0  0  0  0  0  0  0
   -8.7563   12.0164    0.0000 C   0  0  0  0  0  0  0  0  0  0  0  0
  -10.4948   10.0856    0.0000 N   0  0  0  0  0  0  0  0  0  0  0  0
  -11.6095   11.0893    0.0000 C   0  0  0  0  0  0  0  0  0  0  0  0
  -13.0361   10.6258    0.0000 C   0  0  0  0  0  0  0  0  0  0  0  0
  -13.3480    9.1586    0.0000 O   0  0  0  0  0  0  0  0  0  0  0  0
  -12.2332    8.1549    0.0000 C   0  0  0  0  0  0  0  0  0  0  0  0
  -10.8067    8.6184    0.0000 C   0  0  0  0  0  0  0  0  0  0  0  0
  1  2  1  0
  2  3  2  0
  3  4  1  0
  4  5  1  0
  5  6  1  0
  6  7  1  0
  7  8  2  0
  8  9  1  0
  9 10  1  0
 10 11  2  0
 11 12  1  0
 13 12  1  6
 13 14  1  0
 14 15  1  0
 15 16  1  1
 15 17  1  0
  6 18  2  0
 18 19  1  0
 19 20  1  0
 20 21  2  0
 21 22  1  0
 22 23  1  0
 22 24  1  0
 24 25  2  0
 24 26  1  0
 26 27  1  6
 26 28  1  0
 28 29  1  0
 29 30  1  0
 30 31  1  0
 31 32  1  0
 32 33  1  0
 21  2  1  0
 33 28  1  0
 19  4  2  0
 11  7  1  0
 15 13  1  0
 17 10  1  0
M  END
>  <Compound_ID>  (307) 
CHEMBL5080834

>  <Molecule Name>  (307) 
nan

>  <Molecular Weight>  (307) 
448.57

>  <AlogP>  (307) 
3.07

>  <Smiles>  (307) 
Cc1cc2[nH]c(-c3n[nH]c4c3C[C@@H]3C[C@]3(C)C4)nc2cc1N(C)C(=O)[C@@H](C)N1CCOCC1

>  <Standard Type>  (307) 
IC50

>  <Standard Relation>  (307) 
'='

>  <Standard Units>  (307) 
nM

>  <Standard Value>  (307) 
16.0

>  <Assay ChEMBL ID>  (307) 
CHEMBL5058465

>  <Assay Description>  (307) 
Inhibition of ITK (unknown origin) using BTK peptide as substrate preincubated for 30 mins followed by addition of substrate and measured after 60 mins by flourescence based plate reader assay

>  <BAO Format ID>  (307) 
BAO_0000357

>  <BAO Label>  (307) 
single protein format

>  <Assay Organism>  (307) 
Homo sapiens

>  <Target ChEMBL ID>  (307) 
CHEMBL2959

>  <Target Name>  (307) 
Tyrosine-protein kinase ITK/TSK

>  <Target Organism>  (307) 
Homo sapiens

>  <Target Type>  (307) 
SINGLE PROTEIN

>  <Document ChEMBL ID>  (307) 
CHEMBL5055688

>  <Source Description>  (307) 
Scientific Literature

>  <Document Journal>  (307) 
ACS Med Chem Lett

>  <Document Year>  (307) 
2021.0

>  <Active>  (307) 
1.0

$$$$

     RDKit          2D

 21 23  0  0  0  0  0  0  0  0999 V2000
    9.0000   -5.1962    0.0000 C   0  0  0  0  0  0  0  0  0  0  0  0
    7.5000   -5.1962    0.0000 C   0  0  0  0  0  0  0  0  0  0  0  0
    6.0000   -5.1962    0.0000 C   0  0  0  0  0  0  0  0  0  0  0  0
    5.2500   -6.4952    0.0000 O   0  0  0  0  0  0  0  0  0  0  0  0
    5.2500   -3.8971    0.0000 N   0  0  0  0  0  0  0  0  0  0  0  0
    3.7500   -3.8971    0.0000 C   0  0  0  0  0  0  0  0  0  0  0  0
    3.0000   -5.1962    0.0000 C   0  0  0  0  0  0  0  0  0  0  0  0
    1.5000   -5.1962    0.0000 C   0  0  0  0  0  0  0  0  0  0  0  0
    0.7500   -3.8971    0.0000 C   0  0  0  0  0  0  0  0  0  0  0  0
    1.5000   -2.5981    0.0000 C   0  0  0  0  0  0  0  0  0  0  0  0
    0.7500   -1.2990    0.0000 C   0  0  0  0  0  0  0  0  0  0  0  0
    1.5000    0.0000    0.0000 C   0  0  0  0  0  0  0  0  0  0  0  0
    0.7500    1.2990    0.0000 N   0  0  0  0  0  0  0  0  0  0  0  0
   -0.7500    1.2990    0.0000 C   0  0  0  0  0  0  0  0  0  0  0  0
   -1.7537    2.4138    0.0000 N   0  0  0  0  0  0  0  0  0  0  0  0
   -3.1240    1.8037    0.0000 C   0  0  0  0  0  0  0  0  0  0  0  0
   -2.9672    0.3119    0.0000 C   0  0  0  0  0  0  0  0  0  0  0  0
   -4.0819   -0.6918    0.0000 Cl  0  0  0  0  0  0  0  0  0  0  0  0
   -1.5000    0.0000    0.0000 C   0  0  0  0  0  0  0  0  0  0  0  0
   -0.7500   -1.2990    0.0000 C   0  0  0  0  0  0  0  0  0  0  0  0
    3.0000   -2.5981    0.0000 C   0  0  0  0  0  0  0  0  0  0  0  0
  1  2  3  0
  2  3  1  0
  3  4  2  0
  3  5  1  0
  5  6  1  0
  6  7  2  0
  7  8  1  0
  8  9  2  0
  9 10  1  0
 10 11  1  0
 11 12  2  0
 12 13  1  0
 13 14  2  0
 14 15  1  0
 15 16  1  0
 16 17  2  0
 17 18  1  0
 17 19  1  0
 19 20  2  0
 10 21  2  0
 21  6  1  0
 20 11  1  0
 19 14  1  0
M  END
>  <Compound_ID>  (308) 
CHEMBL3915825

>  <Molecule Name>  (308) 
nan

>  <Molecular Weight>  (308) 
295.73

>  <AlogP>  (308) 
3.46

>  <Smiles>  (308) 
C#CC(=O)Nc1cccc(-c2cnc3[nH]cc(Cl)c3c2)c1

>  <Standard Type>  (308) 
IC50

>  <Standard Relation>  (308) 
'='

>  <Standard Units>  (308) 
nM

>  <Standard Value>  (308) 
35.0

>  <Assay ChEMBL ID>  (308) 
CHEMBL3887687

>  <Assay Description>  (308) 
Biochemical Inhibition Assay: 1H-pyrrolo[2,3-b]pyridine, 1H-pyrazolo[3,4-b]pyridine and 5H-pyrrolo[2,3-b]pyrazine series of compounds exhibited over >100 fold selective against Janus and TEC family of kinases except for the BMX and TXK it had activity of 30 and 45 nM respectively.

>  <BAO Format ID>  (308) 
BAO_0000357

>  <BAO Label>  (308) 
single protein format

>  <Assay Organism>  (308) 
Homo sapiens

>  <Target ChEMBL ID>  (308) 
CHEMBL2959

>  <Target Name>  (308) 
Tyrosine-protein kinase ITK/TSK

>  <Target Organism>  (308) 
Homo sapiens

>  <Target Type>  (308) 
SINGLE PROTEIN

>  <Document ChEMBL ID>  (308) 
CHEMBL3886406

>  <Source Description>  (308) 
BindingDB Database

>  <Document Journal>  (308) 
nan

>  <Document Year>  (308) 
2015.0

>  <Active>  (308) 
1.0

$$$$

     RDKit          2D

 39 42  0  0  0  0  0  0  0  0999 V2000
    6.0000   -2.5981    0.0000 C   0  0  0  0  0  0  0  0  0  0  0  0
    5.2500   -1.2990    0.0000 C   0  0  0  0  0  0  0  0  0  0  0  0
    3.7500   -1.2990    0.0000 N   0  0  0  0  0  0  0  0  0  0  0  0
    3.0000    0.0000    0.0000 C   0  0  0  0  0  0  0  0  0  0  0  0
    1.5000    0.0000    0.0000 C   0  0  0  0  0  0  0  0  0  0  0  0
    0.7500   -1.2990    0.0000 C   0  0  0  0  0  0  0  0  0  0  0  0
   -0.7500   -1.2990    0.0000 C   0  0  0  0  0  0  0  0  0  0  0  0
   -1.5000    0.0000    0.0000 C   0  0  0  0  0  0  0  0  0  0  0  0
   -3.0000    0.0000    0.0000 C   0  0  0  0  0  0  0  0  0  0  0  0
   -3.7500   -1.2990    0.0000 O   0  0  0  0  0  0  0  0  0  0  0  0
   -3.7500    1.2990    0.0000 N   0  0  0  0  0  0  0  0  0  0  0  0
   -5.2500    1.2990    0.0000 C   0  0  0  0  0  0  0  0  0  0  0  0
   -6.1317    0.0855    0.0000 N   0  0  0  0  0  0  0  0  0  0  0  0
   -7.5583    0.5490    0.0000 C   0  0  0  0  0  0  0  0  0  0  0  0
   -7.5583    2.0490    0.0000 C   0  0  0  0  0  0  0  0  0  0  0  0
   -8.7718    2.9307    0.0000 S   0  0  0  0  0  0  0  0  0  0  0  0
   -8.6150    4.4225    0.0000 C   0  0  0  0  0  0  0  0  0  0  0  0
   -7.2447    5.0326    0.0000 C   0  0  0  0  0  0  0  0  0  0  0  0
   -7.0879    6.5244    0.0000 C   0  0  0  0  0  0  0  0  0  0  0  0
   -5.7176    7.1345    0.0000 C   0  0  0  0  0  0  0  0  0  0  0  0
   -5.5608    8.6263    0.0000 O   0  0  0  0  0  0  0  0  0  0  0  0
   -4.5040    6.2528    0.0000 N   0  0  0  0  0  0  0  0  0  0  0  0
   -4.6608    4.7610    0.0000 C   0  0  0  0  0  0  0  0  0  0  0  0
   -3.4473    3.8794    0.0000 C   0  0  0  0  0  0  0  0  0  0  0  0
   -2.0770    4.4895    0.0000 N   0  0  0  0  0  0  0  0  0  0  0  0
   -0.8635    3.6078    0.0000 C   0  0  0  0  0  0  0  0  0  0  0  0
    0.5069    4.2179    0.0000 C   0  0  0  0  0  0  0  0  0  0  0  0
   -1.0203    2.1160    0.0000 O   0  0  0  0  0  0  0  0  0  0  0  0
   -1.9202    5.9812    0.0000 C   0  0  0  0  0  0  0  0  0  0  0  0
   -3.1337    6.8629    0.0000 C   0  0  0  0  0  0  0  0  0  0  0  0
   -8.3014    7.4061    0.0000 C   0  0  0  0  0  0  0  0  0  0  0  0
   -8.1446    8.8978    0.0000 O   0  0  0  0  0  0  0  0  0  0  0  0
   -9.3581    9.7795    0.0000 C   0  0  0  0  0  0  0  0  0  0  0  0
   -9.6717    6.7960    0.0000 C   0  0  0  0  0  0  0  0  0  0  0  0
   -9.8285    5.3042    0.0000 C   0  0  0  0  0  0  0  0  0  0  0  0
  -11.1988    4.6941    0.0000 C   0  0  0  0  0  0  0  0  0  0  0  0
   -6.1317    2.5126    0.0000 S   0  0  0  0  0  0  0  0  0  0  0  0
   -0.7500    1.2990    0.0000 C   0  0  0  0  0  0  0  0  0  0  0  0
    0.7500    1.2990    0.0000 C   0  0  0  0  0  0  0  0  0  0  0  0
  1  2  1  0
  2  3  1  0
  3  4  1  0
  4  5  1  0
  5  6  2  0
  6  7  1  0
  7  8  2  0
  8  9  1  0
  9 10  2  0
  9 11  1  0
 11 12  1  0
 12 13  2  0
 13 14  1  0
 14 15  2  0
 15 16  1  0
 16 17  1  0
 17 18  2  0
 18 19  1  0
 19 20  1  0
 20 21  2  0
 20 22  1  0
 22 23  1  0
 23 24  1  0
 24 25  1  0
 25 26  1  0
 26 27  1  0
 26 28  2  0
 25 29  1  0
 29 30  1  0
 19 31  2  0
 31 32  1  0
 32 33  1  0
 31 34  1  0
 34 35  2  0
 35 36  1  0
 15 37  1  0
  8 38  1  0
 38 39  2  0
 39  5  1  0
 37 12  1  0
 35 17  1  0
 30 22  1  0
M  END
>  <Compound_ID>  (309) 
CHEMBL210985

>  <Molecule Name>  (309) 
nan

>  <Molecular Weight>  (309) 
567.74

>  <AlogP>  (309) 
4.28

>  <Smiles>  (309) 
CCNCc1ccc(C(=O)Nc2ncc(Sc3cc(C(=O)N4CCN(C(C)=O)CC4)c(OC)cc3C)s2)cc1

>  <Standard Type>  (309) 
IC50

>  <Standard Relation>  (309) 
'='

>  <Standard Units>  (309) 
nM

>  <Standard Value>  (309) 
29.0

>  <Assay ChEMBL ID>  (309) 
CHEMBL864159

>  <Assay Description>  (309) 
Inhibition of Itk

>  <BAO Format ID>  (309) 
BAO_0000357

>  <BAO Label>  (309) 
single protein format

>  <Assay Organism>  (309) 
Homo sapiens

>  <Target ChEMBL ID>  (309) 
CHEMBL2959

>  <Target Name>  (309) 
Tyrosine-protein kinase ITK/TSK

>  <Target Organism>  (309) 
Homo sapiens

>  <Target Type>  (309) 
SINGLE PROTEIN

>  <Document ChEMBL ID>  (309) 
CHEMBL1138957

>  <Source Description>  (309) 
Scientific Literature

>  <Document Journal>  (309) 
Bioorg Med Chem Lett

>  <Document Year>  (309) 
2006.0

>  <Active>  (309) 
1.0

$$$$

     RDKit          2D

 36 41  0  0  0  0  0  0  0  0999 V2000
  -10.2497   -1.4504    0.0000 C   0  0  0  0  0  0  0  0  0  0  0  0
   -8.8231   -1.9139    0.0000 C   0  0  0  0  0  0  0  0  0  0  0  0
   -8.5112   -3.3811    0.0000 C   0  0  0  0  0  0  0  0  0  0  0  0
   -9.6260   -4.3848    0.0000 O   0  0  0  0  0  0  0  0  0  0  0  0
   -7.0847   -3.8447    0.0000 N   0  0  0  0  0  0  0  0  0  0  0  0
   -6.6211   -5.2713    0.0000 C   0  0  0  0  0  0  0  0  0  0  0  0
   -5.1211   -5.2713    0.0000 C   0  0  0  0  0  0  0  0  0  0  0  0
   -4.6576   -3.8447    0.0000 C   0  0  0  0  0  0  0  0  0  0  0  0
   -5.8711   -2.9630    0.0000 C   0  0  0  0  0  0  0  0  0  0  0  0
   -3.3211   -4.5257    0.0000 C   0  0  0  0  0  0  0  0  0  0  0  0
   -2.6401   -3.1891    0.0000 C   0  0  0  0  0  0  0  0  0  0  0  0
   -1.2135   -2.7256    0.0000 N   0  0  0  0  0  0  0  0  0  0  0  0
   -0.0000   -3.6073    0.0000 C   0  0  0  0  0  0  0  0  0  0  0  0
   -0.0000   -5.1073    0.0000 N   0  0  0  0  0  0  0  0  0  0  0  0
   -1.2990   -5.8573    0.0000 C   0  0  0  0  0  0  0  0  0  0  0  0
   -2.5981   -5.1073    0.0000 O   0  0  0  0  0  0  0  0  0  0  0  0
   -1.2990   -7.3573    0.0000 C   0  0  0  0  0  0  0  0  0  0  0  0
   -0.0855   -8.2390    0.0000 C   0  0  0  0  0  0  0  0  0  0  0  0
   -0.5490   -9.6656    0.0000 C   0  0  0  0  0  0  0  0  0  0  0  0
   -2.0490   -9.6656    0.0000 C   0  0  0  0  0  0  0  0  0  0  0  0
   -2.9307  -10.8791    0.0000 C   0  0  0  0  0  0  0  0  0  0  0  0
   -4.4225  -10.7223    0.0000 C   0  0  0  0  0  0  0  0  0  0  0  0
   -5.3042  -11.9358    0.0000 C   0  0  0  0  0  0  0  0  0  0  0  0
   -4.6941  -13.3061    0.0000 N   0  0  0  0  0  0  0  0  0  0  0  0
   -3.2023  -13.4629    0.0000 C   0  0  0  0  0  0  0  0  0  0  0  0
   -2.5922  -14.8333    0.0000 N   0  0  0  0  0  0  0  0  0  0  0  0
   -2.3206  -12.2494    0.0000 C   0  0  0  0  0  0  0  0  0  0  0  0
   -2.5126   -8.2390    0.0000 S   0  0  0  0  0  0  0  0  0  0  0  0
    1.2135   -2.7256    0.0000 N   0  0  0  0  0  0  0  0  0  0  0  0
    0.7500   -1.2990    0.0000 C   0  0  0  0  0  0  0  0  0  0  0  0
    1.5000    0.0000    0.0000 C   0  0  0  0  0  0  0  0  0  0  0  0
    0.7500    1.2990    0.0000 C   0  0  0  0  0  0  0  0  0  0  0  0
   -0.7500    1.2990    0.0000 C   0  0  0  0  0  0  0  0  0  0  0  0
   -1.5000    0.0000    0.0000 C   0  0  0  0  0  0  0  0  0  0  0  0
   -0.7500   -1.2990    0.0000 C   0  0  0  0  0  0  0  0  0  0  0  0
   -3.9766   -2.5082    0.0000 C   0  0  0  0  0  0  0  0  0  0  0  0
  1  2  2  0
  2  3  1  0
  3  4  2  0
  3  5  1  0
  5  6  1  0
  6  7  1  0
  8  7  1  1
  8  9  1  0
  8 10  1  0
 10 11  1  0
 11 12  1  1
 12 13  1  0
 13 14  1  0
 14 15  1  0
 15 16  2  0
 15 17  1  0
 17 18  2  0
 18 19  1  0
 19 20  2  0
 20 21  1  0
 21 22  2  0
 22 23  1  0
 23 24  2  0
 24 25  1  0
 25 26  1  0
 25 27  2  0
 20 28  1  0
 13 29  2  0
 29 30  1  0
 30 31  2  0
 31 32  1  0
 32 33  2  0
 33 34  1  0
 34 35  2  0
 11 36  1  0
  9  5  1  0
 35 12  1  0
 36  8  1  0
 28 17  1  0
 35 30  1  0
 27 21  1  0
M  END
>  <Compound_ID>  (310) 
CHEMBL4207292

>  <Molecule Name>  (310) 
nan

>  <Molecular Weight>  (310) 
498.61

>  <AlogP>  (310) 
4.73

>  <Smiles>  (310) 
C=CC(=O)N1CC[C@]2(C1)C[C@H](n1c(NC(=O)c3ccc(-c4ccnc(N)c4)s3)nc3ccccc31)C2

>  <Standard Type>  (310) 
IC50

>  <Standard Relation>  (310) 
'='

>  <Standard Units>  (310) 
nM

>  <Standard Value>  (310) 
0.67

>  <Assay ChEMBL ID>  (310) 
CHEMBL4199503

>  <Assay Description>  (310) 
Inhibition of ITK (unknown origin) using fluorescently labeled peptide as substrate after 3 hrs by microfluidic mobility shift assay

>  <BAO Format ID>  (310) 
BAO_0000357

>  <BAO Label>  (310) 
single protein format

>  <Assay Organism>  (310) 
Homo sapiens

>  <Target ChEMBL ID>  (310) 
CHEMBL2959

>  <Target Name>  (310) 
Tyrosine-protein kinase ITK/TSK

>  <Target Organism>  (310) 
Homo sapiens

>  <Target Type>  (310) 
SINGLE PROTEIN

>  <Document ChEMBL ID>  (310) 
CHEMBL4196110

>  <Source Description>  (310) 
Scientific Literature

>  <Document Journal>  (310) 
ACS Med Chem Lett

>  <Document Year>  (310) 
2018.0

>  <Active>  (310) 
1.0

$$$$

     RDKit          2D

 36 41  0  0  0  0  0  0  0  0999 V2000
  -10.2497   -1.4504    0.0000 C   0  0  0  0  0  0  0  0  0  0  0  0
   -8.8231   -1.9139    0.0000 C   0  0  0  0  0  0  0  0  0  0  0  0
   -8.5112   -3.3811    0.0000 C   0  0  0  0  0  0  0  0  0  0  0  0
   -9.6260   -4.3848    0.0000 O   0  0  0  0  0  0  0  0  0  0  0  0
   -7.0847   -3.8447    0.0000 N   0  0  0  0  0  0  0  0  0  0  0  0
   -6.6211   -5.2713    0.0000 C   0  0  0  0  0  0  0  0  0  0  0  0
   -5.1211   -5.2713    0.0000 C   0  0  0  0  0  0  0  0  0  0  0  0
   -4.6576   -3.8447    0.0000 C   0  0  0  0  0  0  0  0  0  0  0  0
   -5.8711   -2.9630    0.0000 C   0  0  0  0  0  0  0  0  0  0  0  0
   -3.3211   -4.5257    0.0000 C   0  0  0  0  0  0  0  0  0  0  0  0
   -2.6401   -3.1891    0.0000 C   0  0  0  0  0  0  0  0  0  0  0  0
   -1.2135   -2.7256    0.0000 N   0  0  0  0  0  0  0  0  0  0  0  0
   -0.0000   -3.6073    0.0000 C   0  0  0  0  0  0  0  0  0  0  0  0
   -0.0000   -5.1073    0.0000 N   0  0  0  0  0  0  0  0  0  0  0  0
   -1.2990   -5.8573    0.0000 C   0  0  0  0  0  0  0  0  0  0  0  0
   -2.5981   -5.1073    0.0000 O   0  0  0  0  0  0  0  0  0  0  0  0
   -1.2990   -7.3573    0.0000 C   0  0  0  0  0  0  0  0  0  0  0  0
   -0.0855   -8.2390    0.0000 C   0  0  0  0  0  0  0  0  0  0  0  0
   -0.5490   -9.6656    0.0000 C   0  0  0  0  0  0  0  0  0  0  0  0
   -2.0490   -9.6656    0.0000 C   0  0  0  0  0  0  0  0  0  0  0  0
   -2.9307  -10.8791    0.0000 C   0  0  0  0  0  0  0  0  0  0  0  0
   -4.4225  -10.7223    0.0000 C   0  0  0  0  0  0  0  0  0  0  0  0
   -5.3042  -11.9358    0.0000 C   0  0  0  0  0  0  0  0  0  0  0  0
   -4.6941  -13.3061    0.0000 N   0  0  0  0  0  0  0  0  0  0  0  0
   -3.2023  -13.4629    0.0000 C   0  0  0  0  0  0  0  0  0  0  0  0
   -2.5922  -14.8333    0.0000 C   0  0  0  0  0  0  0  0  0  0  0  0
   -2.3206  -12.2494    0.0000 N   0  0  0  0  0  0  0  0  0  0  0  0
   -2.5126   -8.2390    0.0000 S   0  0  0  0  0  0  0  0  0  0  0  0
    1.2135   -2.7256    0.0000 N   0  0  0  0  0  0  0  0  0  0  0  0
    0.7500   -1.2990    0.0000 C   0  0  0  0  0  0  0  0  0  0  0  0
    1.5000    0.0000    0.0000 C   0  0  0  0  0  0  0  0  0  0  0  0
    0.7500    1.2990    0.0000 C   0  0  0  0  0  0  0  0  0  0  0  0
   -0.7500    1.2990    0.0000 C   0  0  0  0  0  0  0  0  0  0  0  0
   -1.5000    0.0000    0.0000 C   0  0  0  0  0  0  0  0  0  0  0  0
   -0.7500   -1.2990    0.0000 C   0  0  0  0  0  0  0  0  0  0  0  0
   -3.9766   -2.5082    0.0000 C   0  0  0  0  0  0  0  0  0  0  0  0
  1  2  2  0
  2  3  1  0
  3  4  2  0
  3  5  1  0
  5  6  1  0
  6  7  1  0
  8  7  1  1
  8  9  1  0
  8 10  1  0
 10 11  1  0
 11 12  1  1
 12 13  1  0
 13 14  1  0
 14 15  1  0
 15 16  2  0
 15 17  1  0
 17 18  2  0
 18 19  1  0
 19 20  2  0
 20 21  1  0
 21 22  2  0
 22 23  1  0
 23 24  2  0
 24 25  1  0
 25 26  1  0
 25 27  2  0
 20 28  1  0
 13 29  2  0
 29 30  1  0
 30 31  2  0
 31 32  1  0
 32 33  2  0
 33 34  1  0
 34 35  2  0
 11 36  1  0
  9  5  1  0
 35 12  1  0
 36  8  1  0
 28 17  1  0
 35 30  1  0
 27 21  1  0
M  END
>  <Compound_ID>  (311) 
CHEMBL4214683

>  <Molecule Name>  (311) 
nan

>  <Molecular Weight>  (311) 
498.61

>  <AlogP>  (311) 
4.86

>  <Smiles>  (311) 
C=CC(=O)N1CC[C@]2(C1)C[C@H](n1c(NC(=O)c3ccc(-c4ccnc(C)n4)s3)nc3ccccc31)C2

>  <Standard Type>  (311) 
IC50

>  <Standard Relation>  (311) 
'='

>  <Standard Units>  (311) 
nM

>  <Standard Value>  (311) 
0.58

>  <Assay ChEMBL ID>  (311) 
CHEMBL4199503

>  <Assay Description>  (311) 
Inhibition of ITK (unknown origin) using fluorescently labeled peptide as substrate after 3 hrs by microfluidic mobility shift assay

>  <BAO Format ID>  (311) 
BAO_0000357

>  <BAO Label>  (311) 
single protein format

>  <Assay Organism>  (311) 
Homo sapiens

>  <Target ChEMBL ID>  (311) 
CHEMBL2959

>  <Target Name>  (311) 
Tyrosine-protein kinase ITK/TSK

>  <Target Organism>  (311) 
Homo sapiens

>  <Target Type>  (311) 
SINGLE PROTEIN

>  <Document ChEMBL ID>  (311) 
CHEMBL4196110

>  <Source Description>  (311) 
Scientific Literature

>  <Document Journal>  (311) 
ACS Med Chem Lett

>  <Document Year>  (311) 
2018.0

>  <Active>  (311) 
1.0

$$$$

     RDKit          2D

 34 37  0  0  0  0  0  0  0  0999 V2000
   15.1639   -1.2439    0.0000 C   0  0  0  0  0  0  0  0  0  0  0  0
   13.6639   -1.2439    0.0000 N   0  0  0  0  0  0  0  0  0  0  0  0
   12.9139    0.0552    0.0000 C   0  0  0  0  0  0  0  0  0  0  0  0
   11.4139    0.0552    0.0000 C   0  0  0  0  0  0  0  0  0  0  0  0
   10.5322    1.2687    0.0000 C   0  0  0  0  0  0  0  0  0  0  0  0
    9.1056    0.8052    0.0000 C   0  0  0  0  0  0  0  0  0  0  0  0
    9.1056   -0.6948    0.0000 C   0  0  0  0  0  0  0  0  0  0  0  0
    7.8921   -1.5765    0.0000 C   0  0  0  0  0  0  0  0  0  0  0  0
    8.0489   -3.0683    0.0000 O   0  0  0  0  0  0  0  0  0  0  0  0
    6.5218   -0.9664    0.0000 N   0  0  0  0  0  0  0  0  0  0  0  0
    5.3083   -1.8481    0.0000 C   0  0  0  0  0  0  0  0  0  0  0  0
    5.3083   -3.3481    0.0000 N   0  0  0  0  0  0  0  0  0  0  0  0
    3.8817   -3.8116    0.0000 C   0  0  0  0  0  0  0  0  0  0  0  0
    3.0000   -2.5981    0.0000 C   0  0  0  0  0  0  0  0  0  0  0  0
    1.5000   -2.5981    0.0000 S   0  0  0  0  0  0  0  0  0  0  0  0
    0.7500   -1.2990    0.0000 C   0  0  0  0  0  0  0  0  0  0  0  0
    1.5000    0.0000    0.0000 C   0  0  0  0  0  0  0  0  0  0  0  0
    0.7500    1.2990    0.0000 C   0  0  0  0  0  0  0  0  0  0  0  0
    1.5000    2.5981    0.0000 C   0  0  0  0  0  0  0  0  0  0  0  0
    0.7500    3.8971    0.0000 O   0  0  0  0  0  0  0  0  0  0  0  0
    3.0000    2.5981    0.0000 N   0  0  0  0  0  0  0  0  0  0  0  0
    3.7500    1.2990    0.0000 C   0  0  0  0  0  0  0  0  0  0  0  0
    5.2500    1.2990    0.0000 C   0  0  0  0  0  0  0  0  0  0  0  0
    6.0000    2.5981    0.0000 O   0  0  0  0  0  0  0  0  0  0  0  0
    5.2500    3.8971    0.0000 C   0  0  0  0  0  0  0  0  0  0  0  0
    3.7500    3.8971    0.0000 C   0  0  0  0  0  0  0  0  0  0  0  0
   -0.7500    1.2990    0.0000 C   0  0  0  0  0  0  0  0  0  0  0  0
   -1.5000    2.5981    0.0000 O   0  0  0  0  0  0  0  0  0  0  0  0
   -3.0000    2.5981    0.0000 C   0  0  0  0  0  0  0  0  0  0  0  0
   -1.5000    0.0000    0.0000 C   0  0  0  0  0  0  0  0  0  0  0  0
   -0.7500   -1.2990    0.0000 C   0  0  0  0  0  0  0  0  0  0  0  0
   -1.5000   -2.5981    0.0000 C   0  0  0  0  0  0  0  0  0  0  0  0
    3.8817   -1.3846    0.0000 S   0  0  0  0  0  0  0  0  0  0  0  0
   10.5322   -1.1584    0.0000 N   0  0  0  0  0  0  0  0  0  0  0  0
  1  2  1  0
  2  3  1  0
  3  4  1  0
  4  5  2  0
  5  6  1  0
  6  7  2  0
  7  8  1  0
  8  9  2  0
  8 10  1  0
 10 11  1  0
 11 12  2  0
 12 13  1  0
 13 14  2  0
 14 15  1  0
 15 16  1  0
 16 17  2  0
 17 18  1  0
 18 19  1  0
 19 20  2  0
 19 21  1  0
 21 22  1  0
 22 23  1  0
 23 24  1  0
 24 25  1  0
 25 26  1  0
 18 27  2  0
 27 28  1  0
 28 29  1  0
 27 30  1  0
 30 31  2  0
 31 32  1  0
 14 33  1  0
  7 34  1  0
 34  4  1  0
 33 11  1  0
 31 16  1  0
 26 21  1  0
M  END
>  <Compound_ID>  (312) 
CHEMBL209881

>  <Molecule Name>  (312) 
nan

>  <Molecular Weight>  (312) 
501.63

>  <AlogP>  (312) 
3.38

>  <Smiles>  (312) 
CNCc1ccc(C(=O)Nc2ncc(Sc3cc(C(=O)N4CCOCC4)c(OC)cc3C)s2)[nH]1

>  <Standard Type>  (312) 
IC50

>  <Standard Relation>  (312) 
'='

>  <Standard Units>  (312) 
nM

>  <Standard Value>  (312) 
7.0

>  <Assay ChEMBL ID>  (312) 
CHEMBL864159

>  <Assay Description>  (312) 
Inhibition of Itk

>  <BAO Format ID>  (312) 
BAO_0000357

>  <BAO Label>  (312) 
single protein format

>  <Assay Organism>  (312) 
Homo sapiens

>  <Target ChEMBL ID>  (312) 
CHEMBL2959

>  <Target Name>  (312) 
Tyrosine-protein kinase ITK/TSK

>  <Target Organism>  (312) 
Homo sapiens

>  <Target Type>  (312) 
SINGLE PROTEIN

>  <Document ChEMBL ID>  (312) 
CHEMBL1138957

>  <Source Description>  (312) 
Scientific Literature

>  <Document Journal>  (312) 
Bioorg Med Chem Lett

>  <Document Year>  (312) 
2006.0

>  <Active>  (312) 
1.0

$$$$

     RDKit          2D

 32 35  0  0  0  0  0  0  0  0999 V2000
    6.9676    4.6663    0.0000 C   0  0  0  0  0  0  0  0  0  0  0  0
    5.7540    3.7847    0.0000 C   0  0  0  0  0  0  0  0  0  0  0  0
    5.9108    2.2929    0.0000 C   0  0  0  0  0  0  0  0  0  0  0  0
    7.2812    1.6828    0.0000 O   0  0  0  0  0  0  0  0  0  0  0  0
    4.6973    1.4112    0.0000 N   0  0  0  0  0  0  0  0  0  0  0  0
    4.8541   -0.0806    0.0000 C   0  0  0  0  0  0  0  0  0  0  0  0
    6.2244   -0.6907    0.0000 C   0  0  0  0  0  0  0  0  0  0  0  0
    6.3812   -2.1825    0.0000 C   0  0  0  0  0  0  0  0  0  0  0  0
    5.1677   -3.0642    0.0000 C   0  0  0  0  0  0  0  0  0  0  0  0
    3.7974   -2.4540    0.0000 C   0  0  0  0  0  0  0  0  0  0  0  0
    2.5838   -3.3357    0.0000 C   0  0  0  0  0  0  0  0  0  0  0  0
    2.7406   -4.8275    0.0000 C   0  0  0  0  0  0  0  0  0  0  0  0
    1.5271   -5.7092    0.0000 C   0  0  0  0  0  0  0  0  0  0  0  0
    0.1568   -5.0991    0.0000 C   0  0  0  0  0  0  0  0  0  0  0  0
   -1.0567   -5.9808    0.0000 C   0  0  0  0  0  0  0  0  0  0  0  0
   -0.8999   -7.4725    0.0000 N   0  0  0  0  0  0  0  0  0  0  0  0
   -2.4271   -5.3707    0.0000 O   0  0  0  0  0  0  0  0  0  0  0  0
   -0.0000   -3.6073    0.0000 C   0  0  0  0  0  0  0  0  0  0  0  0
   -1.2135   -2.7256    0.0000 N   0  0  0  0  0  0  0  0  0  0  0  0
   -0.7500   -1.2990    0.0000 C   0  0  0  0  0  0  0  0  0  0  0  0
    0.7500   -1.2990    0.0000 C   0  0  0  0  0  0  0  0  0  0  0  0
    1.2135   -2.7256    0.0000 C   0  0  0  0  0  0  0  0  0  0  0  0
    1.5000    0.0000    0.0000 C   0  0  0  0  0  0  0  0  0  0  0  0
    0.7500    1.2990    0.0000 C   0  0  0  0  0  0  0  0  0  0  0  0
   -0.7500    1.2990    0.0000 C   0  0  0  0  0  0  0  0  0  0  0  0
   -1.5000    2.5981    0.0000 C   0  0  0  0  0  0  0  0  0  0  0  0
   -2.7990    1.8481    0.0000 C   0  0  0  0  0  0  0  0  0  0  0  0
   -0.2010    3.3481    0.0000 C   0  0  0  0  0  0  0  0  0  0  0  0
   -2.2500    3.8971    0.0000 O   0  0  0  0  0  0  0  0  0  0  0  0
   -1.5000    0.0000    0.0000 C   0  0  0  0  0  0  0  0  0  0  0  0
    3.6406   -0.9623    0.0000 C   0  0  0  0  0  0  0  0  0  0  0  0
    2.2703   -0.3522    0.0000 C   0  0  0  0  0  0  0  0  0  0  0  0
  1  2  2  0
  2  3  1  0
  3  4  2  0
  3  5  1  0
  5  6  1  0
  6  7  2  0
  7  8  1  0
  8  9  2  0
  9 10  1  0
 10 11  1  0
 11 12  2  0
 12 13  1  0
 13 14  2  0
 14 15  1  0
 15 16  1  0
 15 17  2  0
 14 18  1  0
 18 19  1  0
 19 20  1  0
 20 21  2  0
 21 22  1  0
 21 23  1  0
 23 24  1  0
 24 25  1  0
 25 26  1  0
 26 27  1  0
 26 28  1  0
 26 29  1  0
 25 30  1  0
 10 31  2  0
 31 32  1  0
 31  6  1  0
 22 11  1  0
 22 18  2  0
 30 20  1  0
M  END
>  <Compound_ID>  (313) 
CHEMBL4241958

>  <Molecule Name>  (313) 
nan

>  <Molecular Weight>  (313) 
431.54

>  <AlogP>  (313) 
4.24

>  <Smiles>  (313) 
C=CC(=O)Nc1cccc(-c2ccc(C(N)=O)c3[nH]c4c(c23)CCC(C(C)(C)O)C4)c1C

>  <Standard Type>  (313) 
IC50

>  <Standard Relation>  (313) 
'='

>  <Standard Units>  (313) 
nM

>  <Standard Value>  (313) 
23.0

>  <Assay ChEMBL ID>  (313) 
CHEMBL4235701

>  <Assay Description>  (313) 
Inhibition of ITK (unknown origin)

>  <BAO Format ID>  (313) 
BAO_0000357

>  <BAO Label>  (313) 
single protein format

>  <Assay Organism>  (313) 
Homo sapiens

>  <Target ChEMBL ID>  (313) 
CHEMBL2959

>  <Target Name>  (313) 
Tyrosine-protein kinase ITK/TSK

>  <Target Organism>  (313) 
Homo sapiens

>  <Target Type>  (313) 
SINGLE PROTEIN

>  <Document ChEMBL ID>  (313) 
CHEMBL4229517

>  <Source Description>  (313) 
Scientific Literature

>  <Document Journal>  (313) 
Bioorg Med Chem Lett

>  <Document Year>  (313) 
2018.0

>  <Active>  (313) 
1.0

$$$$

     RDKit          2D

 41 45  0  0  0  0  0  0  0  0999 V2000
   -9.6403    1.3658    0.0000 C   0  0  0  0  0  0  0  0  0  0  0  0
   -8.5256    0.3621    0.0000 N   0  0  0  0  0  0  0  0  0  0  0  0
   -7.0990    0.8256    0.0000 C   0  0  0  0  0  0  0  0  0  0  0  0
   -5.9843   -0.1781    0.0000 C   0  0  0  0  0  0  0  0  0  0  0  0
   -6.2961   -1.6453    0.0000 N   0  0  0  0  0  0  0  0  0  0  0  0
   -5.1814   -2.6490    0.0000 C   0  0  0  0  0  0  0  0  0  0  0  0
   -5.4933   -4.1162    0.0000 O   0  0  0  0  0  0  0  0  0  0  0  0
   -3.7548   -2.1855    0.0000 C   0  0  0  0  0  0  0  0  0  0  0  0
   -2.6401   -3.1891    0.0000 C   0  0  0  0  0  0  0  0  0  0  0  0
   -1.2135   -2.7256    0.0000 N   0  0  0  0  0  0  0  0  0  0  0  0
   -0.0000   -3.6073    0.0000 C   0  0  0  0  0  0  0  0  0  0  0  0
   -0.0000   -5.1073    0.0000 N   0  0  0  0  0  0  0  0  0  0  0  0
   -1.2990   -5.8573    0.0000 C   0  0  0  0  0  0  0  0  0  0  0  0
   -2.5981   -5.1073    0.0000 O   0  0  0  0  0  0  0  0  0  0  0  0
   -1.2990   -7.3573    0.0000 C   0  0  0  0  0  0  0  0  0  0  0  0
   -2.5981   -8.1073    0.0000 C   0  0  0  0  0  0  0  0  0  0  0  0
   -2.5981   -9.6073    0.0000 C   0  0  0  0  0  0  0  0  0  0  0  0
   -1.2990  -10.3573    0.0000 C   0  0  0  0  0  0  0  0  0  0  0  0
   -1.2990  -11.8573    0.0000 C   0  0  0  0  0  0  0  0  0  0  0  0
   -1.2990  -13.3573    0.0000 N   0  0  0  0  0  0  0  0  0  0  0  0
    0.0000   -9.6073    0.0000 C   0  0  0  0  0  0  0  0  0  0  0  0
    0.0000   -8.1073    0.0000 C   0  0  0  0  0  0  0  0  0  0  0  0
    1.2135   -2.7256    0.0000 N   0  0  0  0  0  0  0  0  0  0  0  0
    0.7500   -1.2990    0.0000 C   0  0  0  0  0  0  0  0  0  0  0  0
    1.5000    0.0000    0.0000 C   0  0  0  0  0  0  0  0  0  0  0  0
    0.7500    1.2990    0.0000 C   0  0  0  0  0  0  0  0  0  0  0  0
    1.5000    2.5981    0.0000 N   0  0  0  0  0  0  0  0  0  0  0  0
    3.0000    2.5981    0.0000 C   0  0  0  0  0  0  0  0  0  0  0  0
    0.7500    3.8971    0.0000 C   0  0  0  0  0  0  0  0  0  0  0  0
   -0.7500    3.8971    0.0000 O   0  0  0  0  0  0  0  0  0  0  0  0
    1.5000    5.1962    0.0000 C   0  0  0  0  0  0  0  0  0  0  0  0
    3.0000    5.1962    0.0000 C   0  0  0  0  0  0  0  0  0  0  0  0
    3.7500    6.4952    0.0000 C   0  0  0  0  0  0  0  0  0  0  0  0
    3.0000    7.7942    0.0000 C   0  0  0  0  0  0  0  0  0  0  0  0
    1.5000    7.7942    0.0000 C   0  0  0  0  0  0  0  0  0  0  0  0
    0.7500    6.4952    0.0000 C   0  0  0  0  0  0  0  0  0  0  0  0
   -0.7500    1.2990    0.0000 C   0  0  0  0  0  0  0  0  0  0  0  0
   -1.5000    0.0000    0.0000 C   0  0  0  0  0  0  0  0  0  0  0  0
   -0.7500   -1.2990    0.0000 C   0  0  0  0  0  0  0  0  0  0  0  0
   -7.7227   -2.1088    0.0000 C   0  0  0  0  0  0  0  0  0  0  0  0
   -8.8374   -1.1051    0.0000 C   0  0  0  0  0  0  0  0  0  0  0  0
  1  2  1  0
  2  3  1  0
  3  4  1  0
  4  5  1  0
  5  6  1  0
  6  7  2  0
  6  8  1  0
  8  9  1  0
  9 10  1  0
 10 11  1  0
 11 12  1  0
 12 13  1  0
 13 14  2  0
 13 15  1  0
 15 16  2  0
 16 17  1  0
 17 18  2  0
 18 19  1  0
 19 20  3  0
 18 21  1  0
 21 22  2  0
 11 23  2  0
 23 24  1  0
 24 25  2  0
 25 26  1  0
 26 27  1  0
 27 28  1  0
 27 29  1  0
 29 30  2  0
 29 31  1  0
 31 32  1  0
 32 33  1  0
 33 34  1  0
 34 35  1  0
 35 36  1  0
 26 37  2  0
 37 38  1  0
 38 39  2  0
  5 40  1  0
 40 41  1  0
 41  2  1  0
 39 10  1  0
 22 15  1  0
 39 24  1  0
 36 31  1  0
M  END
>  <Compound_ID>  (314) 
CHEMBL444151

>  <Molecule Name>  (314) 
nan

>  <Molecular Weight>  (314) 
555.68

>  <AlogP>  (314) 
3.87

>  <Smiles>  (314) 
CN1CCN(C(=O)CCn2c(NC(=O)c3ccc(C#N)cc3)nc3cc(N(C)C(=O)C4CCCCC4)ccc32)CC1

>  <Standard Type>  (314) 
IC50

>  <Standard Relation>  (314) 
'='

>  <Standard Units>  (314) 
nM

>  <Standard Value>  (314) 
18.0

>  <Assay ChEMBL ID>  (314) 
CHEMBL992563

>  <Assay Description>  (314) 
Inhibition of ITK by DELFIA assay

>  <BAO Format ID>  (314) 
BAO_0000357

>  <BAO Label>  (314) 
single protein format

>  <Assay Organism>  (314) 
None

>  <Target ChEMBL ID>  (314) 
CHEMBL2959

>  <Target Name>  (314) 
Tyrosine-protein kinase ITK/TSK

>  <Target Organism>  (314) 
Homo sapiens

>  <Target Type>  (314) 
SINGLE PROTEIN

>  <Document ChEMBL ID>  (314) 
CHEMBL1142468

>  <Source Description>  (314) 
Scientific Literature

>  <Document Journal>  (314) 
Bioorg Med Chem Lett

>  <Document Year>  (314) 
2008.0

>  <Active>  (314) 
1.0

$$$$

     RDKit          2D

 33 37  0  0  0  0  0  0  0  0999 V2000
   -1.0981   -9.6073    0.0000 O   0  0  0  0  0  0  0  0  0  0  0  0
   -2.5981   -9.6073    0.0000 S   0  0  0  0  0  0  0  0  0  0  0  0
   -4.0981   -9.6073    0.0000 O   0  0  0  0  0  0  0  0  0  0  0  0
   -2.5981  -11.1073    0.0000 C   0  0  0  0  0  0  0  0  0  0  0  0
   -3.8971  -11.8573    0.0000 C   0  0  0  0  0  0  0  0  0  0  0  0
   -3.8971  -13.3573    0.0000 C   0  0  0  0  0  0  0  0  0  0  0  0
   -2.5981  -14.1073    0.0000 C   0  0  0  0  0  0  0  0  0  0  0  0
   -1.2990  -13.3573    0.0000 C   0  0  0  0  0  0  0  0  0  0  0  0
   -1.2990  -11.8573    0.0000 C   0  0  0  0  0  0  0  0  0  0  0  0
   -2.5981   -8.1073    0.0000 C   0  0  0  0  0  0  0  0  0  0  0  0
   -1.2990   -7.3573    0.0000 C   0  0  0  0  0  0  0  0  0  0  0  0
   -1.2990   -5.8573    0.0000 C   0  0  0  0  0  0  0  0  0  0  0  0
   -0.0000   -5.1073    0.0000 N   0  0  0  0  0  0  0  0  0  0  0  0
   -0.0000   -3.6073    0.0000 C   0  0  0  0  0  0  0  0  0  0  0  0
    1.2135   -2.7256    0.0000 N   0  0  0  0  0  0  0  0  0  0  0  0
    0.7500   -1.2990    0.0000 C   0  0  0  0  0  0  0  0  0  0  0  0
    1.5000    0.0000    0.0000 C   0  0  0  0  0  0  0  0  0  0  0  0
    0.7500    1.2990    0.0000 C   0  0  0  0  0  0  0  0  0  0  0  0
   -0.7500    1.2990    0.0000 C   0  0  0  0  0  0  0  0  0  0  0  0
   -1.5000    0.0000    0.0000 C   0  0  0  0  0  0  0  0  0  0  0  0
   -0.7500   -1.2990    0.0000 C   0  0  0  0  0  0  0  0  0  0  0  0
   -1.2135   -2.7256    0.0000 S   0  0  0  0  0  0  0  0  0  0  0  0
   -2.5981   -5.1073    0.0000 N   0  0  0  0  0  0  0  0  0  0  0  0
   -3.8971   -5.8573    0.0000 C   0  0  0  0  0  0  0  0  0  0  0  0
   -5.1962   -5.1073    0.0000 N   0  0  0  0  0  0  0  0  0  0  0  0
   -5.1962   -3.6073    0.0000 C   0  0  0  0  0  0  0  0  0  0  0  0
   -3.8971   -2.8573    0.0000 C   0  0  0  0  0  0  0  0  0  0  0  0
   -3.8971   -1.3573    0.0000 C   0  0  0  0  0  0  0  0  0  0  0  0
   -5.1962   -0.6073    0.0000 C   0  0  0  0  0  0  0  0  0  0  0  0
   -5.1962    0.8927    0.0000 O   0  0  0  0  0  0  0  0  0  0  0  0
   -6.4952   -1.3573    0.0000 C   0  0  0  0  0  0  0  0  0  0  0  0
   -6.4952   -2.8573    0.0000 C   0  0  0  0  0  0  0  0  0  0  0  0
   -3.8971   -7.3573    0.0000 C   0  0  0  0  0  0  0  0  0  0  0  0
  1  2  2  0
  2  3  2  0
  2  4  1  0
  4  5  2  0
  5  6  1  0
  6  7  2  0
  7  8  1  0
  8  9  2  0
  2 10  1  0
 10 11  2  0
 11 12  1  0
 12 13  1  0
 13 14  1  0
 14 15  2  0
 15 16  1  0
 16 17  2  0
 17 18  1  0
 18 19  2  0
 19 20  1  0
 20 21  2  0
 21 22  1  0
 12 23  2  0
 23 24  1  0
 24 25  1  0
 26 25  1  6
 26 27  1  0
 27 28  1  0
 28 29  1  0
 29 30  1  1
 29 31  1  0
 31 32  1  0
 24 33  2  0
  9  4  1  0
 33 10  1  0
 22 14  1  0
 32 26  1  0
 21 16  1  0
M  END
>  <Compound_ID>  (315) 
CHEMBL3355729

>  <Molecule Name>  (315) 
nan

>  <Molecular Weight>  (315) 
480.62

>  <AlogP>  (315) 
4.98

>  <Smiles>  (315) 
O=S(=O)(c1ccccc1)c1cc(Nc2nc3ccccc3s2)nc(N[C@H]2CC[C@H](O)CC2)c1

>  <Standard Type>  (315) 
Ki

>  <Standard Relation>  (315) 
'='

>  <Standard Units>  (315) 
nM

>  <Standard Value>  (315) 
8.0

>  <Assay ChEMBL ID>  (315) 
CHEMBL3389531

>  <Assay Description>  (315) 
Inhibition of GST-tagged full-length ITK (unknown origin) using Ac-EFPIYDFLPAKKK-NH2 as substrate after 35 mins by LC/MS analysis

>  <BAO Format ID>  (315) 
BAO_0000357

>  <BAO Label>  (315) 
single protein format

>  <Assay Organism>  (315) 
Homo sapiens

>  <Target ChEMBL ID>  (315) 
CHEMBL2959

>  <Target Name>  (315) 
Tyrosine-protein kinase ITK/TSK

>  <Target Organism>  (315) 
Homo sapiens

>  <Target Type>  (315) 
SINGLE PROTEIN

>  <Document ChEMBL ID>  (315) 
CHEMBL3352735

>  <Source Description>  (315) 
Scientific Literature

>  <Document Journal>  (315) 
Bioorg Med Chem Lett

>  <Document Year>  (315) 
2014.0

>  <Active>  (315) 
1.0

$$$$

     RDKit          2D

 35 38  0  0  0  0  0  0  0  0999 V2000
   -9.7500   -6.4952    0.0000 C   0  0  0  0  0  0  0  0  0  0  0  0
   -8.2500   -6.4952    0.0000 C   0  0  0  0  0  0  0  0  0  0  0  0
   -7.5000   -5.1962    0.0000 C   0  0  0  0  0  0  0  0  0  0  0  0
   -8.2500   -3.8971    0.0000 O   0  0  0  0  0  0  0  0  0  0  0  0
   -6.0000   -5.1962    0.0000 N   0  0  0  0  0  0  0  0  0  0  0  0
   -5.2500   -3.8971    0.0000 C   0  0  0  0  0  0  0  0  0  0  0  0
   -6.0000   -2.5981    0.0000 C   0  0  0  0  0  0  0  0  0  0  0  0
   -5.2500   -1.2990    0.0000 C   0  0  0  0  0  0  0  0  0  0  0  0
   -3.7500   -1.2990    0.0000 C   0  0  0  0  0  0  0  0  0  0  0  0
   -3.0000   -2.5981    0.0000 C   0  0  0  0  0  0  0  0  0  0  0  0
   -1.5000   -2.5981    0.0000 N   0  0  0  0  0  0  0  0  0  0  0  0
   -0.7500   -3.8971    0.0000 C   0  0  0  0  0  0  0  0  0  0  0  0
   -1.5000   -5.1962    0.0000 O   0  0  0  0  0  0  0  0  0  0  0  0
    0.7500   -3.8971    0.0000 C   0  0  0  0  0  0  0  0  0  0  0  0
    1.5000   -5.1962    0.0000 C   0  0  0  0  0  0  0  0  0  0  0  0
    1.5000   -2.5981    0.0000 N   0  0  0  0  0  0  0  0  0  0  0  0
    0.7500   -1.2990    0.0000 C   0  0  0  0  0  0  0  0  0  0  0  0
    1.5000    0.0000    0.0000 C   0  0  0  0  0  0  0  0  0  0  0  0
    0.7500    1.2990    0.0000 N   0  0  0  0  0  0  0  0  0  0  0  0
   -0.7500    1.2990    0.0000 C   0  0  0  0  0  0  0  0  0  0  0  0
   -1.5000    2.5981    0.0000 N   0  0  0  0  0  0  0  0  0  0  0  0
   -0.7500    3.8971    0.0000 C   0  0  0  0  0  0  0  0  0  0  0  0
    0.7500    3.8971    0.0000 C   0  0  0  0  0  0  0  0  0  0  0  0
    1.5000    5.1962    0.0000 C   0  0  0  0  0  0  0  0  0  0  0  0
    0.7500    6.4952    0.0000 C   0  0  0  0  0  0  0  0  0  0  0  0
    1.5000    7.7942    0.0000 O   0  0  0  0  0  0  0  0  0  0  0  0
    3.0000    7.7942    0.0000 C   0  0  0  0  0  0  0  0  0  0  0  0
    3.7500    9.0933    0.0000 C   0  0  0  0  0  0  0  0  0  0  0  0
    5.2500    9.0933    0.0000 O   0  0  0  0  0  0  0  0  0  0  0  0
    6.0000   10.3923    0.0000 C   0  0  0  0  0  0  0  0  0  0  0  0
   -0.7500    6.4952    0.0000 C   0  0  0  0  0  0  0  0  0  0  0  0
   -1.5000    5.1962    0.0000 C   0  0  0  0  0  0  0  0  0  0  0  0
   -1.5000    0.0000    0.0000 N   0  0  0  0  0  0  0  0  0  0  0  0
   -0.7500   -1.2990    0.0000 C   0  0  0  0  0  0  0  0  0  0  0  0
   -3.7500   -3.8971    0.0000 C   0  0  0  0  0  0  0  0  0  0  0  0
  1  2  2  0
  2  3  1  0
  3  4  2  0
  3  5  1  0
  5  6  1  0
  6  7  2  0
  7  8  1  0
  8  9  2  0
  9 10  1  0
 10 11  1  0
 11 12  1  0
 12 13  2  0
 12 14  1  0
 14 15  1  0
 14 16  2  0
 16 17  1  0
 17 18  2  0
 18 19  1  0
 19 20  2  0
 20 21  1  0
 21 22  1  0
 22 23  2  0
 23 24  1  0
 24 25  2  0
 25 26  1  0
 26 27  1  0
 27 28  1  0
 28 29  1  0
 29 30  1  0
 25 31  1  0
 31 32  2  0
 20 33  1  0
 33 34  2  0
 10 35  2  0
 35  6  1  0
 34 11  1  0
 34 17  1  0
 32 22  1  0
M  END
>  <Compound_ID>  (316) 
CHEMBL5087785

>  <Molecule Name>  (316) 
nan

>  <Molecular Weight>  (316) 
472.51

>  <AlogP>  (316) 
3.38

>  <Smiles>  (316) 
C=CC(=O)Nc1cccc(-n2c(=O)c(C)nc3cnc(Nc4ccc(OCCOC)cc4)nc32)c1

>  <Standard Type>  (316) 
IC50

>  <Standard Relation>  (316) 
'='

>  <Standard Units>  (316) 
nM

>  <Standard Value>  (316) 
21.9

>  <Assay ChEMBL ID>  (316) 
CHEMBL5045466

>  <Assay Description>  (316) 
Inhibition of human ITK using poly-Glu-Tyr (4:1) as substrate incubated for 1 hr by ELISA

>  <BAO Format ID>  (316) 
BAO_0000357

>  <BAO Label>  (316) 
single protein format

>  <Assay Organism>  (316) 
Homo sapiens

>  <Target ChEMBL ID>  (316) 
CHEMBL2959

>  <Target Name>  (316) 
Tyrosine-protein kinase ITK/TSK

>  <Target Organism>  (316) 
Homo sapiens

>  <Target Type>  (316) 
SINGLE PROTEIN

>  <Document ChEMBL ID>  (316) 
CHEMBL5042540

>  <Source Description>  (316) 
Scientific Literature

>  <Document Journal>  (316) 
J Med Chem

>  <Document Year>  (316) 
2022.0

>  <Active>  (316) 
1.0

$$$$

     RDKit          2D

 23 25  0  0  0  0  0  0  0  0999 V2000
   -3.0000  -10.3923    0.0000 C   0  0  0  0  0  0  0  0  0  0  0  0
   -2.2500   -9.0933    0.0000 C   0  0  0  0  0  0  0  0  0  0  0  0
   -1.5000   -7.7942    0.0000 C   0  0  0  0  0  0  0  0  0  0  0  0
   -0.7500   -6.4952    0.0000 C   0  0  0  0  0  0  0  0  0  0  0  0
   -1.5000   -5.1962    0.0000 O   0  0  0  0  0  0  0  0  0  0  0  0
    0.7500   -6.4952    0.0000 N   0  0  0  0  0  0  0  0  0  0  0  0
    1.5000   -5.1962    0.0000 C   0  0  0  0  0  0  0  0  0  0  0  0
    0.7500   -3.8971    0.0000 C   0  0  0  0  0  0  0  0  0  0  0  0
    1.5000   -2.5981    0.0000 C   0  0  0  0  0  0  0  0  0  0  0  0
    0.7500   -1.2990    0.0000 C   0  0  0  0  0  0  0  0  0  0  0  0
    1.5000    0.0000    0.0000 C   0  0  0  0  0  0  0  0  0  0  0  0
    0.7500    1.2990    0.0000 N   0  0  0  0  0  0  0  0  0  0  0  0
   -0.7500    1.2990    0.0000 C   0  0  0  0  0  0  0  0  0  0  0  0
   -1.7537    2.4138    0.0000 N   0  0  0  0  0  0  0  0  0  0  0  0
   -3.1240    1.8037    0.0000 C   0  0  0  0  0  0  0  0  0  0  0  0
   -2.9672    0.3119    0.0000 C   0  0  0  0  0  0  0  0  0  0  0  0
   -4.0819   -0.6918    0.0000 Cl  0  0  0  0  0  0  0  0  0  0  0  0
   -1.5000    0.0000    0.0000 C   0  0  0  0  0  0  0  0  0  0  0  0
   -0.7500   -1.2990    0.0000 C   0  0  0  0  0  0  0  0  0  0  0  0
    3.0000   -2.5981    0.0000 C   0  0  0  0  0  0  0  0  0  0  0  0
    3.7500   -3.8971    0.0000 C   0  0  0  0  0  0  0  0  0  0  0  0
    3.0000   -5.1962    0.0000 C   0  0  0  0  0  0  0  0  0  0  0  0
    3.7500   -6.4952    0.0000 F   0  0  0  0  0  0  0  0  0  0  0  0
  1  2  1  0
  2  3  3  0
  3  4  1  0
  4  5  2  0
  4  6  1  0
  6  7  1  0
  7  8  2  0
  8  9  1  0
  9 10  1  0
 10 11  2  0
 11 12  1  0
 12 13  2  0
 13 14  1  0
 14 15  1  0
 15 16  2  0
 16 17  1  0
 16 18  1  0
 18 19  2  0
  9 20  2  0
 20 21  1  0
 21 22  2  0
 22 23  1  0
 22  7  1  0
 19 10  1  0
 18 13  1  0
M  END
>  <Compound_ID>  (317) 
CHEMBL3944305

>  <Molecule Name>  (317) 
nan

>  <Molecular Weight>  (317) 
327.75

>  <AlogP>  (317) 
3.98

>  <Smiles>  (317) 
CC#CC(=O)Nc1cc(-c2cnc3[nH]cc(Cl)c3c2)ccc1F

>  <Standard Type>  (317) 
IC50

>  <Standard Relation>  (317) 
'='

>  <Standard Units>  (317) 
nM

>  <Standard Value>  (317) 
30.0

>  <Assay ChEMBL ID>  (317) 
CHEMBL3887687

>  <Assay Description>  (317) 
Biochemical Inhibition Assay: 1H-pyrrolo[2,3-b]pyridine, 1H-pyrazolo[3,4-b]pyridine and 5H-pyrrolo[2,3-b]pyrazine series of compounds exhibited over >100 fold selective against Janus and TEC family of kinases except for the BMX and TXK it had activity of 30 and 45 nM respectively.

>  <BAO Format ID>  (317) 
BAO_0000357

>  <BAO Label>  (317) 
single protein format

>  <Assay Organism>  (317) 
Homo sapiens

>  <Target ChEMBL ID>  (317) 
CHEMBL2959

>  <Target Name>  (317) 
Tyrosine-protein kinase ITK/TSK

>  <Target Organism>  (317) 
Homo sapiens

>  <Target Type>  (317) 
SINGLE PROTEIN

>  <Document ChEMBL ID>  (317) 
CHEMBL3886406

>  <Source Description>  (317) 
BindingDB Database

>  <Document Journal>  (317) 
nan

>  <Document Year>  (317) 
2015.0

>  <Active>  (317) 
1.0

$$$$

     RDKit          2D

 33 37  0  0  0  0  0  0  0  0999 V2000
  -10.2497   -1.4504    0.0000 C   0  0  0  0  0  0  0  0  0  0  0  0
   -8.8231   -1.9139    0.0000 C   0  0  0  0  0  0  0  0  0  0  0  0
   -8.5112   -3.3811    0.0000 C   0  0  0  0  0  0  0  0  0  0  0  0
   -9.6260   -4.3848    0.0000 O   0  0  0  0  0  0  0  0  0  0  0  0
   -7.0847   -3.8447    0.0000 N   0  0  0  0  0  0  0  0  0  0  0  0
   -6.6211   -5.2713    0.0000 C   0  0  0  0  0  0  0  0  0  0  0  0
   -5.1211   -5.2713    0.0000 C   0  0  0  0  0  0  0  0  0  0  0  0
   -4.6576   -3.8447    0.0000 C   0  0  0  0  0  0  0  0  0  0  0  0
   -5.8711   -2.9630    0.0000 C   0  0  0  0  0  0  0  0  0  0  0  0
   -3.3211   -4.5257    0.0000 C   0  0  0  0  0  0  0  0  0  0  0  0
   -2.6401   -3.1891    0.0000 C   0  0  0  0  0  0  0  0  0  0  0  0
   -1.2135   -2.7256    0.0000 N   0  0  0  0  0  0  0  0  0  0  0  0
   -0.0000   -3.6073    0.0000 C   0  0  0  0  0  0  0  0  0  0  0  0
   -0.0000   -5.1073    0.0000 N   0  0  0  0  0  0  0  0  0  0  0  0
   -1.2990   -5.8573    0.0000 C   0  0  0  0  0  0  0  0  0  0  0  0
   -2.5981   -5.1073    0.0000 O   0  0  0  0  0  0  0  0  0  0  0  0
   -1.2990   -7.3573    0.0000 C   0  0  0  0  0  0  0  0  0  0  0  0
   -0.0855   -8.2390    0.0000 C   0  0  0  0  0  0  0  0  0  0  0  0
   -0.5490   -9.6656    0.0000 C   0  0  0  0  0  0  0  0  0  0  0  0
   -2.0490   -9.6656    0.0000 C   0  0  0  0  0  0  0  0  0  0  0  0
   -2.9307  -10.8791    0.0000 C   0  0  0  0  0  0  0  0  0  0  0  0
   -3.8124  -12.0926    0.0000 C   0  0  0  0  0  0  0  0  0  0  0  0
   -1.7172  -11.7608    0.0000 F   0  0  0  0  0  0  0  0  0  0  0  0
   -4.1442   -9.9974    0.0000 F   0  0  0  0  0  0  0  0  0  0  0  0
   -2.5126   -8.2390    0.0000 S   0  0  0  0  0  0  0  0  0  0  0  0
    1.2135   -2.7256    0.0000 N   0  0  0  0  0  0  0  0  0  0  0  0
    0.7500   -1.2990    0.0000 C   0  0  0  0  0  0  0  0  0  0  0  0
    1.5000    0.0000    0.0000 C   0  0  0  0  0  0  0  0  0  0  0  0
    0.7500    1.2990    0.0000 C   0  0  0  0  0  0  0  0  0  0  0  0
   -0.7500    1.2990    0.0000 C   0  0  0  0  0  0  0  0  0  0  0  0
   -1.5000    0.0000    0.0000 C   0  0  0  0  0  0  0  0  0  0  0  0
   -0.7500   -1.2990    0.0000 C   0  0  0  0  0  0  0  0  0  0  0  0
   -3.9766   -2.5082    0.0000 C   0  0  0  0  0  0  0  0  0  0  0  0
  1  2  2  0
  2  3  1  0
  3  4  2  0
  3  5  1  0
  5  6  1  0
  6  7  1  0
  8  7  1  1
  8  9  1  0
  8 10  1  0
 10 11  1  0
 11 12  1  1
 12 13  1  0
 13 14  1  0
 14 15  1  0
 15 16  2  0
 15 17  1  0
 17 18  2  0
 18 19  1  0
 19 20  2  0
 20 21  1  0
 21 22  1  0
 21 23  1  0
 21 24  1  0
 20 25  1  0
 13 26  2  0
 26 27  1  0
 27 28  2  0
 28 29  1  0
 29 30  2  0
 30 31  1  0
 31 32  2  0
 11 33  1  0
  9  5  1  0
 32 12  1  0
 33  8  1  0
 25 17  1  0
 32 27  1  0
M  END
>  <Compound_ID>  (318) 
CHEMBL4204572

>  <Molecule Name>  (318) 
nan

>  <Molecular Weight>  (318) 
470.55

>  <AlogP>  (318) 
5.20

>  <Smiles>  (318) 
C=CC(=O)N1CC[C@]2(C1)C[C@H](n1c(NC(=O)c3ccc(C(C)(F)F)s3)nc3ccccc31)C2

>  <Standard Type>  (318) 
IC50

>  <Standard Relation>  (318) 
'='

>  <Standard Units>  (318) 
nM

>  <Standard Value>  (318) 
2.17

>  <Assay ChEMBL ID>  (318) 
CHEMBL4199503

>  <Assay Description>  (318) 
Inhibition of ITK (unknown origin) using fluorescently labeled peptide as substrate after 3 hrs by microfluidic mobility shift assay

>  <BAO Format ID>  (318) 
BAO_0000357

>  <BAO Label>  (318) 
single protein format

>  <Assay Organism>  (318) 
Homo sapiens

>  <Target ChEMBL ID>  (318) 
CHEMBL2959

>  <Target Name>  (318) 
Tyrosine-protein kinase ITK/TSK

>  <Target Organism>  (318) 
Homo sapiens

>  <Target Type>  (318) 
SINGLE PROTEIN

>  <Document ChEMBL ID>  (318) 
CHEMBL4196110

>  <Source Description>  (318) 
Scientific Literature

>  <Document Journal>  (318) 
ACS Med Chem Lett

>  <Document Year>  (318) 
2018.0

>  <Active>  (318) 
1.0

$$$$

     RDKit          2D

 24 27  0  0  0  0  0  0  0  0999 V2000
   -3.7548   -2.1855    0.0000 O   0  0  0  0  0  0  0  0  0  0  0  0
   -2.6401   -3.1891    0.0000 C   0  0  0  0  0  0  0  0  0  0  0  0
   -2.9520   -4.6564    0.0000 N   0  0  0  0  0  0  0  0  0  0  0  0
   -4.3786   -5.1199    0.0000 C   0  0  0  0  0  0  0  0  0  0  0  0
   -4.8421   -6.5465    0.0000 C   0  0  0  0  0  0  0  0  0  0  0  0
   -6.3421   -6.5465    0.0000 C   0  0  0  0  0  0  0  0  0  0  0  0
   -6.8056   -5.1199    0.0000 N   0  0  0  0  0  0  0  0  0  0  0  0
   -8.2322   -4.6564    0.0000 C   0  0  0  0  0  0  0  0  0  0  0  0
   -8.5441   -3.1891    0.0000 C   0  0  0  0  0  0  0  0  0  0  0  0
   -7.4293   -2.1855    0.0000 C   0  0  0  0  0  0  0  0  0  0  0  0
   -7.7412   -0.7182    0.0000 C   0  0  0  0  0  0  0  0  0  0  0  0
   -9.1678   -0.2547    0.0000 C   0  0  0  0  0  0  0  0  0  0  0  0
  -10.2825   -1.2584    0.0000 C   0  0  0  0  0  0  0  0  0  0  0  0
   -9.9707   -2.7256    0.0000 C   0  0  0  0  0  0  0  0  0  0  0  0
   -5.5921   -4.2382    0.0000 N   0  0  0  0  0  0  0  0  0  0  0  0
   -1.2135   -2.7256    0.0000 C   0  0  0  0  0  0  0  0  0  0  0  0
   -0.0000   -3.6073    0.0000 N   0  0  0  0  0  0  0  0  0  0  0  0
    1.2135   -2.7256    0.0000 N   0  0  0  0  0  0  0  0  0  0  0  0
    0.7500   -1.2990    0.0000 C   0  0  0  0  0  0  0  0  0  0  0  0
    1.5000    0.0000    0.0000 C   0  0  0  0  0  0  0  0  0  0  0  0
    0.7500    1.2990    0.0000 C   0  0  0  0  0  0  0  0  0  0  0  0
   -0.7500    1.2990    0.0000 C   0  0  0  0  0  0  0  0  0  0  0  0
   -1.5000    0.0000    0.0000 C   0  0  0  0  0  0  0  0  0  0  0  0
   -0.7500   -1.2990    0.0000 C   0  0  0  0  0  0  0  0  0  0  0  0
  1  2  2  0
  2  3  1  0
  3  4  1  0
  4  5  1  0
  5  6  2  0
  6  7  1  0
  7  8  1  0
  8  9  1  0
  9 10  2  0
 10 11  1  0
 11 12  2  0
 12 13  1  0
 13 14  2  0
  7 15  1  0
  2 16  1  0
 16 17  2  0
 17 18  1  0
 18 19  1  0
 19 20  2  0
 20 21  1  0
 21 22  2  0
 22 23  1  0
 23 24  2  0
 15  4  2  0
 24 16  1  0
 14  9  1  0
 24 19  1  0
M  END
>  <Compound_ID>  (319) 
CHEMBL3263038

>  <Molecule Name>  (319) 
nan

>  <Molecular Weight>  (319) 
317.35

>  <AlogP>  (319) 
3.06

>  <Smiles>  (319) 
O=C(Nc1ccn(Cc2ccccc2)n1)c1n[nH]c2ccccc12

>  <Standard Type>  (319) 
Ki

>  <Standard Relation>  (319) 
'='

>  <Standard Units>  (319) 
nM

>  <Standard Value>  (319) 
3.4

>  <Assay ChEMBL ID>  (319) 
CHEMBL3267591

>  <Assay Description>  (319) 
Inhibition of full-length ITK (unknown origin) using biotin-EQEDEPEGIYGVLF-NH2 as substrate by plate reader analysis

>  <BAO Format ID>  (319) 
BAO_0000357

>  <BAO Label>  (319) 
single protein format

>  <Assay Organism>  (319) 
Homo sapiens

>  <Target ChEMBL ID>  (319) 
CHEMBL2959

>  <Target Name>  (319) 
Tyrosine-protein kinase ITK/TSK

>  <Target Organism>  (319) 
Homo sapiens

>  <Target Type>  (319) 
SINGLE PROTEIN

>  <Document ChEMBL ID>  (319) 
CHEMBL3259776

>  <Source Description>  (319) 
Scientific Literature

>  <Document Journal>  (319) 
Bioorg Med Chem Lett

>  <Document Year>  (319) 
2014.0

>  <Active>  (319) 
1.0

$$$$

     RDKit          2D

 31 35  0  0  0  0  0  0  0  0999 V2000
   -9.9707   -2.7256    0.0000 C   0  0  0  0  0  0  0  0  0  0  0  0
   -8.5441   -3.1891    0.0000 C   0  0  0  0  0  0  0  0  0  0  0  0
   -8.2322   -4.6564    0.0000 C   0  0  0  0  0  0  0  0  0  0  0  0
   -9.3469   -5.6601    0.0000 C   0  0  0  0  0  0  0  0  0  0  0  0
  -10.7735   -5.1965    0.0000 C   0  0  0  0  0  0  0  0  0  0  0  0
  -11.8882   -6.2002    0.0000 C   0  0  0  0  0  0  0  0  0  0  0  0
  -11.5764   -7.6675    0.0000 C   0  0  0  0  0  0  0  0  0  0  0  0
  -10.1498   -8.1310    0.0000 C   0  0  0  0  0  0  0  0  0  0  0  0
   -9.0350   -7.1273    0.0000 C   0  0  0  0  0  0  0  0  0  0  0  0
   -6.8056   -5.1199    0.0000 N   0  0  0  0  0  0  0  0  0  0  0  0
   -5.5921   -4.2382    0.0000 C   0  0  0  0  0  0  0  0  0  0  0  0
   -4.3786   -5.1199    0.0000 C   0  0  0  0  0  0  0  0  0  0  0  0
   -2.9520   -4.6564    0.0000 N   0  0  0  0  0  0  0  0  0  0  0  0
   -2.6401   -3.1891    0.0000 C   0  0  0  0  0  0  0  0  0  0  0  0
   -3.7548   -2.1855    0.0000 O   0  0  0  0  0  0  0  0  0  0  0  0
   -1.2135   -2.7256    0.0000 C   0  0  0  0  0  0  0  0  0  0  0  0
   -0.0000   -3.6073    0.0000 N   0  0  0  0  0  0  0  0  0  0  0  0
    1.2135   -2.7256    0.0000 N   0  0  0  0  0  0  0  0  0  0  0  0
    0.7500   -1.2990    0.0000 C   0  0  0  0  0  0  0  0  0  0  0  0
    1.5000    0.0000    0.0000 C   0  0  0  0  0  0  0  0  0  0  0  0
    0.7500    1.2990    0.0000 C   0  0  0  0  0  0  0  0  0  0  0  0
    1.5000    2.5981    0.0000 C   0  0  0  0  0  0  0  0  0  0  0  0
    0.8899    3.9684    0.0000 C   0  0  0  0  0  0  0  0  0  0  0  0
    2.0046    4.9721    0.0000 N   0  0  0  0  0  0  0  0  0  0  0  0
    3.3037    4.2221    0.0000 N   0  0  0  0  0  0  0  0  0  0  0  0
    2.9918    2.7549    0.0000 C   0  0  0  0  0  0  0  0  0  0  0  0
   -0.7500    1.2990    0.0000 C   0  0  0  0  0  0  0  0  0  0  0  0
   -1.5000    0.0000    0.0000 C   0  0  0  0  0  0  0  0  0  0  0  0
   -0.7500   -1.2990    0.0000 C   0  0  0  0  0  0  0  0  0  0  0  0
   -4.8421   -6.5465    0.0000 C   0  0  0  0  0  0  0  0  0  0  0  0
   -6.3421   -6.5465    0.0000 N   0  0  0  0  0  0  0  0  0  0  0  0
  1  2  1  0
  3  2  1  6
  3  4  1  0
  4  5  2  0
  5  6  1  0
  6  7  2  0
  7  8  1  0
  8  9  2  0
  3 10  1  0
 10 11  1  0
 11 12  2  0
 12 13  1  0
 13 14  1  0
 14 15  2  0
 14 16  1  0
 16 17  2  0
 17 18  1  0
 18 19  1  0
 19 20  2  0
 20 21  1  0
 21 22  1  0
 22 23  1  0
 23 24  2  0
 24 25  1  0
 25 26  1  0
 21 27  2  0
 27 28  1  0
 28 29  2  0
 12 30  1  0
 30 31  2  0
  9  4  1  0
 31 10  1  0
 29 16  1  0
 29 19  1  0
 26 22  2  0
M  END
>  <Compound_ID>  (320) 
CHEMBL3263049

>  <Molecule Name>  (320) 
nan

>  <Molecular Weight>  (320) 
411.47

>  <AlogP>  (320) 
4.40

>  <Smiles>  (320) 
CC[C@@H](c1ccccc1)n1cc(NC(=O)c2n[nH]c3cc(-c4cn[nH]c4)ccc23)cn1

>  <Standard Type>  (320) 
Ki

>  <Standard Relation>  (320) 
'='

>  <Standard Units>  (320) 
nM

>  <Standard Value>  (320) 
1.0

>  <Assay ChEMBL ID>  (320) 
CHEMBL3267591

>  <Assay Description>  (320) 
Inhibition of full-length ITK (unknown origin) using biotin-EQEDEPEGIYGVLF-NH2 as substrate by plate reader analysis

>  <BAO Format ID>  (320) 
BAO_0000357

>  <BAO Label>  (320) 
single protein format

>  <Assay Organism>  (320) 
Homo sapiens

>  <Target ChEMBL ID>  (320) 
CHEMBL2959

>  <Target Name>  (320) 
Tyrosine-protein kinase ITK/TSK

>  <Target Organism>  (320) 
Homo sapiens

>  <Target Type>  (320) 
SINGLE PROTEIN

>  <Document ChEMBL ID>  (320) 
CHEMBL3259776

>  <Source Description>  (320) 
Scientific Literature

>  <Document Journal>  (320) 
Bioorg Med Chem Lett

>  <Document Year>  (320) 
2014.0

>  <Active>  (320) 
1.0

$$$$

     RDKit          2D

 32 35  0  0  0  0  0  0  0  0999 V2000
    3.7500   -1.2990    0.0000 C   0  0  0  0  0  0  0  0  0  0  0  0
    3.0000    0.0000    0.0000 C   0  0  0  0  0  0  0  0  0  0  0  0
    3.7500    1.2990    0.0000 O   0  0  0  0  0  0  0  0  0  0  0  0
    1.5000    0.0000    0.0000 N   0  0  0  0  0  0  0  0  0  0  0  0
    0.7500   -1.2990    0.0000 C   0  0  0  0  0  0  0  0  0  0  0  0
   -0.7500   -1.2990    0.0000 C   0  0  0  0  0  0  0  0  0  0  0  0
   -1.5000    0.0000    0.0000 N   0  0  0  0  0  0  0  0  0  0  0  0
   -3.0000    0.0000    0.0000 C   0  0  0  0  0  0  0  0  0  0  0  0
   -3.7500   -1.2990    0.0000 O   0  0  0  0  0  0  0  0  0  0  0  0
   -3.7500    1.2990    0.0000 C   0  0  0  0  0  0  0  0  0  0  0  0
   -3.0000    2.5981    0.0000 C   0  0  0  0  0  0  0  0  0  0  0  0
   -3.7500    3.8971    0.0000 C   0  0  0  0  0  0  0  0  0  0  0  0
   -3.0000    5.1962    0.0000 S   0  0  0  0  0  0  0  0  0  0  0  0
   -1.5000    5.1962    0.0000 C   0  0  0  0  0  0  0  0  0  0  0  0
   -0.6183    6.4097    0.0000 C   0  0  0  0  0  0  0  0  0  0  0  0
    0.8083    5.9462    0.0000 N   0  0  0  0  0  0  0  0  0  0  0  0
    0.8083    4.4462    0.0000 C   0  0  0  0  0  0  0  0  0  0  0  0
    2.0218    3.5645    0.0000 N   0  0  0  0  0  0  0  0  0  0  0  0
    3.3921    4.1746    0.0000 C   0  0  0  0  0  0  0  0  0  0  0  0
    4.6056    3.2929    0.0000 C   0  0  0  0  0  0  0  0  0  0  0  0
    5.9760    3.9030    0.0000 C   0  0  0  0  0  0  0  0  0  0  0  0
    6.1327    5.3948    0.0000 C   0  0  0  0  0  0  0  0  0  0  0  0
    4.9192    6.2765    0.0000 C   0  0  0  0  0  0  0  0  0  0  0  0
    5.0760    7.7683    0.0000 Br  0  0  0  0  0  0  0  0  0  0  0  0
    3.5489    5.6664    0.0000 N   0  0  0  0  0  0  0  0  0  0  0  0
   -0.6183    3.9826    0.0000 S   0  0  0  0  0  0  0  0  0  0  0  0
   -5.2500    3.8971    0.0000 C   0  0  0  0  0  0  0  0  0  0  0  0
   -6.0000    2.5981    0.0000 C   0  0  0  0  0  0  0  0  0  0  0  0
   -5.2500    1.2990    0.0000 C   0  0  0  0  0  0  0  0  0  0  0  0
   -6.0000    0.0000    0.0000 O   0  0  0  0  0  0  0  0  0  0  0  0
   -0.7500    1.2990    0.0000 C   0  0  0  0  0  0  0  0  0  0  0  0
    0.7500    1.2990    0.0000 C   0  0  0  0  0  0  0  0  0  0  0  0
  1  2  1  0
  2  3  2  0
  2  4  1  0
  4  5  1  0
  5  6  1  0
  6  7  1  0
  7  8  1  0
  8  9  2  0
  8 10  1  0
 10 11  2  0
 11 12  1  0
 12 13  1  0
 13 14  1  0
 14 15  2  0
 15 16  1  0
 16 17  2  0
 17 18  1  0
 18 19  1  0
 19 20  2  0
 20 21  1  0
 21 22  2  0
 22 23  1  0
 23 24  1  0
 23 25  2  0
 17 26  1  0
 12 27  2  0
 27 28  1  0
 28 29  2  0
 29 30  1  0
  7 31  1  0
 31 32  1  0
 32  4  1  0
 29 10  1  0
 26 14  1  0
 25 19  1  0
M  END
>  <Compound_ID>  (321) 
CHEMBL210248

>  <Molecule Name>  (321) 
nan

>  <Molecular Weight>  (321) 
534.46

>  <AlogP>  (321) 
4.21

>  <Smiles>  (321) 
CC(=O)N1CCN(C(=O)c2cc(Sc3cnc(Nc4cccc(Br)n4)s3)ccc2O)CC1

>  <Standard Type>  (321) 
IC50

>  <Standard Relation>  (321) 
'='

>  <Standard Units>  (321) 
nM

>  <Standard Value>  (321) 
7.0

>  <Assay ChEMBL ID>  (321) 
CHEMBL864159

>  <Assay Description>  (321) 
Inhibition of Itk

>  <BAO Format ID>  (321) 
BAO_0000357

>  <BAO Label>  (321) 
single protein format

>  <Assay Organism>  (321) 
Homo sapiens

>  <Target ChEMBL ID>  (321) 
CHEMBL2959

>  <Target Name>  (321) 
Tyrosine-protein kinase ITK/TSK

>  <Target Organism>  (321) 
Homo sapiens

>  <Target Type>  (321) 
SINGLE PROTEIN

>  <Document ChEMBL ID>  (321) 
CHEMBL1138957

>  <Source Description>  (321) 
Scientific Literature

>  <Document Journal>  (321) 
Bioorg Med Chem Lett

>  <Document Year>  (321) 
2006.0

>  <Active>  (321) 
1.0

$$$$

     RDKit          2D

 33 38  0  0  0  0  0  0  0  0999 V2000
   -5.4122    9.0053    0.0000 C   0  0  0  0  0  0  0  0  0  0  0  0
   -5.7240    7.5381    0.0000 C   0  0  0  0  0  0  0  0  0  0  0  0
   -4.6093    6.5344    0.0000 C   0  0  0  0  0  0  0  0  0  0  0  0
   -4.9212    5.0672    0.0000 C   0  0  0  0  0  0  0  0  0  0  0  0
   -4.0395    3.8536    0.0000 N   0  0  0  0  0  0  0  0  0  0  0  0
   -4.9212    2.6401    0.0000 C   0  0  0  0  0  0  0  0  0  0  0  0
   -4.4577    1.2135    0.0000 C   0  0  0  0  0  0  0  0  0  0  0  0
   -5.3394   -0.0000    0.0000 N   0  0  0  0  0  0  0  0  0  0  0  0
   -4.4577   -1.2135    0.0000 N   0  0  0  0  0  0  0  0  0  0  0  0
   -3.0311   -0.7500    0.0000 C   0  0  0  0  0  0  0  0  0  0  0  0
   -3.0311    0.7500    0.0000 C   0  0  0  0  0  0  0  0  0  0  0  0
   -1.7321    1.5000    0.0000 C   0  0  0  0  0  0  0  0  0  0  0  0
   -0.4330    0.7500    0.0000 C   0  0  0  0  0  0  0  0  0  0  0  0
    0.8660    0.0000    0.0000 C   0  0  0  0  0  0  0  0  0  0  0  0
   -0.4330   -0.7500    0.0000 C   0  0  0  0  0  0  0  0  0  0  0  0
    0.3170   -2.0490    0.0000 C   0  0  0  0  0  0  0  0  0  0  0  0
   -1.7321   -1.5000    0.0000 C   0  0  0  0  0  0  0  0  0  0  0  0
   -6.3478    3.1036    0.0000 N   0  0  0  0  0  0  0  0  0  0  0  0
   -6.3478    4.6036    0.0000 C   0  0  0  0  0  0  0  0  0  0  0  0
   -7.4625    5.6073    0.0000 C   0  0  0  0  0  0  0  0  0  0  0  0
   -7.1506    7.0746    0.0000 C   0  0  0  0  0  0  0  0  0  0  0  0
   -8.2654    8.0782    0.0000 N   0  0  0  0  0  0  0  0  0  0  0  0
   -9.6919    7.6147    0.0000 C   0  0  0  0  0  0  0  0  0  0  0  0
   -7.9535    9.5455    0.0000 C   0  0  0  0  0  0  0  0  0  0  0  0
   -6.5269   10.0090    0.0000 O   0  0  0  0  0  0  0  0  0  0  0  0
   -9.0682   10.5492    0.0000 C   0  0  0  0  0  0  0  0  0  0  0  0
   -8.7563   12.0164    0.0000 N   0  0  0  0  0  0  0  0  0  0  0  0
   -7.3297   12.4799    0.0000 C   0  0  0  0  0  0  0  0  0  0  0  0
   -7.0179   13.9471    0.0000 C   0  0  0  0  0  0  0  0  0  0  0  0
   -8.1326   14.9508    0.0000 O   0  0  0  0  0  0  0  0  0  0  0  0
   -9.5592   14.4873    0.0000 C   0  0  0  0  0  0  0  0  0  0  0  0
   -9.8711   13.0201    0.0000 C   0  0  0  0  0  0  0  0  0  0  0  0
  -11.2976   12.5566    0.0000 O   0  0  0  0  0  0  0  0  0  0  0  0
  1  2  1  0
  2  3  2  0
  3  4  1  0
  4  5  1  0
  5  6  1  0
  6  7  1  0
  7  8  2  0
  8  9  1  0
  9 10  1  0
 10 11  2  0
 11 12  1  0
 13 12  1  6
 13 14  1  0
 14 15  1  0
 15 16  1  1
 15 17  1  0
  6 18  2  0
 18 19  1  0
 19 20  1  0
 20 21  2  0
 21 22  1  0
 22 23  1  0
 22 24  1  0
 24 25  2  0
 24 26  1  0
 26 27  1  0
 27 28  1  0
 28 29  1  0
 29 30  1  0
 30 31  1  0
 31 32  1  0
 32 33  2  0
 21  2  1  0
 32 27  1  0
 19  4  2  0
 11  7  1  0
 15 13  1  0
 17 10  1  0
M  END
>  <Compound_ID>  (322) 
CHEMBL5086824

>  <Molecule Name>  (322) 
nan

>  <Molecular Weight>  (322) 
448.53

>  <AlogP>  (322) 
2.21

>  <Smiles>  (322) 
Cc1cc2[nH]c(-c3n[nH]c4c3C[C@@H]3C[C@]3(C)C4)nc2cc1N(C)C(=O)CN1CCOCC1=O

>  <Standard Type>  (322) 
IC50

>  <Standard Relation>  (322) 
'='

>  <Standard Units>  (322) 
nM

>  <Standard Value>  (322) 
5.0

>  <Assay ChEMBL ID>  (322) 
CHEMBL5058465

>  <Assay Description>  (322) 
Inhibition of ITK (unknown origin) using BTK peptide as substrate preincubated for 30 mins followed by addition of substrate and measured after 60 mins by flourescence based plate reader assay

>  <BAO Format ID>  (322) 
BAO_0000357

>  <BAO Label>  (322) 
single protein format

>  <Assay Organism>  (322) 
Homo sapiens

>  <Target ChEMBL ID>  (322) 
CHEMBL2959

>  <Target Name>  (322) 
Tyrosine-protein kinase ITK/TSK

>  <Target Organism>  (322) 
Homo sapiens

>  <Target Type>  (322) 
SINGLE PROTEIN

>  <Document ChEMBL ID>  (322) 
CHEMBL5055688

>  <Source Description>  (322) 
Scientific Literature

>  <Document Journal>  (322) 
ACS Med Chem Lett

>  <Document Year>  (322) 
2021.0

>  <Active>  (322) 
1.0

$$$$

     RDKit          2D

 32 35  0  0  0  0  0  0  0  0999 V2000
    3.7500   -1.2990    0.0000 C   0  0  0  0  0  0  0  0  0  0  0  0
    3.0000    0.0000    0.0000 O   0  0  0  0  0  0  0  0  0  0  0  0
    1.5000    0.0000    0.0000 C   0  0  0  0  0  0  0  0  0  0  0  0
    0.7500   -1.2990    0.0000 C   0  0  0  0  0  0  0  0  0  0  0  0
   -0.7500   -1.2990    0.0000 C   0  0  0  0  0  0  0  0  0  0  0  0
   -1.5000   -2.5981    0.0000 C   0  0  0  0  0  0  0  0  0  0  0  0
   -1.5000    0.0000    0.0000 C   0  0  0  0  0  0  0  0  0  0  0  0
   -3.0000    0.0000    0.0000 S   0  0  0  0  0  0  0  0  0  0  0  0
   -3.7500    1.2990    0.0000 C   0  0  0  0  0  0  0  0  0  0  0  0
   -5.2418    1.4558    0.0000 C   0  0  0  0  0  0  0  0  0  0  0  0
   -5.5537    2.9231    0.0000 N   0  0  0  0  0  0  0  0  0  0  0  0
   -4.2546    3.6731    0.0000 C   0  0  0  0  0  0  0  0  0  0  0  0
   -4.0978    5.1648    0.0000 N   0  0  0  0  0  0  0  0  0  0  0  0
   -2.7275    5.7749    0.0000 C   0  0  0  0  0  0  0  0  0  0  0  0
   -1.5140    4.8933    0.0000 O   0  0  0  0  0  0  0  0  0  0  0  0
   -2.5707    7.2667    0.0000 C   0  0  0  0  0  0  0  0  0  0  0  0
   -3.1808    8.6370    0.0000 C   0  0  0  0  0  0  0  0  0  0  0  0
   -1.6890    8.4802    0.0000 C   0  0  0  0  0  0  0  0  0  0  0  0
   -3.1399    2.6694    0.0000 S   0  0  0  0  0  0  0  0  0  0  0  0
   -0.7500    1.2990    0.0000 C   0  0  0  0  0  0  0  0  0  0  0  0
    0.7500    1.2990    0.0000 C   0  0  0  0  0  0  0  0  0  0  0  0
    1.5000    2.5981    0.0000 C   0  0  0  0  0  0  0  0  0  0  0  0
    0.7500    3.8971    0.0000 O   0  0  0  0  0  0  0  0  0  0  0  0
    3.0000    2.5981    0.0000 N   0  0  0  0  0  0  0  0  0  0  0  0
    3.7500    1.2990    0.0000 C   0  0  0  0  0  0  0  0  0  0  0  0
    5.2500    1.2990    0.0000 C   0  0  0  0  0  0  0  0  0  0  0  0
    6.0000    2.5981    0.0000 N   0  0  0  0  0  0  0  0  0  0  0  0
    7.5000    2.5981    0.0000 C   0  0  0  0  0  0  0  0  0  0  0  0
    8.2500    1.2990    0.0000 C   0  0  0  0  0  0  0  0  0  0  0  0
    8.2500    3.8971    0.0000 O   0  0  0  0  0  0  0  0  0  0  0  0
    5.2500    3.8971    0.0000 C   0  0  0  0  0  0  0  0  0  0  0  0
    3.7500    3.8971    0.0000 C   0  0  0  0  0  0  0  0  0  0  0  0
  1  2  1  0
  2  3  1  0
  3  4  2  0
  4  5  1  0
  5  6  1  0
  5  7  2  0
  7  8  1  0
  8  9  1  0
  9 10  2  0
 10 11  1  0
 11 12  2  0
 12 13  1  0
 13 14  1  0
 14 15  2  0
 14 16  1  0
 16 17  1  0
 17 18  1  0
 12 19  1  0
  7 20  1  0
 20 21  2  0
 21 22  1  0
 22 23  2  0
 22 24  1  0
 24 25  1  0
 25 26  1  0
 26 27  1  0
 27 28  1  0
 28 29  1  0
 28 30  2  0
 27 31  1  0
 31 32  1  0
 21  3  1  0
 32 24  1  0
 19  9  1  0
 18 16  1  0
M  END
>  <Compound_ID>  (323) 
CHEMBL211842

>  <Molecule Name>  (323) 
nan

>  <Molecular Weight>  (323) 
474.61

>  <AlogP>  (323) 
3.26

>  <Smiles>  (323) 
COc1cc(C)c(Sc2cnc(NC(=O)C3CC3)s2)cc1C(=O)N1CCN(C(C)=O)CC1

>  <Standard Type>  (323) 
IC50

>  <Standard Relation>  (323) 
'='

>  <Standard Units>  (323) 
nM

>  <Standard Value>  (323) 
9.0

>  <Assay ChEMBL ID>  (323) 
CHEMBL864159

>  <Assay Description>  (323) 
Inhibition of Itk

>  <BAO Format ID>  (323) 
BAO_0000357

>  <BAO Label>  (323) 
single protein format

>  <Assay Organism>  (323) 
Homo sapiens

>  <Target ChEMBL ID>  (323) 
CHEMBL2959

>  <Target Name>  (323) 
Tyrosine-protein kinase ITK/TSK

>  <Target Organism>  (323) 
Homo sapiens

>  <Target Type>  (323) 
SINGLE PROTEIN

>  <Document ChEMBL ID>  (323) 
CHEMBL1138957

>  <Source Description>  (323) 
Scientific Literature

>  <Document Journal>  (323) 
Bioorg Med Chem Lett

>  <Document Year>  (323) 
2006.0

>  <Active>  (323) 
1.0

$$$$

     RDKit          2D

 32 37  0  0  0  0  0  0  0  0999 V2000
   -7.3297   12.4799    0.0000 C   0  0  0  0  0  0  0  0  0  0  0  0
   -6.2150   11.4762    0.0000 C   0  0  0  0  0  0  0  0  0  0  0  0
   -6.5269   10.0090    0.0000 C   0  0  0  0  0  0  0  0  0  0  0  0
   -7.9535    9.5455    0.0000 O   0  0  0  0  0  0  0  0  0  0  0  0
   -5.4122    9.0053    0.0000 N   0  0  0  0  0  0  0  0  0  0  0  0
   -3.9856    9.4688    0.0000 C   0  0  0  0  0  0  0  0  0  0  0  0
   -5.7240    7.5381    0.0000 C   0  0  0  0  0  0  0  0  0  0  0  0
   -7.1506    7.0746    0.0000 C   0  0  0  0  0  0  0  0  0  0  0  0
   -7.4625    5.6073    0.0000 C   0  0  0  0  0  0  0  0  0  0  0  0
   -6.3478    4.6036    0.0000 C   0  0  0  0  0  0  0  0  0  0  0  0
   -6.3478    3.1036    0.0000 N   0  0  0  0  0  0  0  0  0  0  0  0
   -4.9212    2.6401    0.0000 C   0  0  0  0  0  0  0  0  0  0  0  0
   -4.4577    1.2135    0.0000 C   0  0  0  0  0  0  0  0  0  0  0  0
   -5.3394   -0.0000    0.0000 N   0  0  0  0  0  0  0  0  0  0  0  0
   -4.4577   -1.2135    0.0000 N   0  0  0  0  0  0  0  0  0  0  0  0
   -3.0311   -0.7500    0.0000 C   0  0  0  0  0  0  0  0  0  0  0  0
   -3.0311    0.7500    0.0000 C   0  0  0  0  0  0  0  0  0  0  0  0
   -1.7321    1.5000    0.0000 C   0  0  0  0  0  0  0  0  0  0  0  0
   -0.4330    0.7500    0.0000 C   0  0  0  0  0  0  0  0  0  0  0  0
    0.8660    0.0000    0.0000 C   0  0  0  0  0  0  0  0  0  0  0  0
   -0.4330   -0.7500    0.0000 C   0  0  0  0  0  0  0  0  0  0  0  0
    0.3170   -2.0490    0.0000 C   0  0  0  0  0  0  0  0  0  0  0  0
   -1.7321   -1.5000    0.0000 C   0  0  0  0  0  0  0  0  0  0  0  0
   -4.0395    3.8536    0.0000 N   0  0  0  0  0  0  0  0  0  0  0  0
   -4.9212    5.0672    0.0000 C   0  0  0  0  0  0  0  0  0  0  0  0
   -4.6093    6.5344    0.0000 C   0  0  0  0  0  0  0  0  0  0  0  0
   -4.7884   11.9397    0.0000 C   0  0  0  0  0  0  0  0  0  0  0  0
   -3.6737   10.9360    0.0000 C   0  0  0  0  0  0  0  0  0  0  0  0
   -2.2471   11.3996    0.0000 C   0  0  0  0  0  0  0  0  0  0  0  0
   -1.9353   12.8668    0.0000 O   0  0  0  0  0  0  0  0  0  0  0  0
   -3.0500   13.8705    0.0000 C   0  0  0  0  0  0  0  0  0  0  0  0
   -4.4766   13.4070    0.0000 C   0  0  0  0  0  0  0  0  0  0  0  0
  2  1  1  6
  2  3  1  0
  3  4  2  0
  3  5  1  0
  5  6  1  0
  5  7  1  0
  7  8  2  0
  8  9  1  0
  9 10  2  0
 10 11  1  0
 11 12  1  0
 12 13  1  0
 13 14  2  0
 14 15  1  0
 15 16  1  0
 16 17  2  0
 17 18  1  0
 19 18  1  6
 19 20  1  0
 20 21  1  0
 21 22  1  1
 21 23  1  0
 12 24  2  0
 24 25  1  0
 25 26  2  0
  2 27  1  0
 27 28  1  0
 28 29  1  0
 29 30  1  0
 30 31  1  0
 31 32  1  0
 26  7  1  0
 32 27  1  0
 25 10  1  0
 17 13  1  0
 21 19  1  0
 23 16  1  0
M  END
>  <Compound_ID>  (324) 
CHEMBL5090091

>  <Molecule Name>  (324) 
nan

>  <Molecular Weight>  (324) 
433.56

>  <AlogP>  (324) 
4.10

>  <Smiles>  (324) 
C[C@@H](C(=O)N(C)c1ccc2[nH]c(-c3n[nH]c4c3C[C@@H]3C[C@]3(C)C4)nc2c1)C1CCOCC1

>  <Standard Type>  (324) 
IC50

>  <Standard Relation>  (324) 
'='

>  <Standard Units>  (324) 
nM

>  <Standard Value>  (324) 
2.0

>  <Assay ChEMBL ID>  (324) 
CHEMBL5058465

>  <Assay Description>  (324) 
Inhibition of ITK (unknown origin) using BTK peptide as substrate preincubated for 30 mins followed by addition of substrate and measured after 60 mins by flourescence based plate reader assay

>  <BAO Format ID>  (324) 
BAO_0000357

>  <BAO Label>  (324) 
single protein format

>  <Assay Organism>  (324) 
Homo sapiens

>  <Target ChEMBL ID>  (324) 
CHEMBL2959

>  <Target Name>  (324) 
Tyrosine-protein kinase ITK/TSK

>  <Target Organism>  (324) 
Homo sapiens

>  <Target Type>  (324) 
SINGLE PROTEIN

>  <Document ChEMBL ID>  (324) 
CHEMBL5055688

>  <Source Description>  (324) 
Scientific Literature

>  <Document Journal>  (324) 
ACS Med Chem Lett

>  <Document Year>  (324) 
2021.0

>  <Active>  (324) 
1.0

$$$$

     RDKit          2D

 35 38  0  0  0  0  0  0  0  0999 V2000
    8.2500   -6.4952    0.0000 C   0  0  0  0  0  0  0  0  0  0  0  0
    7.5000   -5.1962    0.0000 C   0  0  0  0  0  0  0  0  0  0  0  0
    6.0000   -5.1962    0.0000 C   0  0  0  0  0  0  0  0  0  0  0  0
    5.2500   -6.4952    0.0000 O   0  0  0  0  0  0  0  0  0  0  0  0
    5.2500   -3.8971    0.0000 N   0  0  0  0  0  0  0  0  0  0  0  0
    3.7500   -3.8971    0.0000 C   0  0  0  0  0  0  0  0  0  0  0  0
    3.0000   -5.1962    0.0000 C   0  0  0  0  0  0  0  0  0  0  0  0
    1.5000   -5.1962    0.0000 C   0  0  0  0  0  0  0  0  0  0  0  0
    0.7500   -3.8971    0.0000 C   0  0  0  0  0  0  0  0  0  0  0  0
    1.5000   -2.5981    0.0000 C   0  0  0  0  0  0  0  0  0  0  0  0
    0.7500   -1.2990    0.0000 C   0  0  0  0  0  0  0  0  0  0  0  0
    1.5000    0.0000    0.0000 C   0  0  0  0  0  0  0  0  0  0  0  0
    0.7500    1.2990    0.0000 N   0  0  0  0  0  0  0  0  0  0  0  0
   -0.7500    1.2990    0.0000 C   0  0  0  0  0  0  0  0  0  0  0  0
   -1.7537    2.4138    0.0000 N   0  0  0  0  0  0  0  0  0  0  0  0
   -3.1240    1.8037    0.0000 C   0  0  0  0  0  0  0  0  0  0  0  0
   -2.9672    0.3119    0.0000 C   0  0  0  0  0  0  0  0  0  0  0  0
   -4.0819   -0.6918    0.0000 C   0  0  0  0  0  0  0  0  0  0  0  0
   -5.5085   -0.2283    0.0000 C   0  0  0  0  0  0  0  0  0  0  0  0
   -6.6232   -1.2320    0.0000 C   0  0  0  0  0  0  0  0  0  0  0  0
   -6.3114   -2.6992    0.0000 C   0  0  0  0  0  0  0  0  0  0  0  0
   -4.8848   -3.1627    0.0000 C   0  0  0  0  0  0  0  0  0  0  0  0
   -4.5729   -4.6300    0.0000 S   0  0  0  0  0  0  0  0  0  0  0  0
   -6.0401   -4.9418    0.0000 O   0  0  0  0  0  0  0  0  0  0  0  0
   -3.1057   -4.3181    0.0000 O   0  0  0  0  0  0  0  0  0  0  0  0
   -4.2611   -6.0972    0.0000 N   0  0  0  0  0  0  0  0  0  0  0  0
   -2.8345   -6.5607    0.0000 C   0  0  0  0  0  0  0  0  0  0  0  0
   -5.3758   -7.1009    0.0000 C   0  0  0  0  0  0  0  0  0  0  0  0
   -4.3721   -8.2156    0.0000 C   0  0  0  0  0  0  0  0  0  0  0  0
   -6.3795   -5.9862    0.0000 C   0  0  0  0  0  0  0  0  0  0  0  0
   -6.4905   -8.1046    0.0000 C   0  0  0  0  0  0  0  0  0  0  0  0
   -3.7701   -2.1590    0.0000 C   0  0  0  0  0  0  0  0  0  0  0  0
   -1.5000    0.0000    0.0000 C   0  0  0  0  0  0  0  0  0  0  0  0
   -0.7500   -1.2990    0.0000 N   0  0  0  0  0  0  0  0  0  0  0  0
    3.0000   -2.5981    0.0000 C   0  0  0  0  0  0  0  0  0  0  0  0
  1  2  2  0
  2  3  1  0
  3  4  2  0
  3  5  1  0
  5  6  1  0
  6  7  2  0
  7  8  1  0
  8  9  2  0
  9 10  1  0
 10 11  1  0
 11 12  2  0
 12 13  1  0
 13 14  2  0
 14 15  1  0
 15 16  1  0
 16 17  2  0
 17 18  1  0
 18 19  2  0
 19 20  1  0
 20 21  2  0
 21 22  1  0
 22 23  1  0
 23 24  2  0
 23 25  2  0
 23 26  1  0
 26 27  1  0
 26 28  1  0
 28 29  1  0
 28 30  1  0
 28 31  1  0
 22 32  2  0
 17 33  1  0
 33 34  2  0
 10 35  2  0
 35  6  1  0
 34 11  1  0
 33 14  1  0
 32 18  1  0
M  END
>  <Compound_ID>  (325) 
CHEMBL3918168

>  <Molecule Name>  (325) 
nan

>  <Molecular Weight>  (325) 
489.6

>  <AlogP>  (325) 
4.84

>  <Smiles>  (325) 
C=CC(=O)Nc1cccc(-c2cnc3[nH]cc(-c4cccc(S(=O)(=O)N(C)C(C)(C)C)c4)c3n2)c1

>  <Standard Type>  (325) 
IC50

>  <Standard Relation>  (325) 
'='

>  <Standard Units>  (325) 
nM

>  <Standard Value>  (325) 
30.0

>  <Assay ChEMBL ID>  (325) 
CHEMBL3887687

>  <Assay Description>  (325) 
Biochemical Inhibition Assay: 1H-pyrrolo[2,3-b]pyridine, 1H-pyrazolo[3,4-b]pyridine and 5H-pyrrolo[2,3-b]pyrazine series of compounds exhibited over >100 fold selective against Janus and TEC family of kinases except for the BMX and TXK it had activity of 30 and 45 nM respectively.

>  <BAO Format ID>  (325) 
BAO_0000357

>  <BAO Label>  (325) 
single protein format

>  <Assay Organism>  (325) 
Homo sapiens

>  <Target ChEMBL ID>  (325) 
CHEMBL2959

>  <Target Name>  (325) 
Tyrosine-protein kinase ITK/TSK

>  <Target Organism>  (325) 
Homo sapiens

>  <Target Type>  (325) 
SINGLE PROTEIN

>  <Document ChEMBL ID>  (325) 
CHEMBL3886406

>  <Source Description>  (325) 
BindingDB Database

>  <Document Journal>  (325) 
nan

>  <Document Year>  (325) 
2015.0

>  <Active>  (325) 
1.0

$$$$

     RDKit          2D

 31 34  0  0  0  0  0  0  0  0999 V2000
    3.7500   -1.2990    0.0000 C   0  0  0  0  0  0  0  0  0  0  0  0
    3.0000    0.0000    0.0000 C   0  0  0  0  0  0  0  0  0  0  0  0
    3.7500    1.2990    0.0000 O   0  0  0  0  0  0  0  0  0  0  0  0
    1.5000    0.0000    0.0000 N   0  0  0  0  0  0  0  0  0  0  0  0
    0.7500   -1.2990    0.0000 C   0  0  0  0  0  0  0  0  0  0  0  0
   -0.7500   -1.2990    0.0000 C   0  0  0  0  0  0  0  0  0  0  0  0
   -1.5000    0.0000    0.0000 N   0  0  0  0  0  0  0  0  0  0  0  0
   -3.0000    0.0000    0.0000 C   0  0  0  0  0  0  0  0  0  0  0  0
   -3.7500   -1.2990    0.0000 O   0  0  0  0  0  0  0  0  0  0  0  0
   -3.7500    1.2990    0.0000 C   0  0  0  0  0  0  0  0  0  0  0  0
   -3.0000    2.5981    0.0000 C   0  0  0  0  0  0  0  0  0  0  0  0
   -3.7500    3.8971    0.0000 C   0  0  0  0  0  0  0  0  0  0  0  0
   -3.0000    5.1962    0.0000 S   0  0  0  0  0  0  0  0  0  0  0  0
   -1.5000    5.1962    0.0000 C   0  0  0  0  0  0  0  0  0  0  0  0
   -0.6183    6.4097    0.0000 C   0  0  0  0  0  0  0  0  0  0  0  0
    0.8083    5.9462    0.0000 N   0  0  0  0  0  0  0  0  0  0  0  0
    0.8083    4.4462    0.0000 C   0  0  0  0  0  0  0  0  0  0  0  0
    2.0218    3.5645    0.0000 N   0  0  0  0  0  0  0  0  0  0  0  0
    3.3921    4.1746    0.0000 C   0  0  0  0  0  0  0  0  0  0  0  0
    4.6056    3.2929    0.0000 C   0  0  0  0  0  0  0  0  0  0  0  0
    5.9760    3.9030    0.0000 C   0  0  0  0  0  0  0  0  0  0  0  0
    6.1327    5.3948    0.0000 C   0  0  0  0  0  0  0  0  0  0  0  0
    4.9192    6.2765    0.0000 C   0  0  0  0  0  0  0  0  0  0  0  0
    3.5489    5.6664    0.0000 N   0  0  0  0  0  0  0  0  0  0  0  0
   -0.6183    3.9826    0.0000 S   0  0  0  0  0  0  0  0  0  0  0  0
   -5.2500    3.8971    0.0000 C   0  0  0  0  0  0  0  0  0  0  0  0
   -6.0000    2.5981    0.0000 C   0  0  0  0  0  0  0  0  0  0  0  0
   -5.2500    1.2990    0.0000 C   0  0  0  0  0  0  0  0  0  0  0  0
   -6.0000    0.0000    0.0000 O   0  0  0  0  0  0  0  0  0  0  0  0
   -0.7500    1.2990    0.0000 C   0  0  0  0  0  0  0  0  0  0  0  0
    0.7500    1.2990    0.0000 C   0  0  0  0  0  0  0  0  0  0  0  0
  1  2  1  0
  2  3  2  0
  2  4  1  0
  4  5  1  0
  5  6  1  0
  6  7  1  0
  7  8  1  0
  8  9  2  0
  8 10  1  0
 10 11  2  0
 11 12  1  0
 12 13  1  0
 13 14  1  0
 14 15  2  0
 15 16  1  0
 16 17  2  0
 17 18  1  0
 18 19  1  0
 19 20  2  0
 20 21  1  0
 21 22  2  0
 22 23  1  0
 23 24  2  0
 17 25  1  0
 12 26  2  0
 26 27  1  0
 27 28  2  0
 28 29  1  0
  7 30  1  0
 30 31  1  0
 31  4  1  0
 28 10  1  0
 25 14  1  0
 24 19  1  0
M  END
>  <Compound_ID>  (326) 
CHEMBL208542

>  <Molecule Name>  (326) 
nan

>  <Molecular Weight>  (326) 
455.57

>  <AlogP>  (326) 
3.44

>  <Smiles>  (326) 
CC(=O)N1CCN(C(=O)c2cc(Sc3cnc(Nc4ccccn4)s3)ccc2O)CC1

>  <Standard Type>  (326) 
IC50

>  <Standard Relation>  (326) 
'='

>  <Standard Units>  (326) 
nM

>  <Standard Value>  (326) 
30.0

>  <Assay ChEMBL ID>  (326) 
CHEMBL864159

>  <Assay Description>  (326) 
Inhibition of Itk

>  <BAO Format ID>  (326) 
BAO_0000357

>  <BAO Label>  (326) 
single protein format

>  <Assay Organism>  (326) 
Homo sapiens

>  <Target ChEMBL ID>  (326) 
CHEMBL2959

>  <Target Name>  (326) 
Tyrosine-protein kinase ITK/TSK

>  <Target Organism>  (326) 
Homo sapiens

>  <Target Type>  (326) 
SINGLE PROTEIN

>  <Document ChEMBL ID>  (326) 
CHEMBL1138957

>  <Source Description>  (326) 
Scientific Literature

>  <Document Journal>  (326) 
Bioorg Med Chem Lett

>  <Document Year>  (326) 
2006.0

>  <Active>  (326) 
1.0

$$$$

     RDKit          2D

 35 38  0  0  0  0  0  0  0  0999 V2000
    3.7500   -1.2990    0.0000 C   0  0  0  0  0  0  0  0  0  0  0  0
    3.0000    0.0000    0.0000 O   0  0  0  0  0  0  0  0  0  0  0  0
    1.5000    0.0000    0.0000 C   0  0  0  0  0  0  0  0  0  0  0  0
    0.7500   -1.2990    0.0000 C   0  0  0  0  0  0  0  0  0  0  0  0
   -0.7500   -1.2990    0.0000 C   0  0  0  0  0  0  0  0  0  0  0  0
   -1.5000   -2.5981    0.0000 C   0  0  0  0  0  0  0  0  0  0  0  0
   -1.5000    0.0000    0.0000 C   0  0  0  0  0  0  0  0  0  0  0  0
   -3.0000    0.0000    0.0000 S   0  0  0  0  0  0  0  0  0  0  0  0
   -3.7500    1.2990    0.0000 C   0  0  0  0  0  0  0  0  0  0  0  0
   -5.2418    1.4558    0.0000 C   0  0  0  0  0  0  0  0  0  0  0  0
   -5.5537    2.9231    0.0000 N   0  0  0  0  0  0  0  0  0  0  0  0
   -4.2546    3.6731    0.0000 C   0  0  0  0  0  0  0  0  0  0  0  0
   -4.0978    5.1648    0.0000 N   0  0  0  0  0  0  0  0  0  0  0  0
   -2.7275    5.7749    0.0000 C   0  0  0  0  0  0  0  0  0  0  0  0
   -1.5140    4.8933    0.0000 O   0  0  0  0  0  0  0  0  0  0  0  0
   -2.5707    7.2667    0.0000 C   0  0  0  0  0  0  0  0  0  0  0  0
   -3.1808    8.6370    0.0000 C   0  0  0  0  0  0  0  0  0  0  0  0
   -1.6890    8.4802    0.0000 C   0  0  0  0  0  0  0  0  0  0  0  0
   -3.1399    2.6694    0.0000 S   0  0  0  0  0  0  0  0  0  0  0  0
   -0.7500    1.2990    0.0000 C   0  0  0  0  0  0  0  0  0  0  0  0
    0.7500    1.2990    0.0000 C   0  0  0  0  0  0  0  0  0  0  0  0
    1.5000    2.5981    0.0000 C   0  0  0  0  0  0  0  0  0  0  0  0
    0.7500    3.8971    0.0000 O   0  0  0  0  0  0  0  0  0  0  0  0
    3.0000    2.5981    0.0000 N   0  0  0  0  0  0  0  0  0  0  0  0
    3.7500    1.2990    0.0000 C   0  0  0  0  0  0  0  0  0  0  0  0
    5.2500    1.2990    0.0000 C   0  0  0  0  0  0  0  0  0  0  0  0
    6.0000    2.5981    0.0000 N   0  0  0  0  0  0  0  0  0  0  0  0
    7.5000    2.5981    0.0000 C   0  0  0  0  0  0  0  0  0  0  0  0
    8.2500    3.8971    0.0000 O   0  0  0  0  0  0  0  0  0  0  0  0
    8.2500    1.2990    0.0000 C   0  0  0  0  0  0  0  0  0  0  0  0
    9.7500    1.2990    0.0000 N   0  0  0  0  0  0  0  0  0  0  0  0
   10.5000   -0.0000    0.0000 C   0  0  0  0  0  0  0  0  0  0  0  0
   10.5000    2.5981    0.0000 C   0  0  0  0  0  0  0  0  0  0  0  0
    5.2500    3.8971    0.0000 C   0  0  0  0  0  0  0  0  0  0  0  0
    3.7500    3.8971    0.0000 C   0  0  0  0  0  0  0  0  0  0  0  0
  1  2  1  0
  2  3  1  0
  3  4  2  0
  4  5  1  0
  5  6  1  0
  5  7  2  0
  7  8  1  0
  8  9  1  0
  9 10  2  0
 10 11  1  0
 11 12  2  0
 12 13  1  0
 13 14  1  0
 14 15  2  0
 14 16  1  0
 16 17  1  0
 17 18  1  0
 12 19  1  0
  7 20  1  0
 20 21  2  0
 21 22  1  0
 22 23  2  0
 22 24  1  0
 24 25  1  0
 25 26  1  0
 26 27  1  0
 27 28  1  0
 28 29  2  0
 28 30  1  0
 30 31  1  0
 31 32  1  0
 31 33  1  0
 27 34  1  0
 34 35  1  0
 21  3  1  0
 35 24  1  0
 19  9  1  0
 18 16  1  0
M  END
>  <Compound_ID>  (327) 
CHEMBL208901

>  <Molecule Name>  (327) 
nan

>  <Molecular Weight>  (327) 
517.68

>  <AlogP>  (327) 
2.81

>  <Smiles>  (327) 
COc1cc(C)c(Sc2cnc(NC(=O)C3CC3)s2)cc1C(=O)N1CCN(C(=O)CN(C)C)CC1

>  <Standard Type>  (327) 
IC50

>  <Standard Relation>  (327) 
'='

>  <Standard Units>  (327) 
nM

>  <Standard Value>  (327) 
19.0

>  <Assay ChEMBL ID>  (327) 
CHEMBL864159

>  <Assay Description>  (327) 
Inhibition of Itk

>  <BAO Format ID>  (327) 
BAO_0000357

>  <BAO Label>  (327) 
single protein format

>  <Assay Organism>  (327) 
Homo sapiens

>  <Target ChEMBL ID>  (327) 
CHEMBL2959

>  <Target Name>  (327) 
Tyrosine-protein kinase ITK/TSK

>  <Target Organism>  (327) 
Homo sapiens

>  <Target Type>  (327) 
SINGLE PROTEIN

>  <Document ChEMBL ID>  (327) 
CHEMBL1138957

>  <Source Description>  (327) 
Scientific Literature

>  <Document Journal>  (327) 
Bioorg Med Chem Lett

>  <Document Year>  (327) 
2006.0

>  <Active>  (327) 
1.0

$$$$

     RDKit          2D

 29 33  0  0  0  0  0  0  0  0999 V2000
    8.2500   -6.4952    0.0000 C   0  0  0  0  0  0  0  0  0  0  0  0
    7.5000   -5.1962    0.0000 C   0  0  0  0  0  0  0  0  0  0  0  0
    6.0000   -5.1962    0.0000 C   0  0  0  0  0  0  0  0  0  0  0  0
    5.2500   -6.4952    0.0000 O   0  0  0  0  0  0  0  0  0  0  0  0
    5.2500   -3.8971    0.0000 N   0  0  0  0  0  0  0  0  0  0  0  0
    3.7500   -3.8971    0.0000 C   0  0  0  0  0  0  0  0  0  0  0  0
    3.0000   -5.1962    0.0000 C   0  0  0  0  0  0  0  0  0  0  0  0
    1.5000   -5.1962    0.0000 C   0  0  0  0  0  0  0  0  0  0  0  0
    0.7500   -3.8971    0.0000 C   0  0  0  0  0  0  0  0  0  0  0  0
    1.5000   -2.5981    0.0000 C   0  0  0  0  0  0  0  0  0  0  0  0
    0.7500   -1.2990    0.0000 C   0  0  0  0  0  0  0  0  0  0  0  0
    1.5000    0.0000    0.0000 C   0  0  0  0  0  0  0  0  0  0  0  0
    0.7500    1.2990    0.0000 N   0  0  0  0  0  0  0  0  0  0  0  0
   -0.7500    1.2990    0.0000 C   0  0  0  0  0  0  0  0  0  0  0  0
   -1.7537    2.4138    0.0000 N   0  0  0  0  0  0  0  0  0  0  0  0
   -3.1240    1.8037    0.0000 C   0  0  0  0  0  0  0  0  0  0  0  0
   -2.9672    0.3119    0.0000 C   0  0  0  0  0  0  0  0  0  0  0  0
   -4.0819   -0.6918    0.0000 C   0  0  0  0  0  0  0  0  0  0  0  0
   -5.5492   -0.3800    0.0000 C   0  0  0  0  0  0  0  0  0  0  0  0
   -6.2992   -1.6790    0.0000 C   0  0  0  0  0  0  0  0  0  0  0  0
   -7.7664   -1.9909    0.0000 C   0  0  0  0  0  0  0  0  0  0  0  0
   -8.2299   -3.4175    0.0000 C   0  0  0  0  0  0  0  0  0  0  0  0
   -7.2262   -4.5322    0.0000 C   0  0  0  0  0  0  0  0  0  0  0  0
   -5.7590   -4.2203    0.0000 C   0  0  0  0  0  0  0  0  0  0  0  0
   -5.2955   -2.7937    0.0000 C   0  0  0  0  0  0  0  0  0  0  0  0
   -3.9251   -2.1836    0.0000 N   0  0  0  0  0  0  0  0  0  0  0  0
   -1.5000    0.0000    0.0000 C   0  0  0  0  0  0  0  0  0  0  0  0
   -0.7500   -1.2990    0.0000 C   0  0  0  0  0  0  0  0  0  0  0  0
    3.0000   -2.5981    0.0000 C   0  0  0  0  0  0  0  0  0  0  0  0
  1  2  2  0
  2  3  1  0
  3  4  2  0
  3  5  1  0
  5  6  1  0
  6  7  2  0
  7  8  1  0
  8  9  2  0
  9 10  1  0
 10 11  1  0
 11 12  2  0
 12 13  1  0
 13 14  2  0
 14 15  1  0
 15 16  1  0
 16 17  2  0
 17 18  1  0
 18 19  2  0
 19 20  1  0
 20 21  2  0
 21 22  1  0
 22 23  2  0
 23 24  1  0
 24 25  2  0
 25 26  1  0
 17 27  1  0
 27 28  2  0
 10 29  2  0
 29  6  1  0
 28 11  1  0
 27 14  1  0
 26 18  1  0
 25 20  1  0
M  END
>  <Compound_ID>  (328) 
CHEMBL3958574

>  <Molecule Name>  (328) 
nan

>  <Molecular Weight>  (328) 
378.44

>  <AlogP>  (328) 
5.50

>  <Smiles>  (328) 
C=CC(=O)Nc1cccc(-c2cnc3[nH]cc(-c4cc5ccccc5[nH]4)c3c2)c1

>  <Standard Type>  (328) 
IC50

>  <Standard Relation>  (328) 
'='

>  <Standard Units>  (328) 
nM

>  <Standard Value>  (328) 
30.0

>  <Assay ChEMBL ID>  (328) 
CHEMBL3887687

>  <Assay Description>  (328) 
Biochemical Inhibition Assay: 1H-pyrrolo[2,3-b]pyridine, 1H-pyrazolo[3,4-b]pyridine and 5H-pyrrolo[2,3-b]pyrazine series of compounds exhibited over >100 fold selective against Janus and TEC family of kinases except for the BMX and TXK it had activity of 30 and 45 nM respectively.

>  <BAO Format ID>  (328) 
BAO_0000357

>  <BAO Label>  (328) 
single protein format

>  <Assay Organism>  (328) 
Homo sapiens

>  <Target ChEMBL ID>  (328) 
CHEMBL2959

>  <Target Name>  (328) 
Tyrosine-protein kinase ITK/TSK

>  <Target Organism>  (328) 
Homo sapiens

>  <Target Type>  (328) 
SINGLE PROTEIN

>  <Document ChEMBL ID>  (328) 
CHEMBL3886406

>  <Source Description>  (328) 
BindingDB Database

>  <Document Journal>  (328) 
nan

>  <Document Year>  (328) 
2015.0

>  <Active>  (328) 
1.0

$$$$

     RDKit          2D

 26 29  0  0  0  0  0  0  0  0999 V2000
   -9.5078   -5.8597    0.0000 C   0  0  0  0  0  0  0  0  0  0  0  0
   -8.1375   -5.2496    0.0000 C   0  0  0  0  0  0  0  0  0  0  0  0
   -6.9240   -6.1312    0.0000 C   0  0  0  0  0  0  0  0  0  0  0  0
   -7.0808   -7.6230    0.0000 O   0  0  0  0  0  0  0  0  0  0  0  0
   -5.5537   -5.5211    0.0000 N   0  0  0  0  0  0  0  0  0  0  0  0
   -4.2546   -6.2711    0.0000 C   0  0  0  0  0  0  0  0  0  0  0  0
   -3.1399   -5.2674    0.0000 C   0  0  0  0  0  0  0  0  0  0  0  0
   -3.7500   -3.8971    0.0000 C   0  0  0  0  0  0  0  0  0  0  0  0
   -3.0000   -2.5981    0.0000 O   0  0  0  0  0  0  0  0  0  0  0  0
   -1.5000   -2.5981    0.0000 C   0  0  0  0  0  0  0  0  0  0  0  0
   -0.7500   -3.8971    0.0000 N   0  0  0  0  0  0  0  0  0  0  0  0
    0.7500   -3.8971    0.0000 C   0  0  0  0  0  0  0  0  0  0  0  0
    1.5000   -5.1962    0.0000 C   0  0  0  0  0  0  0  0  0  0  0  0
    2.9918   -5.3529    0.0000 N   0  0  0  0  0  0  0  0  0  0  0  0
    3.3037   -6.8202    0.0000 N   0  0  0  0  0  0  0  0  0  0  0  0
    2.0046   -7.5702    0.0000 C   0  0  0  0  0  0  0  0  0  0  0  0
    1.8478   -9.0619    0.0000 O   0  0  0  0  0  0  0  0  0  0  0  0
    0.8899   -6.5665    0.0000 N   0  0  0  0  0  0  0  0  0  0  0  0
    1.5000   -2.5981    0.0000 C   0  0  0  0  0  0  0  0  0  0  0  0
    0.7500   -1.2990    0.0000 C   0  0  0  0  0  0  0  0  0  0  0  0
    1.5000    0.0000    0.0000 C   0  0  0  0  0  0  0  0  0  0  0  0
    0.7500    1.2990    0.0000 C   0  0  0  0  0  0  0  0  0  0  0  0
   -0.7500    1.2990    0.0000 C   0  0  0  0  0  0  0  0  0  0  0  0
   -1.5000    0.0000    0.0000 C   0  0  0  0  0  0  0  0  0  0  0  0
   -0.7500   -1.2990    0.0000 C   0  0  0  0  0  0  0  0  0  0  0  0
   -5.2418   -4.0539    0.0000 C   0  0  0  0  0  0  0  0  0  0  0  0
  1  2  2  0
  2  3  1  0
  3  4  2  0
  3  5  1  0
  5  6  1  0
  6  7  1  0
  7  8  1  0
  8  9  1  1
  9 10  1  0
 10 11  2  0
 11 12  1  0
 12 13  1  0
 13 14  2  0
 14 15  1  0
 15 16  1  0
 16 17  2  0
 16 18  1  0
 12 19  2  0
 19 20  1  0
 20 21  2  0
 21 22  1  0
 22 23  2  0
 23 24  1  0
 24 25  2  0
  8 26  1  0
 26  5  1  0
 25 10  1  0
 18 13  1  0
 25 20  1  0
M  END
>  <Compound_ID>  (329) 
CHEMBL5073622

>  <Molecule Name>  (329) 
TAK-020

>  <Molecular Weight>  (329) 
351.37

>  <AlogP>  (329) 
1.48

>  <Smiles>  (329) 
C=CC(=O)N1CC[C@H](Oc2nc(-c3n[nH]c(=O)[nH]3)cc3ccccc23)C1

>  <Standard Type>  (329) 
IC50

>  <Standard Relation>  (329) 
'='

>  <Standard Units>  (329) 
nM

>  <Standard Value>  (329) 
99.0

>  <Assay ChEMBL ID>  (329) 
CHEMBL5031735

>  <Assay Description>  (329) 
Inhibition of human ITK

>  <BAO Format ID>  (329) 
BAO_0000357

>  <BAO Label>  (329) 
single protein format

>  <Assay Organism>  (329) 
Homo sapiens

>  <Target ChEMBL ID>  (329) 
CHEMBL2959

>  <Target Name>  (329) 
Tyrosine-protein kinase ITK/TSK

>  <Target Organism>  (329) 
Homo sapiens

>  <Target Type>  (329) 
SINGLE PROTEIN

>  <Document ChEMBL ID>  (329) 
CHEMBL5030537

>  <Source Description>  (329) 
Scientific Literature

>  <Document Journal>  (329) 
J Med Chem

>  <Document Year>  (329) 
2021.0

>  <Active>  (329) 
1.0

$$$$

     RDKit          2D

 35 40  0  0  0  0  0  0  0  0999 V2000
    4.2020    8.0782    0.0000 C   0  0  0  0  0  0  0  0  0  0  0  0
    3.0873    7.0746    0.0000 C   0  0  0  0  0  0  0  0  0  0  0  0
    3.3991    5.6073    0.0000 C   0  0  0  0  0  0  0  0  0  0  0  0
    2.2844    4.6036    0.0000 C   0  0  0  0  0  0  0  0  0  0  0  0
    2.2844    3.1036    0.0000 N   0  0  0  0  0  0  0  0  0  0  0  0
    0.8578    2.6401    0.0000 C   0  0  0  0  0  0  0  0  0  0  0  0
    0.3943    1.2135    0.0000 C   0  0  0  0  0  0  0  0  0  0  0  0
    1.2760    0.0000    0.0000 N   0  0  0  0  0  0  0  0  0  0  0  0
    0.3943   -1.2135    0.0000 N   0  0  0  0  0  0  0  0  0  0  0  0
   -1.0323   -0.7500    0.0000 C   0  0  0  0  0  0  0  0  0  0  0  0
   -1.0323    0.7500    0.0000 C   0  0  0  0  0  0  0  0  0  0  0  0
   -2.3313    1.5000    0.0000 C   0  0  0  0  0  0  0  0  0  0  0  0
   -3.6304    0.7500    0.0000 C   0  0  0  0  0  0  0  0  0  0  0  0
   -4.9294    0.0000    0.0000 C   0  0  0  0  0  0  0  0  0  0  0  0
   -5.8936    1.1491    0.0000 F   0  0  0  0  0  0  0  0  0  0  0  0
   -5.8936   -1.1491    0.0000 F   0  0  0  0  0  0  0  0  0  0  0  0
   -3.6304   -0.7500    0.0000 C   0  0  0  0  0  0  0  0  0  0  0  0
   -2.8804    0.5490    0.0000 C   0  0  0  0  0  0  0  0  0  0  0  0
   -2.3313   -1.5000    0.0000 C   0  0  0  0  0  0  0  0  0  0  0  0
   -0.0239    3.8536    0.0000 N   0  0  0  0  0  0  0  0  0  0  0  0
    0.8578    5.0672    0.0000 C   0  0  0  0  0  0  0  0  0  0  0  0
    0.5460    6.5344    0.0000 C   0  0  0  0  0  0  0  0  0  0  0  0
    1.6607    7.5381    0.0000 C   0  0  0  0  0  0  0  0  0  0  0  0
    1.3488    9.0053    0.0000 N   0  0  0  0  0  0  0  0  0  0  0  0
   -0.0778    9.4688    0.0000 C   0  0  0  0  0  0  0  0  0  0  0  0
    2.4635   10.0090    0.0000 C   0  0  0  0  0  0  0  0  0  0  0  0
    3.8901    9.5455    0.0000 O   0  0  0  0  0  0  0  0  0  0  0  0
    2.1517   11.4762    0.0000 C   0  0  0  0  0  0  0  0  0  0  0  0
    3.2664   12.4799    0.0000 C   0  0  0  0  0  0  0  0  0  0  0  0
    0.7251   11.9397    0.0000 N   0  0  0  0  0  0  0  0  0  0  0  0
    0.4132   13.4070    0.0000 C   0  0  0  0  0  0  0  0  0  0  0  0
   -1.0134   13.8705    0.0000 C   0  0  0  0  0  0  0  0  0  0  0  0
   -2.1281   12.8668    0.0000 O   0  0  0  0  0  0  0  0  0  0  0  0
   -1.8162   11.3996    0.0000 C   0  0  0  0  0  0  0  0  0  0  0  0
   -0.3896   10.9360    0.0000 C   0  0  0  0  0  0  0  0  0  0  0  0
  1  2  1  0
  2  3  2  0
  3  4  1  0
  4  5  1  0
  5  6  1  0
  6  7  1  0
  7  8  2  0
  8  9  1  0
  9 10  1  0
 10 11  2  0
 11 12  1  0
 13 12  1  1
 13 14  1  0
 14 15  1  0
 14 16  1  0
 14 17  1  0
 17 18  1  6
 17 19  1  0
  6 20  2  0
 20 21  1  0
 21 22  1  0
 22 23  2  0
 23 24  1  0
 24 25  1  0
 24 26  1  0
 26 27  2  0
 26 28  1  0
 28 29  1  1
 28 30  1  0
 30 31  1  0
 31 32  1  0
 32 33  1  0
 33 34  1  0
 34 35  1  0
 23  2  1  0
 35 30  1  0
 21  4  2  0
 11  7  1  0
 17 13  1  0
 19 10  1  0
M  END
>  <Compound_ID>  (330) 
CHEMBL5087453

>  <Molecule Name>  (330) 
nan

>  <Molecular Weight>  (330) 
484.55

>  <AlogP>  (330) 
3.31

>  <Smiles>  (330) 
Cc1cc2[nH]c(-c3n[nH]c4c3C[C@@H]3C(F)(F)[C@]3(C)C4)nc2cc1N(C)C(=O)[C@H](C)N1CCOCC1

>  <Standard Type>  (330) 
IC50

>  <Standard Relation>  (330) 
'='

>  <Standard Units>  (330) 
nM

>  <Standard Value>  (330) 
1.0

>  <Assay ChEMBL ID>  (330) 
CHEMBL5058465

>  <Assay Description>  (330) 
Inhibition of ITK (unknown origin) using BTK peptide as substrate preincubated for 30 mins followed by addition of substrate and measured after 60 mins by flourescence based plate reader assay

>  <BAO Format ID>  (330) 
BAO_0000357

>  <BAO Label>  (330) 
single protein format

>  <Assay Organism>  (330) 
Homo sapiens

>  <Target ChEMBL ID>  (330) 
CHEMBL2959

>  <Target Name>  (330) 
Tyrosine-protein kinase ITK/TSK

>  <Target Organism>  (330) 
Homo sapiens

>  <Target Type>  (330) 
SINGLE PROTEIN

>  <Document ChEMBL ID>  (330) 
CHEMBL5055688

>  <Source Description>  (330) 
Scientific Literature

>  <Document Journal>  (330) 
ACS Med Chem Lett

>  <Document Year>  (330) 
2021.0

>  <Active>  (330) 
1.0

$$$$

     RDKit          2D

 34 39  0  0  0  0  0  0  0  0999 V2000
   -3.9856    9.4688    0.0000 C   0  0  0  0  0  0  0  0  0  0  0  0
   -5.4122    9.0053    0.0000 C   0  0  0  0  0  0  0  0  0  0  0  0
   -5.7240    7.5381    0.0000 C   0  0  0  0  0  0  0  0  0  0  0  0
   -4.6093    6.5344    0.0000 C   0  0  0  0  0  0  0  0  0  0  0  0
   -4.9212    5.0672    0.0000 C   0  0  0  0  0  0  0  0  0  0  0  0
   -4.0395    3.8536    0.0000 N   0  0  0  0  0  0  0  0  0  0  0  0
   -4.9212    2.6401    0.0000 C   0  0  0  0  0  0  0  0  0  0  0  0
   -4.4577    1.2135    0.0000 C   0  0  0  0  0  0  0  0  0  0  0  0
   -5.3394   -0.0000    0.0000 N   0  0  0  0  0  0  0  0  0  0  0  0
   -4.4577   -1.2135    0.0000 N   0  0  0  0  0  0  0  0  0  0  0  0
   -3.0311   -0.7500    0.0000 C   0  0  0  0  0  0  0  0  0  0  0  0
   -3.0311    0.7500    0.0000 C   0  0  0  0  0  0  0  0  0  0  0  0
   -1.7321    1.5000    0.0000 C   0  0  0  0  0  0  0  0  0  0  0  0
   -0.4330    0.7500    0.0000 C   0  0  0  0  0  0  0  0  0  0  0  0
    0.8660    0.0000    0.0000 C   0  0  0  0  0  0  0  0  0  0  0  0
   -0.4330   -0.7500    0.0000 C   0  0  0  0  0  0  0  0  0  0  0  0
    0.3170   -2.0490    0.0000 C   0  0  0  0  0  0  0  0  0  0  0  0
   -1.7321   -1.5000    0.0000 C   0  0  0  0  0  0  0  0  0  0  0  0
   -6.3478    3.1036    0.0000 N   0  0  0  0  0  0  0  0  0  0  0  0
   -6.3478    4.6036    0.0000 C   0  0  0  0  0  0  0  0  0  0  0  0
   -7.4625    5.6073    0.0000 C   0  0  0  0  0  0  0  0  0  0  0  0
   -7.1506    7.0746    0.0000 C   0  0  0  0  0  0  0  0  0  0  0  0
   -8.2654    8.0782    0.0000 N   0  0  0  0  0  0  0  0  0  0  0  0
   -9.6919    7.6147    0.0000 C   0  0  0  0  0  0  0  0  0  0  0  0
   -7.9535    9.5455    0.0000 C   0  0  0  0  0  0  0  0  0  0  0  0
   -6.5269   10.0090    0.0000 O   0  0  0  0  0  0  0  0  0  0  0  0
   -9.0682   10.5492    0.0000 C   0  0  0  0  0  0  0  0  0  0  0  0
   -8.7563   12.0164    0.0000 C   0  0  0  0  0  0  0  0  0  0  0  0
  -10.4948   10.0856    0.0000 N   0  0  0  0  0  0  0  0  0  0  0  0
  -11.6095   11.0893    0.0000 C   0  0  0  0  0  0  0  0  0  0  0  0
  -13.0361   10.6258    0.0000 C   0  0  0  0  0  0  0  0  0  0  0  0
  -13.3480    9.1586    0.0000 O   0  0  0  0  0  0  0  0  0  0  0  0
  -12.2332    8.1549    0.0000 C   0  0  0  0  0  0  0  0  0  0  0  0
  -10.8067    8.6184    0.0000 C   0  0  0  0  0  0  0  0  0  0  0  0
  1  2  1  0
  2  3  1  0
  3  4  2  0
  4  5  1  0
  5  6  1  0
  6  7  1  0
  7  8  1  0
  8  9  2  0
  9 10  1  0
 10 11  1  0
 11 12  2  0
 12 13  1  0
 14 13  1  6
 14 15  1  0
 15 16  1  0
 16 17  1  1
 16 18  1  0
  7 19  2  0
 19 20  1  0
 20 21  1  0
 21 22  2  0
 22 23  1  0
 23 24  1  0
 23 25  1  0
 25 26  2  0
 25 27  1  0
 27 28  1  1
 27 29  1  0
 29 30  1  0
 30 31  1  0
 31 32  1  0
 32 33  1  0
 33 34  1  0
 22  3  1  0
 34 29  1  0
 20  5  2  0
 12  8  1  0
 16 14  1  0
 18 11  1  0
M  END
>  <Compound_ID>  (331) 
CHEMBL5082562

>  <Molecule Name>  (331) 
nan

>  <Molecular Weight>  (331) 
462.6

>  <AlogP>  (331) 
3.32

>  <Smiles>  (331) 
CCc1cc2[nH]c(-c3n[nH]c4c3C[C@@H]3C[C@]3(C)C4)nc2cc1N(C)C(=O)[C@H](C)N1CCOCC1

>  <Standard Type>  (331) 
IC50

>  <Standard Relation>  (331) 
'='

>  <Standard Units>  (331) 
nM

>  <Standard Value>  (331) 
9.0

>  <Assay ChEMBL ID>  (331) 
CHEMBL5058465

>  <Assay Description>  (331) 
Inhibition of ITK (unknown origin) using BTK peptide as substrate preincubated for 30 mins followed by addition of substrate and measured after 60 mins by flourescence based plate reader assay

>  <BAO Format ID>  (331) 
BAO_0000357

>  <BAO Label>  (331) 
single protein format

>  <Assay Organism>  (331) 
Homo sapiens

>  <Target ChEMBL ID>  (331) 
CHEMBL2959

>  <Target Name>  (331) 
Tyrosine-protein kinase ITK/TSK

>  <Target Organism>  (331) 
Homo sapiens

>  <Target Type>  (331) 
SINGLE PROTEIN

>  <Document ChEMBL ID>  (331) 
CHEMBL5055688

>  <Source Description>  (331) 
Scientific Literature

>  <Document Journal>  (331) 
ACS Med Chem Lett

>  <Document Year>  (331) 
2021.0

>  <Active>  (331) 
1.0

$$$$

     RDKit          2D

 37 41  0  0  0  0  0  0  0  0999 V2000
  -11.1975    2.9107    0.0000 C   0  0  0  0  0  0  0  0  0  0  0  0
   -9.7709    3.3742    0.0000 C   0  0  0  0  0  0  0  0  0  0  0  0
   -8.6562    2.3705    0.0000 C   0  0  0  0  0  0  0  0  0  0  0  0
   -8.9681    0.9033    0.0000 O   0  0  0  0  0  0  0  0  0  0  0  0
   -7.2296    2.8340    0.0000 N   0  0  0  0  0  0  0  0  0  0  0  0
   -6.1149    1.8303    0.0000 C   0  0  0  0  0  0  0  0  0  0  0  0
   -4.6883    2.2939    0.0000 C   0  0  0  0  0  0  0  0  0  0  0  0
   -3.5736    1.2902    0.0000 O   0  0  0  0  0  0  0  0  0  0  0  0
   -2.1470    1.7537    0.0000 C   0  0  0  0  0  0  0  0  0  0  0  0
   -1.8351    3.2209    0.0000 C   0  0  0  0  0  0  0  0  0  0  0  0
   -0.4086    3.6844    0.0000 C   0  0  0  0  0  0  0  0  0  0  0  0
   -0.0967    5.1517    0.0000 C   0  0  0  0  0  0  0  0  0  0  0  0
   -1.2114    6.1554    0.0000 O   0  0  0  0  0  0  0  0  0  0  0  0
    1.3299    5.6152    0.0000 C   0  0  0  0  0  0  0  0  0  0  0  0
    2.4446    4.6115    0.0000 C   0  0  0  0  0  0  0  0  0  0  0  0
    3.8712    5.0750    0.0000 C   0  0  0  0  0  0  0  0  0  0  0  0
    4.1831    6.5422    0.0000 C   0  0  0  0  0  0  0  0  0  0  0  0
    3.0684    7.5459    0.0000 C   0  0  0  0  0  0  0  0  0  0  0  0
    1.6418    7.0824    0.0000 C   0  0  0  0  0  0  0  0  0  0  0  0
    0.7062    2.6807    0.0000 C   0  0  0  0  0  0  0  0  0  0  0  0
    0.3943    1.2135    0.0000 C   0  0  0  0  0  0  0  0  0  0  0  0
    1.2760    0.0000    0.0000 N   0  0  0  0  0  0  0  0  0  0  0  0
    0.3943   -1.2135    0.0000 C   0  0  0  0  0  0  0  0  0  0  0  0
    0.8578   -2.6401    0.0000 C   0  0  0  0  0  0  0  0  0  0  0  0
    2.2844   -3.1036    0.0000 N   0  0  0  0  0  0  0  0  0  0  0  0
    2.2844   -4.6036    0.0000 N   0  0  0  0  0  0  0  0  0  0  0  0
    0.8578   -5.0672    0.0000 C   0  0  0  0  0  0  0  0  0  0  0  0
    0.2477   -6.4375    0.0000 C   0  0  0  0  0  0  0  0  0  0  0  0
   -1.2441   -6.5943    0.0000 C   0  0  0  0  0  0  0  0  0  0  0  0
   -1.8542   -7.9646    0.0000 C   0  0  0  0  0  0  0  0  0  0  0  0
   -3.3460   -8.1214    0.0000 F   0  0  0  0  0  0  0  0  0  0  0  0
   -0.9725   -9.1781    0.0000 F   0  0  0  0  0  0  0  0  0  0  0  0
   -2.1257   -5.3807    0.0000 C   0  0  0  0  0  0  0  0  0  0  0  0
   -1.5156   -4.0104    0.0000 C   0  0  0  0  0  0  0  0  0  0  0  0
   -0.0239   -3.8536    0.0000 C   0  0  0  0  0  0  0  0  0  0  0  0
   -1.0323   -0.7500    0.0000 C   0  0  0  0  0  0  0  0  0  0  0  0
   -1.0323    0.7500    0.0000 C   0  0  0  0  0  0  0  0  0  0  0  0
  1  2  2  0
  2  3  1  0
  3  4  2  0
  3  5  1  0
  5  6  1  0
  6  7  1  0
  7  8  1  0
  8  9  1  0
  9 10  2  0
 10 11  1  0
 11 12  1  0
 12 13  1  0
 12 14  1  0
 14 15  2  0
 15 16  1  0
 16 17  2  0
 17 18  1  0
 18 19  2  0
 11 20  2  0
 20 21  1  0
 21 22  1  0
 22 23  1  0
 23 24  1  0
 24 25  2  0
 25 26  1  0
 26 27  1  0
 27 28  2  0
 28 29  1  0
 29 30  1  0
 30 31  1  0
 30 32  1  0
 29 33  2  0
 33 34  1  0
 34 35  2  0
 23 36  2  0
 36 37  1  0
 37  9  1  0
 19 14  1  0
 37 21  2  0
 35 24  1  0
 35 27  1  0
M  END
>  <Compound_ID>  (332) 
CHEMBL4637414

>  <Molecule Name>  (332) 
nan

>  <Molecular Weight>  (332) 
502.52

>  <AlogP>  (332) 
5.41

>  <Smiles>  (332) 
C=CC(=O)NCCOc1cc(C(O)c2ccccc2)cc2[nH]c(-c3n[nH]c4cc(C(F)F)ccc34)cc12

>  <Standard Type>  (332) 
IC50

>  <Standard Relation>  (332) 
'='

>  <Standard Units>  (332) 
nM

>  <Standard Value>  (332) 
3.6

>  <Assay ChEMBL ID>  (332) 
CHEMBL4603778

>  <Assay Description>  (332) 
Inhibition of ITK (unknown origin) using TK as substrate incubated for 30 mins by HTRF assay

>  <BAO Format ID>  (332) 
BAO_0000357

>  <BAO Label>  (332) 
single protein format

>  <Assay Organism>  (332) 
Homo sapiens

>  <Target ChEMBL ID>  (332) 
CHEMBL2959

>  <Target Name>  (332) 
Tyrosine-protein kinase ITK/TSK

>  <Target Organism>  (332) 
Homo sapiens

>  <Target Type>  (332) 
SINGLE PROTEIN

>  <Document ChEMBL ID>  (332) 
CHEMBL4602634

>  <Source Description>  (332) 
Scientific Literature

>  <Document Journal>  (332) 
Eur J Med Chem

>  <Document Year>  (332) 
2020.0

>  <Active>  (332) 
1.0

$$$$

     RDKit          2D

 40 44  0  0  0  0  0  0  0  0999 V2000
  -11.1975    2.9107    0.0000 C   0  0  0  0  0  0  0  0  0  0  0  0
   -9.7709    3.3742    0.0000 C   0  0  0  0  0  0  0  0  0  0  0  0
   -8.6562    2.3705    0.0000 C   0  0  0  0  0  0  0  0  0  0  0  0
   -8.9681    0.9033    0.0000 O   0  0  0  0  0  0  0  0  0  0  0  0
   -7.2296    2.8340    0.0000 N   0  0  0  0  0  0  0  0  0  0  0  0
   -6.1149    1.8303    0.0000 C   0  0  0  0  0  0  0  0  0  0  0  0
   -4.6883    2.2939    0.0000 C   0  0  0  0  0  0  0  0  0  0  0  0
   -3.5736    1.2902    0.0000 O   0  0  0  0  0  0  0  0  0  0  0  0
   -2.1470    1.7537    0.0000 C   0  0  0  0  0  0  0  0  0  0  0  0
   -1.8351    3.2209    0.0000 C   0  0  0  0  0  0  0  0  0  0  0  0
   -0.4086    3.6844    0.0000 C   0  0  0  0  0  0  0  0  0  0  0  0
   -0.0967    5.1517    0.0000 C   0  0  0  0  0  0  0  0  0  0  0  0
    1.3299    5.6152    0.0000 C   0  0  0  0  0  0  0  0  0  0  0  0
    2.4446    4.6115    0.0000 C   0  0  0  0  0  0  0  0  0  0  0  0
    2.1328    3.1443    0.0000 O   0  0  0  0  0  0  0  0  0  0  0  0
    3.2475    2.1406    0.0000 C   0  0  0  0  0  0  0  0  0  0  0  0
    3.8712    5.0750    0.0000 C   0  0  0  0  0  0  0  0  0  0  0  0
    4.1831    6.5422    0.0000 C   0  0  0  0  0  0  0  0  0  0  0  0
    3.0684    7.5459    0.0000 C   0  0  0  0  0  0  0  0  0  0  0  0
    1.6418    7.0824    0.0000 C   0  0  0  0  0  0  0  0  0  0  0  0
    0.5271    8.0861    0.0000 O   0  0  0  0  0  0  0  0  0  0  0  0
    0.8389    9.5533    0.0000 C   0  0  0  0  0  0  0  0  0  0  0  0
    0.7062    2.6807    0.0000 C   0  0  0  0  0  0  0  0  0  0  0  0
    0.3943    1.2135    0.0000 C   0  0  0  0  0  0  0  0  0  0  0  0
    1.2760    0.0000    0.0000 N   0  0  0  0  0  0  0  0  0  0  0  0
    0.3943   -1.2135    0.0000 C   0  0  0  0  0  0  0  0  0  0  0  0
    0.8578   -2.6401    0.0000 C   0  0  0  0  0  0  0  0  0  0  0  0
    2.2844   -3.1036    0.0000 N   0  0  0  0  0  0  0  0  0  0  0  0
    2.2844   -4.6036    0.0000 N   0  0  0  0  0  0  0  0  0  0  0  0
    0.8578   -5.0672    0.0000 C   0  0  0  0  0  0  0  0  0  0  0  0
    0.2477   -6.4375    0.0000 C   0  0  0  0  0  0  0  0  0  0  0  0
   -1.2441   -6.5943    0.0000 C   0  0  0  0  0  0  0  0  0  0  0  0
   -1.8542   -7.9646    0.0000 C   0  0  0  0  0  0  0  0  0  0  0  0
   -3.3460   -8.1214    0.0000 F   0  0  0  0  0  0  0  0  0  0  0  0
   -0.9725   -9.1781    0.0000 F   0  0  0  0  0  0  0  0  0  0  0  0
   -2.1257   -5.3807    0.0000 C   0  0  0  0  0  0  0  0  0  0  0  0
   -1.5156   -4.0104    0.0000 C   0  0  0  0  0  0  0  0  0  0  0  0
   -0.0239   -3.8536    0.0000 C   0  0  0  0  0  0  0  0  0  0  0  0
   -1.0323   -0.7500    0.0000 C   0  0  0  0  0  0  0  0  0  0  0  0
   -1.0323    0.7500    0.0000 C   0  0  0  0  0  0  0  0  0  0  0  0
  1  2  2  0
  2  3  1  0
  3  4  2  0
  3  5  1  0
  5  6  1  0
  6  7  1  0
  7  8  1  0
  8  9  1  0
  9 10  2  0
 10 11  1  0
 11 12  1  0
 12 13  1  0
 13 14  2  0
 14 15  1  0
 15 16  1  0
 14 17  1  0
 17 18  2  0
 18 19  1  0
 19 20  2  0
 20 21  1  0
 21 22  1  0
 11 23  2  0
 23 24  1  0
 24 25  1  0
 25 26  1  0
 26 27  1  0
 27 28  2  0
 28 29  1  0
 29 30  1  0
 30 31  2  0
 31 32  1  0
 32 33  1  0
 33 34  1  0
 33 35  1  0
 32 36  2  0
 36 37  1  0
 37 38  2  0
 26 39  2  0
 39 40  1  0
 40  9  1  0
 20 13  1  0
 40 24  2  0
 38 27  1  0
 38 30  1  0
M  END
>  <Compound_ID>  (333) 
CHEMBL4634889

>  <Molecule Name>  (333) 
nan

>  <Molecular Weight>  (333) 
546.57

>  <AlogP>  (333) 
5.94

>  <Smiles>  (333) 
C=CC(=O)NCCOc1cc(Cc2c(OC)cccc2OC)cc2[nH]c(-c3n[nH]c4cc(C(F)F)ccc34)cc12

>  <Standard Type>  (333) 
IC50

>  <Standard Relation>  (333) 
'='

>  <Standard Units>  (333) 
nM

>  <Standard Value>  (333) 
25.0

>  <Assay ChEMBL ID>  (333) 
CHEMBL4603778

>  <Assay Description>  (333) 
Inhibition of ITK (unknown origin) using TK as substrate incubated for 30 mins by HTRF assay

>  <BAO Format ID>  (333) 
BAO_0000357

>  <BAO Label>  (333) 
single protein format

>  <Assay Organism>  (333) 
Homo sapiens

>  <Target ChEMBL ID>  (333) 
CHEMBL2959

>  <Target Name>  (333) 
Tyrosine-protein kinase ITK/TSK

>  <Target Organism>  (333) 
Homo sapiens

>  <Target Type>  (333) 
SINGLE PROTEIN

>  <Document ChEMBL ID>  (333) 
CHEMBL4602634

>  <Source Description>  (333) 
Scientific Literature

>  <Document Journal>  (333) 
Eur J Med Chem

>  <Document Year>  (333) 
2020.0

>  <Active>  (333) 
1.0

$$$$

     RDKit          2D

 34 39  0  0  0  0  0  0  0  0999 V2000
   -8.2654    8.0782    0.0000 C   0  0  0  0  0  0  0  0  0  0  0  0
   -7.1506    7.0746    0.0000 C   0  0  0  0  0  0  0  0  0  0  0  0
   -5.7240    7.5381    0.0000 C   0  0  0  0  0  0  0  0  0  0  0  0
   -5.4122    9.0053    0.0000 N   0  0  0  0  0  0  0  0  0  0  0  0
   -3.9856    9.4688    0.0000 C   0  0  0  0  0  0  0  0  0  0  0  0
   -6.5269   10.0090    0.0000 C   0  0  0  0  0  0  0  0  0  0  0  0
   -7.9535    9.5455    0.0000 O   0  0  0  0  0  0  0  0  0  0  0  0
   -6.2150   11.4762    0.0000 C   0  0  0  0  0  0  0  0  0  0  0  0
   -7.3297   12.4799    0.0000 C   0  0  0  0  0  0  0  0  0  0  0  0
   -4.7884   11.9397    0.0000 N   0  0  0  0  0  0  0  0  0  0  0  0
   -3.6737   10.9360    0.0000 C   0  0  0  0  0  0  0  0  0  0  0  0
   -2.2471   11.3996    0.0000 C   0  0  0  0  0  0  0  0  0  0  0  0
   -1.9353   12.8668    0.0000 O   0  0  0  0  0  0  0  0  0  0  0  0
   -3.0500   13.8705    0.0000 C   0  0  0  0  0  0  0  0  0  0  0  0
   -4.4766   13.4070    0.0000 C   0  0  0  0  0  0  0  0  0  0  0  0
   -4.6093    6.5344    0.0000 C   0  0  0  0  0  0  0  0  0  0  0  0
   -4.9212    5.0672    0.0000 C   0  0  0  0  0  0  0  0  0  0  0  0
   -4.0395    3.8536    0.0000 N   0  0  0  0  0  0  0  0  0  0  0  0
   -4.9212    2.6401    0.0000 C   0  0  0  0  0  0  0  0  0  0  0  0
   -4.4577    1.2135    0.0000 C   0  0  0  0  0  0  0  0  0  0  0  0
   -5.3394   -0.0000    0.0000 N   0  0  0  0  0  0  0  0  0  0  0  0
   -4.4577   -1.2135    0.0000 N   0  0  0  0  0  0  0  0  0  0  0  0
   -3.0311   -0.7500    0.0000 C   0  0  0  0  0  0  0  0  0  0  0  0
   -3.0311    0.7500    0.0000 C   0  0  0  0  0  0  0  0  0  0  0  0
   -1.7321    1.5000    0.0000 C   0  0  0  0  0  0  0  0  0  0  0  0
   -0.4330    0.7500    0.0000 C   0  0  0  0  0  0  0  0  0  0  0  0
    0.8660    0.0000    0.0000 C   0  0  0  0  0  0  0  0  0  0  0  0
   -0.4330   -0.7500    0.0000 C   0  0  0  0  0  0  0  0  0  0  0  0
    0.3170   -2.0490    0.0000 C   0  0  0  0  0  0  0  0  0  0  0  0
   -1.7321   -1.5000    0.0000 C   0  0  0  0  0  0  0  0  0  0  0  0
   -6.3478    3.1036    0.0000 N   0  0  0  0  0  0  0  0  0  0  0  0
   -6.3478    4.6036    0.0000 C   0  0  0  0  0  0  0  0  0  0  0  0
   -7.4625    5.6073    0.0000 C   0  0  0  0  0  0  0  0  0  0  0  0
   -8.8891    5.1438    0.0000 F   0  0  0  0  0  0  0  0  0  0  0  0
  1  2  1  0
  2  3  2  0
  3  4  1  0
  4  5  1  0
  4  6  1  0
  6  7  2  0
  6  8  1  0
  8  9  1  6
  8 10  1  0
 10 11  1  0
 11 12  1  0
 12 13  1  0
 13 14  1  0
 14 15  1  0
  3 16  1  0
 16 17  2  0
 17 18  1  0
 18 19  2  0
 19 20  1  0
 20 21  2  0
 21 22  1  0
 22 23  1  0
 23 24  2  0
 24 25  1  0
 26 25  1  6
 26 27  1  0
 27 28  1  0
 28 29  1  1
 28 30  1  0
 19 31  1  0
 31 32  1  0
 32 33  2  0
 33 34  1  0
 33  2  1  0
 15 10  1  0
 32 17  1  0
 24 20  1  0
 28 26  1  0
 30 23  1  0
M  END
>  <Compound_ID>  (334) 
CHEMBL5074957

>  <Molecule Name>  (334) 
nan

>  <Molecular Weight>  (334) 
466.56

>  <AlogP>  (334) 
3.21

>  <Smiles>  (334) 
Cc1c(N(C)C(=O)[C@H](C)N2CCOCC2)cc2nc(-c3n[nH]c4c3C[C@@H]3C[C@]3(C)C4)[nH]c2c1F

>  <Standard Type>  (334) 
IC50

>  <Standard Relation>  (334) 
'='

>  <Standard Units>  (334) 
nM

>  <Standard Value>  (334) 
6.0

>  <Assay ChEMBL ID>  (334) 
CHEMBL5058465

>  <Assay Description>  (334) 
Inhibition of ITK (unknown origin) using BTK peptide as substrate preincubated for 30 mins followed by addition of substrate and measured after 60 mins by flourescence based plate reader assay

>  <BAO Format ID>  (334) 
BAO_0000357

>  <BAO Label>  (334) 
single protein format

>  <Assay Organism>  (334) 
Homo sapiens

>  <Target ChEMBL ID>  (334) 
CHEMBL2959

>  <Target Name>  (334) 
Tyrosine-protein kinase ITK/TSK

>  <Target Organism>  (334) 
Homo sapiens

>  <Target Type>  (334) 
SINGLE PROTEIN

>  <Document ChEMBL ID>  (334) 
CHEMBL5055688

>  <Source Description>  (334) 
Scientific Literature

>  <Document Journal>  (334) 
ACS Med Chem Lett

>  <Document Year>  (334) 
2021.0

>  <Active>  (334) 
1.0

$$$$
