
     RDKit          2D

 19 18  0  0  0  0  0  0  0  0999 V2000
    0.0000    3.0000    0.0000 O   0  0  0  0  0  0  0  0  0  0  0  0
   -1.2990    2.2500    0.0000 C   0  0  0  0  0  0  0  0  0  0  0  0
   -2.5981    3.0000    0.0000 N   0  0  0  0  0  0  0  0  0  0  0  0
   -2.5981    4.5000    0.0000 C   0  0  0  0  0  0  0  0  0  0  0  0
   -1.2990    5.2500    0.0000 O   0  0  0  0  0  0  0  0  0  0  0  0
   -3.8971    5.2500    0.0000 C   0  0  0  0  0  0  0  0  0  0  0  0
   -5.1962    6.0000    0.0000 Cl  0  0  0  0  0  0  0  0  0  0  0  0
   -3.1471    6.5490    0.0000 Cl  0  0  0  0  0  0  0  0  0  0  0  0
   -4.6471    3.9510    0.0000 Cl  0  0  0  0  0  0  0  0  0  0  0  0
   -1.2990    0.7500    0.0000 N   0  0  0  0  0  0  0  0  0  0  0  0
    0.0000    0.0000    0.0000 C   0  0  0  0  0  0  0  0  0  0  0  0
    1.2990    0.7500    0.0000 C   0  0  0  0  0  0  0  0  0  0  0  0
    2.5981   -0.0000    0.0000 O   0  0  0  0  0  0  0  0  0  0  0  0
   -2.5981    0.0000    0.0000 C   0  0  0  0  0  0  0  0  0  0  0  0
   -2.5981   -1.5000    0.0000 O   0  0  0  0  0  0  0  0  0  0  0  0
   -3.8971    0.7500    0.0000 C   0  0  0  0  0  0  0  0  0  0  0  0
   -5.1962    1.5000    0.0000 Cl  0  0  0  0  0  0  0  0  0  0  0  0
   -4.6471   -0.5490    0.0000 Cl  0  0  0  0  0  0  0  0  0  0  0  0
   -3.1471    2.0490    0.0000 Cl  0  0  0  0  0  0  0  0  0  0  0  0
  1  2  2  0
  2  3  1  0
  3  4  1  0
  4  5  1  1
  4  6  1  0
  6  7  1  0
  6  8  1  0
  6  9  1  0
  2 10  1  0
 10 11  1  0
 11 12  1  0
 12 13  1  0
 10 14  1  0
 14 15  1  6
 14 16  1  0
 16 17  1  0
 16 18  1  0
 16 19  1  0
M  END
>  <Compound_ID>  (1) 
C01675712

>  <Active>  (1) 
0

>  <Smiles>  (1) 
O=C(N[C@H](O)C(Cl)(Cl)Cl)N(CCO)[C@H](O)C(Cl)(Cl)Cl

>  <canonical_smi>  (1) 
O=C(N[C@H](O)C(Cl)(Cl)Cl)N(CCO)[C@H](O)C(Cl)(Cl)Cl

>  <Set>  (1) 
G2 inactive

>  <Set_type>  (1) 
Train

>  <MW>  (1) 
398.88

>  <HBD>  (1) 
4

>  <HBA>  (1) 
4

>  <NRB>  (1) 
4

>  <NR>  (1) 
0

>  <NAR>  (1) 
0

>  <PSA>  (1) 
93.03

>  <Standard Type>  (1) 
nan

>  <Standard Relation>  (1) 
nan

>  <Standard Units>  (1) 
nan

>  <Standard Value>  (1) 
nan

>  <Assay ChEMBL ID>  (1) 
nan

>  <Assay Description>  (1) 
nan

>  <BAO Label>  (1) 
nan

$$$$

     RDKit          2D

 26 30  0  0  0  0  0  0  0  0999 V2000
   -2.1543  -11.6763    0.0000 F   0  0  0  0  0  0  0  0  0  0  0  0
   -1.9975  -10.1845    0.0000 C   0  0  0  0  0  0  0  0  0  0  0  0
   -3.2110   -9.3029    0.0000 C   0  0  0  0  0  0  0  0  0  0  0  0
   -3.0542   -7.8111    0.0000 C   0  0  0  0  0  0  0  0  0  0  0  0
   -1.6839   -7.2010    0.0000 C   0  0  0  0  0  0  0  0  0  0  0  0
   -1.5271   -5.7092    0.0000 C   0  0  0  0  0  0  0  0  0  0  0  0
   -2.7406   -4.8275    0.0000 C   0  0  0  0  0  0  0  0  0  0  0  0
   -2.5838   -3.3357    0.0000 C   0  0  0  0  0  0  0  0  0  0  0  0
   -3.7974   -2.4540    0.0000 C   0  0  0  0  0  0  0  0  0  0  0  0
   -3.6406   -0.9623    0.0000 C   0  0  0  0  0  0  0  0  0  0  0  0
   -4.8541   -0.0806    0.0000 C   0  0  0  0  0  0  0  0  0  0  0  0
   -6.2244   -0.6907    0.0000 C   0  0  0  0  0  0  0  0  0  0  0  0
   -6.3812   -2.1825    0.0000 C   0  0  0  0  0  0  0  0  0  0  0  0
   -5.1677   -3.0642    0.0000 C   0  0  0  0  0  0  0  0  0  0  0  0
   -1.2135   -2.7256    0.0000 N   0  0  0  0  0  0  0  0  0  0  0  0
   -0.0000   -3.6073    0.0000 C   0  0  0  0  0  0  0  0  0  0  0  0
    1.2135   -2.7256    0.0000 N   0  0  0  0  0  4  0  0  0  0  0  0
    0.7500   -1.2990    0.0000 C   0  0  0  0  0  0  0  0  0  0  0  0
    1.5000    0.0000    0.0000 C   0  0  0  0  0  0  0  0  0  0  0  0
    0.7500    1.2990    0.0000 C   0  0  0  0  0  0  0  0  0  0  0  0
   -0.7500    1.2990    0.0000 C   0  0  0  0  0  0  0  0  0  0  0  0
   -1.5000    0.0000    0.0000 C   0  0  0  0  0  0  0  0  0  0  0  0
   -0.7500   -1.2990    0.0000 C   0  0  0  0  0  0  0  0  0  0  0  0
   -0.1568   -5.0991    0.0000 N   0  0  0  0  0  0  0  0  0  0  0  0
   -0.4704   -8.0826    0.0000 C   0  0  0  0  0  0  0  0  0  0  0  0
   -0.6272   -9.5744    0.0000 C   0  0  0  0  0  0  0  0  0  0  0  0
  1  2  1  0
  2  3  2  0
  3  4  1  0
  4  5  2  0
  6  5  1  1
  6  7  1  0
  7  8  1  0
  8  9  1  1
  9 10  2  0
 10 11  1  0
 11 12  2  0
 12 13  1  0
 13 14  2  0
  8 15  1  0
 15 16  1  0
 16 17  2  0
 17 18  1  0
 18 19  2  0
 19 20  1  0
 20 21  2  0
 21 22  1  0
 22 23  2  0
 16 24  1  0
  5 25  1  0
 25 26  2  0
 26  2  1  0
 24  6  1  0
 14  9  1  0
 23 15  1  0
 23 18  1  0
M  CHG  1  17   1
M  END
>  <Compound_ID>  (2) 
C05459999

>  <Active>  (2) 
0

>  <Smiles>  (2) 
Fc1ccc([C@H]2C[C@@H](c3ccccc3)n3c([nH+]c4ccccc43)N2)cc1

>  <canonical_smi>  (2) 
Fc1ccc([C@H]2C[C@@H](c3ccccc3)n3c([nH+]c4ccccc43)N2)cc1

>  <Set>  (2) 
G2 inactive

>  <Set_type>  (2) 
Train

>  <MW>  (2) 
344.41

>  <HBD>  (2) 
1

>  <HBA>  (2) 
1

>  <NRB>  (2) 
2

>  <NR>  (2) 
5

>  <NAR>  (2) 
4

>  <PSA>  (2) 
31.1

>  <Standard Type>  (2) 
nan

>  <Standard Relation>  (2) 
nan

>  <Standard Units>  (2) 
nan

>  <Standard Value>  (2) 
nan

>  <Assay ChEMBL ID>  (2) 
nan

>  <Assay Description>  (2) 
nan

>  <BAO Label>  (2) 
nan

$$$$

     RDKit          2D

 16 18  0  0  0  0  0  0  0  0999 V2000
    3.7500   -6.4952    0.0000 O   0  0  0  0  0  0  0  0  0  0  0  0
    3.0000   -5.1962    0.0000 N   0  0  0  0  0  0  0  0  0  0  0  0
    1.5000   -5.1962    0.0000 C   0  0  0  0  0  0  0  0  0  0  0  0
    0.7500   -6.4952    0.0000 C   0  0  0  0  0  0  0  0  0  0  0  0
   -0.7500   -6.4952    0.0000 C   0  0  0  0  0  0  0  0  0  0  0  0
   -1.5000   -5.1962    0.0000 C   0  0  0  0  0  0  0  0  0  0  0  0
   -0.7500   -3.8971    0.0000 C   0  0  0  0  0  0  0  0  0  0  0  0
    0.7500   -3.8971    0.0000 C   0  0  0  0  0  0  0  0  0  0  0  0
    1.5000   -2.5981    0.0000 C   0  0  0  0  0  0  0  0  0  0  0  0
    0.7500   -1.2990    0.0000 C   0  0  0  0  0  0  0  0  0  0  0  0
    1.5000    0.0000    0.0000 C   0  0  0  0  0  0  0  0  0  0  0  0
    0.7500    1.2990    0.0000 C   0  0  0  0  0  0  0  0  0  0  0  0
   -0.7500    1.2990    0.0000 C   0  0  0  0  0  0  0  0  0  0  0  0
   -1.5000    0.0000    0.0000 C   0  0  0  0  0  0  0  0  0  0  0  0
   -0.7500   -1.2990    0.0000 C   0  0  0  0  0  0  0  0  0  0  0  0
   -1.5000   -2.5981    0.0000 O   0  0  0  0  0  0  0  0  0  0  0  0
  1  2  1  0
  2  3  2  0
  3  4  1  0
  4  5  1  0
  5  6  1  0
  6  7  1  0
  7  8  2  0
  8  9  1  0
 10  9  1  6
 10 11  1  0
 11 12  1  0
 12 13  1  0
 13 14  1  0
 15 14  1  1
 15 16  1  0
  8  3  1  0
 15 10  1  0
 16  7  1  0
M  END
>  <Compound_ID>  (3) 
C04476450

>  <Active>  (3) 
0

>  <Smiles>  (3) 
O/N=C1\CCCC2=C1C[C@H]1CCCC[C@@H]1O2

>  <canonical_smi>  (3) 
O/N=C1\CCCC2=C1C[C@H]1CCCC[C@@H]1O2

>  <Set>  (3) 
G2 inactive

>  <Set_type>  (3) 
Train

>  <MW>  (3) 
221.3

>  <HBD>  (3) 
1

>  <HBA>  (3) 
2

>  <NRB>  (3) 
0

>  <NR>  (3) 
3

>  <NAR>  (3) 
0

>  <PSA>  (3) 
41.82

>  <Standard Type>  (3) 
nan

>  <Standard Relation>  (3) 
nan

>  <Standard Units>  (3) 
nan

>  <Standard Value>  (3) 
nan

>  <Assay ChEMBL ID>  (3) 
nan

>  <Assay Description>  (3) 
nan

>  <BAO Label>  (3) 
nan

$$$$

     RDKit          2D

 18 19  0  0  0  0  0  0  0  0999 V2000
    2.6173   -7.0345    0.0000 C   0  0  0  0  0  0  0  0  0  0  0  0
    3.7830   -6.0905    0.0000 C   0  0  0  0  0  0  0  0  0  0  0  0
    3.5483   -4.6090    0.0000 C   0  0  0  0  0  0  0  0  0  0  0  0
    4.6090   -3.5483    0.0000 C   0  0  0  0  0  0  0  0  0  0  0  0
    6.0905   -3.7830    0.0000 C   0  0  0  0  0  0  0  0  0  0  0  0
    3.9280   -2.2118    0.0000 N   0  0  0  0  0  0  0  0  0  0  0  0
    2.4465   -2.4465    0.0000 N   0  0  0  0  0  0  0  0  0  0  0  0
    1.3858   -1.3858    0.0000 C   0  0  0  0  0  0  0  0  0  0  0  0
    1.9598    0.0000    0.0000 C   0  0  0  0  0  0  0  0  0  0  0  0
    1.3858    1.3858    0.0000 C   0  0  0  0  0  0  0  0  0  0  0  0
    0.0000    1.9598    0.0000 C   0  0  0  0  0  0  0  0  0  0  0  0
   -1.3858    1.3858    0.0000 C   0  0  0  0  0  0  0  0  0  0  0  0
   -1.9598    0.0000    0.0000 C   0  0  0  0  0  0  0  0  0  0  0  0
   -1.3858   -1.3858    0.0000 C   0  0  0  0  0  0  0  0  0  0  0  0
   -0.0000   -1.9598    0.0000 C   0  0  0  0  0  0  0  0  0  0  0  0
   -0.0000   -3.4598    0.0000 O   0  0  0  0  0  0  0  0  0  0  0  0
    2.2118   -3.9280    0.0000 C   0  0  0  0  0  0  0  0  0  0  0  0
    0.8753   -4.6090    0.0000 C   0  0  0  0  0  0  0  0  0  0  0  0
  1  2  1  0
  2  3  1  0
  3  4  1  0
  4  5  1  0
  4  6  2  0
  6  7  1  0
  8  7  1  6
  8  9  1  0
  9 10  1  0
 10 11  1  0
 11 12  1  0
 12 13  1  0
 13 14  1  0
 14 15  1  0
 15 16  1  6
  7 17  1  0
 17 18  1  0
 17  3  2  0
 15  8  1  0
M  END
>  <Compound_ID>  (4) 
C44188323

>  <Active>  (4) 
0

>  <Smiles>  (4) 
CCc1c(C)nn([C@H]2CCCCCC[C@H]2O)c1C

>  <canonical_smi>  (4) 
CCc1c(C)nn([C@H]2CCCCCC[C@H]2O)c1C

>  <Set>  (4) 
G2 inactive

>  <Set_type>  (4) 
Train

>  <MW>  (4) 
250.39

>  <HBD>  (4) 
1

>  <HBA>  (4) 
2

>  <NRB>  (4) 
2

>  <NR>  (4) 
2

>  <NAR>  (4) 
1

>  <PSA>  (4) 
38.05

>  <Standard Type>  (4) 
nan

>  <Standard Relation>  (4) 
nan

>  <Standard Units>  (4) 
nan

>  <Standard Value>  (4) 
nan

>  <Assay ChEMBL ID>  (4) 
nan

>  <Assay Description>  (4) 
nan

>  <BAO Label>  (4) 
nan

$$$$

     RDKit          2D

 19 21  0  0  0  0  0  0  0  0999 V2000
   -1.5000   -5.1962    0.0000 O   0  0  0  0  0  0  0  0  0  0  0  0
   -0.7500   -3.8971    0.0000 C   0  0  0  0  0  0  0  0  0  0  0  0
    0.7500   -3.8971    0.0000 C   0  0  0  0  0  0  0  0  0  0  0  0
    1.5000   -2.5981    0.0000 C   0  0  0  0  0  0  0  0  0  0  0  0
    0.7500   -1.2990    0.0000 C   0  0  0  0  0  0  0  0  0  0  0  0
    1.5000    0.0000    0.0000 C   0  0  0  0  0  0  0  0  0  0  0  0
    0.7500    1.2990    0.0000 C   0  0  0  0  0  0  0  0  0  0  0  0
   -0.7500    1.2990    0.0000 C   0  0  0  0  0  0  0  0  0  0  0  0
   -1.5000    0.0000    0.0000 C   0  0  0  0  0  0  0  0  0  0  0  0
   -0.7500   -1.2990    0.0000 C   0  0  0  0  0  0  0  0  0  0  0  0
   -1.5000   -2.5981    0.0000 C   0  0  0  0  0  0  0  0  0  0  0  0
   -3.0000   -2.5981    0.0000 N   0  0  0  0  0  0  0  0  0  0  0  0
   -3.7500   -1.2990    0.0000 N   0  0  0  0  0  0  0  0  0  0  0  0
   -5.2500   -1.2990    0.0000 C   0  0  0  0  0  0  0  0  0  0  0  0
   -6.0000    0.0000    0.0000 C   0  0  0  0  0  0  0  0  0  0  0  0
   -7.5000   -0.0000    0.0000 C   0  0  0  0  0  0  0  0  0  0  0  0
   -8.2500   -1.2990    0.0000 C   0  0  0  0  0  0  0  0  0  0  0  0
   -7.5000   -2.5981    0.0000 C   0  0  0  0  0  0  0  0  0  0  0  0
   -6.0000   -2.5981    0.0000 C   0  0  0  0  0  0  0  0  0  0  0  0
  1  2  2  0
  2  3  1  0
  3  4  2  0
  4  5  1  0
  5  6  2  0
  6  7  1  0
  7  8  2  0
  8  9  1  0
  9 10  2  0
 10 11  1  0
 11 12  2  0
 12 13  1  0
 13 14  1  0
 14 15  2  0
 15 16  1  0
 16 17  2  0
 17 18  1  0
 18 19  2  0
 11  2  1  0
 19 14  1  0
 10  5  1  0
M  END
>  <Compound_ID>  (5) 
C03860848

>  <Active>  (5) 
0

>  <Smiles>  (5) 
O=C1C=Cc2ccccc2/C1=N\Nc1ccccc1

>  <canonical_smi>  (5) 
O=C1C=Cc2ccccc2/C1=N\Nc1ccccc1

>  <Set>  (5) 
G2 inactive

>  <Set_type>  (5) 
Train

>  <MW>  (5) 
248.28

>  <HBD>  (5) 
1

>  <HBA>  (5) 
2

>  <NRB>  (5) 
2

>  <NR>  (5) 
3

>  <NAR>  (5) 
2

>  <PSA>  (5) 
41.46

>  <Standard Type>  (5) 
nan

>  <Standard Relation>  (5) 
nan

>  <Standard Units>  (5) 
nan

>  <Standard Value>  (5) 
nan

>  <Assay ChEMBL ID>  (5) 
nan

>  <Assay Description>  (5) 
nan

>  <BAO Label>  (5) 
nan

$$$$

     RDKit          2D

 18 19  0  0  0  0  0  0  0  0999 V2000
    4.8187    6.0424    0.0000 C   0  0  0  0  0  0  0  0  0  0  0  0
    3.8835    4.8697    0.0000 C   0  0  0  0  0  0  0  0  0  0  0  0
    2.4002    5.0933    0.0000 C   0  0  0  0  0  0  0  0  0  0  0  0
    1.4650    3.9205    0.0000 C   0  0  0  0  0  0  0  0  0  0  0  0
    2.0130    2.5242    0.0000 N   0  0  0  0  0  4  0  0  0  0  0  0
    1.0777    1.3515    0.0000 C   0  0  0  0  0  0  0  0  0  0  0  0
    1.7286    0.0000    0.0000 C   0  0  0  0  0  0  0  0  0  0  0  0
    1.0777   -1.3515    0.0000 C   0  0  0  0  0  0  0  0  0  0  0  0
   -0.3846   -1.6852    0.0000 C   0  0  0  0  0  0  0  0  0  0  0  0
   -1.5574   -0.7500    0.0000 C   0  0  0  0  0  0  0  0  0  0  0  0
   -1.5574    0.7500    0.0000 C   0  0  0  0  0  0  0  0  0  0  0  0
   -0.3846    1.6852    0.0000 C   0  0  0  0  0  0  0  0  0  0  0  0
   -0.7184    3.1476    0.0000 C   0  0  0  0  0  0  0  0  0  0  0  0
   -2.1518    3.5898    0.0000 O   0  0  0  0  0  0  0  0  0  0  0  0
    0.3812    4.1679    0.0000 O   0  0  0  0  0  1  0  0  0  0  0  0
    3.4962    2.3006    0.0000 C   0  0  0  0  0  0  0  0  0  0  0  0
    4.0442    0.9043    0.0000 C   0  0  0  0  0  0  0  0  0  0  0  0
    4.4315    3.4734    0.0000 C   0  0  0  0  0  0  0  0  0  0  0  0
  2  1  1  1
  2  3  1  0
  3  4  1  0
  4  5  1  0
  6  5  1  6
  6  7  1  0
  7  8  1  0
  8  9  1  0
  9 10  1  0
 10 11  1  0
 11 12  1  0
 12 13  1  6
 13 14  2  0
 13 15  1  0
  5 16  1  0
 16 17  1  1
 16 18  1  0
 18  2  1  0
 12  6  1  0
M  CHG  2   5   1  15  -1
M  END
>  <Compound_ID>  (6) 
C62752988

>  <Active>  (6) 
0

>  <Smiles>  (6) 
C[C@@H]1CC[NH+]([C@@H]2CCCCC[C@@H]2C(=O)[O-])[C@H](C)C1

>  <canonical_smi>  (6) 
C[C@@H]1CC[NH+]([C@@H]2CCCCC[C@@H]2C(=O)[O-])[C@H](C)C1

>  <Set>  (6) 
G2 inactive

>  <Set_type>  (6) 
Train

>  <MW>  (6) 
253.39

>  <HBD>  (6) 
1

>  <HBA>  (6) 
2

>  <NRB>  (6) 
2

>  <NR>  (6) 
2

>  <NAR>  (6) 
0

>  <PSA>  (6) 
44.57

>  <Standard Type>  (6) 
nan

>  <Standard Relation>  (6) 
nan

>  <Standard Units>  (6) 
nan

>  <Standard Value>  (6) 
nan

>  <Assay ChEMBL ID>  (6) 
nan

>  <Assay Description>  (6) 
nan

>  <BAO Label>  (6) 
nan

$$$$

     RDKit          2D

 25 30  0  0  0  0  0  0  0  0999 V2000
    3.0000    0.0000    0.0000 O   0  0  0  0  0  0  0  0  0  0  0  0
    1.5000    0.0000    0.0000 C   0  0  0  0  0  0  0  0  0  0  0  0
    0.7500   -1.2990    0.0000 C   0  0  0  0  0  0  0  0  0  0  0  0
   -0.7500   -1.2990    0.0000 C   0  0  0  0  0  0  0  0  0  0  0  0
   -1.5000    0.0000    0.0000 C   0  0  0  0  0  0  0  0  0  0  0  0
   -0.7500    1.2990    0.0000 C   0  0  0  0  0  0  0  0  0  0  0  0
    0.7500    1.2990    0.0000 C   0  0  0  0  0  0  0  0  0  0  0  0
    1.2135    2.7256    0.0000 O   0  0  0  0  0  0  0  0  0  0  0  0
    0.0000    3.6073    0.0000 C   0  0  0  0  0  0  0  0  0  0  0  0
   -0.1568    5.0991    0.0000 C   0  0  0  0  0  0  0  0  0  0  0  0
    1.0567    5.9808    0.0000 O   0  0  0  0  0  0  0  0  0  0  0  0
   -1.5271    5.7092    0.0000 C   0  0  0  0  0  0  0  0  0  0  0  0
   -2.7406    4.8275    0.0000 C   0  0  0  0  0  0  0  0  0  0  0  0
   -2.5838    3.3357    0.0000 C   0  0  0  0  0  0  0  0  0  0  0  0
   -3.9542    3.9458    0.0000 O   0  0  0  0  0  0  0  0  0  0  0  0
   -3.7974    2.4540    0.0000 C   0  0  0  0  0  0  0  0  0  0  0  0
   -2.9353    0.4358    0.0000 C   0  0  0  0  0  0  0  0  0  0  0  0
   -3.0743    1.3737    0.0000 N   0  0  0  0  0  4  0  0  0  0  0  0
   -4.8541    0.0806    0.0000 C   0  0  0  0  0  0  0  0  0  0  0  0
   -6.2244    0.6907    0.0000 C   0  0  0  0  0  0  0  0  0  0  0  0
   -7.7162    0.5339    0.0000 C   0  0  0  0  0  0  0  0  0  0  0  0
   -7.1061    1.9042    0.0000 C   0  0  0  0  0  0  0  0  0  0  0  0
   -2.3434    1.0483    0.0000 C   0  0  0  0  0  0  0  0  0  0  0  0
   -1.6962    1.5186    0.0000 C   0  0  0  0  0  0  0  0  0  0  0  0
   -1.2135    2.7256    0.0000 C   0  0  0  0  0  0  0  0  0  0  0  0
  1  2  1  0
  2  3  2  0
  3  4  1  0
  4  5  2  0
  5  6  1  0
  6  7  2  0
  7  8  1  0
  9  8  1  6
  9 10  1  0
 10 11  1  1
 10 12  1  0
 12 13  1  0
 13 14  1  0
 14 15  1  6
 14 16  1  0
 16 17  1  6
 16 18  1  0
 18 19  1  0
 19 20  1  0
 20 21  1  0
 21 22  1  0
 18 23  1  0
 23 24  1  0
 25 24  1  1
  7  2  1  0
 25  9  1  0
 17  5  1  0
 22 20  1  0
 25  6  1  0
 25 14  1  0
M  CHG  1  18   1
M  END
>  <Compound_ID>  (7) 
C21981270

>  <Active>  (7) 
0

>  <Smiles>  (7) 
Oc1ccc2c3c1O[C@H]1[C@H](O)CC[C@]4(O)[C@@H](C2)[NH+](CC2CC2)CC[C@]314

>  <canonical_smi>  (7) 
Oc1ccc2c3c1O[C@H]1[C@H](O)CC[C@]4(O)[C@@H](C2)[NH+](CC2CC2)CC[C@]314

>  <Set>  (7) 
G2 inactive

>  <Set_type>  (7) 
Train

>  <MW>  (7) 
344.43

>  <HBD>  (7) 
4

>  <HBA>  (7) 
4

>  <NRB>  (7) 
2

>  <NR>  (7) 
6

>  <NAR>  (7) 
1

>  <PSA>  (7) 
74.36

>  <Standard Type>  (7) 
nan

>  <Standard Relation>  (7) 
nan

>  <Standard Units>  (7) 
nan

>  <Standard Value>  (7) 
nan

>  <Assay ChEMBL ID>  (7) 
nan

>  <Assay Description>  (7) 
nan

>  <BAO Label>  (7) 
nan

$$$$

     RDKit          2D

 27 30  0  0  0  0  0  0  0  0999 V2000
   -0.7500   -6.4952    0.0000 H   0  0  0  0  0  0  0  0  0  0  0  0
    0.7500   -6.4952    0.0000 N   0  0  0  0  0  0  0  0  0  0  0  0
    1.5000   -5.1962    0.0000 C   0  0  0  0  0  0  0  0  0  0  0  0
    3.0000   -5.1962    0.0000 N   0  0  0  0  0  4  0  0  0  0  0  0
    3.7500   -3.8971    0.0000 C   0  0  0  0  0  0  0  0  0  0  0  0
    5.2500   -3.8971    0.0000 C   0  0  0  0  0  0  0  0  0  0  0  0
    6.0000   -5.1962    0.0000 C   0  0  0  0  0  0  0  0  0  0  0  0
    7.5000   -5.1962    0.0000 C   0  0  0  0  0  0  0  0  0  0  0  0
    8.2500   -3.8971    0.0000 C   0  0  0  0  0  0  0  0  0  0  0  0
    9.7500   -3.8971    0.0000 C   0  0  0  0  0  0  0  0  0  0  0  0
    9.7500   -5.3971    0.0000 C   0  0  0  0  0  0  0  0  0  0  0  0
    9.7500   -2.3971    0.0000 C   0  0  0  0  0  0  0  0  0  0  0  0
   11.2500   -3.8971    0.0000 C   0  0  0  0  0  0  0  0  0  0  0  0
    7.5000   -2.5981    0.0000 C   0  0  0  0  0  0  0  0  0  0  0  0
    6.0000   -2.5981    0.0000 C   0  0  0  0  0  0  0  0  0  0  0  0
    3.0000   -2.5981    0.0000 N   0  0  0  0  0  0  0  0  0  0  0  0
    1.5000   -2.5981    0.0000 C   0  0  0  0  0  0  0  0  0  0  0  0
    0.7500   -1.2990    0.0000 C   0  0  0  0  0  0  0  0  0  0  0  0
    1.5000    0.0000    0.0000 C   0  0  0  0  0  0  0  0  0  0  0  0
    0.7500    1.2990    0.0000 C   0  0  0  0  0  0  0  0  0  0  0  0
   -0.7500    1.2990    0.0000 C   0  0  0  0  0  0  0  0  0  0  0  0
   -1.5000    0.0000    0.0000 C   0  0  0  0  0  0  0  0  0  0  0  0
   -0.7500   -1.2990    0.0000 C   0  0  0  0  0  0  0  0  0  0  0  0
   -1.5000   -2.5981    0.0000 O   0  0  0  0  0  0  0  0  0  0  0  0
   -0.7500   -3.8971    0.0000 C   0  0  0  0  0  0  0  0  0  0  0  0
   -1.5000   -5.1962    0.0000 O   0  0  0  0  0  0  0  0  0  0  0  0
    0.7500   -3.8971    0.0000 C   0  0  0  0  0  0  0  0  0  0  0  0
  1  2  1  0
  2  3  2  0
  3  4  1  0
  4  5  2  0
  5  6  1  0
  6  7  2  0
  7  8  1  0
  8  9  2  0
  9 10  1  0
 10 11  1  0
 10 12  1  0
 10 13  1  0
  9 14  1  0
 14 15  2  0
  5 16  1  0
 16 17  2  0
 17 18  1  0
 18 19  2  0
 19 20  1  0
 20 21  2  0
 21 22  1  0
 22 23  2  0
 23 24  1  0
 24 25  1  0
 25 26  2  0
 27 25  1  6
 27  3  1  0
 15  6  1  0
 27 17  1  0
 23 18  1  0
M  CHG  1   4   1
M  END
>  <Compound_ID>  (8) 
C38906041

>  <Active>  (8) 
0

>  <Smiles>  (8) 
[H]/N=C1/[NH+]=C(c2ccc(C(C)(C)C)cc2)N=C2c3ccccc3OC(=O)[C@H]21

>  <canonical_smi>  (8) 
[H]/N=C1/[NH+]=C(c2ccc(C(C)(C)C)cc2)N=C2c3ccccc3OC(=O)[C@H]21

>  <Set>  (8) 
G2 inactive

>  <Set_type>  (8) 
Train

>  <MW>  (8) 
346.41

>  <HBD>  (8) 
2

>  <HBA>  (8) 
2

>  <NRB>  (8) 
1

>  <NR>  (8) 
4

>  <NAR>  (8) 
2

>  <PSA>  (8) 
76.48

>  <Standard Type>  (8) 
nan

>  <Standard Relation>  (8) 
nan

>  <Standard Units>  (8) 
nan

>  <Standard Value>  (8) 
nan

>  <Assay ChEMBL ID>  (8) 
nan

>  <Assay Description>  (8) 
nan

>  <BAO Label>  (8) 
nan

$$$$

     RDKit          2D

 32 38  0  0  0  0  0  0  0  0999 V2000
    2.2735   -0.1929    0.0000 O   0  0  0  0  0  0  0  0  0  0  0  0
    1.5000    0.0000    0.0000 C   0  0  0  0  0  0  0  0  0  0  0  0
    0.7500   -1.2990    0.0000 C   0  0  0  0  0  0  0  0  0  0  0  0
    1.5000   -2.5981    0.0000 C   0  0  0  0  0  0  0  0  0  0  0  0
    0.7500   -3.8971    0.0000 C   0  0  0  0  0  0  0  0  0  0  0  0
    1.5000   -5.1962    0.0000 C   0  0  0  0  0  0  0  0  0  0  0  0
    3.0000   -5.1962    0.0000 C   0  0  0  0  0  0  0  0  0  0  0  0
    3.7500   -3.8971    0.0000 C   0  0  0  0  0  0  0  0  0  0  0  0
    3.0000   -2.5981    0.0000 C   0  0  0  0  0  0  0  0  0  0  0  0
   -0.7500   -1.2990    0.0000 C   0  0  0  0  0  0  0  0  0  0  0  0
   -1.5000    0.0000    0.0000 N   0  0  0  0  0  0  0  0  0  0  0  0
   -0.7500    1.2990    0.0000 C   0  0  0  0  0  0  0  0  0  0  0  0
    0.7500    1.2990    0.0000 C   0  0  0  0  0  0  0  0  0  0  0  0
    1.5000    2.5981    0.0000 C   0  0  0  0  0  0  0  0  0  0  0  0
    3.0000    2.5981    0.0000 C   0  0  0  0  0  0  0  0  0  0  0  0
    3.7500    3.8971    0.0000 C   0  0  0  0  0  0  0  0  0  0  0  0
    3.0000    5.1962    0.0000 C   0  0  0  0  0  0  0  0  0  0  0  0
    1.5000    5.1962    0.0000 C   0  0  0  0  0  0  0  0  0  0  0  0
    0.7500    3.8971    0.0000 C   0  0  0  0  0  0  0  0  0  0  0  0
    2.2500    1.2990    0.0000 C   0  0  0  0  0  0  0  0  0  0  0  0
    3.0000   -0.0000    0.0000 N   0  0  0  0  0  4  0  0  0  0  0  0
    2.2500   -1.2990    0.0000 C   0  0  0  0  0  0  0  0  0  0  0  0
    1.7010   -0.7500    0.0000 C   0  0  0  0  0  0  0  0  0  0  0  0
    1.7010   -2.2500    0.0000 C   0  0  0  0  0  0  0  0  0  0  0  0
    0.4874   -3.1317    0.0000 C   0  0  0  0  0  0  0  0  0  0  0  0
    0.9510   -4.5583    0.0000 C   0  0  0  0  0  0  0  0  0  0  0  0
    0.2010   -5.8573    0.0000 C   0  0  0  0  0  0  0  0  0  0  0  0
    0.9510   -7.1563    0.0000 C   0  0  0  0  0  0  0  0  0  0  0  0
    2.4510   -7.1563    0.0000 C   0  0  0  0  0  0  0  0  0  0  0  0
    3.2010   -5.8573    0.0000 C   0  0  0  0  0  0  0  0  0  0  0  0
    2.4510   -4.5583    0.0000 C   0  0  0  0  0  0  0  0  0  0  0  0
    2.9145   -3.1317    0.0000 N   0  0  0  0  0  0  0  0  0  0  0  0
  1  2  1  0
  2  3  1  0
  3  4  1  1
  4  5  2  0
  5  6  1  0
  6  7  2  0
  7  8  1  0
  8  9  2  0
  3 10  1  0
 10 11  1  0
 11 12  1  0
 12 13  1  0
 13 14  1  1
 14 15  2  0
 15 16  1  0
 16 17  2  0
 17 18  1  0
 18 19  2  0
 13 20  1  0
 20 21  1  0
 21 22  1  0
 21 23  1  0
 23 24  1  1
 24 25  2  0
 25 26  1  0
 26 27  2  0
 27 28  1  0
 28 29  2  0
 29 30  1  0
 30 31  2  0
 31 32  1  0
 13  2  1  0
 19 14  1  0
 32 24  1  0
 22  3  1  0
 31 26  1  0
  9  4  1  0
 23 11  1  0
M  CHG  1  21   1
M  END
>  <Compound_ID>  (9) 
C28444198

>  <Active>  (9) 
0

>  <Smiles>  (9) 
OC1[C@@]2(c3ccccc3)CN3C[C@]1(c1ccccc1)C[NH+](C2)[C@H]3c1cc2ccccc2[nH]1

>  <canonical_smi>  (9) 
OC1[C@@]2(c3ccccc3)CN3C[C@]1(c1ccccc1)C[NH+](C2)[C@H]3c1cc2ccccc2[nH]1

>  <Set>  (9) 
G2 inactive

>  <Set_type>  (9) 
Train

>  <MW>  (9) 
422.55

>  <HBD>  (9) 
3

>  <HBA>  (9) 
2

>  <NRB>  (9) 
3

>  <NR>  (9) 
8

>  <NAR>  (9) 
4

>  <PSA>  (9) 
43.7

>  <Standard Type>  (9) 
nan

>  <Standard Relation>  (9) 
nan

>  <Standard Units>  (9) 
nan

>  <Standard Value>  (9) 
nan

>  <Assay ChEMBL ID>  (9) 
nan

>  <Assay Description>  (9) 
nan

>  <BAO Label>  (9) 
nan

$$$$

     RDKit          2D

 29 33  0  0  0  0  0  0  0  0999 V2000
   -0.7500   -3.8971    0.0000 O   0  0  0  0  0  0  0  0  0  0  0  0
    0.7500   -3.8971    0.0000 C   0  0  0  0  0  0  0  0  0  0  0  0
    1.5000   -5.1962    0.0000 C   0  0  0  0  0  0  0  0  0  0  0  0
    0.7500   -6.4952    0.0000 C   0  0  0  0  0  0  0  0  0  0  0  0
   -0.7500   -6.4952    0.0000 C   0  0  0  0  0  0  0  0  0  0  0  0
   -1.5000   -7.7942    0.0000 C   0  0  0  0  0  0  0  0  0  0  0  0
   -0.7500   -9.0933    0.0000 C   0  0  0  0  0  0  0  0  0  0  0  0
   -1.5000  -10.3923    0.0000 Br  0  0  0  0  0  0  0  0  0  0  0  0
    0.7500   -9.0933    0.0000 C   0  0  0  0  0  0  0  0  0  0  0  0
    1.5000   -7.7942    0.0000 C   0  0  0  0  0  0  0  0  0  0  0  0
    1.5000   -2.5981    0.0000 C   0  0  0  0  0  0  0  0  0  0  0  0
    0.7500   -1.2990    0.0000 N   0  0  0  0  0  4  0  0  0  0  0  0
    1.5000    0.0000    0.0000 C   0  0  0  0  0  0  0  0  0  0  0  0
    0.7500    1.2990    0.0000 C   0  0  0  0  0  0  0  0  0  0  0  0
   -0.7500    1.2990    0.0000 C   0  0  0  0  0  0  0  0  0  0  0  0
   -1.5000    0.0000    0.0000 C   0  0  0  0  0  0  0  0  0  0  0  0
   -0.7500   -1.2990    0.0000 C   0  0  0  0  0  0  0  0  0  0  0  0
    0.0000    2.5981    0.0000 N   0  0  0  0  0  0  0  0  0  0  0  0
   -0.7500    3.8971    0.0000 C   0  0  0  0  0  0  0  0  0  0  0  0
    0.0000    5.1962    0.0000 C   0  0  0  0  0  0  0  0  0  0  0  0
   -0.7500    6.4952    0.0000 C   0  0  0  0  0  0  0  0  0  0  0  0
   -2.2500    6.4952    0.0000 C   0  0  0  0  0  0  0  0  0  0  0  0
   -3.0000    5.1962    0.0000 C   0  0  0  0  0  0  0  0  0  0  0  0
   -2.2500    3.8971    0.0000 C   0  0  0  0  0  0  0  0  0  0  0  0
   -3.0000    2.5981    0.0000 N   0  0  0  0  0  0  0  0  0  0  0  0
   -4.4672    2.2862    0.0000 C   0  0  0  0  0  0  0  0  0  0  0  0
   -4.6240    0.7944    0.0000 C   0  0  0  0  0  0  0  0  0  0  0  0
   -3.2537    0.1843    0.0000 C   0  0  0  0  0  0  0  0  0  0  0  0
   -2.2500    1.2990    0.0000 C   0  0  0  0  0  0  0  0  0  0  0  0
  2  1  1  6
  2  3  1  0
  3  4  1  0
  4  5  2  0
  5  6  1  0
  6  7  2  0
  7  8  1  0
  7  9  1  0
  9 10  2  0
  2 11  1  0
 11 12  1  0
 12 13  1  0
 13 14  1  0
 14 15  1  0
 15 16  1  0
 16 17  1  0
 15 18  1  0
 18 19  1  0
 19 20  2  0
 20 21  1  0
 21 22  2  0
 22 23  1  0
 23 24  2  0
 24 25  1  0
 25 26  1  0
 26 27  2  0
 27 28  1  0
 28 29  2  0
 10  4  1  0
 17 12  1  0
 24 19  1  0
 29 25  1  0
 29 15  1  0
M  CHG  1  12   1
M  END
>  <Compound_ID>  (10) 
C57719953

>  <Active>  (10) 
0

>  <Smiles>  (10) 
O[C@@H](Cc1ccc(Br)cc1)C[NH+]1CCC2(CC1)Nc1ccccc1-n1cccc12

>  <canonical_smi>  (10) 
O[C@@H](Cc1ccc(Br)cc1)C[NH+]1CCC2(CC1)Nc1ccccc1-n1cccc12

>  <Set>  (10) 
G2 inactive

>  <Set_type>  (10) 
Train

>  <MW>  (10) 
453.4

>  <HBD>  (10) 
3

>  <HBA>  (10) 
2

>  <NRB>  (10) 
4

>  <NR>  (10) 
5

>  <NAR>  (10) 
3

>  <PSA>  (10) 
41.63

>  <Standard Type>  (10) 
nan

>  <Standard Relation>  (10) 
nan

>  <Standard Units>  (10) 
nan

>  <Standard Value>  (10) 
nan

>  <Assay ChEMBL ID>  (10) 
nan

>  <Assay Description>  (10) 
nan

>  <BAO Label>  (10) 
nan

$$$$

     RDKit          2D

 35 40  0  0  0  0  0  0  0  0999 V2000
   -4.4918   -5.3529    0.0000 C   0  0  0  0  0  0  0  0  0  0  0  0
   -3.0000   -5.1962    0.0000 C   0  0  0  0  0  0  0  0  0  0  0  0
   -3.7500   -3.8971    0.0000 C   0  0  0  0  0  0  0  0  0  0  0  0
   -3.0000   -2.5981    0.0000 C   0  0  0  0  0  0  0  0  0  0  0  0
   -1.5000   -2.5981    0.0000 C   0  0  0  0  0  0  0  0  0  0  0  0
   -0.7500   -3.8971    0.0000 C   0  0  0  0  0  0  0  0  0  0  0  0
    0.7500   -3.8971    0.0000 C   0  0  0  0  0  0  0  0  0  0  0  0
    1.5000   -2.5981    0.0000 C   0  0  0  0  0  0  0  0  0  0  0  0
    0.7500   -1.2990    0.0000 C   0  0  0  0  0  0  0  0  0  0  0  0
    2.2500   -1.2990    0.0000 O   0  0  0  0  0  0  0  0  0  0  0  0
    1.5000    0.0000    0.0000 C   0  0  0  0  0  0  0  0  0  0  0  0
    0.7500    1.2990    0.0000 C   0  0  0  0  0  0  0  0  0  0  0  0
    1.5000    2.5981    0.0000 O   0  0  0  0  0  0  0  0  0  0  0  0
   -0.7500    1.2990    0.0000 C   0  0  0  0  0  0  0  0  0  0  0  0
   -1.5000    0.0000    0.0000 C   0  0  0  0  0  0  0  0  0  0  0  0
   -0.7500   -1.2990    0.0000 C   0  0  0  0  0  0  0  0  0  0  0  0
   -2.2500   -1.2990    0.0000 C   0  0  0  0  0  0  0  0  0  0  0  0
   -3.0000    0.0000    0.0000 N   0  0  0  0  0  4  0  0  0  0  0  0
   -4.5000    0.0000    0.0000 C   0  0  0  0  0  0  0  0  0  0  0  0
   -5.2500    1.2990    0.0000 C   0  0  0  0  0  0  0  0  0  0  0  0
   -6.7500    1.2990    0.0000 C   0  0  0  0  0  0  0  0  0  0  0  0
   -7.5000    0.0000    0.0000 C   0  0  0  0  0  0  0  0  0  0  0  0
   -6.7500   -1.2990    0.0000 C   0  0  0  0  0  0  0  0  0  0  0  0
   -5.2500   -1.2990    0.0000 C   0  0  0  0  0  0  0  0  0  0  0  0
   -1.5000   -5.1962    0.0000 C   0  0  0  0  0  0  0  0  0  0  0  0
   -0.0082   -5.3529    0.0000 O   0  0  0  0  0  0  0  0  0  0  0  0
   -1.0365   -6.6227    0.0000 C   0  0  0  0  0  0  0  0  0  0  0  0
   -2.2500   -7.5044    0.0000 C   0  0  0  0  0  0  0  0  0  0  0  0
   -3.4635   -6.6227    0.0000 C   0  0  0  0  0  0  0  0  0  0  0  0
   -4.8901   -7.0863    0.0000 C   0  0  0  0  0  0  0  0  0  0  0  0
   -5.3536   -8.5128    0.0000 C   0  0  0  0  0  0  0  0  0  0  0  0
   -6.8536   -8.5128    0.0000 C   0  0  0  0  0  0  0  0  0  0  0  0
   -7.7353   -9.7264    0.0000 O   0  0  0  0  0  0  0  0  0  0  0  0
   -7.3172   -7.0863    0.0000 O   0  0  0  0  0  0  0  0  0  0  0  0
   -6.1036   -6.2046    0.0000 C   0  0  0  0  0  0  0  0  0  0  0  0
  2  1  1  1
  2  3  1  0
  3  4  1  0
  5  4  1  6
  5  6  1  0
  6  7  1  1
  7  8  1  0
  8  9  1  0
  9 10  1  1
  9 11  1  0
 11 12  1  0
 12 13  1  1
 12 14  1  0
 14 15  1  0
 15 16  1  0
 16 17  1  6
 17 18  2  0
 18 19  1  0
 19 20  1  0
 20 21  1  0
 21 22  1  0
 22 23  1  0
 23 24  1  0
  6 25  1  0
 25 26  1  6
 25 27  1  0
 27 28  1  0
 28 29  1  0
 29 30  1  6
 30 31  2  0
 31 32  1  0
 32 33  2  0
 32 34  1  0
 34 35  1  0
 25  2  1  0
 35 30  1  0
 29  2  1  0
 16  5  1  0
 24 19  1  0
 16  9  1  0
M  CHG  1  18   1
M  END
>  <Compound_ID>  (11) 
C35493941

>  <Active>  (11) 
0

>  <Smiles>  (11) 
C[C@@]12CC[C@H]3[C@@H](CC[C@@]4(O)C[C@H](O)CC[C@]34/C=[NH+]/C3CCCCC3)[C@@]1(O)CC[C@@H]2C1=CC(=O)OC1

>  <canonical_smi>  (11) 
C[C@@]12CC[C@H]3[C@@H](CC[C@@]4(O)C[C@H](O)CC[C@]34/C=[NH+]/C3CCCCC3)[C@@]1(O)CC[C@@H]2C1=CC(=O)OC1

>  <Set>  (11) 
G2 inactive

>  <Set_type>  (11) 
Train

>  <MW>  (11) 
486.67

>  <HBD>  (11) 
4

>  <HBA>  (11) 
5

>  <NRB>  (11) 
3

>  <NR>  (11) 
6

>  <NAR>  (11) 
0

>  <PSA>  (11) 
100.96

>  <Standard Type>  (11) 
nan

>  <Standard Relation>  (11) 
nan

>  <Standard Units>  (11) 
nan

>  <Standard Value>  (11) 
nan

>  <Assay ChEMBL ID>  (11) 
nan

>  <Assay Description>  (11) 
nan

>  <BAO Label>  (11) 
nan

$$$$

     RDKit          2D

 20 22  0  0  0  0  0  0  0  0999 V2000
    3.0000    0.0000    0.0000 N   0  0  0  0  0  0  0  0  0  0  0  0
    1.5000    0.0000    0.0000 C   0  0  0  0  0  0  0  0  0  0  0  0
    0.7500   -1.2990    0.0000 C   0  0  0  0  0  0  0  0  0  0  0  0
   -0.7500   -1.2990    0.0000 C   0  0  0  0  0  0  0  0  0  0  0  0
   -1.5000    0.0000    0.0000 C   0  0  0  0  0  0  0  0  0  0  0  0
   -0.7500    1.2990    0.0000 C   0  0  0  0  0  0  0  0  0  0  0  0
    0.7500    1.2990    0.0000 C   0  0  0  0  0  0  0  0  0  0  0  0
    1.5000    2.5981    0.0000 C   0  0  0  0  0  0  0  0  0  0  0  0
    0.8899    3.9684    0.0000 C   0  0  0  0  0  0  0  0  0  0  0  0
    2.0046    4.9721    0.0000 S   0  0  0  0  0  0  0  0  0  0  0  0
    3.3037    4.2221    0.0000 C   0  0  0  0  0  0  0  0  0  0  0  0
    4.6740    4.8322    0.0000 C   0  0  0  0  0  0  0  0  0  0  0  0
    5.8875    3.9505    0.0000 C   0  0  0  0  0  0  0  0  0  0  0  0
    5.7307    2.4587    0.0000 C   0  0  0  0  0  0  0  0  0  0  0  0
    6.9442    1.5771    0.0000 C   0  0  0  0  0  0  0  0  0  0  0  0
    8.3145    2.1872    0.0000 C   0  0  0  0  0  0  0  0  0  0  0  0
    8.4713    3.6789    0.0000 C   0  0  0  0  0  0  0  0  0  0  0  0
    7.2578    4.5606    0.0000 C   0  0  0  0  0  0  0  0  0  0  0  0
    7.4146    6.0524    0.0000 Br  0  0  0  0  0  0  0  0  0  0  0  0
    2.9918    2.7549    0.0000 N   0  0  0  0  0  0  0  0  0  0  0  0
  1  2  1  0
  2  3  2  0
  3  4  1  0
  4  5  2  0
  5  6  1  0
  6  7  2  0
  7  8  1  0
  8  9  2  0
  9 10  1  0
 10 11  1  0
 11 12  1  0
 12 13  1  0
 13 14  2  0
 14 15  1  0
 15 16  2  0
 16 17  1  0
 17 18  2  0
 18 19  1  0
 11 20  2  0
  7  2  1  0
 20  8  1  0
 18 13  1  0
M  END
>  <Compound_ID>  (12) 
C55335719

>  <Active>  (12) 
0

>  <Smiles>  (12) 
Nc1ccccc1-c1csc(Cc2ccccc2Br)n1

>  <canonical_smi>  (12) 
Nc1ccccc1-c1csc(Cc2ccccc2Br)n1

>  <Set>  (12) 
G2 inactive

>  <Set_type>  (12) 
Train

>  <MW>  (12) 
345.27

>  <HBD>  (12) 
1

>  <HBA>  (12) 
2

>  <NRB>  (12) 
3

>  <NR>  (12) 
3

>  <NAR>  (12) 
3

>  <PSA>  (12) 
38.91

>  <Standard Type>  (12) 
nan

>  <Standard Relation>  (12) 
nan

>  <Standard Units>  (12) 
nan

>  <Standard Value>  (12) 
nan

>  <Assay ChEMBL ID>  (12) 
nan

>  <Assay Description>  (12) 
nan

>  <BAO Label>  (12) 
nan

$$$$

     RDKit          2D

 29 33  0  0  0  0  0  0  0  0999 V2000
    2.7760    0.0000    0.0000 C   0  0  0  0  0  0  0  0  0  0  0  0
    1.2760    0.0000    0.0000 C   0  0  0  0  0  0  0  0  0  0  0  0
    0.3943    1.2135    0.0000 C   0  0  0  0  0  0  0  0  0  0  0  0
   -1.0323    0.7500    0.0000 S   0  0  0  0  0  0  0  0  0  0  0  0
   -1.0323   -0.7500    0.0000 C   0  0  0  0  0  0  0  0  0  0  0  0
   -2.1470   -1.7537    0.0000 N   0  0  0  0  0  0  0  0  0  0  0  0
   -1.8351   -3.2209    0.0000 C   0  0  0  0  0  0  0  0  0  0  0  0
   -2.9499   -4.2246    0.0000 O   0  0  0  0  0  0  0  0  0  0  0  0
   -0.4086   -3.6844    0.0000 C   0  0  0  0  0  0  0  0  0  0  0  0
   -0.0967   -5.1517    0.0000 C   0  0  0  0  0  0  0  0  0  0  0  0
   -1.2114   -6.1554    0.0000 C   0  0  0  0  0  0  0  0  0  0  0  0
   -0.8995   -7.6226    0.0000 C   0  0  0  0  0  0  0  0  0  0  0  0
    0.5271   -8.0861    0.0000 C   0  0  0  0  0  0  0  0  0  0  0  0
    1.6418   -7.0824    0.0000 C   0  0  0  0  0  0  0  0  0  0  0  0
    1.3299   -5.6152    0.0000 C   0  0  0  0  0  0  0  0  0  0  0  0
    2.4446   -4.6115    0.0000 N   0  0  0  0  0  0  0  0  0  0  0  0
    3.8712   -5.0750    0.0000 C   0  0  0  0  0  0  0  0  0  0  0  0
    4.1831   -6.5422    0.0000 O   0  0  0  0  0  0  0  0  0  0  0  0
    4.9859   -4.0713    0.0000 C   0  0  0  0  0  0  0  0  0  0  0  0
    6.4125   -4.5348    0.0000 C   0  0  0  0  0  0  0  0  0  0  0  0
    7.5272   -3.5312    0.0000 C   0  0  0  0  0  0  0  0  0  0  0  0
    9.0190   -3.6879    0.0000 N   0  0  0  0  0  0  0  0  0  0  0  0
    9.6291   -2.3176    0.0000 C   0  0  0  0  0  0  0  0  0  0  0  0
    8.5144   -1.3139    0.0000 C   0  0  0  0  0  0  0  0  0  0  0  0
    7.2154   -2.0639    0.0000 C   0  0  0  0  0  0  0  0  0  0  0  0
    5.7888   -1.6004    0.0000 C   0  0  0  0  0  0  0  0  0  0  0  0
    4.6741   -2.6041    0.0000 C   0  0  0  0  0  0  0  0  0  0  0  0
    0.7062   -2.6807    0.0000 N   0  0  0  0  0  0  0  0  0  0  0  0
    0.3943   -1.2135    0.0000 N   0  0  0  0  0  0  0  0  0  0  0  0
  1  2  1  0
  2  3  2  0
  3  4  1  0
  4  5  1  0
  5  6  1  1
  6  7  1  0
  7  8  2  0
  7  9  1  0
  9 10  1  0
 10 11  2  0
 11 12  1  0
 12 13  2  0
 13 14  1  0
 14 15  2  0
 15 16  1  0
 16 17  1  0
 17 18  2  0
 17 19  1  0
 19 20  2  0
 21 20  1  1
 21 22  1  0
 22 23  2  0
 23 24  1  0
 24 25  2  0
 25 26  1  0
 26 27  2  0
  9 28  2  0
 28 29  1  0
 29  2  1  0
 29  5  1  0
 15 10  1  0
 27 19  1  0
 25 21  1  0
M  END
>  <Compound_ID>  (13) 
C65384405

>  <Active>  (13) 
0

>  <Smiles>  (13) 
CC1=CS[C@@H]2NC(=O)C(c3ccccc3NC(=O)C3=C[C@@H]4N=CC=C4C=C3)=NN12

>  <canonical_smi>  (13) 
CC1=CS[C@@H]2NC(=O)C(c3ccccc3NC(=O)C3=C[C@@H]4N=CC=C4C=C3)=NN12

>  <Set>  (13) 
G2 inactive

>  <Set_type>  (13) 
Train

>  <MW>  (13) 
403.47

>  <HBD>  (13) 
2

>  <HBA>  (13) 
4

>  <NRB>  (13) 
3

>  <NR>  (13) 
5

>  <NAR>  (13) 
1

>  <PSA>  (13) 
86.16

>  <Standard Type>  (13) 
nan

>  <Standard Relation>  (13) 
nan

>  <Standard Units>  (13) 
nan

>  <Standard Value>  (13) 
nan

>  <Assay ChEMBL ID>  (13) 
nan

>  <Assay Description>  (13) 
nan

>  <BAO Label>  (13) 
nan

$$$$

     RDKit          2D

 32 36  0  0  0  0  0  0  0  0999 V2000
   -0.0000   -5.1073    0.0000 C   0  0  0  0  0  0  0  0  0  0  0  0
   -0.0000   -3.6073    0.0000 C   0  0  0  0  0  0  0  0  0  0  0  0
    1.2135   -2.7256    0.0000 C   0  0  0  0  0  0  0  0  0  0  0  0
    2.6401   -3.1891    0.0000 C   0  0  0  0  0  0  0  0  0  0  0  0
    4.0667   -3.6527    0.0000 N   0  0  0  0  0  0  0  0  0  0  0  0
    0.7500   -1.2990    0.0000 C   0  0  0  0  0  0  0  0  0  0  0  0
    1.5000    0.0000    0.0000 N   0  0  0  0  0  0  0  0  0  0  0  0
    0.7500    1.2990    0.0000 C   0  0  0  0  0  0  0  0  0  0  0  0
    1.5000    2.5981    0.0000 N   0  0  0  0  0  0  0  0  0  0  0  0
   -0.7500    1.2990    0.0000 C   0  0  0  0  0  0  0  0  0  0  0  0
   -1.5000    2.5981    0.0000 C   0  0  0  0  0  0  0  0  0  0  0  0
   -2.2500    3.8971    0.0000 N   0  0  0  0  0  0  0  0  0  0  0  0
   -1.5000    0.0000    0.0000 C   0  0  0  0  0  0  0  0  0  0  0  0
   -3.0000    0.0000    0.0000 C   0  0  0  0  0  0  0  0  0  0  0  0
   -0.7500   -1.2990    0.0000 C   0  0  0  0  0  0  0  0  0  0  0  0
   -1.2135   -2.7256    0.0000 C   0  0  0  0  0  0  0  0  0  0  0  0
   -2.6401   -3.1891    0.0000 C   0  0  0  0  0  0  0  0  0  0  0  0
   -2.9520   -4.6564    0.0000 C   0  0  0  0  0  0  0  0  0  0  0  0
   -1.9483   -5.7711    0.0000 C   0  0  0  0  0  0  0  0  0  0  0  0
   -2.6983   -7.0701    0.0000 C   0  0  0  0  0  0  0  0  0  0  0  0
   -4.1655   -6.7583    0.0000 C   0  0  0  0  0  0  0  0  0  0  0  0
   -5.2802   -7.7620    0.0000 S   0  0  0  0  0  0  0  0  0  0  0  0
   -6.7068   -7.2984    0.0000 C   0  0  0  0  0  0  0  0  0  0  0  0
   -7.1703   -5.8718    0.0000 N   0  0  0  0  0  0  0  0  0  0  0  0
   -8.6703   -5.8718    0.0000 C   0  0  0  0  0  0  0  0  0  0  0  0
   -9.6740   -4.7571    0.0000 C   0  0  0  0  0  0  0  0  0  0  0  0
  -11.1412   -5.0690    0.0000 C   0  0  0  0  0  0  0  0  0  0  0  0
  -11.6048   -6.4956    0.0000 C   0  0  0  0  0  0  0  0  0  0  0  0
  -10.6011   -7.6103    0.0000 C   0  0  0  0  0  0  0  0  0  0  0  0
   -9.1339   -7.2984    0.0000 C   0  0  0  0  0  0  0  0  0  0  0  0
   -7.9203   -8.1801    0.0000 N   0  0  0  0  0  0  0  0  0  0  0  0
   -4.3223   -5.2665    0.0000 O   0  0  0  0  0  0  0  0  0  0  0  0
  1  2  1  0
  2  3  2  0
  3  4  1  0
  4  5  3  0
  3  6  1  0
  6  7  2  0
  7  8  1  0
  8  9  1  0
  8 10  2  0
 10 11  1  0
 11 12  3  0
 10 13  1  0
 13 14  1  0
 13 15  2  0
 15 16  1  0
 16 17  2  3
 17 18  1  0
 18 19  2  0
 19 20  1  0
 20 21  2  0
 21 22  1  0
 22 23  1  0
 23 24  2  0
 24 25  1  0
 25 26  1  1
 26 27  2  0
 27 28  1  0
 28 29  2  0
 29 30  1  0
 30 31  2  0
 21 32  1  0
 16  2  1  0
 32 18  1  0
 15  6  1  0
 31 23  1  0
 30 25  1  0
M  END
>  <Compound_ID>  (14) 
C39289920

>  <Active>  (14) 
0

>  <Smiles>  (14) 
CC1=C(C#N)c2nc(N)c(C#N)c(C)c2C1=Cc1ccc(SC2=N[C@@H]3C=CC=CC3=N2)o1

>  <canonical_smi>  (14) 
CC1=C(C#N)c2nc(N)c(C#N)c(C)c2C1=Cc1ccc(SC2=N[C@@H]3C=CC=CC3=N2)o1

>  <Set>  (14) 
G2 inactive

>  <Set_type>  (14) 
Train

>  <MW>  (14) 
436.5

>  <HBD>  (14) 
1

>  <HBA>  (14) 
6

>  <NRB>  (14) 
2

>  <NR>  (14) 
5

>  <NAR>  (14) 
2

>  <PSA>  (14) 
124.35

>  <Standard Type>  (14) 
nan

>  <Standard Relation>  (14) 
nan

>  <Standard Units>  (14) 
nan

>  <Standard Value>  (14) 
nan

>  <Assay ChEMBL ID>  (14) 
nan

>  <Assay Description>  (14) 
nan

>  <BAO Label>  (14) 
nan

$$$$

     RDKit          2D

 28 30  0  0  0  0  0  0  0  0999 V2000
   -0.5773   -4.2803    0.0000 C   0  0  0  0  0  0  0  0  0  0  0  0
    0.8899   -3.9684    0.0000 C   0  0  0  0  0  0  0  0  0  0  0  0
    2.0046   -4.9721    0.0000 C   0  0  0  0  0  0  0  0  0  0  0  0
    1.8478   -6.4639    0.0000 C   0  0  0  0  0  0  0  0  0  0  0  0
    3.0613   -7.3456    0.0000 C   0  0  0  0  0  0  0  0  0  0  0  0
    0.4775   -7.0740    0.0000 N   0  0  0  0  0  4  0  0  0  0  0  0
    0.3207   -8.5658    0.0000 C   0  0  0  0  0  0  0  0  0  0  0  0
   -1.0496   -9.1759    0.0000 C   0  0  0  0  0  0  0  0  0  0  0  0
   -1.3615  -10.6431    0.0000 C   0  0  0  0  0  0  0  0  0  0  0  0
   -2.8533  -10.7999    0.0000 C   0  0  0  0  0  0  0  0  0  0  0  0
   -3.4634   -9.4296    0.0000 C   0  0  0  0  0  0  0  0  0  0  0  0
   -4.9306   -9.1177    0.0000 C   0  0  0  0  0  0  0  0  0  0  0  0
   -6.3978   -8.8058    0.0000 C   0  0  0  0  0  0  0  0  0  0  0  0
   -7.8650   -8.4940    0.0000 C   0  0  0  0  0  0  0  0  0  0  0  0
   -8.1769   -9.9612    0.0000 C   0  0  0  0  0  0  0  0  0  0  0  0
   -7.5532   -7.0267    0.0000 C   0  0  0  0  0  0  0  0  0  0  0  0
   -9.3323   -8.1821    0.0000 O   0  0  0  0  0  0  0  0  0  0  0  0
   -2.3486   -8.4259    0.0000 S   0  0  0  0  0  0  0  0  0  0  0  0
    3.3037   -4.2221    0.0000 C   0  0  0  0  0  0  0  0  0  0  0  0
    2.9918   -2.7549    0.0000 N   0  0  0  0  0  0  0  0  0  0  0  0
    1.5000   -2.5981    0.0000 N   0  0  0  0  0  0  0  0  0  0  0  0
    0.7500   -1.2990    0.0000 C   0  0  0  0  0  0  0  0  0  0  0  0
    1.5000    0.0000    0.0000 C   0  0  0  0  0  0  0  0  0  0  0  0
    0.7500    1.2990    0.0000 C   0  0  0  0  0  0  0  0  0  0  0  0
   -0.7500    1.2990    0.0000 C   0  0  0  0  0  0  0  0  0  0  0  0
   -1.5000    0.0000    0.0000 C   0  0  0  0  0  0  0  0  0  0  0  0
   -3.0000    0.0000    0.0000 F   0  0  0  0  0  0  0  0  0  0  0  0
   -0.7500   -1.2990    0.0000 C   0  0  0  0  0  0  0  0  0  0  0  0
  1  2  1  0
  2  3  2  0
  3  4  1  0
  4  5  1  1
  4  6  1  0
  6  7  1  0
  7  8  1  0
  8  9  2  0
  9 10  1  0
 10 11  2  0
 11 12  1  0
 12 13  3  0
 13 14  1  0
 14 15  1  0
 14 16  1  0
 14 17  1  0
 11 18  1  0
  3 19  1  0
 19 20  2  0
 20 21  1  0
 21 22  1  0
 22 23  2  0
 23 24  1  0
 24 25  2  0
 25 26  1  0
 26 27  1  0
 26 28  2  0
 21  2  1  0
 28 22  1  0
 18  8  1  0
M  CHG  1   6   1
M  END
>  <Compound_ID>  (15) 
C12373501

>  <Active>  (15) 
0

>  <Smiles>  (15) 
Cc1c([C@@H](C)[NH2+]Cc2ccc(C#CC(C)(C)O)s2)cnn1-c1cccc(F)c1

>  <canonical_smi>  (15) 
Cc1c([C@@H](C)[NH2+]Cc2ccc(C#CC(C)(C)O)s2)cnn1-c1cccc(F)c1

>  <Set>  (15) 
G2 inactive

>  <Set_type>  (15) 
Train

>  <MW>  (15) 
398.53

>  <HBD>  (15) 
2

>  <HBA>  (15) 
2

>  <NRB>  (15) 
5

>  <NR>  (15) 
3

>  <NAR>  (15) 
3

>  <PSA>  (15) 
54.66

>  <Standard Type>  (15) 
nan

>  <Standard Relation>  (15) 
nan

>  <Standard Units>  (15) 
nan

>  <Standard Value>  (15) 
nan

>  <Assay ChEMBL ID>  (15) 
nan

>  <Assay Description>  (15) 
nan

>  <BAO Label>  (15) 
nan

$$$$

     RDKit          2D

 25 26  0  0  0  0  0  0  0  0999 V2000
   -1.5000   -7.7942    0.0000 C   0  0  0  0  0  0  0  0  0  0  0  0
   -0.7500   -6.4952    0.0000 N   0  0  0  0  0  0  0  0  0  0  0  0
    0.7500   -6.4952    0.0000 C   0  0  0  0  0  0  0  0  0  0  0  0
    1.5000   -5.1962    0.0000 N   0  0  0  0  0  0  0  0  0  0  0  0
    0.7500   -3.8971    0.0000 N   0  0  0  0  0  0  0  0  0  0  0  0
    1.5000   -2.5981    0.0000 C   0  0  0  0  0  0  0  0  0  0  0  0
    0.7500   -1.2990    0.0000 C   0  0  0  0  0  0  0  0  0  0  0  0
    1.5000    0.0000    0.0000 C   0  0  0  0  0  0  0  0  0  0  0  0
    0.7500    1.2990    0.0000 C   0  0  0  0  0  0  0  0  0  0  0  0
   -0.7500    1.2990    0.0000 C   0  0  0  0  0  0  0  0  0  0  0  0
   -1.5000    2.5981    0.0000 Br  0  0  0  0  0  0  0  0  0  0  0  0
   -1.5000    0.0000    0.0000 C   0  0  0  0  0  0  0  0  0  0  0  0
   -0.7500   -1.2990    0.0000 C   0  0  0  0  0  0  0  0  0  0  0  0
    3.0000   -2.5981    0.0000 C   0  0  0  0  0  0  0  0  0  0  0  0
    3.7500   -3.8971    0.0000 C   0  0  0  0  0  0  0  0  0  0  0  0
    5.2500   -3.8971    0.0000 C   0  0  0  0  0  0  0  0  0  0  0  0
    6.0000   -2.5981    0.0000 C   0  0  0  0  0  0  0  0  0  0  0  0
    7.5000   -2.5981    0.0000 C   0  0  0  0  0  0  0  0  0  0  0  0
    9.0000   -2.5981    0.0000 F   0  0  0  0  0  0  0  0  0  0  0  0
    7.5000   -4.0981    0.0000 F   0  0  0  0  0  0  0  0  0  0  0  0
    7.5000   -1.0981    0.0000 F   0  0  0  0  0  0  0  0  0  0  0  0
    5.2500   -1.2990    0.0000 C   0  0  0  0  0  0  0  0  0  0  0  0
    3.7500   -1.2990    0.0000 C   0  0  0  0  0  0  0  0  0  0  0  0
    1.5000   -7.7942    0.0000 N   0  0  0  0  0  4  0  0  0  0  0  0
    0.7500   -9.0933    0.0000 C   0  0  0  0  0  0  0  0  0  0  0  0
  1  2  1  0
  2  3  1  0
  3  4  1  0
  4  5  1  0
  5  6  2  0
  6  7  1  0
  7  8  2  0
  8  9  1  0
  9 10  2  0
 10 11  1  0
 10 12  1  0
 12 13  2  0
  6 14  1  0
 14 15  2  0
 15 16  1  0
 16 17  2  0
 17 18  1  0
 18 19  1  0
 18 20  1  0
 18 21  1  0
 17 22  1  0
 22 23  2  0
  3 24  2  0
 24 25  1  0
 13  7  1  0
 23 14  1  0
M  CHG  1  24   1
M  END
>  <Compound_ID>  (16) 
C16980087

>  <Active>  (16) 
0

>  <Smiles>  (16) 
CN/C(N/N=C(/c1ccc(Br)cc1)c1ccc(C(F)(F)F)cc1)=[NH+]\C

>  <canonical_smi>  (16) 
CN/C(N/N=C(/c1ccc(Br)cc1)c1ccc(C(F)(F)F)cc1)=[NH+]\C

>  <Set>  (16) 
G2 inactive

>  <Set_type>  (16) 
Train

>  <MW>  (16) 
414.25

>  <HBD>  (16) 
3

>  <HBA>  (16) 
2

>  <NRB>  (16) 
3

>  <NR>  (16) 
2

>  <NAR>  (16) 
2

>  <PSA>  (16) 
50.39

>  <Standard Type>  (16) 
nan

>  <Standard Relation>  (16) 
nan

>  <Standard Units>  (16) 
nan

>  <Standard Value>  (16) 
nan

>  <Assay ChEMBL ID>  (16) 
nan

>  <Assay Description>  (16) 
nan

>  <BAO Label>  (16) 
nan

$$$$

     RDKit          2D

 19 21  0  0  0  0  0  0  0  0999 V2000
    5.4656    4.2691    0.0000 C   0  0  0  0  0  0  0  0  0  0  0  0
    3.9716    4.1346    0.0000 N   0  0  0  0  0  0  0  0  0  0  0  0
    3.3411    2.7736    0.0000 C   0  0  0  0  0  0  0  0  0  0  0  0
    1.8471    2.6391    0.0000 C   0  0  0  0  0  0  0  0  0  0  0  0
    0.8602    3.7687    0.0000 N   0  0  0  0  0  0  0  0  0  0  0  0
   -0.5191    3.1792    0.0000 N   0  0  0  0  0  0  0  0  0  0  0  0
   -0.3846    1.6852    0.0000 C   0  0  0  0  0  0  0  0  0  0  0  0
    1.0777    1.3515    0.0000 C   0  0  0  0  0  0  0  0  0  0  0  0
    1.7286    0.0000    0.0000 C   0  0  0  0  0  0  0  0  0  0  0  0
    1.0777   -1.3515    0.0000 C   0  0  0  0  0  0  0  0  0  0  0  0
   -0.3846   -1.6852    0.0000 C   0  0  0  0  0  0  0  0  0  0  0  0
   -1.5574   -0.7500    0.0000 C   0  0  0  0  0  0  0  0  0  0  0  0
   -1.5574    0.7500    0.0000 C   0  0  0  0  0  0  0  0  0  0  0  0
    3.1082    5.3612    0.0000 C   0  0  0  0  0  0  0  0  0  0  0  0
    3.7387    6.7222    0.0000 N   0  0  0  0  0  0  0  0  0  0  0  0
    2.8753    7.9488    0.0000 C   0  0  0  0  0  0  0  0  0  0  0  0
    1.3813    7.8144    0.0000 C   0  0  0  0  0  0  0  0  0  0  0  0
    0.7508    6.4533    0.0000 C   0  0  0  0  0  0  0  0  0  0  0  0
    1.6142    5.2267    0.0000 N   0  0  0  0  0  0  0  0  0  0  0  0
  1  2  1  0
  2  3  1  0
  3  4  1  0
  4  5  2  0
  5  6  1  0
  6  7  1  0
  7  8  2  0
  8  9  1  0
  9 10  1  0
 10 11  1  0
 11 12  1  0
 12 13  1  0
  2 14  1  0
 14 15  2  0
 15 16  1  0
 16 17  2  0
 17 18  1  0
 18 19  2  0
  8  4  1  0
 19 14  1  0
 13  7  1  0
M  END
>  <Compound_ID>  (17) 
C32592817

>  <Active>  (17) 
0

>  <Smiles>  (17) 
CN(Cc1n[nH]c2c1CCCCC2)c1ncccn1

>  <canonical_smi>  (17) 
CN(Cc1n[nH]c2c1CCCCC2)c1ncccn1

>  <Set>  (17) 
G2 inactive

>  <Set_type>  (17) 
Train

>  <MW>  (17) 
257.34

>  <HBD>  (17) 
1

>  <HBA>  (17) 
4

>  <NRB>  (17) 
3

>  <NR>  (17) 
3

>  <NAR>  (17) 
2

>  <PSA>  (17) 
57.7

>  <Standard Type>  (17) 
nan

>  <Standard Relation>  (17) 
nan

>  <Standard Units>  (17) 
nan

>  <Standard Value>  (17) 
nan

>  <Assay ChEMBL ID>  (17) 
nan

>  <Assay Description>  (17) 
nan

>  <BAO Label>  (17) 
nan

$$$$

     RDKit          2D

 16 17  0  0  0  0  0  0  0  0999 V2000
    3.7500   -1.2990    0.0000 C   0  0  0  0  0  0  0  0  0  0  0  0
    3.0000    0.0000    0.0000 O   0  0  0  0  0  0  0  0  0  0  0  0
    1.5000    0.0000    0.0000 C   0  0  0  0  0  0  0  0  0  0  0  0
    0.7500   -1.2990    0.0000 C   0  0  0  0  0  0  0  0  0  0  0  0
   -0.7500   -1.2990    0.0000 C   0  0  0  0  0  0  0  0  0  0  0  0
   -1.5000   -2.5981    0.0000 N   0  0  0  0  0  0  0  0  0  0  0  0
   -3.0000   -2.5981    0.0000 N   0  0  0  0  0  0  0  0  0  0  0  0
   -3.7500   -3.8971    0.0000 C   0  0  0  0  0  0  0  0  0  0  0  0
   -5.2418   -4.0539    0.0000 N   0  0  0  0  0  0  0  0  0  0  0  0
   -5.5537   -5.5211    0.0000 C   0  0  0  0  0  0  0  0  0  0  0  0
   -4.2546   -6.2711    0.0000 C   0  0  0  0  0  0  0  0  0  0  0  0
   -3.1399   -5.2674    0.0000 S   0  0  0  0  0  0  0  0  0  0  0  0
   -1.5000    0.0000    0.0000 C   0  0  0  0  0  0  0  0  0  0  0  0
   -3.0000    0.0000    0.0000 O   0  0  0  0  0  0  0  0  0  0  0  0
   -0.7500    1.2990    0.0000 C   0  0  0  0  0  0  0  0  0  0  0  0
    0.7500    1.2990    0.0000 C   0  0  0  0  0  0  0  0  0  0  0  0
  1  2  1  0
  2  3  1  0
  3  4  2  0
  4  5  1  0
  5  6  2  0
  6  7  1  0
  7  8  2  0
  8  9  1  0
  9 10  1  0
 10 11  2  0
 11 12  1  0
  5 13  1  0
 13 14  2  0
 13 15  1  0
 15 16  2  0
 16  3  1  0
 12  8  1  0
M  END
>  <Compound_ID>  (18) 
C17047363

>  <Active>  (18) 
0

>  <Smiles>  (18) 
COC1=C/C(=N/N=c2/[nH]ccs2)C(=O)C=C1

>  <canonical_smi>  (18) 
COC1=C/C(=N/N=c2/[nH]ccs2)C(=O)C=C1

>  <Set>  (18) 
G2 inactive

>  <Set_type>  (18) 
Train

>  <MW>  (18) 
235.27

>  <HBD>  (18) 
1

>  <HBA>  (18) 
2

>  <NRB>  (18) 
2

>  <NR>  (18) 
2

>  <NAR>  (18) 
1

>  <PSA>  (18) 
66.81

>  <Standard Type>  (18) 
nan

>  <Standard Relation>  (18) 
nan

>  <Standard Units>  (18) 
nan

>  <Standard Value>  (18) 
nan

>  <Assay ChEMBL ID>  (18) 
nan

>  <Assay Description>  (18) 
nan

>  <BAO Label>  (18) 
nan

$$$$

     RDKit          2D

 16 17  0  0  0  0  0  0  0  0999 V2000
   -6.1149    1.8303    0.0000 C   0  0  0  0  0  0  0  0  0  0  0  0
   -4.6883    2.2939    0.0000 C   0  0  0  0  0  0  0  0  0  0  0  0
   -3.5736    1.2902    0.0000 N   0  0  0  0  0  0  0  0  0  0  0  0
   -3.8855   -0.1771    0.0000 C   0  0  0  0  0  0  0  0  0  0  0  0
   -5.3120   -0.6406    0.0000 C   0  0  0  0  0  0  0  0  0  0  0  0
   -2.1470    1.7537    0.0000 C   0  0  0  0  0  0  0  0  0  0  0  0
   -1.8351    3.2209    0.0000 N   0  0  0  0  0  0  0  0  0  0  0  0
   -0.4086    3.6844    0.0000 C   0  0  0  0  0  0  0  0  0  0  0  0
   -0.0967    5.1517    0.0000 C   0  0  0  0  0  0  0  0  0  0  0  0
    0.7062    2.6807    0.0000 N   0  0  0  0  0  0  0  0  0  0  0  0
    0.3943    1.2135    0.0000 C   0  0  0  0  0  0  0  0  0  0  0  0
    1.2760    0.0000    0.0000 N   0  0  0  0  0  0  0  0  0  0  0  0
    0.3943   -1.2135    0.0000 C   0  0  0  0  0  0  0  0  0  0  0  0
    0.8578   -2.6401    0.0000 Cl  0  0  0  0  0  0  0  0  0  0  0  0
   -1.0323   -0.7500    0.0000 N   0  0  0  0  0  0  0  0  0  0  0  0
   -1.0323    0.7500    0.0000 C   0  0  0  0  0  0  0  0  0  0  0  0
  1  2  1  0
  2  3  1  0
  3  4  1  0
  4  5  1  0
  3  6  1  0
  6  7  2  0
  7  8  1  0
  8  9  1  0
  8 10  2  0
 10 11  1  0
 11 12  1  0
 12 13  2  0
 13 14  1  0
 13 15  1  0
 15 16  1  0
 16  6  1  0
 16 11  2  0
M  END
>  <Compound_ID>  (19) 
C37637649

>  <Active>  (19) 
0

>  <Smiles>  (19) 
CCN(CC)c1nc(C)nc2nc(Cl)[nH]c12

>  <canonical_smi>  (19) 
CCN(CC)c1nc(C)nc2nc(Cl)[nH]c12

>  <Set>  (19) 
G2 inactive

>  <Set_type>  (19) 
Train

>  <MW>  (19) 
239.71

>  <HBD>  (19) 
1

>  <HBA>  (19) 
4

>  <NRB>  (19) 
3

>  <NR>  (19) 
2

>  <NAR>  (19) 
2

>  <PSA>  (19) 
57.7

>  <Standard Type>  (19) 
nan

>  <Standard Relation>  (19) 
nan

>  <Standard Units>  (19) 
nan

>  <Standard Value>  (19) 
nan

>  <Assay ChEMBL ID>  (19) 
nan

>  <Assay Description>  (19) 
nan

>  <BAO Label>  (19) 
nan

$$$$

     RDKit          2D

 15 16  0  0  0  0  0  0  0  0999 V2000
    3.7500   -1.2990    0.0000 C   0  0  0  0  0  0  0  0  0  0  0  0
    3.0000    0.0000    0.0000 O   0  0  0  0  0  0  0  0  0  0  0  0
    1.5000    0.0000    0.0000 C   0  0  0  0  0  0  0  0  0  0  0  0
    0.7500   -1.2990    0.0000 N   0  0  0  0  0  0  0  0  0  0  0  0
   -0.7500   -1.2990    0.0000 C   0  0  0  0  0  0  0  0  0  0  0  0
   -1.5000   -2.5981    0.0000 Cl  0  0  0  0  0  0  0  0  0  0  0  0
   -1.5000    0.0000    0.0000 N   0  0  0  0  0  0  0  0  0  0  0  0
   -0.7500    1.2990    0.0000 C   0  0  0  0  0  0  0  0  0  0  0  0
   -1.5000    2.5981    0.0000 N   0  0  0  0  0  0  0  0  0  0  0  0
   -0.7500    3.8971    0.0000 C   0  0  0  0  0  0  0  0  0  0  0  0
   -0.7500    5.3971    0.0000 C   0  0  0  0  0  0  0  0  0  0  0  0
    0.5490    4.6471    0.0000 C   0  0  0  0  0  0  0  0  0  0  0  0
    1.5132    5.7962    0.0000 C   0  0  0  0  0  0  0  0  0  0  0  0
    1.5132    3.4980    0.0000 C   0  0  0  0  0  0  0  0  0  0  0  0
    0.7500    1.2990    0.0000 N   0  0  0  0  0  0  0  0  0  0  0  0
  1  2  1  0
  2  3  1  0
  3  4  2  0
  4  5  1  0
  5  6  1  0
  5  7  2  0
  7  8  1  0
  8  9  1  0
 10  9  1  6
 10 11  1  0
 11 12  1  0
 12 13  1  0
 12 14  1  0
  8 15  2  0
 15  3  1  0
 12 10  1  0
M  END
>  <Compound_ID>  (20) 
C61514541

>  <Active>  (20) 
0

>  <Smiles>  (20) 
COc1nc(Cl)nc(N[C@@H]2CC2(C)C)n1

>  <canonical_smi>  (20) 
COc1nc(Cl)nc(N[C@@H]2CC2(C)C)n1

>  <Set>  (20) 
G2 inactive

>  <Set_type>  (20) 
Train

>  <MW>  (20) 
228.68

>  <HBD>  (20) 
1

>  <HBA>  (20) 
5

>  <NRB>  (20) 
3

>  <NR>  (20) 
2

>  <NAR>  (20) 
1

>  <PSA>  (20) 
59.93

>  <Standard Type>  (20) 
nan

>  <Standard Relation>  (20) 
nan

>  <Standard Units>  (20) 
nan

>  <Standard Value>  (20) 
nan

>  <Assay ChEMBL ID>  (20) 
nan

>  <Assay Description>  (20) 
nan

>  <BAO Label>  (20) 
nan

$$$$

     RDKit          2D

 18 20  0  0  0  0  0  0  0  0999 V2000
   -2.6401   -3.1891    0.0000 C   0  0  0  0  0  0  0  0  0  0  0  0
   -1.2135   -2.7256    0.0000 C   0  0  0  0  0  0  0  0  0  0  0  0
   -0.0000   -3.6073    0.0000 N   0  0  0  0  0  0  0  0  0  0  0  0
    1.2135   -2.7256    0.0000 O   0  0  0  0  0  0  0  0  0  0  0  0
    0.7500   -1.2990    0.0000 C   0  0  0  0  0  0  0  0  0  0  0  0
    1.5000    0.0000    0.0000 N   0  0  0  0  0  0  0  0  0  0  0  0
    0.7500    1.2990    0.0000 C   0  0  0  0  0  0  0  0  0  0  0  0
   -0.7500    1.2990    0.0000 N   0  0  0  0  0  0  0  0  0  0  0  0
   -1.5000    0.0000    0.0000 C   0  0  0  0  0  0  0  0  0  0  0  0
   -3.0000    0.0000    0.0000 N   0  0  0  0  0  0  0  0  0  0  0  0
   -3.7500    1.2990    0.0000 C   0  0  0  0  0  0  0  0  0  0  0  0
   -3.0000    2.5981    0.0000 C   0  0  0  0  0  0  0  0  0  0  0  0
   -3.7500    3.8971    0.0000 C   0  0  0  0  0  0  0  0  0  0  0  0
   -5.2500    3.8971    0.0000 C   0  0  0  0  0  0  0  0  0  0  0  0
   -6.0000    5.1962    0.0000 C   0  0  0  0  0  0  0  0  0  0  0  0
   -6.0000    2.5981    0.0000 C   0  0  0  0  0  0  0  0  0  0  0  0
   -5.2500    1.2990    0.0000 C   0  0  0  0  0  0  0  0  0  0  0  0
   -0.7500   -1.2990    0.0000 C   0  0  0  0  0  0  0  0  0  0  0  0
  1  2  1  0
  2  3  2  0
  3  4  1  0
  4  5  1  0
  5  6  2  0
  6  7  1  0
  7  8  2  0
  8  9  1  0
  9 10  1  0
 10 11  1  0
 11 12  1  0
 12 13  1  0
 13 14  1  0
 14 15  1  0
 14 16  1  0
 16 17  1  0
  9 18  2  0
 18  2  1  0
 18  5  1  0
 17 11  1  0
M  END
>  <Compound_ID>  (21) 
C21531584

>  <Active>  (21) 
0

>  <Smiles>  (21) 
Cc1noc2ncnc(NC3CCC(C)CC3)c12

>  <canonical_smi>  (21) 
Cc1noc2ncnc(NC3CCC(C)CC3)c12

>  <Set>  (21) 
G2 inactive

>  <Set_type>  (21) 
Train

>  <MW>  (21) 
246.31

>  <HBD>  (21) 
1

>  <HBA>  (21) 
5

>  <NRB>  (21) 
2

>  <NR>  (21) 
3

>  <NAR>  (21) 
2

>  <PSA>  (21) 
63.84

>  <Standard Type>  (21) 
nan

>  <Standard Relation>  (21) 
nan

>  <Standard Units>  (21) 
nan

>  <Standard Value>  (21) 
nan

>  <Assay ChEMBL ID>  (21) 
nan

>  <Assay Description>  (21) 
nan

>  <BAO Label>  (21) 
nan

$$$$

     RDKit          2D

 20 22  0  0  0  0  0  0  0  0999 V2000
    0.4704   -8.0826    0.0000 C   0  0  0  0  0  0  0  0  0  0  0  0
    1.6839   -7.2010    0.0000 O   0  0  0  0  0  0  0  0  0  0  0  0
    1.5271   -5.7092    0.0000 C   0  0  0  0  0  0  0  0  0  0  0  0
    0.1568   -5.0991    0.0000 C   0  0  0  0  0  0  0  0  0  0  0  0
    0.0000   -3.6073    0.0000 C   0  0  0  0  0  0  0  0  0  0  0  0
    1.2135   -2.7256    0.0000 C   0  0  0  0  0  0  0  0  0  0  0  0
    2.5838   -3.3357    0.0000 C   0  0  0  0  0  0  0  0  0  0  0  0
    3.7974   -2.4540    0.0000 Br  0  0  0  0  0  0  0  0  0  0  0  0
    2.7406   -4.8275    0.0000 C   0  0  0  0  0  0  0  0  0  0  0  0
    4.1110   -5.4376    0.0000 N   0  0  0  0  0  0  0  0  0  0  0  0
    0.7500   -1.2990    0.0000 C   0  0  0  0  0  0  0  0  0  0  0  0
    1.5000    0.0000    0.0000 C   0  0  0  0  0  0  0  0  0  0  0  0
    0.7500    1.2990    0.0000 C   0  0  0  0  0  0  0  0  0  0  0  0
    1.5000    2.5981    0.0000 Br  0  0  0  0  0  0  0  0  0  0  0  0
   -0.7500    1.2990    0.0000 C   0  0  0  0  0  0  0  0  0  0  0  0
   -1.5000    2.5981    0.0000 N   0  0  0  0  0  0  0  0  0  0  0  0
   -1.5000    0.0000    0.0000 C   0  0  0  0  0  0  0  0  0  0  0  0
   -0.7500   -1.2990    0.0000 C   0  0  0  0  0  0  0  0  0  0  0  0
   -1.2135   -2.7256    0.0000 C   0  0  0  0  0  0  0  0  0  0  0  0
   -2.6401   -3.1891    0.0000 O   0  0  0  0  0  0  0  0  0  0  0  0
  1  2  1  0
  2  3  1  0
  3  4  2  0
  4  5  1  0
  5  6  2  0
  6  7  1  0
  7  8  1  0
  7  9  2  0
  9 10  1  0
  6 11  1  0
 11 12  2  0
 12 13  1  0
 13 14  1  0
 13 15  2  0
 15 16  1  0
 15 17  1  0
 17 18  2  0
 18 19  1  0
 19 20  2  0
  9  3  1  0
 18 11  1  0
 19  5  1  0
M  END
>  <Compound_ID>  (22) 
C01714593

>  <Active>  (22) 
0

>  <Smiles>  (22) 
COc1cc2c(c(Br)c1N)-c1cc(Br)c(N)cc1C2=O

>  <canonical_smi>  (22) 
COc1cc2c(c(Br)c1N)-c1cc(Br)c(N)cc1C2=O

>  <Set>  (22) 
G2 inactive

>  <Set_type>  (22) 
Train

>  <MW>  (22) 
398.05

>  <HBD>  (22) 
2

>  <HBA>  (22) 
4

>  <NRB>  (22) 
1

>  <NR>  (22) 
3

>  <NAR>  (22) 
3

>  <PSA>  (22) 
78.34

>  <Standard Type>  (22) 
nan

>  <Standard Relation>  (22) 
nan

>  <Standard Units>  (22) 
nan

>  <Standard Value>  (22) 
nan

>  <Assay ChEMBL ID>  (22) 
nan

>  <Assay Description>  (22) 
nan

>  <BAO Label>  (22) 
nan

$$$$

     RDKit          2D

 27 29  0  0  0  0  0  0  0  0999 V2000
    2.6401   -3.1891    0.0000 C   0  0  0  0  0  0  0  0  0  0  0  0
    1.2135   -2.7256    0.0000 N   0  0  0  0  0  0  0  0  0  0  0  0
   -0.0000   -3.6073    0.0000 N   0  0  0  0  0  0  0  0  0  0  0  0
   -1.2135   -2.7256    0.0000 C   0  0  0  0  0  0  0  0  0  0  0  0
   -2.6401   -3.1891    0.0000 C   0  0  0  0  0  0  0  0  0  0  0  0
   -3.7548   -2.1855    0.0000 O   0  0  0  0  0  0  0  0  0  0  0  0
   -2.9520   -4.6564    0.0000 N   0  0  0  0  0  0  0  0  0  0  0  0
   -4.3786   -5.1199    0.0000 C   0  0  0  0  0  0  0  0  0  0  0  0
   -4.6904   -6.5871    0.0000 C   0  0  0  0  0  0  0  0  0  0  0  0
   -3.5757   -7.5908    0.0000 C   0  0  0  0  0  0  0  0  0  0  0  0
   -2.1491   -7.1273    0.0000 C   0  0  0  0  0  0  0  0  0  0  0  0
   -1.8373   -5.6601    0.0000 C   0  0  0  0  0  0  0  0  0  0  0  0
   -0.7500   -1.2990    0.0000 C   0  0  0  0  0  0  0  0  0  0  0  0
    0.7500   -1.2990    0.0000 C   0  0  0  0  0  0  0  0  0  0  0  0
    1.5000    0.0000    0.0000 C   0  0  0  0  0  0  0  0  0  0  0  0
    0.7500    1.2990    0.0000 C   0  0  0  0  0  0  0  0  0  0  0  0
   -0.7500    1.2990    0.0000 C   0  0  0  0  0  0  0  0  0  0  0  0
   -1.5000    2.5981    0.0000 N   0  0  0  0  0  4  0  0  0  0  0  0
   -0.7500    3.8971    0.0000 C   0  0  0  0  0  0  0  0  0  0  0  0
   -1.5000    5.1962    0.0000 C   0  0  0  0  0  0  0  0  0  0  0  0
   -2.7990    4.4462    0.0000 C   0  0  0  0  0  0  0  0  0  0  0  0
   -0.2010    5.9462    0.0000 C   0  0  0  0  0  0  0  0  0  0  0  0
   -2.2500    6.4952    0.0000 C   0  0  0  0  0  0  0  0  0  0  0  0
   -3.7500    6.4952    0.0000 N   0  0  0  0  0  4  0  0  0  0  0  0
   -4.5000    7.7942    0.0000 C   0  0  0  0  0  0  0  0  0  0  0  0
   -4.5000    5.1962    0.0000 C   0  0  0  0  0  0  0  0  0  0  0  0
   -1.5000    0.0000    0.0000 C   0  0  0  0  0  0  0  0  0  0  0  0
  1  2  1  0
  2  3  1  0
  3  4  2  0
  4  5  1  0
  5  6  2  0
  5  7  1  0
  7  8  1  0
  8  9  1  0
  9 10  1  0
 10 11  1  0
 11 12  1  0
  4 13  1  0
 13 14  2  0
 14 15  1  0
 15 16  1  0
 16 17  1  0
 17 18  1  6
 18 19  1  0
 19 20  1  0
 20 21  1  0
 20 22  1  0
 20 23  1  0
 23 24  1  0
 24 25  1  0
 24 26  1  0
 17 27  1  0
 14  2  1  0
 12  7  1  0
 27 13  1  0
M  CHG  2  18   1  24   1
M  END
>  <Compound_ID>  (23) 
C19732504

>  <Active>  (23) 
0

>  <Smiles>  (23) 
Cn1nc(C(=O)N2CCCCC2)c2c1CC[C@@H]([NH2+]CC(C)(C)C[NH+](C)C)C2

>  <canonical_smi>  (23) 
Cn1nc(C(=O)N2CCCCC2)c2c1CC[C@@H]([NH2+]CC(C)(C)C[NH+](C)C)C2

>  <Set>  (23) 
G2 inactive

>  <Set_type>  (23) 
Train

>  <MW>  (23) 
377.58

>  <HBD>  (23) 
2

>  <HBA>  (23) 
2

>  <NRB>  (23) 
6

>  <NR>  (23) 
3

>  <NAR>  (23) 
1

>  <PSA>  (23) 
59.18

>  <Standard Type>  (23) 
nan

>  <Standard Relation>  (23) 
nan

>  <Standard Units>  (23) 
nan

>  <Standard Value>  (23) 
nan

>  <Assay ChEMBL ID>  (23) 
nan

>  <Assay Description>  (23) 
nan

>  <BAO Label>  (23) 
nan

$$$$

     RDKit          2D

 31 35  0  0  0  0  0  0  0  0999 V2000
    2.5607   -7.0333    0.0000 H   0  0  0  0  0  0  0  0  0  0  0  0
    3.3107   -5.7342    0.0000 O   0  0  0  0  0  3  0  0  0  0  0  0
    2.5607   -4.4352    0.0000 C   0  0  0  0  0  0  0  0  0  0  0  0
    1.1118   -4.0470    0.0000 C   0  0  0  0  0  0  0  0  0  0  0  0
   -0.1873   -4.7970    0.0000 N   0  0  0  0  0  0  0  0  0  0  0  0
   -0.1873   -6.2970    0.0000 C   0  0  0  0  0  0  0  0  0  0  0  0
    0.5627   -7.5960    0.0000 C   0  0  0  0  0  0  0  0  0  0  0  0
   -0.9373   -7.5960    0.0000 C   0  0  0  0  0  0  0  0  0  0  0  0
    1.5000   -2.5981    0.0000 C   0  0  0  0  0  0  0  0  0  0  0  0
    0.7500   -1.2990    0.0000 N   0  0  0  0  0  4  0  0  0  0  0  0
    1.5000    0.0000    0.0000 C   0  0  0  0  0  0  0  0  0  0  0  0
    0.7500    1.2990    0.0000 C   0  0  0  0  0  0  0  0  0  0  0  0
   -0.7500    1.2990    0.0000 C   0  0  0  0  0  0  0  0  0  0  0  0
   -1.5000    2.5981    0.0000 S   0  0  0  0  0  0  0  0  0  0  0  0
   -0.2010    3.3481    0.0000 O   0  0  0  0  0  0  0  0  0  0  0  0
   -2.7990    1.8481    0.0000 O   0  0  0  0  0  0  0  0  0  0  0  0
   -2.2500    3.8971    0.0000 C   0  0  0  0  0  0  0  0  0  0  0  0
   -1.5000    5.1962    0.0000 C   0  0  0  0  0  0  0  0  0  0  0  0
   -2.2500    6.4952    0.0000 C   0  0  0  0  0  0  0  0  0  0  0  0
   -3.7500    6.4952    0.0000 C   0  0  0  0  0  0  0  0  0  0  0  0
   -4.5000    7.7942    0.0000 C   0  0  0  0  0  0  0  0  0  0  0  0
   -5.9918    7.9510    0.0000 C   0  0  0  0  0  0  0  0  0  0  0  0
   -6.3037    9.4182    0.0000 C   0  0  0  0  0  0  0  0  0  0  0  0
   -5.0046   10.1682    0.0000 S   0  0  0  0  0  0  0  0  0  0  0  0
   -3.8899    9.1645    0.0000 C   0  0  0  0  0  0  0  0  0  0  0  0
   -4.5000    5.1962    0.0000 C   0  0  0  0  0  0  0  0  0  0  0  0
   -3.7500    3.8971    0.0000 C   0  0  0  0  0  0  0  0  0  0  0  0
   -1.5000    0.0000    0.0000 C   0  0  0  0  0  0  0  0  0  0  0  0
   -0.7500   -1.2990    0.0000 C   0  0  0  0  0  0  0  0  0  0  0  0
    2.9489   -2.9863    0.0000 C   0  0  0  0  0  0  0  0  0  0  0  0
    4.2479   -2.2363    0.0000 O   0  0  0  0  0  0  0  0  0  0  0  0
  1  2  1  0
  2  3  2  0
  3  4  1  0
  4  5  1  0
  5  6  1  0
  6  7  1  0
  7  8  1  0
  4  9  2  0
  9 10  1  0
 10 11  1  0
 11 12  1  0
 12 13  1  0
 13 14  1  0
 14 15  2  0
 14 16  2  0
 14 17  1  0
 17 18  2  0
 18 19  1  0
 19 20  2  0
 20 21  1  0
 21 22  1  0
 22 23  2  0
 23 24  1  0
 24 25  1  0
 20 26  1  0
 26 27  2  0
 13 28  1  0
 28 29  1  0
  9 30  1  0
 30 31  2  0
 30  3  1  0
  8  6  1  0
 29 10  1  0
 27 17  1  0
 25 21  2  0
M  CHG  2   2   1  10   1
M  END
>  <Compound_ID>  (24) 
C24898457

>  <Active>  (24) 
0

>  <Smiles>  (24) 
[H]/[O+]=c1\c(NC2CC2)c([NH+]2CCC(S(=O)(=O)c3ccc(-c4ccsc4)cc3)CC2)c1=O

>  <canonical_smi>  (24) 
[H]/[O+]=c1\c(NC2CC2)c([NH+]2CCC(S(=O)(=O)c3ccc(-c4ccsc4)cc3)CC2)c1=O

>  <Set>  (24) 
G2 inactive

>  <Set_type>  (24) 
Train

>  <MW>  (24) 
444.58

>  <HBD>  (24) 
2

>  <HBA>  (24) 
4

>  <NRB>  (24) 
6

>  <NR>  (24) 
5

>  <NAR>  (24) 
3

>  <PSA>  (24) 
89.08

>  <Standard Type>  (24) 
nan

>  <Standard Relation>  (24) 
nan

>  <Standard Units>  (24) 
nan

>  <Standard Value>  (24) 
nan

>  <Assay ChEMBL ID>  (24) 
nan

>  <Assay Description>  (24) 
nan

>  <BAO Label>  (24) 
nan

$$$$

     RDKit          2D

 27 30  0  0  0  0  0  0  0  0999 V2000
    3.4173  -12.9277    0.0000 C   0  0  0  0  0  0  0  0  0  0  0  0
    4.2989  -11.7142    0.0000 O   0  0  0  0  0  0  0  0  0  0  0  0
    3.6888  -10.3438    0.0000 C   0  0  0  0  0  0  0  0  0  0  0  0
    4.5705   -9.1303    0.0000 C   0  0  0  0  0  0  0  0  0  0  0  0
    3.9604   -7.7600    0.0000 N   0  0  0  0  0  4  0  0  0  0  0  0
    4.8421   -6.5465    0.0000 C   0  0  0  0  0  0  0  0  0  0  0  0
    6.3421   -6.5465    0.0000 S   0  0  0  0  0  0  0  0  0  0  0  0
    6.8056   -5.1199    0.0000 C   0  0  0  0  0  0  0  0  0  0  0  0
    5.5921   -4.2382    0.0000 C   0  0  0  0  0  0  0  0  0  0  0  0
    5.5921   -2.7382    0.0000 C   0  0  0  0  0  0  0  0  0  0  0  0
    4.3786   -1.8565    0.0000 C   0  0  0  0  0  0  0  0  0  0  0  0
    4.8421   -0.4300    0.0000 C   0  0  0  0  0  0  0  0  0  0  0  0
    6.3421   -0.4300    0.0000 C   0  0  0  0  0  0  0  0  0  0  0  0
    6.8056   -1.8565    0.0000 O   0  0  0  0  0  0  0  0  0  0  0  0
    4.3786   -5.1199    0.0000 N   0  0  0  0  0  0  0  0  0  0  0  0
    2.9520   -4.6564    0.0000 N   0  0  0  0  0  0  0  0  0  0  0  0
    2.6401   -3.1891    0.0000 C   0  0  0  0  0  0  0  0  0  0  0  0
    1.2135   -2.7256    0.0000 C   0  0  0  0  0  0  0  0  0  0  0  0
    0.7500   -1.2990    0.0000 C   0  0  0  0  0  0  0  0  0  0  0  0
    1.5000    0.0000    0.0000 C   0  0  0  0  0  0  0  0  0  0  0  0
    0.7500    1.2990    0.0000 C   0  0  0  0  0  0  0  0  0  0  0  0
    1.5000    2.5981    0.0000 Br  0  0  0  0  0  0  0  0  0  0  0  0
   -0.7500    1.2990    0.0000 C   0  0  0  0  0  0  0  0  0  0  0  0
   -1.5000    0.0000    0.0000 C   0  0  0  0  0  0  0  0  0  0  0  0
   -0.7500   -1.2990    0.0000 C   0  0  0  0  0  0  0  0  0  0  0  0
   -1.2135   -2.7256    0.0000 N   0  0  0  0  0  4  0  0  0  0  0  0
    0.0000   -3.6073    0.0000 C   0  0  0  0  0  0  0  0  0  0  0  0
  1  2  1  0
  2  3  1  0
  3  4  1  0
  4  5  1  0
  5  6  2  0
  6  7  1  0
  7  8  1  0
  8  9  1  0
  9 10  1  6
 10 11  2  0
 11 12  1  0
 12 13  2  0
 13 14  1  0
  9 15  1  0
 15 16  1  0
 16 17  2  0
 17 18  1  0
 18 19  2  0
 19 20  1  0
 20 21  2  0
 21 22  1  0
 21 23  1  0
 23 24  2  0
 24 25  1  0
 25 26  2  0
 26 27  1  0
 15  6  1  0
 27 18  1  0
 14 10  1  0
 25 19  1  0
M  CHG  2   5   1  26   1
M  END
>  <Compound_ID>  (25) 
C39946571

>  <Active>  (25) 
0

>  <Smiles>  (25) 
COCC/[NH+]=C1\SC[C@@H](c2ccco2)N1/N=C/C1=c2cc(Br)ccc2=[NH+]C1

>  <canonical_smi>  (25) 
COCC/[NH+]=C1\SC[C@@H](c2ccco2)N1/N=C/C1=c2cc(Br)ccc2=[NH+]C1

>  <Set>  (25) 
G2 inactive

>  <Set_type>  (25) 
Train

>  <MW>  (25) 
449.37

>  <HBD>  (25) 
2

>  <HBA>  (25) 
4

>  <NRB>  (25) 
6

>  <NR>  (25) 
4

>  <NAR>  (25) 
2

>  <PSA>  (25) 
65.91

>  <Standard Type>  (25) 
nan

>  <Standard Relation>  (25) 
nan

>  <Standard Units>  (25) 
nan

>  <Standard Value>  (25) 
nan

>  <Assay ChEMBL ID>  (25) 
nan

>  <Assay Description>  (25) 
nan

>  <BAO Label>  (25) 
nan

$$$$

     RDKit          2D

 21 23  0  0  0  0  0  0  0  0999 V2000
    1.5000   -5.1962    0.0000 C   0  0  0  0  0  0  0  0  0  0  0  0
    0.7500   -3.8971    0.0000 C   0  0  0  0  0  0  0  0  0  0  0  0
    1.5000   -2.5981    0.0000 O   0  0  0  0  0  0  0  0  0  0  0  0
    0.7500   -1.2990    0.0000 C   0  0  0  0  0  0  0  0  0  0  0  0
    1.5000    0.0000    0.0000 C   0  0  0  0  0  0  0  0  0  0  0  0
    0.7500    1.2990    0.0000 C   0  0  0  0  0  0  0  0  0  0  0  0
   -0.7500    1.2990    0.0000 C   0  0  0  0  0  0  0  0  0  0  0  0
   -1.5000    2.5981    0.0000 N   0  0  0  0  0  0  0  0  0  0  0  0
   -0.7500    3.8971    0.0000 C   0  0  0  0  0  0  0  0  0  0  0  0
   -1.5000    5.1962    0.0000 C   0  0  0  0  0  0  0  0  0  0  0  0
    0.7500    3.8971    0.0000 C   0  0  0  0  0  0  0  0  0  0  0  0
    1.6317    5.1106    0.0000 C   0  0  0  0  0  0  0  0  0  0  0  0
    3.0583    4.6471    0.0000 C   0  0  0  0  0  0  0  0  0  0  0  0
    3.0583    3.1471    0.0000 C   0  0  0  0  0  0  0  0  0  0  0  0
    4.2718    2.2654    0.0000 Cl  0  0  0  0  0  0  0  0  0  0  0  0
    1.6317    2.6836    0.0000 S   0  0  0  0  0  0  0  0  0  0  0  0
   -1.5000    0.0000    0.0000 C   0  0  0  0  0  0  0  0  0  0  0  0
   -0.7500   -1.2990    0.0000 C   0  0  0  0  0  0  0  0  0  0  0  0
   -1.5000   -2.5981    0.0000 N   0  0  0  0  0  0  0  0  0  0  0  0
   -0.7500   -3.8971    0.0000 C   0  0  0  0  0  0  0  0  0  0  0  0
   -1.5000   -5.1962    0.0000 O   0  0  0  0  0  0  0  0  0  0  0  0
  2  1  1  1
  2  3  1  0
  3  4  1  0
  4  5  2  0
  5  6  1  0
  6  7  2  0
  7  8  1  0
  8  9  1  0
  9 10  1  1
  9 11  1  0
 11 12  2  0
 12 13  1  0
 13 14  2  0
 14 15  1  0
 14 16  1  0
  7 17  1  0
 17 18  2  0
 18 19  1  0
 19 20  1  0
 20 21  2  0
 20  2  1  0
 18  4  1  0
 16 11  1  0
M  END
>  <Compound_ID>  (26) 
C36969402

>  <Active>  (26) 
0

>  <Smiles>  (26) 
C[C@@H]1Oc2ccc(N[C@@H](C)c3ccc(Cl)s3)cc2NC1=O

>  <canonical_smi>  (26) 
C[C@@H]1Oc2ccc(N[C@@H](C)c3ccc(Cl)s3)cc2NC1=O

>  <Set>  (26) 
G2 inactive

>  <Set_type>  (26) 
Train

>  <MW>  (26) 
322.82

>  <HBD>  (26) 
2

>  <HBA>  (26) 
3

>  <NRB>  (26) 
3

>  <NR>  (26) 
3

>  <NAR>  (26) 
2

>  <PSA>  (26) 
50.36

>  <Standard Type>  (26) 
nan

>  <Standard Relation>  (26) 
nan

>  <Standard Units>  (26) 
nan

>  <Standard Value>  (26) 
nan

>  <Assay ChEMBL ID>  (26) 
nan

>  <Assay Description>  (26) 
nan

>  <BAO Label>  (26) 
nan

$$$$

     RDKit          2D

 21 23  0  0  0  0  0  0  0  0999 V2000
    3.0000    0.0000    0.0000 C   0  0  0  0  0  0  0  0  0  0  0  0
    1.5000    0.0000    0.0000 C   0  0  0  0  0  0  0  0  0  0  0  0
    0.7500   -1.2990    0.0000 N   0  0  0  0  0  0  0  0  0  0  0  0
   -0.7500   -1.2990    0.0000 C   0  0  0  0  0  0  0  0  0  0  0  0
   -1.5000   -2.5981    0.0000 N   0  0  0  0  0  0  0  0  0  0  0  0
   -1.5000    0.0000    0.0000 C   0  0  0  0  0  0  0  0  0  0  0  0
   -2.9672    0.3119    0.0000 C   0  0  0  0  0  0  0  0  0  0  0  0
   -4.0819   -0.6918    0.0000 C   0  0  0  0  0  0  0  0  0  0  0  0
   -3.1240    1.8037    0.0000 C   0  0  0  0  0  0  0  0  0  0  0  0
   -4.4231    2.5537    0.0000 C   0  0  0  0  0  0  0  0  0  0  0  0
   -1.7537    2.4138    0.0000 N   0  0  0  0  0  0  0  0  0  0  0  0
   -1.4418    3.8810    0.0000 C   0  0  0  0  0  0  0  0  0  0  0  0
   -0.0152    4.3445    0.0000 C   0  0  0  0  0  0  0  0  0  0  0  0
    0.2966    5.8117    0.0000 C   0  0  0  0  0  0  0  0  0  0  0  0
   -0.8181    6.8154    0.0000 C   0  0  0  0  0  0  0  0  0  0  0  0
   -0.5062    8.2826    0.0000 Cl  0  0  0  0  0  0  0  0  0  0  0  0
   -2.2447    6.3519    0.0000 C   0  0  0  0  0  0  0  0  0  0  0  0
   -2.5565    4.8847    0.0000 C   0  0  0  0  0  0  0  0  0  0  0  0
   -3.9831    4.4211    0.0000 Cl  0  0  0  0  0  0  0  0  0  0  0  0
   -0.7500    1.2990    0.0000 C   0  0  0  0  0  0  0  0  0  0  0  0
    0.7500    1.2990    0.0000 N   0  0  0  0  0  0  0  0  0  0  0  0
  1  2  1  0
  2  3  2  0
  3  4  1  0
  4  5  1  0
  4  6  2  0
  6  7  1  0
  7  8  1  0
  7  9  2  0
  9 10  1  0
  9 11  1  0
 11 12  1  0
 12 13  2  0
 13 14  1  0
 14 15  2  0
 15 16  1  0
 15 17  1  0
 17 18  2  0
 18 19  1  0
 11 20  1  0
 20 21  2  0
 21  2  1  0
 20  6  1  0
 18 12  1  0
M  END
>  <Compound_ID>  (27) 
C37353021

>  <Active>  (27) 
0

>  <Smiles>  (27) 
Cc1nc(N)c2c(C)c(C)n(-c3ccc(Cl)cc3Cl)c2n1

>  <canonical_smi>  (27) 
Cc1nc(N)c2c(C)c(C)n(-c3ccc(Cl)cc3Cl)c2n1

>  <Set>  (27) 
G2 inactive

>  <Set_type>  (27) 
Train

>  <MW>  (27) 
321.21

>  <HBD>  (27) 
1

>  <HBA>  (27) 
3

>  <NRB>  (27) 
1

>  <NR>  (27) 
3

>  <NAR>  (27) 
3

>  <PSA>  (27) 
56.73

>  <Standard Type>  (27) 
nan

>  <Standard Relation>  (27) 
nan

>  <Standard Units>  (27) 
nan

>  <Standard Value>  (27) 
nan

>  <Assay ChEMBL ID>  (27) 
nan

>  <Assay Description>  (27) 
nan

>  <BAO Label>  (27) 
nan

$$$$

     RDKit          2D

 20 21  0  0  0  0  0  0  0  0999 V2000
    2.7760    0.0000    0.0000 C   0  0  0  0  0  0  0  0  0  0  0  0
    1.2760    0.0000    0.0000 N   0  0  0  0  0  0  0  0  0  0  0  0
    0.3943    1.2135    0.0000 C   0  0  0  0  0  0  0  0  0  0  0  0
    0.8578    2.6401    0.0000 C   0  0  0  0  0  0  0  0  0  0  0  0
    2.3250    2.9520    0.0000 O   0  0  0  0  0  1  0  0  0  0  0  0
   -0.1459    3.7548    0.0000 C   0  0  0  0  0  0  0  0  0  0  0  0
    0.3177    5.1814    0.0000 C   0  0  0  0  0  0  0  0  0  0  0  0
    0.7812    6.6080    0.0000 N   0  0  0  0  0  0  0  0  0  0  0  0
   -1.6131    3.4430    0.0000 C   0  0  0  0  0  0  0  0  0  0  0  0
   -2.0766    2.0164    0.0000 O   0  0  0  0  0  0  0  0  0  0  0  0
   -2.6168    4.5577    0.0000 C   0  0  0  0  0  0  0  0  0  0  0  0
   -4.1086    4.4009    0.0000 C   0  0  0  0  0  0  0  0  0  0  0  0
   -4.7187    5.7712    0.0000 C   0  0  0  0  0  0  0  0  0  0  0  0
   -3.6040    6.7749    0.0000 S   0  0  0  0  0  0  0  0  0  0  0  0
   -2.3049    6.0249    0.0000 C   0  0  0  0  0  0  0  0  0  0  0  0
   -1.0323    0.7500    0.0000 C   0  0  0  0  0  0  0  0  0  0  0  0
   -1.0323   -0.7500    0.0000 C   0  0  0  0  0  0  0  0  0  0  0  0
   -2.2458   -1.6317    0.0000 Cl  0  0  0  0  0  0  0  0  0  0  0  0
    0.3943   -1.2135    0.0000 C   0  0  0  0  0  0  0  0  0  0  0  0
    0.8578   -2.6401    0.0000 Cl  0  0  0  0  0  0  0  0  0  0  0  0
  1  2  1  0
  2  3  1  0
  3  4  1  0
  4  5  1  0
  4  6  2  0
  6  7  1  0
  7  8  3  0
  6  9  1  0
  9 10  2  0
  9 11  1  0
 11 12  1  0
 12 13  2  0
 13 14  1  0
 14 15  1  0
  3 16  2  0
 16 17  1  0
 17 18  1  0
 17 19  2  0
 19 20  1  0
 19  2  1  0
 15 11  2  0
M  CHG  1   5  -1
M  END
>  <Compound_ID>  (28) 
C48529961

>  <Active>  (28) 
0

>  <Smiles>  (28) 
Cn1c(/C([O-])=C(/C#N)C(=O)c2ccsc2)cc(Cl)c1Cl

>  <canonical_smi>  (28) 
Cn1c(/C([O-])=C(/C#N)C(=O)c2ccsc2)cc(Cl)c1Cl

>  <Set>  (28) 
G2 inactive

>  <Set_type>  (28) 
Train

>  <MW>  (28) 
326.18

>  <HBD>  (28) 
0

>  <HBA>  (28) 
3

>  <NRB>  (28) 
3

>  <NR>  (28) 
2

>  <NAR>  (28) 
2

>  <PSA>  (28) 
68.85

>  <Standard Type>  (28) 
nan

>  <Standard Relation>  (28) 
nan

>  <Standard Units>  (28) 
nan

>  <Standard Value>  (28) 
nan

>  <Assay ChEMBL ID>  (28) 
nan

>  <Assay Description>  (28) 
nan

>  <BAO Label>  (28) 
nan

$$$$

     RDKit          2D

 27 28  0  0  0  0  0  0  0  0999 V2000
   -0.6546  -12.7344    0.0000 C   0  0  0  0  0  0  0  0  0  0  0  0
   -0.8113  -11.2427    0.0000 C   0  0  0  0  0  0  0  0  0  0  0  0
    0.4022  -10.3610    0.0000 C   0  0  0  0  0  0  0  0  0  0  0  0
    0.2454   -8.8692    0.0000 C   0  0  0  0  0  0  0  0  0  0  0  0
    1.3601   -7.8655    0.0000 C   0  0  0  0  0  0  0  0  0  0  0  0
    0.7500   -6.4952    0.0000 C   0  0  0  0  0  0  0  0  0  0  0  0
    1.5000   -5.1962    0.0000 C   0  0  0  0  0  0  0  0  0  0  0  0
    3.0000   -5.1962    0.0000 O   0  0  0  0  0  0  0  0  0  0  0  0
    0.7500   -3.8971    0.0000 N   0  0  0  0  0  0  0  0  0  0  0  0
    1.5000   -2.5981    0.0000 C   0  0  0  0  0  0  0  0  0  0  0  0
    0.7500   -1.2990    0.0000 C   0  0  0  0  0  0  0  0  0  0  0  0
    1.5000    0.0000    0.0000 O   0  0  0  0  0  0  0  0  0  0  0  0
    0.7500    1.2990    0.0000 C   0  0  0  0  0  0  0  0  0  0  0  0
    1.5000    2.5981    0.0000 S   0  0  0  0  0  0  0  0  0  0  0  0
    3.0000    2.5981    0.0000 C   0  0  0  0  0  0  0  0  0  0  0  0
   -0.7500    1.2990    0.0000 C   0  0  0  0  0  0  0  0  0  0  0  0
   -1.5000    2.5981    0.0000 O   0  0  0  0  0  0  0  0  0  0  0  0
   -1.5000    0.0000    0.0000 C   0  0  0  0  0  0  0  0  0  0  0  0
   -3.0000    0.0000    0.0000 O   0  0  0  0  0  0  0  0  0  0  0  0
   -0.7500   -1.2990    0.0000 C   0  0  0  0  0  0  0  0  0  0  0  0
   -1.5000   -2.5981    0.0000 O   0  0  0  0  0  0  0  0  0  0  0  0
    3.0000   -2.5981    0.0000 C   0  0  0  0  0  0  0  0  0  0  0  0
    3.7500   -3.8971    0.0000 C   0  0  0  0  0  0  0  0  0  0  0  0
    3.7500   -1.2990    0.0000 O   0  0  0  0  0  0  0  0  0  0  0  0
   -0.7418   -6.6520    0.0000 N   0  0  0  0  0  4  0  0  0  0  0  0
   -1.7455   -5.5373    0.0000 C   0  0  0  0  0  0  0  0  0  0  0  0
   -1.0537   -8.1192    0.0000 C   0  0  0  0  0  0  0  0  0  0  0  0
  1  2  1  0
  2  3  1  0
  4  3  1  6
  4  5  1  0
  5  6  1  0
  6  7  1  1
  7  8  2  0
  7  9  1  0
 10  9  1  1
 10 11  1  0
 11 12  1  6
 12 13  1  0
 13 14  1  1
 14 15  1  0
 13 16  1  0
 16 17  1  6
 16 18  1  0
 18 19  1  1
 18 20  1  0
 20 21  1  6
 10 22  1  0
 22 23  1  6
 22 24  1  0
  6 25  1  0
 25 26  1  0
 25 27  1  0
 27  4  1  0
 20 11  1  0
M  CHG  1  25   1
M  END
>  <Compound_ID>  (29) 
C44963769

>  <Active>  (29) 
0

>  <Smiles>  (29) 
CCC[C@H]1C[C@H](C(=O)N[C@@H]([C@H]2O[C@H](SC)[C@@H](O)[C@H](O)[C@H]2O)[C@@H](C)O)[NH+](C)C1

>  <canonical_smi>  (29) 
CCC[C@H]1C[C@H](C(=O)N[C@H]([C@@H](C)O)[C@H]2O[C@H](SC)[C@@H](O)[C@H](O)[C@H]2O)[NH+](C)C1

>  <Set>  (29) 
G2 inactive

>  <Set_type>  (29) 
Train

>  <MW>  (29) 
407.55

>  <HBD>  (29) 
6

>  <HBA>  (29) 
7

>  <NRB>  (29) 
7

>  <NR>  (29) 
2

>  <NAR>  (29) 
0

>  <PSA>  (29) 
123.69

>  <Standard Type>  (29) 
nan

>  <Standard Relation>  (29) 
nan

>  <Standard Units>  (29) 
nan

>  <Standard Value>  (29) 
nan

>  <Assay ChEMBL ID>  (29) 
nan

>  <Assay Description>  (29) 
nan

>  <BAO Label>  (29) 
nan

$$$$

     RDKit          2D

 27 29  0  0  0  0  0  0  0  0999 V2000
    9.5939  -10.9121    0.0000 C   0  0  0  0  0  0  0  0  0  0  0  0
    8.1673  -10.4486    0.0000 C   0  0  0  0  0  0  0  0  0  0  0  0
    7.0526  -11.4523    0.0000 C   0  0  0  0  0  0  0  0  0  0  0  0
    7.8555   -8.9814    0.0000 C   0  0  0  0  0  0  0  0  0  0  0  0
    6.4289   -8.5179    0.0000 C   0  0  0  0  0  0  0  0  0  0  0  0
    6.1170   -7.0506    0.0000 N   0  0  0  0  0  0  0  0  0  0  0  0
    4.6904   -6.5871    0.0000 C   0  0  0  0  0  0  0  0  0  0  0  0
    3.5757   -7.5908    0.0000 N   0  0  0  0  0  0  0  0  0  0  0  0
    2.1491   -7.1273    0.0000 C   0  0  0  0  0  0  0  0  0  0  0  0
    1.0344   -8.1310    0.0000 N   0  0  0  0  0  0  0  0  0  0  0  0
    1.8373   -5.6601    0.0000 C   0  0  0  0  0  0  0  0  0  0  0  0
    0.4107   -5.1965    0.0000 N   0  0  0  0  0  4  0  0  0  0  0  0
    0.0988   -3.7293    0.0000 O   0  0  0  0  0  0  0  0  0  0  0  0
   -0.7040   -6.2002    0.0000 O   0  0  0  0  0  1  0  0  0  0  0  0
    2.9520   -4.6564    0.0000 C   0  0  0  0  0  0  0  0  0  0  0  0
    2.6401   -3.1891    0.0000 N   0  0  0  0  0  0  0  0  0  0  0  0
    3.7548   -2.1855    0.0000 C   0  0  0  0  0  0  0  0  0  0  0  0
    5.2220   -2.4973    0.0000 O   0  0  0  0  0  0  0  0  0  0  0  0
    5.9720   -1.1983    0.0000 N   0  0  0  0  0  0  0  0  0  0  0  0
    4.9684   -0.0836    0.0000 C   0  0  0  0  0  0  0  0  0  0  0  0
    3.5980   -0.6937    0.0000 C   0  0  0  0  0  0  0  0  0  0  0  0
    2.3845    0.1880    0.0000 C   0  0  0  0  0  0  0  0  0  0  0  0
    2.5413    1.6798    0.0000 C   0  0  0  0  0  0  0  0  0  0  0  0
    1.3278    2.5615    0.0000 C   0  0  0  0  0  0  0  0  0  0  0  0
    3.9116    2.2899    0.0000 C   0  0  0  0  0  0  0  0  0  0  0  0
    5.1251    1.4082    0.0000 C   0  0  0  0  0  0  0  0  0  0  0  0
    4.3786   -5.1199    0.0000 N   0  0  0  0  0  0  0  0  0  0  0  0
  1  2  1  0
  2  3  1  0
  2  4  1  0
  4  5  1  0
  5  6  1  0
  6  7  1  0
  7  8  2  0
  8  9  1  0
  9 10  1  0
  9 11  2  0
 11 12  1  0
 12 13  2  0
 12 14  1  0
 11 15  1  0
 15 16  1  0
 16 17  1  0
 17 18  1  0
 18 19  1  0
 19 20  2  0
 20 21  1  0
 21 22  1  0
 22 23  1  0
 23 24  1  1
 23 25  1  0
 25 26  1  0
 15 27  2  0
 27  7  1  0
 21 17  2  0
 26 20  1  0
M  CHG  2  12   1  14  -1
M  END
>  <Compound_ID>  (30) 
C41301550

>  <Active>  (30) 
0

>  <Smiles>  (30) 
CC(C)CCNc1nc(N)c([N+](=O)[O-])c(Nc2onc3c2C[C@@H](C)CC3)n1

>  <canonical_smi>  (30) 
CC(C)CCNc1nc(N)c([N+](=O)[O-])c(Nc2onc3c2C[C@@H](C)CC3)n1

>  <Set>  (30) 
G2 inactive

>  <Set_type>  (30) 
Train

>  <MW>  (30) 
375.43

>  <HBD>  (30) 
3

>  <HBA>  (30) 
9

>  <NRB>  (30) 
7

>  <NR>  (30) 
3

>  <NAR>  (30) 
2

>  <PSA>  (30) 
145.03

>  <Standard Type>  (30) 
nan

>  <Standard Relation>  (30) 
nan

>  <Standard Units>  (30) 
nan

>  <Standard Value>  (30) 
nan

>  <Assay ChEMBL ID>  (30) 
nan

>  <Assay Description>  (30) 
nan

>  <BAO Label>  (30) 
nan

$$$$

     RDKit          2D

 37 39  0  0  0  0  0  0  0  0999 V2000
    8.1510    6.4656    0.0000 C   0  0  0  0  0  0  0  0  0  0  0  0
    6.7244    6.0021    0.0000 O   0  0  0  0  0  0  0  0  0  0  0  0
    5.6097    7.0058    0.0000 C   0  0  0  0  0  0  0  0  0  0  0  0
    5.9215    8.4730    0.0000 O   0  0  0  0  0  0  0  0  0  0  0  0
    4.1831    6.5422    0.0000 C   0  0  0  0  0  0  0  0  0  0  0  0
    3.0684    7.5459    0.0000 C   0  0  0  0  0  0  0  0  0  0  0  0
    1.6418    7.0824    0.0000 C   0  0  0  0  0  0  0  0  0  0  0  0
    0.5271    8.0861    0.0000 C   0  0  0  0  0  0  0  0  0  0  0  0
    1.3299    5.6152    0.0000 C   0  0  0  0  0  0  0  0  0  0  0  0
   -0.0967    5.1517    0.0000 C   0  0  0  0  0  0  0  0  0  0  0  0
   -0.4086    3.6844    0.0000 C   0  0  0  0  0  0  0  0  0  0  0  0
   -1.8351    3.2209    0.0000 C   0  0  0  0  0  0  0  0  0  0  0  0
   -2.9499    4.2246    0.0000 O   0  0  0  0  0  0  0  0  0  0  0  0
   -2.6380    5.6918    0.0000 C   0  0  0  0  0  0  0  0  0  0  0  0
   -2.1470    1.7537    0.0000 C   0  0  0  0  0  0  0  0  0  0  0  0
   -3.5736    1.2902    0.0000 C   0  0  0  0  0  0  0  0  0  0  0  0
   -1.0323    0.7500    0.0000 C   0  0  0  0  0  0  0  0  0  0  0  0
    0.3943    1.2135    0.0000 C   0  0  0  0  0  0  0  0  0  0  0  0
    0.7062    2.6807    0.0000 C   0  0  0  0  0  0  0  0  0  0  0  0
    2.1328    3.1443    0.0000 O   0  0  0  0  0  0  0  0  0  0  0  0
    3.2475    2.1406    0.0000 C   0  0  0  0  0  0  0  0  0  0  0  0
    2.9356    0.6734    0.0000 O   0  0  0  0  0  0  0  0  0  0  0  0
    4.0503   -0.3303    0.0000 C   0  0  0  0  0  0  0  0  0  0  0  0
    3.7385   -1.7976    0.0000 C   0  0  0  0  0  0  0  0  0  0  0  0
    2.3119   -2.2611    0.0000 O   0  0  0  0  0  0  0  0  0  0  0  0
    4.8532   -2.8013    0.0000 O   0  0  0  0  0  0  0  0  0  0  0  0
    4.5413   -4.2685    0.0000 C   0  0  0  0  0  0  0  0  0  0  0  0
    5.4769    0.1332    0.0000 C   0  0  0  0  0  0  0  0  0  0  0  0
    6.5916   -0.8705    0.0000 O   0  0  0  0  0  0  0  0  0  0  0  0
    5.7888    1.6004    0.0000 C   0  0  0  0  0  0  0  0  0  0  0  0
    7.2154    2.0639    0.0000 O   0  0  0  0  0  0  0  0  0  0  0  0
    4.6741    2.6041    0.0000 C   0  0  0  0  0  0  0  0  0  0  0  0
    4.9859    4.0713    0.0000 O   0  0  0  0  0  0  0  0  0  0  0  0
    1.2760    0.0000    0.0000 C   0  0  0  0  0  0  0  0  0  0  0  0
    2.7314   -0.3630    0.0000 O   0  0  0  0  0  0  0  0  0  0  0  0
    0.3943   -1.2135    0.0000 O   0  0  0  0  0  0  0  0  0  0  0  0
   -1.0323   -0.7500    0.0000 C   0  0  0  0  0  0  0  0  0  0  0  0
  1  2  1  0
  2  3  1  0
  3  4  2  0
  3  5  1  0
  5  6  1  0
  6  7  1  0
  7  8  1  0
  7  9  2  0
  9 10  1  0
 10 11  1  0
 11 12  2  0
 12 13  1  0
 13 14  1  0
 12 15  1  0
 15 16  1  0
 15 17  2  0
 17 18  1  0
 18 19  2  0
 19 20  1  0
 21 20  1  1
 21 22  1  0
 22 23  1  0
 23 24  1  6
 24 25  2  0
 24 26  1  0
 26 27  1  0
 23 28  1  0
 28 29  1  6
 28 30  1  0
 30 31  1  6
 30 32  1  0
 32 33  1  1
 18 34  1  0
 34 35  2  0
 34 36  1  0
 36 37  1  0
 19 11  1  0
 32 21  1  0
 37 17  1  0
M  END
>  <Compound_ID>  (31) 
C65747932

>  <Active>  (31) 
0

>  <Smiles>  (31) 
COC(=O)CC/C(C)=C/Cc1c(OC)c(C)c2c(c1O[C@@H]1O[C@@H](C(=O)OC)[C@@H](O)[C@@H](O)[C@@H]1O)C(=O)OC2

>  <canonical_smi>  (31) 
COC(=O)CC/C(C)=C/Cc1c(OC)c(C)c2c(c1O[C@@H]1O[C@@H](C(=O)OC)[C@@H](O)[C@@H](O)[C@@H]1O)C(=O)OC2

>  <Set>  (31) 
G2 inactive

>  <Set_type>  (31) 
Train

>  <MW>  (31) 
524.52

>  <HBD>  (31) 
3

>  <HBA>  (31) 
12

>  <NRB>  (31) 
9

>  <NR>  (31) 
3

>  <NAR>  (31) 
1

>  <PSA>  (31) 
167.28

>  <Standard Type>  (31) 
nan

>  <Standard Relation>  (31) 
nan

>  <Standard Units>  (31) 
nan

>  <Standard Value>  (31) 
nan

>  <Assay ChEMBL ID>  (31) 
nan

>  <Assay Description>  (31) 
nan

>  <BAO Label>  (31) 
nan

$$$$

     RDKit          2D

 32 34  0  0  0  0  0  0  0  0999 V2000
   -3.7500   -3.8971    0.0000 C   0  0  0  0  0  0  0  0  0  0  0  0
   -3.0000   -5.1962    0.0000 C   0  0  0  0  0  0  0  0  0  0  0  0
   -1.5000   -5.1962    0.0000 C   0  0  0  0  0  0  0  0  0  0  0  0
   -0.7500   -6.4952    0.0000 C   0  0  0  0  0  0  0  0  0  0  0  0
   -1.5000   -7.7942    0.0000 C   0  0  0  0  0  0  0  0  0  0  0  0
   -0.8899   -9.1645    0.0000 N   0  0  0  0  0  0  0  0  0  0  0  0
   -2.0046  -10.1682    0.0000 N   0  0  0  0  0  0  0  0  0  0  0  0
   -3.3037   -9.4182    0.0000 N   0  0  0  0  0  0  0  0  0  0  0  0
   -2.9918   -7.9510    0.0000 N   0  0  0  0  0  0  0  0  0  0  0  0
   -3.9955   -6.8363    0.0000 C   0  0  0  0  0  0  0  0  0  0  0  0
   -5.1102   -7.8400    0.0000 C   0  0  0  0  0  0  0  0  0  0  0  0
   -3.3161   -5.8290    0.0000 C   0  0  0  0  0  0  0  0  0  0  0  0
   -4.9992   -5.7216    0.0000 C   0  0  0  0  0  0  0  0  0  0  0  0
    0.7500   -6.4952    0.0000 N   0  0  0  0  0  4  0  0  0  0  0  0
    1.5000   -7.7942    0.0000 C   0  0  0  0  0  0  0  0  0  0  0  0
    0.7500   -9.0933    0.0000 C   0  0  0  0  0  0  0  0  0  0  0  0
    1.5000  -10.3923    0.0000 O   0  0  0  0  0  0  0  0  0  0  0  0
    1.5000   -5.1962    0.0000 C   0  0  0  0  0  0  0  0  0  0  0  0
    0.7500   -3.8971    0.0000 C   0  0  0  0  0  0  0  0  0  0  0  0
    1.5000   -2.5981    0.0000 C   0  0  0  0  0  0  0  0  0  0  0  0
    0.7500   -1.2990    0.0000 C   0  0  0  0  0  0  0  0  0  0  0  0
    1.5000    0.0000    0.0000 C   0  0  0  0  0  0  0  0  0  0  0  0
    0.7500    1.2990    0.0000 C   0  0  0  0  0  0  0  0  0  0  0  0
    1.5000    2.5981    0.0000 O   0  0  0  0  0  0  0  0  0  0  0  0
    3.0000    2.5981    0.0000 C   0  0  0  0  0  0  0  0  0  0  0  0
    3.7500    3.8971    0.0000 C   0  0  0  0  0  0  0  0  0  0  0  0
   -0.7500    1.2990    0.0000 C   0  0  0  0  0  0  0  0  0  0  0  0
   -1.5000    0.0000    0.0000 C   0  0  0  0  0  0  0  0  0  0  0  0
   -0.7500   -1.2990    0.0000 C   0  0  0  0  0  0  0  0  0  0  0  0
   -1.5000   -2.5981    0.0000 N   0  0  0  0  0  0  0  0  0  0  0  0
   -0.7500   -3.8971    0.0000 C   0  0  0  0  0  0  0  0  0  0  0  0
   -1.3038   -4.4705    0.0000 O   0  0  0  0  0  0  0  0  0  0  0  0
  1  2  1  0
  2  3  1  0
  4  3  1  6
  4  5  1  0
  5  6  2  0
  6  7  1  0
  7  8  2  0
  8  9  1  0
  9 10  1  0
 10 11  1  0
 10 12  1  0
 10 13  1  0
  4 14  1  0
 14 15  1  0
 15 16  1  0
 16 17  1  0
 14 18  1  0
 18 19  1  0
 19 20  2  0
 20 21  1  0
 21 22  2  0
 22 23  1  0
 23 24  1  0
 24 25  1  0
 25 26  1  0
 23 27  2  0
 27 28  1  0
 28 29  2  0
 29 30  1  0
 30 31  1  0
 31 32  2  0
  9  5  1  0
 31 19  1  0
 29 21  1  0
M  CHG  1  14   1
M  END
>  <Compound_ID>  (32) 
C13500763

>  <Active>  (32) 
0

>  <Smiles>  (32) 
CCC[C@@H](c1nnnn1C(C)(C)C)[NH+](CCO)Cc1cc2cc(OCC)ccc2[nH]c1=O

>  <canonical_smi>  (32) 
CCC[C@@H](c1nnnn1C(C)(C)C)[NH+](CCO)Cc1cc2cc(OCC)ccc2[nH]c1=O

>  <Set>  (32) 
G2 inactive

>  <Set_type>  (32) 
Train

>  <MW>  (32) 
443.57

>  <HBD>  (32) 
3

>  <HBA>  (32) 
6

>  <NRB>  (32) 
10

>  <NR>  (32) 
3

>  <NAR>  (32) 
3

>  <PSA>  (32) 
110.36

>  <Standard Type>  (32) 
nan

>  <Standard Relation>  (32) 
nan

>  <Standard Units>  (32) 
nan

>  <Standard Value>  (32) 
nan

>  <Assay ChEMBL ID>  (32) 
nan

>  <Assay Description>  (32) 
nan

>  <BAO Label>  (32) 
nan

$$$$

     RDKit          2D

 29 33  0  0  0  0  0  0  0  0999 V2000
   -0.4250    4.0688    0.0000 C   0  0  0  0  0  0  0  0  0  0  0  0
   -0.9117    3.0896    0.0000 C   0  0  0  0  0  0  0  0  0  0  0  0
   -2.4102    3.0223    0.0000 N   0  0  0  0  0  0  0  0  0  0  0  0
   -2.8093    1.5763    0.0000 N   0  0  0  0  0  0  0  0  0  0  0  0
   -4.2136    1.0493    0.0000 C   0  0  0  0  0  0  0  0  0  0  0  0
   -4.4593   -0.4305    0.0000 N   0  0  0  0  0  0  0  0  0  0  0  0
   -5.8637   -0.9575    0.0000 C   0  0  0  0  0  0  0  0  0  0  0  0
   -7.0223   -0.0048    0.0000 N   0  0  0  0  0  0  0  0  0  0  0  0
   -6.7766    1.4749    0.0000 C   0  0  0  0  0  0  0  0  0  0  0  0
   -7.7118    2.6476    0.0000 N   0  0  0  0  0  0  0  0  0  0  0  0
   -6.8855    3.8995    0.0000 C   0  0  0  0  0  0  0  0  0  0  0  0
   -5.4395    3.5004    0.0000 N   0  0  0  0  0  0  0  0  0  0  0  0
   -5.3722    2.0020    0.0000 C   0  0  0  0  0  0  0  0  0  0  0  0
   -1.5574    0.7500    0.0000 C   0  0  0  0  0  0  0  0  0  0  0  0
   -0.3846    1.6852    0.0000 C   0  0  0  0  0  0  0  0  0  0  0  0
    1.0777    1.3515    0.0000 C   0  0  0  0  0  0  0  0  0  0  0  0
    2.0130    2.5242    0.0000 C   0  0  0  0  0  0  0  0  0  0  0  0
    3.4962    2.3006    0.0000 C   0  0  0  0  0  0  0  0  0  0  0  0
    4.0442    0.9043    0.0000 F   0  0  0  0  0  0  0  0  0  0  0  0
    4.4315    3.4734    0.0000 C   0  0  0  0  0  0  0  0  0  0  0  0
    3.8835    4.8697    0.0000 C   0  0  0  0  0  0  0  0  0  0  0  0
    2.4002    5.0933    0.0000 C   0  0  0  0  0  0  0  0  0  0  0  0
    1.4650    3.9205    0.0000 C   0  0  0  0  0  0  0  0  0  0  0  0
    0.4116    4.2141    0.0000 Cl  0  0  0  0  0  0  0  0  0  0  0  0
    1.7286    0.0000    0.0000 S   0  0  0  0  0  0  0  0  0  0  0  0
    1.0777   -1.3515    0.0000 C   0  0  0  0  0  0  0  0  0  0  0  0
   -0.3846   -1.6852    0.0000 C   0  0  0  0  0  0  0  0  0  0  0  0
   -0.7184   -3.1476    0.0000 O   0  0  0  0  0  0  0  0  0  0  0  0
   -1.5574   -0.7500    0.0000 N   0  0  0  0  0  0  0  0  0  0  0  0
  1  2  1  0
  2  3  2  0
  3  4  1  0
  4  5  1  0
  5  6  2  0
  6  7  1  0
  7  8  2  0
  8  9  1  0
  9 10  1  0
 10 11  1  0
 11 12  2  0
 12 13  1  0
  4 14  1  0
 14 15  2  0
 15 16  1  0
 16 17  1  6
 17 18  2  0
 18 19  1  0
 18 20  1  0
 20 21  2  0
 21 22  1  0
 22 23  2  0
 23 24  1  0
 16 25  1  0
 25 26  1  0
 26 27  1  0
 27 28  2  0
 27 29  1  0
 15  2  1  0
 23 17  1  0
 13  5  1  0
 29 14  1  0
 13  9  2  0
M  END
>  <Compound_ID>  (33) 
C31808550

>  <Active>  (33) 
0

>  <Smiles>  (33) 
Cc1nn(-c2ncnc3[nH]cnc23)c2c1[C@H](c1c(F)cccc1Cl)SCC(=O)N2

>  <canonical_smi>  (33) 
Cc1nn(-c2ncnc3[nH]cnc23)c2c1[C@H](c1c(F)cccc1Cl)SCC(=O)N2

>  <Set>  (33) 
G2 inactive

>  <Set_type>  (33) 
Train

>  <MW>  (33) 
429.87

>  <HBD>  (33) 
2

>  <HBA>  (33) 
6

>  <NRB>  (33) 
2

>  <NR>  (33) 
5

>  <NAR>  (33) 
4

>  <PSA>  (33) 
101.38

>  <Standard Type>  (33) 
nan

>  <Standard Relation>  (33) 
nan

>  <Standard Units>  (33) 
nan

>  <Standard Value>  (33) 
nan

>  <Assay ChEMBL ID>  (33) 
nan

>  <Assay Description>  (33) 
nan

>  <BAO Label>  (33) 
nan

$$$$

     RDKit          2D

 30 34  0  0  0  0  0  0  0  0999 V2000
    2.1173    9.4436    0.0000 O   0  0  0  0  0  0  0  0  0  0  0  0
    0.8908    8.5802    0.0000 C   0  0  0  0  0  0  0  0  0  0  0  0
    1.0252    7.0862    0.0000 C   0  0  0  0  0  0  0  0  0  0  0  0
    2.3862    6.4557    0.0000 N   0  0  0  0  0  4  0  0  0  0  0  0
    3.6964    7.1862    0.0000 C   0  0  0  0  0  0  0  0  0  0  0  0
    4.7959    6.1659    0.0000 C   0  0  0  0  0  0  0  0  0  0  0  0
    4.1654    4.8049    0.0000 C   0  0  0  0  0  0  0  0  0  0  0  0
    2.6761    4.9840    0.0000 C   0  0  0  0  0  0  0  0  0  0  0  0
    1.6559    3.8844    0.0000 C   0  0  0  0  0  0  0  0  0  0  0  0
    0.1935    4.2182    0.0000 C   0  0  0  0  0  0  0  0  0  0  0  0
   -0.8268    3.1186    0.0000 C   0  0  0  0  0  0  0  0  0  0  0  0
   -0.3846    1.6852    0.0000 C   0  0  0  0  0  0  0  0  0  0  0  0
    1.0777    1.3515    0.0000 C   0  0  0  0  0  0  0  0  0  0  0  0
    2.0980    2.4510    0.0000 C   0  0  0  0  0  0  0  0  0  0  0  0
    1.7286    0.0000    0.0000 O   0  0  0  0  0  0  0  0  0  0  0  0
    1.0777   -1.3515    0.0000 C   0  0  0  0  0  0  0  0  0  0  0  0
   -0.3846   -1.6852    0.0000 C   0  0  0  0  0  0  0  0  0  0  0  0
   -1.5574   -0.7500    0.0000 C   0  0  0  0  0  0  0  0  0  0  0  0
   -1.5574    0.7500    0.0000 O   0  0  0  0  0  0  0  0  0  0  0  0
   -0.4703    9.2107    0.0000 N   0  0  0  0  0  0  0  0  0  0  0  0
   -0.6047   10.7047    0.0000 C   0  0  0  0  0  0  0  0  0  0  0  0
    0.6218   11.5681    0.0000 C   0  0  0  0  0  0  0  0  0  0  0  0
    0.4874   13.0621    0.0000 C   0  0  0  0  0  0  0  0  0  0  0  0
   -0.8737   13.6926    0.0000 C   0  0  0  0  0  0  0  0  0  0  0  0
   -1.3158   15.1260    0.0000 N   0  0  0  0  0  0  0  0  0  0  0  0
   -2.8156   15.1484    0.0000 C   0  0  0  0  0  0  0  0  0  0  0  0
   -3.6791   16.3750    0.0000 O   0  0  0  0  0  0  0  0  0  0  0  0
   -3.3004   13.7289    0.0000 N   0  0  0  0  0  0  0  0  0  0  0  0
   -2.1002   12.8292    0.0000 C   0  0  0  0  0  0  0  0  0  0  0  0
   -1.9658   11.3352    0.0000 C   0  0  0  0  0  0  0  0  0  0  0  0
  1  2  2  0
  2  3  1  0
  3  4  1  0
  4  5  1  0
  5  6  1  0
  6  7  1  0
  7  8  1  0
  8  9  1  6
  9 10  2  0
 10 11  1  0
 11 12  2  0
 12 13  1  0
 13 14  2  0
 13 15  1  0
 15 16  1  0
 16 17  1  0
 17 18  1  0
 18 19  1  0
  2 20  1  0
 20 21  1  0
 21 22  2  0
 22 23  1  0
 23 24  2  0
 24 25  1  0
 25 26  1  0
 26 27  2  0
 26 28  1  0
 28 29  1  0
 29 30  2  0
  8  4  1  0
 14  9  1  0
 30 21  1  0
 19 12  1  0
 29 24  1  0
M  CHG  1   4   1
M  END
>  <Compound_ID>  (34) 
C08324722

>  <Active>  (34) 
0

>  <Smiles>  (34) 
O=C(C[NH+]1CCC[C@@H]1c1ccc2c(c1)OCCCO2)Nc1ccc2[nH]c(=O)[nH]c2c1

>  <canonical_smi>  (34) 
O=C(C[NH+]1CCC[C@@H]1c1ccc2c(c1)OCCCO2)Nc1ccc2[nH]c(=O)[nH]c2c1

>  <Set>  (34) 
G2 inactive

>  <Set_type>  (34) 
Train

>  <MW>  (34) 
409.47

>  <HBD>  (34) 
4

>  <HBA>  (34) 
4

>  <NRB>  (34) 
4

>  <NR>  (34) 
5

>  <NAR>  (34) 
3

>  <PSA>  (34) 
100.65

>  <Standard Type>  (34) 
nan

>  <Standard Relation>  (34) 
nan

>  <Standard Units>  (34) 
nan

>  <Standard Value>  (34) 
nan

>  <Assay ChEMBL ID>  (34) 
nan

>  <Assay Description>  (34) 
nan

>  <BAO Label>  (34) 
nan

$$$$

     RDKit          2D

 30 34  0  0  0  0  0  0  0  0999 V2000
    2.2500   -1.2990    0.0000 C   0  0  0  0  0  0  0  0  0  0  0  0
    0.7500   -1.2990    0.0000 C   0  0  0  0  0  0  0  0  0  0  0  0
    1.5000    0.0000    0.0000 C   0  0  0  0  0  0  0  0  0  0  0  0
    0.7500    1.2990    0.0000 C   0  0  0  0  0  0  0  0  0  0  0  0
   -0.7500    1.2990    0.0000 C   0  0  0  0  0  0  0  0  0  0  0  0
   -1.5000    2.5981    0.0000 O   0  0  0  0  0  0  0  0  0  0  0  0
   -1.5000    0.0000    0.0000 C   0  0  0  0  0  0  0  0  0  0  0  0
   -0.7500   -1.2990    0.0000 C   0  0  0  0  0  0  0  0  0  0  0  0
   -1.5000   -2.5981    0.0000 C   0  0  0  0  0  0  0  0  0  0  0  0
   -0.7500   -3.8971    0.0000 C   0  0  0  0  0  0  0  0  0  0  0  0
    0.7500   -3.8971    0.0000 C   0  0  0  0  0  0  0  0  0  0  0  0
    1.5000   -2.5981    0.0000 C   0  0  0  0  0  0  0  0  0  0  0  0
    3.0000   -2.5981    0.0000 C   0  0  0  0  0  0  0  0  0  0  0  0
    3.7500   -3.8971    0.0000 C   0  0  0  0  0  0  0  0  0  0  0  0
    3.0000   -5.1962    0.0000 C   0  0  0  0  0  0  0  0  0  0  0  0
    4.4918   -5.3529    0.0000 C   0  0  0  0  0  0  0  0  0  0  0  0
    3.4635   -6.6227    0.0000 C   0  0  0  0  0  0  0  0  0  0  0  0
    4.8901   -7.0863    0.0000 N   0  0  0  0  0  0  0  0  0  0  0  0
    5.2020   -8.5535    0.0000 C   0  0  0  0  0  0  0  0  0  0  0  0
    4.0873   -9.5572    0.0000 O   0  0  0  0  0  0  0  0  0  0  0  0
    6.6286   -9.0170    0.0000 C   0  0  0  0  0  0  0  0  0  0  0  0
    6.9404  -10.4842    0.0000 N   0  0  0  0  0  4  0  0  0  0  0  0
    5.8257  -11.4879    0.0000 C   0  0  0  0  0  0  0  0  0  0  0  0
    6.1376  -12.9551    0.0000 C   0  0  0  0  0  0  0  0  0  0  0  0
    7.5642  -13.4187    0.0000 O   0  0  0  0  0  0  0  0  0  0  0  0
    8.6789  -12.4150    0.0000 C   0  0  0  0  0  0  0  0  0  0  0  0
    8.3670  -10.9478    0.0000 C   0  0  0  0  0  0  0  0  0  0  0  0
    2.2500   -7.5044    0.0000 C   0  0  0  0  0  0  0  0  0  0  0  0
    1.0365   -6.6227    0.0000 C   0  0  0  0  0  0  0  0  0  0  0  0
    1.5000   -5.1962    0.0000 C   0  0  0  0  0  0  0  0  0  0  0  0
  2  1  1  1
  2  3  1  0
  3  4  1  0
  4  5  1  0
  5  6  1  1
  5  7  1  0
  8  7  1  1
  8  9  1  0
  9 10  1  0
 11 10  1  6
 11 12  1  0
 12 13  1  1
 13 14  1  0
 14 15  1  0
 15 16  1  1
 15 17  1  0
 17 18  1  6
 18 19  1  0
 19 20  2  0
 19 21  1  0
 21 22  1  0
 22 23  1  0
 23 24  1  0
 24 25  1  0
 25 26  1  0
 26 27  1  0
 17 28  1  0
 28 29  1  0
 30 29  1  1
  8  2  1  0
 30 11  1  0
 12  2  1  0
 30 15  1  0
 27 22  1  0
M  CHG  1  22   1
M  END
>  <Compound_ID>  (35) 
C12661259

>  <Active>  (35) 
0

>  <Smiles>  (35) 
C[C@]12CC[C@H](O)C[C@@H]1CC[C@@H]1[C@@H]2CC[C@]2(C)[C@H](NC(=O)C[NH+]3CCOCC3)CC[C@@H]12

>  <canonical_smi>  (35) 
C[C@]12CC[C@H](O)C[C@@H]1CC[C@@H]1[C@@H]2CC[C@@]2(C)[C@H]1CC[C@H]2NC(=O)C[NH+]1CCOCC1

>  <Set>  (35) 
G2 inactive

>  <Set_type>  (35) 
Train

>  <MW>  (35) 
419.63

>  <HBD>  (35) 
3

>  <HBA>  (35) 
3

>  <NRB>  (35) 
3

>  <NR>  (35) 
5

>  <NAR>  (35) 
0

>  <PSA>  (35) 
63.0

>  <Standard Type>  (35) 
nan

>  <Standard Relation>  (35) 
nan

>  <Standard Units>  (35) 
nan

>  <Standard Value>  (35) 
nan

>  <Assay ChEMBL ID>  (35) 
nan

>  <Assay Description>  (35) 
nan

>  <BAO Label>  (35) 
nan

$$$$

     RDKit          2D

 30 34  0  0  0  0  0  0  0  0999 V2000
    0.4895   -2.7762    0.0000 O   0  0  0  0  0  0  0  0  0  0  0  0
    0.7500   -1.2990    0.0000 P   0  0  0  0  0  5  0  0  0  0  0  0
    2.1595   -1.8121    0.0000 C   0  0  0  0  0  0  0  0  0  0  0  0
    2.4200   -3.2893    0.0000 C   0  0  0  0  0  0  0  0  0  0  0  0
    3.8296   -3.8023    0.0000 C   0  0  0  0  0  0  0  0  0  0  0  0
    4.9786   -2.8381    0.0000 C   0  0  0  0  0  0  0  0  0  0  0  0
    4.7181   -1.3609    0.0000 C   0  0  0  0  0  0  0  0  0  0  0  0
    3.3086   -0.8479    0.0000 C   0  0  0  0  0  0  0  0  0  0  0  0
    3.0481    0.6293    0.0000 O   0  0  0  0  0  0  0  0  0  0  0  0
    1.5000    0.0000    0.0000 N   0  0  0  0  0  0  0  0  0  0  0  0
    0.7500    1.2990    0.0000 N   0  0  0  0  0  4  0  0  0  0  0  0
    1.5000    2.5981    0.0000 C   0  0  0  0  0  0  0  0  0  0  0  0
    0.7500    3.8971    0.0000 C   0  0  0  0  0  0  0  0  0  0  0  0
    1.5000    5.1962    0.0000 C   0  0  0  0  0  0  0  0  0  0  0  0
    0.7500    6.4952    0.0000 C   0  0  0  0  0  0  0  0  0  0  0  0
    1.5000    7.7942    0.0000 Br  0  0  0  0  0  0  0  0  0  0  0  0
   -0.7500    6.4952    0.0000 C   0  0  0  0  0  0  0  0  0  0  0  0
   -1.5000    7.7942    0.0000 C   0  0  0  0  0  0  0  0  0  0  0  0
   -0.7500    9.0933    0.0000 C   0  0  0  0  0  0  0  0  0  0  0  0
    0.7500    9.0933    0.0000 C   0  0  0  0  0  0  0  0  0  0  0  0
    1.5000   10.3923    0.0000 C   0  0  0  0  0  0  0  0  0  0  0  0
    0.7500   11.6913    0.0000 C   0  0  0  0  0  0  0  0  0  0  0  0
   -0.7500   11.6913    0.0000 C   0  0  0  0  0  0  0  0  0  0  0  0
   -1.5000   10.3923    0.0000 C   0  0  0  0  0  0  0  0  0  0  0  0
   -1.5000    5.1962    0.0000 C   0  0  0  0  0  0  0  0  0  0  0  0
   -0.7500    3.8971    0.0000 C   0  0  0  0  0  0  0  0  0  0  0  0
   -1.5000    2.5981    0.0000 C   0  0  0  0  0  0  0  0  0  0  0  0
   -0.7500    1.2990    0.0000 C   0  0  0  0  0  0  0  0  0  0  0  0
   -1.5000    0.0000    0.0000 C   0  0  0  0  0  0  0  0  0  0  0  0
   -0.7500   -1.2990    0.0000 O   0  0  0  0  0  0  0  0  0  0  0  0
  1  2  2  0
  2  3  1  1
  3  4  2  0
  4  5  1  0
  5  6  2  0
  6  7  1  0
  7  8  2  0
  8  9  1  0
  2 10  1  0
 10 11  1  0
 11 12  1  0
 13 12  1  1
 13 14  1  0
 14 15  2  0
 15 16  1  0
 15 17  1  0
 17 18  1  0
 18 19  1  0
 19 20  2  0
 20 21  1  0
 21 22  2  0
 22 23  1  0
 23 24  2  0
 17 25  2  0
 25 26  1  0
 26 27  1  6
 28 27  1  6
 28 29  1  0
 29 30  1  0
 30  2  1  0
  8  3  1  0
 28 11  1  0
 26 13  1  0
 24 19  1  0
M  CHG  1  11   1
M  END
>  <Compound_ID>  (36) 
C39467080

>  <Active>  (36) 
0

>  <Smiles>  (36) 
O=[P@@]1(c2ccccc2O)N[NH+]2C[C@@H]3C=C(Br)C(Cc4ccccc4)=C[C@H]3C[C@H]2CO1

>  <canonical_smi>  (36) 
O=[P@@]1(c2ccccc2O)N[NH+]2C[C@@H]3C=C(Br)C(Cc4ccccc4)=C[C@H]3C[C@H]2CO1

>  <Set>  (36) 
G2 inactive

>  <Set_type>  (36) 
Train

>  <MW>  (36) 
488.34

>  <HBD>  (36) 
3

>  <HBA>  (36) 
4

>  <NRB>  (36) 
3

>  <NR>  (36) 
5

>  <NAR>  (36) 
2

>  <PSA>  (36) 
63.0

>  <Standard Type>  (36) 
nan

>  <Standard Relation>  (36) 
nan

>  <Standard Units>  (36) 
nan

>  <Standard Value>  (36) 
nan

>  <Assay ChEMBL ID>  (36) 
nan

>  <Assay Description>  (36) 
nan

>  <BAO Label>  (36) 
nan

$$$$

     RDKit          2D

 29 33  0  0  0  0  0  0  0  0999 V2000
   -8.6562    2.3705    0.0000 C   0  0  0  0  0  0  0  0  0  0  0  0
   -7.2296    2.8340    0.0000 O   0  0  0  0  0  0  0  0  0  0  0  0
   -6.1149    1.8303    0.0000 C   0  0  0  0  0  0  0  0  0  0  0  0
   -4.6883    2.2939    0.0000 C   0  0  0  0  0  0  0  0  0  0  0  0
   -3.5736    1.2902    0.0000 C   0  0  0  0  0  0  0  0  0  0  0  0
   -2.1470    1.7537    0.0000 C   0  0  0  0  0  0  0  0  0  0  0  0
   -1.8351    3.2209    0.0000 C   0  0  0  0  0  0  0  0  0  0  0  0
   -0.4086    3.6844    0.0000 C   0  0  0  0  0  0  0  0  0  0  0  0
   -0.0967    5.1517    0.0000 C   0  0  0  0  0  0  0  0  0  0  0  0
   -1.2114    6.1554    0.0000 C   0  0  0  0  0  0  0  0  0  0  0  0
   -0.8995    7.6226    0.0000 C   0  0  0  0  0  0  0  0  0  0  0  0
   -1.9032    8.7373    0.0000 C   0  0  0  0  0  0  0  0  0  0  0  0
   -1.1532   10.0363    0.0000 C   0  0  0  0  0  0  0  0  0  0  0  0
    0.3140    9.7245    0.0000 C   0  0  0  0  0  0  0  0  0  0  0  0
    0.4708    8.2327    0.0000 S   0  0  0  0  0  0  0  0  0  0  0  0
   -2.6380    5.6918    0.0000 C   0  0  0  0  0  0  0  0  0  0  0  0
   -2.9499    4.2246    0.0000 C   0  0  0  0  0  0  0  0  0  0  0  0
   -4.3764    3.7611    0.0000 O   0  0  0  0  0  0  0  0  0  0  0  0
    0.7062    2.6807    0.0000 N   0  0  0  0  0  0  0  0  0  0  0  0
    0.3943    1.2135    0.0000 C   0  0  0  0  0  0  0  0  0  0  0  0
    1.2760    0.0000    0.0000 N   0  0  0  0  0  0  0  0  0  0  0  0
    0.3943   -1.2135    0.0000 C   0  0  0  0  0  0  0  0  0  0  0  0
    0.8578   -2.6401    0.0000 N   0  0  0  0  0  0  0  0  0  0  0  0
   -1.0323   -0.7500    0.0000 N   0  0  0  0  0  0  0  0  0  0  0  0
   -1.0323    0.7500    0.0000 N   0  0  0  0  0  0  0  0  0  0  0  0
   -3.8855   -0.1771    0.0000 C   0  0  0  0  0  0  0  0  0  0  0  0
   -5.3120   -0.6406    0.0000 C   0  0  0  0  0  0  0  0  0  0  0  0
   -6.4268    0.3631    0.0000 C   0  0  0  0  0  0  0  0  0  0  0  0
   -7.8533   -0.1004    0.0000 O   0  0  0  0  0  0  0  0  0  0  0  0
  1  2  1  0
  2  3  1  0
  3  4  2  0
  4  5  1  0
  6  5  1  6
  6  7  1  0
  7  8  2  0
  8  9  1  0
  9 10  1  0
 10 11  1  6
 11 12  2  0
 12 13  1  0
 13 14  2  0
 14 15  1  0
 10 16  1  0
 16 17  1  0
 17 18  2  0
  8 19  1  0
 19 20  1  0
 20 21  2  0
 21 22  1  0
 22 23  1  0
 22 24  2  0
 24 25  1  0
  5 26  2  0
 26 27  1  0
 27 28  2  0
 28 29  1  0
 28  3  1  0
 25  6  1  0
 17  7  1  0
 25 20  1  0
 15 11  1  0
M  END
>  <Compound_ID>  (37) 
C18199745

>  <Active>  (37) 
0

>  <Smiles>  (37) 
COc1cc([C@@H]2C3=C(C[C@@H](c4cccs4)CC3=O)Nc3nc(N)nn32)ccc1O

>  <canonical_smi>  (37) 
COc1cc([C@@H]2C3=C(C[C@@H](c4cccs4)CC3=O)Nc3nc(N)nn32)ccc1O

>  <Set>  (37) 
G2 inactive

>  <Set_type>  (37) 
Train

>  <MW>  (37) 
409.47

>  <HBD>  (37) 
3

>  <HBA>  (37) 
7

>  <NRB>  (37) 
3

>  <NR>  (37) 
5

>  <NAR>  (37) 
3

>  <PSA>  (37) 
115.29

>  <Standard Type>  (37) 
nan

>  <Standard Relation>  (37) 
nan

>  <Standard Units>  (37) 
nan

>  <Standard Value>  (37) 
nan

>  <Assay ChEMBL ID>  (37) 
nan

>  <Assay Description>  (37) 
nan

>  <BAO Label>  (37) 
nan

$$$$

     RDKit          2D

 27 30  0  0  0  0  0  0  0  0999 V2000
   -2.1059    8.4010    0.0000 C   0  0  0  0  0  0  0  0  0  0  0  0
   -1.4958    7.0307    0.0000 C   0  0  0  0  0  0  0  0  0  0  0  0
   -0.1968    7.7807    0.0000 C   0  0  0  0  0  0  0  0  0  0  0  0
   -2.9224    6.5672    0.0000 O   0  0  0  0  0  0  0  0  0  0  0  0
   -2.9224    5.0672    0.0000 C   0  0  0  0  0  0  0  0  0  0  0  0
   -1.4958    4.6036    0.0000 C   0  0  0  0  0  0  0  0  0  0  0  0
   -1.0323    3.1771    0.0000 C   0  0  0  0  0  0  0  0  0  0  0  0
    0.3943    2.7135    0.0000 O   0  0  0  0  0  0  0  0  0  0  0  0
    0.3943    1.2135    0.0000 C   0  0  0  0  0  0  0  0  0  0  0  0
    1.2760    0.0000    0.0000 O   0  0  0  0  0  0  0  0  0  0  0  0
    0.3943   -1.2135    0.0000 C   0  0  0  0  0  0  0  0  0  0  0  0
    1.6933   -1.9635    0.0000 C   0  0  0  0  0  0  0  0  0  0  0  0
   -0.2158   -2.5838    0.0000 C   0  0  0  0  0  0  0  0  0  0  0  0
   -1.0323   -0.7500    0.0000 O   0  0  0  0  0  0  0  0  0  0  0  0
   -1.0323    0.7500    0.0000 C   0  0  0  0  0  0  0  0  0  0  0  0
   -1.9140    1.9635    0.0000 C   0  0  0  0  0  0  0  0  0  0  0  0
   -3.4140    1.9635    0.0000 N   0  0  0  0  0  0  0  0  0  0  0  0
   -4.1640    3.2626    0.0000 N   0  0  0  0  0  0  0  0  0  0  0  0
   -5.6640    3.2626    0.0000 C   0  0  0  0  0  0  0  0  0  0  0  0
   -6.4140    1.9635    0.0000 O   0  0  0  0  0  0  0  0  0  0  0  0
   -6.4140    4.5616    0.0000 C   0  0  0  0  0  0  0  0  0  0  0  0
   -5.6640    5.8606    0.0000 C   0  0  0  0  0  0  0  0  0  0  0  0
   -6.4140    7.1597    0.0000 C   0  0  0  0  0  0  0  0  0  0  0  0
   -7.9140    7.1597    0.0000 C   0  0  0  0  0  0  0  0  0  0  0  0
   -8.6640    5.8606    0.0000 C   0  0  0  0  0  0  0  0  0  0  0  0
   -7.9140    4.5616    0.0000 C   0  0  0  0  0  0  0  0  0  0  0  0
   -0.6141    5.8172    0.0000 O   0  0  0  0  0  0  0  0  0  0  0  0
  1  2  1  0
  2  3  1  0
  2  4  1  0
  4  5  1  0
  6  5  1  6
  6  7  1  0
  7  8  1  6
  9  8  1  1
  9 10  1  0
 10 11  1  0
 11 12  1  0
 11 13  1  0
 11 14  1  0
 15 14  1  6
 15 16  1  0
 16 17  2  0
 17 18  1  0
 18 19  1  0
 19 20  2  0
 19 21  1  0
 21 22  2  0
 22 23  1  0
 23 24  2  0
 24 25  1  0
 25 26  2  0
  6 27  1  0
 27  2  1  0
 16  7  1  0
 26 21  1  0
 15  9  1  0
M  END
>  <Compound_ID>  (38) 
C05705934

>  <Active>  (38) 
0

>  <Smiles>  (38) 
CC1(C)OC[C@@H]([C@@H]2O[C@H]3OC(C)(C)O[C@@H]3/C2=N/NC(=O)c2ccccc2)O1

>  <canonical_smi>  (38) 
CC1(C)OC[C@@H]([C@@H]2O[C@H]3OC(C)(C)O[C@@H]3/C2=N/NC(=O)c2ccccc2)O1

>  <Set>  (38) 
G2 inactive

>  <Set_type>  (38) 
Train

>  <MW>  (38) 
376.41

>  <HBD>  (38) 
1

>  <HBA>  (38) 
6

>  <NRB>  (38) 
3

>  <NR>  (38) 
4

>  <NAR>  (38) 
1

>  <PSA>  (38) 
87.61

>  <Standard Type>  (38) 
nan

>  <Standard Relation>  (38) 
nan

>  <Standard Units>  (38) 
nan

>  <Standard Value>  (38) 
nan

>  <Assay ChEMBL ID>  (38) 
nan

>  <Assay Description>  (38) 
nan

>  <BAO Label>  (38) 
nan

$$$$

     RDKit          2D

 33 37  0  0  0  0  0  0  0  0999 V2000
   11.5540  -11.4184    0.0000 N   0  0  0  0  0  0  0  0  0  0  0  0
   11.0905   -9.9918    0.0000 C   0  0  0  0  0  0  0  0  0  0  0  0
   12.0942   -8.8771    0.0000 O   0  0  0  0  0  0  0  0  0  0  0  0
    9.6233   -9.6799    0.0000 C   0  0  0  0  0  0  0  0  0  0  0  0
    8.6196  -10.7947    0.0000 C   0  0  0  0  0  0  0  0  0  0  0  0
    7.1523  -10.4828    0.0000 C   0  0  0  0  0  0  0  0  0  0  0  0
    6.6888   -9.0562    0.0000 N   0  0  0  0  0  0  0  0  0  0  0  0
    5.2216   -8.7443    0.0000 C   0  0  0  0  0  0  0  0  0  0  0  0
    4.2179   -9.8591    0.0000 O   0  0  0  0  0  0  0  0  0  0  0  0
    4.7581   -7.3178    0.0000 C   0  0  0  0  0  0  0  0  0  0  0  0
    3.2909   -7.0059    0.0000 O   0  0  0  0  0  0  0  0  0  0  0  0
    2.8273   -5.5793    0.0000 C   0  0  0  0  0  0  0  0  0  0  0  0
    3.8310   -4.4646    0.0000 O   0  0  0  0  0  0  0  0  0  0  0  0
    1.3601   -5.2674    0.0000 C   0  0  0  0  0  0  0  0  0  0  0  0
    0.2454   -6.2711    0.0000 C   0  0  0  0  0  0  0  0  0  0  0  0
   -1.0537   -5.5211    0.0000 C   0  0  0  0  0  0  0  0  0  0  0  0
   -2.4240   -6.1312    0.0000 O   0  0  0  0  0  0  0  0  0  0  0  0
   -0.7418   -4.0539    0.0000 C   0  0  0  0  0  0  0  0  0  0  0  0
    0.7500   -3.8971    0.0000 N   0  0  0  0  0  0  0  0  0  0  0  0
    1.5000   -2.5981    0.0000 C   0  0  0  0  0  0  0  0  0  0  0  0
    3.0000   -2.5981    0.0000 O   0  0  0  0  0  0  0  0  0  0  0  0
    0.7500   -1.2990    0.0000 C   0  0  0  0  0  0  0  0  0  0  0  0
    1.5000    0.0000    0.0000 C   0  0  0  0  0  0  0  0  0  0  0  0
    0.7500    1.2990    0.0000 C   0  0  0  0  0  0  0  0  0  0  0  0
   -0.7500    1.2990    0.0000 C   0  0  0  0  0  0  0  0  0  0  0  0
   -1.5000    0.0000    0.0000 C   0  0  0  0  0  0  0  0  0  0  0  0
    1.7010   -0.7500    0.0000 C   0  0  0  0  0  0  0  0  0  0  0  0
    3.0000   -0.0000    0.0000 C   0  0  0  0  0  0  0  0  0  0  0  0
    2.2500    1.2990    0.0000 C   0  0  0  0  0  0  0  0  0  0  0  0
    2.2500   -1.2990    0.0000 C   0  0  0  0  0  0  0  0  0  0  0  0
   -0.7500   -1.2990    0.0000 C   0  0  0  0  0  0  0  0  0  0  0  0
    7.6925   -7.9415    0.0000 C   0  0  0  0  0  0  0  0  0  0  0  0
    9.1597   -8.2534    0.0000 C   0  0  0  0  0  0  0  0  0  0  0  0
  1  2  1  0
  2  3  2  0
  2  4  1  0
  4  5  1  0
  5  6  1  0
  6  7  1  0
  7  8  1  0
  8  9  2  0
  8 10  1  0
 10 11  1  0
 11 12  1  0
 12 13  2  0
 14 12  1  1
 14 15  1  0
 15 16  1  0
 16 17  1  6
 16 18  1  0
 18 19  1  0
 19 20  1  0
 20 21  2  0
 20 22  1  0
 22 23  1  0
 23 24  1  0
 24 25  1  0
 25 26  1  0
 26 27  1  0
 27 28  1  0
 28 29  1  0
 28 30  1  0
 26 31  1  0
  7 32  1  0
 32 33  1  0
 33  4  1  0
 19 14  1  0
 30 22  1  0
 31 22  1  0
 29 24  1  0
M  END
>  <Compound_ID>  (39) 
C32830076

>  <Active>  (39) 
0

>  <Smiles>  (39) 
NC(=O)C1CCN(C(=O)COC(=O)[C@H]2C[C@H](O)CN2C(=O)C23CC4CC(CC(C4)C2)C3)CC1

>  <canonical_smi>  (39) 
NC(=O)C1CCN(C(=O)COC(=O)[C@H]2C[C@H](O)CN2C(=O)C23CC4CC(CC(C4)C2)C3)CC1

>  <Set>  (39) 
G2 inactive

>  <Set_type>  (39) 
Train

>  <MW>  (39) 
461.56

>  <HBD>  (39) 
2

>  <HBA>  (39) 
6

>  <NRB>  (39) 
5

>  <NR>  (39) 
6

>  <NAR>  (39) 
0

>  <PSA>  (39) 
130.24

>  <Standard Type>  (39) 
nan

>  <Standard Relation>  (39) 
nan

>  <Standard Units>  (39) 
nan

>  <Standard Value>  (39) 
nan

>  <Assay ChEMBL ID>  (39) 
nan

>  <Assay Description>  (39) 
nan

>  <BAO Label>  (39) 
nan

$$$$

     RDKit          2D

 31 33  0  0  0  0  0  0  0  0999 V2000
   -5.7613   -0.4303    0.0000 C   0  0  0  0  0  0  0  0  0  0  0  0
   -6.7816   -1.5299    0.0000 C   0  0  0  0  0  0  0  0  0  0  0  0
   -7.8019   -2.6295    0.0000 C   0  0  0  0  0  0  0  0  0  0  0  0
   -7.8812   -0.5096    0.0000 C   0  0  0  0  0  0  0  0  0  0  0  0
   -5.6820   -2.5501    0.0000 O   0  0  0  0  0  0  0  0  0  0  0  0
   -6.0158   -4.0125    0.0000 C   0  0  0  0  0  0  0  0  0  0  0  0
   -7.4492   -4.4547    0.0000 O   0  0  0  0  0  0  0  0  0  0  0  0
   -4.9162   -5.0328    0.0000 N   0  0  0  0  0  0  0  0  0  0  0  0
   -5.2500   -6.4952    0.0000 C   0  0  0  0  0  0  0  0  0  0  0  0
   -3.7500   -6.4952    0.0000 C   0  0  0  0  0  0  0  0  0  0  0  0
   -3.0000   -5.1962    0.0000 N   0  0  0  0  0  0  0  0  0  0  0  0
   -1.5000   -5.1962    0.0000 C   0  0  0  0  0  0  0  0  0  0  0  0
   -0.7500   -6.4952    0.0000 O   0  0  0  0  0  0  0  0  0  0  0  0
   -0.7500   -3.8971    0.0000 C   0  0  0  0  0  0  0  0  0  0  0  0
   -1.5000   -2.5981    0.0000 C   0  0  0  0  0  0  0  0  0  0  0  0
   -0.7500   -1.2990    0.0000 C   0  0  0  0  0  0  0  0  0  0  0  0
    0.7500   -1.2990    0.0000 C   0  0  0  0  0  0  0  0  0  0  0  0
    1.5000   -2.5981    0.0000 N   0  0  0  0  0  0  0  0  0  0  0  0
    0.7500   -3.8971    0.0000 C   0  0  0  0  0  0  0  0  0  0  0  0
    1.5000   -5.1962    0.0000 O   0  0  0  0  0  0  0  0  0  0  0  0
    1.5000    0.0000    0.0000 C   0  0  0  0  0  0  0  0  0  0  0  0
    0.7500    1.2990    0.0000 C   0  0  0  0  0  0  0  0  0  0  0  0
   -0.7500    1.2990    0.0000 C   0  0  0  0  0  0  0  0  0  0  0  0
   -1.5000    0.0000    0.0000 C   0  0  0  0  0  0  0  0  0  0  0  0
   -3.0000    0.0000    0.0000 O   0  0  0  0  0  0  0  0  0  0  0  0
   -6.6015   -5.8444    0.0000 C   0  0  0  0  0  0  0  0  0  0  0  0
   -7.9529   -6.4952    0.0000 C   0  0  0  0  0  0  0  0  0  0  0  0
   -8.2867   -7.9576    0.0000 C   0  0  0  0  0  0  0  0  0  0  0  0
   -7.3515   -9.1303    0.0000 C   0  0  0  0  0  0  0  0  0  0  0  0
   -5.8515   -9.1303    0.0000 C   0  0  0  0  0  0  0  0  0  0  0  0
   -4.9162   -7.9576    0.0000 C   0  0  0  0  0  0  0  0  0  0  0  0
  1  2  1  0
  2  3  1  0
  2  4  1  0
  2  5  1  0
  5  6  1  0
  6  7  2  0
  6  8  1  0
  8  9  1  0
  9 10  1  0
 10 11  1  0
 11 12  1  0
 12 13  2  0
 12 14  1  0
 14 15  2  0
 15 16  1  0
 16 17  2  0
 17 18  1  0
 18 19  1  0
 19 20  2  0
 17 21  1  0
 21 22  1  0
 22 23  1  0
 23 24  1  0
 24 25  2  0
  9 26  1  0
 26 27  1  0
 27 28  1  0
 28 29  1  0
 29 30  1  0
 30 31  1  0
 31  9  1  0
 19 14  1  0
 24 16  1  0
M  END
>  <Compound_ID>  (40) 
C24496285

>  <Active>  (40) 
0

>  <Smiles>  (40) 
CC(C)(C)OC(=O)NC1(CNC(=O)c2cc3c([nH]c2=O)CCCC3=O)CCCCCC1

>  <canonical_smi>  (40) 
CC(C)(C)OC(=O)NC1(CNC(=O)c2cc3c([nH]c2=O)CCCC3=O)CCCCCC1

>  <Set>  (40) 
G2 inactive

>  <Set_type>  (40) 
Train

>  <MW>  (40) 
431.53

>  <HBD>  (40) 
3

>  <HBA>  (40) 
5

>  <NRB>  (40) 
4

>  <NR>  (40) 
3

>  <NAR>  (40) 
1

>  <PSA>  (40) 
117.36

>  <Standard Type>  (40) 
nan

>  <Standard Relation>  (40) 
nan

>  <Standard Units>  (40) 
nan

>  <Standard Value>  (40) 
nan

>  <Assay ChEMBL ID>  (40) 
nan

>  <Assay Description>  (40) 
nan

>  <BAO Label>  (40) 
nan

$$$$

     RDKit          2D

 24 28  0  0  0  0  0  0  0  0999 V2000
  -11.3632   -8.4013    0.0000 C   0  0  0  0  0  0  0  0  0  0  0  0
  -10.2485   -7.3976    0.0000 C   0  0  0  0  0  0  0  0  0  0  0  0
   -8.7813   -7.7095    0.0000 C   0  0  0  0  0  0  0  0  0  0  0  0
   -8.0313   -6.4104    0.0000 C   0  0  0  0  0  0  0  0  0  0  0  0
   -6.5395   -6.2536    0.0000 C   0  0  0  0  0  0  0  0  0  0  0  0
   -5.7895   -4.9546    0.0000 N   0  0  0  0  0  0  0  0  0  0  0  0
   -4.3223   -5.2665    0.0000 N   0  0  0  0  0  0  0  0  0  0  0  0
   -2.9520   -4.6564    0.0000 C   0  0  0  0  0  0  0  0  0  0  0  0
   -2.6401   -3.1891    0.0000 C   0  0  0  0  0  0  0  0  0  0  0  0
   -1.2135   -2.7256    0.0000 N   0  0  0  0  0  0  0  0  0  0  0  0
   -0.0000   -3.6073    0.0000 C   0  0  0  0  0  0  0  0  0  0  0  0
    1.2135   -2.7256    0.0000 N   0  0  0  0  0  0  0  0  0  0  0  0
    0.7500   -1.2990    0.0000 C   0  0  0  0  0  0  0  0  0  0  0  0
    1.5000    0.0000    0.0000 C   0  0  0  0  0  0  0  0  0  0  0  0
    0.7500    1.2990    0.0000 C   0  0  0  0  0  0  0  0  0  0  0  0
   -0.7500    1.2990    0.0000 C   0  0  0  0  0  0  0  0  0  0  0  0
   -1.5000    0.0000    0.0000 C   0  0  0  0  0  0  0  0  0  0  0  0
   -0.7500   -1.2990    0.0000 C   0  0  0  0  0  0  0  0  0  0  0  0
   -1.9483   -5.7711    0.0000 N   0  0  0  0  0  0  0  0  0  0  0  0
   -2.6983   -7.0701    0.0000 N   0  0  0  0  0  0  0  0  0  0  0  0
   -4.1655   -6.7583    0.0000 C   0  0  0  0  0  0  0  0  0  0  0  0
   -5.5358   -7.3684    0.0000 S   0  0  0  0  0  0  0  0  0  0  0  0
   -9.0350   -5.2957    0.0000 N   0  0  0  0  0  0  0  0  0  0  0  0
  -10.4053   -5.9058    0.0000 N   0  0  0  0  0  0  0  0  0  0  0  0
  1  2  1  0
  2  3  2  0
  4  3  1  1
  4  5  1  0
  5  6  1  1
  6  7  1  0
  7  8  1  0
  8  9  1  0
  9 10  1  0
 10 11  1  0
 11 12  2  0
 12 13  1  0
 13 14  2  0
 14 15  1  0
 15 16  2  0
 16 17  1  0
 17 18  2  0
  8 19  2  0
 19 20  1  0
 20 21  2  0
 21 22  1  0
  4 23  1  0
 23 24  2  0
 24  2  1  0
 22  5  1  0
 21  7  1  0
 18 10  1  0
 18 13  1  0
M  END
>  <Compound_ID>  (41) 
C38744284

>  <Active>  (41) 
0

>  <Smiles>  (41) 
CC1=C[C@H]([C@H]2Nn3c(Cn4cnc5ccccc54)nnc3S2)N=N1

>  <canonical_smi>  (41) 
CC1=C[C@H]([C@H]2Nn3c(Cn4cnc5ccccc54)nnc3S2)N=N1

>  <Set>  (41) 
G2 inactive

>  <Set_type>  (41) 
Train

>  <MW>  (41) 
338.4

>  <HBD>  (41) 
1

>  <HBA>  (41) 
5

>  <NRB>  (41) 
3

>  <NR>  (41) 
5

>  <NAR>  (41) 
3

>  <PSA>  (41) 
85.28

>  <Standard Type>  (41) 
nan

>  <Standard Relation>  (41) 
nan

>  <Standard Units>  (41) 
nan

>  <Standard Value>  (41) 
nan

>  <Assay ChEMBL ID>  (41) 
nan

>  <Assay Description>  (41) 
nan

>  <BAO Label>  (41) 
nan

$$$$

     RDKit          2D

 36 39  0  0  0  0  0  0  0  0999 V2000
    3.7500   -1.2990    0.0000 C   0  0  0  0  0  0  0  0  0  0  0  0
    3.0000    0.0000    0.0000 O   0  0  0  0  0  0  0  0  0  0  0  0
    1.5000    0.0000    0.0000 C   0  0  0  0  0  0  0  0  0  0  0  0
    0.7500   -1.2990    0.0000 C   0  0  0  0  0  0  0  0  0  0  0  0
   -0.7500   -1.2990    0.0000 C   0  0  0  0  0  0  0  0  0  0  0  0
   -1.5000    0.0000    0.0000 C   0  0  0  0  0  0  0  0  0  0  0  0
   -3.0000    0.0000    0.0000 C   0  0  0  0  0  0  0  0  0  0  0  0
   -3.7500    1.2990    0.0000 N   0  0  0  0  0  4  0  0  0  0  0  0
   -5.2418    1.4558    0.0000 C   0  0  0  0  0  0  0  0  0  0  0  0
   -5.5537    2.9231    0.0000 C   0  0  0  0  0  0  0  0  0  0  0  0
   -6.9240    3.5332    0.0000 C   0  0  0  0  0  0  0  0  0  0  0  0
   -8.1375    2.6515    0.0000 N   0  0  0  0  0  0  0  0  0  0  0  0
   -7.9807    1.1597    0.0000 C   0  0  0  0  0  0  0  0  0  0  0  0
   -6.6104    0.5496    0.0000 O   0  0  0  0  0  0  0  0  0  0  0  0
   -9.1942    0.2780    0.0000 C   0  0  0  0  0  0  0  0  0  0  0  0
   -9.0374   -1.2138    0.0000 C   0  0  0  0  0  0  0  0  0  0  0  0
  -10.2510   -2.0954    0.0000 C   0  0  0  0  0  0  0  0  0  0  0  0
  -11.6213   -1.4853    0.0000 C   0  0  0  0  0  0  0  0  0  0  0  0
  -12.8348   -2.3670    0.0000 F   0  0  0  0  0  0  0  0  0  0  0  0
  -11.7781    0.0064    0.0000 C   0  0  0  0  0  0  0  0  0  0  0  0
  -10.5645    0.8881    0.0000 C   0  0  0  0  0  0  0  0  0  0  0  0
   -9.5078    3.2616    0.0000 C   0  0  0  0  0  0  0  0  0  0  0  0
  -10.7213    2.3799    0.0000 C   0  0  0  0  0  0  0  0  0  0  0  0
   -9.6646    4.7534    0.0000 C   0  0  0  0  0  0  0  0  0  0  0  0
   -4.2546    3.6731    0.0000 C   0  0  0  0  0  0  0  0  0  0  0  0
   -4.0978    5.1648    0.0000 C   0  0  0  0  0  0  0  0  0  0  0  0
   -2.7275    5.7749    0.0000 C   0  0  0  0  0  0  0  0  0  0  0  0
   -2.5707    7.2667    0.0000 C   0  0  0  0  0  0  0  0  0  0  0  0
   -3.7842    8.1484    0.0000 C   0  0  0  0  0  0  0  0  0  0  0  0
   -5.1546    7.5383    0.0000 C   0  0  0  0  0  0  0  0  0  0  0  0
   -5.3113    6.0465    0.0000 C   0  0  0  0  0  0  0  0  0  0  0  0
   -6.6817    5.4364    0.0000 C   0  0  0  0  0  0  0  0  0  0  0  0
   -3.1399    2.6694    0.0000 C   0  0  0  0  0  0  0  0  0  0  0  0
   -0.7500    1.2990    0.0000 C   0  0  0  0  0  0  0  0  0  0  0  0
   -1.5000    2.5981    0.0000 O   0  0  0  0  0  0  0  0  0  0  0  0
    0.7500    1.2990    0.0000 C   0  0  0  0  0  0  0  0  0  0  0  0
  1  2  1  0
  2  3  1  0
  3  4  2  0
  4  5  1  0
  5  6  2  0
  6  7  1  0
  7  8  1  0
  8  9  1  0
  9 10  1  0
 10 11  1  6
 11 12  1  0
 12 13  1  0
 13 14  2  0
 13 15  1  0
 15 16  2  0
 16 17  1  0
 17 18  2  0
 18 19  1  0
 18 20  1  0
 20 21  2  0
 12 22  1  0
 22 23  1  0
 22 24  1  0
 10 25  1  0
 25 26  1  1
 26 27  2  0
 27 28  1  0
 28 29  2  0
 29 30  1  0
 30 31  2  0
 31 32  1  0
 25 33  1  0
  6 34  1  0
 34 35  1  0
 34 36  2  0
 36  3  1  0
 33  8  1  0
 21 15  1  0
 31 26  1  0
M  CHG  1   8   1
M  END
>  <Compound_ID>  (42) 
C34698773

>  <Active>  (42) 
0

>  <Smiles>  (42) 
COc1ccc(C[NH+]2C[C@H](CN(C(=O)c3ccc(F)cc3)C(C)C)[C@@H](c3ccccc3C)C2)c(O)c1

>  <canonical_smi>  (42) 
COc1ccc(C[NH+]2C[C@H](CN(C(=O)c3ccc(F)cc3)C(C)C)[C@@H](c3ccccc3C)C2)c(O)c1

>  <Set>  (42) 
G2 inactive

>  <Set_type>  (42) 
Train

>  <MW>  (42) 
491.63

>  <HBD>  (42) 
2

>  <HBA>  (42) 
3

>  <NRB>  (42) 
8

>  <NR>  (42) 
4

>  <NAR>  (42) 
3

>  <PSA>  (42) 
54.21

>  <Standard Type>  (42) 
nan

>  <Standard Relation>  (42) 
nan

>  <Standard Units>  (42) 
nan

>  <Standard Value>  (42) 
nan

>  <Assay ChEMBL ID>  (42) 
nan

>  <Assay Description>  (42) 
nan

>  <BAO Label>  (42) 
nan

$$$$

     RDKit          2D

 34 37  0  0  0  0  0  0  0  0999 V2000
    5.2500   -3.8971    0.0000 C   0  0  0  0  0  0  0  0  0  0  0  0
    3.7500   -3.8971    0.0000 C   0  0  0  0  0  0  0  0  0  0  0  0
    3.0000   -2.5981    0.0000 C   0  0  0  0  0  0  0  0  0  0  0  0
    1.5000   -2.5981    0.0000 C   0  0  0  0  0  0  0  0  0  0  0  0
    0.7500   -1.2990    0.0000 C   0  0  0  0  0  0  0  0  0  0  0  0
    2.2500   -1.2990    0.0000 C   0  0  0  0  0  0  0  0  0  0  0  0
    1.5000    0.0000    0.0000 C   0  0  0  0  0  0  0  0  0  0  0  0
    0.7500    1.2990    0.0000 C   0  0  0  0  0  0  0  0  0  0  0  0
   -0.7500    1.2990    0.0000 C   0  0  0  0  0  0  0  0  0  0  0  0
   -1.5000    2.5981    0.0000 O   0  0  0  0  0  0  0  0  0  0  0  0
   -1.5000    0.0000    0.0000 C   0  0  0  0  0  0  0  0  0  0  0  0
   -2.6491   -0.9642    0.0000 C   0  0  0  0  0  0  0  0  0  0  0  0
   -2.6491    0.9642    0.0000 C   0  0  0  0  0  0  0  0  0  0  0  0
   -0.7500   -1.2990    0.0000 C   0  0  0  0  0  0  0  0  0  0  0  0
   -1.5000   -2.5981    0.0000 C   0  0  0  0  0  0  0  0  0  0  0  0
   -3.0000   -2.5981    0.0000 O   0  0  0  0  0  0  0  0  0  0  0  0
   -0.7500   -3.8971    0.0000 C   0  0  0  0  0  0  0  0  0  0  0  0
   -1.5000   -5.1962    0.0000 O   0  0  0  0  0  0  0  0  0  0  0  0
    0.7500   -3.8971    0.0000 C   0  0  0  0  0  0  0  0  0  0  0  0
   -0.0000   -5.1962    0.0000 C   0  0  0  0  0  0  0  0  0  0  0  0
    1.5000   -5.1962    0.0000 C   0  0  0  0  0  0  0  0  0  0  0  0
    2.2500   -3.8971    0.0000 C   0  0  0  0  0  0  0  0  0  0  0  0
    2.0303   -3.1308    0.0000 O   0  0  0  0  0  0  0  0  0  0  0  0
    3.7500   -3.8971    0.0000 O   0  0  0  0  0  0  0  0  0  0  0  0
    4.5000   -2.5981    0.0000 C   0  0  0  0  0  0  0  0  0  0  0  0
    0.7500   -6.4952    0.0000 C   0  0  0  0  0  0  0  0  0  0  0  0
   -0.7500   -6.4952    0.0000 O   0  0  0  0  0  0  0  0  0  0  0  0
    1.5000   -7.7942    0.0000 C   0  0  0  0  0  0  0  0  0  0  0  0
    0.7500   -9.0933    0.0000 C   0  0  0  0  0  0  0  0  0  0  0  0
    3.0000   -7.7942    0.0000 O   0  0  0  0  0  0  0  0  0  0  0  0
    3.7500   -6.4952    0.0000 C   0  0  0  0  0  0  0  0  0  0  0  0
    5.2500   -6.4952    0.0000 O   0  0  0  0  0  0  0  0  0  0  0  0
    3.0000   -5.1962    0.0000 C   0  0  0  0  0  0  0  0  0  0  0  0
    4.5000   -5.1962    0.0000 C   0  0  0  0  0  0  0  0  0  0  0  0
  1  2  2  0
  2  3  1  0
  4  3  1  6
  4  5  1  0
  5  6  1  1
  5  7  1  0
  7  8  2  0
  8  9  1  0
  9 10  2  0
  9 11  1  0
 11 12  1  0
 11 13  1  0
 11 14  1  0
 14 15  2  0
 15 16  1  0
 15 17  1  0
 17 18  2  0
 17 19  1  0
 19 20  1  1
 19 21  1  0
 21 22  1  6
 22 23  2  0
 22 24  1  0
 24 25  1  0
 21 26  1  0
 26 27  2  0
 26 28  1  0
 28 29  1  6
 28 30  1  0
 30 31  1  0
 31 32  2  0
 31 33  1  0
 33 34  1  1
 33  2  1  0
 19  4  1  0
 33 21  1  0
 14  5  1  0
M  END
>  <Compound_ID>  (43) 
C35270677

>  <Active>  (43) 
0

>  <Smiles>  (43) 
C=C1C[C@H]2[C@@]3(C)C=CC(=O)C(C)(C)C3=C(O)C(=O)[C@@]2(C)[C@]2(C(=O)OC)C(=O)[C@@H](C)OC(=O)[C@@]12C

>  <canonical_smi>  (43) 
C=C1C[C@H]2[C@@]3(C)C=CC(=O)C(C)(C)C3=C(O)C(=O)[C@@]2(C)[C@]2(C(=O)OC)C(=O)[C@@H](C)OC(=O)[C@@]12C

>  <Set>  (43) 
G2 inactive

>  <Set_type>  (43) 
Train

>  <MW>  (43) 
470.52

>  <HBD>  (43) 
1

>  <HBA>  (43) 
8

>  <NRB>  (43) 
1

>  <NR>  (43) 
4

>  <NAR>  (43) 
0

>  <PSA>  (43) 
124.04

>  <Standard Type>  (43) 
nan

>  <Standard Relation>  (43) 
nan

>  <Standard Units>  (43) 
nan

>  <Standard Value>  (43) 
nan

>  <Assay ChEMBL ID>  (43) 
nan

>  <Assay Description>  (43) 
nan

>  <BAO Label>  (43) 
nan

$$$$

     RDKit          2D

 34 38  0  0  0  0  0  0  0  0999 V2000
    2.6401   -3.1891    0.0000 O   0  0  0  0  0  0  0  0  0  0  0  0
    1.2135   -2.7256    0.0000 C   0  0  0  0  0  0  0  0  0  0  0  0
    0.7500   -1.2990    0.0000 C   0  0  0  0  0  0  0  0  0  0  0  0
    1.5000    0.0000    0.0000 C   0  0  0  0  0  0  0  0  0  0  0  0
    0.7500    1.2990    0.0000 C   0  0  0  0  0  0  0  0  0  0  0  0
    1.5000    2.5981    0.0000 S   0  0  0  0  0  0  0  0  0  0  0  0
    2.7990    1.8481    0.0000 O   0  0  0  0  0  0  0  0  0  0  0  0
    0.2010    3.3481    0.0000 O   0  0  0  0  0  0  0  0  0  0  0  0
    2.2500    3.8971    0.0000 N   0  0  0  0  0  0  0  0  0  0  0  0
    1.5000    5.1962    0.0000 C   0  0  0  0  0  0  0  0  0  0  0  0
    2.2500    6.4952    0.0000 C   0  0  0  0  0  0  0  0  0  0  0  0
    1.5000    7.7942    0.0000 C   0  0  0  0  0  0  0  0  0  0  0  0
    0.0000    7.7942    0.0000 C   0  0  0  0  0  0  0  0  0  0  0  0
   -0.7500    6.4952    0.0000 C   0  0  0  0  0  0  0  0  0  0  0  0
    0.0000    5.1962    0.0000 N   0  0  0  0  0  0  0  0  0  0  0  0
   -0.7500    1.2990    0.0000 C   0  0  0  0  0  0  0  0  0  0  0  0
   -1.5000    0.0000    0.0000 C   0  0  0  0  0  0  0  0  0  0  0  0
   -0.7500   -1.2990    0.0000 C   0  0  0  0  0  0  0  0  0  0  0  0
   -1.2135   -2.7256    0.0000 C   0  0  0  0  0  0  0  0  0  0  0  0
   -2.5838   -3.3357    0.0000 C   0  0  0  0  0  0  0  0  0  0  0  0
   -2.7406   -4.8275    0.0000 C   0  0  0  0  0  0  0  0  0  0  0  0
   -1.5271   -5.7092    0.0000 C   0  0  0  0  0  0  0  0  0  0  0  0
   -1.6839   -7.2010    0.0000 S   0  0  0  0  0  0  0  0  0  0  0  0
   -3.1757   -7.0442    0.0000 O   0  0  0  0  0  0  0  0  0  0  0  0
   -0.1921   -7.3578    0.0000 O   0  0  0  0  0  0  0  0  0  0  0  0
   -1.8407   -8.6928    0.0000 N   0  0  0  0  0  0  0  0  0  0  0  0
   -0.6272   -9.5744    0.0000 C   0  0  0  0  0  0  0  0  0  0  0  0
   -0.7840  -11.0662    0.0000 C   0  0  0  0  0  0  0  0  0  0  0  0
    0.4296  -11.9479    0.0000 C   0  0  0  0  0  0  0  0  0  0  0  0
    1.7999  -11.3378    0.0000 C   0  0  0  0  0  0  0  0  0  0  0  0
    1.9567   -9.8460    0.0000 C   0  0  0  0  0  0  0  0  0  0  0  0
    0.7431   -8.9643    0.0000 N   0  0  0  0  0  0  0  0  0  0  0  0
   -0.1568   -5.0991    0.0000 C   0  0  0  0  0  0  0  0  0  0  0  0
   -0.0000   -3.6073    0.0000 C   0  0  0  0  0  0  0  0  0  0  0  0
  1  2  2  0
  2  3  1  0
  3  4  2  0
  4  5  1  0
  5  6  1  0
  6  7  2  0
  6  8  2  0
  6  9  1  0
  9 10  2  0
 10 11  1  0
 11 12  2  0
 12 13  1  0
 13 14  2  0
 14 15  1  0
  5 16  2  0
 16 17  1  0
 17 18  2  0
 18 19  1  0
 19 20  2  0
 20 21  1  0
 21 22  2  0
 22 23  1  0
 23 24  2  0
 23 25  2  0
 23 26  1  0
 26 27  1  0
 27 28  2  0
 28 29  1  0
 29 30  2  0
 30 31  1  0
 31 32  2  0
 22 33  1  0
 33 34  2  0
 34  2  1  0
 18  3  1  0
 34 19  1  0
 15 10  1  0
 32 27  1  0
M  END
>  <Compound_ID>  (44) 
C04486464

>  <Active>  (44) 
0

>  <Smiles>  (44) 
O=C1c2cc(S(=O)(=O)/N=c3/cccc[nH]3)ccc2-c2ccc(S(=O)(=O)Nc3ccccn3)cc21

>  <canonical_smi>  (44) 
O=C1c2cc(S(=O)(=O)/N=c3/cccc[nH]3)ccc2-c2ccc(S(=O)(=O)Nc3ccccn3)cc21

>  <Set>  (44) 
G2 inactive

>  <Set_type>  (44) 
Train

>  <MW>  (44) 
492.54

>  <HBD>  (44) 
2

>  <HBA>  (44) 
6

>  <NRB>  (44) 
5

>  <NR>  (44) 
5

>  <NAR>  (44) 
5

>  <PSA>  (44) 
138.42

>  <Standard Type>  (44) 
nan

>  <Standard Relation>  (44) 
nan

>  <Standard Units>  (44) 
nan

>  <Standard Value>  (44) 
nan

>  <Assay ChEMBL ID>  (44) 
nan

>  <Assay Description>  (44) 
nan

>  <BAO Label>  (44) 
nan

$$$$

     RDKit          2D

 34 37  0  0  0  0  0  0  0  0999 V2000
    5.2500    6.4952    0.0000 O   0  0  0  0  0  0  0  0  0  0  0  0
    6.0000    5.1962    0.0000 C   0  0  0  0  0  0  0  0  0  0  0  0
    7.5000    5.1962    0.0000 C   0  0  0  0  0  0  0  0  0  0  0  0
    8.2500    3.8971    0.0000 C   0  0  0  0  0  0  0  0  0  0  0  0
    7.5000    2.5981    0.0000 C   0  0  0  0  0  0  0  0  0  0  0  0
    6.0000    2.5981    0.0000 C   0  0  0  0  0  0  0  0  0  0  0  0
    5.2500    3.8971    0.0000 C   0  0  0  0  0  0  0  0  0  0  0  0
    3.7500    3.8971    0.0000 C   0  0  0  0  0  0  0  0  0  0  0  0
    3.0000    2.5981    0.0000 N   0  0  0  0  0  4  0  0  0  0  0  0
    3.7500    1.2990    0.0000 C   0  0  0  0  0  0  0  0  0  0  0  0
    5.2500    1.2990    0.0000 C   0  0  0  0  0  0  0  0  0  0  0  0
    6.0000   -0.0000    0.0000 C   0  0  0  0  0  0  0  0  0  0  0  0
    7.5000   -0.0000    0.0000 C   0  0  0  0  0  0  0  0  0  0  0  0
    8.2500    1.2990    0.0000 C   0  0  0  0  0  0  0  0  0  0  0  0
    7.5000    2.5981    0.0000 C   0  0  0  0  0  0  0  0  0  0  0  0
    6.0000    2.5981    0.0000 C   0  0  0  0  0  0  0  0  0  0  0  0
    5.5866    4.0400    0.0000 O   0  0  0  0  0  0  0  0  0  0  0  0
    3.0000    0.0000    0.0000 C   0  0  0  0  0  0  0  0  0  0  0  0
    1.5000    0.0000    0.0000 N   0  0  0  0  0  0  0  0  0  0  0  0
    0.7500   -1.2990    0.0000 C   0  0  0  0  0  0  0  0  0  0  0  0
   -0.7500   -1.2990    0.0000 C   0  0  0  0  0  0  0  0  0  0  0  0
   -1.5000   -0.0000    0.0000 C   0  0  0  0  0  0  0  0  0  0  0  0
   -3.0000   -0.0000    0.0000 C   0  0  0  0  0  0  0  0  0  0  0  0
   -3.7500   -1.2990    0.0000 C   0  0  0  0  0  0  0  0  0  0  0  0
   -3.0000   -2.5981    0.0000 C   0  0  0  0  0  0  0  0  0  0  0  0
   -1.5000   -2.5981    0.0000 C   0  0  0  0  0  0  0  0  0  0  0  0
   -0.7500   -3.8971    0.0000 O   0  0  0  0  0  0  0  0  0  0  0  0
    3.7500   -1.2990    0.0000 C   0  0  0  0  0  0  0  0  0  0  0  0
    3.0000   -2.5981    0.0000 C   0  0  0  0  0  0  0  0  0  0  0  0
    3.7500   -3.8971    0.0000 C   0  0  0  0  0  0  0  0  0  0  0  0
    5.2500   -3.8971    0.0000 C   0  0  0  0  0  0  0  0  0  0  0  0
    6.0000   -2.5981    0.0000 C   0  0  0  0  0  0  0  0  0  0  0  0
    5.2500   -1.2990    0.0000 C   0  0  0  0  0  0  0  0  0  0  0  0
    6.2920   -0.2201    0.0000 O   0  0  0  0  0  0  0  0  0  0  0  0
  1  2  1  0
  2  3  2  0
  3  4  1  0
  4  5  2  0
  5  6  1  0
  6  7  2  0
  7  8  1  0
  8  9  2  0
  9 10  1  0
 10 11  1  1
 11 12  2  0
 12 13  1  0
 13 14  2  0
 14 15  1  0
 15 16  2  0
 16 17  1  0
 10 18  1  0
 18 19  1  0
 19 20  2  0
 20 21  1  0
 21 22  2  0
 22 23  1  0
 23 24  2  0
 24 25  1  0
 25 26  2  0
 26 27  1  0
 18 28  1  1
 28 29  2  0
 29 30  1  0
 30 31  2  0
 31 32  1  0
 32 33  2  0
 33 34  1  0
  7  2  1  0
 16 11  1  0
 26 21  1  0
 33 28  1  0
M  CHG  1   9   1
M  END
>  <Compound_ID>  (45) 
C18042926

>  <Active>  (45) 
0

>  <Smiles>  (45) 
Oc1ccccc1/C=[NH+]\[C@@H](c1ccccc1O)[C@H](/N=C/c1ccccc1O)c1ccccc1O

>  <canonical_smi>  (45) 
Oc1ccccc1/C=[NH+]\[C@@H](c1ccccc1O)[C@H](/N=C/c1ccccc1O)c1ccccc1O

>  <Set>  (45) 
G2 inactive

>  <Set_type>  (45) 
Train

>  <MW>  (45) 
453.52

>  <HBD>  (45) 
5

>  <HBA>  (45) 
4

>  <NRB>  (45) 
7

>  <NR>  (45) 
4

>  <NAR>  (45) 
4

>  <PSA>  (45) 
107.25

>  <Standard Type>  (45) 
nan

>  <Standard Relation>  (45) 
nan

>  <Standard Units>  (45) 
nan

>  <Standard Value>  (45) 
nan

>  <Assay ChEMBL ID>  (45) 
nan

>  <Assay Description>  (45) 
nan

>  <BAO Label>  (45) 
nan

$$$$

     RDKit          2D

 33 37  0  0  0  0  0  0  0  0999 V2000
    3.0000   -5.1962    0.0000 O   0  0  0  0  0  0  0  0  0  0  0  0
    1.5000   -5.1962    0.0000 C   0  0  0  0  0  0  0  0  0  0  0  0
    0.7500   -6.4952    0.0000 N   0  0  0  0  0  0  0  0  0  0  0  0
    1.5000   -7.7942    0.0000 C   0  0  0  0  0  0  0  0  0  0  0  0
    0.7500   -9.0933    0.0000 C   0  0  0  0  0  0  0  0  0  0  0  0
    1.5000  -10.3923    0.0000 C   0  0  0  0  0  0  0  0  0  0  0  0
    2.9918  -10.5491    0.0000 C   0  0  0  0  0  0  0  0  0  0  0  0
    3.3037  -12.0163    0.0000 N   0  0  0  0  0  0  0  0  0  0  0  0
    2.0046  -12.7663    0.0000 C   0  0  0  0  0  0  0  0  0  0  0  0
    1.6927  -14.2335    0.0000 C   0  0  0  0  0  0  0  0  0  0  0  0
    0.2662  -14.6971    0.0000 C   0  0  0  0  0  0  0  0  0  0  0  0
   -0.8486  -13.6934    0.0000 C   0  0  0  0  0  0  0  0  0  0  0  0
   -0.5367  -12.2261    0.0000 C   0  0  0  0  0  0  0  0  0  0  0  0
    0.8899  -11.7626    0.0000 C   0  0  0  0  0  0  0  0  0  0  0  0
    3.0000   -7.7942    0.0000 C   0  0  0  0  0  0  0  0  0  0  0  0
    3.7500   -6.4952    0.0000 O   0  0  0  0  0  0  0  0  0  0  0  0
    3.7500   -9.0933    0.0000 N   0  0  0  0  0  0  0  0  0  0  0  0
    5.2500   -9.0933    0.0000 C   0  0  0  0  0  0  0  0  0  0  0  0
    6.0000  -10.3923    0.0000 C   0  0  0  0  0  0  0  0  0  0  0  0
    7.4918  -10.5491    0.0000 C   0  0  0  0  0  0  0  0  0  0  0  0
    7.8037  -12.0163    0.0000 C   0  0  0  0  0  0  0  0  0  0  0  0
    6.5046  -12.7663    0.0000 C   0  0  0  0  0  0  0  0  0  0  0  0
    5.3899  -11.7626    0.0000 O   0  0  0  0  0  0  0  0  0  0  0  0
    0.7500   -3.8971    0.0000 C   0  0  0  0  0  0  0  0  0  0  0  0
    1.5000   -2.5981    0.0000 C   0  0  0  0  0  0  0  0  0  0  0  0
    0.7500   -1.2990    0.0000 C   0  0  0  0  0  0  0  0  0  0  0  0
    1.5000    0.0000    0.0000 C   0  0  0  0  0  0  0  0  0  0  0  0
    0.7500    1.2990    0.0000 C   0  0  0  0  0  0  0  0  0  0  0  0
   -0.7500    1.2990    0.0000 C   0  0  0  0  0  0  0  0  0  0  0  0
   -1.5000    0.0000    0.0000 C   0  0  0  0  0  0  0  0  0  0  0  0
   -0.7500   -1.2990    0.0000 C   0  0  0  0  0  0  0  0  0  0  0  0
   -1.5000   -2.5981    0.0000 C   0  0  0  0  0  0  0  0  0  0  0  0
   -0.7500   -3.8971    0.0000 N   0  0  0  0  0  0  0  0  0  0  0  0
  1  2  2  0
  2  3  1  0
  3  4  1  0
  4  5  1  1
  5  6  1  0
  6  7  2  0
  7  8  1  0
  8  9  1  0
  9 10  2  0
 10 11  1  0
 11 12  2  0
 12 13  1  0
 13 14  2  0
  4 15  1  0
 15 16  2  0
 15 17  1  0
 17 18  1  0
 18 19  1  0
 19 20  2  0
 20 21  1  0
 21 22  2  0
 22 23  1  0
 24  2  1  6
 24 25  1  0
 25 26  1  0
 26 27  2  0
 27 28  1  0
 28 29  2  0
 29 30  1  0
 30 31  2  0
 31 32  1  0
 32 33  1  0
 14  6  1  0
 23 19  1  0
 33 24  1  0
 14  9  1  0
 31 26  1  0
M  END
>  <Compound_ID>  (46) 
C36543609

>  <Active>  (46) 
0

>  <Smiles>  (46) 
O=C(N[C@H](Cc1c[nH]c2ccccc12)C(=O)NCc1ccco1)[C@H]1Cc2ccccc2CN1

>  <canonical_smi>  (46) 
O=C(N[C@H](Cc1c[nH]c2ccccc12)C(=O)NCc1ccco1)[C@H]1Cc2ccccc2CN1

>  <Set>  (46) 
G2 inactive

>  <Set_type>  (46) 
Train

>  <MW>  (46) 
442.52

>  <HBD>  (46) 
4

>  <HBA>  (46) 
4

>  <NRB>  (46) 
7

>  <NR>  (46) 
5

>  <NAR>  (46) 
4

>  <PSA>  (46) 
99.16

>  <Standard Type>  (46) 
nan

>  <Standard Relation>  (46) 
nan

>  <Standard Units>  (46) 
nan

>  <Standard Value>  (46) 
nan

>  <Assay ChEMBL ID>  (46) 
nan

>  <Assay Description>  (46) 
nan

>  <BAO Label>  (46) 
nan

$$$$

     RDKit          2D

 28 29  0  0  0  0  0  0  0  0999 V2000
    7.5000   -2.5981    0.0000 C   0  0  0  0  0  0  0  0  0  0  0  0
    6.0000   -2.5981    0.0000 C   0  0  0  0  0  0  0  0  0  0  0  0
    5.2500   -1.2990    0.0000 C   0  0  0  0  0  0  0  0  0  0  0  0
    3.7500   -1.2990    0.0000 N   0  0  0  0  0  4  0  0  0  0  0  0
    3.0000   -2.5981    0.0000 C   0  0  0  0  0  0  0  0  0  0  0  0
    3.7500   -3.8971    0.0000 C   0  0  0  0  0  0  0  0  0  0  0  0
    3.0000   -5.1962    0.0000 C   0  0  0  0  0  0  0  0  0  0  0  0
    3.0000    0.0000    0.0000 C   0  0  0  0  0  0  0  0  0  0  0  0
    1.5000    0.0000    0.0000 C   0  0  0  0  0  0  0  0  0  0  0  0
    0.7500   -1.2990    0.0000 C   0  0  0  0  0  0  0  0  0  0  0  0
    1.5000   -2.5981    0.0000 O   0  0  0  0  0  0  0  0  0  0  0  0
   -0.7500   -1.2990    0.0000 C   0  0  0  0  0  0  0  0  0  0  0  0
   -1.5000    0.0000    0.0000 C   0  0  0  0  0  0  0  0  0  0  0  0
   -0.7500    1.2990    0.0000 C   0  0  0  0  0  0  0  0  0  0  0  0
   -1.5000    2.5981    0.0000 C   0  0  0  0  0  0  0  0  0  0  0  0
   -3.0000    2.5981    0.0000 C   0  0  0  0  0  0  0  0  0  0  0  0
   -3.7500    3.8971    0.0000 N   0  0  0  0  0  4  0  0  0  0  0  0
   -5.2500    3.8971    0.0000 C   0  0  0  0  0  0  0  0  0  0  0  0
   -6.0000    5.1962    0.0000 C   0  0  0  0  0  0  0  0  0  0  0  0
   -7.5000    5.1962    0.0000 C   0  0  0  0  0  0  0  0  0  0  0  0
   -3.0000    5.1962    0.0000 C   0  0  0  0  0  0  0  0  0  0  0  0
   -3.7500    6.4952    0.0000 C   0  0  0  0  0  0  0  0  0  0  0  0
   -3.0000    7.7942    0.0000 C   0  0  0  0  0  0  0  0  0  0  0  0
   -0.7500    3.8971    0.0000 C   0  0  0  0  0  0  0  0  0  0  0  0
   -1.5000    5.1962    0.0000 O   0  0  0  0  0  0  0  0  0  0  0  0
    0.7500    3.8971    0.0000 C   0  0  0  0  0  0  0  0  0  0  0  0
    1.5000    2.5981    0.0000 C   0  0  0  0  0  0  0  0  0  0  0  0
    0.7500    1.2990    0.0000 C   0  0  0  0  0  0  0  0  0  0  0  0
  1  2  2  0
  2  3  1  0
  3  4  1  0
  4  5  1  0
  5  6  1  0
  6  7  2  0
  4  8  1  0
  8  9  1  0
  9 10  2  0
 10 11  1  0
 10 12  1  0
 12 13  2  0
 13 14  1  0
 14 15  2  0
 15 16  1  0
 16 17  1  0
 17 18  1  0
 18 19  1  0
 19 20  2  0
 17 21  1  0
 21 22  1  0
 22 23  2  0
 15 24  1  0
 24 25  1  0
 24 26  2  0
 26 27  1  0
 27 28  2  0
 28  9  1  0
 28 14  1  0
M  CHG  2   4   1  17   1
M  END
>  <Compound_ID>  (47) 
C01505910

>  <Active>  (47) 
0

>  <Smiles>  (47) 
C=CC[NH+](CC=C)Cc1c(O)ccc2c(C[NH+](CC=C)CC=C)c(O)ccc12

>  <canonical_smi>  (47) 
C=CC[NH+](CC=C)Cc1c(O)ccc2c(C[NH+](CC=C)CC=C)c(O)ccc12

>  <Set>  (47) 
G2 inactive

>  <Set_type>  (47) 
Train

>  <MW>  (47) 
380.53

>  <HBD>  (47) 
4

>  <HBA>  (47) 
2

>  <NRB>  (47) 
12

>  <NR>  (47) 
2

>  <NAR>  (47) 
2

>  <PSA>  (47) 
49.34

>  <Standard Type>  (47) 
nan

>  <Standard Relation>  (47) 
nan

>  <Standard Units>  (47) 
nan

>  <Standard Value>  (47) 
nan

>  <Assay ChEMBL ID>  (47) 
nan

>  <Assay Description>  (47) 
nan

>  <BAO Label>  (47) 
nan

$$$$

     RDKit          2D

 36 40  0  0  0  0  0  0  0  0999 V2000
    3.0000    0.0000    0.0000 C   0  0  0  0  0  0  0  0  0  0  0  0
    1.5000    0.0000    0.0000 C   0  0  0  0  0  0  0  0  0  0  0  0
    0.7500   -1.2990    0.0000 N   0  0  0  0  0  0  0  0  0  0  0  0
   -0.7500   -1.2990    0.0000 C   0  0  0  0  0  0  0  0  0  0  0  0
   -1.7537   -2.4138    0.0000 N   0  0  0  0  0  0  0  0  0  0  0  0
   -1.4418   -3.8810    0.0000 C   0  0  0  0  0  0  0  0  0  0  0  0
   -0.0152   -4.3445    0.0000 S   0  0  0  0  0  0  0  0  0  0  0  0
   -2.5565   -4.8847    0.0000 N   0  0  0  0  0  0  0  0  0  0  0  0
   -2.2447   -6.3519    0.0000 C   0  0  0  0  0  0  0  0  0  0  0  0
   -0.8181   -6.8154    0.0000 O   0  0  0  0  0  0  0  0  0  0  0  0
   -3.3594   -7.3556    0.0000 C   0  0  0  0  0  0  0  0  0  0  0  0
   -3.2026   -8.8474    0.0000 C   0  0  0  0  0  0  0  0  0  0  0  0
   -4.5729   -9.4575    0.0000 C   0  0  0  0  0  0  0  0  0  0  0  0
   -5.5766   -8.3428    0.0000 C   0  0  0  0  0  0  0  0  0  0  0  0
   -4.8266   -7.0437    0.0000 O   0  0  0  0  0  0  0  0  0  0  0  0
   -3.1240   -1.8037    0.0000 N   0  0  0  0  0  0  0  0  0  0  0  0
   -2.9672   -0.3119    0.0000 C   0  0  0  0  0  0  0  0  0  0  0  0
   -4.0819    0.6918    0.0000 N   0  0  0  0  0  0  0  0  0  0  0  0
   -5.5085    0.2283    0.0000 C   0  0  0  0  0  0  0  0  0  0  0  0
   -5.8204   -1.2389    0.0000 O   0  0  0  0  0  0  0  0  0  0  0  0
   -6.6232    1.2320    0.0000 C   0  0  0  0  0  0  0  0  0  0  0  0
   -8.0905    0.9201    0.0000 C   0  0  0  0  0  0  0  0  0  0  0  0
   -8.8405    2.2192    0.0000 C   0  0  0  0  0  0  0  0  0  0  0  0
   -7.8368    3.3339    0.0000 C   0  0  0  0  0  0  0  0  0  0  0  0
   -6.4664    2.7238    0.0000 O   0  0  0  0  0  0  0  0  0  0  0  0
   -1.5000    0.0000    0.0000 N   0  0  0  0  0  0  0  0  0  0  0  0
   -0.7500    1.2990    0.0000 C   0  0  0  0  0  0  0  0  0  0  0  0
   -1.5000    2.5981    0.0000 O   0  0  0  0  0  0  0  0  0  0  0  0
   -0.7500    3.8971    0.0000 C   0  0  0  0  0  0  0  0  0  0  0  0
    0.7500    3.8971    0.0000 O   0  0  0  0  0  0  0  0  0  0  0  0
   -1.5000    5.1962    0.0000 C   0  0  0  0  0  0  0  0  0  0  0  0
   -2.9918    5.3529    0.0000 C   0  0  0  0  0  0  0  0  0  0  0  0
   -3.3037    6.8202    0.0000 C   0  0  0  0  0  0  0  0  0  0  0  0
   -2.0046    7.5702    0.0000 C   0  0  0  0  0  0  0  0  0  0  0  0
   -0.8899    6.5665    0.0000 O   0  0  0  0  0  0  0  0  0  0  0  0
    0.7500    1.2990    0.0000 C   0  0  0  0  0  0  0  0  0  0  0  0
  1  2  1  0
  2  3  2  0
  3  4  1  0
  4  5  1  6
  5  6  1  0
  6  7  2  0
  6  8  1  0
  8  9  1  0
  9 10  2  0
  9 11  1  0
 11 12  2  0
 12 13  1  0
 13 14  2  0
 14 15  1  0
  5 16  1  0
 16 17  2  0
 17 18  1  0
 18 19  1  0
 19 20  2  0
 19 21  1  0
 21 22  2  0
 22 23  1  0
 23 24  2  0
 24 25  1  0
 17 26  1  0
 26 27  1  0
 27 28  1  0
 28 29  1  0
 29 30  2  0
 29 31  1  0
 31 32  2  0
 32 33  1  0
 33 34  2  0
 34 35  1  0
 27 36  2  0
 36  2  1  0
 26  4  1  0
 35 31  1  0
 15 11  1  0
 25 21  1  0
M  END
>  <Compound_ID>  (48) 
C15911984

>  <Active>  (48) 
0

>  <Smiles>  (48) 
CC1=N[C@@H]2N(C(=S)NC(=O)c3ccco3)N=C(NC(=O)c3ccco3)N2C(OC(=O)c2ccco2)=C1

>  <canonical_smi>  (48) 
CC1=N[C@@H]2N(C(=S)NC(=O)c3ccco3)N=C(NC(=O)c3ccco3)N2C(OC(=O)c2ccco2)=C1

>  <Set>  (48) 
G2 inactive

>  <Set_type>  (48) 
Train

>  <MW>  (48) 
508.47

>  <HBD>  (48) 
2

>  <HBA>  (48) 
10

>  <NRB>  (48) 
4

>  <NR>  (48) 
5

>  <NAR>  (48) 
3

>  <PSA>  (48) 
155.12

>  <Standard Type>  (48) 
nan

>  <Standard Relation>  (48) 
nan

>  <Standard Units>  (48) 
nan

>  <Standard Value>  (48) 
nan

>  <Assay ChEMBL ID>  (48) 
nan

>  <Assay Description>  (48) 
nan

>  <BAO Label>  (48) 
nan

$$$$

     RDKit          2D

 29 32  0  0  0  0  0  0  0  0999 V2000
    3.0000    0.0000    0.0000 C   0  0  0  0  0  0  0  0  0  0  0  0
    1.5000    0.0000    0.0000 C   0  0  0  0  0  0  0  0  0  0  0  0
    0.7500   -1.2990    0.0000 C   0  0  0  0  0  0  0  0  0  0  0  0
   -0.7500   -1.2990    0.0000 C   0  0  0  0  0  0  0  0  0  0  0  0
   -1.5000    0.0000    0.0000 C   0  0  0  0  0  0  0  0  0  0  0  0
   -0.7500    1.2990    0.0000 C   0  0  0  0  0  0  0  0  0  0  0  0
   -1.7537    2.4138    0.0000 S   0  0  0  0  0  0  0  0  0  0  0  0
   -3.1240    1.8037    0.0000 C   0  0  0  0  0  0  0  0  0  0  0  0
   -4.4943    2.4138    0.0000 N   0  0  0  0  0  0  0  0  0  0  0  0
   -5.7079    1.5321    0.0000 C   0  0  0  0  0  0  0  0  0  0  0  0
   -7.0782    2.1422    0.0000 C   0  0  0  0  0  0  0  0  0  0  0  0
   -7.2350    3.6340    0.0000 C   0  0  0  0  0  0  0  0  0  0  0  0
   -8.6053    4.2441    0.0000 C   0  0  0  0  0  0  0  0  0  0  0  0
   -9.8188    3.3624    0.0000 O   0  0  0  0  0  0  0  0  0  0  0  0
   -8.7621    5.7359    0.0000 N   0  0  0  0  0  0  0  0  0  0  0  0
  -10.1324    6.3460    0.0000 C   0  0  0  0  0  0  0  0  0  0  0  0
  -10.2892    7.8377    0.0000 C   0  0  0  0  0  0  0  0  0  0  0  0
  -11.6595    8.4478    0.0000 C   0  0  0  0  0  0  0  0  0  0  0  0
  -11.8163    9.9396    0.0000 C   0  0  0  0  0  0  0  0  0  0  0  0
  -13.1866   10.5497    0.0000 C   0  0  0  0  0  0  0  0  0  0  0  0
  -14.4001    9.6681    0.0000 C   0  0  0  0  0  0  0  0  0  0  0  0
  -15.7705   10.2782    0.0000 Cl  0  0  0  0  0  0  0  0  0  0  0  0
  -14.2434    8.1763    0.0000 C   0  0  0  0  0  0  0  0  0  0  0  0
  -12.8730    7.5662    0.0000 C   0  0  0  0  0  0  0  0  0  0  0  0
   -5.5511    0.0403    0.0000 N   0  0  0  0  0  0  0  0  0  0  0  0
   -4.1807   -0.5698    0.0000 C   0  0  0  0  0  0  0  0  0  0  0  0
   -4.0240   -2.0616    0.0000 O   0  0  0  0  0  0  0  0  0  0  0  0
   -2.9672    0.3119    0.0000 C   0  0  0  0  0  0  0  0  0  0  0  0
    0.7500    1.2990    0.0000 C   0  0  0  0  0  0  0  0  0  0  0  0
  2  1  1  6
  2  3  1  0
  3  4  1  0
  4  5  1  0
  5  6  2  0
  6  7  1  0
  7  8  1  0
  8  9  1  0
  9 10  2  0
 10 11  1  0
 11 12  1  0
 12 13  1  0
 13 14  2  0
 13 15  1  0
 15 16  1  0
 16 17  1  0
 17 18  1  0
 18 19  2  0
 19 20  1  0
 20 21  2  0
 21 22  1  0
 21 23  1  0
 23 24  2  0
 10 25  1  0
 25 26  1  0
 26 27  2  0
 26 28  1  0
  6 29  1  0
 29  2  1  0
 28  5  1  0
 28  8  2  0
 24 18  1  0
M  END
>  <Compound_ID>  (49) 
C21882423

>  <Active>  (49) 
0

>  <Smiles>  (49) 
C[C@@H]1CCc2c(sc3nc(CCC(=O)NCCc4ccc(Cl)cc4)[nH]c(=O)c23)C1

>  <canonical_smi>  (49) 
C[C@@H]1CCc2c(sc3nc(CCC(=O)NCCc4ccc(Cl)cc4)[nH]c(=O)c23)C1

>  <Set>  (49) 
G2 inactive

>  <Set_type>  (49) 
Train

>  <MW>  (49) 
429.97

>  <HBD>  (49) 
2

>  <HBA>  (49) 
3

>  <NRB>  (49) 
6

>  <NR>  (49) 
4

>  <NAR>  (49) 
3

>  <PSA>  (49) 
74.85

>  <Standard Type>  (49) 
nan

>  <Standard Relation>  (49) 
nan

>  <Standard Units>  (49) 
nan

>  <Standard Value>  (49) 
nan

>  <Assay ChEMBL ID>  (49) 
nan

>  <Assay Description>  (49) 
nan

>  <BAO Label>  (49) 
nan

$$$$

     RDKit          2D

 25 28  0  0  0  0  0  0  0  0999 V2000
    3.0000    0.0000    0.0000 C   0  0  0  0  0  0  0  0  0  0  0  0
    1.5000    0.0000    0.0000 C   0  0  0  0  0  0  0  0  0  0  0  0
    0.7500   -1.2990    0.0000 C   0  0  0  0  0  0  0  0  0  0  0  0
   -0.7500   -1.2990    0.0000 C   0  0  0  0  0  0  0  0  0  0  0  0
   -1.5000    0.0000    0.0000 C   0  0  0  0  0  0  0  0  0  0  0  0
   -2.9672    0.3119    0.0000 N   0  0  0  0  0  0  0  0  0  0  0  0
   -3.1240    1.8037    0.0000 C   0  0  0  0  0  0  0  0  0  0  0  0
   -4.4231    2.5537    0.0000 C   0  0  0  0  0  0  0  0  0  0  0  0
   -4.4231    4.0537    0.0000 C   0  0  0  0  0  0  0  0  0  0  0  0
   -5.7221    4.8037    0.0000 C   0  0  0  0  0  0  0  0  0  0  0  0
   -7.0211    4.0537    0.0000 C   0  0  0  0  0  0  0  0  0  0  0  0
   -7.0211    2.5537    0.0000 C   0  0  0  0  0  0  0  0  0  0  0  0
   -5.7221    1.8037    0.0000 N   0  0  0  0  0  0  0  0  0  0  0  0
   -1.7537    2.4138    0.0000 C   0  0  0  0  0  0  0  0  0  0  0  0
   -1.4418    3.8810    0.0000 N   0  0  0  0  0  0  0  0  0  0  0  0
   -0.0152    4.3445    0.0000 C   0  0  0  0  0  0  0  0  0  0  0  0
    0.2966    5.8117    0.0000 C   0  0  0  0  0  0  0  0  0  0  0  0
   -0.8181    6.8154    0.0000 C   0  0  0  0  0  0  0  0  0  0  0  0
    1.7232    6.2752    0.0000 C   0  0  0  0  0  0  0  0  0  0  0  0
    2.8379    5.2716    0.0000 C   0  0  0  0  0  0  0  0  0  0  0  0
    2.5261    3.8043    0.0000 C   0  0  0  0  0  0  0  0  0  0  0  0
    1.0995    3.3408    0.0000 C   0  0  0  0  0  0  0  0  0  0  0  0
    1.1467    1.9916    0.0000 C   0  0  0  0  0  0  0  0  0  0  0  0
   -0.7500    1.2990    0.0000 N   0  0  0  0  0  0  0  0  0  0  0  0
    0.7500    1.2990    0.0000 C   0  0  0  0  0  0  0  0  0  0  0  0
  1  2  1  0
  2  3  1  0
  3  4  2  0
  4  5  1  0
  5  6  2  0
  6  7  1  0
  7  8  1  0
  8  9  2  0
  9 10  1  0
 10 11  2  0
 11 12  1  0
 12 13  2  0
  7 14  2  0
 14 15  1  0
 15 16  1  0
 16 17  2  0
 17 18  1  0
 17 19  1  0
 19 20  2  0
 20 21  1  0
 21 22  2  0
 22 23  1  0
 14 24  1  0
 24 25  1  0
 25  2  2  0
 24  5  1  0
 13  8  1  0
 22 16  1  0
M  END
>  <Compound_ID>  (50) 
C00320499

>  <Active>  (50) 
0

>  <Smiles>  (50) 
Cc1ccc2nc(-c3ccccn3)c(Nc3c(C)cccc3C)n2c1

>  <canonical_smi>  (50) 
Cc1ccc2nc(-c3ccccn3)c(Nc3c(C)cccc3C)n2c1

>  <Set>  (50) 
G2 inactive

>  <Set_type>  (50) 
Train

>  <MW>  (50) 
328.42

>  <HBD>  (50) 
1

>  <HBA>  (50) 
3

>  <NRB>  (50) 
3

>  <NR>  (50) 
4

>  <NAR>  (50) 
4

>  <PSA>  (50) 
42.22

>  <Standard Type>  (50) 
nan

>  <Standard Relation>  (50) 
nan

>  <Standard Units>  (50) 
nan

>  <Standard Value>  (50) 
nan

>  <Assay ChEMBL ID>  (50) 
nan

>  <Assay Description>  (50) 
nan

>  <BAO Label>  (50) 
nan

$$$$

     RDKit          2D

 22 24  0  0  0  0  0  0  0  0999 V2000
   -6.7500   -1.2990    0.0000 F   0  0  0  0  0  0  0  0  0  0  0  0
   -6.0000   -2.5981    0.0000 C   0  0  0  0  0  0  0  0  0  0  0  0
   -7.2990   -3.3481    0.0000 F   0  0  0  0  0  0  0  0  0  0  0  0
   -4.7010   -1.8481    0.0000 F   0  0  0  0  0  0  0  0  0  0  0  0
   -5.2500   -3.8971    0.0000 C   0  0  0  0  0  0  0  0  0  0  0  0
   -6.0000   -5.1962    0.0000 C   0  0  0  0  0  0  0  0  0  0  0  0
   -5.2500   -6.4952    0.0000 C   0  0  0  0  0  0  0  0  0  0  0  0
   -3.7500   -6.4952    0.0000 C   0  0  0  0  0  0  0  0  0  0  0  0
   -3.0000   -5.1962    0.0000 C   0  0  0  0  0  0  0  0  0  0  0  0
   -3.7500   -3.8971    0.0000 C   0  0  0  0  0  0  0  0  0  0  0  0
   -3.0000   -2.5981    0.0000 N   0  0  0  0  0  0  0  0  0  0  0  0
   -1.5000   -2.5981    0.0000 C   0  0  0  0  0  0  0  0  0  0  0  0
   -0.7500   -3.8971    0.0000 N   0  0  0  0  0  0  0  0  0  0  0  0
    0.7500   -3.8971    0.0000 C   0  0  0  0  0  0  0  0  0  0  0  0
    1.5000   -5.1962    0.0000 S   0  0  0  0  0  0  0  0  0  0  0  0
    1.5000   -2.5981    0.0000 N   0  0  0  0  0  0  0  0  0  0  0  0
    0.7500   -1.2990    0.0000 C   0  0  0  0  0  0  0  0  0  0  0  0
    1.5000    0.0000    0.0000 C   0  0  0  0  0  0  0  0  0  0  0  0
    0.7500    1.2990    0.0000 C   0  0  0  0  0  0  0  0  0  0  0  0
   -0.7500    1.2990    0.0000 C   0  0  0  0  0  0  0  0  0  0  0  0
   -1.5000   -0.0000    0.0000 C   0  0  0  0  0  0  0  0  0  0  0  0
   -0.7500   -1.2990    0.0000 C   0  0  0  0  0  0  0  0  0  0  0  0
  1  2  1  0
  2  3  1  0
  2  4  1  0
  2  5  1  0
  5  6  2  0
  6  7  1  0
  7  8  2  0
  8  9  1  0
  9 10  2  0
 10 11  1  0
 11 12  1  0
 12 13  2  0
 13 14  1  0
 14 15  2  0
 14 16  1  0
 16 17  1  0
 17 18  2  0
 18 19  1  0
 19 20  2  0
 20 21  1  0
 21 22  2  0
 10  5  1  0
 22 12  1  0
 22 17  1  0
M  END
>  <Compound_ID>  (51) 
C10274413

>  <Active>  (51) 
0

>  <Smiles>  (51) 
FC(F)(F)c1ccccc1Nc1nc(=S)[nH]c2ccccc12

>  <canonical_smi>  (51) 
FC(F)(F)c1ccccc1Nc1nc(=S)[nH]c2ccccc12

>  <Set>  (51) 
G2 inactive

>  <Set_type>  (51) 
Train

>  <MW>  (51) 
321.33

>  <HBD>  (51) 
2

>  <HBA>  (51) 
3

>  <NRB>  (51) 
2

>  <NR>  (51) 
3

>  <NAR>  (51) 
3

>  <PSA>  (51) 
40.71

>  <Standard Type>  (51) 
nan

>  <Standard Relation>  (51) 
nan

>  <Standard Units>  (51) 
nan

>  <Standard Value>  (51) 
nan

>  <Assay ChEMBL ID>  (51) 
nan

>  <Assay Description>  (51) 
nan

>  <BAO Label>  (51) 
nan

$$$$

     RDKit          2D

 24 26  0  0  0  0  0  0  0  0999 V2000
    9.6958   -3.2005    0.0000 C   0  0  0  0  0  0  0  0  0  0  0  0
    8.1958   -3.2005    0.0000 C   0  0  0  0  0  0  0  0  0  0  0  0
    7.3141   -1.9870    0.0000 C   0  0  0  0  0  0  0  0  0  0  0  0
    5.8875   -2.4505    0.0000 C   0  0  0  0  0  0  0  0  0  0  0  0
    5.8875   -3.9505    0.0000 C   0  0  0  0  0  0  0  0  0  0  0  0
    4.6740   -4.8322    0.0000 C   0  0  0  0  0  0  0  0  0  0  0  0
    3.3037   -4.2221    0.0000 C   0  0  0  0  0  0  0  0  0  0  0  0
    2.0046   -4.9721    0.0000 S   0  0  0  0  0  0  0  0  0  0  0  0
    0.8899   -3.9684    0.0000 C   0  0  0  0  0  0  0  0  0  0  0  0
   -0.5773   -4.2803    0.0000 S   0  0  0  0  0  0  0  0  0  0  0  0
    1.5000   -2.5981    0.0000 N   0  0  0  0  0  0  0  0  0  0  0  0
    0.7500   -1.2990    0.0000 C   0  0  0  0  0  0  0  0  0  0  0  0
    1.5000    0.0000    0.0000 C   0  0  0  0  0  0  0  0  0  0  0  0
    0.7500    1.2990    0.0000 C   0  0  0  0  0  0  0  0  0  0  0  0
   -0.7500    1.2990    0.0000 C   0  0  0  0  0  0  0  0  0  0  0  0
   -1.5000    2.5981    0.0000 O   0  0  0  0  0  0  0  0  0  0  0  0
   -1.5000    0.0000    0.0000 C   0  0  0  0  0  0  0  0  0  0  0  0
   -3.0000    0.0000    0.0000 C   0  0  0  0  0  0  0  0  0  0  0  0
   -3.7500   -1.2990    0.0000 O   0  0  0  0  0  0  0  0  0  0  0  0
   -3.7500    1.2990    0.0000 O   0  0  0  0  0  1  0  0  0  0  0  0
   -0.7500   -1.2990    0.0000 C   0  0  0  0  0  0  0  0  0  0  0  0
    2.9918   -2.7549    0.0000 C   0  0  0  0  0  0  0  0  0  0  0  0
    3.9955   -1.6402    0.0000 O   0  0  0  0  0  0  0  0  0  0  0  0
    7.3141   -4.4140    0.0000 O   0  0  0  0  0  0  0  0  0  0  0  0
  1  2  1  0
  2  3  2  0
  3  4  1  0
  4  5  2  0
  5  6  1  0
  6  7  2  0
  7  8  1  0
  8  9  1  0
  9 10  2  0
  9 11  1  0
 11 12  1  0
 12 13  2  0
 13 14  1  0
 14 15  2  0
 15 16  1  0
 15 17  1  0
 17 18  1  0
 18 19  2  0
 18 20  1  0
 17 21  2  0
 11 22  1  0
 22 23  2  0
  5 24  1  0
 24  2  1  0
 22  7  1  0
 21 12  1  0
M  CHG  1  20  -1
M  END
>  <Compound_ID>  (52) 
C04356957

>  <Active>  (52) 
0

>  <Smiles>  (52) 
Cc1ccc(/C=C2/SC(=S)N(c3ccc(O)c(C(=O)[O-])c3)C2=O)o1

>  <canonical_smi>  (52) 
Cc1ccc(/C=C2/SC(=S)N(c3ccc(O)c(C(=O)[O-])c3)C2=O)o1

>  <Set>  (52) 
G2 inactive

>  <Set_type>  (52) 
Train

>  <MW>  (52) 
360.39

>  <HBD>  (52) 
1

>  <HBA>  (52) 
7

>  <NRB>  (52) 
3

>  <NR>  (52) 
3

>  <NAR>  (52) 
2

>  <PSA>  (52) 
93.81

>  <Standard Type>  (52) 
nan

>  <Standard Relation>  (52) 
nan

>  <Standard Units>  (52) 
nan

>  <Standard Value>  (52) 
nan

>  <Assay ChEMBL ID>  (52) 
nan

>  <Assay Description>  (52) 
nan

>  <BAO Label>  (52) 
nan

$$$$

     RDKit          2D

 26 29  0  0  0  0  0  0  0  0999 V2000
    6.0000   -5.1962    0.0000 C   0  0  0  0  0  0  0  0  0  0  0  0
    5.2500   -3.8971    0.0000 S   0  0  0  0  0  0  0  0  0  0  0  0
    3.7500   -3.8971    0.0000 C   0  0  0  0  0  0  0  0  0  0  0  0
    3.0000   -5.1962    0.0000 C   0  0  0  0  0  0  0  0  0  0  0  0
    1.5000   -5.1962    0.0000 C   0  0  0  0  0  0  0  0  0  0  0  0
    0.7500   -6.4952    0.0000 O   0  0  0  0  0  0  0  0  0  0  0  0
    0.7500   -3.8971    0.0000 C   0  0  0  0  0  0  0  0  0  0  0  0
    1.5000   -2.5981    0.0000 C   0  0  0  0  0  0  0  0  0  0  0  0
    0.7500   -1.2990    0.0000 C   0  0  0  0  0  0  0  0  0  0  0  0
    1.5000    0.0000    0.0000 N   0  0  0  0  0  0  0  0  0  0  0  0
    0.7500    1.2990    0.0000 C   0  0  0  0  0  0  0  0  0  0  0  0
   -0.7500    1.2990    0.0000 C   0  0  0  0  0  0  0  0  0  0  0  0
   -1.5000    2.5981    0.0000 F   0  0  0  0  0  0  0  0  0  0  0  0
   -1.5000    0.0000    0.0000 C   0  0  0  0  0  0  0  0  0  0  0  0
   -0.7500   -1.2990    0.0000 C   0  0  0  0  0  0  0  0  0  0  0  0
   -1.5000   -2.5981    0.0000 C   0  0  0  0  0  0  0  0  0  0  0  0
   -3.0000   -2.5981    0.0000 O   0  0  0  0  0  0  0  0  0  0  0  0
   -0.7500   -3.8971    0.0000 N   0  0  0  0  0  0  0  0  0  0  0  0
   -1.5000   -5.1962    0.0000 C   0  0  0  0  0  0  0  0  0  0  0  0
   -0.7500   -6.4952    0.0000 C   0  0  0  0  0  0  0  0  0  0  0  0
   -1.5000   -7.7942    0.0000 C   0  0  0  0  0  0  0  0  0  0  0  0
   -3.0000   -7.7942    0.0000 C   0  0  0  0  0  0  0  0  0  0  0  0
   -3.7500   -6.4952    0.0000 C   0  0  0  0  0  0  0  0  0  0  0  0
   -3.0000   -5.1962    0.0000 C   0  0  0  0  0  0  0  0  0  0  0  0
   -3.7500   -3.8971    0.0000 O   0  0  0  0  0  1  0  0  0  0  0  0
    3.0000   -2.5981    0.0000 N   0  0  0  0  0  0  0  0  0  0  0  0
  1  2  1  0
  3  2  1  6
  3  4  1  0
  4  5  1  0
  5  6  2  0
  5  7  1  0
  7  8  2  0
  8  9  1  0
  9 10  2  0
 10 11  1  0
 11 12  2  0
 12 13  1  0
 12 14  1  0
 14 15  2  0
 15 16  1  0
 16 17  2  0
 16 18  1  0
 18 19  1  0
 19 20  2  0
 20 21  1  0
 21 22  2  0
 22 23  1  0
 23 24  2  0
 24 25  1  0
  8 26  1  0
 26  3  1  0
 18  7  1  0
 24 19  1  0
 15  9  1  0
M  CHG  1  25  -1
M  END
>  <Compound_ID>  (53) 
C39449879

>  <Active>  (53) 
0

>  <Smiles>  (53) 
CS[C@@H]1CC(=O)c2c(c3ncc(F)cc3c(=O)n2-c2ccccc2[O-])N1

>  <canonical_smi>  (53) 
CS[C@@H]1CC(=O)c2c(c3ncc(F)cc3c(=O)n2-c2ccccc2[O-])N1

>  <Set>  (53) 
G2 inactive

>  <Set_type>  (53) 
Train

>  <MW>  (53) 
370.39

>  <HBD>  (53) 
1

>  <HBA>  (53) 
6

>  <NRB>  (53) 
2

>  <NR>  (53) 
4

>  <NAR>  (53) 
3

>  <PSA>  (53) 
87.05

>  <Standard Type>  (53) 
nan

>  <Standard Relation>  (53) 
nan

>  <Standard Units>  (53) 
nan

>  <Standard Value>  (53) 
nan

>  <Assay ChEMBL ID>  (53) 
nan

>  <Assay Description>  (53) 
nan

>  <BAO Label>  (53) 
nan

$$$$

     RDKit          2D

 32 35  0  0  0  0  0  0  0  0999 V2000
    1.5338    7.3226    0.0000 C   0  0  0  0  0  0  0  0  0  0  0  0
    0.0505    7.0990    0.0000 C   0  0  0  0  0  0  0  0  0  0  0  0
   -0.8847    8.2718    0.0000 O   0  0  0  0  0  0  0  0  0  0  0  0
   -0.4975    5.7027    0.0000 O   0  0  0  0  0  0  0  0  0  0  0  0
   -1.9807    5.4791    0.0000 C   0  0  0  0  0  0  0  0  0  0  0  0
   -2.5287    4.0828    0.0000 C   0  0  0  0  0  0  0  0  0  0  0  0
   -1.5085    2.9832    0.0000 C   0  0  0  0  0  0  0  0  0  0  0  0
   -1.7321    1.5000    0.0000 C   0  0  0  0  0  0  0  0  0  0  0  0
   -0.4330    0.7500    0.0000 C   0  0  0  0  0  0  0  0  0  0  0  0
    0.8660    0.0000    0.0000 C   0  0  0  0  0  0  0  0  0  0  0  0
    1.8302    1.1491    0.0000 C   0  0  0  0  0  0  0  0  0  0  0  0
    1.8302   -1.1491    0.0000 C   0  0  0  0  0  0  0  0  0  0  0  0
   -0.4330   -0.7500    0.0000 C   0  0  0  0  0  0  0  0  0  0  0  0
   -1.1830    0.5490    0.0000 O   0  0  0  0  0  0  0  0  0  0  0  0
   -0.4330    1.8481    0.0000 C   0  0  0  0  0  0  0  0  0  0  0  0
   -0.8464    3.2900    0.0000 C   0  0  0  0  0  0  0  0  0  0  0  0
    1.0670    1.8481    0.0000 O   0  0  0  0  0  0  0  0  0  0  0  0
   -1.7321   -1.5000    0.0000 C   0  0  0  0  0  0  0  0  0  0  0  0
   -1.7321   -3.0000    0.0000 O   0  0  0  0  0  0  0  0  0  0  0  0
   -3.0311   -0.7500    0.0000 C   0  0  0  0  0  0  0  0  0  0  0  0
   -4.3301   -1.5000    0.0000 C   0  0  0  0  0  0  0  0  0  0  0  0
   -3.0311    0.7500    0.0000 C   0  0  0  0  0  0  0  0  0  0  0  0
   -4.2704   -0.0950    0.0000 O   0  0  0  0  0  0  0  0  0  0  0  0
   -4.4274    1.2980    0.0000 C   0  0  0  0  0  0  0  0  0  0  0  0
   -5.6540    0.4346    0.0000 C   0  0  0  0  0  0  0  0  0  0  0  0
   -6.8542    1.3343    0.0000 C   0  0  0  0  0  0  0  0  0  0  0  0
   -8.2875    0.8922    0.0000 C   0  0  0  0  0  0  0  0  0  0  0  0
   -6.3694    2.7538    0.0000 C   0  0  0  0  0  0  0  0  0  0  0  0
   -7.2328    3.9804    0.0000 O   0  0  0  0  0  0  0  0  0  0  0  0
   -4.8695    2.7314    0.0000 C   0  0  0  0  0  0  0  0  0  0  0  0
   -5.5605    4.0627    0.0000 O   0  0  0  0  0  0  0  0  0  0  0  0
   -4.0246    3.9707    0.0000 C   0  0  0  0  0  0  0  0  0  0  0  0
  1  2  1  0
  2  3  2  0
  2  4  1  0
  4  5  1  0
  5  6  1  0
  6  7  2  0
  8  7  1  6
  8  9  1  0
  9 10  1  6
 10 11  1  0
 10 12  1  0
 10 13  1  0
 13 14  1  1
 14 15  1  0
 15 16  1  0
 15 17  2  0
 13 18  1  0
 18 19  1  6
 18 20  1  0
 20 21  1  1
 20 22  1  0
 22 23  1  6
 22 24  1  0
 24 25  1  6
 25 26  2  0
 26 27  1  0
 26 28  1  0
 28 29  2  0
 28 30  1  0
 30 31  1  1
 30 32  1  0
 32  6  1  0
 22  8  1  0
 30 24  1  0
 13  9  1  0
M  END
>  <Compound_ID>  (54) 
C34171397

>  <Active>  (54) 
0

>  <Smiles>  (54) 
CC(=O)OCC1=C[C@@H]2[C@@H]3C(C)(C)[C@]3(OC(C)=O)[C@H](O)[C@@H](C)[C@@]2(O)[C@@H]2C=C(C)C(=O)[C@]2(O)C1

>  <canonical_smi>  (54) 
CC(=O)OCC1=C[C@@H]2[C@@H]3C(C)(C)[C@]3(OC(C)=O)[C@H](O)[C@@H](C)[C@@]2(O)[C@@H]2C=C(C)C(=O)[C@]2(O)C1

>  <Set>  (54) 
G2 inactive

>  <Set_type>  (54) 
Train

>  <MW>  (54) 
448.51

>  <HBD>  (54) 
3

>  <HBA>  (54) 
8

>  <NRB>  (54) 
3

>  <NR>  (54) 
4

>  <NAR>  (54) 
0

>  <PSA>  (54) 
130.36

>  <Standard Type>  (54) 
nan

>  <Standard Relation>  (54) 
nan

>  <Standard Units>  (54) 
nan

>  <Standard Value>  (54) 
nan

>  <Assay ChEMBL ID>  (54) 
nan

>  <Assay Description>  (54) 
nan

>  <BAO Label>  (54) 
nan

$$$$

     RDKit          2D

 27 31  0  0  0  0  0  0  0  0999 V2000
   -0.1459    3.7548    0.0000 C   0  0  0  0  0  0  0  0  0  0  0  0
    0.8578    2.6401    0.0000 C   0  0  0  0  0  0  0  0  0  0  0  0
    0.3943    1.2135    0.0000 C   0  0  0  0  0  0  0  0  0  0  0  0
    1.2760    0.0000    0.0000 N   0  0  0  0  0  0  0  0  0  0  0  0
    0.3943   -1.2135    0.0000 N   0  0  0  0  0  0  0  0  0  0  0  0
    0.3943   -2.7135    0.0000 C   0  0  0  0  0  0  0  0  0  0  0  0
    1.6078   -3.5952    0.0000 C   0  0  0  0  0  0  0  0  0  0  0  0
    3.0344   -3.1317    0.0000 C   0  0  0  0  0  0  0  0  0  0  0  0
    3.9161   -4.3452    0.0000 C   0  0  0  0  0  0  0  0  0  0  0  0
    5.4161   -4.3452    0.0000 C   0  0  0  0  0  0  0  0  0  0  0  0
    6.1661   -5.6442    0.0000 C   0  0  0  0  0  0  0  0  0  0  0  0
    7.6661   -5.6442    0.0000 C   0  0  0  0  0  0  0  0  0  0  0  0
    8.4161   -4.3452    0.0000 C   0  0  0  0  0  0  0  0  0  0  0  0
    7.6661   -3.0462    0.0000 C   0  0  0  0  0  0  0  0  0  0  0  0
    6.1661   -3.0462    0.0000 C   0  0  0  0  0  0  0  0  0  0  0  0
    3.0344   -5.5587    0.0000 N   0  0  0  0  0  0  0  0  0  0  0  0
    1.6078   -5.0952    0.0000 N   0  0  0  0  0  0  0  0  0  0  0  0
   -1.0323   -3.1771    0.0000 N   0  0  0  0  0  0  0  0  0  0  0  0
   -1.9140   -1.9635    0.0000 N   0  0  0  0  0  0  0  0  0  0  0  0
   -1.0323   -0.7500    0.0000 C   0  0  0  0  0  0  0  0  0  0  0  0
   -1.0323    0.7500    0.0000 S   0  0  0  0  0  0  0  0  0  0  0  0
    0.3177    5.1814    0.0000 C   0  0  0  0  0  0  0  0  0  0  0  0
    1.7849    5.4933    0.0000 C   0  0  0  0  0  0  0  0  0  0  0  0
    2.2484    6.9199    0.0000 C   0  0  0  0  0  0  0  0  0  0  0  0
    1.2447    8.0346    0.0000 C   0  0  0  0  0  0  0  0  0  0  0  0
   -0.2225    7.7227    0.0000 C   0  0  0  0  0  0  0  0  0  0  0  0
   -0.6860    6.2961    0.0000 C   0  0  0  0  0  0  0  0  0  0  0  0
  1  2  2  0
  2  3  1  0
  3  4  2  0
  4  5  1  0
  5  6  1  0
  6  7  1  0
  7  8  2  0
  8  9  1  0
  9 10  1  0
 10 11  2  0
 11 12  1  0
 12 13  2  0
 13 14  1  0
 14 15  2  0
  9 16  2  0
 16 17  1  0
  6 18  2  0
 18 19  1  0
 19 20  2  0
 20 21  1  0
  1 22  1  0
 22 23  2  0
 23 24  1  0
 24 25  2  0
 25 26  1  0
 26 27  2  0
 21  3  1  0
 27 22  1  0
 20  5  1  0
 17  7  1  0
 15 10  1  0
M  END
>  <Compound_ID>  (55) 
C22503142

>  <Active>  (55) 
0

>  <Smiles>  (55) 
C(=C/c1nn2c(-c3cc(-c4ccccc4)n[nH]3)nnc2s1)\c1ccccc1

>  <canonical_smi>  (55) 
C(=C/c1nn2c(-c3cc(-c4ccccc4)n[nH]3)nnc2s1)\c1ccccc1

>  <Set>  (55) 
G2 inactive

>  <Set_type>  (55) 
Train

>  <MW>  (55) 
370.44

>  <HBD>  (55) 
1

>  <HBA>  (55) 
4

>  <NRB>  (55) 
4

>  <NR>  (55) 
5

>  <NAR>  (55) 
5

>  <PSA>  (55) 
71.76

>  <Standard Type>  (55) 
nan

>  <Standard Relation>  (55) 
nan

>  <Standard Units>  (55) 
nan

>  <Standard Value>  (55) 
nan

>  <Assay ChEMBL ID>  (55) 
nan

>  <Assay Description>  (55) 
nan

>  <BAO Label>  (55) 
nan

$$$$

     RDKit          2D

 27 31  0  0  0  0  0  0  0  0999 V2000
   -4.7220   12.2165    0.0000 C   0  0  0  0  0  0  0  0  0  0  0  0
   -3.2302   12.0598    0.0000 C   0  0  0  0  0  0  0  0  0  0  0  0
   -2.6201   10.6894    0.0000 C   0  0  0  0  0  0  0  0  0  0  0  0
   -3.5018    9.4759    0.0000 C   0  0  0  0  0  0  0  0  0  0  0  0
   -2.8917    8.1056    0.0000 C   0  0  0  0  0  0  0  0  0  0  0  0
   -1.4245    7.7937    0.0000 N   0  0  0  0  0  0  0  0  0  0  0  0
   -1.2677    6.3019    0.0000 O   0  0  0  0  0  0  0  0  0  0  0  0
   -2.6380    5.6918    0.0000 C   0  0  0  0  0  0  0  0  0  0  0  0
   -2.9499    4.2246    0.0000 C   0  0  0  0  0  0  0  0  0  0  0  0
   -1.8351    3.2209    0.0000 N   0  0  0  0  0  0  0  0  0  0  0  0
   -0.4086    3.6844    0.0000 C   0  0  0  0  0  0  0  0  0  0  0  0
    0.7062    2.6807    0.0000 C   0  0  0  0  0  0  0  0  0  0  0  0
    0.3943    1.2135    0.0000 C   0  0  0  0  0  0  0  0  0  0  0  0
    1.2760    0.0000    0.0000 N   0  0  0  0  0  0  0  0  0  0  0  0
    0.3943   -1.2135    0.0000 C   0  0  0  0  0  0  0  0  0  0  0  0
   -1.0323   -0.7500    0.0000 N   0  0  0  0  0  0  0  0  0  0  0  0
   -1.0323    0.7500    0.0000 C   0  0  0  0  0  0  0  0  0  0  0  0
   -2.1470    1.7537    0.0000 C   0  0  0  0  0  0  0  0  0  0  0  0
   -3.5736    1.2902    0.0000 C   0  0  0  0  0  0  0  0  0  0  0  0
   -4.6883    2.2939    0.0000 C   0  0  0  0  0  0  0  0  0  0  0  0
   -6.1149    1.8303    0.0000 C   0  0  0  0  0  0  0  0  0  0  0  0
   -6.4268    0.3631    0.0000 C   0  0  0  0  0  0  0  0  0  0  0  0
   -5.3120   -0.6406    0.0000 C   0  0  0  0  0  0  0  0  0  0  0  0
   -3.8855   -0.1771    0.0000 N   0  0  0  0  0  0  0  0  0  0  0  0
   -3.6417    6.8066    0.0000 N   0  0  0  0  0  0  0  0  0  0  0  0
   -4.9936    9.6327    0.0000 C   0  0  0  0  0  0  0  0  0  0  0  0
   -5.6037   11.0030    0.0000 C   0  0  0  0  0  0  0  0  0  0  0  0
  1  2  2  0
  2  3  1  0
  3  4  2  0
  4  5  1  0
  5  6  2  0
  6  7  1  0
  7  8  1  0
  8  9  1  0
  9 10  1  0
 10 11  1  0
 11 12  1  0
 12 13  1  0
 13 14  1  0
 14 15  1  0
 15 16  2  0
 16 17  1  0
 17 18  1  0
 18 19  1  1
 19 20  2  0
 20 21  1  0
 21 22  2  0
 22 23  1  0
 23 24  2  0
  8 25  2  0
  4 26  1  0
 26 27  2  0
 27  1  1  0
 25  5  1  0
 18 10  1  0
 24 19  1  0
 17 13  2  0
M  END
>  <Compound_ID>  (56) 
C42484241

>  <Active>  (56) 
0

>  <Smiles>  (56) 
c1ccc(-c2noc(CN3CCc4[nH]cnc4[C@H]3c3ccccn3)n2)cc1

>  <canonical_smi>  (56) 
c1ccc(-c2noc(CN3CCc4[nH]cnc4[C@H]3c3ccccn3)n2)cc1

>  <Set>  (56) 
G2 inactive

>  <Set_type>  (56) 
Train

>  <MW>  (56) 
358.4

>  <HBD>  (56) 
1

>  <HBA>  (56) 
6

>  <NRB>  (56) 
4

>  <NR>  (56) 
5

>  <NAR>  (56) 
4

>  <PSA>  (56) 
83.73

>  <Standard Type>  (56) 
nan

>  <Standard Relation>  (56) 
nan

>  <Standard Units>  (56) 
nan

>  <Standard Value>  (56) 
nan

>  <Assay ChEMBL ID>  (56) 
nan

>  <Assay Description>  (56) 
nan

>  <BAO Label>  (56) 
nan

$$$$

     RDKit          2D

 31 34  0  0  0  0  0  0  0  0999 V2000
    9.1740   -7.4303    0.0000 C   0  0  0  0  0  0  0  0  0  0  0  0
    7.8037   -6.8202    0.0000 C   0  0  0  0  0  0  0  0  0  0  0  0
    7.4918   -5.3529    0.0000 C   0  0  0  0  0  0  0  0  0  0  0  0
    8.4955   -4.2382    0.0000 C   0  0  0  0  0  0  0  0  0  0  0  0
    9.4992   -3.1235    0.0000 N   0  0  0  0  0  0  0  0  0  0  0  0
    6.0000   -5.1962    0.0000 C   0  0  0  0  0  0  0  0  0  0  0  0
    5.2500   -3.8971    0.0000 N   0  0  0  0  0  0  0  0  0  0  0  0
    6.0000   -2.5981    0.0000 C   0  0  0  0  0  0  0  0  0  0  0  0
    7.5000   -2.5981    0.0000 O   0  0  0  0  0  0  0  0  0  0  0  0
    5.2500   -1.2990    0.0000 C   0  0  0  0  0  0  0  0  0  0  0  0
    6.0000   -0.0000    0.0000 S   0  0  0  0  0  0  0  0  0  0  0  0
    5.2500    1.2990    0.0000 C   0  0  0  0  0  0  0  0  0  0  0  0
    3.7500    1.2990    0.0000 N   0  0  0  0  0  0  0  0  0  0  0  0
    3.0000    2.5981    0.0000 C   0  0  0  0  0  0  0  0  0  0  0  0
    3.7500    3.8971    0.0000 N   0  0  0  0  0  0  0  0  0  0  0  0
    5.2500    3.8971    0.0000 C   0  0  0  0  0  0  0  0  0  0  0  0
    6.0000    2.5981    0.0000 C   0  0  0  0  0  0  0  0  0  0  0  0
    7.4672    2.9099    0.0000 C   0  0  0  0  0  0  0  0  0  0  0  0
    7.6240    4.4017    0.0000 N   0  0  0  0  0  0  0  0  0  0  0  0
    6.2537    5.0118    0.0000 N   0  0  0  0  0  0  0  0  0  0  0  0
    5.9418    6.4791    0.0000 C   0  0  0  0  0  0  0  0  0  0  0  0
    5.3899   -6.5665    0.0000 N   0  0  0  0  0  0  0  0  0  0  0  0
    3.9227   -6.8783    0.0000 C   0  0  0  0  0  0  0  0  0  0  0  0
    2.9190   -5.7636    0.0000 C   0  0  0  0  0  0  0  0  0  0  0  0
    1.4518   -6.0755    0.0000 C   0  0  0  0  0  0  0  0  0  0  0  0
    0.9882   -7.5021    0.0000 C   0  0  0  0  0  0  0  0  0  0  0  0
   -0.4790   -7.8139    0.0000 F   0  0  0  0  0  0  0  0  0  0  0  0
    1.9919   -8.6168    0.0000 C   0  0  0  0  0  0  0  0  0  0  0  0
    3.4591   -8.3049    0.0000 C   0  0  0  0  0  0  0  0  0  0  0  0
    6.5046   -7.5702    0.0000 C   0  0  0  0  0  0  0  0  0  0  0  0
    6.3478   -9.0619    0.0000 C   0  0  0  0  0  0  0  0  0  0  0  0
  1  2  1  0
  2  3  1  0
  3  4  1  0
  4  5  3  0
  3  6  2  0
  6  7  1  0
  7  8  1  0
  8  9  2  0
  8 10  1  0
 10 11  1  0
 11 12  1  0
 12 13  2  0
 13 14  1  0
 14 15  2  0
 15 16  1  0
 16 17  2  0
 17 18  1  0
 18 19  2  0
 19 20  1  0
 20 21  1  0
  6 22  1  0
 22 23  1  0
 23 24  2  0
 24 25  1  0
 25 26  2  0
 26 27  1  0
 26 28  1  0
 28 29  2  0
 22 30  1  0
 30 31  1  0
 30  2  2  0
 17 12  1  0
 29 23  1  0
 20 16  1  0
M  END
>  <Compound_ID>  (57) 
C11495095

>  <Active>  (57) 
0

>  <Smiles>  (57) 
Cc1c(C#N)c(NC(=O)CSc2ncnc3c2cnn3C)n(-c2ccc(F)cc2)c1C

>  <canonical_smi>  (57) 
Cc1c(C#N)c(NC(=O)CSc2ncnc3c2cnn3C)n(-c2ccc(F)cc2)c1C

>  <Set>  (57) 
G2 inactive

>  <Set_type>  (57) 
Train

>  <MW>  (57) 
435.49

>  <HBD>  (57) 
1

>  <HBA>  (57) 
6

>  <NRB>  (57) 
5

>  <NR>  (57) 
4

>  <NAR>  (57) 
4

>  <PSA>  (57) 
101.42

>  <Standard Type>  (57) 
nan

>  <Standard Relation>  (57) 
nan

>  <Standard Units>  (57) 
nan

>  <Standard Value>  (57) 
nan

>  <Assay ChEMBL ID>  (57) 
nan

>  <Assay Description>  (57) 
nan

>  <BAO Label>  (57) 
nan

$$$$

     RDKit          2D

 30 33  0  0  0  0  0  0  0  0999 V2000
    3.0988   13.7409    0.0000 C   0  0  0  0  0  0  0  0  0  0  0  0
    4.5660   14.0528    0.0000 C   0  0  0  0  0  0  0  0  0  0  0  0
    5.0296   15.4794    0.0000 C   0  0  0  0  0  0  0  0  0  0  0  0
    4.0259   16.5941    0.0000 C   0  0  0  0  0  0  0  0  0  0  0  0
    6.4968   15.7912    0.0000 C   0  0  0  0  0  0  0  0  0  0  0  0
    7.5005   14.6765    0.0000 C   0  0  0  0  0  0  0  0  0  0  0  0
    7.0369   13.2499    0.0000 C   0  0  0  0  0  0  0  0  0  0  0  0
    5.5697   12.9381    0.0000 C   0  0  0  0  0  0  0  0  0  0  0  0
    5.1062   11.5115    0.0000 N   0  0  0  0  0  0  0  0  0  0  0  0
    3.6390   11.1996    0.0000 C   0  0  0  0  0  0  0  0  0  0  0  0
    2.6353   12.3143    0.0000 O   0  0  0  0  0  0  0  0  0  0  0  0
    3.1755    9.7730    0.0000 C   0  0  0  0  0  0  0  0  0  0  0  0
    1.7082    9.4612    0.0000 C   0  0  0  0  0  0  0  0  0  0  0  0
    1.2447    8.0346    0.0000 C   0  0  0  0  0  0  0  0  0  0  0  0
    2.2484    6.9199    0.0000 N   0  0  0  0  0  0  0  0  0  0  0  0
    1.7849    5.4933    0.0000 S   0  0  0  0  0  0  0  0  0  0  0  0
    0.3583    5.9568    0.0000 O   0  0  0  0  0  0  0  0  0  0  0  0
    3.2115    5.0298    0.0000 O   0  0  0  0  0  0  0  0  0  0  0  0
    1.3213    4.0667    0.0000 N   0  0  0  0  0  0  0  0  0  0  0  0
   -0.1459    3.7548    0.0000 C   0  0  0  0  0  0  0  0  0  0  0  0
   -0.6094    2.3282    0.0000 C   0  0  0  0  0  0  0  0  0  0  0  0
    0.3943    1.2135    0.0000 C   0  0  0  0  0  0  0  0  0  0  0  0
    1.8615    1.5254    0.0000 C   0  0  0  0  0  0  0  0  0  0  0  0
    2.3250    2.9520    0.0000 C   0  0  0  0  0  0  0  0  0  0  0  0
    1.2760    0.0000    0.0000 O   0  0  0  0  0  0  0  0  0  0  0  0
    0.3943   -1.2135    0.0000 C   0  0  0  0  0  0  0  0  0  0  0  0
   -1.0323   -0.7500    0.0000 C   0  0  0  0  0  0  0  0  0  0  0  0
   -1.0323    0.7500    0.0000 O   0  0  0  0  0  0  0  0  0  0  0  0
    3.7156    7.2317    0.0000 C   0  0  0  0  0  0  0  0  0  0  0  0
    4.1791    8.6583    0.0000 C   0  0  0  0  0  0  0  0  0  0  0  0
  2  1  1  6
  2  3  1  0
  3  4  1  6
  3  5  1  0
  5  6  1  0
  6  7  1  0
  7  8  1  0
  8  9  1  1
  9 10  1  0
 10 11  2  0
 10 12  1  0
 12 13  1  0
 13 14  1  0
 14 15  1  0
 15 16  1  0
 16 17  2  0
 16 18  2  0
 16 19  1  0
 19 20  1  0
 20 21  1  0
 21 22  1  0
 22 23  1  0
 23 24  1  0
 22 25  1  0
 25 26  1  0
 26 27  1  0
 27 28  1  0
 15 29  1  0
 29 30  1  0
  8  2  1  0
 30 12  1  0
 24 19  1  0
 28 22  1  0
M  END
>  <Compound_ID>  (58) 
C04102116

>  <Active>  (58) 
0

>  <Smiles>  (58) 
C[C@@H]1[C@H](C)CCC[C@H]1NC(=O)C1CCN(S(=O)(=O)N2CCC3(CC2)OCCO3)CC1

>  <canonical_smi>  (58) 
C[C@@H]1CCC[C@@H](NC(=O)C2CCN(S(=O)(=O)N3CCC4(CC3)OCCO4)CC2)[C@@H]1C

>  <Set>  (58) 
G2 inactive

>  <Set_type>  (58) 
Train

>  <MW>  (58) 
443.61

>  <HBD>  (58) 
1

>  <HBA>  (58) 
5

>  <NRB>  (58) 
4

>  <NR>  (58) 
4

>  <NAR>  (58) 
0

>  <PSA>  (58) 
88.18

>  <Standard Type>  (58) 
nan

>  <Standard Relation>  (58) 
nan

>  <Standard Units>  (58) 
nan

>  <Standard Value>  (58) 
nan

>  <Assay ChEMBL ID>  (58) 
nan

>  <Assay Description>  (58) 
nan

>  <BAO Label>  (58) 
nan

$$$$

     RDKit          2D

 21 23  0  0  0  0  0  0  0  0999 V2000
    3.0000    0.0000    0.0000 N   0  0  0  0  0  0  0  0  0  0  0  0
    1.5000    0.0000    0.0000 C   0  0  0  0  0  0  0  0  0  0  0  0
    0.7500   -1.2990    0.0000 C   0  0  0  0  0  0  0  0  0  0  0  0
   -0.7500   -1.2990    0.0000 C   0  0  0  0  0  0  0  0  0  0  0  0
   -1.5000    0.0000    0.0000 C   0  0  0  0  0  0  0  0  0  0  0  0
   -3.0000    0.0000    0.0000 C   0  0  0  0  0  0  0  0  0  0  0  0
   -3.8817   -1.2135    0.0000 N   0  0  0  0  0  0  0  0  0  0  0  0
   -5.3083   -0.7500    0.0000 N   0  0  0  0  0  0  0  0  0  0  0  0
   -5.3083    0.7500    0.0000 N   0  0  0  0  0  0  0  0  0  0  0  0
   -3.8817    1.2135    0.0000 N   0  0  0  0  0  0  0  0  0  0  0  0
   -3.4182    2.6401    0.0000 C   0  0  0  0  0  0  0  0  0  0  0  0
   -4.4218    3.7548    0.0000 C   0  0  0  0  0  0  0  0  0  0  0  0
   -3.9583    5.1814    0.0000 C   0  0  0  0  0  0  0  0  0  0  0  0
   -4.9620    6.2961    0.0000 C   0  0  0  0  0  0  0  0  0  0  0  0
   -6.4292    5.9843    0.0000 C   0  0  0  0  0  0  0  0  0  0  0  0
   -7.4329    7.0990    0.0000 F   0  0  0  0  0  0  0  0  0  0  0  0
   -6.8928    4.5577    0.0000 C   0  0  0  0  0  0  0  0  0  0  0  0
   -5.8891    3.4430    0.0000 C   0  0  0  0  0  0  0  0  0  0  0  0
   -6.3526    2.0164    0.0000 F   0  0  0  0  0  0  0  0  0  0  0  0
   -0.7500    1.2990    0.0000 C   0  0  0  0  0  0  0  0  0  0  0  0
    0.7500    1.2990    0.0000 C   0  0  0  0  0  0  0  0  0  0  0  0
  1  2  1  0
  2  3  2  0
  3  4  1  0
  4  5  2  0
  5  6  1  0
  6  7  2  0
  7  8  1  0
  8  9  2  0
  9 10  1  0
 10 11  1  0
 11 12  1  0
 12 13  2  0
 13 14  1  0
 14 15  2  0
 15 16  1  0
 15 17  1  0
 17 18  2  0
 18 19  1  0
  5 20  1  0
 20 21  2  0
 21  2  1  0
 10  6  1  0
 18 12  1  0
M  END
>  <Compound_ID>  (59) 
C51017748

>  <Active>  (59) 
0

>  <Smiles>  (59) 
Nc1ccc(-c2nnnn2Cc2ccc(F)cc2F)cc1

>  <canonical_smi>  (59) 
Nc1ccc(-c2nnnn2Cc2ccc(F)cc2F)cc1

>  <Set>  (59) 
G2 inactive

>  <Set_type>  (59) 
Train

>  <MW>  (59) 
287.27

>  <HBD>  (59) 
1

>  <HBA>  (59) 
4

>  <NRB>  (59) 
3

>  <NR>  (59) 
3

>  <NAR>  (59) 
3

>  <PSA>  (59) 
69.62

>  <Standard Type>  (59) 
nan

>  <Standard Relation>  (59) 
nan

>  <Standard Units>  (59) 
nan

>  <Standard Value>  (59) 
nan

>  <Assay ChEMBL ID>  (59) 
nan

>  <Assay Description>  (59) 
nan

>  <BAO Label>  (59) 
nan

$$$$

     RDKit          2D

 20 21  0  0  0  0  0  0  0  0999 V2000
    3.7500   -1.2990    0.0000 C   0  0  0  0  0  0  0  0  0  0  0  0
    3.0000    0.0000    0.0000 N   0  0  0  0  0  0  0  0  0  0  0  0
    1.5000    0.0000    0.0000 C   0  0  0  0  0  0  0  0  0  0  0  0
    0.7500   -1.2990    0.0000 N   0  0  0  0  0  0  0  0  0  0  0  0
   -0.7500   -1.2990    0.0000 C   0  0  0  0  0  0  0  0  0  0  0  0
   -1.5000   -2.5981    0.0000 C   0  0  0  0  0  0  0  0  0  0  0  0
   -0.8899   -3.9684    0.0000 C   0  0  0  0  0  0  0  0  0  0  0  0
    0.5773   -4.2803    0.0000 C   0  0  0  0  0  0  0  0  0  0  0  0
   -2.0046   -4.9721    0.0000 N   0  0  0  0  0  0  0  0  0  0  0  0
   -3.3037   -4.2221    0.0000 N   0  0  0  0  0  0  0  0  0  0  0  0
   -4.6740   -4.8322    0.0000 C   0  0  0  0  0  0  0  0  0  0  0  0
   -2.9918   -2.7549    0.0000 C   0  0  0  0  0  0  0  0  0  0  0  0
   -3.9955   -1.6402    0.0000 C   0  0  0  0  0  0  0  0  0  0  0  0
   -1.5000    0.0000    0.0000 N   0  0  0  0  0  0  0  0  0  0  0  0
   -0.7500    1.2990    0.0000 C   0  0  0  0  0  0  0  0  0  0  0  0
   -1.5000    2.5981    0.0000 C   0  0  0  0  0  0  0  0  0  0  0  0
    0.7500    1.2990    0.0000 C   0  0  0  0  0  0  0  0  0  0  0  0
    1.5000    2.5981    0.0000 C   0  0  0  0  0  0  0  0  0  0  0  0
    3.0000    2.5981    0.0000 C   0  0  0  0  0  0  0  0  0  0  0  0
    0.7500    3.8971    0.0000 C   0  0  0  0  0  0  0  0  0  0  0  0
  1  2  1  0
  2  3  1  0
  3  4  2  0
  4  5  1  0
  5  6  1  0
  6  7  1  0
  7  8  1  0
  7  9  2  0
  9 10  1  0
 10 11  1  0
 10 12  1  0
 12 13  1  0
  5 14  2  0
 14 15  1  0
 15 16  1  0
 15 17  2  0
 17 18  1  0
 18 19  1  0
 18 20  1  0
 17  3  1  0
 12  6  2  0
M  END
>  <Compound_ID>  (60) 
C61687520

>  <Active>  (60) 
0

>  <Smiles>  (60) 
CNc1nc(-c2c(C)nn(C)c2C)nc(C)c1C(C)C

>  <canonical_smi>  (60) 
CNc1nc(-c2c(C)nn(C)c2C)nc(C)c1C(C)C

>  <Set>  (60) 
G2 inactive

>  <Set_type>  (60) 
Train

>  <MW>  (60) 
273.38

>  <HBD>  (60) 
1

>  <HBA>  (60) 
4

>  <NRB>  (60) 
3

>  <NR>  (60) 
2

>  <NAR>  (60) 
2

>  <PSA>  (60) 
55.63

>  <Standard Type>  (60) 
nan

>  <Standard Relation>  (60) 
nan

>  <Standard Units>  (60) 
nan

>  <Standard Value>  (60) 
nan

>  <Assay ChEMBL ID>  (60) 
nan

>  <Assay Description>  (60) 
nan

>  <BAO Label>  (60) 
nan

$$$$

     RDKit          2D

 20 23  0  0  0  0  0  0  0  0999 V2000
   -0.0967    5.1517    0.0000 O   0  0  0  0  0  0  0  0  0  0  0  0
   -0.4086    3.6844    0.0000 C   0  0  0  0  0  0  0  0  0  0  0  0
   -1.8351    3.2209    0.0000 C   0  0  0  0  0  0  0  0  0  0  0  0
   -2.1470    1.7537    0.0000 C   0  0  0  0  0  0  0  0  0  0  0  0
   -3.5736    1.2902    0.0000 C   0  0  0  0  0  0  0  0  0  0  0  0
   -4.0371   -0.1364    0.0000 C   0  0  0  0  0  0  0  0  0  0  0  0
   -5.5371   -0.1364    0.0000 C   0  0  0  0  0  0  0  0  0  0  0  0
   -6.0006    1.2902    0.0000 C   0  0  0  0  0  0  0  0  0  0  0  0
   -4.7871    2.1718    0.0000 C   0  0  0  0  0  0  0  0  0  0  0  0
   -1.0323    0.7500    0.0000 C   0  0  0  0  0  0  0  0  0  0  0  0
    0.3943    1.2135    0.0000 C   0  0  0  0  0  0  0  0  0  0  0  0
    1.2760    0.0000    0.0000 N   0  0  0  0  0  0  0  0  0  0  0  0
    0.3943   -1.2135    0.0000 N   0  0  0  0  0  0  0  0  0  0  0  0
   -1.0323   -0.7500    0.0000 C   0  0  0  0  0  0  0  0  0  0  0  0
   -2.2458   -1.6317    0.0000 C   0  0  0  0  0  0  0  0  0  0  0  0
   -2.2458   -3.1317    0.0000 C   0  0  0  0  0  0  0  0  0  0  0  0
   -3.6724   -3.5952    0.0000 C   0  0  0  0  0  0  0  0  0  0  0  0
   -4.5541   -2.3817    0.0000 C   0  0  0  0  0  0  0  0  0  0  0  0
   -3.6724   -1.1682    0.0000 O   0  0  0  0  0  0  0  0  0  0  0  0
    0.7062    2.6807    0.0000 N   0  0  0  0  0  0  0  0  0  0  0  0
  1  2  2  0
  2  3  1  0
  3  4  1  0
  4  5  1  6
  5  6  1  0
  6  7  1  0
  7  8  1  0
  8  9  1  0
  4 10  1  0
 10 11  1  0
 11 12  2  0
 12 13  1  0
 13 14  2  0
 14 15  1  0
 15 16  2  0
 16 17  1  0
 17 18  2  0
 18 19  1  0
 11 20  1  0
 20  2  1  0
  9  5  1  0
 10 14  1  1
 19 15  1  0
M  END
>  <Compound_ID>  (61) 
C65374437

>  <Active>  (61) 
0

>  <Smiles>  (61) 
O=C1C[C@@H](C2CCCC2)[C@H]2C(=NN=C2c2ccco2)N1

>  <canonical_smi>  (61) 
O=C1C[C@@H](C2CCCC2)[C@H]2C(=NN=C2c2ccco2)N1

>  <Set>  (61) 
G2 inactive

>  <Set_type>  (61) 
Train

>  <MW>  (61) 
271.32

>  <HBD>  (61) 
1

>  <HBA>  (61) 
2

>  <NRB>  (61) 
2

>  <NR>  (61) 
4

>  <NAR>  (61) 
1

>  <PSA>  (61) 
66.96

>  <Standard Type>  (61) 
nan

>  <Standard Relation>  (61) 
nan

>  <Standard Units>  (61) 
nan

>  <Standard Value>  (61) 
nan

>  <Assay ChEMBL ID>  (61) 
nan

>  <Assay Description>  (61) 
nan

>  <BAO Label>  (61) 
nan

$$$$

     RDKit          2D

 20 22  0  0  0  0  0  0  0  0999 V2000
   -0.0000   -5.1073    0.0000 C   0  0  0  0  0  0  0  0  0  0  0  0
   -0.0000   -3.6073    0.0000 C   0  0  0  0  0  0  0  0  0  0  0  0
    1.2135   -2.7256    0.0000 C   0  0  0  0  0  0  0  0  0  0  0  0
    0.7500   -1.2990    0.0000 C   0  0  0  0  0  0  0  0  0  0  0  0
    1.5000    0.0000    0.0000 C   0  0  0  0  0  0  0  0  0  0  0  0
    0.7500    1.2990    0.0000 C   0  0  0  0  0  0  0  0  0  0  0  0
    1.5000    2.5981    0.0000 C   0  0  0  0  0  0  0  0  0  0  0  0
    0.7500    3.8971    0.0000 N   0  0  0  0  0  4  0  0  0  0  0  0
    3.0000    2.5981    0.0000 C   0  0  0  0  0  0  0  0  0  0  0  0
    3.7500    1.2990    0.0000 C   0  0  0  0  0  0  0  0  0  0  0  0
    5.2500    1.2990    0.0000 C   0  0  0  0  0  0  0  0  0  0  0  0
    6.0000   -0.0000    0.0000 F   0  0  0  0  0  0  0  0  0  0  0  0
    6.0000    2.5981    0.0000 C   0  0  0  0  0  0  0  0  0  0  0  0
    5.2500    3.8971    0.0000 C   0  0  0  0  0  0  0  0  0  0  0  0
    6.0000    5.1962    0.0000 Br  0  0  0  0  0  0  0  0  0  0  0  0
    3.7500    3.8971    0.0000 C   0  0  0  0  0  0  0  0  0  0  0  0
   -0.7500    1.2990    0.0000 C   0  0  0  0  0  0  0  0  0  0  0  0
   -1.5000    0.0000    0.0000 C   0  0  0  0  0  0  0  0  0  0  0  0
   -0.7500   -1.2990    0.0000 C   0  0  0  0  0  0  0  0  0  0  0  0
   -1.2135   -2.7256    0.0000 O   0  0  0  0  0  0  0  0  0  0  0  0
  2  1  1  6
  2  3  1  0
  3  4  1  0
  4  5  2  0
  5  6  1  0
  6  7  1  0
  7  8  1  6
  7  9  1  0
  9 10  2  0
 10 11  1  0
 11 12  1  0
 11 13  2  0
 13 14  1  0
 14 15  1  0
 14 16  2  0
  6 17  2  0
 17 18  1  0
 18 19  2  0
 19 20  1  0
 20  2  1  0
 19  4  1  0
 16  9  1  0
M  CHG  1   8   1
M  END
>  <Compound_ID>  (62) 
C37176224

>  <Active>  (62) 
0

>  <Smiles>  (62) 
C[C@H]1Cc2cc([C@H]([NH3+])c3cc(F)cc(Br)c3)ccc2O1

>  <canonical_smi>  (62) 
C[C@H]1Cc2cc([C@H]([NH3+])c3cc(F)cc(Br)c3)ccc2O1

>  <Set>  (62) 
G2 inactive

>  <Set_type>  (62) 
Train

>  <MW>  (62) 
337.21

>  <HBD>  (62) 
1

>  <HBA>  (62) 
1

>  <NRB>  (62) 
2

>  <NR>  (62) 
3

>  <NAR>  (62) 
2

>  <PSA>  (62) 
36.87

>  <Standard Type>  (62) 
nan

>  <Standard Relation>  (62) 
nan

>  <Standard Units>  (62) 
nan

>  <Standard Value>  (62) 
nan

>  <Assay ChEMBL ID>  (62) 
nan

>  <Assay Description>  (62) 
nan

>  <BAO Label>  (62) 
nan

$$$$

     RDKit          2D

 18 19  0  0  0  0  0  0  0  0999 V2000
   -1.1682   -1.2570    0.0000 C   0  0  0  0  0  0  0  0  0  0  0  0
   -1.6317   -2.6836    0.0000 C   0  0  0  0  0  0  0  0  0  0  0  0
   -3.0583   -3.1471    0.0000 C   0  0  0  0  0  0  0  0  0  0  0  0
   -3.0583   -4.6471    0.0000 C   0  0  0  0  0  0  0  0  0  0  0  0
   -1.6317   -5.1106    0.0000 S   0  0  0  0  0  0  0  0  0  0  0  0
   -0.7500   -3.8971    0.0000 C   0  0  0  0  0  0  0  0  0  0  0  0
    0.7500   -3.8971    0.0000 C   0  0  0  0  0  0  0  0  0  0  0  0
    1.5000   -2.5981    0.0000 O   0  0  0  0  0  0  0  0  0  0  0  0
    3.0000   -2.5981    0.0000 C   0  0  0  0  0  0  0  0  0  0  0  0
    3.7500   -3.8971    0.0000 C   0  0  0  0  0  0  0  0  0  0  0  0
    5.2500   -3.8971    0.0000 C   0  0  0  0  0  0  0  0  0  0  0  0
    6.0000   -2.5981    0.0000 C   0  0  0  0  0  0  0  0  0  0  0  0
    5.2500   -1.2990    0.0000 C   0  0  0  0  0  0  0  0  0  0  0  0
    3.7500   -1.2990    0.0000 C   0  0  0  0  0  0  0  0  0  0  0  0
    3.0000   -0.0000    0.0000 I   0  0  0  0  0  0  0  0  0  0  0  0
    1.5000   -5.1962    0.0000 C   0  0  0  0  0  0  0  0  0  0  0  0
    0.7500   -6.4952    0.0000 C   0  0  0  0  0  0  0  0  0  0  0  0
    3.0000   -5.1962    0.0000 N   0  0  0  0  0  4  0  0  0  0  0  0
  1  2  1  0
  2  3  1  0
  3  4  2  0
  4  5  1  0
  5  6  1  0
  6  7  1  0
  7  8  1  1
  8  9  1  0
  9 10  2  0
 10 11  1  0
 11 12  2  0
 12 13  1  0
 13 14  2  0
 14 15  1  0
  7 16  1  0
 16 17  1  1
 16 18  1  0
  6  2  2  0
 14  9  1  0
M  CHG  1  18   1
M  END
>  <Compound_ID>  (63) 
C43250343

>  <Active>  (63) 
0

>  <Smiles>  (63) 
Cc1ccsc1[C@@H](Oc1ccccc1I)[C@H](C)[NH3+]

>  <canonical_smi>  (63) 
Cc1ccsc1[C@@H](Oc1ccccc1I)[C@H](C)[NH3+]

>  <Set>  (63) 
G2 inactive

>  <Set_type>  (63) 
Train

>  <MW>  (63) 
374.27

>  <HBD>  (63) 
1

>  <HBA>  (63) 
1

>  <NRB>  (63) 
4

>  <NR>  (63) 
2

>  <NAR>  (63) 
2

>  <PSA>  (63) 
36.87

>  <Standard Type>  (63) 
nan

>  <Standard Relation>  (63) 
nan

>  <Standard Units>  (63) 
nan

>  <Standard Value>  (63) 
nan

>  <Assay ChEMBL ID>  (63) 
nan

>  <Assay Description>  (63) 
nan

>  <BAO Label>  (63) 
nan

$$$$

     RDKit          2D

 19 20  0  0  0  0  0  0  0  0999 V2000
    1.0225   -9.6721    0.0000 O   0  0  0  0  0  0  0  0  0  0  0  0
   -0.3478   -9.0619    0.0000 C   0  0  0  0  0  0  0  0  0  0  0  0
   -1.5613   -9.9436    0.0000 O   0  0  0  0  0  1  0  0  0  0  0  0
   -0.5046   -7.5702    0.0000 C   0  0  0  0  0  0  0  0  0  0  0  0
    0.6101   -6.5665    0.0000 C   0  0  0  0  0  0  0  0  0  0  0  0
   -0.0000   -5.1962    0.0000 C   0  0  0  0  0  0  0  0  0  0  0  0
    0.7500   -3.8971    0.0000 S   0  0  0  0  0  0  0  0  0  0  0  0
   -0.5490   -3.1471    0.0000 O   0  0  0  0  0  0  0  0  0  0  0  0
    2.0490   -4.6471    0.0000 O   0  0  0  0  0  0  0  0  0  0  0  0
    1.5000   -2.5981    0.0000 N   0  0  0  0  0  2  0  0  0  0  0  0
    0.7500   -1.2990    0.0000 C   0  0  0  0  0  0  0  0  0  0  0  0
    1.5000    0.0000    0.0000 C   0  0  0  0  0  0  0  0  0  0  0  0
    0.7500    1.2990    0.0000 C   0  0  0  0  0  0  0  0  0  0  0  0
   -0.7500    1.2990    0.0000 C   0  0  0  0  0  0  0  0  0  0  0  0
   -1.5000    0.0000    0.0000 C   0  0  0  0  0  0  0  0  0  0  0  0
   -0.7500   -1.2990    0.0000 C   0  0  0  0  0  0  0  0  0  0  0  0
   -1.5000   -2.5981    0.0000 I   0  0  0  0  0  0  0  0  0  0  0  0
   -1.4918   -5.3529    0.0000 C   0  0  0  0  0  0  0  0  0  0  0  0
   -1.8037   -6.8202    0.0000 N   0  0  0  0  0  4  0  0  0  0  0  0
  1  2  2  0
  2  3  1  0
  2  4  1  0
  4  5  2  0
  5  6  1  0
  6  7  1  6
  7  8  2  0
  7  9  2  0
  7 10  1  0
 10 11  1  0
 11 12  2  0
 12 13  1  0
 13 14  2  0
 14 15  1  0
 15 16  2  0
 16 17  1  0
  6 18  1  0
 18 19  2  0
 19  4  1  0
 16 11  1  0
M  CHG  3   3  -1  10  -1  19   1
M  END
>  <Compound_ID>  (64) 
C39578649

>  <Active>  (64) 
0

>  <Smiles>  (64) 
O=C([O-])C1=C[C@@H](S(=O)(=O)[N-]c2ccccc2I)C=[NH+]1

>  <canonical_smi>  (64) 
O=C([O-])C1=C[C@@H](S(=O)(=O)[N-]c2ccccc2I)C=[NH+]1

>  <Set>  (64) 
G2 inactive

>  <Set_type>  (64) 
Train

>  <MW>  (64) 
391.17

>  <HBD>  (64) 
1

>  <HBA>  (64) 
4

>  <NRB>  (64) 
4

>  <NR>  (64) 
2

>  <NAR>  (64) 
1

>  <PSA>  (64) 
102.34

>  <Standard Type>  (64) 
nan

>  <Standard Relation>  (64) 
nan

>  <Standard Units>  (64) 
nan

>  <Standard Value>  (64) 
nan

>  <Assay ChEMBL ID>  (64) 
nan

>  <Assay Description>  (64) 
nan

>  <BAO Label>  (64) 
nan

$$$$

     RDKit          2D

 21 22  0  0  0  0  0  0  0  0999 V2000
    3.0000   -5.1962    0.0000 O   0  0  0  0  0  0  0  0  0  0  0  0
    1.5000   -5.1962    0.0000 C   0  0  0  0  0  0  0  0  0  0  0  0
    0.7500   -6.4952    0.0000 O   0  0  0  0  0  1  0  0  0  0  0  0
    0.7500   -3.8971    0.0000 C   0  0  0  0  0  0  0  0  0  0  0  0
    1.5000   -2.5981    0.0000 N   0  0  0  0  0  0  0  0  0  0  0  0
    0.7500   -1.2990    0.0000 C   0  0  0  0  0  0  0  0  0  0  0  0
    1.5000    0.0000    0.0000 C   0  0  0  0  0  0  0  0  0  0  0  0
    0.7500    1.2990    0.0000 C   0  0  0  0  0  0  0  0  0  0  0  0
   -0.7500    1.2990    0.0000 C   0  0  0  0  0  0  0  0  0  0  0  0
   -1.5000    2.5981    0.0000 O   0  0  0  0  0  0  0  0  0  0  0  0
   -1.5000    0.0000    0.0000 C   0  0  0  0  0  0  0  0  0  0  0  0
   -0.7500   -1.2990    0.0000 C   0  0  0  0  0  0  0  0  0  0  0  0
    3.0000   -2.5981    0.0000 S   0  0  0  0  0  0  0  0  0  0  0  0
    3.0000   -1.0981    0.0000 O   0  0  0  0  0  0  0  0  0  0  0  0
    3.0000   -4.0981    0.0000 O   0  0  0  0  0  0  0  0  0  0  0  0
    4.5000   -2.5981    0.0000 C   0  0  0  0  0  0  0  0  0  0  0  0
    5.3817   -1.3846    0.0000 S   0  0  0  0  0  0  0  0  0  0  0  0
    6.8083   -1.8481    0.0000 C   0  0  0  0  0  0  0  0  0  0  0  0
    6.8083   -3.3481    0.0000 C   0  0  0  0  0  0  0  0  0  0  0  0
    5.3817   -3.8116    0.0000 C   0  0  0  0  0  0  0  0  0  0  0  0
    4.9182   -5.2382    0.0000 Br  0  0  0  0  0  0  0  0  0  0  0  0
  1  2  2  0
  2  3  1  0
  2  4  1  0
  4  5  1  0
  5  6  1  0
  6  7  2  0
  7  8  1  0
  8  9  2  0
  9 10  1  0
  9 11  1  0
 11 12  2  0
  5 13  1  0
 13 14  2  0
 13 15  2  0
 13 16  1  0
 16 17  1  0
 17 18  1  0
 18 19  2  0
 19 20  1  0
 20 21  1  0
 12  6  1  0
 20 16  2  0
M  CHG  1   3  -1
M  END
>  <Compound_ID>  (65) 
C49060837

>  <Active>  (65) 
0

>  <Smiles>  (65) 
O=C([O-])CN(c1ccc(O)cc1)S(=O)(=O)c1sccc1Br

>  <canonical_smi>  (65) 
O=C([O-])CN(c1ccc(O)cc1)S(=O)(=O)c1sccc1Br

>  <Set>  (65) 
G2 inactive

>  <Set_type>  (65) 
Train

>  <MW>  (65) 
391.24

>  <HBD>  (65) 
1

>  <HBA>  (65) 
5

>  <NRB>  (65) 
5

>  <NR>  (65) 
2

>  <NAR>  (65) 
2

>  <PSA>  (65) 
97.74

>  <Standard Type>  (65) 
nan

>  <Standard Relation>  (65) 
nan

>  <Standard Units>  (65) 
nan

>  <Standard Value>  (65) 
nan

>  <Assay ChEMBL ID>  (65) 
nan

>  <Assay Description>  (65) 
nan

>  <BAO Label>  (65) 
nan

$$$$

     RDKit          2D

 36 39  0  0  0  0  0  0  0  0999 V2000
    3.7500    1.2990    0.0000 N   0  0  0  0  0  0  0  0  0  0  0  0
    3.0000   -0.0000    0.0000 C   0  0  0  0  0  0  0  0  0  0  0  0
    2.2500   -1.2990    0.0000 C   0  0  0  0  0  0  0  0  0  0  0  0
    3.0000   -2.5981    0.0000 C   0  0  0  0  0  0  0  0  0  0  0  0
    4.5000   -2.5981    0.0000 S   0  0  0  0  0  0  0  0  0  0  0  0
    5.2500   -3.8971    0.0000 C   0  0  0  0  0  0  0  0  0  0  0  0
    6.7500   -3.8971    0.0000 C   0  0  0  0  0  0  0  0  0  0  0  0
    7.5000   -5.1962    0.0000 S   0  0  0  0  0  0  0  0  0  0  0  0
    9.0000   -5.1962    0.0000 C   0  0  0  0  0  0  0  0  0  0  0  0
    9.7500   -3.8971    0.0000 N   0  0  0  0  0  0  0  0  0  0  0  0
   11.2500   -3.8971    0.0000 C   0  0  0  0  0  0  0  0  0  0  0  0
   12.0000   -2.5981    0.0000 O   0  0  0  0  0  0  0  0  0  0  0  0
   12.0000   -5.1962    0.0000 C   0  0  0  0  0  0  0  0  0  0  0  0
   13.5000   -5.1962    0.0000 C   0  0  0  0  0  0  0  0  0  0  0  0
   15.0000   -5.1962    0.0000 N   0  0  0  0  0  0  0  0  0  0  0  0
   11.2500   -6.4952    0.0000 C   0  0  0  0  0  0  0  0  0  0  0  0
   12.7500   -6.4952    0.0000 C   0  0  0  0  0  0  0  0  0  0  0  0
   13.5000   -7.7942    0.0000 C   0  0  0  0  0  0  0  0  0  0  0  0
   12.7500   -9.0933    0.0000 C   0  0  0  0  0  0  0  0  0  0  0  0
   11.2500   -9.0933    0.0000 C   0  0  0  0  0  0  0  0  0  0  0  0
   10.5000   -7.7942    0.0000 C   0  0  0  0  0  0  0  0  0  0  0  0
    9.7500   -6.4952    0.0000 C   0  0  0  0  0  0  0  0  0  0  0  0
    9.0000   -7.7942    0.0000 C   0  0  0  0  0  0  0  0  0  0  0  0
    8.2500   -9.0933    0.0000 N   0  0  0  0  0  0  0  0  0  0  0  0
    2.2500   -3.8971    0.0000 N   0  0  0  0  0  0  0  0  0  0  0  0
    0.7500   -3.8971    0.0000 C   0  0  0  0  0  0  0  0  0  0  0  0
   -0.0000   -5.1962    0.0000 O   0  0  0  0  0  0  0  0  0  0  0  0
   -0.0000   -2.5981    0.0000 C   0  0  0  0  0  0  0  0  0  0  0  0
   -1.5000   -2.5981    0.0000 C   0  0  0  0  0  0  0  0  0  0  0  0
   -3.0000   -2.5981    0.0000 N   0  0  0  0  0  0  0  0  0  0  0  0
    0.7500   -1.2990    0.0000 C   0  0  0  0  0  0  0  0  0  0  0  0
    1.5000    0.0000    0.0000 C   0  0  0  0  0  0  0  0  0  0  0  0
    0.7500    1.2990    0.0000 C   0  0  0  0  0  0  0  0  0  0  0  0
   -0.7500    1.2990    0.0000 C   0  0  0  0  0  0  0  0  0  0  0  0
   -1.5000    0.0000    0.0000 C   0  0  0  0  0  0  0  0  0  0  0  0
   -0.7500   -1.2990    0.0000 C   0  0  0  0  0  0  0  0  0  0  0  0
  1  2  3  0
  3  2  1  6
  3  4  1  0
  4  5  1  0
  5  6  1  0
  6  7  1  0
  7  8  1  0
  8  9  1  0
  9 10  2  0
 10 11  1  0
 11 12  2  0
 11 13  1  0
 13 14  1  6
 14 15  3  0
 13 16  1  0
 16 17  1  0
 17 18  1  0
 18 19  1  0
 19 20  1  0
 20 21  1  0
 16 22  1  0
 22 23  1  1
 23 24  3  0
  4 25  2  0
 25 26  1  0
 26 27  2  0
 26 28  1  0
 28 29  1  6
 29 30  3  0
 28 31  1  0
 31 32  1  0
 32 33  1  0
 33 34  1  0
 34 35  1  0
 35 36  1  0
 31  3  1  0
 22  9  1  0
 36 31  1  0
 21 16  1  0
M  END
>  <Compound_ID>  (66) 
C64165009

>  <Active>  (66) 
0

>  <Smiles>  (66) 
N#C[C@@H]1C(SCCSC2=NC(=O)[C@H](C#N)C3(CCCCC3)[C@H]2C#N)=NC(=O)[C@H](C#N)C12CCCCC2

>  <canonical_smi>  (66) 
N#C[C@H]1C(=O)N=C(SCCSC2=NC(=O)[C@H](C#N)C3(CCCCC3)[C@@H]2C#N)[C@H](C#N)C12CCCCC2

>  <Set>  (66) 
G2 inactive

>  <Set_type>  (66) 
Train

>  <MW>  (66) 
520.68

>  <HBD>  (66) 
0

>  <HBA>  (66) 
8

>  <NRB>  (66) 
3

>  <NR>  (66) 
4

>  <NAR>  (66) 
0

>  <PSA>  (66) 
154.02

>  <Standard Type>  (66) 
nan

>  <Standard Relation>  (66) 
nan

>  <Standard Units>  (66) 
nan

>  <Standard Value>  (66) 
nan

>  <Assay ChEMBL ID>  (66) 
nan

>  <Assay Description>  (66) 
nan

>  <BAO Label>  (66) 
nan

$$$$

     RDKit          2D

 35 41  0  0  0  0  0  0  0  0999 V2000
    0.3443   11.5830    0.0000 C   0  0  0  0  0  0  0  0  0  0  0  0
    1.7638   11.0982    0.0000 C   0  0  0  0  0  0  0  0  0  0  0  0
    2.9904   11.9616    0.0000 C   0  0  0  0  0  0  0  0  0  0  0  0
    4.1906   11.0619    0.0000 C   0  0  0  0  0  0  0  0  0  0  0  0
    3.7058    9.6424    0.0000 N   0  0  0  0  0  4  0  0  0  0  0  0
    4.4362    8.3323    0.0000 C   0  0  0  0  0  0  0  0  0  0  0  0
    3.6669    7.0446    0.0000 C   0  0  0  0  0  0  0  0  0  0  0  0
    4.1090    5.6112    0.0000 C   0  0  0  0  0  0  0  0  0  0  0  0
    2.8825    4.7478    0.0000 C   0  0  0  0  0  0  0  0  0  0  0  0
    4.0827    3.8481    0.0000 C   0  0  0  0  0  0  0  0  0  0  0  0
    5.5160    4.2902    0.0000 O   0  0  0  0  0  0  0  0  0  0  0  0
    3.5978    2.4286    0.0000 N   0  0  0  0  0  0  0  0  0  0  0  0
    2.0980    2.4510    0.0000 C   0  0  0  0  0  0  0  0  0  0  0  0
    1.6559    3.8844    0.0000 C   0  0  0  0  0  0  0  0  0  0  0  0
    0.1935    4.2182    0.0000 C   0  0  0  0  0  0  0  0  0  0  0  0
   -0.8268    3.1186    0.0000 C   0  0  0  0  0  0  0  0  0  0  0  0
   -0.3846    1.6852    0.0000 C   0  0  0  0  0  0  0  0  0  0  0  0
    1.0777    1.3515    0.0000 C   0  0  0  0  0  0  0  0  0  0  0  0
    1.7286    0.0000    0.0000 O   0  0  0  0  0  0  0  0  0  0  0  0
    1.0777   -1.3515    0.0000 C   0  0  0  0  0  0  0  0  0  0  0  0
   -0.3846   -1.6852    0.0000 C   0  0  0  0  0  0  0  0  0  0  0  0
   -1.5574   -0.7500    0.0000 C   0  0  0  0  0  0  0  0  0  0  0  0
   -2.2082   -2.1015    0.0000 C   0  0  0  0  0  0  0  0  0  0  0  0
   -3.0198   -0.4162    0.0000 C   0  0  0  0  0  0  0  0  0  0  0  0
   -1.5574    0.7500    0.0000 O   0  0  0  0  0  0  0  0  0  0  0  0
    1.6823    5.6475    0.0000 C   0  0  0  0  0  0  0  0  0  0  0  0
    0.9129    4.3599    0.0000 C   0  0  0  0  0  0  0  0  0  0  0  0
    0.3212    6.2781    0.0000 C   0  0  0  0  0  0  0  0  0  0  0  0
    2.1671    7.0670    0.0000 C   0  0  0  0  0  0  0  0  0  0  0  0
    1.4366    8.3772    0.0000 C   0  0  0  0  0  0  0  0  0  0  0  0
    2.2059    9.6648    0.0000 C   0  0  0  0  0  0  0  0  0  0  0  0
    2.6502    8.9716    0.0000 C   0  0  0  0  0  0  0  0  0  0  0  0
    3.2472    9.4613    0.0000 O   0  0  0  0  0  0  0  0  0  0  0  0
    3.3107    7.7870    0.0000 N   0  0  0  0  0  0  0  0  0  0  0  0
    5.9361    8.3098    0.0000 C   0  0  0  0  0  0  0  0  0  0  0  0
  2  1  1  1
  2  3  1  0
  3  4  1  0
  4  5  1  0
  5  6  1  0
  6  7  1  0
  7  8  1  1
  9  8  1  6
  9 10  1  0
 10 11  2  0
 10 12  1  0
 12 13  1  0
 13 14  2  0
 14 15  1  0
 15 16  2  0
 16 17  1  0
 17 18  2  0
 18 19  1  0
 19 20  1  0
 20 21  2  0
 21 22  1  0
 22 23  1  0
 22 24  1  0
 22 25  1  0
  9 26  1  0
 26 27  1  0
 26 28  1  0
 29 26  1  1
 29 30  1  0
 31 30  1  6
 31 32  1  0
 32 33  2  0
 32 34  1  0
 34 35  1  0
 31  2  1  0
 31  5  1  0
 29  7  1  0
 34  7  1  0
 14  9  1  0
 25 17  1  0
 18 13  1  0
M  CHG  1   5   1
M  END
>  <Compound_ID>  (67) 
C37538575

>  <Active>  (67) 
0

>  <Smiles>  (67) 
C[C@H]1CC[NH+]2C[C@]34C[C@@]5(C(=O)Nc6c5ccc5c6OC=CC(C)(C)O5)C(C)(C)[C@H]3C[C@]12C(=O)N4C

>  <canonical_smi>  (67) 
C[C@H]1CC[NH+]2C[C@]34C[C@@]5(C(=O)Nc6c5ccc5c6OC=CC(C)(C)O5)C(C)(C)[C@H]3C[C@]12C(=O)N4C

>  <Set>  (67) 
G2 inactive

>  <Set_type>  (67) 
Train

>  <MW>  (67) 
478.61

>  <HBD>  (67) 
2

>  <HBA>  (67) 
4

>  <NRB>  (67) 
0

>  <NR>  (67) 
8

>  <NAR>  (67) 
1

>  <PSA>  (67) 
72.31

>  <Standard Type>  (67) 
nan

>  <Standard Relation>  (67) 
nan

>  <Standard Units>  (67) 
nan

>  <Standard Value>  (67) 
nan

>  <Assay ChEMBL ID>  (67) 
nan

>  <Assay Description>  (67) 
nan

>  <BAO Label>  (67) 
nan

$$$$

     RDKit          2D

 27 29  0  0  0  0  0  0  0  0999 V2000
    3.0000    0.0000    0.0000 C   0  0  0  0  0  0  0  0  0  0  0  0
    1.5000    0.0000    0.0000 C   0  0  0  0  0  0  0  0  0  0  0  0
    0.7500   -1.2990    0.0000 C   0  0  0  0  0  0  0  0  0  0  0  0
   -0.7500   -1.2990    0.0000 C   0  0  0  0  0  0  0  0  0  0  0  0
   -1.5000   -2.5981    0.0000 C   0  0  0  0  0  0  0  0  0  0  0  0
   -1.5000    0.0000    0.0000 C   0  0  0  0  0  0  0  0  0  0  0  0
   -0.7500    1.2990    0.0000 C   0  0  0  0  0  0  0  0  0  0  0  0
   -1.5000    2.5981    0.0000 O   0  0  0  0  0  0  0  0  0  0  0  0
   -0.7500    3.8971    0.0000 C   0  0  0  0  0  0  0  0  0  0  0  0
    0.7500    3.8971    0.0000 C   0  0  0  0  0  0  0  0  0  0  0  0
    1.5000    2.5981    0.0000 C   0  0  0  0  0  0  0  0  0  0  0  0
    3.0000    2.5981    0.0000 N   0  0  0  0  0  4  0  0  0  0  0  0
    3.7500    1.2990    0.0000 C   0  0  0  0  0  0  0  0  0  0  0  0
    5.2500    1.2990    0.0000 C   0  0  0  0  0  0  0  0  0  0  0  0
    6.0000    2.5981    0.0000 C   0  0  0  0  0  0  0  0  0  0  0  0
    5.2500    3.8971    0.0000 C   0  0  0  0  0  0  0  0  0  0  0  0
    6.0000    5.1962    0.0000 C   0  0  0  0  0  0  0  0  0  0  0  0
    6.7500    6.4952    0.0000 N   0  0  0  0  0  0  0  0  0  0  0  0
    3.7500    3.8971    0.0000 C   0  0  0  0  0  0  0  0  0  0  0  0
    1.5000    5.1962    0.0000 C   0  0  0  0  0  0  0  0  0  0  0  0
    3.0000    5.1962    0.0000 C   0  0  0  0  0  0  0  0  0  0  0  0
    0.7500    6.4952    0.0000 N   0  0  0  0  0  0  0  0  0  0  0  0
   -0.7500    6.4952    0.0000 C   0  0  0  0  0  0  0  0  0  0  0  0
   -1.5000    7.7942    0.0000 O   0  0  0  0  0  0  0  0  0  0  0  0
   -1.5000    5.1962    0.0000 C   0  0  0  0  0  0  0  0  0  0  0  0
   -3.0000    5.1962    0.0000 I   0  0  0  0  0  0  0  0  0  0  0  0
    0.7500    1.2990    0.0000 C   0  0  0  0  0  0  0  0  0  0  0  0
  1  2  1  0
  2  3  2  0
  3  4  1  0
  4  5  1  0
  4  6  2  0
  6  7  1  0
  7  8  1  0
  8  9  1  0
  9 10  1  0
 10 11  1  0
 11 12  1  0
 12 13  1  0
 13 14  1  0
 14 15  1  0
 15 16  1  0
 16 17  1  1
 17 18  3  0
 16 19  1  0
 10 20  2  0
 20 21  1  0
 20 22  1  0
 22 23  1  0
 23 24  2  0
 23 25  1  0
 25 26  1  0
  7 27  2  0
 27  2  1  0
 25  9  2  0
 19 12  1  0
M  CHG  1  12   1
M  END
>  <Compound_ID>  (68) 
C45245108

>  <Active>  (68) 
0

>  <Smiles>  (68) 
Cc1cc(C)cc(Oc2c(C[NH+]3CCC[C@H](C#N)C3)c(C)[nH]c(=O)c2I)c1

>  <canonical_smi>  (68) 
Cc1cc(C)cc(Oc2c(C[NH+]3CCC[C@H](C#N)C3)c(C)[nH]c(=O)c2I)c1

>  <Set>  (68) 
G2 inactive

>  <Set_type>  (68) 
Train

>  <MW>  (68) 
478.35

>  <HBD>  (68) 
2

>  <HBA>  (68) 
3

>  <NRB>  (68) 
4

>  <NR>  (68) 
3

>  <NAR>  (68) 
2

>  <PSA>  (68) 
70.32

>  <Standard Type>  (68) 
nan

>  <Standard Relation>  (68) 
nan

>  <Standard Units>  (68) 
nan

>  <Standard Value>  (68) 
nan

>  <Assay ChEMBL ID>  (68) 
nan

>  <Assay Description>  (68) 
nan

>  <BAO Label>  (68) 
nan

$$$$

     RDKit          2D

 29 34  0  0  0  0  0  0  0  0999 V2000
    4.4688   -0.8854    0.0000 C   0  0  0  0  0  0  0  0  0  0  0  0
    5.0788   -2.2557    0.0000 C   0  0  0  0  0  0  0  0  0  0  0  0
    6.5642   -2.0470    0.0000 C   0  0  0  0  0  0  0  0  0  0  0  0
    7.4877   -3.2290    0.0000 C   0  0  0  0  0  0  0  0  0  0  0  0
    6.9258   -4.6198    0.0000 C   0  0  0  0  0  0  0  0  0  0  0  0
    5.4404   -4.8285    0.0000 C   0  0  0  0  0  0  0  0  0  0  0  0
    4.8785   -6.2193    0.0000 C   0  0  0  0  0  0  0  0  0  0  0  0
    4.5169   -3.6465    0.0000 C   0  0  0  0  0  0  0  0  0  0  0  0
    3.0315   -3.8553    0.0000 N   0  0  0  0  0  0  0  0  0  0  0  0
    2.3273   -5.1797    0.0000 N   0  0  0  0  0  0  0  0  0  0  0  0
    0.8501   -4.9192    0.0000 N   0  0  0  0  0  0  0  0  0  0  0  0
    0.6413   -3.4338    0.0000 N   0  0  0  0  0  0  0  0  0  0  0  0
    1.9895   -2.7762    0.0000 C   0  0  0  0  0  0  0  0  0  0  0  0
    2.2500   -1.2990    0.0000 C   0  0  0  0  0  0  0  0  0  0  0  0
    3.6595   -1.8121    0.0000 N   0  0  0  0  0  0  0  0  0  0  0  0
    3.9200   -3.2893    0.0000 C   0  0  0  0  0  0  0  0  0  0  0  0
    5.3296   -3.8023    0.0000 C   0  0  0  0  0  0  0  0  0  0  0  0
    6.4786   -2.8381    0.0000 N   0  0  0  0  0  4  0  0  0  0  0  0
    6.2181   -1.3609    0.0000 C   0  0  0  0  0  0  0  0  0  0  0  0
    4.8086   -0.8479    0.0000 C   0  0  0  0  0  0  0  0  0  0  0  0
    0.7500   -1.2990    0.0000 C   0  0  0  0  0  0  0  0  0  0  0  0
    1.5000    0.0000    0.0000 C   0  0  0  0  0  0  0  0  0  0  0  0
    0.7500    1.2990    0.0000 C   0  0  0  0  0  0  0  0  0  0  0  0
   -0.7500    1.2990    0.0000 C   0  0  0  0  0  0  0  0  0  0  0  0
   -1.5000    0.0000    0.0000 C   0  0  0  0  0  0  0  0  0  0  0  0
   -0.7500   -1.2990    0.0000 C   0  0  0  0  0  0  0  0  0  0  0  0
    1.7010   -0.7500    0.0000 C   0  0  0  0  0  0  0  0  0  0  0  0
    3.0000   -0.0000    0.0000 C   0  0  0  0  0  0  0  0  0  0  0  0
    2.2500    1.2990    0.0000 C   0  0  0  0  0  0  0  0  0  0  0  0
  1  2  1  0
  2  3  2  0
  3  4  1  0
  4  5  2  0
  5  6  1  0
  6  7  1  0
  6  8  2  0
  8  9  1  0
  9 10  1  0
 10 11  2  0
 11 12  1  0
 12 13  2  0
 13 14  1  0
 14 15  1  0
 15 16  1  0
 16 17  1  0
 17 18  1  0
 18 19  1  0
 19 20  1  0
 14 21  1  0
 21 22  1  0
 22 23  1  0
 23 24  1  0
 24 25  1  0
 25 26  1  0
 25 27  1  0
 27 28  1  0
 28 29  1  0
  8  2  1  0
 13  9  1  0
 28 14  1  0
 20 15  1  0
 26 21  1  0
 29 23  1  0
M  CHG  1  18   1
M  END
>  <Compound_ID>  (69) 
C35170788

>  <Active>  (69) 
0

>  <Smiles>  (69) 
Cc1cccc(C)c1-n1nnnc1C1(N2CC[NH2+]CC2)C2CC3CC(C2)CC1C3

>  <canonical_smi>  (69) 
Cc1cccc(C)c1-n1nnnc1C1(N2CC[NH2+]CC2)C2CC3CC(C2)CC1C3

>  <Set>  (69) 
G2 inactive

>  <Set_type>  (69) 
Train

>  <MW>  (69) 
393.56

>  <HBD>  (69) 
1

>  <HBA>  (69) 
4

>  <NRB>  (69) 
3

>  <NR>  (69) 
7

>  <NAR>  (69) 
2

>  <PSA>  (69) 
63.45

>  <Standard Type>  (69) 
nan

>  <Standard Relation>  (69) 
nan

>  <Standard Units>  (69) 
nan

>  <Standard Value>  (69) 
nan

>  <Assay ChEMBL ID>  (69) 
nan

>  <Assay Description>  (69) 
nan

>  <BAO Label>  (69) 
nan

$$$$

     RDKit          2D

 28 30  0  0  0  0  0  0  0  0999 V2000
    6.4805   -8.3156    0.0000 C   0  0  0  0  0  0  0  0  0  0  0  0
    5.0539   -8.7791    0.0000 O   0  0  0  0  0  0  0  0  0  0  0  0
    3.9391   -7.7755    0.0000 C   0  0  0  0  0  0  0  0  0  0  0  0
    4.2510   -6.3082    0.0000 O   0  0  0  0  0  0  0  0  0  0  0  0
    2.5126   -8.2390    0.0000 C   0  0  0  0  0  0  0  0  0  0  0  0
    1.2990   -7.3573    0.0000 C   0  0  0  0  0  0  0  0  0  0  0  0
    1.2990   -5.8573    0.0000 N   0  0  0  0  0  0  0  0  0  0  0  0
   -0.0000   -5.1073    0.0000 C   0  0  0  0  0  0  0  0  0  0  0  0
   -1.2990   -5.8573    0.0000 O   0  0  0  0  0  0  0  0  0  0  0  0
   -0.0000   -3.6073    0.0000 C   0  0  0  0  0  0  0  0  0  0  0  0
    1.2135   -2.7256    0.0000 O   0  0  0  0  0  0  0  0  0  0  0  0
    0.7500   -1.2990    0.0000 C   0  0  0  0  0  0  0  0  0  0  0  0
    1.5000    0.0000    0.0000 C   0  0  0  0  0  0  0  0  0  0  0  0
    0.7500    1.2990    0.0000 C   0  0  0  0  0  0  0  0  0  0  0  0
    1.5000    2.5981    0.0000 C   0  0  0  0  0  0  0  0  0  0  0  0
   -0.7500    1.2990    0.0000 C   0  0  0  0  0  0  0  0  0  0  0  0
   -1.5000    2.5981    0.0000 C   0  0  0  0  0  0  0  0  0  0  0  0
   -1.5000    0.0000    0.0000 C   0  0  0  0  0  0  0  0  0  0  0  0
   -0.7500   -1.2990    0.0000 C   0  0  0  0  0  0  0  0  0  0  0  0
   -1.2135   -2.7256    0.0000 C   0  0  0  0  0  0  0  0  0  0  0  0
   -2.6401   -3.1891    0.0000 C   0  0  0  0  0  0  0  0  0  0  0  0
    0.0855   -8.2390    0.0000 S   0  0  0  0  0  0  0  0  0  0  0  0
    0.5490   -9.6656    0.0000 C   0  0  0  0  0  0  0  0  0  0  0  0
   -0.3326  -10.8791    0.0000 C   0  0  0  0  0  0  0  0  0  0  0  0
   -1.8244  -10.7223    0.0000 C   0  0  0  0  0  0  0  0  0  0  0  0
    0.2775  -12.2494    0.0000 O   0  0  0  0  0  0  0  0  0  0  0  0
    2.0490   -9.6656    0.0000 C   0  0  0  0  0  0  0  0  0  0  0  0
    2.9307  -10.8791    0.0000 C   0  0  0  0  0  0  0  0  0  0  0  0
  1  2  1  0
  2  3  1  0
  3  4  2  0
  3  5  1  0
  5  6  2  0
  6  7  1  0
  7  8  1  0
  8  9  2  0
  8 10  1  0
 10 11  1  0
 11 12  1  0
 12 13  2  0
 13 14  1  0
 14 15  1  0
 14 16  2  0
 16 17  1  0
 16 18  1  0
 18 19  2  0
 19 20  1  0
 20 21  1  0
  6 22  1  0
 22 23  1  0
 23 24  1  0
 24 25  1  0
 24 26  2  0
 23 27  2  0
 27 28  1  0
 27  5  1  0
 20 10  2  0
 19 12  1  0
M  END
>  <Compound_ID>  (70) 
C01130626

>  <Active>  (70) 
0

>  <Smiles>  (70) 
COC(=O)c1c(NC(=O)c2oc3cc(C)c(C)cc3c2C)sc(C(C)=O)c1C

>  <canonical_smi>  (70) 
COC(=O)c1c(NC(=O)c2oc3cc(C)c(C)cc3c2C)sc(C(C)=O)c1C

>  <Set>  (70) 
G2 inactive

>  <Set_type>  (70) 
Train

>  <MW>  (70) 
399.47

>  <HBD>  (70) 
1

>  <HBA>  (70) 
5

>  <NRB>  (70) 
4

>  <NR>  (70) 
3

>  <NAR>  (70) 
3

>  <PSA>  (70) 
85.61

>  <Standard Type>  (70) 
nan

>  <Standard Relation>  (70) 
nan

>  <Standard Units>  (70) 
nan

>  <Standard Value>  (70) 
nan

>  <Assay ChEMBL ID>  (70) 
nan

>  <Assay Description>  (70) 
nan

>  <BAO Label>  (70) 
nan

$$$$

     RDKit          2D

 30 34  0  0  0  0  0  0  0  0999 V2000
   -2.6401   -3.1891    0.0000 C   0  0  0  0  0  0  0  0  0  0  0  0
   -1.2135   -2.7256    0.0000 N   0  0  0  0  0  0  0  0  0  0  0  0
   -0.0000   -3.6073    0.0000 C   0  0  0  0  0  0  0  0  0  0  0  0
   -0.0000   -5.1073    0.0000 C   0  0  0  0  0  0  0  0  0  0  0  0
   -1.2990   -5.8573    0.0000 C   0  0  0  0  0  0  0  0  0  0  0  0
   -1.2990   -7.3573    0.0000 C   0  0  0  0  0  0  0  0  0  0  0  0
   -0.0000   -8.1073    0.0000 C   0  0  0  0  0  0  0  0  0  0  0  0
    1.2990   -7.3573    0.0000 C   0  0  0  0  0  0  0  0  0  0  0  0
    1.2990   -5.8573    0.0000 C   0  0  0  0  0  0  0  0  0  0  0  0
    1.2135   -2.7256    0.0000 C   0  0  0  0  0  0  0  0  0  0  0  0
    2.6401   -3.1891    0.0000 C   0  0  0  0  0  0  0  0  0  0  0  0
    3.1036   -4.6157    0.0000 C   0  0  0  0  0  0  0  0  0  0  0  0
    2.3536   -5.9148    0.0000 C   0  0  0  0  0  0  0  0  0  0  0  0
    3.1036   -7.2138    0.0000 C   0  0  0  0  0  0  0  0  0  0  0  0
    4.6036   -7.2138    0.0000 C   0  0  0  0  0  0  0  0  0  0  0  0
    5.3536   -5.9148    0.0000 C   0  0  0  0  0  0  0  0  0  0  0  0
    4.6036   -4.6157    0.0000 C   0  0  0  0  0  0  0  0  0  0  0  0
    5.0672   -3.1891    0.0000 C   0  0  0  0  0  0  0  0  0  0  0  0
    6.4937   -2.7256    0.0000 O   0  0  0  0  0  0  0  0  0  0  0  0
    3.8536   -2.3075    0.0000 N   0  0  0  0  0  0  0  0  0  0  0  0
    3.8536   -0.8075    0.0000 C   0  0  0  0  0  0  0  0  0  0  0  0
    5.1527   -0.0575    0.0000 C   0  0  0  0  0  0  0  0  0  0  0  0
    5.1527    1.4425    0.0000 N   0  0  0  0  0  0  0  0  0  0  0  0
    6.4517   -0.8075    0.0000 O   0  0  0  0  0  0  0  0  0  0  0  0
    0.7500   -1.2990    0.0000 C   0  0  0  0  0  0  0  0  0  0  0  0
    1.5000    0.0000    0.0000 C   0  0  0  0  0  0  0  0  0  0  0  0
    0.7500    1.2990    0.0000 C   0  0  0  0  0  0  0  0  0  0  0  0
   -0.7500    1.2990    0.0000 C   0  0  0  0  0  0  0  0  0  0  0  0
   -1.5000    0.0000    0.0000 C   0  0  0  0  0  0  0  0  0  0  0  0
   -0.7500   -1.2990    0.0000 C   0  0  0  0  0  0  0  0  0  0  0  0
  1  2  1  0
  2  3  1  0
  3  4  1  0
  4  5  2  0
  5  6  1  0
  6  7  2  0
  7  8  1  0
  8  9  2  0
  3 10  2  0
 11 10  1  1
 11 12  1  0
 12 13  2  0
 13 14  1  0
 14 15  2  0
 15 16  1  0
 16 17  2  0
 17 18  1  0
 18 19  2  0
 18 20  1  0
 20 21  1  0
 21 22  1  0
 22 23  1  0
 22 24  2  0
 10 25  1  0
 25 26  2  0
 26 27  1  0
 27 28  2  0
 28 29  1  0
 29 30  2  0
 30  2  1  0
  9  4  1  0
 20 11  1  0
 30 25  1  0
 17 12  1  0
M  END
>  <Compound_ID>  (71) 
C04734687

>  <Active>  (71) 
0

>  <Smiles>  (71) 
Cn1c(-c2ccccc2)c([C@@H]2c3ccccc3C(=O)N2CC(N)=O)c2ccccc21

>  <canonical_smi>  (71) 
Cn1c(-c2ccccc2)c([C@@H]2c3ccccc3C(=O)N2CC(N)=O)c2ccccc21

>  <Set>  (71) 
G2 inactive

>  <Set_type>  (71) 
Train

>  <MW>  (71) 
395.46

>  <HBD>  (71) 
1

>  <HBA>  (71) 
2

>  <NRB>  (71) 
4

>  <NR>  (71) 
5

>  <NAR>  (71) 
4

>  <PSA>  (71) 
68.33

>  <Standard Type>  (71) 
nan

>  <Standard Relation>  (71) 
nan

>  <Standard Units>  (71) 
nan

>  <Standard Value>  (71) 
nan

>  <Assay ChEMBL ID>  (71) 
nan

>  <Assay Description>  (71) 
nan

>  <BAO Label>  (71) 
nan

$$$$

     RDKit          2D

 21 23  0  0  0  0  0  0  0  0999 V2000
   -1.0344   -8.1310    0.0000 C   0  0  0  0  0  0  0  0  0  0  0  0
   -2.1491   -7.1273    0.0000 C   0  0  0  0  0  0  0  0  0  0  0  0
   -3.5757   -7.5908    0.0000 C   0  0  0  0  0  0  0  0  0  0  0  0
   -4.6904   -6.5871    0.0000 C   0  0  0  0  0  0  0  0  0  0  0  0
   -6.1170   -7.0506    0.0000 C   0  0  0  0  0  0  0  0  0  0  0  0
   -4.3786   -5.1199    0.0000 C   0  0  0  0  0  0  0  0  0  0  0  0
   -5.4933   -4.1162    0.0000 C   0  0  0  0  0  0  0  0  0  0  0  0
   -5.1814   -2.6490    0.0000 N   0  0  0  0  0  0  0  0  0  0  0  0
   -6.9199   -4.5797    0.0000 S   0  0  0  0  0  0  0  0  0  0  0  0
   -2.9520   -4.6564    0.0000 C   0  0  0  0  0  0  0  0  0  0  0  0
   -2.6401   -3.1891    0.0000 N   0  0  0  0  0  0  0  0  0  0  0  0
   -1.2135   -2.7256    0.0000 C   0  0  0  0  0  0  0  0  0  0  0  0
   -0.0000   -3.6073    0.0000 C   0  0  0  0  0  0  0  0  0  0  0  0
    1.2135   -2.7256    0.0000 C   0  0  0  0  0  0  0  0  0  0  0  0
    0.7500   -1.2990    0.0000 N   0  0  0  0  0  4  0  0  0  0  0  0
    1.5000    0.0000    0.0000 C   0  0  0  0  0  0  0  0  0  0  0  0
    0.7500    1.2990    0.0000 C   0  0  0  0  0  0  0  0  0  0  0  0
   -0.7500    1.2990    0.0000 C   0  0  0  0  0  0  0  0  0  0  0  0
   -1.5000    0.0000    0.0000 C   0  0  0  0  0  0  0  0  0  0  0  0
   -0.7500   -1.2990    0.0000 C   0  0  0  0  0  0  0  0  0  0  0  0
   -1.8373   -5.6601    0.0000 N   0  0  0  0  0  0  0  0  0  0  0  0
  1  2  1  0
  2  3  2  0
  3  4  1  0
  4  5  1  0
  4  6  2  0
  6  7  1  0
  7  8  1  0
  7  9  2  0
  6 10  1  0
 10 11  1  0
 12 11  1  6
 12 13  1  0
 13 14  1  0
 14 15  1  0
 15 16  1  0
 16 17  1  0
 17 18  1  0
 18 19  1  0
 20 19  1  1
 10 21  2  0
 21  2  1  0
 20 12  1  0
 20 15  1  0
M  CHG  1  15   1
M  END
>  <Compound_ID>  (72) 
C49570370

>  <Active>  (72) 
0

>  <Smiles>  (72) 
Cc1cc(C)c(C(N)=S)c(N[C@H]2CC[NH+]3CCCC[C@H]23)n1

>  <canonical_smi>  (72) 
Cc1cc(C)c(C(N)=S)c(N[C@H]2CC[NH+]3CCCC[C@H]23)n1

>  <Set>  (72) 
G2 inactive

>  <Set_type>  (72) 
Train

>  <MW>  (72) 
305.47

>  <HBD>  (72) 
3

>  <HBA>  (72) 
4

>  <NRB>  (72) 
3

>  <NR>  (72) 
3

>  <NAR>  (72) 
1

>  <PSA>  (72) 
55.38

>  <Standard Type>  (72) 
nan

>  <Standard Relation>  (72) 
nan

>  <Standard Units>  (72) 
nan

>  <Standard Value>  (72) 
nan

>  <Assay ChEMBL ID>  (72) 
nan

>  <Assay Description>  (72) 
nan

>  <BAO Label>  (72) 
nan

$$$$

     RDKit          2D

 20 21  0  0  0  0  0  0  0  0999 V2000
    3.0000    0.0000    0.0000 C   0  0  0  0  0  0  0  0  0  0  0  0
    1.5000    0.0000    0.0000 C   0  0  0  0  0  0  0  0  0  0  0  0
    0.7500   -1.2990    0.0000 C   0  0  0  0  0  0  0  0  0  0  0  0
   -0.7500   -1.2990    0.0000 C   0  0  0  0  0  0  0  0  0  0  0  0
   -1.5000    0.0000    0.0000 C   0  0  0  0  0  0  0  0  0  0  0  0
   -0.7500    1.2990    0.0000 C   0  0  0  0  0  0  0  0  0  0  0  0
   -2.1595    1.8121    0.0000 C   0  0  0  0  0  0  0  0  0  0  0  0
   -2.4200    3.2893    0.0000 O   0  0  0  0  0  0  0  0  0  0  0  0
   -0.4895    2.7762    0.0000 N   0  0  0  0  0  4  0  0  0  0  0  0
    0.9200    3.2893    0.0000 C   0  0  0  0  0  0  0  0  0  0  0  0
    1.1805    4.7665    0.0000 C   0  0  0  0  0  0  0  0  0  0  0  0
    0.0314    5.7307    0.0000 O   0  0  0  0  0  0  0  0  0  0  0  0
    2.5900    5.2795    0.0000 C   0  0  0  0  0  0  0  0  0  0  0  0
    3.7391    4.3153    0.0000 C   0  0  0  0  0  0  0  0  0  0  0  0
    5.1486    4.8284    0.0000 C   0  0  0  0  0  0  0  0  0  0  0  0
    5.4091    6.3056    0.0000 C   0  0  0  0  0  0  0  0  0  0  0  0
    4.2600    7.2698    0.0000 C   0  0  0  0  0  0  0  0  0  0  0  0
    2.8505    6.7567    0.0000 C   0  0  0  0  0  0  0  0  0  0  0  0
    1.7014    7.7209    0.0000 Cl  0  0  0  0  0  0  0  0  0  0  0  0
    0.7500    1.2990    0.0000 C   0  0  0  0  0  0  0  0  0  0  0  0
  2  1  1  6
  2  3  1  0
  3  4  1  0
  4  5  1  0
  5  6  1  0
  6  7  1  6
  7  8  1  0
  6  9  1  0
  9 10  1  0
 10 11  1  0
 11 12  1  6
 11 13  1  0
 13 14  2  0
 14 15  1  0
 15 16  2  0
 16 17  1  0
 17 18  2  0
 18 19  1  0
  6 20  1  0
 20  2  1  0
 18 13  1  0
M  CHG  1   9   1
M  END
>  <Compound_ID>  (73) 
C53125910

>  <Active>  (73) 
0

>  <Smiles>  (73) 
C[C@@H]1CCC[C@@](CO)([NH2+]C[C@H](O)c2ccccc2Cl)C1

>  <canonical_smi>  (73) 
C[C@@H]1CCC[C@@](CO)([NH2+]C[C@H](O)c2ccccc2Cl)C1

>  <Set>  (73) 
G2 inactive

>  <Set_type>  (73) 
Train

>  <MW>  (73) 
298.83

>  <HBD>  (73) 
3

>  <HBA>  (73) 
2

>  <NRB>  (73) 
5

>  <NR>  (73) 
2

>  <NAR>  (73) 
1

>  <PSA>  (73) 
57.07

>  <Standard Type>  (73) 
nan

>  <Standard Relation>  (73) 
nan

>  <Standard Units>  (73) 
nan

>  <Standard Value>  (73) 
nan

>  <Assay ChEMBL ID>  (73) 
nan

>  <Assay Description>  (73) 
nan

>  <BAO Label>  (73) 
nan

$$$$

     RDKit          2D

 20 21  0  0  0  0  0  0  0  0999 V2000
    1.5000   -7.7942    0.0000 N   0  0  0  0  0  0  0  0  0  0  0  0
    0.7500   -6.4952    0.0000 C   0  0  0  0  0  0  0  0  0  0  0  0
   -0.7500   -6.4952    0.0000 N   0  0  0  0  0  4  0  0  0  0  0  0
    1.5000   -5.1962    0.0000 C   0  0  0  0  0  0  0  0  0  0  0  0
    0.7500   -3.8971    0.0000 C   0  0  0  0  0  0  0  0  0  0  0  0
    1.5000   -2.5981    0.0000 O   0  0  0  0  0  0  0  0  0  0  0  0
    0.7500   -1.2990    0.0000 C   0  0  0  0  0  0  0  0  0  0  0  0
    1.5000    0.0000    0.0000 C   0  0  0  0  0  0  0  0  0  0  0  0
    0.7500    1.2990    0.0000 C   0  0  0  0  0  0  0  0  0  0  0  0
    1.5000    2.5981    0.0000 Cl  0  0  0  0  0  0  0  0  0  0  0  0
   -0.7500    1.2990    0.0000 C   0  0  0  0  0  0  0  0  0  0  0  0
   -1.5000    0.0000    0.0000 C   0  0  0  0  0  0  0  0  0  0  0  0
   -3.0000    0.0000    0.0000 Cl  0  0  0  0  0  0  0  0  0  0  0  0
   -0.7500   -1.2990    0.0000 C   0  0  0  0  0  0  0  0  0  0  0  0
   -0.7500   -3.8971    0.0000 C   0  0  0  0  0  0  0  0  0  0  0  0
   -1.5000   -2.5981    0.0000 C   0  0  0  0  0  0  0  0  0  0  0  0
   -3.0000   -2.5981    0.0000 C   0  0  0  0  0  0  0  0  0  0  0  0
   -3.7500   -3.8971    0.0000 C   0  0  0  0  0  0  0  0  0  0  0  0
   -3.0000   -5.1962    0.0000 C   0  0  0  0  0  0  0  0  0  0  0  0
   -1.5000   -5.1962    0.0000 C   0  0  0  0  0  0  0  0  0  0  0  0
  1  2  1  0
  2  3  2  0
  2  4  1  0
  5  4  1  6
  5  6  1  0
  6  7  1  0
  7  8  2  0
  8  9  1  0
  9 10  1  0
  9 11  2  0
 11 12  1  0
 12 13  1  0
 12 14  2  0
  5 15  1  0
 15 16  2  0
 16 17  1  0
 17 18  2  0
 18 19  1  0
 19 20  2  0
 14  7  1  0
 20 15  1  0
M  CHG  1   3   1
M  END
>  <Compound_ID>  (74) 
C55023937

>  <Active>  (74) 
0

>  <Smiles>  (74) 
NC(=[NH2+])C[C@@H](Oc1cc(Cl)cc(Cl)c1)c1ccccc1

>  <canonical_smi>  (74) 
NC(=[NH2+])C[C@@H](Oc1cc(Cl)cc(Cl)c1)c1ccccc1

>  <Set>  (74) 
G2 inactive

>  <Set_type>  (74) 
Train

>  <MW>  (74) 
310.2

>  <HBD>  (74) 
2

>  <HBA>  (74) 
2

>  <NRB>  (74) 
5

>  <NR>  (74) 
2

>  <NAR>  (74) 
2

>  <PSA>  (74) 
60.84

>  <Standard Type>  (74) 
nan

>  <Standard Relation>  (74) 
nan

>  <Standard Units>  (74) 
nan

>  <Standard Value>  (74) 
nan

>  <Assay ChEMBL ID>  (74) 
nan

>  <Assay Description>  (74) 
nan

>  <BAO Label>  (74) 
nan

$$$$

     RDKit          2D

 24 25  0  0  0  0  0  0  0  0999 V2000
    0.7500   -6.4952    0.0000 C   0  0  0  0  0  0  0  0  0  0  0  0
    1.5000   -5.1962    0.0000 C   0  0  0  0  0  0  0  0  0  0  0  0
    0.7500   -3.8971    0.0000 O   0  0  0  0  0  0  0  0  0  0  0  0
    1.5000   -2.5981    0.0000 C   0  0  0  0  0  0  0  0  0  0  0  0
    3.0000   -2.5981    0.0000 O   0  0  0  0  0  0  0  0  0  0  0  0
    0.7500   -1.2990    0.0000 C   0  0  0  0  0  0  0  0  0  0  0  0
    1.5000    0.0000    0.0000 C   0  0  0  0  0  0  0  0  0  0  0  0
    0.7500    1.2990    0.0000 C   0  0  0  0  0  0  0  0  0  0  0  0
    1.5000    2.5981    0.0000 Br  0  0  0  0  0  0  0  0  0  0  0  0
   -0.7500    1.2990    0.0000 C   0  0  0  0  0  0  0  0  0  0  0  0
   -1.5000    0.0000    0.0000 C   0  0  0  0  0  0  0  0  0  0  0  0
   -0.7500   -1.2990    0.0000 C   0  0  0  0  0  0  0  0  0  0  0  0
   -1.5000   -2.5981    0.0000 N   0  0  0  0  0  0  0  0  0  0  0  0
    3.0000   -5.1962    0.0000 C   0  0  0  0  0  0  0  0  0  0  0  0
    3.7500   -3.8971    0.0000 O   0  0  0  0  0  0  0  0  0  0  0  0
    3.7500   -6.4952    0.0000 N   0  0  0  0  0  0  0  0  0  0  0  0
    5.2500   -6.4952    0.0000 C   0  0  0  0  0  0  0  0  0  0  0  0
    6.0000   -5.1962    0.0000 O   0  0  0  0  0  0  0  0  0  0  0  0
    6.0000   -7.7942    0.0000 N   0  0  0  0  0  0  0  0  0  0  0  0
    7.5000   -7.7942    0.0000 C   0  0  0  0  0  0  0  0  0  0  0  0
    8.3817   -6.5807    0.0000 C   0  0  0  0  0  0  0  0  0  0  0  0
    9.8083   -7.0442    0.0000 C   0  0  0  0  0  0  0  0  0  0  0  0
    9.8083   -8.5442    0.0000 C   0  0  0  0  0  0  0  0  0  0  0  0
    8.3817   -9.0078    0.0000 C   0  0  0  0  0  0  0  0  0  0  0  0
  2  1  1  6
  2  3  1  0
  3  4  1  0
  4  5  2  0
  4  6  1  0
  6  7  2  0
  7  8  1  0
  8  9  1  0
  8 10  2  0
 10 11  1  0
 11 12  2  0
 12 13  1  0
  2 14  1  0
 14 15  2  0
 14 16  1  0
 16 17  1  0
 17 18  2  0
 17 19  1  0
 19 20  1  0
 20 21  1  0
 21 22  1  0
 22 23  1  0
 23 24  1  0
 12  6  1  0
 24 20  1  0
M  END
>  <Compound_ID>  (75) 
C07203973

>  <Active>  (75) 
0

>  <Smiles>  (75) 
C[C@H](OC(=O)c1cc(Br)ccc1N)C(=O)NC(=O)NC1CCCC1

>  <canonical_smi>  (75) 
C[C@H](OC(=O)c1cc(Br)ccc1N)C(=O)NC(=O)NC1CCCC1

>  <Set>  (75) 
G2 inactive

>  <Set_type>  (75) 
Train

>  <MW>  (75) 
398.26

>  <HBD>  (75) 
3

>  <HBA>  (75) 
5

>  <NRB>  (75) 
4

>  <NR>  (75) 
2

>  <NAR>  (75) 
1

>  <PSA>  (75) 
110.52

>  <Standard Type>  (75) 
nan

>  <Standard Relation>  (75) 
nan

>  <Standard Units>  (75) 
nan

>  <Standard Value>  (75) 
nan

>  <Assay ChEMBL ID>  (75) 
nan

>  <Assay Description>  (75) 
nan

>  <BAO Label>  (75) 
nan

$$$$

     RDKit          2D

 28 31  0  0  0  0  0  0  0  0999 V2000
    3.0000    0.0000    0.0000 C   0  0  0  0  0  0  0  0  0  0  0  0
    1.5000    0.0000    0.0000 C   0  0  0  0  0  0  0  0  0  0  0  0
    0.7500   -1.2990    0.0000 C   0  0  0  0  0  0  0  0  0  0  0  0
   -0.7500   -1.2990    0.0000 C   0  0  0  0  0  0  0  0  0  0  0  0
   -1.5000    0.0000    0.0000 C   0  0  0  0  0  0  0  0  0  0  0  0
   -0.7500    1.2990    0.0000 C   0  0  0  0  0  0  0  0  0  0  0  0
   -1.5000    2.5981    0.0000 C   0  0  0  0  0  0  0  0  0  0  0  0
   -3.0000    2.5981    0.0000 C   0  0  0  0  0  0  0  0  0  0  0  0
   -3.7500    1.2990    0.0000 C   0  0  0  0  0  0  0  0  0  0  0  0
   -5.2500    1.2990    0.0000 O   0  0  0  0  0  0  0  0  0  0  0  0
   -3.0000    0.0000    0.0000 C   0  0  0  0  0  0  0  0  0  0  0  0
   -2.7395   -1.4772    0.0000 C   0  0  0  0  0  0  0  0  0  0  0  0
   -4.4095   -0.5130    0.0000 C   0  0  0  0  0  0  0  0  0  0  0  0
    0.7500    1.2990    0.0000 C   0  0  0  0  0  0  0  0  0  0  0  0
    0.4895    2.7762    0.0000 C   0  0  0  0  0  0  0  0  0  0  0  0
    2.1595    1.8121    0.0000 C   0  0  0  0  0  0  0  0  0  0  0  0
    2.4200    3.2893    0.0000 C   0  0  0  0  0  0  0  0  0  0  0  0
    1.2709    4.2535    0.0000 C   0  0  0  0  0  0  0  0  0  0  0  0
   -0.1386    3.7404    0.0000 O   0  0  0  0  0  0  0  0  0  0  0  0
    1.5314    5.7307    0.0000 C   0  0  0  0  0  0  0  0  0  0  0  0
    2.9410    6.2437    0.0000 C   0  0  0  0  0  0  0  0  0  0  0  0
    4.0900    5.2795    0.0000 C   0  0  0  0  0  0  0  0  0  0  0  0
    3.8296    3.8023    0.0000 C   0  0  0  0  0  0  0  0  0  0  0  0
    4.9786    2.8381    0.0000 O   0  0  0  0  0  0  0  0  0  0  0  0
    5.3621    6.0744    0.0000 C   0  0  0  0  0  0  0  0  0  0  0  0
    6.7529    5.5125    0.0000 O   0  0  0  0  0  0  0  0  0  0  0  0
    4.9992    7.5298    0.0000 O   0  0  0  0  0  0  0  0  0  0  0  0
    3.5029    7.6345    0.0000 C   0  0  0  0  0  0  0  0  0  0  0  0
  2  1  1  1
  2  3  1  0
  3  4  1  0
  5  4  1  1
  5  6  1  0
  6  7  2  0
  7  8  1  0
  8  9  1  0
  9 10  1  1
  9 11  1  0
 11 12  1  0
 11 13  1  0
  6 14  1  0
 14 15  1  6
 14 16  1  0
 16 17  1  0
 17 18  2  0
 18 19  1  0
 18 20  1  0
 20 21  2  0
 21 22  1  0
 22 23  2  0
 23 24  1  0
 22 25  1  0
 25 26  1  1
 25 27  1  0
 27 28  1  0
 14  2  1  0
 23 17  1  0
 11  5  1  0
 28 21  1  0
M  END
>  <Compound_ID>  (76) 
C37538318

>  <Active>  (76) 
0

>  <Smiles>  (76) 
C[C@H]1CC[C@@H]2C(=CC[C@H](O)C2(C)C)[C@@]1(C)Cc1c(O)cc2c(c1O)[C@H](O)OC2

>  <canonical_smi>  (76) 
C[C@H]1CC[C@@H]2C(=CC[C@H](O)C2(C)C)[C@@]1(C)Cc1c(O)cc2c(c1O)[C@H](O)OC2

>  <Set>  (76) 
G2 inactive

>  <Set_type>  (76) 
Train

>  <MW>  (76) 
388.5

>  <HBD>  (76) 
4

>  <HBA>  (76) 
5

>  <NRB>  (76) 
2

>  <NR>  (76) 
4

>  <NAR>  (76) 
1

>  <PSA>  (76) 
90.15

>  <Standard Type>  (76) 
nan

>  <Standard Relation>  (76) 
nan

>  <Standard Units>  (76) 
nan

>  <Standard Value>  (76) 
nan

>  <Assay ChEMBL ID>  (76) 
nan

>  <Assay Description>  (76) 
nan

>  <BAO Label>  (76) 
nan

$$$$

     RDKit          2D

 27 29  0  0  0  0  0  0  0  0999 V2000
    7.5000   -5.1962    0.0000 C   0  0  0  0  0  0  0  0  0  0  0  0
    6.0000   -5.1962    0.0000 C   0  0  0  0  0  0  0  0  0  0  0  0
    5.2500   -3.8971    0.0000 C   0  0  0  0  0  0  0  0  0  0  0  0
    3.7500   -3.8971    0.0000 C   0  0  0  0  0  0  0  0  0  0  0  0
    3.0000   -5.1962    0.0000 O   0  0  0  0  0  0  0  0  0  0  0  0
    3.0000   -2.5981    0.0000 N   0  0  0  0  0  0  0  0  0  0  0  0
    1.5000   -2.5981    0.0000 C   0  0  0  0  0  0  0  0  0  0  0  0
    0.7500   -3.8971    0.0000 C   0  0  0  0  0  0  0  0  0  0  0  0
   -0.7500   -3.8971    0.0000 C   0  0  0  0  0  0  0  0  0  0  0  0
   -1.5000   -2.5981    0.0000 C   0  0  0  0  0  0  0  0  0  0  0  0
   -0.7500   -1.2990    0.0000 C   0  0  0  0  0  0  0  0  0  0  0  0
    0.7500   -1.2990    0.0000 C   0  0  0  0  0  0  0  0  0  0  0  0
    1.5000    0.0000    0.0000 C   0  0  0  0  0  0  0  0  0  0  0  0
    0.7500    1.2990    0.0000 C   0  0  0  0  0  0  0  0  0  0  0  0
   -0.7500    1.2990    0.0000 C   0  0  0  0  0  0  0  0  0  0  0  0
   -1.5000    0.0000    0.0000 C   0  0  0  0  0  0  0  0  0  0  0  0
    5.2500   -6.4952    0.0000 N   0  0  0  0  0  0  0  0  0  0  0  0
    6.0000   -7.7942    0.0000 N   0  0  0  0  0  0  0  0  0  0  0  0
    5.2500   -9.0933    0.0000 C   0  0  0  0  0  0  0  0  0  0  0  0
    3.7500   -9.0933    0.0000 O   0  0  0  0  0  0  0  0  0  0  0  0
    6.0000  -10.3923    0.0000 C   0  0  0  0  0  0  0  0  0  0  0  0
    5.2500  -11.6913    0.0000 C   0  0  0  0  0  0  0  0  0  0  0  0
    6.0000  -12.9904    0.0000 C   0  0  0  0  0  0  0  0  0  0  0  0
    7.5000  -12.9904    0.0000 C   0  0  0  0  0  0  0  0  0  0  0  0
    8.2500  -11.6913    0.0000 C   0  0  0  0  0  0  0  0  0  0  0  0
    7.5000  -10.3923    0.0000 C   0  0  0  0  0  0  0  0  0  0  0  0
    8.2500   -9.0933    0.0000 O   0  0  0  0  0  0  0  0  0  0  0  0
  1  2  1  0
  2  3  2  0
  3  4  1  0
  4  5  2  0
  4  6  1  0
  6  7  1  0
  7  8  2  0
  8  9  1  0
  9 10  2  0
 10 11  1  0
 11 12  2  0
 12 13  1  0
 13 14  1  0
 14 15  1  0
 15 16  1  0
  2 17  1  0
 17 18  1  0
 18 19  1  0
 19 20  2  0
 19 21  1  0
 21 22  2  0
 22 23  1  0
 23 24  2  0
 24 25  1  0
 25 26  2  0
 26 27  1  0
 12  7  1  0
 26 21  1  0
 16 11  1  0
M  END
>  <Compound_ID>  (77) 
C04697835

>  <Active>  (77) 
0

>  <Smiles>  (77) 
C/C(=C/C(=O)Nc1cccc2c1CCCC2)NNC(=O)c1ccccc1O

>  <canonical_smi>  (77) 
C/C(=C/C(=O)Nc1cccc2c1CCCC2)NNC(=O)c1ccccc1O

>  <Set>  (77) 
G2 inactive

>  <Set_type>  (77) 
Train

>  <MW>  (77) 
365.43

>  <HBD>  (77) 
4

>  <HBA>  (77) 
4

>  <NRB>  (77) 
5

>  <NR>  (77) 
3

>  <NAR>  (77) 
2

>  <PSA>  (77) 
90.46

>  <Standard Type>  (77) 
nan

>  <Standard Relation>  (77) 
nan

>  <Standard Units>  (77) 
nan

>  <Standard Value>  (77) 
nan

>  <Assay ChEMBL ID>  (77) 
nan

>  <Assay Description>  (77) 
nan

>  <BAO Label>  (77) 
nan

$$$$

     RDKit          2D

 31 35  0  0  0  0  0  0  0  0999 V2000
    6.7625  -17.8449    0.0000 C   0  0  0  0  0  0  0  0  0  0  0  0
    7.2260  -16.4184    0.0000 C   0  0  0  0  0  0  0  0  0  0  0  0
    6.2223  -15.3036    0.0000 O   0  0  0  0  0  0  0  0  0  0  0  0
    6.6859  -13.8771    0.0000 C   0  0  0  0  0  0  0  0  0  0  0  0
    8.1531  -13.5652    0.0000 O   0  0  0  0  0  0  0  0  0  0  0  0
    5.6822  -12.7623    0.0000 C   0  0  0  0  0  0  0  0  0  0  0  0
    4.2149  -13.0742    0.0000 C   0  0  0  0  0  0  0  0  0  0  0  0
    3.2112  -11.9595    0.0000 C   0  0  0  0  0  0  0  0  0  0  0  0
    3.6748  -10.5329    0.0000 C   0  0  0  0  0  0  0  0  0  0  0  0
    2.6711   -9.4182    0.0000 C   0  0  0  0  0  0  0  0  0  0  0  0
    1.1793   -9.5750    0.0000 C   0  0  0  0  0  0  0  0  0  0  0  0
    0.5692   -8.2047    0.0000 C   0  0  0  0  0  0  0  0  0  0  0  0
    1.6839   -7.2010    0.0000 C   0  0  0  0  0  0  0  0  0  0  0  0
    1.5271   -5.7092    0.0000 C   0  0  0  0  0  0  0  0  0  0  0  0
    2.7406   -4.8275    0.0000 N   0  0  0  0  0  0  0  0  0  0  0  0
    2.5838   -3.3357    0.0000 C   0  0  0  0  0  0  0  0  0  0  0  0
    3.7974   -2.4540    0.0000 O   0  0  0  0  0  0  0  0  0  0  0  0
    1.2135   -2.7256    0.0000 C   0  0  0  0  0  0  0  0  0  0  0  0
   -0.0000   -3.6073    0.0000 C   0  0  0  0  0  0  0  0  0  0  0  0
   -1.2135   -2.7256    0.0000 S   0  0  0  0  0  0  0  0  0  0  0  0
   -0.7500   -1.2990    0.0000 C   0  0  0  0  0  0  0  0  0  0  0  0
    0.7500   -1.2990    0.0000 C   0  0  0  0  0  0  0  0  0  0  0  0
    1.5000    0.0000    0.0000 C   0  0  0  0  0  0  0  0  0  0  0  0
    0.7500    1.2990    0.0000 C   0  0  0  0  0  0  0  0  0  0  0  0
   -0.7500    1.2990    0.0000 N   0  0  0  0  0  4  0  0  0  0  0  0
   -1.5000    2.5981    0.0000 C   0  0  0  0  0  0  0  0  0  0  0  0
   -1.5000    0.0000    0.0000 C   0  0  0  0  0  0  0  0  0  0  0  0
    0.1568   -5.0991    0.0000 N   0  0  0  0  0  0  0  0  0  0  0  0
    2.9829   -7.9510    0.0000 O   0  0  0  0  0  0  0  0  0  0  0  0
    5.1420  -10.2210    0.0000 C   0  0  0  0  0  0  0  0  0  0  0  0
    6.1457  -11.3358    0.0000 C   0  0  0  0  0  0  0  0  0  0  0  0
  1  2  1  0
  2  3  1  0
  3  4  1  0
  4  5  2  0
  4  6  1  0
  6  7  2  0
  7  8  1  0
  8  9  2  0
  9 10  1  0
 10 11  2  0
 11 12  1  0
 12 13  2  0
 14 13  1  6
 14 15  1  0
 15 16  2  0
 16 17  1  0
 16 18  1  0
 18 19  2  0
 19 20  1  0
 20 21  1  0
 21 22  2  0
 22 23  1  0
 23 24  1  0
 24 25  1  0
 25 26  1  0
 25 27  1  0
 19 28  1  0
 13 29  1  0
  9 30  1  0
 30 31  2  0
 31  6  1  0
 29 10  1  0
 28 14  1  0
 22 18  1  0
 27 21  1  0
M  CHG  1  25   1
M  END
>  <Compound_ID>  (78) 
C09065186

>  <Active>  (78) 
0

>  <Smiles>  (78) 
CCOC(=O)c1ccc(-c2ccc([C@H]3N=C(O)c4c(sc5c4CC[NH+](C)C5)N3)o2)cc1

>  <canonical_smi>  (78) 
CCOC(=O)c1ccc(-c2ccc([C@H]3N=C(O)c4c(sc5c4CC[NH+](C)C5)N3)o2)cc1

>  <Set>  (78) 
G2 inactive

>  <Set_type>  (78) 
Train

>  <MW>  (78) 
438.53

>  <HBD>  (78) 
3

>  <HBA>  (78) 
5

>  <NRB>  (78) 
4

>  <NR>  (78) 
5

>  <NAR>  (78) 
3

>  <PSA>  (78) 
88.5

>  <Standard Type>  (78) 
nan

>  <Standard Relation>  (78) 
nan

>  <Standard Units>  (78) 
nan

>  <Standard Value>  (78) 
nan

>  <Assay ChEMBL ID>  (78) 
nan

>  <Assay Description>  (78) 
nan

>  <BAO Label>  (78) 
nan

$$$$

     RDKit          2D

 30 33  0  0  0  0  0  0  0  0999 V2000
   -5.2500   -6.4952    0.0000 O   0  0  0  0  0  0  0  0  0  0  0  0
   -6.0000   -5.1962    0.0000 C   0  0  0  0  0  0  0  0  0  0  0  0
   -5.2500   -3.8971    0.0000 C   0  0  0  0  0  0  0  0  0  0  0  0
   -3.7500   -3.8971    0.0000 N   0  0  0  0  0  0  0  0  0  0  0  0
   -3.0000   -2.5981    0.0000 C   0  0  0  0  0  0  0  0  0  0  0  0
   -3.7500   -1.2990    0.0000 O   0  0  0  0  0  0  0  0  0  0  0  0
   -1.5000   -2.5981    0.0000 C   0  0  0  0  0  0  0  0  0  0  0  0
   -0.7500   -3.8971    0.0000 C   0  0  0  0  0  0  0  0  0  0  0  0
    0.7500   -3.8971    0.0000 C   0  0  0  0  0  0  0  0  0  0  0  0
    1.5000   -2.5981    0.0000 C   0  0  0  0  0  0  0  0  0  0  0  0
    0.7500   -1.2990    0.0000 C   0  0  0  0  0  0  0  0  0  0  0  0
    1.5000    0.0000    0.0000 C   0  0  0  0  0  0  0  0  0  0  0  0
    0.7500    1.2990    0.0000 C   0  0  0  0  0  0  0  0  0  0  0  0
   -0.7500    1.2990    0.0000 C   0  0  0  0  0  0  0  0  0  0  0  0
   -1.5000    0.0000    0.0000 C   0  0  0  0  0  0  0  0  0  0  0  0
   -0.7500   -1.2990    0.0000 C   0  0  0  0  0  0  0  0  0  0  0  0
   -7.5000   -5.1962    0.0000 N   0  0  0  0  0  0  0  0  0  0  0  0
   -8.2500   -6.4952    0.0000 N   0  0  0  0  0  0  0  0  0  0  0  0
   -9.7500   -6.4952    0.0000 C   0  0  0  0  0  0  0  0  0  0  0  0
  -10.5000   -7.7942    0.0000 C   0  0  0  0  0  0  0  0  0  0  0  0
  -12.0000   -7.7942    0.0000 C   0  0  0  0  0  0  0  0  0  0  0  0
  -12.7500   -9.0933    0.0000 C   0  0  0  0  0  0  0  0  0  0  0  0
  -14.2500   -9.0933    0.0000 C   0  0  0  0  0  0  0  0  0  0  0  0
  -15.0000  -10.3923    0.0000 C   0  0  0  0  0  0  0  0  0  0  0  0
  -14.2500  -11.6913    0.0000 C   0  0  0  0  0  0  0  0  0  0  0  0
  -12.7500  -11.6913    0.0000 C   0  0  0  0  0  0  0  0  0  0  0  0
  -12.0000  -10.3923    0.0000 C   0  0  0  0  0  0  0  0  0  0  0  0
  -10.5000  -10.3923    0.0000 N   0  0  0  0  0  4  0  0  0  0  0  0
   -9.7500   -9.0933    0.0000 C   0  0  0  0  0  0  0  0  0  0  0  0
   -8.2500   -9.0933    0.0000 O   0  0  0  0  0  0  0  0  0  0  0  0
  1  2  2  0
  2  3  1  0
  3  4  1  0
  4  5  1  0
  5  6  2  0
  5  7  1  0
  7  8  2  0
  8  9  1  0
  9 10  2  0
 10 11  1  0
 11 12  2  0
 12 13  1  0
 13 14  2  0
 14 15  1  0
 15 16  2  0
  2 17  1  0
 17 18  1  0
 18 19  2  0
 20 19  1  6
 20 21  1  0
 21 22  2  0
 22 23  1  0
 23 24  2  0
 24 25  1  0
 25 26  2  0
 26 27  1  0
 27 28  2  0
 28 29  1  0
 29 30  2  0
 16  7  1  0
 29 20  1  0
 16 11  1  0
 27 22  1  0
M  CHG  1  28   1
M  END
>  <Compound_ID>  (79) 
C39941776

>  <Active>  (79) 
0

>  <Smiles>  (79) 
O=C(CNC(=O)c1cccc2ccccc12)N/N=C/[C@H]1C=c2ccccc2=[NH+]C1=O

>  <canonical_smi>  (79) 
O=C(CNC(=O)c1cccc2ccccc12)N/N=C/[C@H]1C=c2ccccc2=[NH+]C1=O

>  <Set>  (79) 
G2 inactive

>  <Set_type>  (79) 
Train

>  <MW>  (79) 
399.43

>  <HBD>  (79) 
3

>  <HBA>  (79) 
3

>  <NRB>  (79) 
5

>  <NR>  (79) 
4

>  <NAR>  (79) 
3

>  <PSA>  (79) 
101.6

>  <Standard Type>  (79) 
nan

>  <Standard Relation>  (79) 
nan

>  <Standard Units>  (79) 
nan

>  <Standard Value>  (79) 
nan

>  <Assay ChEMBL ID>  (79) 
nan

>  <Assay Description>  (79) 
nan

>  <BAO Label>  (79) 
nan

$$$$

     RDKit          2D

 30 33  0  0  0  0  0  0  0  0999 V2000
  -10.8875    7.9265    0.0000 N   0  0  0  0  0  0  0  0  0  0  0  0
   -9.3958    7.7697    0.0000 S   0  0  0  0  0  0  0  0  0  0  0  0
   -9.2390    9.2615    0.0000 O   0  0  0  0  0  0  0  0  0  0  0  0
   -9.5525    6.2779    0.0000 O   0  0  0  0  0  0  0  0  0  0  0  0
   -7.9040    7.6129    0.0000 C   0  0  0  0  0  0  0  0  0  0  0  0
   -7.0223    8.8264    0.0000 C   0  0  0  0  0  0  0  0  0  0  0  0
   -5.5305    8.6696    0.0000 C   0  0  0  0  0  0  0  0  0  0  0  0
   -4.9204    7.2993    0.0000 C   0  0  0  0  0  0  0  0  0  0  0  0
   -3.4286    7.1425    0.0000 N   0  0  0  0  0  0  0  0  0  0  0  0
   -2.4249    8.2572    0.0000 N   0  0  0  0  0  0  0  0  0  0  0  0
   -1.0546    7.6471    0.0000 C   0  0  0  0  0  0  0  0  0  0  0  0
    0.2444    8.3971    0.0000 C   0  0  0  0  0  0  0  0  0  0  0  0
    1.5435    9.1471    0.0000 F   0  0  0  0  0  0  0  0  0  0  0  0
   -0.5056    9.6962    0.0000 F   0  0  0  0  0  0  0  0  0  0  0  0
    0.9944    7.0981    0.0000 F   0  0  0  0  0  0  0  0  0  0  0  0
   -1.2114    6.1554    0.0000 C   0  0  0  0  0  0  0  0  0  0  0  0
   -0.0967    5.1517    0.0000 C   0  0  0  0  0  0  0  0  0  0  0  0
   -0.4086    3.6844    0.0000 C   0  0  0  0  0  0  0  0  0  0  0  0
   -1.8351    3.2209    0.0000 C   0  0  0  0  0  0  0  0  0  0  0  0
   -2.1470    1.7537    0.0000 C   0  0  0  0  0  0  0  0  0  0  0  0
   -1.0323    0.7500    0.0000 C   0  0  0  0  0  0  0  0  0  0  0  0
    0.3943    1.2135    0.0000 C   0  0  0  0  0  0  0  0  0  0  0  0
    0.7062    2.6807    0.0000 C   0  0  0  0  0  0  0  0  0  0  0  0
    1.2760    0.0000    0.0000 O   0  0  0  0  0  0  0  0  0  0  0  0
    0.3943   -1.2135    0.0000 C   0  0  0  0  0  0  0  0  0  0  0  0
   -1.0323   -0.7500    0.0000 O   0  0  0  0  0  0  0  0  0  0  0  0
   -2.6786    5.8435    0.0000 C   0  0  0  0  0  0  0  0  0  0  0  0
   -3.2887    4.4732    0.0000 O   0  0  0  0  0  0  0  0  0  0  0  0
   -5.8021    6.0858    0.0000 C   0  0  0  0  0  0  0  0  0  0  0  0
   -7.2939    6.2426    0.0000 C   0  0  0  0  0  0  0  0  0  0  0  0
  1  2  1  0
  2  3  2  0
  2  4  2  0
  2  5  1  0
  5  6  2  0
  6  7  1  0
  7  8  2  0
  8  9  1  0
  9 10  1  0
 10 11  2  0
 11 12  1  0
 12 13  1  0
 12 14  1  0
 12 15  1  0
 11 16  1  0
 16 17  2  0
 17 18  1  0
 18 19  2  0
 19 20  1  0
 20 21  2  0
 21 22  1  0
 22 23  2  0
 22 24  1  0
 24 25  1  0
 25 26  1  0
 16 27  1  0
 27 28  2  0
  8 29  1  0
 29 30  2  0
 30  5  1  0
 27  9  1  0
 23 18  1  0
 26 21  1  0
M  END
>  <Compound_ID>  (80) 
C16192591

>  <Active>  (80) 
0

>  <Smiles>  (80) 
NS(=O)(=O)c1ccc(N2N=C(C(F)(F)F)/C(=C/c3ccc4c(c3)OCO4)C2=O)cc1

>  <canonical_smi>  (80) 
NS(=O)(=O)c1ccc(N2N=C(C(F)(F)F)/C(=C/c3ccc4c(c3)OCO4)C2=O)cc1

>  <Set>  (80) 
G2 inactive

>  <Set_type>  (80) 
Train

>  <MW>  (80) 
439.37

>  <HBD>  (80) 
1

>  <HBA>  (80) 
5

>  <NRB>  (80) 
3

>  <NR>  (80) 
4

>  <NAR>  (80) 
2

>  <PSA>  (80) 
111.29

>  <Standard Type>  (80) 
nan

>  <Standard Relation>  (80) 
nan

>  <Standard Units>  (80) 
nan

>  <Standard Value>  (80) 
nan

>  <Assay ChEMBL ID>  (80) 
nan

>  <Assay Description>  (80) 
nan

>  <BAO Label>  (80) 
nan

$$$$

     RDKit          2D

 29 32  0  0  0  0  0  0  0  0999 V2000
   -7.7227   -4.7069    0.0000 C   0  0  0  0  0  0  0  0  0  0  0  0
   -6.2961   -4.2434    0.0000 O   0  0  0  0  0  0  0  0  0  0  0  0
   -5.1814   -5.2471    0.0000 C   0  0  0  0  0  0  0  0  0  0  0  0
   -3.7548   -4.7835    0.0000 C   0  0  0  0  0  0  0  0  0  0  0  0
   -2.6401   -5.7872    0.0000 C   0  0  0  0  0  0  0  0  0  0  0  0
   -1.2135   -5.3237    0.0000 C   0  0  0  0  0  0  0  0  0  0  0  0
   -0.0000   -6.2054    0.0000 N   0  0  0  0  0  0  0  0  0  0  0  0
    1.2135   -5.3237    0.0000 C   0  0  0  0  0  0  0  0  0  0  0  0
    2.6401   -5.7872    0.0000 O   0  0  0  0  0  0  0  0  0  0  0  0
    0.7500   -3.8971    0.0000 C   0  0  0  0  0  0  0  0  0  0  0  0
    1.5000   -2.5981    0.0000 O   0  0  0  0  0  0  0  0  0  0  0  0
    0.7500   -1.2990    0.0000 C   0  0  0  0  0  0  0  0  0  0  0  0
    1.5000    0.0000    0.0000 C   0  0  0  0  0  0  0  0  0  0  0  0
    0.7500    1.2990    0.0000 C   0  0  0  0  0  0  0  0  0  0  0  0
    1.5000    2.5981    0.0000 C   0  0  0  0  0  0  0  0  0  0  0  0
   -0.7500    1.2990    0.0000 C   0  0  0  0  0  0  0  0  0  0  0  0
   -1.5000    0.0000    0.0000 C   0  0  0  0  0  0  0  0  0  0  0  0
   -3.0000    0.0000    0.0000 C   0  0  0  0  0  0  0  0  0  0  0  0
   -0.7500   -1.2990    0.0000 C   0  0  0  0  0  0  0  0  0  0  0  0
   -1.5000   -2.5981    0.0000 C   0  0  0  0  0  0  0  0  0  0  0  0
   -3.0000   -2.5981    0.0000 O   0  0  0  0  0  0  0  0  0  0  0  0
   -0.7500   -3.8971    0.0000 C   0  0  0  0  0  0  0  0  0  0  0  0
   -2.9520   -7.2544    0.0000 C   0  0  0  0  0  0  0  0  0  0  0  0
   -4.3786   -7.7180    0.0000 C   0  0  0  0  0  0  0  0  0  0  0  0
   -4.6904   -9.1852    0.0000 O   0  0  0  0  0  0  0  0  0  0  0  0
   -6.1170   -9.6487    0.0000 C   0  0  0  0  0  0  0  0  0  0  0  0
   -5.4933   -6.7143    0.0000 C   0  0  0  0  0  0  0  0  0  0  0  0
   -6.9199   -7.1778    0.0000 O   0  0  0  0  0  0  0  0  0  0  0  0
   -8.0346   -6.1741    0.0000 C   0  0  0  0  0  0  0  0  0  0  0  0
  1  2  1  0
  2  3  1  0
  3  4  2  0
  4  5  1  0
  6  5  1  1
  6  7  1  0
  7  8  1  0
  8  9  2  0
  8 10  1  0
 10 11  1  0
 11 12  1  0
 12 13  2  0
 13 14  1  0
 14 15  1  0
 14 16  2  0
 16 17  1  0
 17 18  1  0
 17 19  2  0
 19 20  1  0
 20 21  2  0
 20 22  1  0
  5 23  2  0
 23 24  1  0
 24 25  1  0
 25 26  1  0
 24 27  2  0
 27 28  1  0
 28 29  1  0
 27  3  1  0
 22  6  1  0
 22 10  2  0
 19 12  1  0
M  END
>  <Compound_ID>  (81) 
C02214163

>  <Active>  (81) 
0

>  <Smiles>  (81) 
COc1cc([C@@H]2NC(=O)c3oc4cc(C)cc(C)c4c(=O)c32)cc(OC)c1OC

>  <canonical_smi>  (81) 
COc1cc([C@@H]2NC(=O)c3oc4cc(C)cc(C)c4c(=O)c32)cc(OC)c1OC

>  <Set>  (81) 
G2 inactive

>  <Set_type>  (81) 
Train

>  <MW>  (81) 
395.41

>  <HBD>  (81) 
1

>  <HBA>  (81) 
6

>  <NRB>  (81) 
4

>  <NR>  (81) 
4

>  <NAR>  (81) 
3

>  <PSA>  (81) 
87.0

>  <Standard Type>  (81) 
nan

>  <Standard Relation>  (81) 
nan

>  <Standard Units>  (81) 
nan

>  <Standard Value>  (81) 
nan

>  <Assay ChEMBL ID>  (81) 
nan

>  <Assay Description>  (81) 
nan

>  <BAO Label>  (81) 
nan

$$$$

     RDKit          2D

 22 24  0  0  0  0  0  0  0  0999 V2000
   -4.6883    2.2939    0.0000 C   0  0  0  0  0  0  0  0  0  0  0  0
   -3.5736    1.2902    0.0000 S   0  0  0  0  0  0  0  0  0  0  0  0
   -2.1470    1.7537    0.0000 C   0  0  0  0  0  0  0  0  0  0  0  0
   -1.8351    3.2209    0.0000 N   0  0  0  0  0  0  0  0  0  0  0  0
   -0.4086    3.6844    0.0000 C   0  0  0  0  0  0  0  0  0  0  0  0
    0.7062    2.6807    0.0000 C   0  0  0  0  0  0  0  0  0  0  0  0
    2.1328    3.1443    0.0000 C   0  0  0  0  0  0  0  0  0  0  0  0
    3.5593    3.6078    0.0000 N   0  0  0  0  0  0  0  0  0  0  0  0
    0.3943    1.2135    0.0000 C   0  0  0  0  0  0  0  0  0  0  0  0
    1.2760    0.0000    0.0000 N   0  0  0  0  0  0  0  0  0  0  0  0
    0.3943   -1.2135    0.0000 C   0  0  0  0  0  0  0  0  0  0  0  0
    1.6933   -1.9635    0.0000 C   0  0  0  0  0  0  0  0  0  0  0  0
   -0.2158   -2.5838    0.0000 C   0  0  0  0  0  0  0  0  0  0  0  0
   -1.7076   -2.7406    0.0000 C   0  0  0  0  0  0  0  0  0  0  0  0
   -2.3177   -4.1110    0.0000 C   0  0  0  0  0  0  0  0  0  0  0  0
   -1.4360   -5.3245    0.0000 C   0  0  0  0  0  0  0  0  0  0  0  0
   -2.0461   -6.6948    0.0000 Cl  0  0  0  0  0  0  0  0  0  0  0  0
    0.0558   -5.1677    0.0000 C   0  0  0  0  0  0  0  0  0  0  0  0
    0.9374   -6.3812    0.0000 Cl  0  0  0  0  0  0  0  0  0  0  0  0
    0.6659   -3.7974    0.0000 C   0  0  0  0  0  0  0  0  0  0  0  0
   -1.0323   -0.7500    0.0000 N   0  0  0  0  0  0  0  0  0  0  0  0
   -1.0323    0.7500    0.0000 N   0  0  0  0  0  0  0  0  0  0  0  0
  1  2  1  0
  2  3  1  0
  3  4  2  0
  4  5  1  0
  5  6  2  0
  6  7  1  0
  7  8  3  0
  6  9  1  0
  9 10  2  0
 10 11  1  0
 11 12  1  6
 11 13  1  0
 13 14  2  0
 14 15  1  0
 15 16  2  0
 16 17  1  0
 16 18  1  0
 18 19  1  0
 18 20  2  0
 11 21  1  0
 21 22  1  0
 22  3  1  0
 22  9  1  0
 20 13  1  0
M  END
>  <Compound_ID>  (82) 
C01040807

>  <Active>  (82) 
0

>  <Smiles>  (82) 
CSC1=NC=C(C#N)C2=N[C@@](C)(c3ccc(Cl)c(Cl)c3)NN12

>  <canonical_smi>  (82) 
CSC1=NC=C(C#N)C2=N[C@@](C)(c3ccc(Cl)c(Cl)c3)NN12

>  <Set>  (82) 
G2 inactive

>  <Set_type>  (82) 
Train

>  <MW>  (82) 
352.25

>  <HBD>  (82) 
1

>  <HBA>  (82) 
4

>  <NRB>  (82) 
1

>  <NR>  (82) 
3

>  <NAR>  (82) 
1

>  <PSA>  (82) 
63.78

>  <Standard Type>  (82) 
nan

>  <Standard Relation>  (82) 
nan

>  <Standard Units>  (82) 
nan

>  <Standard Value>  (82) 
nan

>  <Assay ChEMBL ID>  (82) 
nan

>  <Assay Description>  (82) 
nan

>  <BAO Label>  (82) 
nan

$$$$

     RDKit          2D

 24 26  0  0  0  0  0  0  0  0999 V2000
    3.7500   -1.2990    0.0000 C   0  0  0  0  0  0  0  0  0  0  0  0
    3.0000    0.0000    0.0000 C   0  0  0  0  0  0  0  0  0  0  0  0
    1.5000    0.0000    0.0000 C   0  0  0  0  0  0  0  0  0  0  0  0
    0.7500   -1.2990    0.0000 C   0  0  0  0  0  0  0  0  0  0  0  0
   -0.7500   -1.2990    0.0000 C   0  0  0  0  0  0  0  0  0  0  0  0
   -1.5000   -2.5981    0.0000 C   0  0  0  0  0  0  0  0  0  0  0  0
   -0.7500   -3.8971    0.0000 C   0  0  0  0  0  0  0  0  0  0  0  0
   -1.5000   -5.1962    0.0000 N   0  0  0  0  0  0  0  0  0  0  0  0
   -3.0000   -5.1962    0.0000 C   0  0  0  0  0  0  0  0  0  0  0  0
   -3.7500   -6.4952    0.0000 C   0  0  0  0  0  0  0  0  0  0  0  0
   -5.2500   -6.4952    0.0000 C   0  0  0  0  0  0  0  0  0  0  0  0
   -3.0000   -7.7942    0.0000 O   0  0  0  0  0  0  0  0  0  0  0  0
   -1.5000   -7.7942    0.0000 C   0  0  0  0  0  0  0  0  0  0  0  0
   -0.0905   -8.3073    0.0000 C   0  0  0  0  0  0  0  0  0  0  0  0
   -1.7605   -9.2714    0.0000 C   0  0  0  0  0  0  0  0  0  0  0  0
   -0.7500   -6.4952    0.0000 C   0  0  0  0  0  0  0  0  0  0  0  0
   -3.0000   -2.5981    0.0000 C   0  0  0  0  0  0  0  0  0  0  0  0
   -3.7500   -1.2990    0.0000 C   0  0  0  0  0  0  0  0  0  0  0  0
   -5.2500   -1.2990    0.0000 O   0  0  0  0  0  0  0  0  0  0  0  0
   -3.0000    0.0000    0.0000 O   0  0  0  0  0  0  0  0  0  0  0  0
   -1.5000    0.0000    0.0000 C   0  0  0  0  0  0  0  0  0  0  0  0
   -0.7500    1.2990    0.0000 C   0  0  0  0  0  0  0  0  0  0  0  0
    0.7500    1.2990    0.0000 C   0  0  0  0  0  0  0  0  0  0  0  0
    1.5000    2.5981    0.0000 O   0  0  0  0  0  0  0  0  0  0  0  0
  1  2  1  0
  2  3  1  0
  3  4  2  0
  4  5  1  0
  5  6  1  0
  6  7  1  0
  7  8  1  0
  8  9  1  0
  9 10  1  0
 10 11  1  6
 10 12  1  0
 12 13  1  0
 13 14  1  0
 13 15  1  0
 13 16  1  0
  6 17  2  0
 17 18  1  0
 18 19  2  0
 18 20  1  0
 20 21  1  0
 21 22  1  0
 22 23  2  0
 23 24  1  0
 23  3  1  0
 21  5  2  0
 16  8  1  0
M  END
>  <Compound_ID>  (83) 
C65426675

>  <Active>  (83) 
0

>  <Smiles>  (83) 
CCc1cc2c(CN3C[C@@H](C)OC(C)(C)C3)cc(=O)oc2cc1O

>  <canonical_smi>  (83) 
CCc1cc2c(CN3C[C@@H](C)OC(C)(C)C3)cc(=O)oc2cc1O

>  <Set>  (83) 
G2 inactive

>  <Set_type>  (83) 
Train

>  <MW>  (83) 
331.41

>  <HBD>  (83) 
1

>  <HBA>  (83) 
5

>  <NRB>  (83) 
3

>  <NR>  (83) 
3

>  <NAR>  (83) 
2

>  <PSA>  (83) 
62.91

>  <Standard Type>  (83) 
nan

>  <Standard Relation>  (83) 
nan

>  <Standard Units>  (83) 
nan

>  <Standard Value>  (83) 
nan

>  <Assay ChEMBL ID>  (83) 
nan

>  <Assay Description>  (83) 
nan

>  <BAO Label>  (83) 
nan

$$$$

     RDKit          2D

 20 21  0  0  0  0  0  0  0  0999 V2000
    3.0000    0.0000    0.0000 N   0  0  0  0  0  0  0  0  0  0  0  0
    1.5000    0.0000    0.0000 C   0  0  0  0  0  0  0  0  0  0  0  0
    0.7500   -1.2990    0.0000 C   0  0  0  0  0  0  0  0  0  0  0  0
   -0.7500   -1.2990    0.0000 C   0  0  0  0  0  0  0  0  0  0  0  0
   -1.5000   -2.5981    0.0000 Br  0  0  0  0  0  0  0  0  0  0  0  0
   -1.5000    0.0000    0.0000 C   0  0  0  0  0  0  0  0  0  0  0  0
   -3.0000    0.0000    0.0000 S   0  0  0  0  0  0  0  0  0  0  0  0
   -3.0000    1.5000    0.0000 O   0  0  0  0  0  0  0  0  0  0  0  0
   -3.0000   -1.5000    0.0000 O   0  0  0  0  0  0  0  0  0  0  0  0
   -4.5000    0.0000    0.0000 N   0  0  0  0  0  0  0  0  0  0  0  0
   -5.2500   -1.2990    0.0000 C   0  0  0  0  0  0  0  0  0  0  0  0
   -6.7500   -1.2990    0.0000 C   0  0  0  0  0  0  0  0  0  0  0  0
   -7.5000    0.0000    0.0000 C   0  0  0  0  0  0  0  0  0  0  0  0
   -9.0000    0.0000    0.0000 O   0  0  0  0  0  0  0  0  0  0  0  0
   -9.7500   -1.2990    0.0000 C   0  0  0  0  0  0  0  0  0  0  0  0
   -9.0000   -2.5981    0.0000 C   0  0  0  0  0  0  0  0  0  0  0  0
   -7.5000   -2.5981    0.0000 O   0  0  0  0  0  0  0  0  0  0  0  0
   -0.7500    1.2990    0.0000 C   0  0  0  0  0  0  0  0  0  0  0  0
   -1.5000    2.5981    0.0000 Br  0  0  0  0  0  0  0  0  0  0  0  0
    0.7500    1.2990    0.0000 C   0  0  0  0  0  0  0  0  0  0  0  0
  1  2  1  0
  2  3  2  0
  3  4  1  0
  4  5  1  0
  4  6  2  0
  6  7  1  0
  7  8  2  0
  7  9  2  0
  7 10  1  0
 10 11  1  0
 12 11  1  1
 12 13  1  0
 13 14  1  0
 14 15  1  0
 15 16  1  0
 16 17  1  0
  6 18  1  0
 18 19  1  0
 18 20  2  0
 20  2  1  0
 17 12  1  0
M  END
>  <Compound_ID>  (84) 
C38062531

>  <Active>  (84) 
0

>  <Smiles>  (84) 
Nc1cc(Br)c(S(=O)(=O)NC[C@@H]2COCCO2)c(Br)c1

>  <canonical_smi>  (84) 
Nc1cc(Br)c(S(=O)(=O)NC[C@@H]2COCCO2)c(Br)c1

>  <Set>  (84) 
G2 inactive

>  <Set_type>  (84) 
Train

>  <MW>  (84) 
430.12

>  <HBD>  (84) 
2

>  <HBA>  (84) 
5

>  <NRB>  (84) 
4

>  <NR>  (84) 
2

>  <NAR>  (84) 
1

>  <PSA>  (84) 
90.65

>  <Standard Type>  (84) 
nan

>  <Standard Relation>  (84) 
nan

>  <Standard Units>  (84) 
nan

>  <Standard Value>  (84) 
nan

>  <Assay ChEMBL ID>  (84) 
nan

>  <Assay Description>  (84) 
nan

>  <BAO Label>  (84) 
nan

$$$$

     RDKit          2D

 28 32  0  0  0  0  0  0  0  0999 V2000
    2.5774   11.4841    0.0000 C   0  0  0  0  0  0  0  0  0  0  0  0
    2.2655   10.0169    0.0000 C   0  0  0  0  0  0  0  0  0  0  0  0
    3.3802    9.0132    0.0000 C   0  0  0  0  0  0  0  0  0  0  0  0
    3.0684    7.5459    0.0000 C   0  0  0  0  0  0  0  0  0  0  0  0
    1.6418    7.0824    0.0000 C   0  0  0  0  0  0  0  0  0  0  0  0
    1.3299    5.6152    0.0000 C   0  0  0  0  0  0  0  0  0  0  0  0
   -0.0967    5.1517    0.0000 C   0  0  0  0  0  0  0  0  0  0  0  0
   -1.2114    6.1554    0.0000 C   0  0  0  0  0  0  0  0  0  0  0  0
   -2.6380    5.6918    0.0000 C   0  0  0  0  0  0  0  0  0  0  0  0
   -2.9499    4.2246    0.0000 C   0  0  0  0  0  0  0  0  0  0  0  0
   -1.8351    3.2209    0.0000 C   0  0  0  0  0  0  0  0  0  0  0  0
   -0.4086    3.6844    0.0000 C   0  0  0  0  0  0  0  0  0  0  0  0
    0.7062    2.6807    0.0000 N   0  0  0  0  0  4  0  0  0  0  0  0
    0.3943    1.2135    0.0000 C   0  0  0  0  0  0  0  0  0  0  0  0
    1.2760    0.0000    0.0000 N   0  0  0  0  0  0  0  0  0  0  0  0
    0.3943   -1.2135    0.0000 C   0  0  0  0  0  0  0  0  0  0  0  0
   -1.0323   -0.7500    0.0000 N   0  0  0  0  0  0  0  0  0  0  0  0
   -1.0323    0.7500    0.0000 N   0  0  0  0  0  0  0  0  0  0  0  0
   -2.1470    1.7537    0.0000 C   0  0  0  0  0  0  0  0  0  0  0  0
   -3.5736    1.2902    0.0000 C   0  0  0  0  0  0  0  0  0  0  0  0
   -4.6883    2.2939    0.0000 C   0  0  0  0  0  0  0  0  0  0  0  0
   -6.1149    1.8303    0.0000 C   0  0  0  0  0  0  0  0  0  0  0  0
   -6.4268    0.3631    0.0000 C   0  0  0  0  0  0  0  0  0  0  0  0
   -7.8533   -0.1004    0.0000 C   0  0  0  0  0  0  0  0  0  0  0  0
   -5.3120   -0.6406    0.0000 C   0  0  0  0  0  0  0  0  0  0  0  0
   -3.8855   -0.1771    0.0000 C   0  0  0  0  0  0  0  0  0  0  0  0
    0.5271    8.0861    0.0000 C   0  0  0  0  0  0  0  0  0  0  0  0
    0.8389    9.5533    0.0000 C   0  0  0  0  0  0  0  0  0  0  0  0
  1  2  1  0
  2  3  2  0
  3  4  1  0
  4  5  2  0
  5  6  1  0
  6  7  2  3
  7  8  1  0
  8  9  1  0
  9 10  1  0
 11 10  1  6
 11 12  1  0
 12 13  2  0
 13 14  1  0
 14 15  2  0
 15 16  1  0
 16 17  2  0
 17 18  1  0
 18 19  1  0
 19 20  1  6
 20 21  2  0
 21 22  1  0
 22 23  2  0
 23 24  1  0
 23 25  1  0
 25 26  2  0
  5 27  1  0
 27 28  2  0
 28  2  1  0
 12  7  1  0
 18 14  1  0
 26 20  1  0
 19 11  1  0
M  CHG  1  13   1
M  END
>  <Compound_ID>  (85) 
C38189582

>  <Active>  (85) 
0

>  <Smiles>  (85) 
Cc1ccc(C=C2CCC[C@@H]3C2=[NH+]c2ncnn2[C@@H]3c2ccc(C)cc2)cc1

>  <canonical_smi>  (85) 
Cc1ccc(C=C2CCC[C@@H]3C2=[NH+]c2ncnn2[C@@H]3c2ccc(C)cc2)cc1

>  <Set>  (85) 
G2 inactive

>  <Set_type>  (85) 
Train

>  <MW>  (85) 
369.49

>  <HBD>  (85) 
1

>  <HBA>  (85) 
2

>  <NRB>  (85) 
2

>  <NR>  (85) 
5

>  <NAR>  (85) 
3

>  <PSA>  (85) 
44.68

>  <Standard Type>  (85) 
nan

>  <Standard Relation>  (85) 
nan

>  <Standard Units>  (85) 
nan

>  <Standard Value>  (85) 
nan

>  <Assay ChEMBL ID>  (85) 
nan

>  <Assay Description>  (85) 
nan

>  <BAO Label>  (85) 
nan

$$$$

     RDKit          2D

 34 38  0  0  0  0  0  0  0  0999 V2000
   -9.7730   -8.1049    0.0000 C   0  0  0  0  0  0  0  0  0  0  0  0
   -8.6583   -9.1085    0.0000 C   0  0  0  0  0  0  0  0  0  0  0  0
   -8.9702  -10.5758    0.0000 C   0  0  0  0  0  0  0  0  0  0  0  0
   -7.2317   -8.6450    0.0000 C   0  0  0  0  0  0  0  0  0  0  0  0
   -6.9199   -7.1778    0.0000 C   0  0  0  0  0  0  0  0  0  0  0  0
   -5.4933   -6.7143    0.0000 C   0  0  0  0  0  0  0  0  0  0  0  0
   -4.3786   -7.7180    0.0000 C   0  0  0  0  0  0  0  0  0  0  0  0
   -2.9520   -7.2544    0.0000 C   0  0  0  0  0  0  0  0  0  0  0  0
   -2.6401   -5.7872    0.0000 N   0  0  0  0  0  0  0  0  0  0  0  0
   -1.2135   -5.3237    0.0000 N   0  0  0  0  0  0  0  0  0  0  0  0
   -0.0000   -6.2054    0.0000 C   0  0  0  0  0  0  0  0  0  0  0  0
    0.0000   -7.7054    0.0000 N   0  0  0  0  0  0  0  0  0  0  0  0
    1.2135   -5.3237    0.0000 C   0  0  0  0  0  0  0  0  0  0  0  0
    2.6401   -5.7872    0.0000 S   0  0  0  0  0  0  0  0  0  0  0  0
    3.1036   -4.3606    0.0000 O   0  0  0  0  0  0  0  0  0  0  0  0
    2.1766   -7.2138    0.0000 O   0  0  0  0  0  0  0  0  0  0  0  0
    4.0667   -6.2508    0.0000 C   0  0  0  0  0  0  0  0  0  0  0  0
    4.3786   -7.7180    0.0000 C   0  0  0  0  0  0  0  0  0  0  0  0
    5.8051   -8.1815    0.0000 C   0  0  0  0  0  0  0  0  0  0  0  0
    6.9199   -7.1778    0.0000 C   0  0  0  0  0  0  0  0  0  0  0  0
    6.6080   -5.7106    0.0000 C   0  0  0  0  0  0  0  0  0  0  0  0
    5.1814   -5.2471    0.0000 C   0  0  0  0  0  0  0  0  0  0  0  0
    0.7500   -3.8971    0.0000 C   0  0  0  0  0  0  0  0  0  0  0  0
    1.5000   -2.5981    0.0000 N   0  0  0  0  0  0  0  0  0  0  0  0
    0.7500   -1.2990    0.0000 C   0  0  0  0  0  0  0  0  0  0  0  0
    1.5000    0.0000    0.0000 C   0  0  0  0  0  0  0  0  0  0  0  0
    0.7500    1.2990    0.0000 C   0  0  0  0  0  0  0  0  0  0  0  0
   -0.7500    1.2990    0.0000 C   0  0  0  0  0  0  0  0  0  0  0  0
   -1.5000    0.0000    0.0000 C   0  0  0  0  0  0  0  0  0  0  0  0
   -0.7500   -1.2990    0.0000 C   0  0  0  0  0  0  0  0  0  0  0  0
   -1.5000   -2.5981    0.0000 N   0  0  0  0  0  0  0  0  0  0  0  0
   -0.7500   -3.8971    0.0000 C   0  0  0  0  0  0  0  0  0  0  0  0
   -4.6904   -9.1852    0.0000 C   0  0  0  0  0  0  0  0  0  0  0  0
   -6.1170   -9.6487    0.0000 C   0  0  0  0  0  0  0  0  0  0  0  0
  1  2  1  0
  2  3  1  0
  2  4  1  0
  4  5  2  0
  5  6  1  0
  6  7  2  0
  7  8  1  0
  8  9  2  0
  9 10  1  0
 10 11  1  0
 11 12  1  0
 11 13  2  0
 13 14  1  0
 14 15  2  0
 14 16  2  0
 14 17  1  0
 17 18  2  0
 18 19  1  0
 19 20  2  0
 20 21  1  0
 21 22  2  0
 13 23  1  0
 23 24  2  0
 24 25  1  0
 25 26  2  0
 26 27  1  0
 27 28  2  0
 28 29  1  0
 29 30  2  0
 30 31  1  0
 31 32  2  0
  7 33  1  0
 33 34  2  0
 34  4  1  0
 32 10  1  0
 22 17  1  0
 32 23  1  0
 30 25  1  0
M  END
>  <Compound_ID>  (86) 
C02382554

>  <Active>  (86) 
0

>  <Smiles>  (86) 
CC(C)c1ccc(/C=N/n2c(N)c(S(=O)(=O)c3ccccc3)c3nc4ccccc4nc32)cc1

>  <canonical_smi>  (86) 
CC(C)c1ccc(/C=N/n2c(N)c(S(=O)(=O)c3ccccc3)c3nc4ccccc4nc32)cc1

>  <Set>  (86) 
G2 inactive

>  <Set_type>  (86) 
Train

>  <MW>  (86) 
469.57

>  <HBD>  (86) 
1

>  <HBA>  (86) 
5

>  <NRB>  (86) 
5

>  <NR>  (86) 
5

>  <NAR>  (86) 
5

>  <PSA>  (86) 
103.23

>  <Standard Type>  (86) 
nan

>  <Standard Relation>  (86) 
nan

>  <Standard Units>  (86) 
nan

>  <Standard Value>  (86) 
nan

>  <Assay ChEMBL ID>  (86) 
nan

>  <Assay Description>  (86) 
nan

>  <BAO Label>  (86) 
nan

$$$$

     RDKit          2D

 30 33  0  0  0  0  0  0  0  0999 V2000
    3.7500   -6.4952    0.0000 C   0  0  0  0  0  0  0  0  0  0  0  0
    3.0000   -5.1962    0.0000 C   0  0  0  0  0  0  0  0  0  0  0  0
    1.5000   -5.1962    0.0000 C   0  0  0  0  0  0  0  0  0  0  0  0
    0.7500   -3.8971    0.0000 C   0  0  0  0  0  0  0  0  0  0  0  0
    1.5000   -2.5981    0.0000 C   0  0  0  0  0  0  0  0  0  0  0  0
    0.7500   -1.2990    0.0000 C   0  0  0  0  0  0  0  0  0  0  0  0
    1.5000    0.0000    0.0000 O   0  0  0  0  0  0  0  0  0  0  0  0
    0.7500    1.2990    0.0000 C   0  0  0  0  0  0  0  0  0  0  0  0
   -0.7500    1.2990    0.0000 C   0  0  0  0  0  0  0  0  0  0  0  0
   -1.5000    2.5981    0.0000 O   0  0  0  0  0  0  0  0  0  0  0  0
   -3.0000    2.5981    0.0000 C   0  0  0  0  0  0  0  0  0  0  0  0
   -3.7500    3.8971    0.0000 C   0  0  0  0  0  0  0  0  0  0  0  0
   -3.0000    5.1962    0.0000 C   0  0  0  0  0  0  0  0  0  0  0  0
   -3.7500    6.4952    0.0000 C   0  0  0  0  0  0  0  0  0  0  0  0
   -5.2500    6.4952    0.0000 C   0  0  0  0  0  0  0  0  0  0  0  0
   -6.0000    7.7942    0.0000 C   0  0  0  0  0  0  0  0  0  0  0  0
   -6.0000    5.1962    0.0000 C   0  0  0  0  0  0  0  0  0  0  0  0
   -7.5000    5.1962    0.0000 C   0  0  0  0  0  0  0  0  0  0  0  0
   -5.2500    3.8971    0.0000 C   0  0  0  0  0  0  0  0  0  0  0  0
   -3.7500    1.2990    0.0000 O   0  0  0  0  0  0  0  0  0  0  0  0
   -3.0000    0.0000    0.0000 C   0  0  0  0  0  0  0  0  0  0  0  0
   -3.7500   -1.2990    0.0000 C   0  0  0  0  0  0  0  0  0  0  0  0
   -3.0000   -2.5981    0.0000 O   0  0  0  0  0  0  0  0  0  0  0  0
   -5.2500   -1.2990    0.0000 C   0  0  0  0  0  0  0  0  0  0  0  0
   -6.0000   -2.5981    0.0000 O   0  0  0  0  0  0  0  0  0  0  0  0
   -1.5000    0.0000    0.0000 C   0  0  0  0  0  0  0  0  0  0  0  0
   -0.7500   -1.2990    0.0000 O   0  0  0  0  0  0  0  0  0  0  0  0
    3.0000   -2.5981    0.0000 C   0  0  0  0  0  0  0  0  0  0  0  0
    3.7500   -3.8971    0.0000 C   0  0  0  0  0  0  0  0  0  0  0  0
    5.2500   -3.8971    0.0000 C   0  0  0  0  0  0  0  0  0  0  0  0
  1  2  1  0
  2  3  2  0
  3  4  1  0
  4  5  2  0
  6  5  1  6
  6  7  1  0
  7  8  1  0
  9  8  1  6
  9 10  1  0
 10 11  1  0
 11 12  1  6
 12 13  2  0
 13 14  1  0
 14 15  2  0
 15 16  1  0
 15 17  1  0
 17 18  1  0
 17 19  2  0
 11 20  1  0
 21 20  1  6
 21 22  1  0
 22 23  1  6
 22 24  1  0
 24 25  1  0
 21 26  1  0
 26 27  1  1
  5 28  1  0
 28 29  2  0
 29 30  1  0
 29  2  1  0
 27  6  1  0
 26  9  1  0
 19 12  1  0
M  END
>  <Compound_ID>  (87) 
C35565229

>  <Active>  (87) 
0

>  <Smiles>  (87) 
Cc1ccc([C@H]2OC[C@H]3O[C@@H](c4ccc(C)c(C)c4)O[C@@H]([C@H](O)CO)[C@@H]3O2)cc1C

>  <canonical_smi>  (87) 
Cc1ccc([C@H]2OC[C@H]3O[C@@H](c4ccc(C)c(C)c4)O[C@@H]([C@H](O)CO)[C@@H]3O2)cc1C

>  <Set>  (87) 
G2 inactive

>  <Set_type>  (87) 
Train

>  <MW>  (87) 
414.5

>  <HBD>  (87) 
2

>  <HBA>  (87) 
6

>  <NRB>  (87) 
4

>  <NR>  (87) 
4

>  <NAR>  (87) 
2

>  <PSA>  (87) 
77.38

>  <Standard Type>  (87) 
nan

>  <Standard Relation>  (87) 
nan

>  <Standard Units>  (87) 
nan

>  <Standard Value>  (87) 
nan

>  <Assay ChEMBL ID>  (87) 
nan

>  <Assay Description>  (87) 
nan

>  <BAO Label>  (87) 
nan

$$$$

     RDKit          2D

 35 37  0  0  0  0  0  0  0  0999 V2000
    5.2500   -1.2990    0.0000 C   0  0  0  0  0  0  0  0  0  0  0  0
    3.7500   -1.2990    0.0000 O   0  0  0  0  0  0  0  0  0  0  0  0
    3.0000    0.0000    0.0000 C   0  0  0  0  0  0  0  0  0  0  0  0
    3.7500    1.2990    0.0000 O   0  0  0  0  0  0  0  0  0  0  0  0
    1.5000    0.0000    0.0000 C   0  0  0  0  0  0  0  0  0  0  0  0
    0.7500   -1.2990    0.0000 C   0  0  0  0  0  0  0  0  0  0  0  0
   -0.7500   -1.2990    0.0000 C   0  0  0  0  0  0  0  0  0  0  0  0
   -1.5000    0.0000    0.0000 C   0  0  0  0  0  0  0  0  0  0  0  0
   -3.0000    0.0000    0.0000 N   0  0  0  0  0  0  0  0  0  0  0  0
   -3.8817   -1.2135    0.0000 C   0  0  0  0  0  0  0  0  0  0  0  0
   -3.4182   -2.6401    0.0000 O   0  0  0  0  0  0  0  0  0  0  0  0
   -5.3083   -0.7500    0.0000 C   0  0  0  0  0  0  0  0  0  0  0  0
   -5.3083    0.7500    0.0000 C   0  0  0  0  0  0  0  0  0  0  0  0
   -6.5218    1.6317    0.0000 S   0  0  0  0  0  0  0  0  0  0  0  0
   -6.3650    3.1235    0.0000 C   0  0  0  0  0  0  0  0  0  0  0  0
   -7.5785    4.0051    0.0000 N   0  0  0  0  0  4  0  0  0  0  0  0
   -4.9947    3.7336    0.0000 N   0  0  0  0  0  0  0  0  0  0  0  0
   -4.8379    5.2253    0.0000 N   0  0  0  0  0  0  0  0  0  0  0  0
   -6.0514    6.1070    0.0000 C   0  0  0  0  0  0  0  0  0  0  0  0
   -7.4217    5.4969    0.0000 C   0  0  0  0  0  0  0  0  0  0  0  0
   -5.8946    7.5988    0.0000 C   0  0  0  0  0  0  0  0  0  0  0  0
   -7.1081    8.4805    0.0000 C   0  0  0  0  0  0  0  0  0  0  0  0
   -6.9514    9.9723    0.0000 C   0  0  0  0  0  0  0  0  0  0  0  0
   -5.5810   10.5824    0.0000 C   0  0  0  0  0  0  0  0  0  0  0  0
   -5.4242   12.0742    0.0000 C   0  0  0  0  0  0  0  0  0  0  0  0
   -6.6378   12.9558    0.0000 C   0  0  0  0  0  0  0  0  0  0  0  0
   -6.4810   14.4476    0.0000 N   0  0  0  0  0  0  0  0  0  0  0  0
   -5.1107   15.0577    0.0000 C   0  0  0  0  0  0  0  0  0  0  0  0
   -7.6945   15.3293    0.0000 C   0  0  0  0  0  0  0  0  0  0  0  0
   -8.0081   12.3457    0.0000 C   0  0  0  0  0  0  0  0  0  0  0  0
   -8.1649   10.8539    0.0000 C   0  0  0  0  0  0  0  0  0  0  0  0
   -3.8817    1.2135    0.0000 C   0  0  0  0  0  0  0  0  0  0  0  0
   -3.4182    2.6401    0.0000 O   0  0  0  0  0  0  0  0  0  0  0  0
   -0.7500    1.2990    0.0000 C   0  0  0  0  0  0  0  0  0  0  0  0
    0.7500    1.2990    0.0000 C   0  0  0  0  0  0  0  0  0  0  0  0
  1  2  1  0
  2  3  1  0
  3  4  2  0
  3  5  1  0
  5  6  2  0
  6  7  1  0
  7  8  2  0
  8  9  1  0
  9 10  1  0
 10 11  2  0
 10 12  1  0
 12 13  1  0
 13 14  1  6
 14 15  1  0
 15 16  2  0
 15 17  1  0
 17 18  1  0
 18 19  2  0
 19 20  1  0
 19 21  1  0
 21 22  2  0
 22 23  1  0
 23 24  2  0
 24 25  1  0
 25 26  2  0
 26 27  1  0
 27 28  1  0
 27 29  1  0
 26 30  1  0
 30 31  2  0
 13 32  1  0
 32 33  2  0
  8 34  1  0
 34 35  2  0
 35  5  1  0
 32  9  1  0
 31 23  1  0
M  CHG  1  16   1
M  END
>  <Compound_ID>  (88) 
C59489448

>  <Active>  (88) 
0

>  <Smiles>  (88) 
COC(=O)c1ccc(N2C(=O)C[C@H](SC(=[NH2+])N/N=C(C)/C=C/c3ccc(N(C)C)cc3)C2=O)cc1

>  <canonical_smi>  (88) 
COC(=O)c1ccc(N2C(=O)C[C@H](SC(=[NH2+])N/N=C(C)/C=C/c3ccc(N(C)C)cc3)C2=O)cc1

>  <Set>  (88) 
G2 inactive

>  <Set_type>  (88) 
Train

>  <MW>  (88) 
494.6

>  <HBD>  (88) 
2

>  <HBA>  (88) 
7

>  <NRB>  (88) 
7

>  <NR>  (88) 
3

>  <NAR>  (88) 
2

>  <PSA>  (88) 
116.9

>  <Standard Type>  (88) 
nan

>  <Standard Relation>  (88) 
nan

>  <Standard Units>  (88) 
nan

>  <Standard Value>  (88) 
nan

>  <Assay ChEMBL ID>  (88) 
nan

>  <Assay Description>  (88) 
nan

>  <BAO Label>  (88) 
nan

$$$$

     RDKit          2D

 29 31  0  0  0  0  0  0  0  0999 V2000
    1.5342   -9.4474    0.0000 O   0  0  0  0  0  0  0  0  0  0  0  0
    0.3207   -8.5658    0.0000 C   0  0  0  0  0  0  0  0  0  0  0  0
    0.4775   -7.0740    0.0000 C   0  0  0  0  0  0  0  0  0  0  0  0
    1.8478   -6.4639    0.0000 S   0  0  0  0  0  0  0  0  0  0  0  0
    2.0046   -4.9721    0.0000 C   0  0  0  0  0  0  0  0  0  0  0  0
    0.8899   -3.9684    0.0000 N   0  0  0  0  0  0  0  0  0  0  0  0
    1.5000   -2.5981    0.0000 N   0  0  0  0  0  0  0  0  0  0  0  0
    0.7500   -1.2990    0.0000 C   0  0  0  0  0  0  0  0  0  0  0  0
    1.5000    0.0000    0.0000 C   0  0  0  0  0  0  0  0  0  0  0  0
    0.7500    1.2990    0.0000 C   0  0  0  0  0  0  0  0  0  0  0  0
   -0.7500    1.2990    0.0000 C   0  0  0  0  0  0  0  0  0  0  0  0
   -1.5000    0.0000    0.0000 C   0  0  0  0  0  0  0  0  0  0  0  0
   -0.7500   -1.2990    0.0000 C   0  0  0  0  0  0  0  0  0  0  0  0
    2.9918   -2.7549    0.0000 C   0  0  0  0  0  0  0  0  0  0  0  0
    3.9955   -1.6402    0.0000 S   0  0  0  0  0  0  0  0  0  0  0  0
    3.3037   -4.2221    0.0000 S   0  0  0  0  0  0  0  0  0  0  0  0
   -1.0496   -9.1759    0.0000 N   0  0  0  0  0  0  0  0  0  0  0  0
   -1.2064  -10.6676    0.0000 N   0  0  0  0  0  0  0  0  0  0  0  0
   -2.5767  -11.2778    0.0000 C   0  0  0  0  0  0  0  0  0  0  0  0
   -3.7902  -10.3961    0.0000 O   0  0  0  0  0  0  0  0  0  0  0  0
   -2.7335  -12.7695    0.0000 C   0  0  0  0  0  0  0  0  0  0  0  0
   -4.1038  -13.3796    0.0000 C   0  0  0  0  0  0  0  0  0  0  0  0
   -4.2606  -14.8714    0.0000 C   0  0  0  0  0  0  0  0  0  0  0  0
   -3.0471  -15.7531    0.0000 C   0  0  0  0  0  0  0  0  0  0  0  0
   -1.6768  -15.1430    0.0000 C   0  0  0  0  0  0  0  0  0  0  0  0
   -0.4633  -16.0247    0.0000 N   0  0  0  0  0  4  0  0  0  0  0  0
    0.9071  -15.4146    0.0000 O   0  0  0  0  0  0  0  0  0  0  0  0
   -0.6200  -17.5165    0.0000 O   0  0  0  0  0  1  0  0  0  0  0  0
   -1.5200  -13.6512    0.0000 C   0  0  0  0  0  0  0  0  0  0  0  0
  1  2  2  0
  2  3  1  0
  3  4  1  0
  4  5  1  0
  5  6  2  0
  6  7  1  0
  7  8  1  0
  8  9  2  0
  9 10  1  0
 10 11  2  0
 11 12  1  0
 12 13  2  0
  7 14  1  0
 14 15  2  0
 14 16  1  0
  2 17  1  0
 17 18  1  0
 18 19  1  0
 19 20  2  0
 19 21  1  0
 21 22  2  0
 22 23  1  0
 23 24  2  0
 24 25  1  0
 25 26  1  0
 26 27  2  0
 26 28  1  0
 25 29  2  0
 16  5  1  0
 29 21  1  0
 13  8  1  0
M  CHG  2  26   1  28  -1
M  END
>  <Compound_ID>  (89) 
C22513657

>  <Active>  (89) 
0

>  <Smiles>  (89) 
O=C(CSc1nn(-c2ccccc2)c(=S)s1)NNC(=O)c1cccc([N+](=O)[O-])c1

>  <canonical_smi>  (89) 
O=C(CSc1nn(-c2ccccc2)c(=S)s1)NNC(=O)c1cccc([N+](=O)[O-])c1

>  <Set>  (89) 
G2 inactive

>  <Set_type>  (89) 
Train

>  <MW>  (89) 
447.52

>  <HBD>  (89) 
2

>  <HBA>  (89) 
7

>  <NRB>  (89) 
6

>  <NR>  (89) 
3

>  <NAR>  (89) 
3

>  <PSA>  (89) 
119.16

>  <Standard Type>  (89) 
nan

>  <Standard Relation>  (89) 
nan

>  <Standard Units>  (89) 
nan

>  <Standard Value>  (89) 
nan

>  <Assay ChEMBL ID>  (89) 
nan

>  <Assay Description>  (89) 
nan

>  <BAO Label>  (89) 
nan

$$$$

     RDKit          2D

 29 31  0  0  0  0  0  0  0  0999 V2000
    3.6172  -12.4018    0.0000 O   0  0  0  0  0  0  0  0  0  0  0  0
    4.8308  -11.5201    0.0000 C   0  0  0  0  0  0  0  0  0  0  0  0
    4.6740  -10.0283    0.0000 C   0  0  0  0  0  0  0  0  0  0  0  0
    3.3037   -9.4182    0.0000 C   0  0  0  0  0  0  0  0  0  0  0  0
    2.0046  -10.1682    0.0000 N   0  0  0  0  0  0  0  0  0  0  0  0
    0.8899   -9.1645    0.0000 C   0  0  0  0  0  0  0  0  0  0  0  0
   -0.5773   -9.4764    0.0000 O   0  0  0  0  0  0  0  0  0  0  0  0
    1.5000   -7.7942    0.0000 N   0  0  0  0  0  0  0  0  0  0  0  0
    0.7500   -6.4952    0.0000 C   0  0  0  0  0  0  0  0  0  0  0  0
    1.5000   -5.1962    0.0000 C   0  0  0  0  0  0  0  0  0  0  0  0
    3.0000   -5.1962    0.0000 O   0  0  0  0  0  0  0  0  0  0  0  0
    0.7500   -3.8971    0.0000 C   0  0  0  0  0  0  0  0  0  0  0  0
    1.5000   -2.5981    0.0000 O   0  0  0  0  0  0  0  0  0  0  0  0
    0.7500   -1.2990    0.0000 C   0  0  0  0  0  0  0  0  0  0  0  0
    1.5000    0.0000    0.0000 C   0  0  0  0  0  0  0  0  0  0  0  0
    0.7500    1.2990    0.0000 C   0  0  0  0  0  0  0  0  0  0  0  0
    1.5000    2.5981    0.0000 Cl  0  0  0  0  0  0  0  0  0  0  0  0
   -0.7500    1.2990    0.0000 C   0  0  0  0  0  0  0  0  0  0  0  0
   -1.5000    0.0000    0.0000 C   0  0  0  0  0  0  0  0  0  0  0  0
   -0.7500   -1.2990    0.0000 C   0  0  0  0  0  0  0  0  0  0  0  0
   -1.5000   -2.5981    0.0000 Cl  0  0  0  0  0  0  0  0  0  0  0  0
    2.9918   -7.9510    0.0000 C   0  0  0  0  0  0  0  0  0  0  0  0
    3.9955   -6.8363    0.0000 O   0  0  0  0  0  0  0  0  0  0  0  0
    6.2011  -12.1302    0.0000 N   0  0  0  0  0  0  0  0  0  0  0  0
    6.3579  -13.6220    0.0000 C   0  0  0  0  0  0  0  0  0  0  0  0
    7.7282  -14.2321    0.0000 C   0  0  0  0  0  0  0  0  0  0  0  0
    8.9417  -13.3504    0.0000 O   0  0  0  0  0  0  0  0  0  0  0  0
    8.7849  -11.8587    0.0000 C   0  0  0  0  0  0  0  0  0  0  0  0
    7.4146  -11.2486    0.0000 C   0  0  0  0  0  0  0  0  0  0  0  0
  1  2  2  0
  2  3  1  0
  4  3  1  1
  4  5  1  0
  5  6  1  0
  6  7  2  0
  6  8  1  0
  8  9  1  0
  9 10  1  0
 10 11  1  6
 10 12  1  0
 12 13  1  0
 13 14  1  0
 14 15  2  0
 15 16  1  0
 16 17  1  0
 16 18  2  0
 18 19  1  0
 19 20  2  0
 20 21  1  0
  8 22  1  0
 22 23  2  0
  2 24  1  0
 24 25  1  0
 25 26  1  0
 26 27  1  0
 27 28  1  0
 28 29  1  0
 22  4  1  0
 29 24  1  0
 20 14  1  0
M  END
>  <Compound_ID>  (90) 
C24991228

>  <Active>  (90) 
0

>  <Smiles>  (90) 
O=C(C[C@H]1NC(=O)N(C[C@@H](O)COc2cc(Cl)ccc2Cl)C1=O)N1CCOCC1

>  <canonical_smi>  (90) 
O=C(C[C@H]1NC(=O)N(C[C@@H](O)COc2cc(Cl)ccc2Cl)C1=O)N1CCOCC1

>  <Set>  (90) 
G2 inactive

>  <Set_type>  (90) 
Train

>  <MW>  (90) 
446.29

>  <HBD>  (90) 
2

>  <HBA>  (90) 
6

>  <NRB>  (90) 
7

>  <NR>  (90) 
3

>  <NAR>  (90) 
1

>  <PSA>  (90) 
108.41

>  <Standard Type>  (90) 
nan

>  <Standard Relation>  (90) 
nan

>  <Standard Units>  (90) 
nan

>  <Standard Value>  (90) 
nan

>  <Assay ChEMBL ID>  (90) 
nan

>  <Assay Description>  (90) 
nan

>  <BAO Label>  (90) 
nan

$$$$

     RDKit          2D

 32 36  0  0  0  0  0  0  0  0999 V2000
    0.7500   -3.8971    0.0000 C   0  0  0  0  0  0  0  0  0  0  0  0
    1.5000   -2.5981    0.0000 N   0  0  0  0  0  0  0  0  0  0  0  0
    0.7500   -1.2990    0.0000 C   0  0  0  0  0  0  0  0  0  0  0  0
    1.5000    0.0000    0.0000 C   0  0  0  0  0  0  0  0  0  0  0  0
    0.7500    1.2990    0.0000 C   0  0  0  0  0  0  0  0  0  0  0  0
   -0.7500    1.2990    0.0000 C   0  0  0  0  0  0  0  0  0  0  0  0
   -1.5000    2.5981    0.0000 C   0  0  0  0  0  0  0  0  0  0  0  0
   -2.9918    2.7549    0.0000 N   0  0  0  0  0  4  0  0  0  0  0  0
   -3.3037    4.2221    0.0000 C   0  0  0  0  0  0  0  0  0  0  0  0
   -2.0046    4.9721    0.0000 C   0  0  0  0  0  0  0  0  0  0  0  0
   -0.8899    3.9684    0.0000 N   0  0  0  0  0  0  0  0  0  0  0  0
   -1.5000    0.0000    0.0000 C   0  0  0  0  0  0  0  0  0  0  0  0
   -0.7500   -1.2990    0.0000 C   0  0  0  0  0  0  0  0  0  0  0  0
    1.5000   -5.1962    0.0000 C   0  0  0  0  0  0  0  0  0  0  0  0
    0.7500   -6.4952    0.0000 C   0  0  0  0  0  0  0  0  0  0  0  0
    1.5000   -7.7942    0.0000 C   0  0  0  0  0  0  0  0  0  0  0  0
    3.0000   -7.7942    0.0000 C   0  0  0  0  0  0  0  0  0  0  0  0
    3.7500   -9.0933    0.0000 C   0  0  0  0  0  0  0  0  0  0  0  0
    3.0000  -10.3923    0.0000 N   0  0  0  0  0  0  0  0  0  0  0  0
    3.7500  -11.6913    0.0000 C   0  0  0  0  0  0  0  0  0  0  0  0
    3.0000  -12.9904    0.0000 C   0  0  0  0  0  0  0  0  0  0  0  0
    3.7500  -14.2894    0.0000 C   0  0  0  0  0  0  0  0  0  0  0  0
    5.2500  -14.2894    0.0000 C   0  0  0  0  0  0  0  0  0  0  0  0
    6.0000  -15.5885    0.0000 C   0  0  0  0  0  0  0  0  0  0  0  0
    7.4918  -15.7452    0.0000 N   0  0  0  0  0  4  0  0  0  0  0  0
    7.8037  -17.2125    0.0000 C   0  0  0  0  0  0  0  0  0  0  0  0
    6.5046  -17.9625    0.0000 C   0  0  0  0  0  0  0  0  0  0  0  0
    5.3899  -16.9588    0.0000 N   0  0  0  0  0  0  0  0  0  0  0  0
    6.0000  -12.9904    0.0000 C   0  0  0  0  0  0  0  0  0  0  0  0
    5.2500  -11.6913    0.0000 C   0  0  0  0  0  0  0  0  0  0  0  0
    3.7500   -6.4952    0.0000 C   0  0  0  0  0  0  0  0  0  0  0  0
    3.0000   -5.1962    0.0000 C   0  0  0  0  0  0  0  0  0  0  0  0
  1  2  2  0
  2  3  1  0
  3  4  2  0
  4  5  1  0
  5  6  2  0
  6  7  1  0
  7  8  2  0
  8  9  1  0
  9 10  1  0
 10 11  1  0
  6 12  1  0
 12 13  2  0
  1 14  1  0
 14 15  2  0
 15 16  1  0
 16 17  2  0
 17 18  1  0
 18 19  2  0
 19 20  1  0
 20 21  2  0
 21 22  1  0
 22 23  2  0
 23 24  1  0
 24 25  2  0
 25 26  1  0
 26 27  1  0
 27 28  1  0
 23 29  1  0
 29 30  2  0
 17 31  1  0
 31 32  2  0
 13  3  1  0
 32 14  1  0
 11  7  1  0
 30 20  1  0
 28 24  1  0
M  CHG  2   8   1  25   1
M  END
>  <Compound_ID>  (91) 
C01691354

>  <Active>  (91) 
0

>  <Smiles>  (91) 
C(=N/c1ccc(C2=[NH+]CCN2)cc1)\c1ccc(/C=N/c2ccc(C3=[NH+]CCN3)cc2)cc1

>  <canonical_smi>  (91) 
C(=N/c1ccc(C2=[NH+]CCN2)cc1)\c1ccc(/C=N/c2ccc(C3=[NH+]CCN3)cc2)cc1

>  <Set>  (91) 
G2 inactive

>  <Set_type>  (91) 
Train

>  <MW>  (91) 
422.54

>  <HBD>  (91) 
4

>  <HBA>  (91) 
2

>  <NRB>  (91) 
6

>  <NR>  (91) 
5

>  <NAR>  (91) 
3

>  <PSA>  (91) 
76.72

>  <Standard Type>  (91) 
nan

>  <Standard Relation>  (91) 
nan

>  <Standard Units>  (91) 
nan

>  <Standard Value>  (91) 
nan

>  <Assay ChEMBL ID>  (91) 
nan

>  <Assay Description>  (91) 
nan

>  <BAO Label>  (91) 
nan

$$$$

     RDKit          2D

 28 29  0  0  0  0  0  0  0  0999 V2000
    2.6491    0.9642    0.0000 C   0  0  0  0  0  0  0  0  0  0  0  0
    1.5000    0.0000    0.0000 C   0  0  0  0  0  0  0  0  0  0  0  0
    2.6491   -0.9642    0.0000 C   0  0  0  0  0  0  0  0  0  0  0  0
    0.7500   -1.2990    0.0000 C   0  0  0  0  0  0  0  0  0  0  0  0
   -0.7500   -1.2990    0.0000 C   0  0  0  0  0  0  0  0  0  0  0  0
   -1.5000   -2.5981    0.0000 N   0  0  0  0  0  0  0  0  0  0  0  0
   -3.0000   -2.5981    0.0000 C   0  0  0  0  0  0  0  0  0  0  0  0
   -3.7500   -1.2990    0.0000 O   0  0  0  0  0  0  0  0  0  0  0  0
   -3.7500   -3.8971    0.0000 C   0  0  0  0  0  0  0  0  0  0  0  0
   -5.2500   -3.8971    0.0000 C   0  0  0  0  0  0  0  0  0  0  0  0
   -6.0000   -5.1962    0.0000 C   0  0  0  0  0  0  0  0  0  0  0  0
   -5.2500   -6.4952    0.0000 O   0  0  0  0  0  0  0  0  0  0  0  0
   -7.5000   -5.1962    0.0000 N   0  0  0  0  0  0  0  0  0  0  0  0
   -8.2500   -3.8971    0.0000 C   0  0  0  0  0  0  0  0  0  0  0  0
   -8.5105   -2.4199    0.0000 C   0  0  0  0  0  0  0  0  0  0  0  0
   -6.8405   -3.3841    0.0000 C   0  0  0  0  0  0  0  0  0  0  0  0
   -9.7500   -3.8971    0.0000 C   0  0  0  0  0  0  0  0  0  0  0  0
  -10.5000   -5.1962    0.0000 C   0  0  0  0  0  0  0  0  0  0  0  0
  -12.0000   -5.1962    0.0000 N   0  0  0  0  0  4  0  0  0  0  0  0
   -9.7500   -6.4952    0.0000 C   0  0  0  0  0  0  0  0  0  0  0  0
   -8.2500   -6.4952    0.0000 C   0  0  0  0  0  0  0  0  0  0  0  0
   -6.8405   -7.0082    0.0000 C   0  0  0  0  0  0  0  0  0  0  0  0
   -8.5105   -7.9724    0.0000 C   0  0  0  0  0  0  0  0  0  0  0  0
   -1.5000    0.0000    0.0000 C   0  0  0  0  0  0  0  0  0  0  0  0
   -0.7500    1.2990    0.0000 C   0  0  0  0  0  0  0  0  0  0  0  0
   -2.1595    1.8121    0.0000 C   0  0  0  0  0  0  0  0  0  0  0  0
   -0.4895    2.7762    0.0000 C   0  0  0  0  0  0  0  0  0  0  0  0
    0.7500    1.2990    0.0000 N   0  0  0  0  0  4  0  0  0  0  0  0
  1  2  1  0
  2  3  1  0
  2  4  1  0
  4  5  1  0
  5  6  1  0
  6  7  1  0
  7  8  2  0
  7  9  1  0
  9 10  1  0
 10 11  1  0
 11 12  2  0
 11 13  1  0
 13 14  1  0
 14 15  1  0
 14 16  1  0
 14 17  1  0
 17 18  1  0
 18 19  1  0
 18 20  1  0
 20 21  1  0
 21 22  1  0
 21 23  1  0
  5 24  1  0
 24 25  1  0
 25 26  1  0
 25 27  1  0
 25 28  1  0
 28  2  1  0
 21 13  1  0
M  CHG  2  19   1  28   1
M  END
>  <Compound_ID>  (92) 
C05464877

>  <Active>  (92) 
0

>  <Smiles>  (92) 
CC1(C)CC(NC(=O)CCC(=O)N2C(C)(C)CC([NH3+])CC2(C)C)CC(C)(C)[NH2+]1

>  <canonical_smi>  (92) 
CC1(C)CC(NC(=O)CCC(=O)N2C(C)(C)CC([NH3+])CC2(C)C)CC(C)(C)[NH2+]1

>  <Set>  (92) 
G2 inactive

>  <Set_type>  (92) 
Train

>  <MW>  (92) 
396.62

>  <HBD>  (92) 
3

>  <HBA>  (92) 
2

>  <NRB>  (92) 
4

>  <NR>  (92) 
2

>  <NAR>  (92) 
0

>  <PSA>  (92) 
93.66

>  <Standard Type>  (92) 
nan

>  <Standard Relation>  (92) 
nan

>  <Standard Units>  (92) 
nan

>  <Standard Value>  (92) 
nan

>  <Assay ChEMBL ID>  (92) 
nan

>  <Assay Description>  (92) 
nan

>  <BAO Label>  (92) 
nan

$$$$

     RDKit          2D

 32 37  0  0  0  0  0  0  0  0999 V2000
    1.5000    0.0000    0.0000 C   0  0  0  0  0  0  0  0  0  0  0  0
    0.7500   -1.2990    0.0000 C   0  0  0  0  0  0  0  0  0  0  0  0
   -0.7500   -1.2990    0.0000 C   0  0  0  0  0  0  0  0  0  0  0  0
   -1.5000   -2.5981    0.0000 C   0  0  0  0  0  0  0  0  0  0  0  0
   -3.0000   -2.5981    0.0000 C   0  0  0  0  0  0  0  0  0  0  0  0
   -3.7500   -3.8971    0.0000 N   0  0  0  0  0  4  0  0  0  0  0  0
   -3.0000   -5.1962    0.0000 C   0  0  0  0  0  0  0  0  0  0  0  0
   -1.5000   -5.1962    0.0000 C   0  0  0  0  0  0  0  0  0  0  0  0
   -0.7500   -3.8971    0.0000 O   0  0  0  0  0  0  0  0  0  0  0  0
   -1.5000    0.0000    0.0000 C   0  0  0  0  0  0  0  0  0  0  0  0
   -2.9672    0.3119    0.0000 N   0  0  0  0  0  0  0  0  0  0  0  0
   -3.1240    1.8037    0.0000 C   0  0  0  0  0  0  0  0  0  0  0  0
   -4.4231    2.5537    0.0000 S   0  0  0  0  0  0  0  0  0  0  0  0
   -4.4231    4.0537    0.0000 S   0  0  0  0  0  0  0  0  0  0  0  0
   -5.7221    4.8037    0.0000 C   0  0  0  0  0  0  0  0  0  0  0  0
   -5.8789    6.2954    0.0000 N   0  0  0  0  0  0  0  0  0  0  0  0
   -7.3461    6.6073    0.0000 C   0  0  0  0  0  0  0  0  0  0  0  0
   -8.0961    7.9063    0.0000 C   0  0  0  0  0  0  0  0  0  0  0  0
   -7.3461    9.2054    0.0000 C   0  0  0  0  0  0  0  0  0  0  0  0
   -5.8461    9.2054    0.0000 C   0  0  0  0  0  0  0  0  0  0  0  0
   -5.0961   10.5044    0.0000 N   0  0  0  0  0  4  0  0  0  0  0  0
   -5.8461   11.8035    0.0000 C   0  0  0  0  0  0  0  0  0  0  0  0
   -7.3461   11.8035    0.0000 C   0  0  0  0  0  0  0  0  0  0  0  0
   -8.0961   10.5044    0.0000 O   0  0  0  0  0  0  0  0  0  0  0  0
   -9.5961    7.9063    0.0000 C   0  0  0  0  0  0  0  0  0  0  0  0
  -10.3461    6.6073    0.0000 C   0  0  0  0  0  0  0  0  0  0  0  0
   -9.5961    5.3083    0.0000 C   0  0  0  0  0  0  0  0  0  0  0  0
   -8.0961    5.3083    0.0000 C   0  0  0  0  0  0  0  0  0  0  0  0
   -7.0924    4.1935    0.0000 S   0  0  0  0  0  0  0  0  0  0  0  0
   -1.7537    2.4138    0.0000 S   0  0  0  0  0  0  0  0  0  0  0  0
   -0.7500    1.2990    0.0000 C   0  0  0  0  0  0  0  0  0  0  0  0
    0.7500    1.2990    0.0000 C   0  0  0  0  0  0  0  0  0  0  0  0
  1  2  2  0
  2  3  1  0
  4  3  1  6
  4  5  1  0
  5  6  1  0
  6  7  1  0
  7  8  1  0
  8  9  1  0
  3 10  2  0
 10 11  1  0
 11 12  2  0
 12 13  1  0
 13 14  1  0
 14 15  1  0
 15 16  2  0
 16 17  1  0
 17 18  2  0
 19 18  1  6
 19 20  1  0
 20 21  1  0
 21 22  1  0
 22 23  1  0
 23 24  1  0
 18 25  1  0
 25 26  2  0
 26 27  1  0
 27 28  2  0
 28 29  1  0
 12 30  1  0
 30 31  1  0
 31 32  2  0
 32  1  1  0
  9  4  1  0
 31 10  1  0
 29 15  1  0
 28 17  1  0
 24 19  1  0
M  CHG  2   6   1  21   1
M  END
>  <Compound_ID>  (93) 
C22013645

>  <Active>  (93) 
0

>  <Smiles>  (93) 
c1cc([C@H]2C[NH2+]CCO2)c2nc(SSc3nc4c([C@H]5C[NH2+]CCO5)cccc4s3)sc2c1

>  <canonical_smi>  (93) 
c1cc([C@H]2C[NH2+]CCO2)c2nc(SSc3nc4c([C@H]5C[NH2+]CCO5)cccc4s3)sc2c1

>  <Set>  (93) 
G2 inactive

>  <Set_type>  (93) 
Train

>  <MW>  (93) 
504.73

>  <HBD>  (93) 
2

>  <HBA>  (93) 
6

>  <NRB>  (93) 
5

>  <NR>  (93) 
6

>  <NAR>  (93) 
4

>  <PSA>  (93) 
77.46

>  <Standard Type>  (93) 
nan

>  <Standard Relation>  (93) 
nan

>  <Standard Units>  (93) 
nan

>  <Standard Value>  (93) 
nan

>  <Assay ChEMBL ID>  (93) 
nan

>  <Assay Description>  (93) 
nan

>  <BAO Label>  (93) 
nan

$$$$

     RDKit          2D

 35 39  0  0  0  0  0  0  0  0999 V2000
    5.2500   -6.4952    0.0000 C   0  0  0  0  0  0  0  0  0  0  0  0
    3.7500   -6.4952    0.0000 C   0  0  0  0  0  0  0  0  0  0  0  0
    3.0000   -7.7942    0.0000 C   0  0  0  0  0  0  0  0  0  0  0  0
    1.5000   -7.7942    0.0000 C   0  0  0  0  0  0  0  0  0  0  0  0
    0.7500   -6.4952    0.0000 C   0  0  0  0  0  0  0  0  0  0  0  0
    1.5000   -5.1962    0.0000 C   0  0  0  0  0  0  0  0  0  0  0  0
    0.7500   -3.8971    0.0000 C   0  0  0  0  0  0  0  0  0  0  0  0
    1.5000   -2.5981    0.0000 C   0  0  0  0  0  0  0  0  0  0  0  0
    0.7500   -1.2990    0.0000 C   0  0  0  0  0  0  0  0  0  0  0  0
    1.5000    0.0000    0.0000 C   0  0  0  0  0  0  0  0  0  0  0  0
    0.7500    1.2990    0.0000 C   0  0  0  0  0  0  0  0  0  0  0  0
   -0.7500    1.2990    0.0000 C   0  0  0  0  0  0  0  0  0  0  0  0
   -1.7537    2.4138    0.0000 N   0  0  0  0  0  4  0  0  0  0  0  0
   -3.1240    1.8037    0.0000 C   0  0  0  0  0  0  0  0  0  0  0  0
   -4.4231    2.5537    0.0000 N   0  0  0  0  0  0  0  0  0  0  0  0
   -4.4231    4.0537    0.0000 C   0  0  0  0  0  0  0  0  0  0  0  0
   -3.1240    4.8037    0.0000 C   0  0  0  0  0  0  0  0  0  0  0  0
   -3.1240    6.3037    0.0000 C   0  0  0  0  0  0  0  0  0  0  0  0
   -4.4231    7.0537    0.0000 N   0  0  0  0  0  4  0  0  0  0  0  0
   -4.4231    8.5537    0.0000 C   0  0  0  0  0  0  0  0  0  0  0  0
   -5.7221    6.3037    0.0000 C   0  0  0  0  0  0  0  0  0  0  0  0
   -5.7221    4.8037    0.0000 C   0  0  0  0  0  0  0  0  0  0  0  0
   -2.9672    0.3119    0.0000 N   0  0  0  0  0  0  0  0  0  0  0  0
   -4.0819   -0.6918    0.0000 C   0  0  0  0  0  0  0  0  0  0  0  0
   -5.5085   -0.2283    0.0000 C   0  0  0  0  0  0  0  0  0  0  0  0
   -5.8204    1.2389    0.0000 N   0  0  0  0  0  4  0  0  0  0  0  0
   -7.2470    1.7024    0.0000 C   0  0  0  0  0  0  0  0  0  0  0  0
   -7.5588    3.1697    0.0000 C   0  0  0  0  0  0  0  0  0  0  0  0
   -8.3617    0.6987    0.0000 C   0  0  0  0  0  0  0  0  0  0  0  0
   -8.0498   -0.7685    0.0000 C   0  0  0  0  0  0  0  0  0  0  0  0
   -6.6232   -1.2320    0.0000 C   0  0  0  0  0  0  0  0  0  0  0  0
   -6.3114   -2.6992    0.0000 O   0  0  0  0  0  1  0  0  0  0  0  0
   -1.5000    0.0000    0.0000 C   0  0  0  0  0  0  0  0  0  0  0  0
   -0.7500   -1.2990    0.0000 C   0  0  0  0  0  0  0  0  0  0  0  0
    3.0000   -5.1962    0.0000 C   0  0  0  0  0  0  0  0  0  0  0  0
  1  2  1  0
  2  3  2  0
  3  4  1  0
  4  5  2  0
  5  6  1  0
  6  7  1  0
  7  8  1  0
  8  9  1  0
  9 10  2  0
 10 11  1  0
 11 12  2  0
 12 13  1  0
 13 14  2  0
 14 15  1  0
 15 16  1  0
 16 17  1  0
 17 18  1  0
 18 19  1  0
 19 20  1  0
 19 21  1  0
 21 22  1  0
 14 23  1  0
 23 24  1  0
 24 25  1  0
 25 26  2  0
 26 27  1  0
 27 28  1  0
 27 29  2  0
 29 30  1  0
 30 31  2  0
 31 32  1  0
 23 33  1  0
 33 34  2  0
  6 35  2  0
 35  2  1  0
 34  9  1  0
 33 12  1  0
 22 16  1  0
 31 25  1  0
M  CHG  4  13   1  19   1  26   1  32  -1
M  END
>  <Compound_ID>  (94) 
C29134519

>  <Active>  (94) 
0

>  <Smiles>  (94) 
Cc1cccc(CCc2ccc3[nH+]c(NC4CC[NH+](C)CC4)n(Cc4[nH+]c(C)ccc4[O-])c3c2)c1

>  <canonical_smi>  (94) 
Cc1cccc(CCc2ccc3[nH+]c(NC4CC[NH+](C)CC4)n(Cc4[nH+]c(C)ccc4[O-])c3c2)c1

>  <Set>  (94) 
G2 inactive

>  <Set_type>  (94) 
Train

>  <MW>  (94) 
471.65

>  <HBD>  (94) 
2

>  <HBA>  (94) 
2

>  <NRB>  (94) 
7

>  <NR>  (94) 
5

>  <NAR>  (94) 
4

>  <PSA>  (94) 
72.74

>  <Standard Type>  (94) 
nan

>  <Standard Relation>  (94) 
nan

>  <Standard Units>  (94) 
nan

>  <Standard Value>  (94) 
nan

>  <Assay ChEMBL ID>  (94) 
nan

>  <Assay Description>  (94) 
nan

>  <BAO Label>  (94) 
nan

$$$$

     RDKit          2D

 28 31  0  0  0  0  0  0  0  0999 V2000
    3.0000    0.0000    0.0000 C   0  0  0  0  0  0  0  0  0  0  0  0
    1.5000    0.0000    0.0000 C   0  0  0  0  0  0  0  0  0  0  0  0
    0.7500   -1.2990    0.0000 C   0  0  0  0  0  0  0  0  0  0  0  0
   -0.7500   -1.2990    0.0000 C   0  0  0  0  0  0  0  0  0  0  0  0
   -1.5000    0.0000    0.0000 C   0  0  0  0  0  0  0  0  0  0  0  0
   -3.0000    0.0000    0.0000 C   0  0  0  0  0  0  0  0  0  0  0  0
   -3.7500   -1.2990    0.0000 C   0  0  0  0  0  0  0  0  0  0  0  0
   -3.7500    1.2990    0.0000 N   0  0  0  0  0  0  0  0  0  0  0  0
   -3.0000    2.5981    0.0000 C   0  0  0  0  0  0  0  0  0  0  0  0
   -3.7500    3.8971    0.0000 N   0  0  0  0  0  0  0  0  0  0  0  0
   -5.2458    3.7850    0.0000 C   0  0  0  0  0  0  0  0  0  0  0  0
   -6.2661    4.8846    0.0000 C   0  0  0  0  0  0  0  0  0  0  0  0
   -6.0425    6.3678    0.0000 C   0  0  0  0  0  0  0  0  0  0  0  0
   -4.7435    7.1178    0.0000 C   0  0  0  0  0  0  0  0  0  0  0  0
   -4.8556    8.6136    0.0000 N   0  0  0  0  0  4  0  0  0  0  0  0
   -3.6162    9.4586    0.0000 C   0  0  0  0  0  0  0  0  0  0  0  0
   -3.7283   10.9544    0.0000 C   0  0  0  0  0  0  0  0  0  0  0  0
   -5.0043   11.7430    0.0000 C   0  0  0  0  0  0  0  0  0  0  0  0
   -4.6487   13.2002    0.0000 C   0  0  0  0  0  0  0  0  0  0  0  0
   -3.1529   13.3123    0.0000 S   0  0  0  0  0  0  0  0  0  0  0  0
   -3.4207   14.7882    0.0000 O   0  0  0  0  0  0  0  0  0  0  0  0
   -1.7131   13.7329    0.0000 O   0  0  0  0  0  0  0  0  0  0  0  0
   -2.5841   11.9243    0.0000 C   0  0  0  0  0  0  0  0  0  0  0  0
   -3.3472    6.5698    0.0000 C   0  0  0  0  0  0  0  0  0  0  0  0
   -2.9050    5.1365    0.0000 C   0  0  0  0  0  0  0  0  0  0  0  0
   -1.5000    2.5981    0.0000 N   0  0  0  0  0  0  0  0  0  0  0  0
   -0.7500    1.2990    0.0000 C   0  0  0  0  0  0  0  0  0  0  0  0
    0.7500    1.2990    0.0000 C   0  0  0  0  0  0  0  0  0  0  0  0
  1  2  1  0
  2  3  2  0
  3  4  1  0
  4  5  2  0
  5  6  1  0
  6  7  1  0
  6  8  2  0
  8  9  1  0
  9 10  1  0
 10 11  1  0
 11 12  1  0
 12 13  1  0
 13 14  1  0
 14 15  1  1
 15 16  1  0
 17 16  1  6
 17 18  1  0
 18 19  1  0
 19 20  1  0
 20 21  2  0
 20 22  2  0
 20 23  1  0
 14 24  1  0
 24 25  1  0
  9 26  2  0
 26 27  1  0
 27 28  2  0
 28  2  1  0
 27  5  1  0
 25 10  1  0
 23 17  1  0
M  CHG  1  15   1
M  END
>  <Compound_ID>  (95) 
C15004701

>  <Active>  (95) 
0

>  <Smiles>  (95) 
Cc1ccc2c(C)nc(N3CCC[C@@H]([NH2+]C[C@@H]4CCS(=O)(=O)C4)CC3)nc2c1

>  <canonical_smi>  (95) 
Cc1ccc2c(C)nc(N3CCC[C@@H]([NH2+]C[C@@H]4CCS(=O)(=O)C4)CC3)nc2c1

>  <Set>  (95) 
G2 inactive

>  <Set_type>  (95) 
Train

>  <MW>  (95) 
403.57

>  <HBD>  (95) 
1

>  <HBA>  (95) 
5

>  <NRB>  (95) 
4

>  <NR>  (95) 
4

>  <NAR>  (95) 
2

>  <PSA>  (95) 
79.77

>  <Standard Type>  (95) 
nan

>  <Standard Relation>  (95) 
nan

>  <Standard Units>  (95) 
nan

>  <Standard Value>  (95) 
nan

>  <Assay ChEMBL ID>  (95) 
nan

>  <Assay Description>  (95) 
nan

>  <BAO Label>  (95) 
nan

$$$$

     RDKit          2D

 28 32  0  0  0  0  0  0  0  0999 V2000
    3.2990    9.8398    0.0000 C   0  0  0  0  0  0  0  0  0  0  0  0
    3.6109    8.3726    0.0000 C   0  0  0  0  0  0  0  0  0  0  0  0
    2.4962    7.3689    0.0000 N   0  0  0  0  0  0  0  0  0  0  0  0
    1.0696    7.8324    0.0000 C   0  0  0  0  0  0  0  0  0  0  0  0
    0.7577    9.2996    0.0000 C   0  0  0  0  0  0  0  0  0  0  0  0
   -0.6689    9.7632    0.0000 O   0  0  0  0  0  0  0  0  0  0  0  0
    2.8081    5.9017    0.0000 C   0  0  0  0  0  0  0  0  0  0  0  0
    4.2346    5.4381    0.0000 N   0  0  0  0  0  0  0  0  0  0  0  0
    4.5465    3.9709    0.0000 C   0  0  0  0  0  0  0  0  0  0  0  0
    3.4318    2.9672    0.0000 N   0  0  0  0  0  0  0  0  0  0  0  0
    2.0052    3.4307    0.0000 C   0  0  0  0  0  0  0  0  0  0  0  0
    1.6933    4.8980    0.0000 C   0  0  0  0  0  0  0  0  0  0  0  0
    0.2016    5.0548    0.0000 S   0  0  0  0  0  0  0  0  0  0  0  0
   -0.4086    3.6844    0.0000 C   0  0  0  0  0  0  0  0  0  0  0  0
   -1.8351    3.2209    0.0000 N   0  0  0  0  0  4  0  0  0  0  0  0
   -2.1470    1.7537    0.0000 C   0  0  0  0  0  0  0  0  0  0  0  0
   -3.5736    1.2902    0.0000 N   0  0  0  0  0  0  0  0  0  0  0  0
   -4.6883    2.2939    0.0000 C   0  0  0  0  0  0  0  0  0  0  0  0
   -6.1149    1.8303    0.0000 C   0  0  0  0  0  0  0  0  0  0  0  0
   -6.4268    0.3631    0.0000 O   0  0  0  0  0  0  0  0  0  0  0  0
   -5.3120   -0.6406    0.0000 C   0  0  0  0  0  0  0  0  0  0  0  0
   -3.8855   -0.1771    0.0000 C   0  0  0  0  0  0  0  0  0  0  0  0
   -1.0323    0.7500    0.0000 C   0  0  0  0  0  0  0  0  0  0  0  0
    0.3943    1.2135    0.0000 C   0  0  0  0  0  0  0  0  0  0  0  0
    0.7062    2.6807    0.0000 C   0  0  0  0  0  0  0  0  0  0  0  0
    1.2760    0.0000    0.0000 C   0  0  0  0  0  0  0  0  0  0  0  0
    0.3943   -1.2135    0.0000 C   0  0  0  0  0  0  0  0  0  0  0  0
   -1.0323   -0.7500    0.0000 C   0  0  0  0  0  0  0  0  0  0  0  0
  1  2  1  0
  2  3  1  0
  3  4  1  0
  4  5  1  0
  5  6  1  0
  3  7  1  0
  7  8  2  0
  8  9  1  0
  9 10  2  0
 10 11  1  0
 11 12  2  0
 12 13  1  0
 13 14  1  0
 14 15  2  0
 15 16  1  0
 16 17  1  0
 17 18  1  0
 18 19  1  0
 19 20  1  0
 20 21  1  0
 21 22  1  0
 16 23  2  0
 23 24  1  0
 24 25  2  0
 24 26  1  0
 26 27  1  0
 27 28  1  0
 12  7  1  0
 25 14  1  0
 25 11  1  0
 22 17  1  0
 28 23  1  0
M  CHG  1  15   1
M  END
>  <Compound_ID>  (96) 
C02433709

>  <Active>  (96) 
0

>  <Smiles>  (96) 
CCN(CCO)c1ncnc2c1sc1[nH+]c(N3CCOCC3)c3c(c12)CCC3

>  <canonical_smi>  (96) 
CCN(CCO)c1ncnc2c1sc1[nH+]c(N3CCOCC3)c3c(c12)CCC3

>  <Set>  (96) 
G2 inactive

>  <Set_type>  (96) 
Train

>  <MW>  (96) 
400.53

>  <HBD>  (96) 
1

>  <HBA>  (96) 
6

>  <NRB>  (96) 
5

>  <NR>  (96) 
5

>  <NAR>  (96) 
3

>  <PSA>  (96) 
75.86

>  <Standard Type>  (96) 
nan

>  <Standard Relation>  (96) 
nan

>  <Standard Units>  (96) 
nan

>  <Standard Value>  (96) 
nan

>  <Assay ChEMBL ID>  (96) 
nan

>  <Assay Description>  (96) 
nan

>  <BAO Label>  (96) 
nan

$$$$

     RDKit          2D

 29 32  0  0  0  0  0  0  0  0999 V2000
  -13.3848   -1.2990    0.0000 C   0  0  0  0  0  0  0  0  0  0  0  0
  -12.6348   -0.0000    0.0000 C   0  0  0  0  0  0  0  0  0  0  0  0
  -11.1348   -0.0000    0.0000 C   0  0  0  0  0  0  0  0  0  0  0  0
  -10.2531    1.2135    0.0000 N   0  0  0  0  0  0  0  0  0  0  0  0
   -8.8265    0.7500    0.0000 N   0  0  0  0  0  0  0  0  0  0  0  0
   -7.5275    1.5000    0.0000 C   0  0  0  0  0  0  0  0  0  0  0  0
   -7.5275    3.0000    0.0000 N   0  0  0  0  0  4  0  0  0  0  0  0
   -6.2284    0.7500    0.0000 C   0  0  0  0  0  0  0  0  0  0  0  0
   -4.9294    1.5000    0.0000 C   0  0  0  0  0  0  0  0  0  0  0  0
   -4.9294    3.0000    0.0000 C   0  0  0  0  0  0  0  0  0  0  0  0
   -6.1429    3.8817    0.0000 C   0  0  0  0  0  0  0  0  0  0  0  0
   -5.6794    5.3083    0.0000 C   0  0  0  0  0  0  0  0  0  0  0  0
   -6.5611    6.5218    0.0000 C   0  0  0  0  0  0  0  0  0  0  0  0
   -4.1794    5.3083    0.0000 N   0  0  0  0  0  0  0  0  0  0  0  0
   -3.2977    6.5218    0.0000 C   0  0  0  0  0  0  0  0  0  0  0  0
   -1.8059    6.3650    0.0000 C   0  0  0  0  0  0  0  0  0  0  0  0
   -0.9243    7.5785    0.0000 C   0  0  0  0  0  0  0  0  0  0  0  0
   -1.5344    8.9488    0.0000 C   0  0  0  0  0  0  0  0  0  0  0  0
   -3.0261    9.1056    0.0000 C   0  0  0  0  0  0  0  0  0  0  0  0
   -3.6363   10.4760    0.0000 O   0  0  0  0  0  0  0  0  0  0  0  0
   -2.7546   11.6895    0.0000 C   0  0  0  0  0  0  0  0  0  0  0  0
   -3.9078    7.8921    0.0000 C   0  0  0  0  0  0  0  0  0  0  0  0
   -3.7159    3.8817    0.0000 C   0  0  0  0  0  0  0  0  0  0  0  0
   -2.2893    3.4182    0.0000 C   0  0  0  0  0  0  0  0  0  0  0  0
   -6.2284   -0.7500    0.0000 C   0  0  0  0  0  0  0  0  0  0  0  0
   -4.9294   -1.5000    0.0000 O   0  0  0  0  0  0  0  0  0  0  0  0
   -7.5275   -1.5000    0.0000 N   0  0  0  0  0  0  0  0  0  0  0  0
   -8.8265   -0.7500    0.0000 C   0  0  0  0  0  0  0  0  0  0  0  0
  -10.2531   -1.2135    0.0000 S   0  0  0  0  0  0  0  0  0  0  0  0
  1  2  1  0
  2  3  1  0
  3  4  2  0
  4  5  1  0
  5  6  1  0
  6  7  2  0
  6  8  1  0
  8  9  2  0
  9 10  1  0
 10 11  1  0
 11 12  2  0
 12 13  1  0
 12 14  1  0
 14 15  1  0
 15 16  2  0
 16 17  1  0
 17 18  2  0
 18 19  1  0
 19 20  1  0
 20 21  1  0
 19 22  2  0
 14 23  1  0
 23 24  1  0
  8 25  1  0
 25 26  2  0
 25 27  1  0
 27 28  2  0
 28 29  1  0
 29  3  1  0
 28  5  1  0
 23 10  2  0
 22 15  1  0
M  CHG  1   7   1
M  END
>  <Compound_ID>  (97) 
C49697756

>  <Active>  (97) 
0

>  <Smiles>  (97) 
CCC1=NN2C(=[NH2+])/C(=C\c3cc(C)n(-c4cccc(OC)c4)c3C)C(=O)N=C2S1

>  <canonical_smi>  (97) 
CCC1=NN2C(=[NH2+])/C(=C\c3cc(C)n(-c4cccc(OC)c4)c3C)C(=O)N=C2S1

>  <Set>  (97) 
G2 inactive

>  <Set_type>  (97) 
Train

>  <MW>  (97) 
408.51

>  <HBD>  (97) 
1

>  <HBA>  (97) 
4

>  <NRB>  (97) 
4

>  <NR>  (97) 
4

>  <NAR>  (97) 
2

>  <PSA>  (97) 
84.78

>  <Standard Type>  (97) 
nan

>  <Standard Relation>  (97) 
nan

>  <Standard Units>  (97) 
nan

>  <Standard Value>  (97) 
nan

>  <Assay ChEMBL ID>  (97) 
nan

>  <Assay Description>  (97) 
nan

>  <BAO Label>  (97) 
nan

$$$$

     RDKit          2D

 26 30  0  0  0  0  0  0  0  0999 V2000
    2.1328    3.1443    0.0000 O   0  0  0  0  0  0  0  0  0  0  0  0
    0.7062    2.6807    0.0000 C   0  0  0  0  0  0  0  0  0  0  0  0
   -0.4086    3.6844    0.0000 C   0  0  0  0  0  0  0  0  0  0  0  0
   -0.0967    5.1517    0.0000 C   0  0  0  0  0  0  0  0  0  0  0  0
   -1.2114    6.1554    0.0000 C   0  0  0  0  0  0  0  0  0  0  0  0
   -0.8995    7.6226    0.0000 N   0  0  0  0  0  0  0  0  0  0  0  0
    0.5271    8.0861    0.0000 C   0  0  0  0  0  0  0  0  0  0  0  0
    0.8389    9.5533    0.0000 C   0  0  0  0  0  0  0  0  0  0  0  0
   -0.2758   10.5570    0.0000 C   0  0  0  0  0  0  0  0  0  0  0  0
    0.0361   12.0242    0.0000 C   0  0  0  0  0  0  0  0  0  0  0  0
   -1.0786   13.0279    0.0000 O   0  0  0  0  0  0  0  0  0  0  0  0
    1.4627   12.4878    0.0000 N   0  0  0  0  0  0  0  0  0  0  0  0
    2.0728   13.8581    0.0000 C   0  0  0  0  0  0  0  0  0  0  0  0
    3.5645   13.7013    0.0000 C   0  0  0  0  0  0  0  0  0  0  0  0
    3.8764   12.2341    0.0000 S   0  0  0  0  0  0  0  0  0  0  0  0
    2.5774   11.4841    0.0000 C   0  0  0  0  0  0  0  0  0  0  0  0
    2.2655   10.0169    0.0000 N   0  0  0  0  0  4  0  0  0  0  0  0
   -2.6380    5.6918    0.0000 C   0  0  0  0  0  0  0  0  0  0  0  0
   -2.9499    4.2246    0.0000 C   0  0  0  0  0  0  0  0  0  0  0  0
   -1.8351    3.2209    0.0000 C   0  0  0  0  0  0  0  0  0  0  0  0
   -2.1470    1.7537    0.0000 N   0  0  0  0  0  0  0  0  0  0  0  0
   -1.0323    0.7500    0.0000 C   0  0  0  0  0  0  0  0  0  0  0  0
    0.3943    1.2135    0.0000 N   0  0  0  0  0  0  0  0  0  0  0  0
    1.2760    0.0000    0.0000 C   0  0  0  0  0  0  0  0  0  0  0  0
    0.3943   -1.2135    0.0000 C   0  0  0  0  0  0  0  0  0  0  0  0
   -1.0323   -0.7500    0.0000 C   0  0  0  0  0  0  0  0  0  0  0  0
  1  2  2  0
  2  3  1  0
  3  4  2  0
  4  5  1  0
  5  6  1  0
  6  7  1  0
  7  8  1  0
  8  9  2  0
  9 10  1  0
 10 11  2  0
 10 12  1  0
 12 13  1  0
 13 14  2  0
 14 15  1  0
 15 16  1  0
 16 17  2  0
  5 18  2  0
 18 19  1  0
 19 20  2  0
 20 21  1  0
 21 22  2  0
 22 23  1  0
 23 24  1  0
 24 25  1  0
 25 26  1  0
 23  2  1  0
 20  3  1  0
 26 22  1  0
 17  8  1  0
 16 12  1  0
M  CHG  1  17   1
M  END
>  <Compound_ID>  (98) 
C45802723

>  <Active>  (98) 
0

>  <Smiles>  (98) 
O=c1c2cc(NCc3cc(=O)n4ccsc4[nH+]3)ccc2nc2n1CCC2

>  <canonical_smi>  (98) 
O=c1c2cc(NCc3cc(=O)n4ccsc4[nH+]3)ccc2nc2n1CCC2

>  <Set>  (98) 
G2 inactive

>  <Set_type>  (98) 
Train

>  <MW>  (98) 
366.43

>  <HBD>  (98) 
1

>  <HBA>  (98) 
4

>  <NRB>  (98) 
3

>  <NR>  (98) 
5

>  <NAR>  (98) 
4

>  <PSA>  (98) 
82.54

>  <Standard Type>  (98) 
nan

>  <Standard Relation>  (98) 
nan

>  <Standard Units>  (98) 
nan

>  <Standard Value>  (98) 
nan

>  <Assay ChEMBL ID>  (98) 
nan

>  <Assay Description>  (98) 
nan

>  <BAO Label>  (98) 
nan

$$$$

     RDKit          2D

 32 36  0  0  0  0  0  0  0  0999 V2000
    3.0000   -2.5981    0.0000 O   0  0  0  0  0  0  0  0  0  0  0  0
    1.5000   -2.5981    0.0000 C   0  0  0  0  0  0  0  0  0  0  0  0
    0.7500   -3.8971    0.0000 N   0  0  0  0  0  0  0  0  0  0  0  0
    1.5000   -5.1962    0.0000 C   0  0  0  0  0  0  0  0  0  0  0  0
    0.7500   -6.4952    0.0000 C   0  0  0  0  0  0  0  0  0  0  0  0
   -0.7500   -6.4952    0.0000 C   0  0  0  0  0  0  0  0  0  0  0  0
   -1.5000   -7.7942    0.0000 C   0  0  0  0  0  0  0  0  0  0  0  0
   -0.7500   -9.0933    0.0000 C   0  0  0  0  0  0  0  0  0  0  0  0
   -1.5000  -10.3923    0.0000 F   0  0  0  0  0  0  0  0  0  0  0  0
    0.7500   -9.0933    0.0000 C   0  0  0  0  0  0  0  0  0  0  0  0
    1.5000   -7.7942    0.0000 C   0  0  0  0  0  0  0  0  0  0  0  0
    0.7500   -1.2990    0.0000 C   0  0  0  0  0  0  0  0  0  0  0  0
    1.5000    0.0000    0.0000 C   0  0  0  0  0  0  0  0  0  0  0  0
    0.7500    1.2990    0.0000 N   0  0  0  0  0  4  0  0  0  0  0  0
   -0.7500    1.2990    0.0000 C   0  0  0  0  0  0  0  0  0  0  0  0
   -1.5000    0.0000    0.0000 C   0  0  0  0  0  0  0  0  0  0  0  0
   -0.7500   -1.2990    0.0000 C   0  0  0  0  0  0  0  0  0  0  0  0
   -0.8000    0.0000    0.0000 C   0  0  0  0  0  0  0  0  0  0  0  0
   -0.4000    0.6928    0.0000 C   0  0  0  0  0  0  0  0  0  0  0  0
   -1.5000    2.5981    0.0000 C   0  0  0  0  0  0  0  0  0  0  0  0
   -0.7500    3.8971    0.0000 N   0  0  0  0  0  0  0  0  0  0  0  0
   -1.3601    5.2674    0.0000 C   0  0  0  0  0  0  0  0  0  0  0  0
   -0.2454    6.2711    0.0000 C   0  0  0  0  0  0  0  0  0  0  0  0
   -0.4022    7.7629    0.0000 C   0  0  0  0  0  0  0  0  0  0  0  0
   -1.8441    7.3495    0.0000 O   0  0  0  0  0  0  0  0  0  0  0  0
    1.0942    7.6583    0.0000 C   0  0  0  0  0  0  0  0  0  0  0  0
    1.9330    8.9018    0.0000 C   0  0  0  0  0  0  0  0  0  0  0  0
    1.2754   10.2500    0.0000 C   0  0  0  0  0  0  0  0  0  0  0  0
   -0.2209   10.3547    0.0000 C   0  0  0  0  0  0  0  0  0  0  0  0
   -1.0597    9.1111    0.0000 C   0  0  0  0  0  0  0  0  0  0  0  0
    1.0537    5.5211    0.0000 N   0  0  0  0  0  0  0  0  0  0  0  0
    0.7418    4.0539    0.0000 N   0  0  0  0  0  0  0  0  0  0  0  0
  1  2  2  0
  2  3  1  0
  3  4  1  0
  4  5  1  0
  5  6  2  0
  6  7  1  0
  7  8  2  0
  8  9  1  0
  8 10  1  0
 10 11  2  0
 12  2  1  6
 12 13  1  0
 13 14  1  0
 14 15  1  0
 15 16  1  0
 17 16  1  6
 17 18  1  0
 18 19  1  0
 19 20  1  6
 20 21  1  0
 21 22  1  0
 22 23  2  0
 23 24  1  0
 24 25  1  0
 24 26  1  0
 26 27  1  0
 27 28  1  0
 28 29  1  0
 29 30  1  0
 23 31  1  0
 31 32  2  0
 11  5  1  0
 17 12  1  0
 32 21  1  0
 19 14  1  0
 30 24  1  0
M  CHG  1  14   1
M  END
>  <Compound_ID>  (99) 
C08298704

>  <Active>  (99) 
0

>  <Smiles>  (99) 
O=C(NCc1ccc(F)cc1)[C@H]1C[NH+]2CC[C@@H]1C[C@@H]2Cn1cc(C2(O)CCCCC2)nn1

>  <canonical_smi>  (99) 
O=C(NCc1ccc(F)cc1)[C@H]1C[NH+]2CC[C@@H]1C[C@@H]2Cn1cc(C2(O)CCCCC2)nn1

>  <Set>  (99) 
G2 inactive

>  <Set_type>  (99) 
Train

>  <MW>  (99) 
442.56

>  <HBD>  (99) 
3

>  <HBA>  (99) 
4

>  <NRB>  (99) 
6

>  <NR>  (99) 
6

>  <NAR>  (99) 
2

>  <PSA>  (99) 
84.48

>  <Standard Type>  (99) 
nan

>  <Standard Relation>  (99) 
nan

>  <Standard Units>  (99) 
nan

>  <Standard Value>  (99) 
nan

>  <Assay ChEMBL ID>  (99) 
nan

>  <Assay Description>  (99) 
nan

>  <BAO Label>  (99) 
nan

$$$$

     RDKit          2D

 30 34  0  0  0  0  0  0  0  0999 V2000
    3.0000    0.0000    0.0000 C   0  0  0  0  0  0  0  0  0  0  0  0
    1.5000    0.0000    0.0000 C   0  0  0  0  0  0  0  0  0  0  0  0
    0.7500   -1.2990    0.0000 C   0  0  0  0  0  0  0  0  0  0  0  0
   -0.7500   -1.2990    0.0000 C   0  0  0  0  0  0  0  0  0  0  0  0
   -1.5000   -2.5981    0.0000 O   0  0  0  0  0  1  0  0  0  0  0  0
   -1.5000    0.0000    0.0000 N   0  0  0  0  0  0  0  0  0  0  0  0
   -0.7500    1.2990    0.0000 C   0  0  0  0  0  0  0  0  0  0  0  0
   -1.5000    2.5981    0.0000 N   0  0  0  0  0  0  0  0  0  0  0  0
   -3.0000    2.5981    0.0000 C   0  0  0  0  0  0  0  0  0  0  0  0
   -3.7500    3.8971    0.0000 N   0  0  0  0  0  0  0  0  0  0  0  0
   -3.0000    5.1962    0.0000 C   0  0  0  0  0  0  0  0  0  0  0  0
   -3.7500    6.4952    0.0000 C   0  0  0  0  0  0  0  0  0  0  0  0
   -5.2500    6.4952    0.0000 C   0  0  0  0  0  0  0  0  0  0  0  0
   -6.0000    7.7942    0.0000 N   0  0  0  0  0  4  0  0  0  0  0  0
   -5.2500    9.0933    0.0000 C   0  0  0  0  0  0  0  0  0  0  0  0
   -6.0000   10.3923    0.0000 C   0  0  0  0  0  0  0  0  0  0  0  0
   -7.5000   10.3923    0.0000 C   0  0  0  0  0  0  0  0  0  0  0  0
   -8.2500    9.0933    0.0000 C   0  0  0  0  0  0  0  0  0  0  0  0
   -7.5000    7.7942    0.0000 C   0  0  0  0  0  0  0  0  0  0  0  0
   -6.0000    5.1962    0.0000 C   0  0  0  0  0  0  0  0  0  0  0  0
   -5.2500    3.8971    0.0000 C   0  0  0  0  0  0  0  0  0  0  0  0
   -3.7500    1.2990    0.0000 N   0  0  0  0  0  4  0  0  0  0  0  0
   -3.0000    0.0000    0.0000 C   0  0  0  0  0  0  0  0  0  0  0  0
   -3.7500   -1.2990    0.0000 C   0  0  0  0  0  0  0  0  0  0  0  0
   -5.2500   -1.2990    0.0000 C   0  0  0  0  0  0  0  0  0  0  0  0
   -6.0000   -2.5981    0.0000 C   0  0  0  0  0  0  0  0  0  0  0  0
   -5.2500   -3.8971    0.0000 C   0  0  0  0  0  0  0  0  0  0  0  0
   -3.7500   -3.8971    0.0000 C   0  0  0  0  0  0  0  0  0  0  0  0
   -3.0000   -2.5981    0.0000 C   0  0  0  0  0  0  0  0  0  0  0  0
    0.7500    1.2990    0.0000 N   0  0  0  0  0  0  0  0  0  0  0  0
  1  2  2  0
  2  3  1  0
  3  4  2  0
  4  5  1  0
  4  6  1  0
  6  7  1  0
  7  8  2  0
  8  9  1  0
  9 10  1  0
 10 11  1  0
 11 12  1  0
 12 13  1  0
 13 14  1  0
 14 15  1  0
 15 16  1  0
 16 17  1  0
 17 18  1  0
 18 19  1  0
 13 20  1  0
 20 21  1  0
  9 22  2  0
 22 23  1  0
 23 24  1  0
 24 25  1  6
 25 26  1  0
 26 27  2  0
 27 28  1  0
 28 29  1  0
  7 30  1  0
 30  2  1  0
 23  6  1  1
 29 24  1  0
 21 10  1  0
 19 14  1  0
M  CHG  3   5  -1  14   1  22   1
M  END
>  <Compound_ID>  (100) 
C59619524

>  <Active>  (100) 
0

>  <Smiles>  (100) 
C=C1C=C([O-])N2C(=NC(N3CCC([NH+]4CCCCC4)CC3)=[NH+][C@@H]2[C@H]2CC=CCC2)N1

>  <canonical_smi>  (100) 
C=C1C=C([O-])N2C(=NC(N3CCC([NH+]4CCCCC4)CC3)=[NH+][C@@H]2[C@H]2CC=CCC2)N1

>  <Set>  (100) 
G2 inactive

>  <Set_type>  (100) 
Train

>  <MW>  (100) 
411.57

>  <HBD>  (100) 
3

>  <HBA>  (100) 
4

>  <NRB>  (100) 
2

>  <NR>  (100) 
5

>  <NAR>  (100) 
0

>  <PSA>  (100) 
72.34

>  <Standard Type>  (100) 
nan

>  <Standard Relation>  (100) 
nan

>  <Standard Units>  (100) 
nan

>  <Standard Value>  (100) 
nan

>  <Assay ChEMBL ID>  (100) 
nan

>  <Assay Description>  (100) 
nan

>  <BAO Label>  (100) 
nan

$$$$

     RDKit          2D

 23 24  0  0  0  0  0  0  0  0999 V2000
    3.5490   -5.7452    0.0000 C   0  0  0  0  0  0  0  0  0  0  0  0
    2.2500   -6.4952    0.0000 C   0  0  0  0  0  0  0  0  0  0  0  0
    0.9510   -7.2452    0.0000 C   0  0  0  0  0  0  0  0  0  0  0  0
    1.5000   -5.1962    0.0000 C   0  0  0  0  0  0  0  0  0  0  0  0
    2.2500   -3.8971    0.0000 N   0  0  0  0  0  0  0  0  0  0  0  0
    1.5000   -2.5981    0.0000 S   0  0  0  0  0  0  0  0  0  0  0  0
    2.7990   -1.8481    0.0000 O   0  0  0  0  0  0  0  0  0  0  0  0
    0.2010   -3.3481    0.0000 O   0  0  0  0  0  0  0  0  0  0  0  0
    0.7500   -1.2990    0.0000 C   0  0  0  0  0  0  0  0  0  0  0  0
    1.5000    0.0000    0.0000 C   0  0  0  0  0  0  0  0  0  0  0  0
    0.7500    1.2990    0.0000 C   0  0  0  0  0  0  0  0  0  0  0  0
   -0.7500    1.2990    0.0000 C   0  0  0  0  0  0  0  0  0  0  0  0
   -1.5000    0.0000    0.0000 C   0  0  0  0  0  0  0  0  0  0  0  0
   -0.7500   -1.2990    0.0000 C   0  0  0  0  0  0  0  0  0  0  0  0
   -1.5000   -2.5981    0.0000 N   0  0  0  0  0  4  0  0  0  0  0  0
   -0.7500   -3.8971    0.0000 O   0  0  0  0  0  0  0  0  0  0  0  0
   -3.0000   -2.5981    0.0000 O   0  0  0  0  0  1  0  0  0  0  0  0
    3.0000   -7.7942    0.0000 N   0  0  0  0  0  4  0  0  0  0  0  0
    2.2500   -9.0933    0.0000 C   0  0  0  0  0  0  0  0  0  0  0  0
    3.0000  -10.3923    0.0000 C   0  0  0  0  0  0  0  0  0  0  0  0
    4.5000  -10.3923    0.0000 C   0  0  0  0  0  0  0  0  0  0  0  0
    5.2500   -9.0933    0.0000 C   0  0  0  0  0  0  0  0  0  0  0  0
    4.5000   -7.7942    0.0000 C   0  0  0  0  0  0  0  0  0  0  0  0
  1  2  1  0
  2  3  1  0
  2  4  1  0
  4  5  1  0
  5  6  1  0
  6  7  2  0
  6  8  2  0
  6  9  1  0
  9 10  2  0
 10 11  1  0
 11 12  2  0
 12 13  1  0
 13 14  2  0
 14 15  1  0
 15 16  2  0
 15 17  1  0
  2 18  1  0
 18 19  1  0
 19 20  1  0
 20 21  1  0
 21 22  1  0
 22 23  1  0
 14  9  1  0
 23 18  1  0
M  CHG  3  15   1  17  -1  18   1
M  END
>  <Compound_ID>  (101) 
C26885379

>  <Active>  (101) 
0

>  <Smiles>  (101) 
CC(C)(CNS(=O)(=O)c1ccccc1[N+](=O)[O-])[NH+]1CCCCC1

>  <canonical_smi>  (101) 
CC(C)(CNS(=O)(=O)c1ccccc1[N+](=O)[O-])[NH+]1CCCCC1

>  <Set>  (101) 
G2 inactive

>  <Set_type>  (101) 
Train

>  <MW>  (101) 
342.44

>  <HBD>  (101) 
2

>  <HBA>  (101) 
4

>  <NRB>  (101) 
6

>  <NR>  (101) 
2

>  <NAR>  (101) 
1

>  <PSA>  (101) 
93.75

>  <Standard Type>  (101) 
nan

>  <Standard Relation>  (101) 
nan

>  <Standard Units>  (101) 
nan

>  <Standard Value>  (101) 
nan

>  <Assay ChEMBL ID>  (101) 
nan

>  <Assay Description>  (101) 
nan

>  <BAO Label>  (101) 
nan

$$$$

     RDKit          2D

 24 26  0  0  0  0  0  0  0  0999 V2000
    3.0000    0.0000    0.0000 C   0  0  0  0  0  0  0  0  0  0  0  0
    1.5000    0.0000    0.0000 C   0  0  0  0  0  0  0  0  0  0  0  0
    0.7500   -1.2990    0.0000 N   0  0  0  0  0  4  0  0  0  0  0  0
   -0.7500   -1.2990    0.0000 C   0  0  0  0  0  0  0  0  0  0  0  0
   -1.5000   -2.5981    0.0000 N   0  0  0  0  0  0  0  0  0  0  0  0
   -3.0000   -2.5981    0.0000 C   0  0  0  0  0  0  0  0  0  0  0  0
   -0.7500   -3.8971    0.0000 C   0  0  0  0  0  0  0  0  0  0  0  0
   -1.5000    0.0000    0.0000 N   0  0  0  0  0  0  0  0  0  0  0  0
   -0.7500    1.2990    0.0000 C   0  0  0  0  0  0  0  0  0  0  0  0
   -1.5000    2.5981    0.0000 N   0  0  0  0  0  0  0  0  0  0  0  0
   -3.0000    2.5981    0.0000 C   0  0  0  0  0  0  0  0  0  0  0  0
   -3.7500    3.8971    0.0000 C   0  0  0  0  0  0  0  0  0  0  0  0
   -5.2418    4.0539    0.0000 C   0  0  0  0  0  0  0  0  0  0  0  0
   -5.5537    5.5211    0.0000 S   0  0  0  0  0  0  0  0  0  0  0  0
   -4.2546    6.2711    0.0000 C   0  0  0  0  0  0  0  0  0  0  0  0
   -4.0978    7.7629    0.0000 C   0  0  0  0  0  0  0  0  0  0  0  0
   -2.7275    8.3730    0.0000 C   0  0  0  0  0  0  0  0  0  0  0  0
   -2.5707    9.8648    0.0000 N   0  0  0  0  0  0  0  0  0  0  0  0
   -3.7842   10.7465    0.0000 C   0  0  0  0  0  0  0  0  0  0  0  0
   -5.1546   10.1364    0.0000 C   0  0  0  0  0  0  0  0  0  0  0  0
   -5.3113    8.6446    0.0000 N   0  0  0  0  0  0  0  0  0  0  0  0
   -3.1399    5.2674    0.0000 N   0  0  0  0  0  0  0  0  0  0  0  0
    0.7500    1.2990    0.0000 C   0  0  0  0  0  0  0  0  0  0  0  0
    1.5000    2.5981    0.0000 C   0  0  0  0  0  0  0  0  0  0  0  0
  1  2  1  0
  2  3  2  0
  3  4  1  0
  4  5  1  0
  5  6  1  0
  5  7  1  0
  4  8  2  0
  8  9  1  0
  9 10  1  0
 10 11  1  0
 11 12  1  0
 12 13  2  0
 13 14  1  0
 14 15  1  0
 15 16  1  0
 16 17  2  0
 17 18  1  0
 18 19  2  0
 19 20  1  0
 20 21  2  0
 15 22  2  0
  9 23  2  0
 23 24  1  0
 23  2  1  0
 22 12  1  0
 21 16  1  0
M  CHG  1   3   1
M  END
>  <Compound_ID>  (102) 
C65408095

>  <Active>  (102) 
0

>  <Smiles>  (102) 
Cc1[nH+]c(N(C)C)nc(NCc2csc(-c3cnccn3)n2)c1C

>  <canonical_smi>  (102) 
Cc1[nH+]c(N(C)C)nc(NCc2csc(-c3cnccn3)n2)c1C

>  <Set>  (102) 
G2 inactive

>  <Set_type>  (102) 
Train

>  <MW>  (102) 
342.45

>  <HBD>  (102) 
1

>  <HBA>  (102) 
6

>  <NRB>  (102) 
5

>  <NR>  (102) 
3

>  <NAR>  (102) 
3

>  <PSA>  (102) 
80.97

>  <Standard Type>  (102) 
nan

>  <Standard Relation>  (102) 
nan

>  <Standard Units>  (102) 
nan

>  <Standard Value>  (102) 
nan

>  <Assay ChEMBL ID>  (102) 
nan

>  <Assay Description>  (102) 
nan

>  <BAO Label>  (102) 
nan

$$$$

     RDKit          2D

 30 34  0  0  0  0  0  0  0  0999 V2000
   -6.3242    1.9061    0.0000 O   0  0  0  0  0  0  0  0  0  0  0  0
   -5.0251    2.6561    0.0000 C   0  0  0  0  0  0  0  0  0  0  0  0
   -5.0251    4.1561    0.0000 O   0  0  0  0  0  1  0  0  0  0  0  0
   -3.7261    1.9061    0.0000 C   0  0  0  0  0  0  0  0  0  0  0  0
   -3.7261    0.4061    0.0000 C   0  0  0  0  0  0  0  0  0  0  0  0
   -2.4271   -0.3439    0.0000 C   0  0  0  0  0  0  0  0  0  0  0  0
   -1.8537    0.2098    0.0000 O   0  0  0  0  0  0  0  0  0  0  0  0
   -2.4271   -1.8439    0.0000 N   0  0  0  0  0  0  0  0  0  0  0  0
   -3.6406   -2.7256    0.0000 N   0  0  0  0  0  0  0  0  0  0  0  0
   -3.1771   -4.1522    0.0000 C   0  0  0  0  0  0  0  0  0  0  0  0
   -4.0587   -5.3657    0.0000 C   0  0  0  0  0  0  0  0  0  0  0  0
   -5.5587   -5.3657    0.0000 C   0  0  0  0  0  0  0  0  0  0  0  0
   -6.0223   -6.7923    0.0000 C   0  0  0  0  0  0  0  0  0  0  0  0
   -7.3926   -7.4024    0.0000 C   0  0  0  0  0  0  0  0  0  0  0  0
   -7.5494   -8.8942    0.0000 C   0  0  0  0  0  0  0  0  0  0  0  0
   -6.3358   -9.7759    0.0000 C   0  0  0  0  0  0  0  0  0  0  0  0
   -4.9655   -9.1658    0.0000 C   0  0  0  0  0  0  0  0  0  0  0  0
   -4.8087   -7.6740    0.0000 C   0  0  0  0  0  0  0  0  0  0  0  0
   -3.5952   -6.7923    0.0000 O   0  0  0  0  0  0  0  0  0  0  0  0
   -1.6771   -4.1522    0.0000 C   0  0  0  0  0  0  0  0  0  0  0  0
   -1.2135   -2.7256    0.0000 C   0  0  0  0  0  0  0  0  0  0  0  0
   -0.0000   -3.6073    0.0000 C   0  0  0  0  0  0  0  0  0  0  0  0
    0.0000   -5.1073    0.0000 O   0  0  0  0  0  0  0  0  0  0  0  0
    1.2135   -2.7256    0.0000 N   0  0  0  0  0  0  0  0  0  0  0  0
    0.7500   -1.2990    0.0000 C   0  0  0  0  0  0  0  0  0  0  0  0
    1.5000    0.0000    0.0000 C   0  0  0  0  0  0  0  0  0  0  0  0
    0.7500    1.2990    0.0000 C   0  0  0  0  0  0  0  0  0  0  0  0
   -0.7500    1.2990    0.0000 C   0  0  0  0  0  0  0  0  0  0  0  0
   -1.5000    0.0000    0.0000 C   0  0  0  0  0  0  0  0  0  0  0  0
   -0.7500   -1.2990    0.0000 C   0  0  0  0  0  0  0  0  0  0  0  0
  1  2  2  0
  2  3  1  0
  2  4  1  0
  4  5  1  0
  5  6  1  0
  6  7  2  0
  6  8  1  0
  8  9  1  0
  9 10  2  0
 10 11  1  0
 11 12  2  0
 12 13  1  0
 13 14  2  0
 14 15  1  0
 15 16  2  0
 16 17  1  0
 17 18  2  0
 18 19  1  0
 10 20  1  0
 21 20  1  1
 21 22  1  0
 22 23  2  0
 22 24  1  0
 24 25  1  0
 25 26  2  0
 26 27  1  0
 27 28  2  0
 28 29  1  0
 29 30  2  0
 21  8  1  0
 30 25  1  0
 19 11  1  0
 30 21  1  0
 18 13  1  0
M  CHG  1   3  -1
M  END
>  <Compound_ID>  (103) 
C13626344

>  <Active>  (103) 
0

>  <Smiles>  (103) 
O=C([O-])CCC(=O)N1N=C(c2cc3ccccc3o2)C[C@@]12C(=O)Nc1ccccc12

>  <canonical_smi>  (103) 
O=C([O-])CCC(=O)N1N=C(c2cc3ccccc3o2)C[C@@]12C(=O)Nc1ccccc12

>  <Set>  (103) 
G2 inactive

>  <Set_type>  (103) 
Train

>  <MW>  (103) 
402.39

>  <HBD>  (103) 
1

>  <HBA>  (103) 
5

>  <NRB>  (103) 
4

>  <NR>  (103) 
5

>  <NAR>  (103) 
3

>  <PSA>  (103) 
115.04

>  <Standard Type>  (103) 
nan

>  <Standard Relation>  (103) 
nan

>  <Standard Units>  (103) 
nan

>  <Standard Value>  (103) 
nan

>  <Assay ChEMBL ID>  (103) 
nan

>  <Assay Description>  (103) 
nan

>  <BAO Label>  (103) 
nan

$$$$

     RDKit          2D

 21 22  0  0  0  0  0  0  0  0999 V2000
    1.5000   -5.1962    0.0000 C   0  0  0  0  0  0  0  0  0  0  0  0
    0.7500   -3.8971    0.0000 C   0  0  0  0  0  0  0  0  0  0  0  0
   -0.7500   -3.8971    0.0000 N   0  0  0  0  0  4  0  0  0  0  0  0
    1.5000   -2.5981    0.0000 C   0  0  0  0  0  0  0  0  0  0  0  0
    3.0000   -2.5981    0.0000 C   0  0  0  0  0  0  0  0  0  0  0  0
    3.8817   -1.3846    0.0000 C   0  0  0  0  0  0  0  0  0  0  0  0
    5.3083   -1.8481    0.0000 C   0  0  0  0  0  0  0  0  0  0  0  0
    6.5218   -0.9664    0.0000 Br  0  0  0  0  0  0  0  0  0  0  0  0
    5.3083   -3.3481    0.0000 C   0  0  0  0  0  0  0  0  0  0  0  0
    3.8817   -3.8116    0.0000 S   0  0  0  0  0  0  0  0  0  0  0  0
    0.7500   -1.2990    0.0000 N   0  0  0  0  0  0  0  0  0  0  0  0
    1.5000    0.0000    0.0000 C   0  0  0  0  0  0  0  0  0  0  0  0
    0.7500    1.2990    0.0000 C   0  0  0  0  0  0  0  0  0  0  0  0
   -0.7500    1.2990    0.0000 N   0  0  0  0  0  0  0  0  0  0  0  0
   -1.5000    2.5981    0.0000 C   0  0  0  0  0  0  0  0  0  0  0  0
   -0.7500    3.8971    0.0000 C   0  0  0  0  0  0  0  0  0  0  0  0
   -1.5000    5.1962    0.0000 N   0  0  0  0  0  4  0  0  0  0  0  0
   -0.7500    6.4952    0.0000 C   0  0  0  0  0  0  0  0  0  0  0  0
   -3.0000    5.1962    0.0000 C   0  0  0  0  0  0  0  0  0  0  0  0
   -1.5000    0.0000    0.0000 C   0  0  0  0  0  0  0  0  0  0  0  0
   -0.7500   -1.2990    0.0000 C   0  0  0  0  0  0  0  0  0  0  0  0
  2  1  1  6
  2  3  1  0
  2  4  1  0
  4  5  1  0
  5  6  2  0
  6  7  1  0
  7  8  1  0
  7  9  2  0
  9 10  1  0
  4 11  1  6
 11 12  1  0
 12 13  1  0
 13 14  1  0
 14 15  1  0
 15 16  1  0
 16 17  1  0
 17 18  1  0
 17 19  1  0
 14 20  1  0
 20 21  1  0
 10  5  1  0
 21 11  1  0
M  CHG  2   3   1  17   1
M  END
>  <Compound_ID>  (104) 
C61642344

>  <Active>  (104) 
0

>  <Smiles>  (104) 
C[C@H]([NH3+])[C@@H](c1cc(Br)cs1)N1CCN(CC[NH+](C)C)CC1

>  <canonical_smi>  (104) 
C[C@H]([NH3+])[C@@H](c1cc(Br)cs1)N1CCN(CC[NH+](C)C)CC1

>  <Set>  (104) 
G2 inactive

>  <Set_type>  (104) 
Train

>  <MW>  (104) 
377.4

>  <HBD>  (104) 
2

>  <HBA>  (104) 
2

>  <NRB>  (104) 
6

>  <NR>  (104) 
2

>  <NAR>  (104) 
1

>  <PSA>  (104) 
38.56

>  <Standard Type>  (104) 
nan

>  <Standard Relation>  (104) 
nan

>  <Standard Units>  (104) 
nan

>  <Standard Value>  (104) 
nan

>  <Assay ChEMBL ID>  (104) 
nan

>  <Assay Description>  (104) 
nan

>  <BAO Label>  (104) 
nan

$$$$

     RDKit          2D

 27 29  0  0  0  0  0  0  0  0999 V2000
    7.5000    2.5981    0.0000 C   0  0  0  0  0  0  0  0  0  0  0  0
    6.7500    1.2990    0.0000 C   0  0  0  0  0  0  0  0  0  0  0  0
    5.2500    1.2990    0.0000 C   0  0  0  0  0  0  0  0  0  0  0  0
    4.5000    0.0000    0.0000 N   0  0  0  0  0  0  0  0  0  0  0  0
    3.0000    0.0000    0.0000 S   0  0  0  0  0  0  0  0  0  0  0  0
    3.0000   -1.5000    0.0000 O   0  0  0  0  0  0  0  0  0  0  0  0
    3.0000    1.5000    0.0000 O   0  0  0  0  0  0  0  0  0  0  0  0
    1.5000    0.0000    0.0000 C   0  0  0  0  0  0  0  0  0  0  0  0
    0.7500   -1.2990    0.0000 C   0  0  0  0  0  0  0  0  0  0  0  0
   -0.7500   -1.2990    0.0000 C   0  0  0  0  0  0  0  0  0  0  0  0
   -1.5000    0.0000    0.0000 C   0  0  0  0  0  0  0  0  0  0  0  0
   -2.9672    0.3119    0.0000 N   0  0  0  0  0  0  0  0  0  0  0  0
   -3.1240    1.8037    0.0000 C   0  0  0  0  0  0  0  0  0  0  0  0
   -4.4231    2.5537    0.0000 N   0  0  0  0  0  2  0  0  0  0  0  0
   -4.4231    4.0537    0.0000 S   0  0  0  0  0  0  0  0  0  0  0  0
   -2.9231    4.0537    0.0000 O   0  0  0  0  0  0  0  0  0  0  0  0
   -5.9231    4.0537    0.0000 O   0  0  0  0  0  0  0  0  0  0  0  0
   -4.4231    5.5537    0.0000 C   0  0  0  0  0  0  0  0  0  0  0  0
   -3.1240    6.3037    0.0000 C   0  0  0  0  0  0  0  0  0  0  0  0
   -3.1240    7.8037    0.0000 C   0  0  0  0  0  0  0  0  0  0  0  0
   -4.4231    8.5537    0.0000 C   0  0  0  0  0  0  0  0  0  0  0  0
   -4.4231   10.0537    0.0000 Br  0  0  0  0  0  0  0  0  0  0  0  0
   -5.7221    7.8037    0.0000 C   0  0  0  0  0  0  0  0  0  0  0  0
   -5.7221    6.3037    0.0000 C   0  0  0  0  0  0  0  0  0  0  0  0
   -1.7537    2.4138    0.0000 S   0  0  0  0  0  0  0  0  0  0  0  0
   -0.7500    1.2990    0.0000 C   0  0  0  0  0  0  0  0  0  0  0  0
    0.7500    1.2990    0.0000 C   0  0  0  0  0  0  0  0  0  0  0  0
  1  2  1  0
  2  3  1  0
  3  4  1  0
  4  5  1  0
  5  6  2  0
  5  7  2  0
  5  8  1  0
  8  9  2  0
  9 10  1  0
 10 11  2  0
 11 12  1  0
 12 13  2  0
 13 14  1  0
 14 15  1  0
 15 16  2  0
 15 17  2  0
 15 18  1  0
 18 19  2  0
 19 20  1  0
 20 21  2  0
 21 22  1  0
 21 23  1  0
 23 24  2  0
 13 25  1  0
 25 26  1  0
 26 27  2  0
 27  8  1  0
 26 11  1  0
 24 18  1  0
M  CHG  1  14  -1
M  END
>  <Compound_ID>  (105) 
C26919716

>  <Active>  (105) 
0

>  <Smiles>  (105) 
CCCNS(=O)(=O)c1ccc2nc([N-]S(=O)(=O)c3ccc(Br)cc3)sc2c1

>  <canonical_smi>  (105) 
CCCNS(=O)(=O)c1ccc2nc([N-]S(=O)(=O)c3ccc(Br)cc3)sc2c1

>  <Set>  (105) 
G2 inactive

>  <Set_type>  (105) 
Train

>  <MW>  (105) 
489.42

>  <HBD>  (105) 
1

>  <HBA>  (105) 
5

>  <NRB>  (105) 
7

>  <NR>  (105) 
3

>  <NAR>  (105) 
3

>  <PSA>  (105) 
107.3

>  <Standard Type>  (105) 
nan

>  <Standard Relation>  (105) 
nan

>  <Standard Units>  (105) 
nan

>  <Standard Value>  (105) 
nan

>  <Assay ChEMBL ID>  (105) 
nan

>  <Assay Description>  (105) 
nan

>  <BAO Label>  (105) 
nan

$$$$

     RDKit          2D

 21 22  0  0  0  0  0  0  0  0999 V2000
   -4.1038  -13.3796    0.0000 O   0  0  0  0  0  0  0  0  0  0  0  0
   -2.7335  -12.7695    0.0000 C   0  0  0  0  0  0  0  0  0  0  0  0
   -2.5767  -11.2778    0.0000 C   0  0  0  0  0  0  0  0  0  0  0  0
   -1.2064  -10.6676    0.0000 N   0  0  0  0  0  4  0  0  0  0  0  0
   -1.0496   -9.1759    0.0000 C   0  0  0  0  0  0  0  0  0  0  0  0
    0.3207   -8.5658    0.0000 C   0  0  0  0  0  0  0  0  0  0  0  0
    0.4775   -7.0740    0.0000 N   0  0  0  0  0  4  0  0  0  0  0  0
    1.8478   -6.4639    0.0000 C   0  0  0  0  0  0  0  0  0  0  0  0
    2.0046   -4.9721    0.0000 C   0  0  0  0  0  0  0  0  0  0  0  0
    3.3037   -4.2221    0.0000 C   0  0  0  0  0  0  0  0  0  0  0  0
    2.9918   -2.7549    0.0000 C   0  0  0  0  0  0  0  0  0  0  0  0
    1.5000   -2.5981    0.0000 C   0  0  0  0  0  0  0  0  0  0  0  0
    0.7500   -1.2990    0.0000 C   0  0  0  0  0  0  0  0  0  0  0  0
    1.5000    0.0000    0.0000 C   0  0  0  0  0  0  0  0  0  0  0  0
    0.7500    1.2990    0.0000 C   0  0  0  0  0  0  0  0  0  0  0  0
   -0.7500    1.2990    0.0000 C   0  0  0  0  0  0  0  0  0  0  0  0
   -1.5000    2.5981    0.0000 Br  0  0  0  0  0  0  0  0  0  0  0  0
   -1.5000    0.0000    0.0000 C   0  0  0  0  0  0  0  0  0  0  0  0
   -0.7500   -1.2990    0.0000 C   0  0  0  0  0  0  0  0  0  0  0  0
   -1.5000   -2.5981    0.0000 Br  0  0  0  0  0  0  0  0  0  0  0  0
    0.8899   -3.9684    0.0000 O   0  0  0  0  0  0  0  0  0  0  0  0
  1  2  1  0
  2  3  1  0
  3  4  1  0
  4  5  1  0
  5  6  1  0
  6  7  1  0
  7  8  1  0
  8  9  1  0
  9 10  2  0
 10 11  1  0
 11 12  2  0
 12 13  1  0
 13 14  2  0
 14 15  1  0
 15 16  2  0
 16 17  1  0
 16 18  1  0
 18 19  2  0
 19 20  1  0
 12 21  1  0
 21  9  1  0
 19 13  1  0
M  CHG  2   4   1   7   1
M  END
>  <Compound_ID>  (106) 
C41207505

>  <Active>  (106) 
0

>  <Smiles>  (106) 
OCC[NH2+]CC[NH2+]Cc1ccc(-c2ccc(Br)cc2Br)o1

>  <canonical_smi>  (106) 
OCC[NH2+]CC[NH2+]Cc1ccc(-c2ccc(Br)cc2Br)o1

>  <Set>  (106) 
G2 inactive

>  <Set_type>  (106) 
Train

>  <MW>  (106) 
420.15

>  <HBD>  (106) 
3

>  <HBA>  (106) 
2

>  <NRB>  (106) 
8

>  <NR>  (106) 
2

>  <NAR>  (106) 
2

>  <PSA>  (106) 
66.59

>  <Standard Type>  (106) 
nan

>  <Standard Relation>  (106) 
nan

>  <Standard Units>  (106) 
nan

>  <Standard Value>  (106) 
nan

>  <Assay ChEMBL ID>  (106) 
nan

>  <Assay Description>  (106) 
nan

>  <BAO Label>  (106) 
nan

$$$$

     RDKit          2D

 36 41  0  0  0  0  0  0  0  0999 V2000
   -2.6401   -3.1891    0.0000 C   0  0  0  0  0  0  0  0  0  0  0  0
   -1.2135   -2.7256    0.0000 C   0  0  0  0  0  0  0  0  0  0  0  0
   -0.0000   -3.6073    0.0000 N   0  0  0  0  0  0  0  0  0  0  0  0
    1.2135   -2.7256    0.0000 N   0  0  0  0  0  0  0  0  0  0  0  0
    0.7500   -1.2990    0.0000 C   0  0  0  0  0  0  0  0  0  0  0  0
    1.5000    0.0000    0.0000 C   0  0  0  0  0  0  0  0  0  0  0  0
    0.7500    1.2990    0.0000 C   0  0  0  0  0  0  0  0  0  0  0  0
   -0.7500    1.2990    0.0000 C   0  0  0  0  0  0  0  0  0  0  0  0
   -1.5000    2.5981    0.0000 C   0  0  0  0  0  0  0  0  0  0  0  0
   -0.7500    3.8971    0.0000 C   0  0  0  0  0  0  0  0  0  0  0  0
   -1.5000    5.1962    0.0000 C   0  0  0  0  0  0  0  0  0  0  0  0
   -0.7500    6.4952    0.0000 O   0  0  0  0  0  0  0  0  0  0  0  0
    0.7500    6.4952    0.0000 C   0  0  0  0  0  0  0  0  0  0  0  0
    1.5000    7.7942    0.0000 C   0  0  0  0  0  0  0  0  0  0  0  0
    0.7500    9.0933    0.0000 N   0  0  0  0  0  4  0  0  0  0  0  0
    3.0000    7.7942    0.0000 C   0  0  0  0  0  0  0  0  0  0  0  0
    3.7500    9.0933    0.0000 C   0  0  0  0  0  0  0  0  0  0  0  0
    5.2418    9.2501    0.0000 C   0  0  0  0  0  0  0  0  0  0  0  0
    6.3565    8.2464    0.0000 C   0  0  0  0  0  0  0  0  0  0  0  0
    7.7831    8.7099    0.0000 C   0  0  0  0  0  0  0  0  0  0  0  0
    8.0950   10.1771    0.0000 C   0  0  0  0  0  0  0  0  0  0  0  0
    9.5215   10.6406    0.0000 F   0  0  0  0  0  0  0  0  0  0  0  0
    6.9802   11.1808    0.0000 C   0  0  0  0  0  0  0  0  0  0  0  0
    5.5537   10.7173    0.0000 C   0  0  0  0  0  0  0  0  0  0  0  0
    4.2546   11.4673    0.0000 N   0  0  0  0  0  4  0  0  0  0  0  0
    3.1399   10.4636    0.0000 C   0  0  0  0  0  0  0  0  0  0  0  0
   -3.0000    5.1962    0.0000 C   0  0  0  0  0  0  0  0  0  0  0  0
   -3.7500    3.8971    0.0000 N   0  0  0  0  0  0  0  0  0  0  0  0
   -3.0000    2.5981    0.0000 C   0  0  0  0  0  0  0  0  0  0  0  0
   -3.7500    1.2990    0.0000 C   0  0  0  0  0  0  0  0  0  0  0  0
   -3.1399   -0.0713    0.0000 C   0  0  0  0  0  0  0  0  0  0  0  0
   -4.2546   -1.0750    0.0000 C   0  0  0  0  0  0  0  0  0  0  0  0
   -5.5537   -0.3250    0.0000 O   0  0  0  0  0  0  0  0  0  0  0  0
   -5.2418    1.1422    0.0000 C   0  0  0  0  0  0  0  0  0  0  0  0
   -1.5000    0.0000    0.0000 C   0  0  0  0  0  0  0  0  0  0  0  0
   -0.7500   -1.2990    0.0000 C   0  0  0  0  0  0  0  0  0  0  0  0
  1  2  1  0
  2  3  2  0
  3  4  1  0
  4  5  1  0
  5  6  2  0
  6  7  1  0
  7  8  2  0
  8  9  1  0
  9 10  2  0
 10 11  1  0
 11 12  1  0
 12 13  1  0
 13 14  1  0
 14 15  1  1
 14 16  1  0
 16 17  1  0
 17 18  2  0
 18 19  1  0
 19 20  2  0
 20 21  1  0
 21 22  1  0
 21 23  2  0
 23 24  1  0
 24 25  2  0
 25 26  1  0
 11 27  2  0
 27 28  1  0
 28 29  2  0
 29 30  1  0
 30 31  1  0
 31 32  2  0
 32 33  1  0
 33 34  1  0
  8 35  1  0
 35 36  2  0
 36  2  1  0
 36  5  1  0
 29  9  1  0
 34 30  2  0
 26 17  1  0
 24 18  1  0
M  CHG  2  15   1  25   1
M  END
>  <Compound_ID>  (107) 
C52569910

>  <Active>  (107) 
0

>  <Smiles>  (107) 
Cc1n[nH]c2ccc(-c3cc(OC[C@@H]([NH3+])CC4=c5ccc(F)cc5=[NH+]C4)cnc3-c3ccoc3)cc12

>  <canonical_smi>  (107) 
Cc1n[nH]c2ccc(-c3cc(OC[C@@H]([NH3+])CC4=c5ccc(F)cc5=[NH+]C4)cnc3-c3ccoc3)cc12

>  <Set>  (107) 
G2 inactive

>  <Set_type>  (107) 
Train

>  <MW>  (107) 
483.55

>  <HBD>  (107) 
3

>  <HBA>  (107) 
4

>  <NRB>  (107) 
7

>  <NR>  (107) 
6

>  <NAR>  (107) 
5

>  <PSA>  (107) 
105.55

>  <Standard Type>  (107) 
nan

>  <Standard Relation>  (107) 
nan

>  <Standard Units>  (107) 
nan

>  <Standard Value>  (107) 
nan

>  <Assay ChEMBL ID>  (107) 
nan

>  <Assay Description>  (107) 
nan

>  <BAO Label>  (107) 
nan

$$$$

     RDKit          2D

 28 29  0  0  0  0  0  0  0  0999 V2000
    3.0000    0.0000    0.0000 C   0  0  0  0  0  0  0  0  0  0  0  0
    1.5000    0.0000    0.0000 C   0  0  0  0  0  0  0  0  0  0  0  0
    0.7500   -1.2990    0.0000 C   0  0  0  0  0  0  0  0  0  0  0  0
   -0.7500   -1.2990    0.0000 C   0  0  0  0  0  0  0  0  0  0  0  0
   -1.5000   -2.5981    0.0000 C   0  0  0  0  0  0  0  0  0  0  0  0
   -1.5000    0.0000    0.0000 C   0  0  0  0  0  0  0  0  0  0  0  0
   -3.0000    0.0000    0.0000 C   0  0  0  0  0  0  0  0  0  0  0  0
   -3.7500    1.2990    0.0000 C   0  0  0  0  0  0  0  0  0  0  0  0
   -5.2500    1.2990    0.0000 C   0  0  0  0  0  0  0  0  0  0  0  0
   -6.7500    1.2990    0.0000 N   0  0  0  0  0  0  0  0  0  0  0  0
   -3.0000    2.5981    0.0000 C   0  0  0  0  0  0  0  0  0  0  0  0
   -3.7500    3.8971    0.0000 N   0  0  0  0  0  0  0  0  0  0  0  0
   -3.0000    5.1962    0.0000 C   0  0  0  0  0  0  0  0  0  0  0  0
   -3.7500    6.4952    0.0000 C   0  0  0  0  0  0  0  0  0  0  0  0
   -3.0000    7.7942    0.0000 C   0  0  0  0  0  0  0  0  0  0  0  0
   -3.7500    9.0933    0.0000 N   0  0  0  0  0  0  0  0  0  0  0  0
   -3.0000   10.3923    0.0000 C   0  0  0  0  0  0  0  0  0  0  0  0
   -1.5000   10.3923    0.0000 S   0  0  0  0  0  0  0  0  0  0  0  0
   -3.7500   11.6913    0.0000 N   0  0  0  0  0  0  0  0  0  0  0  0
   -3.0000   12.9904    0.0000 C   0  0  0  0  0  0  0  0  0  0  0  0
   -3.7500   14.2894    0.0000 C   0  0  0  0  0  0  0  0  0  0  0  0
   -3.0000   15.5885    0.0000 C   0  0  0  0  0  0  0  0  0  0  0  0
   -3.7500   16.8875    0.0000 N   0  0  0  0  0  4  0  0  0  0  0  0
   -3.0000   18.1865    0.0000 C   0  0  0  0  0  0  0  0  0  0  0  0
   -5.2500   16.8875    0.0000 C   0  0  0  0  0  0  0  0  0  0  0  0
   -1.5000    2.5981    0.0000 N   0  0  0  0  0  0  0  0  0  0  0  0
   -0.7500    1.2990    0.0000 C   0  0  0  0  0  0  0  0  0  0  0  0
    0.7500    1.2990    0.0000 C   0  0  0  0  0  0  0  0  0  0  0  0
  1  2  1  0
  2  3  2  0
  3  4  1  0
  4  5  1  0
  4  6  2  0
  6  7  1  0
  7  8  2  0
  8  9  1  0
  9 10  3  0
  8 11  1  0
 11 12  1  0
 12 13  1  0
 13 14  1  0
 14 15  1  0
 15 16  1  0
 16 17  1  0
 17 18  2  0
 17 19  1  0
 19 20  1  0
 20 21  1  0
 21 22  1  0
 22 23  1  0
 23 24  1  0
 23 25  1  0
 11 26  2  0
 26 27  1  0
 27 28  2  0
 28  2  1  0
 27  6  1  0
M  CHG  1  23   1
M  END
>  <Compound_ID>  (108) 
C20151275

>  <Active>  (108) 
0

>  <Smiles>  (108) 
Cc1cc(C)c2cc(C#N)c(NCCCNC(=S)NCCC[NH+](C)C)nc2c1

>  <canonical_smi>  (108) 
Cc1cc(C)c2cc(C#N)c(NCCCNC(=S)NCCC[NH+](C)C)nc2c1

>  <Set>  (108) 
G2 inactive

>  <Set_type>  (108) 
Train

>  <MW>  (108) 
399.59

>  <HBD>  (108) 
4

>  <HBA>  (108) 
6

>  <NRB>  (108) 
9

>  <NR>  (108) 
2

>  <NAR>  (108) 
2

>  <PSA>  (108) 
77.21

>  <Standard Type>  (108) 
nan

>  <Standard Relation>  (108) 
nan

>  <Standard Units>  (108) 
nan

>  <Standard Value>  (108) 
nan

>  <Assay ChEMBL ID>  (108) 
nan

>  <Assay Description>  (108) 
nan

>  <BAO Label>  (108) 
nan

$$$$

     RDKit          2D

 25 26  0  0  0  0  0  0  0  0999 V2000
    3.0000   -5.1962    0.0000 O   0  0  0  0  0  0  0  0  0  0  0  0
    1.5000   -5.1962    0.0000 C   0  0  0  0  0  0  0  0  0  0  0  0
    0.7500   -3.8971    0.0000 C   0  0  0  0  0  0  0  0  0  0  0  0
    1.5000   -2.5981    0.0000 C   0  0  0  0  0  0  0  0  0  0  0  0
    0.7500   -1.2990    0.0000 C   0  0  0  0  0  0  0  0  0  0  0  0
    1.5000    0.0000    0.0000 C   0  0  0  0  0  0  0  0  0  0  0  0
    0.7500    1.2990    0.0000 C   0  0  0  0  0  0  0  0  0  0  0  0
   -0.7500    1.2990    0.0000 C   0  0  0  0  0  0  0  0  0  0  0  0
   -1.5000    0.0000    0.0000 C   0  0  0  0  0  0  0  0  0  0  0  0
   -0.7500   -1.2990    0.0000 C   0  0  0  0  0  0  0  0  0  0  0  0
    0.7500   -6.4952    0.0000 N   0  0  0  0  0  0  0  0  0  0  0  0
    1.5000   -7.7942    0.0000 N   0  0  0  0  0  0  0  0  0  0  0  0
    0.7500   -9.0933    0.0000 C   0  0  0  0  0  0  0  0  0  0  0  0
   -0.7500   -9.0933    0.0000 O   0  0  0  0  0  0  0  0  0  0  0  0
    1.5000  -10.3923    0.0000 C   0  0  0  0  0  0  0  0  0  0  0  0
    0.7500  -11.6913    0.0000 N   0  0  0  0  0  0  0  0  0  0  0  0
    1.5000  -12.9904    0.0000 C   0  0  0  0  0  0  0  0  0  0  0  0
    3.0000  -12.9904    0.0000 O   0  0  0  0  0  0  0  0  0  0  0  0
    0.7500  -14.2894    0.0000 N   0  0  0  0  0  0  0  0  0  0  0  0
    1.5000  -15.5885    0.0000 C   0  0  0  0  0  0  0  0  0  0  0  0
    0.7500  -16.8875    0.0000 C   0  0  0  0  0  0  0  0  0  0  0  0
    1.3601  -18.2578    0.0000 C   0  0  0  0  0  0  0  0  0  0  0  0
    0.2454  -19.2615    0.0000 C   0  0  0  0  0  0  0  0  0  0  0  0
   -1.0537  -18.5115    0.0000 C   0  0  0  0  0  0  0  0  0  0  0  0
   -0.7418  -17.0443    0.0000 C   0  0  0  0  0  0  0  0  0  0  0  0
  1  2  2  0
  2  3  1  0
  3  4  1  0
  4  5  1  0
  5  6  1  0
  6  7  1  0
  7  8  1  0
  8  9  1  0
  9 10  1  0
  2 11  1  0
 11 12  1  0
 12 13  1  0
 13 14  2  0
 13 15  1  0
 15 16  1  0
 16 17  1  0
 17 18  2  0
 17 19  1  0
 19 20  1  0
 20 21  1  0
 21 22  1  0
 22 23  1  0
 23 24  1  0
 24 25  1  0
 10  5  1  0
 25 21  1  0
M  END
>  <Compound_ID>  (109) 
C66782826

>  <Active>  (109) 
0

>  <Smiles>  (109) 
O=C(CCC1CCCCC1)NNC(=O)CNC(=O)NCC1CCCC1

>  <canonical_smi>  (109) 
O=C(CCC1CCCCC1)NNC(=O)CNC(=O)NCC1CCCC1

>  <Set>  (109) 
G2 inactive

>  <Set_type>  (109) 
Train

>  <MW>  (109) 
352.48

>  <HBD>  (109) 
4

>  <HBA>  (109) 
3

>  <NRB>  (109) 
7

>  <NR>  (109) 
2

>  <NAR>  (109) 
0

>  <PSA>  (109) 
99.33

>  <Standard Type>  (109) 
nan

>  <Standard Relation>  (109) 
nan

>  <Standard Units>  (109) 
nan

>  <Standard Value>  (109) 
nan

>  <Assay ChEMBL ID>  (109) 
nan

>  <Assay Description>  (109) 
nan

>  <BAO Label>  (109) 
nan

$$$$

     RDKit          2D

 29 32  0  0  0  0  0  0  0  0999 V2000
    3.7500   -1.2990    0.0000 C   0  0  0  0  0  0  0  0  0  0  0  0
    3.0000    0.0000    0.0000 C   0  0  0  0  0  0  0  0  0  0  0  0
    1.5000    0.0000    0.0000 C   0  0  0  0  0  0  0  0  0  0  0  0
    0.7500   -1.2990    0.0000 C   0  0  0  0  0  0  0  0  0  0  0  0
   -0.7500   -1.2990    0.0000 C   0  0  0  0  0  0  0  0  0  0  0  0
   -1.5000    0.0000    0.0000 C   0  0  0  0  0  0  0  0  0  0  0  0
   -3.0000    0.0000    0.0000 C   0  0  0  0  0  0  0  0  0  0  0  0
   -3.7500    1.2990    0.0000 N   0  0  0  0  0  0  0  0  0  0  0  0
   -5.2500    1.2990    0.0000 C   0  0  0  0  0  0  0  0  0  0  0  0
   -6.0000    2.5981    0.0000 C   0  0  0  0  0  0  0  0  0  0  0  0
   -5.2500    3.8971    0.0000 C   0  0  0  0  0  0  0  0  0  0  0  0
   -6.0000    5.1962    0.0000 C   0  0  0  0  0  0  0  0  0  0  0  0
   -7.5000    5.1962    0.0000 C   0  0  0  0  0  0  0  0  0  0  0  0
   -8.2500    6.4952    0.0000 S   0  0  0  0  0  0  0  0  0  0  0  0
   -7.5000    7.7942    0.0000 C   0  0  0  0  0  0  0  0  0  0  0  0
   -8.2500    3.8971    0.0000 C   0  0  0  0  0  0  0  0  0  0  0  0
   -7.5000    2.5981    0.0000 C   0  0  0  0  0  0  0  0  0  0  0  0
   -6.0000    0.0000    0.0000 N   0  0  0  0  0  4  0  0  0  0  0  0
   -5.2500   -1.2990    0.0000 C   0  0  0  0  0  0  0  0  0  0  0  0
   -6.0000   -2.5981    0.0000 C   0  0  0  0  0  0  0  0  0  0  0  0
   -7.5000   -2.5981    0.0000 C   0  0  0  0  0  0  0  0  0  0  0  0
   -8.2500   -3.8971    0.0000 C   0  0  0  0  0  0  0  0  0  0  0  0
   -7.5000   -5.1962    0.0000 C   0  0  0  0  0  0  0  0  0  0  0  0
   -6.0000   -5.1962    0.0000 C   0  0  0  0  0  0  0  0  0  0  0  0
   -5.2500   -3.8971    0.0000 C   0  0  0  0  0  0  0  0  0  0  0  0
   -3.7500   -3.8971    0.0000 O   0  0  0  0  0  0  0  0  0  0  0  0
   -3.7500   -1.2990    0.0000 C   0  0  0  0  0  0  0  0  0  0  0  0
   -0.7500    1.2990    0.0000 C   0  0  0  0  0  0  0  0  0  0  0  0
    0.7500    1.2990    0.0000 C   0  0  0  0  0  0  0  0  0  0  0  0
  1  2  1  0
  2  3  1  0
  3  4  2  0
  4  5  1  0
  5  6  2  0
  6  7  1  0
  7  8  2  0
  8  9  1  0
  9 10  1  6
 10 11  2  0
 11 12  1  0
 12 13  2  0
 13 14  1  0
 14 15  1  0
 13 16  1  0
 16 17  2  0
  9 18  1  0
 18 19  1  0
 19 20  1  1
 20 21  2  0
 21 22  1  0
 22 23  2  0
 23 24  1  0
 24 25  2  0
 25 26  1  0
 19 27  1  0
  6 28  1  0
 28 29  2  0
 29  3  1  0
 27  7  1  0
 17 10  1  0
 25 20  1  0
M  CHG  1  18   1
M  END
>  <Compound_ID>  (110) 
C04729814

>  <Active>  (110) 
0

>  <Smiles>  (110) 
CCc1ccc(C2=N[C@@H](c3ccc(SC)cc3)[NH2+][C@H](c3ccccc3O)C2)cc1

>  <canonical_smi>  (110) 
CCc1ccc(C2=N[C@@H](c3ccc(SC)cc3)[NH2+][C@H](c3ccccc3O)C2)cc1

>  <Set>  (110) 
G2 inactive

>  <Set_type>  (110) 
Train

>  <MW>  (110) 
403.57

>  <HBD>  (110) 
2

>  <HBA>  (110) 
2

>  <NRB>  (110) 
5

>  <NR>  (110) 
4

>  <NAR>  (110) 
3

>  <PSA>  (110) 
49.2

>  <Standard Type>  (110) 
nan

>  <Standard Relation>  (110) 
nan

>  <Standard Units>  (110) 
nan

>  <Standard Value>  (110) 
nan

>  <Assay ChEMBL ID>  (110) 
nan

>  <Assay Description>  (110) 
nan

>  <BAO Label>  (110) 
nan

$$$$

     RDKit          2D

 25 29  0  0  0  0  0  0  0  0999 V2000
   -1.0567   -8.5788    0.0000 O   0  0  0  0  0  0  0  0  0  0  0  0
    0.1568   -7.6972    0.0000 C   0  0  0  0  0  0  0  0  0  0  0  0
    1.5271   -8.3073    0.0000 N   0  0  0  0  0  0  0  0  0  0  0  0
    2.7406   -7.4256    0.0000 C   0  0  0  0  0  0  0  0  0  0  0  0
    4.1110   -8.0357    0.0000 C   0  0  0  0  0  0  0  0  0  0  0  0
    4.2677   -9.5275    0.0000 C   0  0  0  0  0  0  0  0  0  0  0  0
    5.6381  -10.1376    0.0000 C   0  0  0  0  0  0  0  0  0  0  0  0
    6.8516   -9.2559    0.0000 C   0  0  0  0  0  0  0  0  0  0  0  0
    8.2219   -9.8660    0.0000 Br  0  0  0  0  0  0  0  0  0  0  0  0
    6.6948   -7.7641    0.0000 C   0  0  0  0  0  0  0  0  0  0  0  0
    5.3245   -7.1540    0.0000 C   0  0  0  0  0  0  0  0  0  0  0  0
    2.5838   -5.9338    0.0000 N   0  0  0  0  0  0  0  0  0  0  0  0
    1.2135   -5.3237    0.0000 C   0  0  0  0  0  0  0  0  0  0  0  0
    0.0000   -6.2054    0.0000 C   0  0  0  0  0  0  0  0  0  0  0  0
   -1.2135   -5.3237    0.0000 S   0  0  0  0  0  0  0  0  0  0  0  0
   -0.7500   -3.8971    0.0000 C   0  0  0  0  0  0  0  0  0  0  0  0
   -1.5000   -2.5981    0.0000 N   0  0  0  0  0  4  0  0  0  0  0  0
   -0.7500   -1.2990    0.0000 C   0  0  0  0  0  0  0  0  0  0  0  0
    0.7500   -1.2990    0.0000 C   0  0  0  0  0  0  0  0  0  0  0  0
    1.5000   -2.5981    0.0000 C   0  0  0  0  0  0  0  0  0  0  0  0
    0.7500   -3.8971    0.0000 C   0  0  0  0  0  0  0  0  0  0  0  0
    1.5000    0.0000    0.0000 C   0  0  0  0  0  0  0  0  0  0  0  0
    0.7500    1.2990    0.0000 C   0  0  0  0  0  0  0  0  0  0  0  0
   -0.7500    1.2990    0.0000 C   0  0  0  0  0  0  0  0  0  0  0  0
   -1.5000    0.0000    0.0000 C   0  0  0  0  0  0  0  0  0  0  0  0
  1  2  2  0
  2  3  1  0
  3  4  1  0
  4  5  1  6
  5  6  2  0
  6  7  1  0
  7  8  2  0
  8  9  1  0
  8 10  1  0
 10 11  2  0
  4 12  1  0
 12 13  1  0
 13 14  2  0
 14 15  1  0
 15 16  1  0
 16 17  2  0
 17 18  1  0
 18 19  2  0
 19 20  1  0
 20 21  2  0
 19 22  1  0
 22 23  1  0
 23 24  1  0
 24 25  1  0
 14  2  1  0
 21 16  1  0
 11  5  1  0
 21 13  1  0
 25 18  1  0
M  CHG  1  17   1
M  END
>  <Compound_ID>  (111) 
C26845392

>  <Active>  (111) 
0

>  <Smiles>  (111) 
O=C1N[C@@H](c2ccc(Br)cc2)Nc2c1sc1[nH+]c3c(cc21)CCCC3

>  <canonical_smi>  (111) 
O=C1N[C@@H](c2ccc(Br)cc2)Nc2c1sc1[nH+]c3c(cc21)CCCC3

>  <Set>  (111) 
G2 inactive

>  <Set_type>  (111) 
Train

>  <MW>  (111) 
415.34

>  <HBD>  (111) 
2

>  <HBA>  (111) 
2

>  <NRB>  (111) 
1

>  <NR>  (111) 
5

>  <NAR>  (111) 
3

>  <PSA>  (111) 
55.27

>  <Standard Type>  (111) 
nan

>  <Standard Relation>  (111) 
nan

>  <Standard Units>  (111) 
nan

>  <Standard Value>  (111) 
nan

>  <Assay ChEMBL ID>  (111) 
nan

>  <Assay Description>  (111) 
nan

>  <BAO Label>  (111) 
nan

$$$$

     RDKit          2D

 32 36  0  0  0  0  0  0  0  0999 V2000
    3.7500   -1.2990    0.0000 C   0  0  0  0  0  0  0  0  0  0  0  0
    3.0000    0.0000    0.0000 O   0  0  0  0  0  0  0  0  0  0  0  0
    1.5000    0.0000    0.0000 C   0  0  0  0  0  0  0  0  0  0  0  0
    0.7500   -1.2990    0.0000 C   0  0  0  0  0  0  0  0  0  0  0  0
    1.5000   -2.5981    0.0000 O   0  0  0  0  0  0  0  0  0  0  0  0
   -0.7500   -1.2990    0.0000 C   0  0  0  0  0  0  0  0  0  0  0  0
   -1.5000    0.0000    0.0000 C   0  0  0  0  0  0  0  0  0  0  0  0
   -0.7500    1.2990    0.0000 C   0  0  0  0  0  0  0  0  0  0  0  0
    0.7500    1.2990    0.0000 C   0  0  0  0  0  0  0  0  0  0  0  0
    1.5000    2.5981    0.0000 C   0  0  0  0  0  0  0  0  0  0  0  0
    0.7500    3.8971    0.0000 C   0  0  0  0  0  0  0  0  0  0  0  0
   -0.7500    3.8971    0.0000 C   0  0  0  0  0  0  0  0  0  0  0  0
   -1.5000    5.1962    0.0000 C   0  0  0  0  0  0  0  0  0  0  0  0
   -3.0000    5.1962    0.0000 C   0  0  0  0  0  0  0  0  0  0  0  0
   -3.7500    6.4952    0.0000 C   0  0  0  0  0  0  0  0  0  0  0  0
   -5.2500    6.4952    0.0000 C   0  0  0  0  0  0  0  0  0  0  0  0
   -6.0000    5.1962    0.0000 C   0  0  0  0  0  0  0  0  0  0  0  0
   -5.2500    3.8971    0.0000 C   0  0  0  0  0  0  0  0  0  0  0  0
   -6.0000    2.5981    0.0000 C   0  0  0  0  0  0  0  0  0  0  0  0
   -3.7500    3.8971    0.0000 N   0  0  0  0  0  0  0  0  0  0  0  0
   -1.5000    2.5981    0.0000 O   0  0  0  0  0  0  0  0  0  0  0  0
    1.5000    5.1962    0.0000 C   0  0  0  0  0  0  0  0  0  0  0  0
    0.7500    6.4952    0.0000 C   0  0  0  0  0  0  0  0  0  0  0  0
   -0.7500    6.4952    0.0000 C   0  0  0  0  0  0  0  0  0  0  0  0
    1.5000    7.7942    0.0000 C   0  0  0  0  0  0  0  0  0  0  0  0
    3.0000    7.7942    0.0000 C   0  0  0  0  0  0  0  0  0  0  0  0
    4.4095    8.3073    0.0000 C   0  0  0  0  0  0  0  0  0  0  0  0
    2.7395    9.2714    0.0000 C   0  0  0  0  0  0  0  0  0  0  0  0
    3.7500    6.4952    0.0000 N   0  0  0  0  0  4  0  0  0  0  0  0
    3.0000    5.1962    0.0000 C   0  0  0  0  0  0  0  0  0  0  0  0
    3.7500    3.8971    0.0000 C   0  0  0  0  0  0  0  0  0  0  0  0
    3.0000    2.5981    0.0000 C   0  0  0  0  0  0  0  0  0  0  0  0
  1  2  1  0
  2  3  1  0
  3  4  2  0
  4  5  1  0
  4  6  1  0
  6  7  2  0
  7  8  1  0
  8  9  2  0
  9 10  1  0
 10 11  2  0
 11 12  1  0
 12 13  2  0
 13 14  1  0
 14 15  2  0
 15 16  1  0
 16 17  2  0
 17 18  1  0
 18 19  1  0
 18 20  2  0
 12 21  1  0
 11 22  1  0
 22 23  1  6
 23 24  1  0
 23 25  2  0
 25 26  1  0
 26 27  1  0
 26 28  1  0
 26 29  1  0
 30 29  1  1
 30 31  1  0
 31 32  2  0
  9  3  1  0
 32 10  1  0
 21  8  1  0
 30 22  1  0
 20 14  1  0
M  CHG  1  29   1
M  END
>  <Compound_ID>  (112) 
C28823566

>  <Active>  (112) 
0

>  <Smiles>  (112) 
COc1c(O)ccc2c1C1=C(/C(=C/c3cccc(C)n3)O2)[C@@H]2C(C)=CC(C)(C)[NH2+][C@H]2C=C1

>  <canonical_smi>  (112) 
COc1c(O)ccc2c1C1=C(/C(=C/c3cccc(C)n3)O2)[C@@H]2C(C)=CC(C)(C)[NH2+][C@H]2C=C1

>  <Set>  (112) 
G2 inactive

>  <Set_type>  (112) 
Train

>  <MW>  (112) 
429.54

>  <HBD>  (112) 
2

>  <HBA>  (112) 
4

>  <NRB>  (112) 
2

>  <NR>  (112) 
5

>  <NAR>  (112) 
2

>  <PSA>  (112) 
68.19

>  <Standard Type>  (112) 
nan

>  <Standard Relation>  (112) 
nan

>  <Standard Units>  (112) 
nan

>  <Standard Value>  (112) 
nan

>  <Assay ChEMBL ID>  (112) 
nan

>  <Assay Description>  (112) 
nan

>  <BAO Label>  (112) 
nan

$$$$

     RDKit          2D

 25 28  0  0  0  0  0  0  0  0999 V2000
   -3.0000   -7.7942    0.0000 C   0  0  0  0  0  0  0  0  0  0  0  0
   -1.5000   -7.7942    0.0000 C   0  0  0  0  0  0  0  0  0  0  0  0
   -0.7500   -6.4952    0.0000 O   0  0  0  0  0  0  0  0  0  0  0  0
    0.7500   -6.4952    0.0000 C   0  0  0  0  0  0  0  0  0  0  0  0
    1.5000   -5.1962    0.0000 C   0  0  0  0  0  0  0  0  0  0  0  0
    0.7500   -3.8971    0.0000 C   0  0  0  0  0  0  0  0  0  0  0  0
    1.5000   -2.5981    0.0000 N   0  0  0  0  0  4  0  0  0  0  0  0
    0.7500   -1.2990    0.0000 C   0  0  0  0  0  0  0  0  0  0  0  0
    1.5000    0.0000    0.0000 C   0  0  0  0  0  0  0  0  0  0  0  0
    0.7500    1.2990    0.0000 C   0  0  0  0  0  0  0  0  0  0  0  0
   -0.7500    1.2990    0.0000 C   0  0  0  0  0  0  0  0  0  0  0  0
   -1.5000    0.0000    0.0000 C   0  0  0  0  0  0  0  0  0  0  0  0
   -3.0000    0.0000    0.0000 C   0  0  0  0  0  0  0  0  0  0  0  0
   -0.7500   -1.2990    0.0000 C   0  0  0  0  0  0  0  0  0  0  0  0
    1.7010   -0.7500    0.0000 C   0  0  0  0  0  0  0  0  0  0  0  0
    3.0000   -0.0000    0.0000 C   0  0  0  0  0  0  0  0  0  0  0  0
    4.5000   -0.0000    0.0000 C   0  0  0  0  0  0  0  0  0  0  0  0
    2.2500    1.2990    0.0000 C   0  0  0  0  0  0  0  0  0  0  0  0
    2.2500   -1.2990    0.0000 C   0  0  0  0  0  0  0  0  0  0  0  0
    3.0000   -5.1962    0.0000 C   0  0  0  0  0  0  0  0  0  0  0  0
    3.7500   -6.4952    0.0000 C   0  0  0  0  0  0  0  0  0  0  0  0
    3.0000   -7.7942    0.0000 C   0  0  0  0  0  0  0  0  0  0  0  0
    1.5000   -7.7942    0.0000 C   0  0  0  0  0  0  0  0  0  0  0  0
    0.7500   -9.0933    0.0000 O   0  0  0  0  0  0  0  0  0  0  0  0
    1.5000  -10.3923    0.0000 C   0  0  0  0  0  0  0  0  0  0  0  0
  1  2  1  0
  2  3  1  0
  3  4  1  0
  4  5  2  0
  5  6  1  0
  6  7  1  0
  7  8  1  0
  8  9  1  0
  9 10  1  0
 10 11  1  0
 11 12  1  0
 12 13  1  1
 12 14  1  0
 12 15  1  0
 15 16  1  0
 16 17  1  1
 16 18  1  0
 16 19  1  0
  5 20  1  0
 20 21  2  0
 21 22  1  0
 22 23  2  0
 23 24  1  0
 24 25  1  0
 23  4  1  0
 14  8  1  0
 19  8  1  0
 18 10  1  0
M  CHG  1   7   1
M  END
>  <Compound_ID>  (113) 
C08253455

>  <Active>  (113) 
0

>  <Smiles>  (113) 
CCOc1c(C[NH2+]C23CC4C[C@@](C)(C2)C[C@](C)(C4)C3)cccc1OC

>  <canonical_smi>  (113) 
CCOc1c(C[NH2+]C23CC4C[C@](C)(C2)C[C@@](C)(C4)C3)cccc1OC

>  <Set>  (113) 
G2 inactive

>  <Set_type>  (113) 
Test

>  <MW>  (113) 
344.52

>  <HBD>  (113) 
1

>  <HBA>  (113) 
2

>  <NRB>  (113) 
6

>  <NR>  (113) 
5

>  <NAR>  (113) 
1

>  <PSA>  (113) 
35.07

>  <Standard Type>  (113) 
nan

>  <Standard Relation>  (113) 
nan

>  <Standard Units>  (113) 
nan

>  <Standard Value>  (113) 
nan

>  <Assay ChEMBL ID>  (113) 
nan

>  <Assay Description>  (113) 
nan

>  <BAO Label>  (113) 
nan

$$$$

     RDKit          2D

 22 23  0  0  0  0  0  0  0  0999 V2000
   -0.7500   -6.4952    0.0000 N   0  0  0  0  0  0  0  0  0  0  0  0
    0.7500   -6.4952    0.0000 C   0  0  0  0  0  0  0  0  0  0  0  0
    1.5000   -5.1962    0.0000 N   0  0  0  0  0  0  0  0  0  0  0  0
    0.7500   -3.8971    0.0000 N   0  0  0  0  0  0  0  0  0  0  0  0
    1.5000   -2.5981    0.0000 C   0  0  0  0  0  0  0  0  0  0  0  0
    0.7500   -1.2990    0.0000 C   0  0  0  0  0  0  0  0  0  0  0  0
    1.5000    0.0000    0.0000 C   0  0  0  0  0  0  0  0  0  0  0  0
    0.7500    1.2990    0.0000 C   0  0  0  0  0  0  0  0  0  0  0  0
   -0.7500    1.2990    0.0000 C   0  0  0  0  0  0  0  0  0  0  0  0
   -1.5000    2.5981    0.0000 Cl  0  0  0  0  0  0  0  0  0  0  0  0
   -1.5000    0.0000    0.0000 C   0  0  0  0  0  0  0  0  0  0  0  0
   -0.7500   -1.2990    0.0000 C   0  0  0  0  0  0  0  0  0  0  0  0
    1.5000   -7.7942    0.0000 N   0  0  0  0  0  4  0  0  0  0  0  0
    0.7500   -9.0933    0.0000 N   0  0  0  0  0  0  0  0  0  0  0  0
    1.5000  -10.3923    0.0000 C   0  0  0  0  0  0  0  0  0  0  0  0
    0.7500  -11.6913    0.0000 C   0  0  0  0  0  0  0  0  0  0  0  0
   -0.7500  -11.6913    0.0000 C   0  0  0  0  0  0  0  0  0  0  0  0
   -1.5000  -12.9904    0.0000 C   0  0  0  0  0  0  0  0  0  0  0  0
   -0.7500  -14.2894    0.0000 C   0  0  0  0  0  0  0  0  0  0  0  0
   -1.5000  -15.5885    0.0000 Cl  0  0  0  0  0  0  0  0  0  0  0  0
    0.7500  -14.2894    0.0000 C   0  0  0  0  0  0  0  0  0  0  0  0
    1.5000  -12.9904    0.0000 C   0  0  0  0  0  0  0  0  0  0  0  0
  1  2  1  0
  2  3  1  0
  3  4  1  0
  4  5  2  0
  5  6  1  0
  6  7  2  0
  7  8  1  0
  8  9  2  0
  9 10  1  0
  9 11  1  0
 11 12  2  0
  2 13  2  0
 13 14  1  0
 14 15  2  0
 15 16  1  0
 16 17  2  0
 17 18  1  0
 18 19  2  0
 19 20  1  0
 19 21  1  0
 21 22  2  0
 12  6  1  0
 22 16  1  0
M  CHG  1  13   1
M  END
>  <Compound_ID>  (114) 
C38338242

>  <Active>  (114) 
0

>  <Smiles>  (114) 
N/C(N/N=C/c1ccc(Cl)cc1)=[NH+]\N=C\c1ccc(Cl)cc1

>  <canonical_smi>  (114) 
N/C(N/N=C/c1ccc(Cl)cc1)=[NH+]\N=C\c1ccc(Cl)cc1

>  <Set>  (114) 
G2 inactive

>  <Set_type>  (114) 
Test

>  <MW>  (114) 
335.22

>  <HBD>  (114) 
3

>  <HBA>  (114) 
2

>  <NRB>  (114) 
4

>  <NR>  (114) 
2

>  <NAR>  (114) 
2

>  <PSA>  (114) 
76.74

>  <Standard Type>  (114) 
nan

>  <Standard Relation>  (114) 
nan

>  <Standard Units>  (114) 
nan

>  <Standard Value>  (114) 
nan

>  <Assay ChEMBL ID>  (114) 
nan

>  <Assay Description>  (114) 
nan

>  <BAO Label>  (114) 
nan

$$$$

     RDKit          2D

 18 19  0  0  0  0  0  0  0  0999 V2000
    3.0000    0.0000    0.0000 C   0  0  0  0  0  0  0  0  0  0  0  0
    1.5000    0.0000    0.0000 C   0  0  0  0  0  0  0  0  0  0  0  0
    0.7500   -1.2990    0.0000 C   0  0  0  0  0  0  0  0  0  0  0  0
   -0.7500   -1.2990    0.0000 C   0  0  0  0  0  0  0  0  0  0  0  0
   -1.5000    0.0000    0.0000 C   0  0  0  0  0  0  0  0  0  0  0  0
   -0.7500    1.2990    0.0000 C   0  0  0  0  0  0  0  0  0  0  0  0
   -1.5000    2.5981    0.0000 C   0  0  0  0  0  0  0  0  0  0  0  0
   -0.7500    3.8971    0.0000 N   0  0  0  0  0  0  0  0  0  0  0  0
   -1.5000    5.1962    0.0000 C   0  0  0  0  0  0  0  0  0  0  0  0
   -0.7500    6.4952    0.0000 C   0  0  0  0  0  0  0  0  0  0  0  0
    0.5490    5.7452    0.0000 C   0  0  0  0  0  0  0  0  0  0  0  0
   -2.0490    7.2452    0.0000 C   0  0  0  0  0  0  0  0  0  0  0  0
    0.0000    7.7942    0.0000 C   0  0  0  0  0  0  0  0  0  0  0  0
   -3.0000    5.1962    0.0000 C   0  0  0  0  0  0  0  0  0  0  0  0
   -3.7500    3.8971    0.0000 C   0  0  0  0  0  0  0  0  0  0  0  0
   -5.2500    3.8971    0.0000 O   0  0  0  0  0  0  0  0  0  0  0  0
   -3.0000    2.5981    0.0000 N   0  0  0  0  0  0  0  0  0  0  0  0
    0.7500    1.2990    0.0000 C   0  0  0  0  0  0  0  0  0  0  0  0
  2  1  1  1
  2  3  1  0
  3  4  1  0
  4  5  1  0
  5  6  1  0
  6  7  1  6
  7  8  2  0
  8  9  1  0
  9 10  1  0
 10 11  1  0
 10 12  1  0
 10 13  1  0
  9 14  2  0
 14 15  1  0
 15 16  2  0
 15 17  1  0
  6 18  1  0
 18  2  1  0
 17  7  1  0
M  END
>  <Compound_ID>  (115) 
C44979154

>  <Active>  (115) 
0

>  <Smiles>  (115) 
C[C@H]1CCC[C@H](c2nc(C(C)(C)C)cc(=O)[nH]2)C1

>  <canonical_smi>  (115) 
C[C@H]1CCC[C@H](c2nc(C(C)(C)C)cc(=O)[nH]2)C1

>  <Set>  (115) 
G2 inactive

>  <Set_type>  (115) 
Test

>  <MW>  (115) 
248.37

>  <HBD>  (115) 
1

>  <HBA>  (115) 
2

>  <NRB>  (115) 
1

>  <NR>  (115) 
2

>  <NAR>  (115) 
1

>  <PSA>  (115) 
45.75

>  <Standard Type>  (115) 
nan

>  <Standard Relation>  (115) 
nan

>  <Standard Units>  (115) 
nan

>  <Standard Value>  (115) 
nan

>  <Assay ChEMBL ID>  (115) 
nan

>  <Assay Description>  (115) 
nan

>  <BAO Label>  (115) 
nan

$$$$

     RDKit          2D

 26 28  0  0  0  0  0  0  0  0999 V2000
   -4.7961   -5.7803    0.0000 C   0  0  0  0  0  0  0  0  0  0  0  0
   -3.3695   -6.2438    0.0000 N   0  0  0  0  0  0  0  0  0  0  0  0
   -2.2548   -5.2401    0.0000 C   0  0  0  0  0  0  0  0  0  0  0  0
   -2.5667   -3.7729    0.0000 O   0  0  0  0  0  0  0  0  0  0  0  0
   -0.8282   -5.7037    0.0000 C   0  0  0  0  0  0  0  0  0  0  0  0
    0.2865   -4.7000    0.0000 N   0  0  0  0  0  0  0  0  0  0  0  0
    1.7537   -5.0118    0.0000 C   0  0  0  0  0  0  0  0  0  0  0  0
    2.3638   -6.3821    0.0000 O   0  0  0  0  0  0  0  0  0  0  0  0
    2.5037   -3.7128    0.0000 N   0  0  0  0  0  0  0  0  0  0  0  0
    1.5000   -2.5981    0.0000 C   0  0  0  0  0  0  0  0  0  0  0  0
    0.7500   -1.2990    0.0000 C   0  0  0  0  0  0  0  0  0  0  0  0
    1.5000    0.0000    0.0000 C   0  0  0  0  0  0  0  0  0  0  0  0
    0.7500    1.2990    0.0000 C   0  0  0  0  0  0  0  0  0  0  0  0
   -0.7500    1.2990    0.0000 C   0  0  0  0  0  0  0  0  0  0  0  0
   -1.5000    2.5981    0.0000 C   0  0  0  0  0  0  0  0  0  0  0  0
   -1.5000    0.0000    0.0000 C   0  0  0  0  0  0  0  0  0  0  0  0
   -0.7500   -1.2990    0.0000 C   0  0  0  0  0  0  0  0  0  0  0  0
    2.7135   -1.7164    0.0000 C   0  0  0  0  0  0  0  0  0  0  0  0
    4.0838   -2.3265    0.0000 C   0  0  0  0  0  0  0  0  0  0  0  0
    5.2974   -1.4448    0.0000 C   0  0  0  0  0  0  0  0  0  0  0  0
    5.1406    0.0470    0.0000 C   0  0  0  0  0  0  0  0  0  0  0  0
    6.3541    0.9286    0.0000 C   0  0  0  0  0  0  0  0  0  0  0  0
    3.7703    0.6571    0.0000 C   0  0  0  0  0  0  0  0  0  0  0  0
    2.5567   -0.2246    0.0000 C   0  0  0  0  0  0  0  0  0  0  0  0
    0.1297   -3.2082    0.0000 C   0  0  0  0  0  0  0  0  0  0  0  0
   -1.1694   -2.4582    0.0000 O   0  0  0  0  0  0  0  0  0  0  0  0
  1  2  1  0
  2  3  1  0
  3  4  2  0
  3  5  1  0
  5  6  1  0
  6  7  1  0
  7  8  2  0
  7  9  1  0
  9 10  1  0
 10 11  1  0
 11 12  2  0
 12 13  1  0
 13 14  2  0
 14 15  1  0
 14 16  1  0
 16 17  2  0
 10 18  1  0
 18 19  2  0
 19 20  1  0
 20 21  2  0
 21 22  1  0
 21 23  1  0
 23 24  2  0
 10 25  1  0
 25 26  2  0
 25  6  1  0
 17 11  1  0
 24 18  1  0
M  END
>  <Compound_ID>  (116) 
C08187989

>  <Active>  (116) 
0

>  <Smiles>  (116) 
CNC(=O)CN1C(=O)NC(c2ccc(C)cc2)(c2ccc(C)cc2)C1=O

>  <canonical_smi>  (116) 
CNC(=O)CN1C(=O)NC(c2ccc(C)cc2)(c2ccc(C)cc2)C1=O

>  <Set>  (116) 
G2 inactive

>  <Set_type>  (116) 
Test

>  <MW>  (116) 
351.41

>  <HBD>  (116) 
2

>  <HBA>  (116) 
3

>  <NRB>  (116) 
4

>  <NR>  (116) 
3

>  <NAR>  (116) 
2

>  <PSA>  (116) 
78.51

>  <Standard Type>  (116) 
nan

>  <Standard Relation>  (116) 
nan

>  <Standard Units>  (116) 
nan

>  <Standard Value>  (116) 
nan

>  <Assay ChEMBL ID>  (116) 
nan

>  <Assay Description>  (116) 
nan

>  <BAO Label>  (116) 
nan

$$$$

     RDKit          2D

 26 28  0  0  0  0  0  0  0  0999 V2000
    5.2500   -1.2990    0.0000 C   0  0  0  0  0  0  0  0  0  0  0  0
    3.7500   -1.2990    0.0000 C   0  0  0  0  0  0  0  0  0  0  0  0
    3.0000    0.0000    0.0000 O   0  0  0  0  0  0  0  0  0  0  0  0
    1.5000    0.0000    0.0000 C   0  0  0  0  0  0  0  0  0  0  0  0
    0.7500   -1.2990    0.0000 C   0  0  0  0  0  0  0  0  0  0  0  0
   -0.7500   -1.2990    0.0000 C   0  0  0  0  0  0  0  0  0  0  0  0
   -1.5000   -2.5981    0.0000 Br  0  0  0  0  0  0  0  0  0  0  0  0
   -1.5000    0.0000    0.0000 C   0  0  0  0  0  0  0  0  0  0  0  0
   -0.7500    1.2990    0.0000 C   0  0  0  0  0  0  0  0  0  0  0  0
   -1.5000    2.5981    0.0000 C   0  0  0  0  0  0  0  0  0  0  0  0
   -0.7500    3.8971    0.0000 C   0  0  0  0  0  0  0  0  0  0  0  0
   -1.5000    5.1962    0.0000 C   0  0  0  0  0  0  0  0  0  0  0  0
   -3.0000    5.1962    0.0000 N   0  0  0  0  0  0  0  0  0  0  0  0
   -0.7500    6.4952    0.0000 S   0  0  0  0  0  0  0  0  0  0  0  0
    0.7500    3.8971    0.0000 C   0  0  0  0  0  0  0  0  0  0  0  0
    1.5000    5.1962    0.0000 N   0  0  0  0  0  4  0  0  0  0  0  0
    3.0000    5.1962    0.0000 C   0  0  0  0  0  0  0  0  0  0  0  0
    3.7500    3.8971    0.0000 C   0  0  0  0  0  0  0  0  0  0  0  0
    5.2500    3.8971    0.0000 C   0  0  0  0  0  0  0  0  0  0  0  0
    6.0000    2.5981    0.0000 C   0  0  0  0  0  0  0  0  0  0  0  0
    6.0000    5.1962    0.0000 C   0  0  0  0  0  0  0  0  0  0  0  0
    5.2500    6.4952    0.0000 C   0  0  0  0  0  0  0  0  0  0  0  0
    3.7500    6.4952    0.0000 C   0  0  0  0  0  0  0  0  0  0  0  0
    3.0000    7.7942    0.0000 C   0  0  0  0  0  0  0  0  0  0  0  0
    1.5000    2.5981    0.0000 O   0  0  0  0  0  0  0  0  0  0  0  0
    0.7500    1.2990    0.0000 C   0  0  0  0  0  0  0  0  0  0  0  0
  1  2  1  0
  2  3  1  0
  3  4  1  0
  4  5  2  0
  5  6  1  0
  6  7  1  0
  6  8  2  0
  8  9  1  0
  9 10  1  0
 10 11  2  0
 11 12  1  0
 12 13  1  0
 12 14  2  0
 11 15  1  0
 15 16  2  0
 16 17  1  0
 17 18  2  0
 18 19  1  0
 19 20  1  0
 19 21  2  0
 21 22  1  0
 22 23  2  0
 23 24  1  0
 15 25  1  0
 25 26  1  0
 26  4  1  0
 26  9  2  0
 23 17  1  0
M  CHG  1  16   1
M  END
>  <Compound_ID>  (117) 
C59170859

>  <Active>  (117) 
0

>  <Smiles>  (117) 
CCOc1cc(Br)cc2cc(C(N)=S)/c(=[NH+]/c3cc(C)ccc3C)oc12

>  <canonical_smi>  (117) 
CCOc1cc(Br)cc2cc(C(N)=S)/c(=[NH+]/c3cc(C)ccc3C)oc12

>  <Set>  (117) 
G2 inactive

>  <Set_type>  (117) 
Test

>  <MW>  (117) 
432.36

>  <HBD>  (117) 
2

>  <HBA>  (117) 
4

>  <NRB>  (117) 
4

>  <NR>  (117) 
3

>  <NAR>  (117) 
3

>  <PSA>  (117) 
62.36

>  <Standard Type>  (117) 
nan

>  <Standard Relation>  (117) 
nan

>  <Standard Units>  (117) 
nan

>  <Standard Value>  (117) 
nan

>  <Assay ChEMBL ID>  (117) 
nan

>  <Assay Description>  (117) 
nan

>  <BAO Label>  (117) 
nan

$$$$

     RDKit          2D

 29 32  0  0  0  0  0  0  0  0999 V2000
    6.0000   -2.5981    0.0000 C   0  0  0  0  0  0  0  0  0  0  0  0
    5.2500   -1.2990    0.0000 C   0  0  0  0  0  0  0  0  0  0  0  0
    3.7500   -1.2990    0.0000 C   0  0  0  0  0  0  0  0  0  0  0  0
    3.0000    0.0000    0.0000 S   0  0  0  0  0  0  0  0  0  0  0  0
    1.5000    0.0000    0.0000 C   0  0  0  0  0  0  0  0  0  0  0  0
    0.7500   -1.2990    0.0000 N   0  0  0  0  0  4  0  0  0  0  0  0
   -0.7500   -1.2990    0.0000 C   0  0  0  0  0  0  0  0  0  0  0  0
   -0.4895   -2.7762    0.0000 C   0  0  0  0  0  0  0  0  0  0  0  0
   -2.1595   -1.8121    0.0000 C   0  0  0  0  0  0  0  0  0  0  0  0
   -1.5000    0.0000    0.0000 C   0  0  0  0  0  0  0  0  0  0  0  0
   -0.7500    1.2990    0.0000 C   0  0  0  0  0  0  0  0  0  0  0  0
    0.0000    2.5981    0.0000 C   0  0  0  0  0  0  0  0  0  0  0  0
   -0.7500    3.8971    0.0000 C   0  0  0  0  0  0  0  0  0  0  0  0
    0.0000    5.1962    0.0000 C   0  0  0  0  0  0  0  0  0  0  0  0
    1.5000    5.1962    0.0000 C   0  0  0  0  0  0  0  0  0  0  0  0
    2.2500    6.4952    0.0000 C   0  0  0  0  0  0  0  0  0  0  0  0
    1.5000    7.7942    0.0000 C   0  0  0  0  0  0  0  0  0  0  0  0
    2.2500    9.0933    0.0000 Cl  0  0  0  0  0  0  0  0  0  0  0  0
    0.0000    7.7942    0.0000 C   0  0  0  0  0  0  0  0  0  0  0  0
   -0.7500    6.4952    0.0000 C   0  0  0  0  0  0  0  0  0  0  0  0
   -2.2500    3.8971    0.0000 C   0  0  0  0  0  0  0  0  0  0  0  0
   -3.0000    5.1962    0.0000 C   0  0  0  0  0  0  0  0  0  0  0  0
   -4.5000    5.1962    0.0000 C   0  0  0  0  0  0  0  0  0  0  0  0
   -5.2500    3.8971    0.0000 C   0  0  0  0  0  0  0  0  0  0  0  0
   -6.7500    3.8971    0.0000 O   0  0  0  0  0  0  0  0  0  0  0  0
   -4.5000    2.5981    0.0000 C   0  0  0  0  0  0  0  0  0  0  0  0
   -3.0000    2.5981    0.0000 C   0  0  0  0  0  0  0  0  0  0  0  0
   -2.2500    1.2990    0.0000 O   0  0  0  0  0  0  0  0  0  0  0  0
    0.7500    1.2990    0.0000 N   0  0  0  0  0  0  0  0  0  0  0  0
  1  2  2  0
  2  3  1  0
  3  4  1  0
  4  5  1  0
  5  6  2  0
  6  7  1  0
  7  8  1  0
  7  9  1  0
  7 10  1  0
 11 10  1  6
 11 12  1  0
 12 13  1  0
 13 14  1  6
 14 15  2  0
 15 16  1  0
 16 17  2  0
 17 18  1  0
 17 19  1  0
 19 20  2  0
 13 21  1  0
 21 22  2  0
 22 23  1  0
 23 24  2  0
 24 25  1  0
 24 26  1  0
 26 27  2  0
 27 28  1  0
 11 29  1  0
 29  5  1  0
 28 11  1  0
 20 14  1  0
 27 21  1  0
M  CHG  1   6   1
M  END
>  <Compound_ID>  (118) 
C06232576

>  <Active>  (118) 
0

>  <Smiles>  (118) 
C=CCSC1=[NH+]C(C)(C)C[C@]2(C[C@@H](c3ccc(Cl)cc3)c3ccc(O)cc3O2)N1

>  <canonical_smi>  (118) 
C=CCSC1=[NH+]C(C)(C)C[C@]2(C[C@@H](c3ccc(Cl)cc3)c3ccc(O)cc3O2)N1

>  <Set>  (118) 
G2 inactive

>  <Set_type>  (118) 
Test

>  <MW>  (118) 
429.99

>  <HBD>  (118) 
3

>  <HBA>  (118) 
4

>  <NRB>  (118) 
3

>  <NR>  (118) 
4

>  <NAR>  (118) 
2

>  <PSA>  (118) 
55.46

>  <Standard Type>  (118) 
nan

>  <Standard Relation>  (118) 
nan

>  <Standard Units>  (118) 
nan

>  <Standard Value>  (118) 
nan

>  <Assay ChEMBL ID>  (118) 
nan

>  <Assay Description>  (118) 
nan

>  <BAO Label>  (118) 
nan

$$$$

     RDKit          2D

 39 43  0  0  0  0  0  0  0  0999 V2000
   10.5000   -2.5981    0.0000 C   0  0  0  0  0  0  0  0  0  0  0  0
    9.7500   -3.8971    0.0000 O   0  0  0  0  0  0  0  0  0  0  0  0
    8.2500   -3.8971    0.0000 C   0  0  0  0  0  0  0  0  0  0  0  0
    7.5000   -2.5981    0.0000 O   0  0  0  0  0  0  0  0  0  0  0  0
    7.5000   -5.1962    0.0000 C   0  0  0  0  0  0  0  0  0  0  0  0
    8.2500   -6.4952    0.0000 C   0  0  0  0  0  0  0  0  0  0  0  0
    9.7500   -6.4952    0.0000 C   0  0  0  0  0  0  0  0  0  0  0  0
   10.6317   -5.2817    0.0000 C   0  0  0  0  0  0  0  0  0  0  0  0
   12.0583   -5.7452    0.0000 N   0  0  0  0  0  0  0  0  0  0  0  0
   12.0583   -7.2452    0.0000 C   0  0  0  0  0  0  0  0  0  0  0  0
   10.6317   -7.7087    0.0000 N   0  0  0  0  0  0  0  0  0  0  0  0
    6.0000   -5.1962    0.0000 N   0  0  0  0  0  0  0  0  0  0  0  0
    5.2500   -3.8971    0.0000 C   0  0  0  0  0  0  0  0  0  0  0  0
    6.0000   -2.5981    0.0000 O   0  0  0  0  0  0  0  0  0  0  0  0
    3.7500   -3.8971    0.0000 C   0  0  0  0  0  0  0  0  0  0  0  0
    3.0000   -2.5981    0.0000 O   0  0  0  0  0  0  0  0  0  0  0  0
    1.5000   -2.5981    0.0000 N   0  0  0  0  0  0  0  0  0  0  0  0
    0.7500   -1.2990    0.0000 C   0  0  0  0  0  0  0  0  0  0  0  0
    1.5000    0.0000    0.0000 C   0  0  0  0  0  0  0  0  0  0  0  0
    0.7500    1.2990    0.0000 C   0  0  0  0  0  0  0  0  0  0  0  0
    1.5000    2.5981    0.0000 C   0  0  0  0  0  0  0  0  0  0  0  0
    0.7500    3.8971    0.0000 C   0  0  0  0  0  0  0  0  0  0  0  0
   -0.7500    3.8971    0.0000 C   0  0  0  0  0  0  0  0  0  0  0  0
   -1.5000    2.5981    0.0000 C   0  0  0  0  0  0  0  0  0  0  0  0
   -3.0000    2.5981    0.0000 C   0  0  0  0  0  0  0  0  0  0  0  0
   -3.7500    3.8971    0.0000 C   0  0  0  0  0  0  0  0  0  0  0  0
   -3.0000    5.1962    0.0000 C   0  0  0  0  0  0  0  0  0  0  0  0
   -4.4918    5.3529    0.0000 C   0  0  0  0  0  0  0  0  0  0  0  0
   -3.4635    6.6227    0.0000 C   0  0  0  0  0  0  0  0  0  0  0  0
   -4.8901    7.0863    0.0000 C   0  0  0  0  0  0  0  0  0  0  0  0
   -5.2020    8.5535    0.0000 C   0  0  0  0  0  0  0  0  0  0  0  0
   -6.0048    6.0826    0.0000 O   0  0  0  0  0  0  0  0  0  0  0  0
   -2.2500    7.5044    0.0000 C   0  0  0  0  0  0  0  0  0  0  0  0
   -1.0365    6.6227    0.0000 C   0  0  0  0  0  0  0  0  0  0  0  0
   -1.5000    5.1962    0.0000 C   0  0  0  0  0  0  0  0  0  0  0  0
   -0.7500    1.2990    0.0000 C   0  0  0  0  0  0  0  0  0  0  0  0
   -2.2500    1.2990    0.0000 C   0  0  0  0  0  0  0  0  0  0  0  0
   -1.5000    0.0000    0.0000 C   0  0  0  0  0  0  0  0  0  0  0  0
   -0.7500   -1.2990    0.0000 C   0  0  0  0  0  0  0  0  0  0  0  0
  1  2  1  0
  2  3  1  0
  3  4  2  0
  3  5  1  0
  5  6  1  6
  6  7  1  0
  7  8  2  0
  8  9  1  0
  9 10  1  0
 10 11  2  0
  5 12  1  0
 12 13  1  0
 13 14  2  0
 13 15  1  0
 15 16  1  0
 16 17  1  0
 17 18  2  0
 18 19  1  0
 19 20  2  0
 20 21  1  0
 21 22  1  0
 23 22  1  1
 23 24  1  0
 24 25  1  6
 25 26  1  0
 26 27  1  0
 27 28  1  6
 27 29  1  0
 29 30  1  6
 30 31  1  0
 30 32  2  0
 29 33  1  0
 33 34  1  0
 35 34  1  1
 24 36  1  0
 36 37  1  6
 36 38  1  0
 38 39  1  0
 11  7  1  0
 39 18  1  0
 36 20  1  0
 35 23  1  0
 35 27  1  0
M  END
>  <Compound_ID>  (119) 
C43736751

>  <Active>  (119) 
0

>  <Smiles>  (119) 
COC(=O)[C@H](Cc1c[nH]cn1)NC(=O)CO/N=C1\C=C2CC[C@H]3[C@@H](CC[C@@]4(C)[C@H](C(C)=O)CC[C@@H]34)[C@]2(C)CC1

>  <canonical_smi>  (119) 
COC(=O)[C@H](Cc1c[nH]cn1)NC(=O)CO/N=C1\C=C2CC[C@@H]3[C@@H]4CC[C@@H](C(C)=O)[C@]4(C)CC[C@H]3[C@]2(C)CC1

>  <Set>  (119) 
G2 inactive

>  <Set_type>  (119) 
Test

>  <MW>  (119) 
538.69

>  <HBD>  (119) 
2

>  <HBA>  (119) 
6

>  <NRB>  (119) 
8

>  <NR>  (119) 
5

>  <NAR>  (119) 
1

>  <PSA>  (119) 
122.74

>  <Standard Type>  (119) 
nan

>  <Standard Relation>  (119) 
nan

>  <Standard Units>  (119) 
nan

>  <Standard Value>  (119) 
nan

>  <Assay ChEMBL ID>  (119) 
nan

>  <Assay Description>  (119) 
nan

>  <BAO Label>  (119) 
nan

$$$$

     RDKit          2D

 31 35  0  0  0  0  0  0  0  0999 V2000
    3.7500   -1.2990    0.0000 C   0  0  0  0  0  0  0  0  0  0  0  0
    3.0000    0.0000    0.0000 O   0  0  0  0  0  0  0  0  0  0  0  0
    1.5000    0.0000    0.0000 C   0  0  0  0  0  0  0  0  0  0  0  0
    0.7500   -1.2990    0.0000 C   0  0  0  0  0  0  0  0  0  0  0  0
   -0.7500   -1.2990    0.0000 C   0  0  0  0  0  0  0  0  0  0  0  0
   -1.5000    0.0000    0.0000 C   0  0  0  0  0  0  0  0  0  0  0  0
   -0.7500    1.2990    0.0000 C   0  0  0  0  0  0  0  0  0  0  0  0
    0.7500    1.2990    0.0000 C   0  0  0  0  0  0  0  0  0  0  0  0
   -1.7537    2.4138    0.0000 C   0  0  0  0  0  0  0  0  0  0  0  0
   -1.5969    3.9055    0.0000 C   0  0  0  0  0  0  0  0  0  0  0  0
   -2.8104    4.7872    0.0000 C   0  0  0  0  0  0  0  0  0  0  0  0
   -4.1807    4.1771    0.0000 N   0  0  0  0  0  0  0  0  0  0  0  0
   -4.3375    2.6853    0.0000 C   0  0  0  0  0  0  0  0  0  0  0  0
   -5.7079    2.0752    0.0000 C   0  0  0  0  0  0  0  0  0  0  0  0
   -6.9214    2.9569    0.0000 C   0  0  0  0  0  0  0  0  0  0  0  0
   -6.7646    4.4487    0.0000 O   0  0  0  0  0  1  0  0  0  0  0  0
   -8.2917    2.3468    0.0000 N   0  0  0  0  0  0  0  0  0  0  0  0
   -9.5052    3.2285    0.0000 C   0  0  0  0  0  0  0  0  0  0  0  0
  -10.8261    2.5177    0.0000 C   0  0  0  0  0  0  0  0  0  0  0  0
  -12.2054    3.1072    0.0000 C   0  0  0  0  0  0  0  0  0  0  0  0
  -12.6045    4.5532    0.0000 C   0  0  0  0  0  0  0  0  0  0  0  0
  -11.7228    5.7667    0.0000 C   0  0  0  0  0  0  0  0  0  0  0  0
  -10.2243    5.8340    0.0000 C   0  0  0  0  0  0  0  0  0  0  0  0
   -9.2374    4.7044    0.0000 C   0  0  0  0  0  0  0  0  0  0  0  0
   -8.4485    0.8550    0.0000 C   0  0  0  0  0  0  0  0  0  0  0  0
   -9.8188    0.2449    0.0000 O   0  0  0  0  0  0  0  0  0  0  0  0
   -7.2350   -0.0267    0.0000 N   0  0  0  0  0  0  0  0  0  0  0  0
   -5.8647    0.5834    0.0000 C   0  0  0  0  0  0  0  0  0  0  0  0
   -4.6511   -0.2982    0.0000 O   0  0  0  0  0  0  0  0  0  0  0  0
   -3.1240    1.8037    0.0000 C   0  0  0  0  0  0  0  0  0  0  0  0
   -2.9672    0.3119    0.0000 N   0  0  0  0  0  4  0  0  0  0  0  0
  1  2  1  0
  2  3  1  0
  3  4  1  0
  4  5  2  0
  5  6  1  0
  6  7  1  0
  7  8  1  0
  7  9  2  0
  9 10  1  0
 10 11  1  0
 11 12  1  0
 12 13  1  0
 13 14  1  6
 14 15  2  0
 15 16  1  0
 15 17  1  0
 17 18  1  0
 18 19  1  0
 19 20  1  0
 20 21  1  0
 21 22  1  0
 22 23  1  0
 23 24  1  0
 17 25  1  0
 25 26  2  0
 25 27  1  0
 27 28  1  0
 28 29  2  0
 13 30  1  0
 30 31  1  1
  8  3  2  0
 30  9  1  0
 31  6  2  0
 28 14  1  0
 24 18  1  0
M  CHG  2  16  -1  31   1
M  END
>  <Compound_ID>  (120) 
C63376129

>  <Active>  (120) 
0

>  <Smiles>  (120) 
COc1ccc2c(c1)=C1CCN[C@@H](c3c([O-])n(C4CCCCCC4)c(=O)[nH]c3=O)[C@@H]1[NH+]=2

>  <canonical_smi>  (120) 
COc1ccc2c(c1)=C1CCN[C@@H](c3c([O-])n(C4CCCCCC4)c(=O)[nH]c3=O)[C@@H]1[NH+]=2

>  <Set>  (120) 
G2 inactive

>  <Set_type>  (120) 
Test

>  <MW>  (120) 
424.5

>  <HBD>  (120) 
3

>  <HBA>  (120) 
5

>  <NRB>  (120) 
3

>  <NR>  (120) 
5

>  <NAR>  (120) 
2

>  <PSA>  (120) 
113.15

>  <Standard Type>  (120) 
nan

>  <Standard Relation>  (120) 
nan

>  <Standard Units>  (120) 
nan

>  <Standard Value>  (120) 
nan

>  <Assay ChEMBL ID>  (120) 
nan

>  <Assay Description>  (120) 
nan

>  <BAO Label>  (120) 
nan

$$$$

     RDKit          2D

 33 36  0  0  0  0  0  0  0  0999 V2000
    3.0000   -2.5981    0.0000 O   0  0  0  0  0  0  0  0  0  0  0  0
    1.5000   -2.5981    0.0000 C   0  0  0  0  0  0  0  0  0  0  0  0
    0.7500   -3.8971    0.0000 N   0  0  0  0  0  0  0  0  0  0  0  0
   -0.7500   -3.8971    0.0000 C   0  0  0  0  0  0  0  0  0  0  0  0
   -1.5000   -5.1962    0.0000 O   0  0  0  0  0  0  0  0  0  0  0  0
   -1.5000   -2.5981    0.0000 N   0  0  0  0  0  0  0  0  0  0  0  0
   -3.0000   -2.5981    0.0000 C   0  0  0  0  0  0  0  0  0  0  0  0
   -3.7500   -1.2990    0.0000 C   0  0  0  0  0  0  0  0  0  0  0  0
   -5.2500   -1.2990    0.0000 C   0  0  0  0  0  0  0  0  0  0  0  0
   -6.0000   -2.5981    0.0000 C   0  0  0  0  0  0  0  0  0  0  0  0
   -7.5000   -2.5981    0.0000 Cl  0  0  0  0  0  0  0  0  0  0  0  0
   -5.2500   -3.8971    0.0000 C   0  0  0  0  0  0  0  0  0  0  0  0
   -3.7500   -3.8971    0.0000 C   0  0  0  0  0  0  0  0  0  0  0  0
   -0.7500   -1.2990    0.0000 C   0  0  0  0  0  0  0  0  0  0  0  0
    0.7500   -1.2990    0.0000 C   0  0  0  0  0  0  0  0  0  0  0  0
    1.5000    0.0000    0.0000 C   0  0  0  0  0  0  0  0  0  0  0  0
    2.6491    0.9642    0.0000 C   0  0  0  0  0  0  0  0  0  0  0  0
    3.7981    1.9284    0.0000 F   0  0  0  0  0  0  0  0  0  0  0  0
    3.2321    0.4205    0.0000 F   0  0  0  0  0  0  0  0  0  0  0  0
    1.6849    2.1132    0.0000 F   0  0  0  0  0  0  0  0  0  0  0  0
    2.6491   -0.9642    0.0000 C   0  0  0  0  0  0  0  0  0  0  0  0
    3.7981   -1.9284    0.0000 F   0  0  0  0  0  0  0  0  0  0  0  0
    2.1165   -2.0562    0.0000 F   0  0  0  0  0  0  0  0  0  0  0  0
    3.2321   -0.4205    0.0000 F   0  0  0  0  0  0  0  0  0  0  0  0
    0.7500    1.2990    0.0000 N   0  0  0  0  0  4  0  0  0  0  0  0
   -0.7500    1.2990    0.0000 C   0  0  0  0  0  0  0  0  0  0  0  0
   -1.5000    2.5981    0.0000 C   0  0  0  0  0  0  0  0  0  0  0  0
   -0.7500    3.8971    0.0000 C   0  0  0  0  0  0  0  0  0  0  0  0
   -1.5000    5.1962    0.0000 C   0  0  0  0  0  0  0  0  0  0  0  0
   -3.0000    5.1962    0.0000 N   0  0  0  0  0  0  0  0  0  0  0  0
   -3.7500    3.8971    0.0000 C   0  0  0  0  0  0  0  0  0  0  0  0
   -3.0000    2.5981    0.0000 C   0  0  0  0  0  0  0  0  0  0  0  0
   -1.5000    0.0000    0.0000 N   0  0  0  0  0  0  0  0  0  0  0  0
  1  2  2  0
  2  3  1  0
  3  4  1  0
  4  5  2  0
  4  6  1  0
  6  7  1  0
  7  8  2  0
  8  9  1  0
  9 10  2  0
 10 11  1  0
 10 12  1  0
 12 13  2  0
  6 14  1  0
 14 15  2  0
 15 16  1  0
 16 17  1  0
 17 18  1  0
 17 19  1  0
 17 20  1  0
 16 21  1  0
 21 22  1  0
 21 23  1  0
 21 24  1  0
 16 25  1  0
 25 26  2  0
 26 27  1  0
 27 28  2  0
 28 29  1  0
 29 30  2  0
 30 31  1  0
 31 32  2  0
 26 33  1  0
 15  2  1  0
 32 27  1  0
 13  7  1  0
 33 14  1  0
M  CHG  1  25   1
M  END
>  <Compound_ID>  (121) 
C08672228

>  <Active>  (121) 
0

>  <Smiles>  (121) 
O=c1[nH]c(=O)n(-c2ccc(Cl)cc2)c2c1C(C(F)(F)F)(C(F)(F)F)[NH+]=C(c1ccncc1)N2

>  <canonical_smi>  (121) 
O=c1[nH]c(=O)n(-c2ccc(Cl)cc2)c2c1C(C(F)(F)F)(C(F)(F)F)[NH+]=C(c1ccncc1)N2

>  <Set>  (121) 
G2 inactive

>  <Set_type>  (121) 
Test

>  <MW>  (121) 
490.77

>  <HBD>  (121) 
3

>  <HBA>  (121) 
4

>  <NRB>  (121) 
2

>  <NR>  (121) 
4

>  <NAR>  (121) 
3

>  <PSA>  (121) 
93.75

>  <Standard Type>  (121) 
nan

>  <Standard Relation>  (121) 
nan

>  <Standard Units>  (121) 
nan

>  <Standard Value>  (121) 
nan

>  <Assay ChEMBL ID>  (121) 
nan

>  <Assay Description>  (121) 
nan

>  <BAO Label>  (121) 
nan

$$$$

     RDKit          2D

 27 29  0  0  0  0  0  0  0  0999 V2000
    3.4979    5.4853    0.0000 C   0  0  0  0  0  0  0  0  0  0  0  0
    2.2844    4.6036    0.0000 N   0  0  0  0  0  0  0  0  0  0  0  0
    0.8578    5.0672    0.0000 N   0  0  0  0  0  0  0  0  0  0  0  0
   -0.0239    3.8536    0.0000 C   0  0  0  0  0  0  0  0  0  0  0  0
    0.8578    2.6401    0.0000 C   0  0  0  0  0  0  0  0  0  0  0  0
    0.3943    1.2135    0.0000 C   0  0  0  0  0  0  0  0  0  0  0  0
    1.2760    0.0000    0.0000 C   0  0  0  0  0  0  0  0  0  0  0  0
    0.3943   -1.2135    0.0000 C   0  0  0  0  0  0  0  0  0  0  0  0
    0.7062   -2.6807    0.0000 N   0  0  0  0  0  0  0  0  0  0  0  0
   -0.4086   -3.6844    0.0000 C   0  0  0  0  0  0  0  0  0  0  0  0
   -1.8351   -3.2209    0.0000 C   0  0  0  0  0  0  0  0  0  0  0  0
   -2.9499   -4.2246    0.0000 S   0  0  0  0  0  0  0  0  0  0  0  0
   -3.9535   -3.1099    0.0000 O   0  0  0  0  0  0  0  0  0  0  0  0
   -1.9462   -5.3393    0.0000 O   0  0  0  0  0  0  0  0  0  0  0  0
   -4.0646   -5.2283    0.0000 C   0  0  0  0  0  0  0  0  0  0  0  0
   -5.0683   -4.1136    0.0000 C   0  0  0  0  0  0  0  0  0  0  0  0
   -3.0609   -6.3430    0.0000 C   0  0  0  0  0  0  0  0  0  0  0  0
   -5.1793   -6.2320    0.0000 C   0  0  0  0  0  0  0  0  0  0  0  0
   -2.1470   -1.7537    0.0000 C   0  0  0  0  0  0  0  0  0  0  0  0
   -3.5736   -1.2902    0.0000 N   0  0  0  0  0  0  0  0  0  0  0  0
   -1.0323   -0.7500    0.0000 N   0  0  0  0  0  0  0  0  0  0  0  0
   -1.0323    0.7500    0.0000 N   0  0  0  0  0  0  0  0  0  0  0  0
    2.2844    3.1036    0.0000 C   0  0  0  0  0  0  0  0  0  0  0  0
    3.4979    2.2220    0.0000 C   0  0  0  0  0  0  0  0  0  0  0  0
    4.7115    1.3403    0.0000 F   0  0  0  0  0  0  0  0  0  0  0  0
    4.3796    3.4355    0.0000 F   0  0  0  0  0  0  0  0  0  0  0  0
    2.6163    1.0084    0.0000 F   0  0  0  0  0  0  0  0  0  0  0  0
  1  2  1  0
  2  3  1  0
  3  4  2  0
  4  5  1  0
  5  6  1  0
  6  7  1  0
  7  8  2  0
  8  9  1  0
  9 10  2  0
 10 11  1  0
 11 12  1  0
 12 13  2  0
 12 14  2  0
 12 15  1  0
 15 16  1  0
 15 17  1  0
 15 18  1  0
 11 19  2  0
 19 20  1  0
 19 21  1  0
 21 22  1  0
  5 23  2  0
 23 24  1  0
 24 25  1  0
 24 26  1  0
 24 27  1  0
 23  2  1  0
 22  6  2  0
 21  8  1  0
M  END
>  <Compound_ID>  (122) 
C01393602

>  <Active>  (122) 
0

>  <Smiles>  (122) 
Cn1ncc(-c2cc3ncc(S(=O)(=O)C(C)(C)C)c(N)n3n2)c1C(F)(F)F

>  <canonical_smi>  (122) 
Cn1ncc(-c2cc3ncc(S(=O)(=O)C(C)(C)C)c(N)n3n2)c1C(F)(F)F

>  <Set>  (122) 
G2 inactive

>  <Set_type>  (122) 
Test

>  <MW>  (122) 
402.4

>  <HBD>  (122) 
1

>  <HBA>  (122) 
6

>  <NRB>  (122) 
2

>  <NR>  (122) 
3

>  <NAR>  (122) 
3

>  <PSA>  (122) 
108.17

>  <Standard Type>  (122) 
nan

>  <Standard Relation>  (122) 
nan

>  <Standard Units>  (122) 
nan

>  <Standard Value>  (122) 
nan

>  <Assay ChEMBL ID>  (122) 
nan

>  <Assay Description>  (122) 
nan

>  <BAO Label>  (122) 
nan

$$$$

     RDKit          2D

 19 19  0  0  0  0  0  0  0  0999 V2000
    9.7500   -3.8971    0.0000 C   0  0  0  0  0  0  0  0  0  0  0  0
    8.2500   -3.8971    0.0000 C   0  0  0  0  0  0  0  0  0  0  0  0
    7.5000   -2.5981    0.0000 C   0  0  0  0  0  0  0  0  0  0  0  0
    6.0000   -2.5981    0.0000 N   0  0  0  0  0  0  0  0  0  0  0  0
    5.2500   -1.2990    0.0000 C   0  0  0  0  0  0  0  0  0  0  0  0
    6.0000    0.0000    0.0000 O   0  0  0  0  0  0  0  0  0  0  0  0
    3.7500   -1.2990    0.0000 C   0  0  0  0  0  0  0  0  0  0  0  0
    3.0000   -2.5981    0.0000 O   0  0  0  0  0  0  0  0  0  0  0  0
    3.0000    0.0000    0.0000 N   0  0  0  0  0  0  0  0  0  0  0  0
    1.5000    0.0000    0.0000 C   0  0  0  0  0  0  0  0  0  0  0  0
    0.7500   -1.2990    0.0000 C   0  0  0  0  0  0  0  0  0  0  0  0
   -0.7500   -1.2990    0.0000 C   0  0  0  0  0  0  0  0  0  0  0  0
   -1.5000    0.0000    0.0000 C   0  0  0  0  0  0  0  0  0  0  0  0
   -3.0000    0.0000    0.0000 I   0  0  0  0  0  0  0  0  0  0  0  0
   -0.7500    1.2990    0.0000 C   0  0  0  0  0  0  0  0  0  0  0  0
    0.7500    1.2990    0.0000 C   0  0  0  0  0  0  0  0  0  0  0  0
    8.2500   -1.2990    0.0000 C   0  0  0  0  0  0  0  0  0  0  0  0
    9.7500   -1.2990    0.0000 C   0  0  0  0  0  0  0  0  0  0  0  0
    7.5000    0.0000    0.0000 C   0  0  0  0  0  0  0  0  0  0  0  0
  1  2  1  0
  3  2  1  6
  3  4  1  0
  4  5  1  0
  5  6  2  0
  5  7  1  0
  7  8  2  0
  7  9  1  0
  9 10  1  0
 10 11  2  0
 11 12  1  0
 12 13  2  0
 13 14  1  0
 13 15  1  0
 15 16  2  0
  3 17  1  0
 17 18  1  0
 17 19  1  0
 16 10  1  0
M  END
>  <Compound_ID>  (123) 
C49022827

>  <Active>  (123) 
0

>  <Smiles>  (123) 
CC[C@H](NC(=O)C(=O)Nc1ccc(I)cc1)C(C)C

>  <canonical_smi>  (123) 
CC[C@H](NC(=O)C(=O)Nc1ccc(I)cc1)C(C)C

>  <Set>  (123) 
G2 inactive

>  <Set_type>  (123) 
Test

>  <MW>  (123) 
374.22

>  <HBD>  (123) 
2

>  <HBA>  (123) 
2

>  <NRB>  (123) 
4

>  <NR>  (123) 
1

>  <NAR>  (123) 
1

>  <PSA>  (123) 
58.2

>  <Standard Type>  (123) 
nan

>  <Standard Relation>  (123) 
nan

>  <Standard Units>  (123) 
nan

>  <Standard Value>  (123) 
nan

>  <Assay ChEMBL ID>  (123) 
nan

>  <Assay Description>  (123) 
nan

>  <BAO Label>  (123) 
nan

$$$$

     RDKit          2D

 28 31  0  0  0  0  0  0  0  0999 V2000
    5.6097    7.0058    0.0000 C   0  0  0  0  0  0  0  0  0  0  0  0
    4.1831    6.5422    0.0000 C   0  0  0  0  0  0  0  0  0  0  0  0
    3.0684    7.5459    0.0000 O   0  0  0  0  0  0  0  0  0  0  0  0
    3.8712    5.0750    0.0000 N   0  0  0  0  0  0  0  0  0  0  0  0
    4.9859    4.0713    0.0000 C   0  0  0  0  0  0  0  0  0  0  0  0
    2.4446    4.6115    0.0000 C   0  0  0  0  0  0  0  0  0  0  0  0
    1.3299    5.6152    0.0000 C   0  0  0  0  0  0  0  0  0  0  0  0
   -0.0967    5.1517    0.0000 C   0  0  0  0  0  0  0  0  0  0  0  0
   -0.4086    3.6844    0.0000 C   0  0  0  0  0  0  0  0  0  0  0  0
    0.7062    2.6807    0.0000 C   0  0  0  0  0  0  0  0  0  0  0  0
    2.1328    3.1443    0.0000 C   0  0  0  0  0  0  0  0  0  0  0  0
    0.3943    1.2135    0.0000 C   0  0  0  0  0  0  0  0  0  0  0  0
    1.2760    0.0000    0.0000 C   0  0  0  0  0  0  0  0  0  0  0  0
    0.3943   -1.2135    0.0000 C   0  0  0  0  0  0  0  0  0  0  0  0
   -1.0323   -0.7500    0.0000 C   0  0  0  0  0  0  0  0  0  0  0  0
   -1.0323    0.7500    0.0000 C   0  0  0  0  0  0  0  0  0  0  0  0
   -2.1470    1.7537    0.0000 C   0  0  0  0  0  0  0  0  0  0  0  0
   -3.5736    1.2902    0.0000 C   0  0  0  0  0  0  0  0  0  0  0  0
   -4.6883    2.2939    0.0000 C   0  0  0  0  0  0  0  0  0  0  0  0
   -6.1149    1.8303    0.0000 C   0  0  0  0  0  0  0  0  0  0  0  0
   -6.4268    0.3631    0.0000 C   0  0  0  0  0  0  0  0  0  0  0  0
   -7.8533   -0.1004    0.0000 Cl  0  0  0  0  0  0  0  0  0  0  0  0
   -5.3120   -0.6406    0.0000 C   0  0  0  0  0  0  0  0  0  0  0  0
   -5.6239   -2.1078    0.0000 N   0  0  0  0  0  4  0  0  0  0  0  0
   -7.0505   -2.5713    0.0000 O   0  0  0  0  0  0  0  0  0  0  0  0
   -4.5092   -3.1115    0.0000 O   0  0  0  0  0  1  0  0  0  0  0  0
   -3.8855   -0.1771    0.0000 C   0  0  0  0  0  0  0  0  0  0  0  0
   -1.8351    3.2209    0.0000 N   0  0  0  0  0  0  0  0  0  0  0  0
  1  2  1  0
  2  3  2  0
  2  4  1  0
  4  5  1  0
  4  6  1  0
  6  7  2  0
  7  8  1  0
  8  9  2  0
  9 10  1  0
 10 11  2  0
 10 12  1  0
 12 13  1  1
 13 14  2  0
 14 15  1  0
 16 15  1  6
 16 17  1  0
 17 18  1  1
 18 19  2  0
 19 20  1  0
 20 21  2  0
 21 22  1  0
 21 23  1  0
 23 24  1  0
 24 25  2  0
 24 26  1  0
 23 27  2  0
 17 28  1  0
 11  6  1  0
 16 12  1  0
 27 18  1  0
 28  9  1  0
M  CHG  2  24   1  26  -1
M  END
>  <Compound_ID>  (124) 
C20704029

>  <Active>  (124) 
0

>  <Smiles>  (124) 
CC(=O)N(C)c1ccc2c(c1)[C@H]1C=CC[C@@H]1[C@@H](c1ccc(Cl)c([N+](=O)[O-])c1)N2

>  <canonical_smi>  (124) 
CC(=O)N(C)c1ccc2c(c1)[C@H]1C=CC[C@@H]1[C@@H](c1ccc(Cl)c([N+](=O)[O-])c1)N2

>  <Set>  (124) 
G2 inactive

>  <Set_type>  (124) 
Test

>  <MW>  (124) 
397.86

>  <HBD>  (124) 
1

>  <HBA>  (124) 
4

>  <NRB>  (124) 
3

>  <NR>  (124) 
4

>  <NAR>  (124) 
2

>  <PSA>  (124) 
75.48

>  <Standard Type>  (124) 
nan

>  <Standard Relation>  (124) 
nan

>  <Standard Units>  (124) 
nan

>  <Standard Value>  (124) 
nan

>  <Assay ChEMBL ID>  (124) 
nan

>  <Assay Description>  (124) 
nan

>  <BAO Label>  (124) 
nan

$$$$

     RDKit          2D

 28 32  0  0  0  0  0  0  0  0999 V2000
    3.7500   -1.2990    0.0000 O   0  0  0  0  0  0  0  0  0  0  0  0
    3.0000   -2.5981    0.0000 C   0  0  0  0  0  0  0  0  0  0  0  0
    1.5000   -2.5981    0.0000 N   0  0  0  0  0  4  0  0  0  0  0  0
    0.7500   -1.2990    0.0000 C   0  0  0  0  0  0  0  0  0  0  0  0
    1.5000    0.0000    0.0000 C   0  0  0  0  0  0  0  0  0  0  0  0
    0.7500    1.2990    0.0000 C   0  0  0  0  0  0  0  0  0  0  0  0
   -0.7500    1.2990    0.0000 C   0  0  0  0  0  0  0  0  0  0  0  0
   -1.7537    2.4138    0.0000 N   0  0  0  0  0  0  0  0  0  0  0  0
   -3.1240    1.8037    0.0000 C   0  0  0  0  0  0  0  0  0  0  0  0
   -4.4231    2.5537    0.0000 O   0  0  0  0  0  1  0  0  0  0  0  0
   -2.9672    0.3119    0.0000 N   0  0  0  0  0  0  0  0  0  0  0  0
   -1.5000    0.0000    0.0000 C   0  0  0  0  0  0  0  0  0  0  0  0
   -0.7500   -1.2990    0.0000 C   0  0  0  0  0  0  0  0  0  0  0  0
    3.7500   -3.8971    0.0000 C   0  0  0  0  0  0  0  0  0  0  0  0
    2.3797   -4.5072    0.0000 C   0  0  0  0  0  0  0  0  0  0  0  0
    2.2229   -5.9990    0.0000 C   0  0  0  0  0  0  0  0  0  0  0  0
    0.9239   -6.7490    0.0000 N   0  0  0  0  0  0  0  0  0  0  0  0
    1.2357   -8.2162    0.0000 C   0  0  0  0  0  0  0  0  0  0  0  0
    0.3540   -9.4297    0.0000 C   0  0  0  0  0  0  0  0  0  0  0  0
    0.9641  -10.8001    0.0000 C   0  0  0  0  0  0  0  0  0  0  0  0
    2.4559  -10.9569    0.0000 C   0  0  0  0  0  0  0  0  0  0  0  0
    3.3376   -9.7433    0.0000 C   0  0  0  0  0  0  0  0  0  0  0  0
    2.7275   -8.3730    0.0000 C   0  0  0  0  0  0  0  0  0  0  0  0
    3.3376   -7.0027    0.0000 S   0  0  0  0  0  0  0  0  0  0  0  0
    4.2135   -5.3237    0.0000 C   0  0  0  0  0  0  0  0  0  0  0  0
    5.7135   -5.3237    0.0000 C   0  0  0  0  0  0  0  0  0  0  0  0
    6.1771   -3.8971    0.0000 C   0  0  0  0  0  0  0  0  0  0  0  0
    4.9635   -3.0154    0.0000 C   0  0  0  0  0  0  0  0  0  0  0  0
  1  2  2  0
  2  3  1  0
  3  4  2  0
  4  5  1  0
  5  6  2  0
  6  7  1  0
  7  8  2  0
  8  9  1  0
  9 10  1  0
  9 11  2  0
 11 12  1  0
 12 13  2  0
  2 14  1  0
 14 15  1  0
 15 16  1  0
 16 17  2  0
 17 18  1  0
 18 19  2  0
 19 20  1  0
 20 21  2  0
 21 22  1  0
 22 23  2  0
 23 24  1  0
 14 25  1  0
 25 26  1  0
 26 27  1  0
 27 28  1  0
 13  4  1  0
 28 14  1  0
 12  7  1  0
 24 16  1  0
 23 18  1  0
M  CHG  2   3   1  10  -1
M  END
>  <Compound_ID>  (125) 
C38792984

>  <Active>  (125) 
0

>  <Smiles>  (125) 
O=C(/[NH+]=C1\C=CC2=NC([O-])=NC2=C1)C1(Cc2nc3ccccc3s2)CCCC1

>  <canonical_smi>  (125) 
O=C(/[NH+]=C1\C=CC2=NC([O-])=NC2=C1)C1(Cc2nc3ccccc3s2)CCCC1

>  <Set>  (125) 
G2 inactive

>  <Set_type>  (125) 
Test

>  <MW>  (125) 
390.47

>  <HBD>  (125) 
1

>  <HBA>  (125) 
3

>  <NRB>  (125) 
3

>  <NR>  (125) 
5

>  <NAR>  (125) 
2

>  <PSA>  (125) 
91.71

>  <Standard Type>  (125) 
nan

>  <Standard Relation>  (125) 
nan

>  <Standard Units>  (125) 
nan

>  <Standard Value>  (125) 
nan

>  <Assay ChEMBL ID>  (125) 
nan

>  <Assay Description>  (125) 
nan

>  <BAO Label>  (125) 
nan

$$$$

     RDKit          2D

 32 34  0  0  0  0  0  0  0  0999 V2000
    7.5000    2.5981    0.0000 C   0  0  0  0  0  0  0  0  0  0  0  0
    6.0000    2.5981    0.0000 C   0  0  0  0  0  0  0  0  0  0  0  0
    5.2500    1.2990    0.0000 C   0  0  0  0  0  0  0  0  0  0  0  0
    3.7500    1.2990    0.0000 C   0  0  0  0  0  0  0  0  0  0  0  0
    3.0000    0.0000    0.0000 N   0  0  0  0  0  0  0  0  0  0  0  0
    3.7500   -1.2990    0.0000 C   0  0  0  0  0  0  0  0  0  0  0  0
    1.5000    0.0000    0.0000 C   0  0  0  0  0  0  0  0  0  0  0  0
    0.7500   -1.2990    0.0000 N   0  0  0  0  0  0  0  0  0  0  0  0
   -0.7500   -1.2990    0.0000 C   0  0  0  0  0  0  0  0  0  0  0  0
   -1.5000    0.0000    0.0000 N   0  0  0  0  0  0  0  0  0  0  0  0
   -0.7500    1.2990    0.0000 C   0  0  0  0  0  0  0  0  0  0  0  0
   -1.5000    2.5981    0.0000 N   0  0  0  0  0  0  0  0  0  0  0  0
   -3.0000    2.5981    0.0000 C   0  0  0  0  0  0  0  0  0  0  0  0
   -3.7500    3.8971    0.0000 C   0  0  0  0  0  0  0  0  0  0  0  0
   -5.2500    3.8971    0.0000 C   0  0  0  0  0  0  0  0  0  0  0  0
   -6.0000    5.1962    0.0000 Cl  0  0  0  0  0  0  0  0  0  0  0  0
   -6.0000    2.5981    0.0000 C   0  0  0  0  0  0  0  0  0  0  0  0
   -7.5000    2.5981    0.0000 C   0  0  0  0  0  0  0  0  0  0  0  0
   -8.2500    3.8971    0.0000 C   0  0  0  0  0  0  0  0  0  0  0  0
   -9.0000    5.1962    0.0000 N   0  0  0  0  0  0  0  0  0  0  0  0
   -8.2500    1.2990    0.0000 C   0  0  0  0  0  0  0  0  0  0  0  0
   -9.7500    1.2990    0.0000 C   0  0  0  0  0  0  0  0  0  0  0  0
  -10.5000   -0.0000    0.0000 C   0  0  0  0  0  0  0  0  0  0  0  0
   -9.7500   -1.2990    0.0000 C   0  0  0  0  0  0  0  0  0  0  0  0
  -10.5000   -2.5981    0.0000 Cl  0  0  0  0  0  0  0  0  0  0  0  0
   -8.2500   -1.2990    0.0000 C   0  0  0  0  0  0  0  0  0  0  0  0
   -7.5000   -0.0000    0.0000 C   0  0  0  0  0  0  0  0  0  0  0  0
   -5.2500    1.2990    0.0000 C   0  0  0  0  0  0  0  0  0  0  0  0
   -3.7500    1.2990    0.0000 C   0  0  0  0  0  0  0  0  0  0  0  0
   -3.0000   -0.0000    0.0000 C   0  0  0  0  0  0  0  0  0  0  0  0
    0.7500    1.2990    0.0000 C   0  0  0  0  0  0  0  0  0  0  0  0
    1.5000    2.5981    0.0000 N   0  0  0  0  0  0  0  0  0  0  0  0
  1  2  1  0
  2  3  1  0
  3  4  1  0
  4  5  1  0
  5  6  1  0
  5  7  1  0
  7  8  2  0
  8  9  1  0
  9 10  2  0
 10 11  1  0
 11 12  1  0
 12 13  1  0
 13 14  2  0
 14 15  1  0
 15 16  1  0
 15 17  2  0
 17 18  1  0
 18 19  1  6
 19 20  3  0
 18 21  1  0
 21 22  2  0
 22 23  1  0
 23 24  2  0
 24 25  1  0
 24 26  1  0
 26 27  2  0
 17 28  1  0
 28 29  2  0
 29 30  1  0
 11 31  2  0
 31 32  1  0
 31  7  1  0
 29 13  1  0
 27 21  1  0
M  END
>  <Compound_ID>  (126) 
C40688653

>  <Active>  (126) 
0

>  <Smiles>  (126) 
CCCCN(C)c1ncnc(Nc2cc(Cl)c([C@@H](C#N)c3ccc(Cl)cc3)cc2C)c1N

>  <canonical_smi>  (126) 
CCCCN(C)c1ncnc(Nc2cc(Cl)c([C@@H](C#N)c3ccc(Cl)cc3)cc2C)c1N

>  <Set>  (126) 
G2 inactive

>  <Set_type>  (126) 
Test

>  <MW>  (126) 
469.42

>  <HBD>  (126) 
2

>  <HBA>  (126) 
6

>  <NRB>  (126) 
8

>  <NR>  (126) 
3

>  <NAR>  (126) 
3

>  <PSA>  (126) 
90.86

>  <Standard Type>  (126) 
nan

>  <Standard Relation>  (126) 
nan

>  <Standard Units>  (126) 
nan

>  <Standard Value>  (126) 
nan

>  <Assay ChEMBL ID>  (126) 
nan

>  <Assay Description>  (126) 
nan

>  <BAO Label>  (126) 
nan

$$$$

     RDKit          2D

 23 25  0  0  0  0  0  0  0  0999 V2000
    2.5981   -6.6073    0.0000 N   0  0  0  0  0  0  0  0  0  0  0  0
    1.2990   -5.8573    0.0000 C   0  0  0  0  0  0  0  0  0  0  0  0
   -0.0000   -5.1073    0.0000 C   0  0  0  0  0  0  0  0  0  0  0  0
   -1.2990   -5.8573    0.0000 C   0  0  0  0  0  0  0  0  0  0  0  0
   -2.5981   -5.1073    0.0000 C   0  0  0  0  0  0  0  0  0  0  0  0
   -3.8971   -5.8573    0.0000 C   0  0  0  0  0  0  0  0  0  0  0  0
   -5.1962   -5.1073    0.0000 C   0  0  0  0  0  0  0  0  0  0  0  0
   -6.5665   -5.7174    0.0000 C   0  0  0  0  0  0  0  0  0  0  0  0
   -7.5702   -4.6027    0.0000 C   0  0  0  0  0  0  0  0  0  0  0  0
   -6.8202   -3.3037    0.0000 C   0  0  0  0  0  0  0  0  0  0  0  0
   -7.4303   -1.9333    0.0000 N   0  0  0  0  0  4  0  0  0  0  0  0
   -8.9221   -1.7765    0.0000 O   0  0  0  0  0  0  0  0  0  0  0  0
   -6.5486   -0.7198    0.0000 O   0  0  0  0  0  1  0  0  0  0  0  0
   -5.3529   -3.6155    0.0000 O   0  0  0  0  0  0  0  0  0  0  0  0
   -0.0000   -3.6073    0.0000 C   0  0  0  0  0  0  0  0  0  0  0  0
    1.2135   -2.7256    0.0000 N   0  0  0  0  0  0  0  0  0  0  0  0
    0.7500   -1.2990    0.0000 C   0  0  0  0  0  0  0  0  0  0  0  0
    1.5000    0.0000    0.0000 C   0  0  0  0  0  0  0  0  0  0  0  0
    0.7500    1.2990    0.0000 C   0  0  0  0  0  0  0  0  0  0  0  0
   -0.7500    1.2990    0.0000 C   0  0  0  0  0  0  0  0  0  0  0  0
   -1.5000    0.0000    0.0000 C   0  0  0  0  0  0  0  0  0  0  0  0
   -0.7500   -1.2990    0.0000 C   0  0  0  0  0  0  0  0  0  0  0  0
   -1.2135   -2.7256    0.0000 N   0  0  0  0  0  0  0  0  0  0  0  0
  1  2  3  0
  2  3  1  0
  3  4  2  0
  4  5  1  0
  5  6  2  0
  6  7  1  0
  7  8  2  0
  8  9  1  0
  9 10  2  0
 10 11  1  0
 11 12  2  0
 11 13  1  0
 10 14  1  0
  3 15  1  0
 15 16  2  0
 16 17  1  0
 17 18  2  0
 18 19  1  0
 19 20  2  0
 20 21  1  0
 21 22  2  0
 22 23  1  0
 14  7  1  0
 23 15  1  0
 22 17  1  0
M  CHG  2  11   1  13  -1
M  END
>  <Compound_ID>  (127) 
C05908749

>  <Active>  (127) 
0

>  <Smiles>  (127) 
N#C/C(=C/C=C/c1ccc([N+](=O)[O-])o1)c1nc2ccccc2[nH]1

>  <canonical_smi>  (127) 
N#C/C(=C/C=C/c1ccc([N+](=O)[O-])o1)c1nc2ccccc2[nH]1

>  <Set>  (127) 
G2 inactive

>  <Set_type>  (127) 
Test

>  <MW>  (127) 
306.28

>  <HBD>  (127) 
1

>  <HBA>  (127) 
5

>  <NRB>  (127) 
4

>  <NR>  (127) 
3

>  <NAR>  (127) 
3

>  <PSA>  (127) 
108.75

>  <Standard Type>  (127) 
nan

>  <Standard Relation>  (127) 
nan

>  <Standard Units>  (127) 
nan

>  <Standard Value>  (127) 
nan

>  <Assay ChEMBL ID>  (127) 
nan

>  <Assay Description>  (127) 
nan

>  <BAO Label>  (127) 
nan

$$$$

     RDKit          2D

 21 24  0  0  0  0  0  0  0  0999 V2000
    5.2500   -3.8971    0.0000 O   0  0  0  0  0  0  0  0  0  0  0  0
    4.5000   -5.1962    0.0000 C   0  0  0  0  0  0  0  0  0  0  0  0
    5.2500   -6.4952    0.0000 C   0  0  0  0  0  0  0  0  0  0  0  0
    6.7500   -6.4952    0.0000 Cl  0  0  0  0  0  0  0  0  0  0  0  0
    4.5000   -7.7942    0.0000 C   0  0  0  0  0  0  0  0  0  0  0  0
    3.0000   -7.7942    0.0000 C   0  0  0  0  0  0  0  0  0  0  0  0
    2.2500   -9.0933    0.0000 Cl  0  0  0  0  0  0  0  0  0  0  0  0
    2.2500   -6.4952    0.0000 C   0  0  0  0  0  0  0  0  0  0  0  0
    3.0000   -5.1962    0.0000 C   0  0  0  0  0  0  0  0  0  0  0  0
    2.2500   -3.8971    0.0000 C   0  0  0  0  0  0  0  0  0  0  0  0
    3.0000   -2.5981    0.0000 N   0  0  0  0  0  4  0  0  0  0  0  0
    2.2500   -1.2990    0.0000 C   0  0  0  0  0  0  0  0  0  0  0  0
    0.7500   -1.2990    0.0000 C   0  0  0  0  0  0  0  0  0  0  0  0
    1.5000    0.0000    0.0000 C   0  0  0  0  0  0  0  0  0  0  0  0
    0.7500    1.2990    0.0000 C   0  0  0  0  0  0  0  0  0  0  0  0
   -0.7500    1.2990    0.0000 C   0  0  0  0  0  0  0  0  0  0  0  0
   -1.5000    0.0000    0.0000 C   0  0  0  0  0  0  0  0  0  0  0  0
   -0.7500   -1.2990    0.0000 C   0  0  0  0  0  0  0  0  0  0  0  0
    1.7010   -0.7500    0.0000 C   0  0  0  0  0  0  0  0  0  0  0  0
    3.0000   -0.0000    0.0000 C   0  0  0  0  0  0  0  0  0  0  0  0
    2.2500    1.2990    0.0000 C   0  0  0  0  0  0  0  0  0  0  0  0
  1  2  1  0
  2  3  2  0
  3  4  1  0
  3  5  1  0
  5  6  2  0
  6  7  1  0
  6  8  1  0
  8  9  2  0
  9 10  1  0
 10 11  1  0
 11 12  1  0
 12 13  1  0
 13 14  1  0
 14 15  1  0
 15 16  1  0
 16 17  1  0
 17 18  1  0
 17 19  1  0
 19 20  1  0
 20 21  1  0
  9  2  1  0
 20 12  1  0
 18 13  1  0
 21 15  1  0
M  CHG  1  11   1
M  END
>  <Compound_ID>  (128) 
C37067634

>  <Active>  (128) 
0

>  <Smiles>  (128) 
Oc1c(Cl)cc(Cl)cc1C[NH2+]C1C2CC3CC(C2)CC1C3

>  <canonical_smi>  (128) 
Oc1c(Cl)cc(Cl)cc1C[NH2+]C1C2CC3CC(C2)CC1C3

>  <Set>  (128) 
G2 inactive

>  <Set_type>  (128) 
Test

>  <MW>  (128) 
327.27

>  <HBD>  (128) 
2

>  <HBA>  (128) 
1

>  <NRB>  (128) 
3

>  <NR>  (128) 
5

>  <NAR>  (128) 
1

>  <PSA>  (128) 
36.84

>  <Standard Type>  (128) 
nan

>  <Standard Relation>  (128) 
nan

>  <Standard Units>  (128) 
nan

>  <Standard Value>  (128) 
nan

>  <Assay ChEMBL ID>  (128) 
nan

>  <Assay Description>  (128) 
nan

>  <BAO Label>  (128) 
nan

$$$$

     RDKit          2D

 31 34  0  0  0  0  0  0  0  0999 V2000
    0.7500  -11.6913    0.0000 C   0  0  0  0  0  0  0  0  0  0  0  0
    1.5000  -10.3923    0.0000 C   0  0  0  0  0  0  0  0  0  0  0  0
    0.7500   -9.0933    0.0000 C   0  0  0  0  0  0  0  0  0  0  0  0
    1.5000   -7.7942    0.0000 C   0  0  0  0  0  0  0  0  0  0  0  0
    3.0000   -7.7942    0.0000 C   0  0  0  0  0  0  0  0  0  0  0  0
    3.7500   -6.4952    0.0000 C   0  0  0  0  0  0  0  0  0  0  0  0
    3.0000   -5.1962    0.0000 O   0  0  0  0  0  0  0  0  0  0  0  0
    3.7500   -3.8971    0.0000 C   0  0  0  0  0  0  0  0  0  0  0  0
    5.2500   -3.8971    0.0000 C   0  0  0  0  0  0  0  0  0  0  0  0
    6.0000   -2.5981    0.0000 C   0  0  0  0  0  0  0  0  0  0  0  0
    5.2500   -1.2990    0.0000 C   0  0  0  0  0  0  0  0  0  0  0  0
    3.7500   -1.2990    0.0000 C   0  0  0  0  0  0  0  0  0  0  0  0
    3.0000   -2.5981    0.0000 C   0  0  0  0  0  0  0  0  0  0  0  0
    1.5000   -2.5981    0.0000 C   0  0  0  0  0  0  0  0  0  0  0  0
    0.7500   -3.8971    0.0000 C   0  0  0  0  0  0  0  0  0  0  0  0
    1.5000   -5.1962    0.0000 C   0  0  0  0  0  0  0  0  0  0  0  0
    2.2500   -6.4952    0.0000 N   0  0  0  0  0  0  0  0  0  0  0  0
   -0.7500   -3.8971    0.0000 C   0  0  0  0  0  0  0  0  0  0  0  0
   -1.5000   -5.1962    0.0000 N   0  0  0  0  0  0  0  0  0  0  0  0
   -1.5000   -2.5981    0.0000 O   0  0  0  0  0  0  0  0  0  0  0  0
   -0.7500   -1.2990    0.0000 C   0  0  0  0  0  0  0  0  0  0  0  0
    0.7500   -1.2990    0.0000 C   0  0  0  0  0  0  0  0  0  0  0  0
    1.5000    0.0000    0.0000 C   0  0  0  0  0  0  0  0  0  0  0  0
    3.0000    0.0000    0.0000 O   0  0  0  0  0  0  0  0  0  0  0  0
    0.7500    1.2990    0.0000 C   0  0  0  0  0  0  0  0  0  0  0  0
   -0.7500    1.2990    0.0000 C   0  0  0  0  0  0  0  0  0  0  0  0
   -2.1595    1.8121    0.0000 C   0  0  0  0  0  0  0  0  0  0  0  0
   -0.4895    2.7762    0.0000 C   0  0  0  0  0  0  0  0  0  0  0  0
   -1.5000    0.0000    0.0000 C   0  0  0  0  0  0  0  0  0  0  0  0
    3.7500   -9.0933    0.0000 C   0  0  0  0  0  0  0  0  0  0  0  0
    3.0000  -10.3923    0.0000 C   0  0  0  0  0  0  0  0  0  0  0  0
  1  2  1  0
  2  3  2  0
  3  4  1  0
  4  5  2  0
  5  6  1  0
  6  7  1  0
  7  8  1  0
  8  9  2  0
  9 10  1  0
 10 11  2  0
 11 12  1  0
 12 13  2  0
 14 13  1  1
 14 15  1  0
 15 16  1  0
 16 17  3  0
 15 18  2  0
 18 19  1  0
 18 20  1  0
 20 21  1  0
 21 22  2  0
 22 23  1  0
 23 24  2  0
 23 25  1  0
 25 26  1  0
 26 27  1  0
 26 28  1  0
 26 29  1  0
  5 30  1  0
 30 31  2  0
 31  2  1  0
 13  8  1  0
 22 14  1  0
 29 21  1  0
M  END
>  <Compound_ID>  (129) 
C00643830

>  <Active>  (129) 
0

>  <Smiles>  (129) 
Cc1ccc(COc2ccccc2[C@H]2C(C#N)=C(N)OC3=C2C(=O)CC(C)(C)C3)cc1

>  <canonical_smi>  (129) 
Cc1ccc(COc2ccccc2[C@H]2C(C#N)=C(N)OC3=C2C(=O)CC(C)(C)C3)cc1

>  <Set>  (129) 
G2 inactive

>  <Set_type>  (129) 
Test

>  <MW>  (129) 
414.51

>  <HBD>  (129) 
1

>  <HBA>  (129) 
5

>  <NRB>  (129) 
4

>  <NR>  (129) 
4

>  <NAR>  (129) 
2

>  <PSA>  (129) 
85.34

>  <Standard Type>  (129) 
nan

>  <Standard Relation>  (129) 
nan

>  <Standard Units>  (129) 
nan

>  <Standard Value>  (129) 
nan

>  <Assay ChEMBL ID>  (129) 
nan

>  <Assay Description>  (129) 
nan

>  <BAO Label>  (129) 
nan

$$$$

     RDKit          2D

 25 27  0  0  0  0  0  0  0  0999 V2000
   -5.2500   -6.4952    0.0000 C   0  0  0  0  0  0  0  0  0  0  0  0
   -6.0000   -5.1962    0.0000 C   0  0  0  0  0  0  0  0  0  0  0  0
   -7.5000   -5.1962    0.0000 C   0  0  0  0  0  0  0  0  0  0  0  0
   -8.2500   -6.4952    0.0000 Cl  0  0  0  0  0  0  0  0  0  0  0  0
   -8.2500   -3.8971    0.0000 C   0  0  0  0  0  0  0  0  0  0  0  0
   -7.5000   -2.5981    0.0000 C   0  0  0  0  0  0  0  0  0  0  0  0
   -8.2500   -1.2990    0.0000 S   0  0  0  0  0  0  0  0  0  0  0  0
   -6.9510   -0.5490    0.0000 O   0  0  0  0  0  0  0  0  0  0  0  0
   -9.5490   -2.0490    0.0000 O   0  0  0  0  0  0  0  0  0  0  0  0
   -9.0000   -0.0000    0.0000 O   0  0  0  0  0  1  0  0  0  0  0  0
   -6.0000   -2.5981    0.0000 C   0  0  0  0  0  0  0  0  0  0  0  0
   -5.2500   -3.8971    0.0000 C   0  0  0  0  0  0  0  0  0  0  0  0
   -3.7500   -3.8971    0.0000 N   0  0  0  0  0  0  0  0  0  0  0  0
   -3.0000   -2.5981    0.0000 N   0  0  0  0  0  0  0  0  0  0  0  0
   -1.5000   -2.5981    0.0000 C   0  0  0  0  0  0  0  0  0  0  0  0
   -0.7500   -3.8971    0.0000 C   0  0  0  0  0  0  0  0  0  0  0  0
    0.7500   -3.8971    0.0000 C   0  0  0  0  0  0  0  0  0  0  0  0
    1.5000   -2.5981    0.0000 C   0  0  0  0  0  0  0  0  0  0  0  0
    3.0000   -2.5981    0.0000 O   0  0  0  0  0  0  0  0  0  0  0  0
    0.7500   -1.2990    0.0000 C   0  0  0  0  0  0  0  0  0  0  0  0
    1.5000    0.0000    0.0000 C   0  0  0  0  0  0  0  0  0  0  0  0
    0.7500    1.2990    0.0000 C   0  0  0  0  0  0  0  0  0  0  0  0
   -0.7500    1.2990    0.0000 C   0  0  0  0  0  0  0  0  0  0  0  0
   -1.5000    0.0000    0.0000 C   0  0  0  0  0  0  0  0  0  0  0  0
   -0.7500   -1.2990    0.0000 C   0  0  0  0  0  0  0  0  0  0  0  0
  1  2  1  0
  2  3  2  0
  3  4  1  0
  3  5  1  0
  5  6  2  0
  6  7  1  0
  7  8  2  0
  7  9  2  0
  7 10  1  0
  6 11  1  0
 11 12  2  0
 12 13  1  0
 13 14  2  0
 14 15  1  0
 15 16  2  0
 16 17  1  0
 17 18  2  0
 18 19  1  0
 18 20  1  0
 20 21  2  0
 21 22  1  0
 22 23  2  0
 23 24  1  0
 24 25  2  0
 12  2  1  0
 25 15  1  0
 25 20  1  0
M  CHG  1  10  -1
M  END
>  <Compound_ID>  (130) 
C04887193

>  <Active>  (130) 
0

>  <Smiles>  (130) 
Cc1c(Cl)cc(S(=O)(=O)[O-])cc1/N=N/c1ccc(O)c2ccccc12

>  <canonical_smi>  (130) 
Cc1c(Cl)cc(S(=O)(=O)[O-])cc1/N=N/c1ccc(O)c2ccccc12

>  <Set>  (130) 
G2 inactive

>  <Set_type>  (130) 
Test

>  <MW>  (130) 
375.81

>  <HBD>  (130) 
1

>  <HBA>  (130) 
4

>  <NRB>  (130) 
3

>  <NR>  (130) 
3

>  <NAR>  (130) 
3

>  <PSA>  (130) 
102.15

>  <Standard Type>  (130) 
nan

>  <Standard Relation>  (130) 
nan

>  <Standard Units>  (130) 
nan

>  <Standard Value>  (130) 
nan

>  <Assay ChEMBL ID>  (130) 
nan

>  <Assay Description>  (130) 
nan

>  <BAO Label>  (130) 
nan

$$$$

     RDKit          2D

 26 28  0  0  0  0  0  0  0  0999 V2000
    5.7760   -2.5981    0.0000 C   0  0  0  0  0  0  0  0  0  0  0  0
    5.0260   -1.2990    0.0000 C   0  0  0  0  0  0  0  0  0  0  0  0
    5.7760    0.0000    0.0000 O   0  0  0  0  0  0  0  0  0  0  0  0
    3.5260   -1.2990    0.0000 C   0  0  0  0  0  0  0  0  0  0  0  0
    2.7760    0.0000    0.0000 N   0  0  0  0  0  0  0  0  0  0  0  0
    1.2760    0.0000    0.0000 C   0  0  0  0  0  0  0  0  0  0  0  0
    0.3943    1.2135    0.0000 N   0  0  0  0  0  0  0  0  0  0  0  0
   -1.0323    0.7500    0.0000 C   0  0  0  0  0  0  0  0  0  0  0  0
   -1.0323   -0.7500    0.0000 C   0  0  0  0  0  0  0  0  0  0  0  0
   -2.3313   -1.5000    0.0000 C   0  0  0  0  0  0  0  0  0  0  0  0
   -2.3313   -3.0000    0.0000 O   0  0  0  0  0  0  0  0  0  0  0  0
   -3.6304   -0.7500    0.0000 N   0  0  0  0  0  0  0  0  0  0  0  0
   -4.9294   -1.5000    0.0000 C   0  0  0  0  0  0  0  0  0  0  0  0
   -3.6304    0.7500    0.0000 C   0  0  0  0  0  0  0  0  0  0  0  0
   -4.9294    1.5000    0.0000 O   0  0  0  0  0  0  0  0  0  0  0  0
   -2.3313    1.5000    0.0000 N   0  0  0  0  0  0  0  0  0  0  0  0
   -2.3313    3.0000    0.0000 C   0  0  0  0  0  0  0  0  0  0  0  0
    0.3943   -1.2135    0.0000 N   0  0  0  0  0  0  0  0  0  0  0  0
    0.8578   -2.6401    0.0000 C   0  0  0  0  0  0  0  0  0  0  0  0
   -0.1459   -3.7548    0.0000 C   0  0  0  0  0  0  0  0  0  0  0  0
   -1.6131   -3.4430    0.0000 C   0  0  0  0  0  0  0  0  0  0  0  0
   -2.6168   -4.5577    0.0000 C   0  0  0  0  0  0  0  0  0  0  0  0
   -2.1533   -5.9843    0.0000 C   0  0  0  0  0  0  0  0  0  0  0  0
   -0.6860   -6.2961    0.0000 C   0  0  0  0  0  0  0  0  0  0  0  0
   -0.2225   -7.7227    0.0000 Br  0  0  0  0  0  0  0  0  0  0  0  0
    0.3177   -5.1814    0.0000 C   0  0  0  0  0  0  0  0  0  0  0  0
  2  1  1  6
  2  3  1  0
  2  4  1  0
  4  5  1  0
  5  6  1  0
  6  7  2  0
  7  8  1  0
  8  9  2  0
  9 10  1  0
 10 11  2  0
 10 12  1  0
 12 13  1  0
 12 14  1  0
 14 15  2  0
 14 16  1  0
 16 17  1  0
  9 18  1  0
 18 19  1  0
 19 20  1  0
 20 21  2  0
 21 22  1  0
 22 23  2  0
 23 24  1  0
 24 25  1  0
 24 26  2  0
 18  6  1  0
 26 20  1  0
 16  8  1  0
M  END
>  <Compound_ID>  (131) 
C00838172

>  <Active>  (131) 
0

>  <Smiles>  (131) 
C[C@@H](O)CNc1nc2c(c(=O)n(C)c(=O)n2C)n1Cc1cccc(Br)c1

>  <canonical_smi>  (131) 
C[C@@H](O)CNc1nc2c(c(=O)n(C)c(=O)n2C)n1Cc1cccc(Br)c1

>  <Set>  (131) 
G2 inactive

>  <Set_type>  (131) 
Test

>  <MW>  (131) 
422.28

>  <HBD>  (131) 
2

>  <HBA>  (131) 
5

>  <NRB>  (131) 
5

>  <NR>  (131) 
3

>  <NAR>  (131) 
3

>  <PSA>  (131) 
94.08

>  <Standard Type>  (131) 
nan

>  <Standard Relation>  (131) 
nan

>  <Standard Units>  (131) 
nan

>  <Standard Value>  (131) 
nan

>  <Assay ChEMBL ID>  (131) 
nan

>  <Assay Description>  (131) 
nan

>  <BAO Label>  (131) 
nan

$$$$

     RDKit          2D

 25 29  0  0  0  0  0  0  0  0999 V2000
    0.4293  -10.8740    0.0000 C   0  0  0  0  0  0  0  0  0  0  0  0
    1.1793   -9.5750    0.0000 C   0  0  0  0  0  0  0  0  0  0  0  0
    2.6711   -9.4182    0.0000 C   0  0  0  0  0  0  0  0  0  0  0  0
    2.9829   -7.9510    0.0000 C   0  0  0  0  0  0  0  0  0  0  0  0
    4.3533   -7.3409    0.0000 C   0  0  0  0  0  0  0  0  0  0  0  0
    1.6839   -7.2010    0.0000 N   0  0  0  0  0  0  0  0  0  0  0  0
    1.5271   -5.7092    0.0000 C   0  0  0  0  0  0  0  0  0  0  0  0
    0.1568   -5.0991    0.0000 N   0  0  0  0  0  0  0  0  0  0  0  0
   -0.0000   -3.6073    0.0000 C   0  0  0  0  0  0  0  0  0  0  0  0
   -1.2135   -2.7256    0.0000 S   0  0  0  0  0  0  0  0  0  0  0  0
   -0.7500   -1.2990    0.0000 C   0  0  0  0  0  0  0  0  0  0  0  0
    0.7500   -1.2990    0.0000 C   0  0  0  0  0  0  0  0  0  0  0  0
    1.2135   -2.7256    0.0000 C   0  0  0  0  0  0  0  0  0  0  0  0
    2.5838   -3.3357    0.0000 C   0  0  0  0  0  0  0  0  0  0  0  0
    3.7974   -2.4540    0.0000 N   0  0  0  0  0  0  0  0  0  0  0  0
    3.7974   -0.9540    0.0000 C   0  0  0  0  0  0  0  0  0  0  0  0
    5.2240   -0.4905    0.0000 C   0  0  0  0  0  0  0  0  0  0  0  0
    6.1056   -1.7040    0.0000 C   0  0  0  0  0  0  0  0  0  0  0  0
    5.2240   -2.9176    0.0000 C   0  0  0  0  0  0  0  0  0  0  0  0
    2.7406   -4.8275    0.0000 N   0  0  0  0  0  0  0  0  0  0  0  0
    1.5000    0.0000    0.0000 C   0  0  0  0  0  0  0  0  0  0  0  0
    0.7500    1.2990    0.0000 C   0  0  0  0  0  0  0  0  0  0  0  0
   -0.7500    1.2990    0.0000 C   0  0  0  0  0  0  0  0  0  0  0  0
   -1.5000    0.0000    0.0000 C   0  0  0  0  0  0  0  0  0  0  0  0
    0.5692   -8.2047    0.0000 N   0  0  0  0  0  0  0  0  0  0  0  0
  1  2  1  0
  2  3  1  0
  3  4  2  0
  4  5  1  0
  4  6  1  0
  6  7  1  0
  7  8  2  0
  8  9  1  0
  9 10  1  0
 10 11  1  0
 11 12  2  0
 12 13  1  0
 13 14  1  0
 14 15  1  6
 15 16  1  0
 16 17  1  0
 17 18  1  0
 18 19  1  0
 14 20  1  0
 12 21  1  0
 21 22  1  0
 22 23  1  0
 23 24  1  0
  6 25  1  0
 25  2  2  0
 20  7  1  0
 13  9  2  0
 19 15  1  0
 24 11  1  0
M  END
>  <Compound_ID>  (132) 
C28286517

>  <Active>  (132) 
0

>  <Smiles>  (132) 
Cc1cc(C)n(C2=Nc3sc4c(c3[C@H](N3CCCC3)N2)CCCC4)n1

>  <canonical_smi>  (132) 
Cc1cc(C)n(C2=Nc3sc4c(c3[C@H](N3CCCC3)N2)CCCC4)n1

>  <Set>  (132) 
G2 inactive

>  <Set_type>  (132) 
Test

>  <MW>  (132) 
355.51

>  <HBD>  (132) 
1

>  <HBA>  (132) 
3

>  <NRB>  (132) 
1

>  <NR>  (132) 
5

>  <NAR>  (132) 
2

>  <PSA>  (132) 
45.45

>  <Standard Type>  (132) 
nan

>  <Standard Relation>  (132) 
nan

>  <Standard Units>  (132) 
nan

>  <Standard Value>  (132) 
nan

>  <Assay ChEMBL ID>  (132) 
nan

>  <Assay Description>  (132) 
nan

>  <BAO Label>  (132) 
nan

$$$$

     RDKit          2D

 36 41  0  0  0  0  0  0  0  0999 V2000
    3.0613   -7.3456    0.0000 O   0  0  0  0  0  0  0  0  0  0  0  0
    1.8478   -6.4639    0.0000 C   0  0  0  0  0  0  0  0  0  0  0  0
    0.4775   -7.0740    0.0000 N   0  0  0  0  0  0  0  0  0  0  0  0
    0.3207   -8.5658    0.0000 C   0  0  0  0  0  0  0  0  0  0  0  0
    1.4354   -9.5695    0.0000 N   0  0  0  0  0  0  0  0  0  0  0  0
    0.8253  -10.9398    0.0000 C   0  0  0  0  0  0  0  0  0  0  0  0
    1.5753  -12.2388    0.0000 C   0  0  0  0  0  0  0  0  0  0  0  0
    0.8253  -13.5379    0.0000 C   0  0  0  0  0  0  0  0  0  0  0  0
    1.5753  -14.8369    0.0000 C   0  0  0  0  0  0  0  0  0  0  0  0
    3.0753  -14.8369    0.0000 C   0  0  0  0  0  0  0  0  0  0  0  0
    3.8253  -16.1359    0.0000 O   0  0  0  0  0  0  0  0  0  0  0  0
    3.0753  -17.4350    0.0000 C   0  0  0  0  0  0  0  0  0  0  0  0
    3.8253  -18.7340    0.0000 F   0  0  0  0  0  0  0  0  0  0  0  0
    1.5753  -17.4350    0.0000 F   0  0  0  0  0  0  0  0  0  0  0  0
    3.8253  -13.5379    0.0000 C   0  0  0  0  0  0  0  0  0  0  0  0
    3.0753  -12.2388    0.0000 C   0  0  0  0  0  0  0  0  0  0  0  0
   -0.6665  -10.7830    0.0000 C   0  0  0  0  0  0  0  0  0  0  0  0
   -0.9783   -9.3158    0.0000 S   0  0  0  0  0  0  0  0  0  0  0  0
    2.0046   -4.9721    0.0000 C   0  0  0  0  0  0  0  0  0  0  0  0
    0.8899   -3.9684    0.0000 N   0  0  0  0  0  0  0  0  0  0  0  0
    1.5000   -2.5981    0.0000 N   0  0  0  0  0  0  0  0  0  0  0  0
    0.7500   -1.2990    0.0000 C   0  0  0  0  0  0  0  0  0  0  0  0
    1.5000    0.0000    0.0000 C   0  0  0  0  0  0  0  0  0  0  0  0
    0.7500    1.2990    0.0000 C   0  0  0  0  0  0  0  0  0  0  0  0
   -0.7500    1.2990    0.0000 C   0  0  0  0  0  0  0  0  0  0  0  0
   -1.5000    0.0000    0.0000 C   0  0  0  0  0  0  0  0  0  0  0  0
    1.7010   -0.7500    0.0000 C   0  0  0  0  0  0  0  0  0  0  0  0
    3.0000   -0.0000    0.0000 C   0  0  0  0  0  0  0  0  0  0  0  0
    2.2500    1.2990    0.0000 C   0  0  0  0  0  0  0  0  0  0  0  0
    2.2500   -1.2990    0.0000 C   0  0  0  0  0  0  0  0  0  0  0  0
   -0.7500   -1.2990    0.0000 C   0  0  0  0  0  0  0  0  0  0  0  0
    2.9918   -2.7549    0.0000 C   0  0  0  0  0  0  0  0  0  0  0  0
    3.3037   -4.2221    0.0000 C   0  0  0  0  0  0  0  0  0  0  0  0
    4.6740   -4.8322    0.0000 N   0  0  0  0  0  4  0  0  0  0  0  0
    4.8308   -6.3240    0.0000 O   0  0  0  0  0  0  0  0  0  0  0  0
    5.8875   -3.9505    0.0000 O   0  0  0  0  0  1  0  0  0  0  0  0
  1  2  2  0
  2  3  1  0
  3  4  1  0
  4  5  2  0
  5  6  1  0
  6  7  1  0
  7  8  2  0
  8  9  1  0
  9 10  2  0
 10 11  1  0
 11 12  1  0
 12 13  1  0
 12 14  1  0
 10 15  1  0
 15 16  2  0
  6 17  2  0
 17 18  1  0
  2 19  1  0
 19 20  2  0
 20 21  1  0
 21 22  1  0
 22 23  1  0
 23 24  1  0
 24 25  1  0
 25 26  1  0
 26 27  1  0
 27 28  1  0
 28 29  1  0
 28 30  1  0
 26 31  1  0
 21 32  1  0
 32 33  2  0
 33 34  1  0
 34 35  2  0
 34 36  1  0
 18  4  1  0
 33 19  1  0
 16  7  1  0
 30 22  1  0
 31 22  1  0
 29 24  1  0
M  CHG  2  34   1  36  -1
M  END
>  <Compound_ID>  (133) 
C13959458

>  <Active>  (133) 
0

>  <Smiles>  (133) 
O=C(Nc1nc(-c2ccc(OC(F)F)cc2)cs1)c1nn(C23CC4CC(CC(C4)C2)C3)cc1[N+](=O)[O-]

>  <canonical_smi>  (133) 
O=C(Nc1nc(-c2ccc(OC(F)F)cc2)cs1)c1nn(C23CC4CC(CC(C4)C2)C3)cc1[N+](=O)[O-]

>  <Set>  (133) 
G2 inactive

>  <Set_type>  (133) 
Test

>  <MW>  (133) 
515.54

>  <HBD>  (133) 
1

>  <HBA>  (133) 
6

>  <NRB>  (133) 
7

>  <NR>  (133) 
7

>  <NAR>  (133) 
3

>  <PSA>  (133) 
112.18

>  <Standard Type>  (133) 
nan

>  <Standard Relation>  (133) 
nan

>  <Standard Units>  (133) 
nan

>  <Standard Value>  (133) 
nan

>  <Assay ChEMBL ID>  (133) 
nan

>  <Assay Description>  (133) 
nan

>  <BAO Label>  (133) 
nan

$$$$

     RDKit          2D

 29 32  0  0  0  0  0  0  0  0999 V2000
    5.4627   -4.5501    0.0000 C   0  0  0  0  0  0  0  0  0  0  0  0
    3.9955   -4.2382    0.0000 C   0  0  0  0  0  0  0  0  0  0  0  0
    2.9918   -5.3529    0.0000 N   0  0  0  0  0  0  0  0  0  0  0  0
    1.5000   -5.1962    0.0000 C   0  0  0  0  0  0  0  0  0  0  0  0
    0.7500   -3.8971    0.0000 S   0  0  0  0  0  0  0  0  0  0  0  0
    1.5000   -2.5981    0.0000 C   0  0  0  0  0  0  0  0  0  0  0  0
    0.7500   -1.2990    0.0000 C   0  0  0  0  0  0  0  0  0  0  0  0
    1.5000    0.0000    0.0000 N   0  0  0  0  0  0  0  0  0  0  0  0
    0.7500    1.2990    0.0000 C   0  0  0  0  0  0  0  0  0  0  0  0
    1.5000    2.5981    0.0000 O   0  0  0  0  0  0  0  0  0  0  0  0
   -0.7500    1.2990    0.0000 C   0  0  0  0  0  0  0  0  0  0  0  0
   -1.7537    2.4138    0.0000 C   0  0  0  0  0  0  0  0  0  0  0  0
   -1.4418    3.8810    0.0000 C   0  0  0  0  0  0  0  0  0  0  0  0
   -3.1240    1.8037    0.0000 C   0  0  0  0  0  0  0  0  0  0  0  0
   -4.4231    2.5537    0.0000 C   0  0  0  0  0  0  0  0  0  0  0  0
   -4.4231    4.0537    0.0000 O   0  0  0  0  0  0  0  0  0  0  0  0
   -5.7221    1.8037    0.0000 O   0  0  0  0  0  1  0  0  0  0  0  0
   -2.9672    0.3119    0.0000 S   0  0  0  0  0  0  0  0  0  0  0  0
   -1.5000    0.0000    0.0000 C   0  0  0  0  0  0  0  0  0  0  0  0
   -0.7500   -1.2990    0.0000 N   0  0  0  0  0  0  0  0  0  0  0  0
    0.8899   -6.5665    0.0000 N   0  0  0  0  0  0  0  0  0  0  0  0
    2.0046   -7.5702    0.0000 N   0  0  0  0  0  0  0  0  0  0  0  0
    3.3037   -6.8202    0.0000 C   0  0  0  0  0  0  0  0  0  0  0  0
    4.6740   -7.4303    0.0000 C   0  0  0  0  0  0  0  0  0  0  0  0
    5.9730   -6.6803    0.0000 C   0  0  0  0  0  0  0  0  0  0  0  0
    7.0877   -7.6840    0.0000 C   0  0  0  0  0  0  0  0  0  0  0  0
    6.4776   -9.0543    0.0000 O   0  0  0  0  0  0  0  0  0  0  0  0
    4.9858   -8.8975    0.0000 C   0  0  0  0  0  0  0  0  0  0  0  0
    3.9821  -10.0122    0.0000 C   0  0  0  0  0  0  0  0  0  0  0  0
  1  2  1  0
  2  3  1  0
  3  4  1  0
  4  5  1  0
  5  6  1  0
  6  7  1  0
  7  8  2  0
  8  9  1  0
  9 10  2  0
  9 11  1  0
 11 12  2  0
 12 13  1  0
 12 14  1  0
 14 15  1  6
 15 16  2  0
 15 17  1  0
 14 18  1  0
 18 19  1  0
 19 20  2  0
  4 21  2  0
 21 22  1  0
 22 23  2  0
 23 24  1  0
 24 25  1  0
 25 26  2  0
 26 27  1  0
 27 28  1  0
 28 29  1  0
 23  3  1  0
 28 24  2  0
 20  7  1  0
 19 11  1  0
M  CHG  1  17  -1
M  END
>  <Compound_ID>  (134) 
C39685282

>  <Active>  (134) 
0

>  <Smiles>  (134) 
CCn1c(SCC2=NC(=O)C3=C(C)[C@@H](C(=O)[O-])SC3=N2)nnc1-c1ccoc1C

>  <canonical_smi>  (134) 
CCn1c(SCC2=NC(=O)C3=C(C)[C@@H](C(=O)[O-])SC3=N2)nnc1-c1ccoc1C

>  <Set>  (134) 
G2 inactive

>  <Set_type>  (134) 
Test

>  <MW>  (134) 
430.49

>  <HBD>  (134) 
0

>  <HBA>  (134) 
8

>  <NRB>  (134) 
6

>  <NR>  (134) 
4

>  <NAR>  (134) 
2

>  <PSA>  (134) 
125.77

>  <Standard Type>  (134) 
nan

>  <Standard Relation>  (134) 
nan

>  <Standard Units>  (134) 
nan

>  <Standard Value>  (134) 
nan

>  <Assay ChEMBL ID>  (134) 
nan

>  <Assay Description>  (134) 
nan

>  <BAO Label>  (134) 
nan

$$$$

     RDKit          2D

 26 28  0  0  0  0  0  0  0  0999 V2000
   -7.5000   -7.7942    0.0000 C   0  0  0  0  0  0  0  0  0  0  0  0
   -8.2500   -6.4952    0.0000 O   0  0  0  0  0  0  0  0  0  0  0  0
   -7.5000   -5.1962    0.0000 C   0  0  0  0  0  0  0  0  0  0  0  0
   -6.0000   -5.1962    0.0000 C   0  0  0  0  0  0  0  0  0  0  0  0
   -5.2500   -3.8971    0.0000 C   0  0  0  0  0  0  0  0  0  0  0  0
   -3.7500   -3.8971    0.0000 C   0  0  0  0  0  0  0  0  0  0  0  0
   -3.0000   -2.5981    0.0000 N   0  0  0  0  0  0  0  0  0  0  0  0
   -3.7500   -1.2990    0.0000 N   0  0  0  0  0  0  0  0  0  0  0  0
   -5.2418   -1.1422    0.0000 C   0  0  0  0  0  0  0  0  0  0  0  0
   -6.2491   -1.8216    0.0000 S   0  0  0  0  0  1  0  0  0  0  0  0
   -5.5537    0.3250    0.0000 N   0  0  0  0  0  0  0  0  0  0  0  0
   -4.2546    1.0750    0.0000 N   0  0  0  0  0  0  0  0  0  0  0  0
   -3.1399    0.0713    0.0000 C   0  0  0  0  0  0  0  0  0  0  0  0
   -1.6727    0.3831    0.0000 C   0  0  0  0  0  0  0  0  0  0  0  0
   -1.2091    1.8097    0.0000 O   0  0  0  0  0  0  0  0  0  0  0  0
    0.2581    2.1216    0.0000 C   0  0  0  0  0  0  0  0  0  0  0  0
    1.2618    1.0069    0.0000 C   0  0  0  0  0  0  0  0  0  0  0  0
    2.7290    1.3188    0.0000 C   0  0  0  0  0  0  0  0  0  0  0  0
    3.1925    2.7453    0.0000 C   0  0  0  0  0  0  0  0  0  0  0  0
    2.1888    3.8601    0.0000 C   0  0  0  0  0  0  0  0  0  0  0  0
    0.7216    3.5482    0.0000 C   0  0  0  0  0  0  0  0  0  0  0  0
   -6.0000   -2.5981    0.0000 C   0  0  0  0  0  0  0  0  0  0  0  0
   -7.5000   -2.5981    0.0000 C   0  0  0  0  0  0  0  0  0  0  0  0
   -8.2500   -1.2990    0.0000 Br  0  0  0  0  0  0  0  0  0  0  0  0
   -8.2500   -3.8971    0.0000 C   0  0  0  0  0  0  0  0  0  0  0  0
   -9.7500   -3.8971    0.0000 O   0  0  0  0  0  0  0  0  0  0  0  0
  1  2  1  0
  2  3  1  0
  3  4  2  0
  4  5  1  0
  5  6  1  0
  6  7  2  0
  7  8  1  0
  8  9  1  0
  9 10  1  0
  9 11  2  0
 11 12  1  0
 12 13  2  0
 13 14  1  0
 14 15  1  0
 15 16  1  0
 16 17  2  0
 17 18  1  0
 18 19  2  0
 19 20  1  0
 20 21  2  0
  5 22  2  0
 22 23  1  0
 23 24  1  0
 23 25  2  0
 25 26  1  0
 25  3  1  0
 13  8  1  0
 21 16  1  0
M  CHG  1  10  -1
M  END
>  <Compound_ID>  (135) 
C01243475

>  <Active>  (135) 
0

>  <Smiles>  (135) 
COc1cc(/C=N\n2c([S-])nnc2COc2ccccc2)cc(Br)c1O

>  <canonical_smi>  (135) 
COc1cc(/C=N\n2c([S-])nnc2COc2ccccc2)cc(Br)c1O

>  <Set>  (135) 
G2 inactive

>  <Set_type>  (135) 
Test

>  <MW>  (135) 
434.3

>  <HBD>  (135) 
1

>  <HBA>  (135) 
6

>  <NRB>  (135) 
6

>  <NR>  (135) 
3

>  <NAR>  (135) 
3

>  <PSA>  (135) 
81.76

>  <Standard Type>  (135) 
nan

>  <Standard Relation>  (135) 
nan

>  <Standard Units>  (135) 
nan

>  <Standard Value>  (135) 
nan

>  <Assay ChEMBL ID>  (135) 
nan

>  <Assay Description>  (135) 
nan

>  <BAO Label>  (135) 
nan

$$$$

     RDKit          2D

 27 30  0  0  0  0  0  0  0  0999 V2000
   -4.8217   -7.6148    0.0000 C   0  0  0  0  0  0  0  0  0  0  0  0
   -3.3299   -7.7716    0.0000 C   0  0  0  0  0  0  0  0  0  0  0  0
   -2.4482   -6.5581    0.0000 C   0  0  0  0  0  0  0  0  0  0  0  0
   -0.9565   -6.7149    0.0000 C   0  0  0  0  0  0  0  0  0  0  0  0
   -0.3464   -8.0852    0.0000 C   0  0  0  0  0  0  0  0  0  0  0  0
    1.1454   -8.2420    0.0000 N   0  0  0  0  0  0  0  0  0  0  0  0
    1.8954   -9.5410    0.0000 N   0  0  0  0  0  0  0  0  0  0  0  0
    3.3627   -9.2292    0.0000 N   0  0  0  0  0  0  0  0  0  0  0  0
    3.5194   -7.7374    0.0000 N   0  0  0  0  0  0  0  0  0  0  0  0
    2.1491   -7.1273    0.0000 C   0  0  0  0  0  0  0  0  0  0  0  0
    1.8373   -5.6601    0.0000 S   0  0  0  0  0  0  0  0  0  0  0  0
    2.9520   -4.6564    0.0000 C   0  0  0  0  0  0  0  0  0  0  0  0
    4.3786   -5.1199    0.0000 C   0  0  0  0  0  0  0  0  0  0  0  0
    2.6401   -3.1891    0.0000 C   0  0  0  0  0  0  0  0  0  0  0  0
    3.7548   -2.1855    0.0000 O   0  0  0  0  0  0  0  0  0  0  0  0
    1.2135   -2.7256    0.0000 C   0  0  0  0  0  0  0  0  0  0  0  0
    0.7500   -1.2990    0.0000 C   0  0  0  0  0  0  0  0  0  0  0  0
    1.5000   -0.0000    0.0000 C   0  0  0  0  0  0  0  0  0  0  0  0
    0.7500    1.2990    0.0000 C   0  0  0  0  0  0  0  0  0  0  0  0
   -0.7500    1.2990    0.0000 C   0  0  0  0  0  0  0  0  0  0  0  0
   -1.5000    0.0000    0.0000 C   0  0  0  0  0  0  0  0  0  0  0  0
   -0.7500   -1.2990    0.0000 C   0  0  0  0  0  0  0  0  0  0  0  0
   -1.2135   -2.7256    0.0000 N   0  0  0  0  0  4  0  0  0  0  0  0
    0.0000   -3.6073    0.0000 C   0  0  0  0  0  0  0  0  0  0  0  0
   -1.2280   -9.2987    0.0000 C   0  0  0  0  0  0  0  0  0  0  0  0
   -0.6179  -10.6691    0.0000 C   0  0  0  0  0  0  0  0  0  0  0  0
   -2.7198   -9.1419    0.0000 C   0  0  0  0  0  0  0  0  0  0  0  0
  1  2  1  0
  2  3  2  0
  3  4  1  0
  4  5  2  0
  5  6  1  0
  6  7  1  0
  7  8  2  0
  8  9  1  0
  9 10  1  0
 10 11  1  6
 11 12  1  0
 12 13  1  6
 12 14  1  0
 14 15  2  0
 14 16  1  0
 16 17  2  0
 17 18  1  0
 18 19  2  0
 19 20  1  0
 20 21  2  0
 21 22  1  0
 22 23  2  0
 23 24  1  0
  5 25  1  0
 25 26  1  0
 25 27  2  0
 27  2  1  0
 10  6  1  0
 24 16  1  0
 22 17  1  0
M  CHG  1  23   1
M  END
>  <Compound_ID>  (136) 
C44645908

>  <Active>  (136) 
0

>  <Smiles>  (136) 
Cc1ccc(N2N=NN[C@H]2S[C@@H](C)C(=O)C2=c3ccccc3=[NH+]C2)c(C)c1

>  <canonical_smi>  (136) 
Cc1ccc(N2N=NN[C@H]2S[C@@H](C)C(=O)C2=c3ccccc3=[NH+]C2)c(C)c1

>  <Set>  (136) 
G2 inactive

>  <Set_type>  (136) 
Test

>  <MW>  (136) 
380.5

>  <HBD>  (136) 
2

>  <HBA>  (136) 
4

>  <NRB>  (136) 
5

>  <NR>  (136) 
4

>  <NAR>  (136) 
2

>  <PSA>  (136) 
71.03

>  <Standard Type>  (136) 
nan

>  <Standard Relation>  (136) 
nan

>  <Standard Units>  (136) 
nan

>  <Standard Value>  (136) 
nan

>  <Assay ChEMBL ID>  (136) 
nan

>  <Assay Description>  (136) 
nan

>  <BAO Label>  (136) 
nan

$$$$

     RDKit          2D

 27 30  0  0  0  0  0  0  0  0999 V2000
   -6.0000   -7.7942    0.0000 C   0  0  0  0  0  0  0  0  0  0  0  0
   -5.2500   -6.4952    0.0000 C   0  0  0  0  0  0  0  0  0  0  0  0
   -3.7500   -6.4952    0.0000 C   0  0  0  0  0  0  0  0  0  0  0  0
   -3.0000   -7.7942    0.0000 O   0  0  0  0  0  0  0  0  0  0  0  0
   -3.0000   -5.1962    0.0000 N   0  0  0  0  0  0  0  0  0  0  0  0
   -1.5000   -5.1962    0.0000 C   0  0  0  0  0  0  0  0  0  0  0  0
   -0.7500   -3.8971    0.0000 C   0  0  0  0  0  0  0  0  0  0  0  0
    0.7500   -3.8971    0.0000 C   0  0  0  0  0  0  0  0  0  0  0  0
    1.5000   -2.5981    0.0000 O   0  0  0  0  0  0  0  0  0  0  0  0
    0.7500   -1.2990    0.0000 C   0  0  0  0  0  0  0  0  0  0  0  0
    1.5000    0.0000    0.0000 C   0  0  0  0  0  0  0  0  0  0  0  0
    0.7500    1.2990    0.0000 C   0  0  0  0  0  0  0  0  0  0  0  0
   -0.7500    1.2990    0.0000 C   0  0  0  0  0  0  0  0  0  0  0  0
   -1.5000    0.0000    0.0000 C   0  0  0  0  0  0  0  0  0  0  0  0
   -0.7500   -1.2990    0.0000 C   0  0  0  0  0  0  0  0  0  0  0  0
   -1.5000   -2.5981    0.0000 O   0  0  0  0  0  0  0  0  0  0  0  0
   -6.0000   -5.1962    0.0000 N   0  0  0  0  0  4  0  0  0  0  0  0
   -5.2500   -3.8971    0.0000 C   0  0  0  0  0  0  0  0  0  0  0  0
   -6.0000   -2.5981    0.0000 C   0  0  0  0  0  0  0  0  0  0  0  0
   -7.5000   -2.5981    0.0000 N   0  0  0  0  0  0  0  0  0  0  0  0
   -8.2500   -1.2990    0.0000 C   0  0  0  0  0  0  0  0  0  0  0  0
   -9.7418   -1.1422    0.0000 N   0  0  0  0  0  0  0  0  0  0  0  0
  -10.0537    0.3250    0.0000 C   0  0  0  0  0  0  0  0  0  0  0  0
   -8.7546    1.0750    0.0000 C   0  0  0  0  0  0  0  0  0  0  0  0
   -7.6399    0.0713    0.0000 S   0  0  0  0  0  0  0  0  0  0  0  0
   -8.2500   -3.8971    0.0000 C   0  0  0  0  0  0  0  0  0  0  0  0
   -7.5000   -5.1962    0.0000 C   0  0  0  0  0  0  0  0  0  0  0  0
  2  1  1  1
  2  3  1  0
  3  4  2  0
  3  5  1  0
  5  6  1  0
  7  6  1  6
  7  8  1  0
  8  9  1  0
  9 10  1  0
 10 11  2  0
 11 12  1  0
 12 13  2  0
 13 14  1  0
 14 15  2  0
 15 16  1  0
  2 17  1  0
 17 18  1  0
 18 19  1  0
 19 20  1  0
 20 21  1  0
 21 22  2  0
 22 23  1  0
 23 24  2  0
 24 25  1  0
 20 26  1  0
 26 27  1  0
 16  7  1  0
 27 17  1  0
 15 10  1  0
 25 21  1  0
M  CHG  1  17   1
M  END
>  <Compound_ID>  (137) 
C28103574

>  <Active>  (137) 
0

>  <Smiles>  (137) 
C[C@H](C(=O)NC[C@H]1COc2ccccc2O1)[NH+]1CCN(c2nccs2)CC1

>  <canonical_smi>  (137) 
C[C@H](C(=O)NC[C@H]1COc2ccccc2O1)[NH+]1CCN(c2nccs2)CC1

>  <Set>  (137) 
G2 inactive

>  <Set_type>  (137) 
Test

>  <MW>  (137) 
389.5

>  <HBD>  (137) 
2

>  <HBA>  (137) 
5

>  <NRB>  (137) 
5

>  <NR>  (137) 
4

>  <NAR>  (137) 
2

>  <PSA>  (137) 
68.13

>  <Standard Type>  (137) 
nan

>  <Standard Relation>  (137) 
nan

>  <Standard Units>  (137) 
nan

>  <Standard Value>  (137) 
nan

>  <Assay ChEMBL ID>  (137) 
nan

>  <Assay Description>  (137) 
nan

>  <BAO Label>  (137) 
nan

$$$$

     RDKit          2D

 30 32  0  0  0  0  0  0  0  0999 V2000
    7.2760   -2.5981    0.0000 C   0  0  0  0  0  0  0  0  0  0  0  0
    5.7760   -2.5981    0.0000 C   0  0  0  0  0  0  0  0  0  0  0  0
    5.0260   -1.2990    0.0000 C   0  0  0  0  0  0  0  0  0  0  0  0
    3.5260   -1.2990    0.0000 C   0  0  0  0  0  0  0  0  0  0  0  0
    2.7760    0.0000    0.0000 N   0  0  0  0  0  0  0  0  0  0  0  0
    1.2760    0.0000    0.0000 C   0  0  0  0  0  0  0  0  0  0  0  0
    0.3943    1.2135    0.0000 N   0  0  0  0  0  4  0  0  0  0  0  0
   -1.0323    0.7500    0.0000 C   0  0  0  0  0  0  0  0  0  0  0  0
   -1.0323   -0.7500    0.0000 C   0  0  0  0  0  0  0  0  0  0  0  0
    0.3943   -1.2135    0.0000 S   0  0  0  0  0  0  0  0  0  0  0  0
   -2.3313   -1.5000    0.0000 C   0  0  0  0  0  0  0  0  0  0  0  0
   -3.6304   -0.7500    0.0000 C   0  0  0  0  0  0  0  0  0  0  0  0
   -3.6304   -2.2500    0.0000 C   0  0  0  0  0  0  0  0  0  0  0  0
   -4.9294   -1.5000    0.0000 C   0  0  0  0  0  0  0  0  0  0  0  0
   -6.2284   -0.7500    0.0000 C   0  0  0  0  0  0  0  0  0  0  0  0
   -6.2284    0.7500    0.0000 C   0  0  0  0  0  0  0  0  0  0  0  0
   -7.5275    1.5000    0.0000 C   0  0  0  0  0  0  0  0  0  0  0  0
   -7.5275    3.0000    0.0000 C   0  0  0  0  0  0  0  0  0  0  0  0
   -8.8265    0.7500    0.0000 C   0  0  0  0  0  0  0  0  0  0  0  0
   -8.8265   -0.7500    0.0000 O   0  0  0  0  0  0  0  0  0  0  0  0
  -10.1256    1.5000    0.0000 N   0  0  0  0  0  0  0  0  0  0  0  0
  -11.4246    0.7500    0.0000 C   0  0  0  0  0  0  0  0  0  0  0  0
  -12.7236    1.5000    0.0000 C   0  0  0  0  0  0  0  0  0  0  0  0
  -14.0227    0.7500    0.0000 O   0  0  0  0  0  0  0  0  0  0  0  0
  -15.3217    1.5000    0.0000 C   0  0  0  0  0  0  0  0  0  0  0  0
   -4.9294    1.5000    0.0000 C   0  0  0  0  0  0  0  0  0  0  0  0
   -4.9294    3.0000    0.0000 O   0  0  0  0  0  0  0  0  0  0  0  0
   -3.6304    0.7500    0.0000 C   0  0  0  0  0  0  0  0  0  0  0  0
   -2.3313    1.5000    0.0000 C   0  0  0  0  0  0  0  0  0  0  0  0
   -2.3313    3.0000    0.0000 C   0  0  0  0  0  0  0  0  0  0  0  0
  1  2  1  0
  2  3  1  0
  3  4  1  0
  4  5  1  0
  5  6  1  0
  6  7  2  0
  7  8  1  0
  8  9  2  0
  9 10  1  0
  9 11  1  0
 11 12  1  0
 12 13  1  6
 12 14  1  0
 14 15  1  0
 16 15  1  6
 16 17  1  0
 17 18  1  1
 17 19  1  0
 19 20  2  0
 19 21  1  0
 21 22  1  0
 22 23  1  0
 23 24  1  0
 24 25  1  0
 16 26  1  0
 26 27  1  1
 26 28  1  0
 28 29  1  1
 29 30  1  6
 10  6  1  0
 28 12  1  0
 29  8  1  0
M  CHG  1   7   1
M  END
>  <Compound_ID>  (138) 
C43548608

>  <Active>  (138) 
0

>  <Smiles>  (138) 
CCCCNc1[nH+]c2c(s1)C[C@@]1(C)CC[C@H]([C@H](C)C(=O)NCCOC)[C@@H](O)[C@H]1[C@@H]2C

>  <canonical_smi>  (138) 
CCCCNc1[nH+]c2c(s1)C[C@@]1(C)CC[C@H]([C@H](C)C(=O)NCCOC)[C@@H](O)[C@H]1[C@@H]2C

>  <Set>  (138) 
G2 inactive

>  <Set_type>  (138) 
Test

>  <MW>  (138) 
438.66

>  <HBD>  (138) 
3

>  <HBA>  (138) 
4

>  <NRB>  (138) 
9

>  <NR>  (138) 
3

>  <NAR>  (138) 
1

>  <PSA>  (138) 
84.73

>  <Standard Type>  (138) 
nan

>  <Standard Relation>  (138) 
nan

>  <Standard Units>  (138) 
nan

>  <Standard Value>  (138) 
nan

>  <Assay ChEMBL ID>  (138) 
nan

>  <Assay Description>  (138) 
nan

>  <BAO Label>  (138) 
nan

$$$$

     RDKit          2D

 36 39  0  0  0  0  0  0  0  0999 V2000
    9.3038   -2.2418    0.0000 C   0  0  0  0  0  0  0  0  0  0  0  0
    8.5538   -3.5408    0.0000 C   0  0  0  0  0  0  0  0  0  0  0  0
    7.0620   -3.6976    0.0000 C   0  0  0  0  0  0  0  0  0  0  0  0
    6.7501   -5.1648    0.0000 C   0  0  0  0  0  0  0  0  0  0  0  0
    5.3798   -5.7749    0.0000 C   0  0  0  0  0  0  0  0  0  0  0  0
    5.0679   -7.2422    0.0000 O   0  0  0  0  0  0  0  0  0  0  0  0
    3.5761   -7.3990    0.0000 N   0  0  0  0  0  0  0  0  0  0  0  0
    2.9660   -6.0286    0.0000 C   0  0  0  0  0  0  0  0  0  0  0  0
    1.4988   -5.7168    0.0000 C   0  0  0  0  0  0  0  0  0  0  0  0
    4.0808   -5.0249    0.0000 C   0  0  0  0  0  0  0  0  0  0  0  0
    3.9240   -3.5332    0.0000 C   0  0  0  0  0  0  0  0  0  0  0  0
    5.1375   -2.6515    0.0000 O   0  0  0  0  0  0  0  0  0  0  0  0
    2.5537   -2.9231    0.0000 N   0  0  0  0  0  0  0  0  0  0  0  0
    1.2546   -3.6731    0.0000 C   0  0  0  0  0  0  0  0  0  0  0  0
    0.1399   -2.6694    0.0000 C   0  0  0  0  0  0  0  0  0  0  0  0
   -1.3273   -2.9812    0.0000 C   0  0  0  0  0  0  0  0  0  0  0  0
   -2.3310   -1.8665    0.0000 O   0  0  0  0  0  0  0  0  0  0  0  0
   -1.7909   -4.4078    0.0000 N   0  0  0  0  0  0  0  0  0  0  0  0
   -3.2581   -4.7197    0.0000 C   0  0  0  0  0  0  0  0  0  0  0  0
   -3.7216   -6.1463    0.0000 C   0  0  0  0  0  0  0  0  0  0  0  0
   -4.2618   -3.6050    0.0000 C   0  0  0  0  0  0  0  0  0  0  0  0
   -5.7290   -3.9168    0.0000 C   0  0  0  0  0  0  0  0  0  0  0  0
   -6.7327   -2.8021    0.0000 C   0  0  0  0  0  0  0  0  0  0  0  0
   -8.1999   -3.1140    0.0000 C   0  0  0  0  0  0  0  0  0  0  0  0
   -7.8880   -4.5812    0.0000 C   0  0  0  0  0  0  0  0  0  0  0  0
   -8.5118   -1.6468    0.0000 C   0  0  0  0  0  0  0  0  0  0  0  0
   -9.6671   -3.4258    0.0000 O   0  0  0  0  0  0  0  0  0  0  0  0
    0.7500   -1.2990    0.0000 C   0  0  0  0  0  0  0  0  0  0  0  0
    1.5000    0.0000    0.0000 C   0  0  0  0  0  0  0  0  0  0  0  0
    0.7500    1.2990    0.0000 C   0  0  0  0  0  0  0  0  0  0  0  0
   -0.7500    1.2990    0.0000 N   0  0  0  0  0  4  0  0  0  0  0  0
   -1.5000    0.0000    0.0000 C   0  0  0  0  0  0  0  0  0  0  0  0
   -0.7500   -1.2990    0.0000 C   0  0  0  0  0  0  0  0  0  0  0  0
    2.2418   -1.4558    0.0000 C   0  0  0  0  0  0  0  0  0  0  0  0
    8.0492   -5.9148    0.0000 N   0  0  0  0  0  0  0  0  0  0  0  0
    9.1639   -4.9111    0.0000 O   0  0  0  0  0  0  0  0  0  0  0  0
  1  2  1  0
  2  3  2  0
  3  4  1  0
  4  5  1  0
  5  6  1  0
  6  7  1  0
  7  8  2  0
  8  9  1  0
  8 10  1  0
 10 11  1  0
 11 12  2  0
 11 13  1  0
 13 14  1  0
 14 15  1  0
 15 16  1  6
 16 17  2  0
 16 18  1  0
 18 19  1  0
 19 20  1  6
 19 21  1  0
 21 22  1  0
 22 23  1  0
 23 24  1  0
 24 25  1  0
 24 26  1  0
 24 27  1  0
 15 28  1  0
 28 29  1  0
 29 30  1  0
 30 31  1  0
 31 32  1  0
 32 33  1  0
 28 34  1  0
  4 35  2  0
 35 36  1  0
 36  2  1  0
 10  5  2  0
 34 13  1  0
 33 28  1  0
M  CHG  1  31   1
M  END
>  <Compound_ID>  (139) 
C39631878

>  <Active>  (139) 
0

>  <Smiles>  (139) 
Cc1cc(-c2onc(C)c2C(=O)N2C[C@H](C(=O)N[C@H](C)CCCC(C)(C)O)C3(CC[NH2+]CC3)C2)no1

>  <canonical_smi>  (139) 
Cc1cc(-c2onc(C)c2C(=O)N2C[C@H](C(=O)N[C@H](C)CCCC(C)(C)O)C3(CC[NH2+]CC3)C2)no1

>  <Set>  (139) 
G2 inactive

>  <Set_type>  (139) 
Test

>  <MW>  (139) 
502.64

>  <HBD>  (139) 
3

>  <HBA>  (139) 
7

>  <NRB>  (139) 
8

>  <NR>  (139) 
4

>  <NAR>  (139) 
2

>  <PSA>  (139) 
138.31

>  <Standard Type>  (139) 
nan

>  <Standard Relation>  (139) 
nan

>  <Standard Units>  (139) 
nan

>  <Standard Value>  (139) 
nan

>  <Assay ChEMBL ID>  (139) 
nan

>  <Assay Description>  (139) 
nan

>  <BAO Label>  (139) 
nan

$$$$

     RDKit          2D

 36 39  0  0  0  0  0  0  0  0999 V2000
   12.7500    1.2990    0.0000 C   0  0  0  0  0  0  0  0  0  0  0  0
   11.2500    1.2990    0.0000 C   0  0  0  0  0  0  0  0  0  0  0  0
   10.5000   -0.0000    0.0000 O   0  0  0  0  0  0  0  0  0  0  0  0
    9.0000   -0.0000    0.0000 C   0  0  0  0  0  0  0  0  0  0  0  0
    8.2500    1.2990    0.0000 O   0  0  0  0  0  0  0  0  0  0  0  0
    8.2500   -1.2990    0.0000 C   0  0  0  0  0  0  0  0  0  0  0  0
    9.0000   -2.5981    0.0000 C   0  0  0  0  0  0  0  0  0  0  0  0
    8.2500   -3.8971    0.0000 C   0  0  0  0  0  0  0  0  0  0  0  0
    6.7500   -3.8971    0.0000 C   0  0  0  0  0  0  0  0  0  0  0  0
    6.0000   -2.5981    0.0000 N   0  0  0  0  0  0  0  0  0  0  0  0
    4.5000   -2.5981    0.0000 C   0  0  0  0  0  0  0  0  0  0  0  0
    3.7500   -1.2990    0.0000 O   0  0  0  0  0  0  0  0  0  0  0  0
    3.7500   -3.8971    0.0000 C   0  0  0  0  0  0  0  0  0  0  0  0
    4.5000   -5.1962    0.0000 C   0  0  0  0  0  0  0  0  0  0  0  0
    3.7500   -6.4952    0.0000 C   0  0  0  0  0  0  0  0  0  0  0  0
    4.5000   -7.7942    0.0000 C   0  0  0  0  0  0  0  0  0  0  0  0
    3.7500   -9.0933    0.0000 C   0  0  0  0  0  0  0  0  0  0  0  0
    2.2500   -9.0933    0.0000 C   0  0  0  0  0  0  0  0  0  0  0  0
    1.5000   -7.7942    0.0000 C   0  0  0  0  0  0  0  0  0  0  0  0
    2.2500   -6.4952    0.0000 C   0  0  0  0  0  0  0  0  0  0  0  0
    2.2500   -3.8971    0.0000 N   0  0  0  0  0  0  0  0  0  0  0  0
    1.5000   -2.5981    0.0000 S   0  0  0  0  0  0  0  0  0  0  0  0
    0.2010   -3.3481    0.0000 O   0  0  0  0  0  0  0  0  0  0  0  0
    2.7990   -1.8481    0.0000 O   0  0  0  0  0  0  0  0  0  0  0  0
    0.7500   -1.2990    0.0000 C   0  0  0  0  0  0  0  0  0  0  0  0
    1.5000    0.0000    0.0000 C   0  0  0  0  0  0  0  0  0  0  0  0
    0.7500    1.2990    0.0000 C   0  0  0  0  0  0  0  0  0  0  0  0
   -0.7500    1.2990    0.0000 C   0  0  0  0  0  0  0  0  0  0  0  0
   -1.5000    0.0000    0.0000 C   0  0  0  0  0  0  0  0  0  0  0  0
   -0.7500   -1.2990    0.0000 C   0  0  0  0  0  0  0  0  0  0  0  0
   -3.0000    0.0000    0.0000 C   0  0  0  0  0  0  0  0  0  0  0  0
   -3.7500    1.2990    0.0000 C   0  0  0  0  0  0  0  0  0  0  0  0
   -3.0000    2.5981    0.0000 C   0  0  0  0  0  0  0  0  0  0  0  0
   -3.7500    3.8971    0.0000 O   0  0  0  0  0  0  0  0  0  0  0  0
   -1.5000    2.5981    0.0000 N   0  0  0  0  0  0  0  0  0  0  0  0
    6.7500   -1.2990    0.0000 C   0  0  0  0  0  0  0  0  0  0  0  0
  1  2  1  0
  2  3  1  0
  3  4  1  0
  4  5  2  0
  6  4  1  1
  6  7  1  0
  7  8  1  0
  8  9  1  0
  9 10  1  0
 10 11  1  0
 11 12  2  0
 11 13  1  0
 13 14  1  1
 14 15  1  0
 15 16  2  0
 16 17  1  0
 17 18  2  0
 18 19  1  0
 19 20  2  0
 13 21  1  0
 21 22  1  0
 22 23  2  0
 22 24  2  0
 22 25  1  0
 25 26  2  0
 26 27  1  0
 27 28  2  0
 28 29  1  0
 29 30  2  0
 29 31  1  0
 31 32  1  0
 32 33  1  0
 33 34  2  0
 33 35  1  0
 10 36  1  0
 36  6  1  0
 20 15  1  0
 30 25  1  0
 35 28  1  0
M  END
>  <Compound_ID>  (140) 
C09611429

>  <Active>  (140) 
0

>  <Smiles>  (140) 
CCOC(=O)[C@H]1CCCN(C(=O)[C@@H](Cc2ccccc2)NS(=O)(=O)c2ccc3c(c2)CCC(=O)N3)C1

>  <canonical_smi>  (140) 
CCOC(=O)[C@H]1CCCN(C(=O)[C@@H](Cc2ccccc2)NS(=O)(=O)c2ccc3c(c2)CCC(=O)N3)C1

>  <Set>  (140) 
G2 inactive

>  <Set_type>  (140) 
Test

>  <MW>  (140) 
513.62

>  <HBD>  (140) 
2

>  <HBA>  (140) 
6

>  <NRB>  (140) 
8

>  <NR>  (140) 
4

>  <NAR>  (140) 
2

>  <PSA>  (140) 
121.88

>  <Standard Type>  (140) 
nan

>  <Standard Relation>  (140) 
nan

>  <Standard Units>  (140) 
nan

>  <Standard Value>  (140) 
nan

>  <Assay ChEMBL ID>  (140) 
nan

>  <Assay Description>  (140) 
nan

>  <BAO Label>  (140) 
nan

$$$$

     RDKit          2D

 29 33  0  0  0  0  0  0  0  0999 V2000
    4.5000    0.0000    0.0000 N   0  0  0  0  0  0  0  0  0  0  0  0
    3.0000    0.0000    0.0000 C   0  0  0  0  0  0  0  0  0  0  0  0
    1.5000    0.0000    0.0000 C   0  0  0  0  0  0  0  0  0  0  0  0
    0.7500   -1.2990    0.0000 C   0  0  0  0  0  0  0  0  0  0  0  0
   -0.7500   -1.2990    0.0000 C   0  0  0  0  0  0  0  0  0  0  0  0
   -1.5000    0.0000    0.0000 N   0  0  0  0  0  0  0  0  0  0  0  0
   -0.7500    1.2990    0.0000 C   0  0  0  0  0  0  0  0  0  0  0  0
   -1.5000    2.5981    0.0000 N   0  0  0  0  0  0  0  0  0  0  0  0
   -0.7500    3.8971    0.0000 C   0  0  0  0  0  0  0  0  0  0  0  0
   -1.3601    5.2674    0.0000 C   0  0  0  0  0  0  0  0  0  0  0  0
   -0.2454    6.2711    0.0000 C   0  0  0  0  0  0  0  0  0  0  0  0
   -0.4022    7.7629    0.0000 C   0  0  0  0  0  0  0  0  0  0  0  0
    0.8113    8.6446    0.0000 C   0  0  0  0  0  0  0  0  0  0  0  0
    0.6546   10.1364    0.0000 C   0  0  0  0  0  0  0  0  0  0  0  0
   -0.7158   10.7465    0.0000 N   0  0  0  0  0  0  0  0  0  0  0  0
   -0.8726   12.2383    0.0000 C   0  0  0  0  0  0  0  0  0  0  0  0
    0.0714   13.4040    0.0000 C   0  0  0  0  0  0  0  0  0  0  0  0
   -1.0943   14.3480    0.0000 O   0  0  0  0  0  0  0  0  0  0  0  0
   -2.0383   13.1822    0.0000 C   0  0  0  0  0  0  0  0  0  0  0  0
   -1.9293    9.8648    0.0000 C   0  0  0  0  0  0  0  0  0  0  0  0
   -1.7725    8.3730    0.0000 C   0  0  0  0  0  0  0  0  0  0  0  0
    1.0537    5.5211    0.0000 N   0  0  0  0  0  0  0  0  0  0  0  0
    2.4240    6.1312    0.0000 C   0  0  0  0  0  0  0  0  0  0  0  0
    2.7358    7.5985    0.0000 C   0  0  0  0  0  0  0  0  0  0  0  0
    4.2276    7.7552    0.0000 C   0  0  0  0  0  0  0  0  0  0  0  0
    4.8377    6.3849    0.0000 C   0  0  0  0  0  0  0  0  0  0  0  0
    3.7230    5.3812    0.0000 C   0  0  0  0  0  0  0  0  0  0  0  0
    0.7418    4.0539    0.0000 N   0  0  0  0  0  0  0  0  0  0  0  0
    0.7500    1.2990    0.0000 C   0  0  0  0  0  0  0  0  0  0  0  0
  1  2  3  0
  2  3  1  0
  3  4  2  0
  4  5  1  0
  5  6  2  0
  6  7  1  0
  7  8  1  0
  8  9  1  0
  9 10  1  0
 10 11  2  0
 11 12  1  0
 12 13  1  0
 13 14  1  0
 14 15  1  0
 15 16  1  0
 16 17  1  0
 17 18  1  0
 18 19  1  0
 15 20  1  0
 20 21  1  0
 11 22  1  0
 22 23  1  0
 23 24  1  0
 24 25  1  0
 25 26  1  0
 26 27  1  0
 22 28  1  0
  7 29  2  0
 29  3  1  0
 28  9  2  0
 21 12  1  0
 27 23  1  0
 19 16  1  0
M  END
>  <Compound_ID>  (141) 
CHEMBL3629013

>  <Active>  (141) 
0

>  <Smiles>  (141) 
N#Cc1ccnc(Nc2cc(C3CCN(C4COC4)CC3)n(C3CCCC3)n2)c1

>  <canonical_smi>  (141) 
N#Cc1ccnc(Nc2cc(C3CCN(C4COC4)CC3)n(C3CCCC3)n2)c1

>  <Set>  (141) 
G2 inactive

>  <Set_type>  (141) 
External

>  <MW>  (141) 
392.51

>  <HBD>  (141) 
1

>  <HBA>  (141) 
6

>  <NRB>  (141) 
5

>  <NR>  (141) 
5

>  <NAR>  (141) 
2

>  <PSA>  (141) 
79.0

>  <Standard Type>  (141) 
IC50

>  <Standard Relation>  (141) 
'='

>  <Standard Units>  (141) 
nM

>  <Standard Value>  (141) 
57000.0

>  <Assay ChEMBL ID>  (141) 
CHEMBL3631839

>  <Assay Description>  (141) 
Inhibition of CSF1R (unknown origin) by FRET method

>  <BAO Label>  (141) 
single protein format

$$$$

     RDKit          2D

 33 37  0  0  0  0  0  0  0  0999 V2000
   -0.0967    5.1517    0.0000 C   0  0  0  0  0  0  0  0  0  0  0  0
   -0.4086    3.6844    0.0000 C   0  0  0  0  0  0  0  0  0  0  0  0
    0.7062    2.6807    0.0000 O   0  0  0  0  0  0  0  0  0  0  0  0
    0.3943    1.2135    0.0000 C   0  0  0  0  0  0  0  0  0  0  0  0
    1.2760    0.0000    0.0000 C   0  0  0  0  0  0  0  0  0  0  0  0
    0.3943   -1.2135    0.0000 C   0  0  0  0  0  0  0  0  0  0  0  0
    0.8578   -2.6401    0.0000 O   0  0  0  0  0  0  0  0  0  0  0  0
   -1.0323   -0.7500    0.0000 O   0  0  0  0  0  0  0  0  0  0  0  0
   -1.0323    0.7500    0.0000 C   0  0  0  0  0  0  0  0  0  0  0  0
   -2.1470    1.7537    0.0000 C   0  0  0  0  0  0  0  0  0  0  0  0
   -1.8351    3.2209    0.0000 C   0  0  0  0  0  0  0  0  0  0  0  0
   -2.9499    4.2246    0.0000 C   0  0  0  0  0  0  0  0  0  0  0  0
   -2.6380    5.6918    0.0000 O   0  0  0  0  0  0  0  0  0  0  0  0
   -4.3764    3.7611    0.0000 C   0  0  0  0  0  0  0  0  0  0  0  0
   -4.6883    2.2939    0.0000 C   0  0  0  0  0  0  0  0  0  0  0  0
   -6.1149    1.8303    0.0000 C   0  0  0  0  0  0  0  0  0  0  0  0
   -7.2296    2.8340    0.0000 C   0  0  0  0  0  0  0  0  0  0  0  0
   -6.9177    4.3013    0.0000 C   0  0  0  0  0  0  0  0  0  0  0  0
   -8.0325    5.3050    0.0000 C   0  0  0  0  0  0  0  0  0  0  0  0
   -7.7206    6.7722    0.0000 C   0  0  0  0  0  0  0  0  0  0  0  0
   -8.8353    7.7759    0.0000 C   0  0  0  0  0  0  0  0  0  0  0  0
   -8.5234    9.2431    0.0000 N   0  0  0  0  0  0  0  0  0  0  0  0
   -7.0969    9.7066    0.0000 C   0  0  0  0  0  0  0  0  0  0  0  0
   -9.6382   10.2468    0.0000 C   0  0  0  0  0  0  0  0  0  0  0  0
  -10.2619    7.3123    0.0000 C   0  0  0  0  0  0  0  0  0  0  0  0
  -11.3766    8.3160    0.0000 O   0  0  0  0  0  0  0  0  0  0  0  0
  -10.5738    5.8451    0.0000 C   0  0  0  0  0  0  0  0  0  0  0  0
  -12.0003    5.3816    0.0000 C   0  0  0  0  0  0  0  0  0  0  0  0
   -9.4590    4.8414    0.0000 O   0  0  0  0  0  0  0  0  0  0  0  0
   -5.4912    4.7648    0.0000 C   0  0  0  0  0  0  0  0  0  0  0  0
   -5.1793    6.2320    0.0000 O   0  0  0  0  0  0  0  0  0  0  0  0
   -3.5736    1.2902    0.0000 C   0  0  0  0  0  0  0  0  0  0  0  0
   -3.8855   -0.1771    0.0000 O   0  0  0  0  0  0  0  0  0  0  0  0
  2  1  1  1
  2  3  1  0
  3  4  1  0
  4  5  1  6
  5  6  1  0
  6  7  2  0
  6  8  1  0
  9  8  1  6
  9 10  1  0
 10 11  2  0
 11 12  1  0
 12 13  2  0
 12 14  1  0
 14 15  2  0
 15 16  1  0
 16 17  2  0
 17 18  1  0
 19 18  1  6
 19 20  1  0
 20 21  1  0
 21 22  1  6
 22 23  1  0
 22 24  1  0
 21 25  1  0
 25 26  1  1
 25 27  1  0
 27 28  1  6
 27 29  1  0
 18 30  2  0
 30 31  1  0
 15 32  1  0
 32 33  2  0
 11  2  1  0
 30 14  1  0
  9  4  1  0
 32 10  1  0
 29 19  1  0
M  END
>  <Compound_ID>  (142) 
CHEMBL2216825

>  <Active>  (142) 
0

>  <Smiles>  (142) 
C[C@H]1O[C@@H]2CC(=O)O[C@@H]2C2=C1C(=O)c1c(ccc([C@H]3C[C@@H](N(C)C)[C@H](O)[C@@H](C)O3)c1O)C2=O

>  <canonical_smi>  (142) 
C[C@H]1O[C@@H]2CC(=O)O[C@@H]2C2=C1C(=O)c1c(ccc([C@H]3C[C@@H](N(C)C)[C@H](O)[C@@H](C)O3)c1O)C2=O

>  <Set>  (142) 
G2 inactive

>  <Set_type>  (142) 
External

>  <MW>  (142) 
457.48

>  <HBD>  (142) 
2

>  <HBA>  (142) 
9

>  <NRB>  (142) 
2

>  <NR>  (142) 
5

>  <NAR>  (142) 
1

>  <PSA>  (142) 
122.6

>  <Standard Type>  (142) 
Inhibition

>  <Standard Relation>  (142) 
'='

>  <Standard Units>  (142) 
%

>  <Standard Value>  (142) 
6.0

>  <Assay ChEMBL ID>  (142) 
CHEMBL1019609

>  <Assay Description>  (142) 
Inhibition of CSF1R at 1 uM

>  <BAO Label>  (142) 
single protein format

$$$$

     RDKit          2D

 37 42  0  0  0  0  0  0  0  0999 V2000
   -0.2010   -8.5442    0.0000 C   0  0  0  0  0  0  0  0  0  0  0  0
   -1.5000   -7.7942    0.0000 C   0  0  0  0  0  0  0  0  0  0  0  0
   -2.7990   -7.0442    0.0000 C   0  0  0  0  0  0  0  0  0  0  0  0
   -2.2500   -9.0933    0.0000 O   0  0  0  0  0  0  0  0  0  0  0  0
   -0.7500   -6.4952    0.0000 C   0  0  0  0  0  0  0  0  0  0  0  0
   -1.5000   -5.1962    0.0000 C   0  0  0  0  0  0  0  0  0  0  0  0
   -0.7500   -3.8971    0.0000 C   0  0  0  0  0  0  0  0  0  0  0  0
    0.7500   -3.8971    0.0000 N   0  0  0  0  0  0  0  0  0  0  0  0
    1.5000   -2.5981    0.0000 C   0  0  0  0  0  0  0  0  0  0  0  0
    0.7500   -1.2990    0.0000 C   0  0  0  0  0  0  0  0  0  0  0  0
    1.5000    0.0000    0.0000 C   0  0  0  0  0  0  0  0  0  0  0  0
    0.7500    1.2990    0.0000 C   0  0  0  0  0  0  0  0  0  0  0  0
   -0.7500    1.2990    0.0000 C   0  0  0  0  0  0  0  0  0  0  0  0
   -1.5000    2.5981    0.0000 N   0  0  0  0  0  0  0  0  0  0  0  0
   -3.0000    2.5981    0.0000 C   0  0  0  0  0  0  0  0  0  0  0  0
   -3.7500    3.8971    0.0000 C   0  0  0  0  0  0  0  0  0  0  0  0
   -5.2500    3.8971    0.0000 C   0  0  0  0  0  0  0  0  0  0  0  0
   -6.0000    2.5981    0.0000 F   0  0  0  0  0  0  0  0  0  0  0  0
   -6.0000    5.1962    0.0000 C   0  0  0  0  0  0  0  0  0  0  0  0
   -5.2500    6.4952    0.0000 C   0  0  0  0  0  0  0  0  0  0  0  0
   -3.7500    6.4952    0.0000 C   0  0  0  0  0  0  0  0  0  0  0  0
   -2.7463    7.6099    0.0000 N   0  0  0  0  0  0  0  0  0  0  0  0
   -1.3760    6.9998    0.0000 C   0  0  0  0  0  0  0  0  0  0  0  0
   -1.5328    5.5080    0.0000 C   0  0  0  0  0  0  0  0  0  0  0  0
   -3.0000    5.1962    0.0000 C   0  0  0  0  0  0  0  0  0  0  0  0
   -3.7500    1.2990    0.0000 N   0  0  0  0  0  0  0  0  0  0  0  0
   -3.0000    0.0000    0.0000 C   0  0  0  0  0  0  0  0  0  0  0  0
   -3.7500   -1.2990    0.0000 N   0  0  0  0  0  0  0  0  0  0  0  0
   -5.2500   -1.2990    0.0000 C   0  0  0  0  0  0  0  0  0  0  0  0
   -6.0000   -2.5981    0.0000 C   0  0  0  0  0  0  0  0  0  0  0  0
   -5.2500   -3.8971    0.0000 O   0  0  0  0  0  0  0  0  0  0  0  0
   -3.7500   -3.8971    0.0000 C   0  0  0  0  0  0  0  0  0  0  0  0
   -3.0000   -2.5981    0.0000 C   0  0  0  0  0  0  0  0  0  0  0  0
   -1.5000    0.0000    0.0000 C   0  0  0  0  0  0  0  0  0  0  0  0
   -0.7500   -1.2990    0.0000 N   0  0  0  0  0  0  0  0  0  0  0  0
    1.5000   -5.1962    0.0000 C   0  0  0  0  0  0  0  0  0  0  0  0
    0.7500   -6.4952    0.0000 C   0  0  0  0  0  0  0  0  0  0  0  0
  1  2  1  0
  2  3  1  0
  2  4  1  0
  2  5  1  0
  5  6  1  0
  6  7  1  0
  7  8  1  0
  8  9  1  0
  9 10  1  0
 10 11  2  0
 11 12  1  0
 12 13  2  0
 13 14  1  0
 14 15  2  0
 15 16  1  0
 16 17  2  0
 17 18  1  0
 17 19  1  0
 19 20  2  0
 20 21  1  0
 21 22  1  0
 22 23  1  0
 23 24  2  0
 24 25  1  0
 15 26  1  0
 26 27  2  0
 27 28  1  0
 28 29  1  0
 29 30  1  0
 30 31  1  0
 31 32  1  0
 32 33  1  0
 27 34  1  0
 34 35  2  0
  8 36  1  0
 36 37  1  0
 37  5  1  0
 35 10  1  0
 34 13  1  0
 25 16  1  0
 33 28  1  0
 25 21  2  0
M  END
>  <Compound_ID>  (143) 
CHEMBL2152768

>  <Active>  (143) 
0

>  <Smiles>  (143) 
CC(C)(O)C1CCN(Cc2ccc3nc(-c4c(F)ccc5[nH]ccc45)nc(N4CCOCC4)c3n2)CC1

>  <canonical_smi>  (143) 
CC(C)(O)C1CCN(Cc2ccc3nc(-c4c(F)ccc5[nH]ccc45)nc(N4CCOCC4)c3n2)CC1

>  <Set>  (143) 
G2 inactive

>  <Set_type>  (143) 
External

>  <MW>  (143) 
504.61

>  <HBD>  (143) 
2

>  <HBA>  (143) 
7

>  <NRB>  (143) 
5

>  <NR>  (143) 
6

>  <NAR>  (143) 
4

>  <PSA>  (143) 
90.4

>  <Standard Type>  (143) 
Inhibition

>  <Standard Relation>  (143) 
'='

>  <Standard Units>  (143) 
%

>  <Standard Value>  (143) 
-3.3

>  <Assay ChEMBL ID>  (143) 
CHEMBL2156514

>  <Assay Description>  (143) 
Inhibition of CSF1R at 1 uM

>  <BAO Label>  (143) 
single protein format

$$$$

     RDKit          2D

 38 42  0  0  0  0  0  0  0  0999 V2000
   -8.2500   -1.2990    0.0000 C   0  0  0  0  0  0  0  0  0  0  0  0
   -7.5000   -2.5981    0.0000 O   0  0  0  0  0  0  0  0  0  0  0  0
   -6.0000   -2.5981    0.0000 C   0  0  0  0  0  0  0  0  0  0  0  0
   -5.2500   -1.2990    0.0000 C   0  0  0  0  0  0  0  0  0  0  0  0
   -3.7500   -1.2990    0.0000 C   0  0  0  0  0  0  0  0  0  0  0  0
   -3.0000   -2.5981    0.0000 C   0  0  0  0  0  0  0  0  0  0  0  0
   -1.5000   -2.5981    0.0000 N   0  0  0  0  0  0  0  0  0  0  0  0
   -0.7500   -3.8971    0.0000 C   0  0  0  0  0  0  0  0  0  0  0  0
   -1.5000   -5.1962    0.0000 O   0  0  0  0  0  0  0  0  0  0  0  0
    0.7500   -3.8971    0.0000 C   0  0  0  0  0  0  0  0  0  0  0  0
    1.5000   -2.5981    0.0000 O   0  0  0  0  0  0  0  0  0  0  0  0
    0.7500   -1.2990    0.0000 C   0  0  0  0  0  0  0  0  0  0  0  0
    1.5000    0.0000    0.0000 C   0  0  0  0  0  0  0  0  0  0  0  0
    0.7500    1.2990    0.0000 C   0  0  0  0  0  0  0  0  0  0  0  0
   -0.7500    1.2990    0.0000 C   0  0  0  0  0  0  0  0  0  0  0  0
   -1.5000    2.5981    0.0000 C   0  0  0  0  0  0  0  0  0  0  0  0
   -0.7500    3.8971    0.0000 C   0  0  0  0  0  0  0  0  0  0  0  0
   -1.5000    5.1962    0.0000 N   0  0  0  0  0  0  0  0  0  0  0  0
   -3.0000    5.1962    0.0000 C   0  0  0  0  0  0  0  0  0  0  0  0
   -3.7500    6.4952    0.0000 O   0  0  0  0  0  0  0  0  0  0  0  0
   -3.0000    7.7942    0.0000 C   0  0  0  0  0  0  0  0  0  0  0  0
   -3.7500    3.8971    0.0000 C   0  0  0  0  0  0  0  0  0  0  0  0
   -5.2500    3.8971    0.0000 N   0  0  0  0  0  0  0  0  0  0  0  0
   -6.0000    5.1962    0.0000 S   0  0  0  0  0  0  0  0  0  0  0  0
   -4.7010    5.9462    0.0000 O   0  0  0  0  0  0  0  0  0  0  0  0
   -7.2990    4.4462    0.0000 O   0  0  0  0  0  0  0  0  0  0  0  0
   -6.7500    6.4952    0.0000 C   0  0  0  0  0  0  0  0  0  0  0  0
   -8.2500    6.4952    0.0000 C   0  0  0  0  0  0  0  0  0  0  0  0
   -9.0000    7.7942    0.0000 C   0  0  0  0  0  0  0  0  0  0  0  0
   -8.2500    9.0933    0.0000 C   0  0  0  0  0  0  0  0  0  0  0  0
   -9.0000   10.3923    0.0000 F   0  0  0  0  0  0  0  0  0  0  0  0
   -6.7500    9.0933    0.0000 C   0  0  0  0  0  0  0  0  0  0  0  0
   -6.0000    7.7942    0.0000 C   0  0  0  0  0  0  0  0  0  0  0  0
   -3.0000    2.5981    0.0000 C   0  0  0  0  0  0  0  0  0  0  0  0
   -1.5000    0.0000    0.0000 C   0  0  0  0  0  0  0  0  0  0  0  0
   -0.7500   -1.2990    0.0000 C   0  0  0  0  0  0  0  0  0  0  0  0
   -3.7500   -3.8971    0.0000 C   0  0  0  0  0  0  0  0  0  0  0  0
   -5.2500   -3.8971    0.0000 C   0  0  0  0  0  0  0  0  0  0  0  0
  1  2  1  0
  2  3  1  0
  3  4  2  0
  4  5  1  0
  5  6  2  0
  6  7  1  0
  7  8  1  0
  8  9  2  0
  8 10  1  0
 10 11  1  0
 11 12  1  0
 12 13  2  0
 13 14  1  0
 14 15  2  0
 15 16  1  0
 16 17  2  0
 17 18  1  0
 18 19  2  0
 19 20  1  0
 20 21  1  0
 19 22  1  0
 22 23  1  0
 23 24  1  0
 24 25  2  0
 24 26  2  0
 24 27  1  0
 27 28  2  0
 28 29  1  0
 29 30  2  0
 30 31  1  0
 30 32  1  0
 32 33  2  0
 22 34  2  0
 15 35  1  0
 35 36  2  0
  6 37  1  0
 37 38  2  0
 38  3  1  0
 36  7  1  0
 36 12  1  0
 34 16  1  0
 33 27  1  0
M  END
>  <Compound_ID>  (144) 
CHEMBL4528675

>  <Active>  (144) 
0

>  <Smiles>  (144) 
COc1ccc(N2C(=O)COc3ccc(-c4cnc(OC)c(NS(=O)(=O)c5ccc(F)cc5)c4)cc32)cc1

>  <canonical_smi>  (144) 
COc1ccc(N2C(=O)COc3ccc(-c4cnc(OC)c(NS(=O)(=O)c5ccc(F)cc5)c4)cc32)cc1

>  <Set>  (144) 
G2 inactive

>  <Set_type>  (144) 
External

>  <MW>  (144) 
535.55

>  <HBD>  (144) 
1

>  <HBA>  (144) 
7

>  <NRB>  (144) 
7

>  <NR>  (144) 
5

>  <NAR>  (144) 
4

>  <PSA>  (144) 
107.06

>  <Standard Type>  (144) 
Inhibition

>  <Standard Relation>  (144) 
'='

>  <Standard Units>  (144) 
%

>  <Standard Value>  (144) 
-14.17

>  <Assay ChEMBL ID>  (144) 
CHEMBL4366410

>  <Assay Description>  (144) 
Inhibition of human FMS at 100 nM using poly[Glu:Tyr] (4:1) as substrate by [gamma-33P]-ATP assay

>  <BAO Label>  (144) 
single protein format

$$$$

     RDKit          2D

 29 32  0  0  0  0  0  0  0  0999 V2000
    3.5260    1.2990    0.0000 C   0  0  0  0  0  0  0  0  0  0  0  0
    2.7760    0.0000    0.0000 C   0  0  0  0  0  0  0  0  0  0  0  0
    3.5260   -1.2990    0.0000 C   0  0  0  0  0  0  0  0  0  0  0  0
    1.2760    0.0000    0.0000 N   0  0  0  0  0  0  0  0  0  0  0  0
    0.3943    1.2135    0.0000 C   0  0  0  0  0  0  0  0  0  0  0  0
   -1.0323    0.7500    0.0000 N   0  0  0  0  0  0  0  0  0  0  0  0
   -1.0323   -0.7500    0.0000 C   0  0  0  0  0  0  0  0  0  0  0  0
   -2.1470   -1.7537    0.0000 C   0  0  0  0  0  0  0  0  0  0  0  0
   -3.5736   -1.2902    0.0000 N   0  0  0  0  0  0  0  0  0  0  0  0
   -4.6883   -2.2939    0.0000 C   0  0  0  0  0  0  0  0  0  0  0  0
   -6.1149   -1.8303    0.0000 C   0  0  0  0  0  0  0  0  0  0  0  0
   -7.2296   -2.8340    0.0000 C   0  0  0  0  0  0  0  0  0  0  0  0
   -8.6562   -2.3705    0.0000 N   0  0  0  0  0  0  0  0  0  0  0  0
   -6.9177   -4.3013    0.0000 C   0  0  0  0  0  0  0  0  0  0  0  0
   -5.4912   -4.7648    0.0000 C   0  0  0  0  0  0  0  0  0  0  0  0
   -5.1793   -6.2320    0.0000 Cl  0  0  0  0  0  0  0  0  0  0  0  0
   -4.3764   -3.7611    0.0000 C   0  0  0  0  0  0  0  0  0  0  0  0
   -1.8351   -3.2209    0.0000 N   0  0  0  0  0  0  0  0  0  0  0  0
   -0.4086   -3.6844    0.0000 C   0  0  0  0  0  0  0  0  0  0  0  0
   -0.0967   -5.1517    0.0000 N   0  0  0  0  0  0  0  0  0  0  0  0
   -1.2114   -6.1554    0.0000 C   0  0  0  0  0  0  0  0  0  0  0  0
   -2.6380   -5.6918    0.0000 C   0  0  0  0  0  0  0  0  0  0  0  0
   -3.7527   -6.6955    0.0000 C   0  0  0  0  0  0  0  0  0  0  0  0
   -3.4408   -8.1628    0.0000 C   0  0  0  0  0  0  0  0  0  0  0  0
   -2.0143   -8.6263    0.0000 C   0  0  0  0  0  0  0  0  0  0  0  0
   -0.8995   -7.6226    0.0000 C   0  0  0  0  0  0  0  0  0  0  0  0
    0.5271   -8.0861    0.0000 N   0  0  0  0  0  0  0  0  0  0  0  0
    0.7062   -2.6807    0.0000 N   0  0  0  0  0  0  0  0  0  0  0  0
    0.3943   -1.2135    0.0000 C   0  0  0  0  0  0  0  0  0  0  0  0
  1  2  1  0
  2  3  1  0
  2  4  1  0
  4  5  1  0
  5  6  2  0
  6  7  1  0
  7  8  2  0
  8  9  1  0
  9 10  1  0
 10 11  2  0
 11 12  1  0
 12 13  1  0
 12 14  2  0
 14 15  1  0
 15 16  1  0
 15 17  2  0
  8 18  1  0
 18 19  2  0
 19 20  1  0
 21 20  1  1
 21 22  1  0
 22 23  1  0
 23 24  1  0
 24 25  1  0
 25 26  1  0
 26 27  1  1
 19 28  1  0
 28 29  2  0
 29  4  1  0
 29  7  1  0
 17 10  1  0
 26 21  1  0
M  END
>  <Compound_ID>  (145) 
CHEMBL4078898

>  <Active>  (145) 
0

>  <Smiles>  (145) 
CC(C)n1cnc2c(Nc3cc(N)cc(Cl)c3)nc(N[C@@H]3CCCC[C@@H]3N)nc21

>  <canonical_smi>  (145) 
CC(C)n1cnc2c(Nc3cc(N)cc(Cl)c3)nc(N[C@@H]3CCCC[C@@H]3N)nc21

>  <Set>  (145) 
G2 inactive

>  <Set_type>  (145) 
External

>  <MW>  (145) 
414.95

>  <HBD>  (145) 
4

>  <HBA>  (145) 
7

>  <NRB>  (145) 
5

>  <NR>  (145) 
4

>  <NAR>  (145) 
3

>  <PSA>  (145) 
119.7

>  <Standard Type>  (145) 
Inhibition

>  <Standard Relation>  (145) 
'='

>  <Standard Units>  (145) 
%

>  <Standard Value>  (145) 
9.0

>  <Assay ChEMBL ID>  (145) 
CHEMBL4003783

>  <Assay Description>  (145) 
Inhibition of human Fms using KKKSPGEYVNIEFG as substrate in presence of [gamma-33P]ATP at 1 uM after 40 mins by scintillation counter method

>  <BAO Label>  (145) 
single protein format

$$$$

     RDKit          2D

 34 39  0  0  0  0  0  0  0  0999 V2000
   -9.5663  -10.9485    0.0000 N   0  0  0  0  0  0  0  0  0  0  0  0
  -10.5700   -9.8338    0.0000 C   0  0  0  0  0  0  0  0  0  0  0  0
   -9.4553   -8.8301    0.0000 C   0  0  0  0  0  0  0  0  0  0  0  0
   -8.0287   -9.2936    0.0000 C   0  0  0  0  0  0  0  0  0  0  0  0
   -6.9140   -8.2899    0.0000 C   0  0  0  0  0  0  0  0  0  0  0  0
   -7.2258   -6.8227    0.0000 C   0  0  0  0  0  0  0  0  0  0  0  0
   -6.1111   -5.8190    0.0000 C   0  0  0  0  0  0  0  0  0  0  0  0
   -4.6845   -6.2825    0.0000 C   0  0  0  0  0  0  0  0  0  0  0  0
   -3.5698   -5.2788    0.0000 N   0  0  0  0  0  0  0  0  0  0  0  0
   -3.8817   -3.8116    0.0000 C   0  0  0  0  0  0  0  0  0  0  0  0
   -3.0000   -2.5981    0.0000 C   0  0  0  0  0  0  0  0  0  0  0  0
   -1.5000   -2.5981    0.0000 C   0  0  0  0  0  0  0  0  0  0  0  0
   -0.7500   -3.8971    0.0000 C   0  0  0  0  0  0  0  0  0  0  0  0
    0.7500   -3.8971    0.0000 C   0  0  0  0  0  0  0  0  0  0  0  0
    1.5000   -2.5981    0.0000 C   0  0  0  0  0  0  0  0  0  0  0  0
    3.0000   -2.5981    0.0000 S   0  0  0  0  0  0  0  0  0  0  0  0
    4.5000   -2.5981    0.0000 N   0  0  0  0  0  0  0  0  0  0  0  0
    3.0000   -4.0981    0.0000 O   0  0  0  0  0  0  0  0  0  0  0  0
    3.0000   -1.0981    0.0000 O   0  0  0  0  0  0  0  0  0  0  0  0
    0.7500   -1.2990    0.0000 C   0  0  0  0  0  0  0  0  0  0  0  0
    1.5000    0.0000    0.0000 C   0  0  0  0  0  0  0  0  0  0  0  0
    0.7500    1.2990    0.0000 C   0  0  0  0  0  0  0  0  0  0  0  0
   -0.7500    1.2990    0.0000 C   0  0  0  0  0  0  0  0  0  0  0  0
   -1.5000    0.0000    0.0000 C   0  0  0  0  0  0  0  0  0  0  0  0
   -0.7500   -1.2990    0.0000 C   0  0  0  0  0  0  0  0  0  0  0  0
   -3.8817   -1.3846    0.0000 C   0  0  0  0  0  0  0  0  0  0  0  0
   -5.3083   -1.8481    0.0000 N   0  0  0  0  0  0  0  0  0  0  0  0
   -5.3083   -3.3481    0.0000 N   0  0  0  0  0  0  0  0  0  0  0  0
   -6.4230   -4.3518    0.0000 C   0  0  0  0  0  0  0  0  0  0  0  0
   -8.6524   -6.3592    0.0000 C   0  0  0  0  0  0  0  0  0  0  0  0
   -9.7671   -7.3629    0.0000 C   0  0  0  0  0  0  0  0  0  0  0  0
  -11.5737   -8.7191    0.0000 C   0  0  0  0  0  0  0  0  0  0  0  0
  -12.6884   -9.7228    0.0000 C   0  0  0  0  0  0  0  0  0  0  0  0
  -11.6847  -10.8375    0.0000 C   0  0  0  0  0  0  0  0  0  0  0  0
  1  2  1  0
  2  3  1  0
  3  4  2  0
  4  5  1  0
  5  6  2  0
  6  7  1  0
  7  8  1  0
  8  9  2  0
  9 10  1  0
 10 11  2  0
 11 12  1  0
 12 13  2  0
 13 14  1  0
 14 15  2  0
 15 16  1  0
 16 17  1  0
 16 18  2  0
 16 19  2  0
 15 20  1  0
 20 21  2  0
 21 22  1  0
 22 23  2  0
 23 24  1  0
 24 25  2  0
 11 26  1  0
 26 27  2  0
 27 28  1  0
 28 29  1  0
  6 30  1  0
 30 31  2  0
  2 32  1  0
 32 33  1  0
 33 34  1  0
 34  2  1  0
 31  3  1  0
 29  7  2  0
 28 10  1  0
 25 12  1  0
 25 20  1  0
M  END
>  <Compound_ID>  (146) 
CHEMBL4278763

>  <Active>  (146) 
0

>  <Smiles>  (146) 
NC1(c2ccc(-c3cnc4c(-c5ccc(S(N)(=O)=O)c6ccccc56)cnn4c3)cc2)CCC1

>  <canonical_smi>  (146) 
NC1(c2ccc(-c3cnc4c(-c5ccc(S(N)(=O)=O)c6ccccc56)cnn4c3)cc2)CCC1

>  <Set>  (146) 
G2 inactive

>  <Set_type>  (146) 
External

>  <MW>  (146) 
469.57

>  <HBD>  (146) 
2

>  <HBA>  (146) 
5

>  <NRB>  (146) 
4

>  <NR>  (146) 
6

>  <NAR>  (146) 
5

>  <PSA>  (146) 
116.37

>  <Standard Type>  (146) 
Inhibition

>  <Standard Relation>  (146) 
'='

>  <Standard Units>  (146) 
%

>  <Standard Value>  (146) 
10.0

>  <Assay ChEMBL ID>  (146) 
CHEMBL4263811

>  <Assay Description>  (146) 
Inhibition of FMS (unknown origin) at 1 uM relative to control

>  <BAO Label>  (146) 
single protein format

$$$$

     RDKit          2D

 39 43  0  0  0  0  0  0  0  0999 V2000
    3.7500   -1.2990    0.0000 C   0  0  0  0  0  0  0  0  0  0  0  0
    3.0000    0.0000    0.0000 O   0  0  0  0  0  0  0  0  0  0  0  0
    1.5000    0.0000    0.0000 C   0  0  0  0  0  0  0  0  0  0  0  0
    0.7500   -1.2990    0.0000 C   0  0  0  0  0  0  0  0  0  0  0  0
   -0.7500   -1.2990    0.0000 C   0  0  0  0  0  0  0  0  0  0  0  0
   -1.5000    0.0000    0.0000 C   0  0  0  0  0  0  0  0  0  0  0  0
   -3.0000    0.0000    0.0000 C   0  0  0  0  0  0  0  0  0  0  0  0
   -3.8817   -1.2135    0.0000 N   0  0  0  0  0  0  0  0  0  0  0  0
   -5.3083   -0.7500    0.0000 N   0  0  0  0  0  0  0  0  0  0  0  0
   -6.5218   -1.6317    0.0000 C   0  0  0  0  0  0  0  0  0  0  0  0
   -7.8921   -1.0216    0.0000 C   0  0  0  0  0  0  0  0  0  0  0  0
   -9.1056   -1.9033    0.0000 C   0  0  0  0  0  0  0  0  0  0  0  0
   -8.9488   -3.3950    0.0000 C   0  0  0  0  0  0  0  0  0  0  0  0
   -7.5785   -4.0051    0.0000 C   0  0  0  0  0  0  0  0  0  0  0  0
   -7.4217   -5.4969    0.0000 N   0  0  0  0  0  0  0  0  0  0  0  0
   -8.6353   -6.3786    0.0000 C   0  0  0  0  0  0  0  0  0  0  0  0
  -10.0056   -5.7685    0.0000 O   0  0  0  0  0  0  0  0  0  0  0  0
   -8.4785   -7.8704    0.0000 C   0  0  0  0  0  0  0  0  0  0  0  0
   -9.6920   -8.7521    0.0000 C   0  0  0  0  0  0  0  0  0  0  0  0
   -9.5352  -10.2438    0.0000 C   0  0  0  0  0  0  0  0  0  0  0  0
   -8.1649  -10.8539    0.0000 C   0  0  0  0  0  0  0  0  0  0  0  0
   -6.9514   -9.9723    0.0000 C   0  0  0  0  0  0  0  0  0  0  0  0
   -5.5810  -10.5824    0.0000 C   0  0  0  0  0  0  0  0  0  0  0  0
   -4.2107  -11.1925    0.0000 F   0  0  0  0  0  0  0  0  0  0  0  0
   -6.1911  -11.9527    0.0000 F   0  0  0  0  0  0  0  0  0  0  0  0
   -4.9709   -9.2121    0.0000 F   0  0  0  0  0  0  0  0  0  0  0  0
   -7.1081   -8.4805    0.0000 C   0  0  0  0  0  0  0  0  0  0  0  0
   -6.3650   -3.1235    0.0000 C   0  0  0  0  0  0  0  0  0  0  0  0
   -5.3083    0.7500    0.0000 C   0  0  0  0  0  0  0  0  0  0  0  0
   -3.8817    1.2135    0.0000 C   0  0  0  0  0  0  0  0  0  0  0  0
   -3.4182    2.6401    0.0000 C   0  0  0  0  0  0  0  0  0  0  0  0
   -1.9509    2.9520    0.0000 C   0  0  0  0  0  0  0  0  0  0  0  0
   -1.4874    4.3786    0.0000 C   0  0  0  0  0  0  0  0  0  0  0  0
   -2.4911    5.4933    0.0000 N   0  0  0  0  0  0  0  0  0  0  0  0
   -3.9583    5.1814    0.0000 C   0  0  0  0  0  0  0  0  0  0  0  0
   -4.4218    3.7548    0.0000 C   0  0  0  0  0  0  0  0  0  0  0  0
   -0.7500    1.2990    0.0000 C   0  0  0  0  0  0  0  0  0  0  0  0
    0.7500    1.2990    0.0000 C   0  0  0  0  0  0  0  0  0  0  0  0
    1.5000    2.5981    0.0000 Cl  0  0  0  0  0  0  0  0  0  0  0  0
  1  2  1  0
  2  3  1  0
  3  4  2  0
  4  5  1  0
  5  6  2  0
  6  7  1  0
  7  8  2  0
  8  9  1  0
  9 10  1  0
 10 11  2  0
 11 12  1  0
 12 13  2  0
 13 14  1  0
 14 15  1  0
 15 16  1  0
 16 17  2  0
 16 18  1  0
 18 19  2  0
 19 20  1  0
 20 21  2  0
 21 22  1  0
 22 23  1  0
 23 24  1  0
 23 25  1  0
 23 26  1  0
 22 27  2  0
 14 28  2  0
  9 29  1  0
 29 30  2  0
 30 31  1  0
 31 32  2  0
 32 33  1  0
 33 34  2  0
 34 35  1  0
 35 36  2  0
  6 37  1  0
 37 38  2  0
 38 39  1  0
 38  3  1  0
 30  7  1  0
 36 31  1  0
 28 10  1  0
 27 18  1  0
M  END
>  <Compound_ID>  (147) 
CHEMBL4553144

>  <Active>  (147) 
0

>  <Smiles>  (147) 
COc1ccc(-c2nn(-c3cccc(NC(=O)c4cccc(C(F)(F)F)c4)c3)cc2-c2ccncc2)cc1Cl

>  <canonical_smi>  (147) 
COc1ccc(-c2nn(-c3cccc(NC(=O)c4cccc(C(F)(F)F)c4)c3)cc2-c2ccncc2)cc1Cl

>  <Set>  (147) 
G2 inactive

>  <Set_type>  (147) 
External

>  <MW>  (147) 
548.95

>  <HBD>  (147) 
1

>  <HBA>  (147) 
4

>  <NRB>  (147) 
6

>  <NR>  (147) 
5

>  <NAR>  (147) 
5

>  <PSA>  (147) 
69.04

>  <Standard Type>  (147) 
Inhibition

>  <Standard Relation>  (147) 
'='

>  <Standard Units>  (147) 
%

>  <Standard Value>  (147) 
18.96

>  <Assay ChEMBL ID>  (147) 
CHEMBL4313422

>  <Assay Description>  (147) 
Inhibition of human FMS at 10 uM using poly[Glu:Tyr] (4:1) as substrate by [gamma-33P]-ATP assay relative to control

>  <BAO Label>  (147) 
single protein format

$$$$

     RDKit          2D

 36 40  0  0  0  0  0  0  0  0999 V2000
    4.2921   -4.8538    0.0000 C   0  0  0  0  0  0  0  0  0  0  0  0
    3.9802   -3.3866    0.0000 C   0  0  0  0  0  0  0  0  0  0  0  0
    5.0950   -2.3829    0.0000 C   0  0  0  0  0  0  0  0  0  0  0  0
    4.7831   -0.9157    0.0000 C   0  0  0  0  0  0  0  0  0  0  0  0
    5.8978    0.0880    0.0000 N   0  0  0  0  0  0  0  0  0  0  0  0
    7.3244   -0.3755    0.0000 C   0  0  0  0  0  0  0  0  0  0  0  0
    7.6363   -1.8427    0.0000 C   0  0  0  0  0  0  0  0  0  0  0  0
    9.0628   -2.3062    0.0000 C   0  0  0  0  0  0  0  0  0  0  0  0
    9.3747   -3.7735    0.0000 N   0  0  0  0  0  0  0  0  0  0  0  0
    8.2600   -4.7772    0.0000 C   0  0  0  0  0  0  0  0  0  0  0  0
    8.5719   -6.2444    0.0000 C   0  0  0  0  0  0  0  0  0  0  0  0
    9.9984   -6.7079    0.0000 N   0  0  0  0  0  0  0  0  0  0  0  0
   10.3103   -8.1751    0.0000 C   0  0  0  0  0  0  0  0  0  0  0  0
    9.1956   -9.1788    0.0000 C   0  0  0  0  0  0  0  0  0  0  0  0
    9.5075  -10.6460    0.0000 C   0  0  0  0  0  0  0  0  0  0  0  0
    8.3927  -11.6497    0.0000 N   0  0  0  0  0  0  0  0  0  0  0  0
    8.7046  -13.1170    0.0000 C   0  0  0  0  0  0  0  0  0  0  0  0
    6.9662  -11.1862    0.0000 C   0  0  0  0  0  0  0  0  0  0  0  0
   11.1132   -5.7042    0.0000 C   0  0  0  0  0  0  0  0  0  0  0  0
   10.8013   -4.2370    0.0000 C   0  0  0  0  0  0  0  0  0  0  0  0
   10.1776   -1.3025    0.0000 N   0  0  0  0  0  0  0  0  0  0  0  0
    9.8657    0.1647    0.0000 C   0  0  0  0  0  0  0  0  0  0  0  0
    8.4391    0.6282    0.0000 N   0  0  0  0  0  0  0  0  0  0  0  0
    3.3565   -0.4521    0.0000 C   0  0  0  0  0  0  0  0  0  0  0  0
    3.0446    1.0151    0.0000 O   0  0  0  0  0  0  0  0  0  0  0  0
    2.2418   -1.4558    0.0000 N   0  0  0  0  0  0  0  0  0  0  0  0
    2.5537   -2.9231    0.0000 C   0  0  0  0  0  0  0  0  0  0  0  0
    1.2546   -3.6731    0.0000 C   0  0  0  0  0  0  0  0  0  0  0  0
    1.0978   -5.1648    0.0000 O   0  0  0  0  0  0  0  0  0  0  0  0
    0.1399   -2.6694    0.0000 N   0  0  0  0  0  0  0  0  0  0  0  0
    0.7500   -1.2990    0.0000 C   0  0  0  0  0  0  0  0  0  0  0  0
    1.5000    0.0000    0.0000 C   0  0  0  0  0  0  0  0  0  0  0  0
    0.7500    1.2990    0.0000 C   0  0  0  0  0  0  0  0  0  0  0  0
   -0.7500    1.2990    0.0000 C   0  0  0  0  0  0  0  0  0  0  0  0
   -1.5000    0.0000    0.0000 C   0  0  0  0  0  0  0  0  0  0  0  0
   -0.7500   -1.2990    0.0000 C   0  0  0  0  0  0  0  0  0  0  0  0
  1  2  1  0
  2  3  1  0
  3  4  2  0
  4  5  1  0
  5  6  1  0
  6  7  2  0
  7  8  1  0
  8  9  1  0
  9 10  1  0
 10 11  1  0
 11 12  1  0
 12 13  1  0
 13 14  1  0
 14 15  1  0
 15 16  1  0
 16 17  1  0
 16 18  1  0
 12 19  1  0
 19 20  1  0
  8 21  2  0
 21 22  1  0
 22 23  2  0
  4 24  1  0
 24 25  2  0
 24 26  1  0
 26 27  1  0
 27 28  1  0
 28 29  2  0
 28 30  1  0
 30 31  1  0
 31 32  1  0
 32 33  1  0
 33 34  1  0
 34 35  1  0
 35 36  1  0
 27  2  2  0
 36 31  1  0
 23  6  1  0
 31 26  1  0
 20  9  1  0
M  END
>  <Compound_ID>  (148) 
CHEMBL4757546

>  <Active>  (148) 
0

>  <Smiles>  (148) 
Cc1cc(Nc2cc(N3CCN(CCCN(C)C)CC3)ncn2)c(=O)n2c1C(=O)NC21CCCCC1

>  <canonical_smi>  (148) 
Cc1cc(Nc2cc(N3CCN(CCCN(C)C)CC3)ncn2)c(=O)n2c1C(=O)NC21CCCCC1

>  <Set>  (148) 
G2 inactive

>  <Set_type>  (148) 
External

>  <MW>  (148) 
494.64

>  <HBD>  (148) 
2

>  <HBA>  (148) 
8

>  <NRB>  (148) 
7

>  <NR>  (148) 
5

>  <NAR>  (148) 
2

>  <PSA>  (148) 
98.63

>  <Standard Type>  (148) 
Inhibition

>  <Standard Relation>  (148) 
'='

>  <Standard Units>  (148) 
%

>  <Standard Value>  (148) 
6.0

>  <Assay ChEMBL ID>  (148) 
CHEMBL4666413

>  <Assay Description>  (148) 
Inhibition of CSF1R (unknown origin) at 500 nM relative to control

>  <BAO Label>  (148) 
single protein format

$$$$

     RDKit          2D

 34 37  0  0  0  0  0  0  0  0999 V2000
    3.0000    0.0000    0.0000 C   0  0  0  0  0  0  0  0  0  0  0  0
    1.5000    0.0000    0.0000 C   0  0  0  0  0  0  0  0  0  0  0  0
    0.7500   -1.2990    0.0000 C   0  0  0  0  0  0  0  0  0  0  0  0
   -0.7500   -1.2990    0.0000 N   0  0  0  0  0  0  0  0  0  0  0  0
   -1.5000    0.0000    0.0000 C   0  0  0  0  0  0  0  0  0  0  0  0
   -3.0000    0.0000    0.0000 N   0  0  0  0  0  0  0  0  0  0  0  0
   -3.7500    1.2990    0.0000 C   0  0  0  0  0  0  0  0  0  0  0  0
   -3.0000    2.5981    0.0000 C   0  0  0  0  0  0  0  0  0  0  0  0
   -3.7500    3.8971    0.0000 C   0  0  0  0  0  0  0  0  0  0  0  0
   -5.2500    3.8971    0.0000 C   0  0  0  0  0  0  0  0  0  0  0  0
   -6.0000    5.1962    0.0000 F   0  0  0  0  0  0  0  0  0  0  0  0
   -6.0000    2.5981    0.0000 C   0  0  0  0  0  0  0  0  0  0  0  0
   -5.2500    1.2990    0.0000 C   0  0  0  0  0  0  0  0  0  0  0  0
   -6.0000    0.0000    0.0000 Cl  0  0  0  0  0  0  0  0  0  0  0  0
   -0.7500    1.2990    0.0000 N   0  0  0  0  0  0  0  0  0  0  0  0
    0.7500    1.2990    0.0000 C   0  0  0  0  0  0  0  0  0  0  0  0
    1.5000    2.5981    0.0000 C   0  0  0  0  0  0  0  0  0  0  0  0
    0.8899    3.9684    0.0000 C   0  0  0  0  0  0  0  0  0  0  0  0
    2.0046    4.9721    0.0000 N   0  0  0  0  0  0  0  0  0  0  0  0
    3.3037    4.2221    0.0000 C   0  0  0  0  0  0  0  0  0  0  0  0
    4.6740    4.8322    0.0000 C   0  0  0  0  0  0  0  0  0  0  0  0
    4.8308    6.3240    0.0000 O   0  0  0  0  0  0  0  0  0  0  0  0
    5.8875    3.9505    0.0000 N   0  0  0  0  0  0  0  0  0  0  0  0
    7.2578    4.5606    0.0000 C   0  0  0  0  0  0  0  0  0  0  0  0
    7.4146    6.0524    0.0000 C   0  0  0  0  0  0  0  0  0  0  0  0
    8.7849    6.6625    0.0000 O   0  0  0  0  0  0  0  0  0  0  0  0
    8.4713    3.6789    0.0000 C   0  0  0  0  0  0  0  0  0  0  0  0
    8.3145    2.1872    0.0000 C   0  0  0  0  0  0  0  0  0  0  0  0
    9.5281    1.3055    0.0000 C   0  0  0  0  0  0  0  0  0  0  0  0
   10.8984    1.9156    0.0000 C   0  0  0  0  0  0  0  0  0  0  0  0
   11.0552    3.4074    0.0000 C   0  0  0  0  0  0  0  0  0  0  0  0
   12.4255    4.0175    0.0000 Cl  0  0  0  0  0  0  0  0  0  0  0  0
    9.8417    4.2890    0.0000 C   0  0  0  0  0  0  0  0  0  0  0  0
    2.9918    2.7549    0.0000 C   0  0  0  0  0  0  0  0  0  0  0  0
  1  2  1  0
  2  3  2  0
  3  4  1  0
  4  5  2  0
  5  6  1  0
  6  7  1  0
  7  8  2  0
  8  9  1  0
  9 10  2  0
 10 11  1  0
 10 12  1  0
 12 13  2  0
 13 14  1  0
  5 15  1  0
 15 16  2  0
 16 17  1  0
 17 18  2  0
 18 19  1  0
 19 20  1  0
 20 21  1  0
 21 22  2  0
 21 23  1  0
 23 24  1  0
 24 25  1  6
 25 26  1  0
 24 27  1  0
 27 28  2  0
 28 29  1  0
 29 30  2  0
 30 31  1  0
 31 32  1  0
 31 33  2  0
 20 34  2  0
 16  2  1  0
 34 17  1  0
 13  7  1  0
 33 27  1  0
M  END
>  <Compound_ID>  (149) 
CHEMBL583042

>  <Active>  (149) 
0

>  <Smiles>  (149) 
Cc1cnc(Nc2ccc(F)cc2Cl)nc1-c1c[nH]c(C(=O)N[C@H](CO)c2cccc(Cl)c2)c1

>  <canonical_smi>  (149) 
Cc1cnc(Nc2ccc(F)cc2Cl)nc1-c1c[nH]c(C(=O)N[C@H](CO)c2cccc(Cl)c2)c1

>  <Set>  (149) 
G2 inactive

>  <Set_type>  (149) 
External

>  <MW>  (149) 
500.36

>  <HBD>  (149) 
4

>  <HBA>  (149) 
5

>  <NRB>  (149) 
7

>  <NR>  (149) 
4

>  <NAR>  (149) 
4

>  <PSA>  (149) 
102.93

>  <Standard Type>  (149) 
Inhibition

>  <Standard Relation>  (149) 
'='

>  <Standard Units>  (149) 
%

>  <Standard Value>  (149) 
6.0

>  <Assay ChEMBL ID>  (149) 
CHEMBL1041364

>  <Assay Description>  (149) 
Inhibition of FMS at 1 uM

>  <BAO Label>  (149) 
single protein format

$$$$

     RDKit          2D

 29 33  0  0  0  0  0  0  0  0999 V2000
   -0.0000   -5.1073    0.0000 O   0  0  0  0  0  0  0  0  0  0  0  0
   -0.0000   -3.6073    0.0000 C   0  0  0  0  0  0  0  0  0  0  0  0
    1.2135   -2.7256    0.0000 N   0  0  0  0  0  0  0  0  0  0  0  0
    0.7500   -1.2990    0.0000 C   0  0  0  0  0  0  0  0  0  0  0  0
    1.5000    0.0000    0.0000 C   0  0  0  0  0  0  0  0  0  0  0  0
    0.7500    1.2990    0.0000 C   0  0  0  0  0  0  0  0  0  0  0  0
   -0.7500    1.2990    0.0000 C   0  0  0  0  0  0  0  0  0  0  0  0
   -1.5000    0.0000    0.0000 C   0  0  0  0  0  0  0  0  0  0  0  0
   -0.7500   -1.2990    0.0000 C   0  0  0  0  0  0  0  0  0  0  0  0
   -1.2135   -2.7256    0.0000 C   0  0  0  0  0  0  0  0  0  0  0  0
   -2.6401   -3.1891    0.0000 C   0  0  0  0  0  0  0  0  0  0  0  0
   -3.8536   -2.3075    0.0000 C   0  0  0  0  0  0  0  0  0  0  0  0
   -3.8536   -0.8075    0.0000 O   0  0  0  0  0  0  0  0  0  0  0  0
   -5.0672   -3.1891    0.0000 N   0  0  0  0  0  0  0  0  0  0  0  0
   -6.4937   -2.7256    0.0000 C   0  0  0  0  0  0  0  0  0  0  0  0
   -6.8056   -1.2584    0.0000 C   0  0  0  0  0  0  0  0  0  0  0  0
   -8.2322   -0.7949    0.0000 C   0  0  0  0  0  0  0  0  0  0  0  0
   -8.5441    0.6723    0.0000 C   0  0  0  0  0  0  0  0  0  0  0  0
   -7.4293    1.6760    0.0000 C   0  0  0  0  0  0  0  0  0  0  0  0
   -7.7412    3.1433    0.0000 C   0  0  0  0  0  0  0  0  0  0  0  0
   -9.1678    3.6068    0.0000 C   0  0  0  0  0  0  0  0  0  0  0  0
  -10.2825    2.6031    0.0000 C   0  0  0  0  0  0  0  0  0  0  0  0
   -9.9707    1.1359    0.0000 C   0  0  0  0  0  0  0  0  0  0  0  0
   -4.6036   -4.6157    0.0000 C   0  0  0  0  0  0  0  0  0  0  0  0
   -5.3536   -5.9148    0.0000 C   0  0  0  0  0  0  0  0  0  0  0  0
   -4.6036   -7.2138    0.0000 C   0  0  0  0  0  0  0  0  0  0  0  0
   -3.1036   -7.2138    0.0000 C   0  0  0  0  0  0  0  0  0  0  0  0
   -2.3536   -5.9148    0.0000 C   0  0  0  0  0  0  0  0  0  0  0  0
   -3.1036   -4.6157    0.0000 C   0  0  0  0  0  0  0  0  0  0  0  0
  1  2  2  0
  2  3  1  0
  3  4  1  0
  4  5  2  0
  5  6  1  0
  6  7  2  0
  7  8  1  0
  8  9  2  0
  9 10  1  0
 10 11  2  0
 11 12  1  0
 12 13  2  0
 12 14  1  0
 14 15  1  0
 15 16  1  0
 16 17  1  0
 17 18  1  0
 18 19  2  0
 19 20  1  0
 20 21  2  0
 21 22  1  0
 22 23  2  0
 14 24  1  0
 24 25  2  0
 25 26  1  0
 26 27  2  0
 27 28  1  0
 28 29  2  0
 10  2  1  0
 29 11  1  0
  9  4  1  0
 23 18  1  0
 29 24  1  0
M  END
>  <Compound_ID>  (150) 
CHEMBL607196

>  <Active>  (150) 
0

>  <Smiles>  (150) 
O=C1Nc2ccccc2/C1=C1\C(=O)N(CCCc2ccccc2)c2ccccc21

>  <canonical_smi>  (150) 
O=C1Nc2ccccc2/C1=C1\C(=O)N(CCCc2ccccc2)c2ccccc21

>  <Set>  (150) 
G2 inactive

>  <Set_type>  (150) 
External

>  <MW>  (150) 
380.45

>  <HBD>  (150) 
1

>  <HBA>  (150) 
2

>  <NRB>  (150) 
4

>  <NR>  (150) 
5

>  <NAR>  (150) 
3

>  <PSA>  (150) 
49.41

>  <Standard Type>  (150) 
Inhibition

>  <Standard Relation>  (150) 
'='

>  <Standard Units>  (150) 
%

>  <Standard Value>  (150) 
11.0

>  <Assay ChEMBL ID>  (150) 
CHEMBL1069291

>  <Assay Description>  (150) 
Inhibition of CSF1R at 10 uM

>  <BAO Label>  (150) 
single protein format

$$$$

     RDKit          2D

 34 39  0  0  0  0  0  0  0  0999 V2000
   10.0318  -14.2128    0.0000 N   0  0  0  0  0  0  0  0  0  0  0  0
    8.6052  -13.7493    0.0000 C   0  0  0  0  0  0  0  0  0  0  0  0
    7.4905  -14.7530    0.0000 C   0  0  0  0  0  0  0  0  0  0  0  0
    6.0639  -14.2895    0.0000 C   0  0  0  0  0  0  0  0  0  0  0  0
    5.7520  -12.8222    0.0000 C   0  0  0  0  0  0  0  0  0  0  0  0
    6.8668  -11.8185    0.0000 N   0  0  0  0  0  0  0  0  0  0  0  0
    6.5549  -10.3513    0.0000 C   0  0  0  0  0  0  0  0  0  0  0  0
    7.6696   -9.3476    0.0000 O   0  0  0  0  0  0  0  0  0  0  0  0
    5.1283   -9.8878    0.0000 C   0  0  0  0  0  0  0  0  0  0  0  0
    4.8164   -8.4206    0.0000 C   0  0  0  0  0  0  0  0  0  0  0  0
    3.3899   -7.9570    0.0000 C   0  0  0  0  0  0  0  0  0  0  0  0
    2.2751   -8.9607    0.0000 C   0  0  0  0  0  0  0  0  0  0  0  0
    0.8486   -8.4972    0.0000 C   0  0  0  0  0  0  0  0  0  0  0  0
   -0.2662   -9.5009    0.0000 C   0  0  0  0  0  0  0  0  0  0  0  0
   -1.6927   -9.0374    0.0000 C   0  0  0  0  0  0  0  0  0  0  0  0
   -2.0046   -7.5702    0.0000 C   0  0  0  0  0  0  0  0  0  0  0  0
   -3.3037   -6.8202    0.0000 N   0  0  0  0  0  0  0  0  0  0  0  0
   -2.9918   -5.3529    0.0000 C   0  0  0  0  0  0  0  0  0  0  0  0
   -1.5000   -5.1962    0.0000 C   0  0  0  0  0  0  0  0  0  0  0  0
   -0.7500   -3.8971    0.0000 C   0  0  0  0  0  0  0  0  0  0  0  0
    0.7500   -3.8971    0.0000 C   0  0  0  0  0  0  0  0  0  0  0  0
    1.5000   -2.5981    0.0000 C   0  0  0  0  0  0  0  0  0  0  0  0
    0.7500   -1.2990    0.0000 C   0  0  0  0  0  0  0  0  0  0  0  0
    1.5000    0.0000    0.0000 C   0  0  0  0  0  0  0  0  0  0  0  0
    0.7500    1.2990    0.0000 N   0  0  0  0  0  0  0  0  0  0  0  0
   -0.7500    1.2990    0.0000 C   0  0  0  0  0  0  0  0  0  0  0  0
   -1.5000    0.0000    0.0000 C   0  0  0  0  0  0  0  0  0  0  0  0
   -0.7500   -1.2990    0.0000 C   0  0  0  0  0  0  0  0  0  0  0  0
   -1.5000   -2.5981    0.0000 C   0  0  0  0  0  0  0  0  0  0  0  0
   -0.8899   -6.5665    0.0000 N   0  0  0  0  0  0  0  0  0  0  0  0
    0.5367   -7.0300    0.0000 N   0  0  0  0  0  0  0  0  0  0  0  0
    2.5870  -10.4280    0.0000 C   0  0  0  0  0  0  0  0  0  0  0  0
    4.0136  -10.8915    0.0000 C   0  0  0  0  0  0  0  0  0  0  0  0
    8.2933  -12.2821    0.0000 C   0  0  0  0  0  0  0  0  0  0  0  0
  2  1  1  1
  2  3  1  0
  3  4  1  0
  4  5  1  0
  5  6  1  0
  6  7  1  0
  7  8  2  0
  7  9  1  0
  9 10  2  0
 10 11  1  0
 11 12  2  0
 12 13  1  0
 13 14  1  0
 14 15  2  0
 15 16  1  0
 16 17  2  0
 17 18  1  0
 18 19  2  0
 19 20  1  0
 20 21  2  0
 21 22  1  0
 22 23  2  0
 23 24  1  0
 24 25  2  0
 25 26  1  0
 26 27  2  0
 27 28  1  0
 28 29  2  0
 19 30  1  0
 30 31  1  0
 12 32  1  0
 32 33  2  0
  6 34  1  0
 34  2  1  0
 33  9  1  0
 31 13  2  0
 30 16  1  0
 29 20  1  0
 28 23  1  0
M  END
>  <Compound_ID>  (151) 
CHEMBL4878199

>  <Active>  (151) 
0

>  <Smiles>  (151) 
N[C@H]1CCCN(C(=O)c2ccc(-c3ccc4ncc(-c5ccc6cnccc6c5)n4n3)cc2)C1

>  <canonical_smi>  (151) 
N[C@H]1CCCN(C(=O)c2ccc(-c3ccc4ncc(-c5ccc6cnccc6c5)n4n3)cc2)C1

>  <Set>  (151) 
G2 inactive

>  <Set_type>  (151) 
External

>  <MW>  (151) 
448.53

>  <HBD>  (151) 
1

>  <HBA>  (151) 
5

>  <NRB>  (151) 
3

>  <NR>  (151) 
6

>  <NAR>  (151) 
5

>  <PSA>  (151) 
89.41

>  <Standard Type>  (151) 
Inhibition

>  <Standard Relation>  (151) 
'='

>  <Standard Units>  (151) 
%

>  <Standard Value>  (151) 
11.64

>  <Assay ChEMBL ID>  (151) 
CHEMBL4822887

>  <Assay Description>  (151) 
Inhibition of CSF1R (unknown origin) at 500 nM

>  <BAO Label>  (151) 
single protein format

$$$$

     RDKit          2D

 22 24  0  0  0  0  0  0  0  0999 V2000
    1.8478   -6.4639    0.0000 O   0  0  0  0  0  0  0  0  0  0  0  0
    2.0046   -4.9721    0.0000 C   0  0  0  0  0  0  0  0  0  0  0  0
    3.3037   -4.2221    0.0000 N   0  0  0  0  0  0  0  0  0  0  0  0
    2.9918   -2.7549    0.0000 C   0  0  0  0  0  0  0  0  0  0  0  0
    3.9955   -1.6402    0.0000 O   0  0  0  0  0  0  0  0  0  0  0  0
    1.5000   -2.5981    0.0000 C   0  0  0  0  0  0  0  0  0  0  0  0
    0.7500   -1.2990    0.0000 C   0  0  0  0  0  0  0  0  0  0  0  0
    1.5000    0.0000    0.0000 C   0  0  0  0  0  0  0  0  0  0  0  0
    0.7500    1.2990    0.0000 C   0  0  0  0  0  0  0  0  0  0  0  0
   -0.7500    1.2990    0.0000 C   0  0  0  0  0  0  0  0  0  0  0  0
   -1.5000    0.0000    0.0000 C   0  0  0  0  0  0  0  0  0  0  0  0
   -0.7500   -1.2990    0.0000 C   0  0  0  0  0  0  0  0  0  0  0  0
   -1.5000   -2.5981    0.0000 Cl  0  0  0  0  0  0  0  0  0  0  0  0
    0.8899   -3.9684    0.0000 C   0  0  0  0  0  0  0  0  0  0  0  0
   -0.5773   -4.2803    0.0000 N   0  0  0  0  0  0  0  0  0  0  0  0
   -1.0409   -5.7068    0.0000 C   0  0  0  0  0  0  0  0  0  0  0  0
   -2.5081   -6.0187    0.0000 C   0  0  0  0  0  0  0  0  0  0  0  0
   -2.9716   -7.4453    0.0000 C   0  0  0  0  0  0  0  0  0  0  0  0
   -1.9679   -8.5600    0.0000 C   0  0  0  0  0  0  0  0  0  0  0  0
   -0.5007   -8.2481    0.0000 C   0  0  0  0  0  0  0  0  0  0  0  0
    0.5030   -9.3629    0.0000 O   0  0  0  0  0  0  0  0  0  0  0  0
   -0.0372   -6.8216    0.0000 C   0  0  0  0  0  0  0  0  0  0  0  0
  1  2  2  0
  2  3  1  0
  3  4  1  0
  4  5  2  0
  4  6  1  0
  6  7  1  0
  7  8  2  0
  8  9  1  0
  9 10  2  0
 10 11  1  0
 11 12  2  0
 12 13  1  0
  6 14  2  0
 14 15  1  0
 15 16  1  0
 16 17  2  0
 17 18  1  0
 18 19  2  0
 19 20  1  0
 20 21  1  0
 20 22  2  0
 14  2  1  0
 22 16  1  0
 12  7  1  0
M  END
>  <Compound_ID>  (152) 
CHEMBL160937

>  <Active>  (152) 
0

>  <Smiles>  (152) 
O=C1NC(=O)C(c2ccccc2Cl)=C1Nc1cccc(O)c1

>  <canonical_smi>  (152) 
O=C1NC(=O)C(c2ccccc2Cl)=C1Nc1cccc(O)c1

>  <Set>  (152) 
G2 inactive

>  <Set_type>  (152) 
External

>  <MW>  (152) 
314.73

>  <HBD>  (152) 
3

>  <HBA>  (152) 
4

>  <NRB>  (152) 
3

>  <NR>  (152) 
3

>  <NAR>  (152) 
2

>  <PSA>  (152) 
78.43

>  <Standard Type>  (152) 
Inhibition

>  <Standard Relation>  (152) 
'='

>  <Standard Units>  (152) 
%

>  <Standard Value>  (152) 
0.82

>  <Assay ChEMBL ID>  (152) 
CHEMBL1962102

>  <Assay Description>  (152) 
GSK_PKIS: FMS mean inhibition at 0.1 uM [Nanosyn]

>  <BAO Label>  (152) 
single protein format

$$$$

     RDKit          2D

 26 29  0  0  0  0  0  0  0  0999 V2000
   -0.0000   -5.1073    0.0000 O   0  0  0  0  0  0  0  0  0  0  0  0
   -0.0000   -3.6073    0.0000 C   0  0  0  0  0  0  0  0  0  0  0  0
    1.2135   -2.7256    0.0000 N   0  0  0  0  0  0  0  0  0  0  0  0
    0.7500   -1.2990    0.0000 C   0  0  0  0  0  0  0  0  0  0  0  0
    1.5000    0.0000    0.0000 C   0  0  0  0  0  0  0  0  0  0  0  0
    0.7500    1.2990    0.0000 C   0  0  0  0  0  0  0  0  0  0  0  0
   -0.7500    1.2990    0.0000 C   0  0  0  0  0  0  0  0  0  0  0  0
   -1.5000    2.5981    0.0000 C   0  0  0  0  0  0  0  0  0  0  0  0
   -0.7500    3.8971    0.0000 C   0  0  0  0  0  0  0  0  0  0  0  0
   -1.5000    5.1962    0.0000 C   0  0  0  0  0  0  0  0  0  0  0  0
   -3.0000    5.1962    0.0000 C   0  0  0  0  0  0  0  0  0  0  0  0
   -3.7500    3.8971    0.0000 N   0  0  0  0  0  0  0  0  0  0  0  0
   -3.0000    2.5981    0.0000 C   0  0  0  0  0  0  0  0  0  0  0  0
   -1.5000    0.0000    0.0000 C   0  0  0  0  0  0  0  0  0  0  0  0
   -0.7500   -1.2990    0.0000 C   0  0  0  0  0  0  0  0  0  0  0  0
   -1.2135   -2.7256    0.0000 C   0  0  0  0  0  0  0  0  0  0  0  0
   -2.6401   -3.1891    0.0000 C   0  0  0  0  0  0  0  0  0  0  0  0
   -2.9520   -4.6564    0.0000 C   0  0  0  0  0  0  0  0  0  0  0  0
   -4.3786   -5.1199    0.0000 C   0  0  0  0  0  0  0  0  0  0  0  0
   -4.6904   -6.5871    0.0000 C   0  0  0  0  0  0  0  0  0  0  0  0
   -6.1170   -7.0506    0.0000 Br  0  0  0  0  0  0  0  0  0  0  0  0
   -3.5757   -7.5908    0.0000 C   0  0  0  0  0  0  0  0  0  0  0  0
   -3.8876   -9.0580    0.0000 O   0  0  0  0  0  0  0  0  0  0  0  0
   -2.1491   -7.1273    0.0000 C   0  0  0  0  0  0  0  0  0  0  0  0
   -1.0344   -8.1310    0.0000 Br  0  0  0  0  0  0  0  0  0  0  0  0
   -1.8373   -5.6601    0.0000 C   0  0  0  0  0  0  0  0  0  0  0  0
  1  2  2  0
  2  3  1  0
  3  4  1  0
  4  5  2  0
  5  6  1  0
  6  7  2  0
  7  8  1  0
  8  9  2  0
  9 10  1  0
 10 11  2  0
 11 12  1  0
 12 13  2  0
  7 14  1  0
 14 15  2  0
 15 16  1  0
 16 17  2  3
 17 18  1  0
 18 19  2  0
 19 20  1  0
 20 21  1  0
 20 22  2  0
 22 23  1  0
 22 24  1  0
 24 25  1  0
 24 26  2  0
 16  2  1  0
 26 18  1  0
 15  4  1  0
 13  8  1  0
M  END
>  <Compound_ID>  (153) 
CHEMBL1794050

>  <Active>  (153) 
0

>  <Smiles>  (153) 
O=C1Nc2ccc(-c3cccnc3)cc2C1=Cc1cc(Br)c(O)c(Br)c1

>  <canonical_smi>  (153) 
O=C1Nc2ccc(-c3cccnc3)cc2C1=Cc1cc(Br)c(O)c(Br)c1

>  <Set>  (153) 
G2 inactive

>  <Set_type>  (153) 
External

>  <MW>  (153) 
472.14

>  <HBD>  (153) 
2

>  <HBA>  (153) 
3

>  <NRB>  (153) 
2

>  <NR>  (153) 
4

>  <NAR>  (153) 
3

>  <PSA>  (153) 
62.22

>  <Standard Type>  (153) 
Inhibition

>  <Standard Relation>  (153) 
'='

>  <Standard Units>  (153) 
%

>  <Standard Value>  (153) 
6.01

>  <Assay ChEMBL ID>  (153) 
CHEMBL1962102

>  <Assay Description>  (153) 
GSK_PKIS: FMS mean inhibition at 0.1 uM [Nanosyn]

>  <BAO Label>  (153) 
single protein format

$$$$

     RDKit          2D

 30 33  0  0  0  0  0  0  0  0999 V2000
   -3.7548   -2.1855    0.0000 C   0  0  0  0  0  0  0  0  0  0  0  0
   -2.6401   -3.1891    0.0000 C   0  0  0  0  0  0  0  0  0  0  0  0
   -1.2135   -2.7256    0.0000 N   0  0  0  0  0  0  0  0  0  0  0  0
   -0.0000   -3.6073    0.0000 C   0  0  0  0  0  0  0  0  0  0  0  0
   -0.0000   -5.1073    0.0000 C   0  0  0  0  0  0  0  0  0  0  0  0
    1.2135   -5.9890    0.0000 N   0  0  0  0  0  0  0  0  0  0  0  0
    0.7500   -7.4156    0.0000 O   0  0  0  0  0  0  0  0  0  0  0  0
   -0.7500   -7.4156    0.0000 N   0  0  0  0  0  0  0  0  0  0  0  0
   -1.2135   -5.9890    0.0000 C   0  0  0  0  0  0  0  0  0  0  0  0
   -2.6401   -5.5255    0.0000 N   0  0  0  0  0  0  0  0  0  0  0  0
    1.2135   -2.7256    0.0000 N   0  0  0  0  0  0  0  0  0  0  0  0
    0.7500   -1.2990    0.0000 C   0  0  0  0  0  0  0  0  0  0  0  0
    1.5000    0.0000    0.0000 C   0  0  0  0  0  0  0  0  0  0  0  0
    3.0000    0.0000    0.0000 C   0  0  0  0  0  0  0  0  0  0  0  0
    4.5000    0.0000    0.0000 C   0  0  0  0  0  0  0  0  0  0  0  0
    6.0000    0.0000    0.0000 C   0  0  0  0  0  0  0  0  0  0  0  0
    6.0000   -1.5000    0.0000 C   0  0  0  0  0  0  0  0  0  0  0  0
    6.0000    1.5000    0.0000 C   0  0  0  0  0  0  0  0  0  0  0  0
    7.5000    0.0000    0.0000 O   0  0  0  0  0  0  0  0  0  0  0  0
    0.7500    1.2990    0.0000 N   0  0  0  0  0  0  0  0  0  0  0  0
   -0.7500    1.2990    0.0000 C   0  0  0  0  0  0  0  0  0  0  0  0
   -1.5000    0.0000    0.0000 C   0  0  0  0  0  0  0  0  0  0  0  0
   -3.0000    0.0000    0.0000 O   0  0  0  0  0  0  0  0  0  0  0  0
   -3.7500    1.2990    0.0000 C   0  0  0  0  0  0  0  0  0  0  0  0
   -3.0000    2.5981    0.0000 C   0  0  0  0  0  0  0  0  0  0  0  0
   -3.7500    3.8971    0.0000 C   0  0  0  0  0  0  0  0  0  0  0  0
   -5.2500    3.8971    0.0000 N   0  0  0  0  0  0  0  0  0  0  0  0
   -6.0000    2.5981    0.0000 C   0  0  0  0  0  0  0  0  0  0  0  0
   -5.2500    1.2990    0.0000 C   0  0  0  0  0  0  0  0  0  0  0  0
   -0.7500   -1.2990    0.0000 C   0  0  0  0  0  0  0  0  0  0  0  0
  1  2  1  0
  2  3  1  0
  3  4  1  0
  4  5  1  0
  5  6  2  0
  6  7  1  0
  7  8  1  0
  8  9  2  0
  9 10  1  0
  4 11  2  0
 11 12  1  0
 12 13  2  0
 13 14  1  0
 14 15  3  0
 15 16  1  0
 16 17  1  0
 16 18  1  0
 16 19  1  0
 13 20  1  0
 20 21  2  0
 21 22  1  0
 22 23  1  0
 23 24  1  0
 24 25  1  0
 25 26  1  0
 26 27  1  0
 27 28  1  0
 28 29  1  0
 22 30  2  0
 30  3  1  0
  9  5  1  0
 30 12  1  0
 29 24  1  0
M  END
>  <Compound_ID>  (154) 
CHEMBL1794066

>  <Active>  (154) 
0

>  <Smiles>  (154) 
CCn1c(-c2nonc2N)nc2c(C#CC(C)(C)O)ncc(OC3CCNCC3)c21

>  <canonical_smi>  (154) 
CCn1c(-c2nonc2N)nc2c(C#CC(C)(C)O)ncc(OC3CCNCC3)c21

>  <Set>  (154) 
G2 inactive

>  <Set_type>  (154) 
External

>  <MW>  (154) 
411.47

>  <HBD>  (154) 
3

>  <HBA>  (154) 
9

>  <NRB>  (154) 
4

>  <NR>  (154) 
4

>  <NAR>  (154) 
3

>  <PSA>  (154) 
137.14

>  <Standard Type>  (154) 
Inhibition

>  <Standard Relation>  (154) 
'='

>  <Standard Units>  (154) 
%

>  <Standard Value>  (154) 
2.06

>  <Assay ChEMBL ID>  (154) 
CHEMBL1962103

>  <Assay Description>  (154) 
GSK_PKIS: FMS mean inhibition at 1 uM [Nanosyn]

>  <BAO Label>  (154) 
single protein format

$$$$

     RDKit          2D

 28 32  0  0  0  0  0  0  0  0999 V2000
   -2.9520   -4.6564    0.0000 O   0  0  0  0  0  0  0  0  0  0  0  0
   -2.6401   -3.1891    0.0000 N   0  0  0  0  0  0  0  0  0  0  0  0
   -1.2135   -2.7256    0.0000 C   0  0  0  0  0  0  0  0  0  0  0  0
   -0.0000   -3.6073    0.0000 C   0  0  0  0  0  0  0  0  0  0  0  0
    1.2135   -2.7256    0.0000 C   0  0  0  0  0  0  0  0  0  0  0  0
    0.7500   -1.2990    0.0000 C   0  0  0  0  0  0  0  0  0  0  0  0
    1.5000    0.0000    0.0000 C   0  0  0  0  0  0  0  0  0  0  0  0
    0.7500    1.2990    0.0000 C   0  0  0  0  0  0  0  0  0  0  0  0
    1.5000    2.5981    0.0000 C   0  0  0  0  0  0  0  0  0  0  0  0
    0.8899    3.9684    0.0000 N   0  0  0  0  0  0  0  0  0  0  0  0
    2.0046    4.9721    0.0000 C   0  0  0  0  0  0  0  0  0  0  0  0
    1.8478    6.4639    0.0000 C   0  0  0  0  0  0  0  0  0  0  0  0
    3.0613    7.3456    0.0000 C   0  0  0  0  0  0  0  0  0  0  0  0
    2.9046    8.8373    0.0000 C   0  0  0  0  0  0  0  0  0  0  0  0
    1.5342    9.4474    0.0000 N   0  0  0  0  0  0  0  0  0  0  0  0
    0.3207    8.5658    0.0000 C   0  0  0  0  0  0  0  0  0  0  0  0
    0.4775    7.0740    0.0000 C   0  0  0  0  0  0  0  0  0  0  0  0
    3.3037    4.2221    0.0000 N   0  0  0  0  0  0  0  0  0  0  0  0
    2.9918    2.7549    0.0000 C   0  0  0  0  0  0  0  0  0  0  0  0
    3.9955    1.6402    0.0000 C   0  0  0  0  0  0  0  0  0  0  0  0
    3.5320    0.2136    0.0000 C   0  0  0  0  0  0  0  0  0  0  0  0
    4.5356   -0.9012    0.0000 C   0  0  0  0  0  0  0  0  0  0  0  0
    6.0029   -0.5893    0.0000 N   0  0  0  0  0  0  0  0  0  0  0  0
    6.4664    0.8373    0.0000 C   0  0  0  0  0  0  0  0  0  0  0  0
    5.4627    1.9520    0.0000 C   0  0  0  0  0  0  0  0  0  0  0  0
   -0.7500    1.2990    0.0000 C   0  0  0  0  0  0  0  0  0  0  0  0
   -1.5000    0.0000    0.0000 C   0  0  0  0  0  0  0  0  0  0  0  0
   -0.7500   -1.2990    0.0000 C   0  0  0  0  0  0  0  0  0  0  0  0
  1  2  1  0
  2  3  2  3
  3  4  1  0
  4  5  1  0
  5  6  1  0
  6  7  2  0
  7  8  1  0
  8  9  1  0
  9 10  1  0
 10 11  2  0
 11 12  1  0
 12 13  1  0
 13 14  1  0
 14 15  1  0
 15 16  1  0
 16 17  1  0
 11 18  1  0
 18 19  1  0
 19 20  1  0
 20 21  2  0
 21 22  1  0
 22 23  2  0
 23 24  1  0
 24 25  2  0
  8 26  2  0
 26 27  1  0
 27 28  2  0
 28  3  1  0
 28  6  1  0
 19  9  2  0
 25 20  1  0
 17 12  1  0
M  END
>  <Compound_ID>  (155) 
CHEMBL1794071

>  <Active>  (155) 
0

>  <Smiles>  (155) 
ON=C1CCc2cc(-c3nc(C4CCNCC4)[nH]c3-c3ccncc3)ccc21

>  <canonical_smi>  (155) 
ON=C1CCc2cc(-c3nc(C4CCNCC4)[nH]c3-c3ccncc3)ccc21

>  <Set>  (155) 
G2 inactive

>  <Set_type>  (155) 
External

>  <MW>  (155) 
373.46

>  <HBD>  (155) 
3

>  <HBA>  (155) 
4

>  <NRB>  (155) 
3

>  <NR>  (155) 
5

>  <NAR>  (155) 
3

>  <PSA>  (155) 
86.19

>  <Standard Type>  (155) 
Inhibition

>  <Standard Relation>  (155) 
'='

>  <Standard Units>  (155) 
%

>  <Standard Value>  (155) 
1.41

>  <Assay ChEMBL ID>  (155) 
CHEMBL1962102

>  <Assay Description>  (155) 
GSK_PKIS: FMS mean inhibition at 0.1 uM [Nanosyn]

>  <BAO Label>  (155) 
single protein format

$$$$

     RDKit          2D

 31 35  0  0  0  0  0  0  0  0999 V2000
    3.0000   -5.1962    0.0000 C   0  0  0  0  0  0  0  0  0  0  0  0
    1.5000   -5.1962    0.0000 O   0  0  0  0  0  0  0  0  0  0  0  0
    0.7500   -3.8971    0.0000 C   0  0  0  0  0  0  0  0  0  0  0  0
    1.5000   -2.5981    0.0000 C   0  0  0  0  0  0  0  0  0  0  0  0
    0.7500   -1.2990    0.0000 C   0  0  0  0  0  0  0  0  0  0  0  0
    1.5000    0.0000    0.0000 N   0  0  0  0  0  0  0  0  0  0  0  0
    0.7500    1.2990    0.0000 C   0  0  0  0  0  0  0  0  0  0  0  0
   -0.7500    1.2990    0.0000 N   0  0  0  0  0  0  0  0  0  0  0  0
   -1.5000    0.0000    0.0000 C   0  0  0  0  0  0  0  0  0  0  0  0
   -3.0000    0.0000    0.0000 N   0  0  0  0  0  0  0  0  0  0  0  0
   -3.7500    1.2990    0.0000 C   0  0  0  0  0  0  0  0  0  0  0  0
   -3.0000    2.5981    0.0000 C   0  0  0  0  0  0  0  0  0  0  0  0
   -3.7500    3.8971    0.0000 C   0  0  0  0  0  0  0  0  0  0  0  0
   -5.2500    3.8971    0.0000 C   0  0  0  0  0  0  0  0  0  0  0  0
   -6.0000    2.5981    0.0000 C   0  0  0  0  0  0  0  0  0  0  0  0
   -7.4672    2.9099    0.0000 C   0  0  0  0  0  0  0  0  0  0  0  0
   -7.6240    4.4017    0.0000 N   0  0  0  0  0  0  0  0  0  0  0  0
   -6.2537    5.0118    0.0000 N   0  0  0  0  0  0  0  0  0  0  0  0
   -5.9418    6.4791    0.0000 C   0  0  0  0  0  0  0  0  0  0  0  0
   -7.0565    7.4827    0.0000 C   0  0  0  0  0  0  0  0  0  0  0  0
   -6.7447    8.9500    0.0000 C   0  0  0  0  0  0  0  0  0  0  0  0
   -7.8594    9.9537    0.0000 C   0  0  0  0  0  0  0  0  0  0  0  0
   -9.2860    9.4901    0.0000 C   0  0  0  0  0  0  0  0  0  0  0  0
   -9.5978    8.0229    0.0000 C   0  0  0  0  0  0  0  0  0  0  0  0
   -8.4831    7.0192    0.0000 C   0  0  0  0  0  0  0  0  0  0  0  0
   -5.2500    1.2990    0.0000 C   0  0  0  0  0  0  0  0  0  0  0  0
   -0.7500   -1.2990    0.0000 C   0  0  0  0  0  0  0  0  0  0  0  0
   -1.5000   -2.5981    0.0000 C   0  0  0  0  0  0  0  0  0  0  0  0
   -0.7500   -3.8971    0.0000 C   0  0  0  0  0  0  0  0  0  0  0  0
   -1.5000   -5.1962    0.0000 O   0  0  0  0  0  0  0  0  0  0  0  0
   -3.0000   -5.1962    0.0000 C   0  0  0  0  0  0  0  0  0  0  0  0
  1  2  1  0
  2  3  1  0
  3  4  2  0
  4  5  1  0
  5  6  2  0
  6  7  1  0
  7  8  2  0
  8  9  1  0
  9 10  1  0
 10 11  1  0
 11 12  2  0
 12 13  1  0
 13 14  2  0
 14 15  1  0
 15 16  1  0
 16 17  2  0
 17 18  1  0
 18 19  1  0
 19 20  1  0
 20 21  2  0
 21 22  1  0
 22 23  2  0
 23 24  1  0
 24 25  2  0
 15 26  2  0
  9 27  2  0
 27 28  1  0
 28 29  2  0
 29 30  1  0
 30 31  1  0
 29  3  1  0
 27  5  1  0
 26 11  1  0
 18 14  1  0
 25 20  1  0
M  END
>  <Compound_ID>  (156) 
CHEMBL1909380

>  <Active>  (156) 
0

>  <Smiles>  (156) 
COc1cc2ncnc(Nc3ccc4c(cnn4Cc4ccccc4)c3)c2cc1OC

>  <canonical_smi>  (156) 
COc1cc2ncnc(Nc3ccc4c(cnn4Cc4ccccc4)c3)c2cc1OC

>  <Set>  (156) 
G2 inactive

>  <Set_type>  (156) 
External

>  <MW>  (156) 
411.47

>  <HBD>  (156) 
1

>  <HBA>  (156) 
6

>  <NRB>  (156) 
6

>  <NR>  (156) 
5

>  <NAR>  (156) 
5

>  <PSA>  (156) 
74.09

>  <Standard Type>  (156) 
Inhibition

>  <Standard Relation>  (156) 
'='

>  <Standard Units>  (156) 
%

>  <Standard Value>  (156) 
0.65

>  <Assay ChEMBL ID>  (156) 
CHEMBL1962102

>  <Assay Description>  (156) 
GSK_PKIS: FMS mean inhibition at 0.1 uM [Nanosyn]

>  <BAO Label>  (156) 
single protein format

$$$$

     RDKit          2D

 33 36  0  0  0  0  0  0  0  0999 V2000
   -9.5939  -10.9121    0.0000 C   0  0  0  0  0  0  0  0  0  0  0  0
   -8.1673  -10.4486    0.0000 N   0  0  0  0  0  0  0  0  0  0  0  0
   -7.0526  -11.4523    0.0000 C   0  0  0  0  0  0  0  0  0  0  0  0
   -7.8555   -8.9814    0.0000 C   0  0  0  0  0  0  0  0  0  0  0  0
   -6.4289   -8.5179    0.0000 C   0  0  0  0  0  0  0  0  0  0  0  0
   -6.1170   -7.0506    0.0000 C   0  0  0  0  0  0  0  0  0  0  0  0
   -4.6904   -6.5871    0.0000 N   0  0  0  0  0  0  0  0  0  0  0  0
   -4.3786   -5.1199    0.0000 C   0  0  0  0  0  0  0  0  0  0  0  0
   -5.4933   -4.1162    0.0000 N   0  0  0  0  0  0  0  0  0  0  0  0
   -5.1814   -2.6490    0.0000 C   0  0  0  0  0  0  0  0  0  0  0  0
   -3.7548   -2.1855    0.0000 C   0  0  0  0  0  0  0  0  0  0  0  0
   -2.6401   -3.1891    0.0000 C   0  0  0  0  0  0  0  0  0  0  0  0
   -1.2135   -2.7256    0.0000 C   0  0  0  0  0  0  0  0  0  0  0  0
   -0.0000   -3.6073    0.0000 C   0  0  0  0  0  0  0  0  0  0  0  0
   -0.0000   -5.1073    0.0000 C   0  0  0  0  0  0  0  0  0  0  0  0
   -1.2990   -5.8573    0.0000 C   0  0  0  0  0  0  0  0  0  0  0  0
   -1.2990   -7.3573    0.0000 C   0  0  0  0  0  0  0  0  0  0  0  0
   -0.0000   -8.1073    0.0000 C   0  0  0  0  0  0  0  0  0  0  0  0
    0.0000   -9.6073    0.0000 F   0  0  0  0  0  0  0  0  0  0  0  0
    1.2990   -7.3573    0.0000 C   0  0  0  0  0  0  0  0  0  0  0  0
    1.2990   -5.8573    0.0000 C   0  0  0  0  0  0  0  0  0  0  0  0
    1.2135   -2.7256    0.0000 N   0  0  0  0  0  0  0  0  0  0  0  0
    0.7500   -1.2990    0.0000 N   0  0  0  0  0  0  0  0  0  0  0  0
    1.5000    0.0000    0.0000 C   0  0  0  0  0  0  0  0  0  0  0  0
    0.7500    1.2990    0.0000 C   0  0  0  0  0  0  0  0  0  0  0  0
    1.5000    2.5981    0.0000 C   0  0  0  0  0  0  0  0  0  0  0  0
    2.2500    3.8971    0.0000 F   0  0  0  0  0  0  0  0  0  0  0  0
    2.7990    1.8481    0.0000 F   0  0  0  0  0  0  0  0  0  0  0  0
    0.2010    3.3481    0.0000 F   0  0  0  0  0  0  0  0  0  0  0  0
   -0.7500    1.2990    0.0000 C   0  0  0  0  0  0  0  0  0  0  0  0
   -1.5000    0.0000    0.0000 C   0  0  0  0  0  0  0  0  0  0  0  0
   -0.7500   -1.2990    0.0000 C   0  0  0  0  0  0  0  0  0  0  0  0
   -2.9520   -4.6564    0.0000 N   0  0  0  0  0  0  0  0  0  0  0  0
  1  2  1  0
  2  3  1  0
  2  4  1  0
  4  5  1  0
  5  6  1  0
  6  7  1  0
  7  8  1  0
  8  9  2  0
  9 10  1  0
 10 11  2  0
 11 12  1  0
 12 13  1  0
 13 14  1  0
 14 15  1  0
 15 16  2  0
 16 17  1  0
 17 18  2  0
 18 19  1  0
 18 20  1  0
 20 21  2  0
 14 22  2  0
 22 23  1  0
 23 24  1  0
 24 25  2  0
 25 26  1  0
 26 27  1  0
 26 28  1  0
 26 29  1  0
 25 30  1  0
 30 31  2  0
 31 32  1  0
 12 33  2  0
 33  8  1  0
 32 13  2  0
 21 15  1  0
 32 23  1  0
M  END
>  <Compound_ID>  (157) 
CHEMBL1909405

>  <Active>  (157) 
0

>  <Smiles>  (157) 
CN(C)CCCNc1nccc(-c2c(-c3ccc(F)cc3)nn3cc(C(F)(F)F)ccc23)n1

>  <canonical_smi>  (157) 
CN(C)CCCNc1nccc(-c2c(-c3ccc(F)cc3)nn3cc(C(F)(F)F)ccc23)n1

>  <Set>  (157) 
G2 inactive

>  <Set_type>  (157) 
External

>  <MW>  (157) 
458.46

>  <HBD>  (157) 
1

>  <HBA>  (157) 
5

>  <NRB>  (157) 
7

>  <NR>  (157) 
4

>  <NAR>  (157) 
4

>  <PSA>  (157) 
58.35

>  <Standard Type>  (157) 
Inhibition

>  <Standard Relation>  (157) 
'='

>  <Standard Units>  (157) 
%

>  <Standard Value>  (157) 
2.28

>  <Assay ChEMBL ID>  (157) 
CHEMBL1962102

>  <Assay Description>  (157) 
GSK_PKIS: FMS mean inhibition at 0.1 uM [Nanosyn]

>  <BAO Label>  (157) 
single protein format

$$$$

     RDKit          2D

 18 20  0  0  0  0  0  0  0  0999 V2000
   -8.0346   -3.5760    0.0000 C   0  0  0  0  0  0  0  0  0  0  0  0
   -6.9199   -4.5797    0.0000 O   0  0  0  0  0  0  0  0  0  0  0  0
   -5.4933   -4.1162    0.0000 C   0  0  0  0  0  0  0  0  0  0  0  0
   -5.1814   -2.6490    0.0000 C   0  0  0  0  0  0  0  0  0  0  0  0
   -3.7548   -2.1855    0.0000 C   0  0  0  0  0  0  0  0  0  0  0  0
   -2.6401   -3.1891    0.0000 C   0  0  0  0  0  0  0  0  0  0  0  0
   -1.2135   -2.7256    0.0000 C   0  0  0  0  0  0  0  0  0  0  0  0
   -0.0000   -3.6073    0.0000 C   0  0  0  0  0  0  0  0  0  0  0  0
    1.2135   -2.7256    0.0000 O   0  0  0  0  0  0  0  0  0  0  0  0
    0.7500   -1.2990    0.0000 C   0  0  0  0  0  0  0  0  0  0  0  0
    1.5000    0.0000    0.0000 N   0  0  0  0  0  0  0  0  0  0  0  0
    0.7500    1.2990    0.0000 C   0  0  0  0  0  0  0  0  0  0  0  0
   -0.7500    1.2990    0.0000 N   0  0  0  0  0  0  0  0  0  0  0  0
   -1.5000    0.0000    0.0000 C   0  0  0  0  0  0  0  0  0  0  0  0
   -3.0000    0.0000    0.0000 N   0  0  0  0  0  0  0  0  0  0  0  0
   -0.7500   -1.2990    0.0000 C   0  0  0  0  0  0  0  0  0  0  0  0
   -2.9520   -4.6564    0.0000 C   0  0  0  0  0  0  0  0  0  0  0  0
   -4.3786   -5.1199    0.0000 C   0  0  0  0  0  0  0  0  0  0  0  0
  1  2  1  0
  2  3  1  0
  3  4  2  0
  4  5  1  0
  5  6  2  0
  6  7  1  0
  7  8  2  0
  8  9  1  0
  9 10  1  0
 10 11  2  0
 11 12  1  0
 12 13  2  0
 13 14  1  0
 14 15  1  0
 14 16  2  0
  6 17  1  0
 17 18  2  0
 18  3  1  0
 16  7  1  0
 16 10  1  0
M  END
>  <Compound_ID>  (158) 
CHEMBL196022

>  <Active>  (158) 
0

>  <Smiles>  (158) 
COc1ccc(-c2coc3ncnc(N)c23)cc1

>  <canonical_smi>  (158) 
COc1ccc(-c2coc3ncnc(N)c23)cc1

>  <Set>  (158) 
G2 inactive

>  <Set_type>  (158) 
External

>  <MW>  (158) 
241.25

>  <HBD>  (158) 
1

>  <HBA>  (158) 
5

>  <NRB>  (158) 
2

>  <NR>  (158) 
3

>  <NAR>  (158) 
3

>  <PSA>  (158) 
74.17

>  <Standard Type>  (158) 
Inhibition

>  <Standard Relation>  (158) 
'='

>  <Standard Units>  (158) 
%

>  <Standard Value>  (158) 
3.5

>  <Assay ChEMBL ID>  (158) 
CHEMBL1962102

>  <Assay Description>  (158) 
GSK_PKIS: FMS mean inhibition at 0.1 uM [Nanosyn]

>  <BAO Label>  (158) 
single protein format

$$$$

     RDKit          2D

 32 36  0  0  0  0  0  0  0  0999 V2000
    1.5000    0.0000    0.0000 C   0  0  0  0  0  0  0  0  0  0  0  0
    0.7500   -1.2990    0.0000 C   0  0  0  0  0  0  0  0  0  0  0  0
   -0.7500   -1.2990    0.0000 C   0  0  0  0  0  0  0  0  0  0  0  0
   -1.5000    0.0000    0.0000 C   0  0  0  0  0  0  0  0  0  0  0  0
   -3.0000    0.0000    0.0000 C   0  0  0  0  0  0  0  0  0  0  0  0
   -3.8817   -1.2135    0.0000 N   0  0  0  0  0  0  0  0  0  0  0  0
   -5.3083   -0.7500    0.0000 N   0  0  0  0  0  0  0  0  0  0  0  0
   -5.3083    0.7500    0.0000 C   0  0  0  0  0  0  0  0  0  0  0  0
   -3.8817    1.2135    0.0000 C   0  0  0  0  0  0  0  0  0  0  0  0
   -3.4182    2.6401    0.0000 C   0  0  0  0  0  0  0  0  0  0  0  0
   -1.9509    2.9520    0.0000 C   0  0  0  0  0  0  0  0  0  0  0  0
   -1.4874    4.3786    0.0000 C   0  0  0  0  0  0  0  0  0  0  0  0
   -2.4911    5.4933    0.0000 N   0  0  0  0  0  0  0  0  0  0  0  0
   -3.9583    5.1814    0.0000 C   0  0  0  0  0  0  0  0  0  0  0  0
   -4.9620    6.2961    0.0000 C   0  0  0  0  0  0  0  0  0  0  0  0
   -4.4985    7.7227    0.0000 C   0  0  0  0  0  0  0  0  0  0  0  0
   -5.5022    8.8374    0.0000 C   0  0  0  0  0  0  0  0  0  0  0  0
   -6.9694    8.5256    0.0000 C   0  0  0  0  0  0  0  0  0  0  0  0
   -7.9731    9.6403    0.0000 O   0  0  0  0  0  0  0  0  0  0  0  0
   -7.5096   11.0669    0.0000 C   0  0  0  0  0  0  0  0  0  0  0  0
   -8.5133   12.1816    0.0000 C   0  0  0  0  0  0  0  0  0  0  0  0
   -8.0498   13.6082    0.0000 N   0  0  0  0  0  0  0  0  0  0  0  0
   -6.5825   13.9200    0.0000 C   0  0  0  0  0  0  0  0  0  0  0  0
   -6.1190   15.3466    0.0000 C   0  0  0  0  0  0  0  0  0  0  0  0
   -7.1227   16.4613    0.0000 O   0  0  0  0  0  0  0  0  0  0  0  0
   -8.5899   16.1495    0.0000 C   0  0  0  0  0  0  0  0  0  0  0  0
   -9.0534   14.7229    0.0000 C   0  0  0  0  0  0  0  0  0  0  0  0
   -7.4329    7.0990    0.0000 C   0  0  0  0  0  0  0  0  0  0  0  0
   -6.4292    5.9843    0.0000 C   0  0  0  0  0  0  0  0  0  0  0  0
   -4.4218    3.7548    0.0000 C   0  0  0  0  0  0  0  0  0  0  0  0
   -0.7500    1.2990    0.0000 N   0  0  0  0  0  0  0  0  0  0  0  0
    0.7500    1.2990    0.0000 C   0  0  0  0  0  0  0  0  0  0  0  0
  1  2  2  0
  2  3  1  0
  3  4  2  0
  4  5  1  0
  5  6  2  0
  6  7  1  0
  7  8  1  0
  8  9  2  0
  9 10  1  0
 10 11  2  0
 11 12  1  0
 12 13  2  0
 13 14  1  0
 14 15  1  0
 15 16  2  0
 16 17  1  0
 17 18  2  0
 18 19  1  0
 19 20  1  0
 20 21  1  0
 21 22  1  0
 22 23  1  0
 23 24  1  0
 24 25  1  0
 25 26  1  0
 26 27  1  0
 18 28  1  0
 28 29  2  0
 14 30  2  0
  4 31  1  0
 31 32  2  0
 32  1  1  0
  9  5  1  0
 30 10  1  0
 29 15  1  0
 27 22  1  0
M  END
>  <Compound_ID>  (159) 
CHEMBL205158

>  <Active>  (159) 
0

>  <Smiles>  (159) 
c1ccc(-c2n[nH]cc2-c2ccnc(-c3ccc(OCCN4CCOCC4)cc3)c2)nc1

>  <canonical_smi>  (159) 
c1ccc(-c2n[nH]cc2-c2ccnc(-c3ccc(OCCN4CCOCC4)cc3)c2)nc1

>  <Set>  (159) 
G2 inactive

>  <Set_type>  (159) 
External

>  <MW>  (159) 
427.51

>  <HBD>  (159) 
1

>  <HBA>  (159) 
6

>  <NRB>  (159) 
7

>  <NR>  (159) 
5

>  <NAR>  (159) 
4

>  <PSA>  (159) 
76.16

>  <Standard Type>  (159) 
Inhibition

>  <Standard Relation>  (159) 
'='

>  <Standard Units>  (159) 
%

>  <Standard Value>  (159) 
5.69

>  <Assay ChEMBL ID>  (159) 
CHEMBL1962102

>  <Assay Description>  (159) 
GSK_PKIS: FMS mean inhibition at 0.1 uM [Nanosyn]

>  <BAO Label>  (159) 
single protein format

$$$$

     RDKit          2D

 27 29  0  0  0  0  0  0  0  0999 V2000
    4.5000   -2.5981    0.0000 C   0  0  0  0  0  0  0  0  0  0  0  0
    3.7500   -1.2990    0.0000 S   0  0  0  0  0  0  0  0  0  0  0  0
    2.4510   -2.0490    0.0000 O   0  0  0  0  0  0  0  0  0  0  0  0
    5.0490   -0.5490    0.0000 O   0  0  0  0  0  0  0  0  0  0  0  0
    3.0000    0.0000    0.0000 N   0  0  0  0  0  0  0  0  0  0  0  0
    1.5000    0.0000    0.0000 C   0  0  0  0  0  0  0  0  0  0  0  0
    0.7500   -1.2990    0.0000 C   0  0  0  0  0  0  0  0  0  0  0  0
   -0.7500   -1.2990    0.0000 C   0  0  0  0  0  0  0  0  0  0  0  0
   -1.5000    0.0000    0.0000 C   0  0  0  0  0  0  0  0  0  0  0  0
   -3.0000    0.0000    0.0000 C   0  0  0  0  0  0  0  0  0  0  0  0
   -3.7500    1.2990    0.0000 C   0  0  0  0  0  0  0  0  0  0  0  0
   -5.2500    1.2990    0.0000 C   0  0  0  0  0  0  0  0  0  0  0  0
   -6.0000    2.5981    0.0000 C   0  0  0  0  0  0  0  0  0  0  0  0
   -5.2500    3.8971    0.0000 C   0  0  0  0  0  0  0  0  0  0  0  0
   -6.0000    5.1962    0.0000 C   0  0  0  0  0  0  0  0  0  0  0  0
   -7.5000    5.1962    0.0000 C   0  0  0  0  0  0  0  0  0  0  0  0
   -8.2500    3.8971    0.0000 C   0  0  0  0  0  0  0  0  0  0  0  0
   -7.5000    2.5981    0.0000 C   0  0  0  0  0  0  0  0  0  0  0  0
   -6.0000    0.0000    0.0000 C   0  0  0  0  0  0  0  0  0  0  0  0
   -5.2500   -1.2990    0.0000 C   0  0  0  0  0  0  0  0  0  0  0  0
   -6.0000   -2.5981    0.0000 C   0  0  0  0  0  0  0  0  0  0  0  0
   -7.5000   -2.5981    0.0000 N   0  0  0  0  0  0  0  0  0  0  0  0
   -5.2500   -3.8971    0.0000 O   0  0  0  0  0  0  0  0  0  0  0  0
   -3.7500   -1.2990    0.0000 C   0  0  0  0  0  0  0  0  0  0  0  0
   -3.0000   -2.5981    0.0000 N   0  0  0  0  0  0  0  0  0  0  0  0
   -0.7500    1.2990    0.0000 C   0  0  0  0  0  0  0  0  0  0  0  0
    0.7500    1.2990    0.0000 C   0  0  0  0  0  0  0  0  0  0  0  0
  1  2  1  0
  2  3  2  0
  2  4  2  0
  2  5  1  0
  5  6  1  0
  6  7  2  0
  7  8  1  0
  8  9  2  0
  9 10  1  0
 10 11  2  0
 11 12  1  0
 12 13  1  0
 13 14  2  0
 14 15  1  0
 15 16  2  0
 16 17  1  0
 17 18  2  0
 12 19  2  0
 19 20  1  0
 20 21  1  0
 21 22  1  0
 21 23  2  0
 20 24  2  0
 24 25  1  0
  9 26  1  0
 26 27  2  0
 27  6  1  0
 24 10  1  0
 18 13  1  0
M  END
>  <Compound_ID>  (160) 
CHEMBL230597

>  <Active>  (160) 
0

>  <Smiles>  (160) 
CS(=O)(=O)Nc1ccc(-c2cc(-c3ccccc3)cc(C(N)=O)c2N)cc1

>  <canonical_smi>  (160) 
CS(=O)(=O)Nc1ccc(-c2cc(-c3ccccc3)cc(C(N)=O)c2N)cc1

>  <Set>  (160) 
G2 inactive

>  <Set_type>  (160) 
External

>  <MW>  (160) 
381.46

>  <HBD>  (160) 
3

>  <HBA>  (160) 
4

>  <NRB>  (160) 
5

>  <NR>  (160) 
3

>  <NAR>  (160) 
3

>  <PSA>  (160) 
115.28

>  <Standard Type>  (160) 
Inhibition

>  <Standard Relation>  (160) 
'='

>  <Standard Units>  (160) 
%

>  <Standard Value>  (160) 
5.24

>  <Assay ChEMBL ID>  (160) 
CHEMBL1962102

>  <Assay Description>  (160) 
GSK_PKIS: FMS mean inhibition at 0.1 uM [Nanosyn]

>  <BAO Label>  (160) 
single protein format

$$$$

     RDKit          2D

 24 27  0  0  0  0  0  0  0  0999 V2000
   -5.2046    0.1696    0.0000 N   0  0  0  0  0  0  0  0  0  0  0  0
   -5.6682   -1.2570    0.0000 C   0  0  0  0  0  0  0  0  0  0  0  0
   -6.1317   -2.6836    0.0000 C   0  0  0  0  0  0  0  0  0  0  0  0
   -5.2500   -3.8971    0.0000 C   0  0  0  0  0  0  0  0  0  0  0  0
   -3.7500   -3.8971    0.0000 N   0  0  0  0  0  0  0  0  0  0  0  0
   -3.0000   -2.5981    0.0000 C   0  0  0  0  0  0  0  0  0  0  0  0
   -3.7500   -1.2990    0.0000 O   0  0  0  0  0  0  0  0  0  0  0  0
   -1.5000   -2.5981    0.0000 C   0  0  0  0  0  0  0  0  0  0  0  0
   -0.7500   -3.8971    0.0000 C   0  0  0  0  0  0  0  0  0  0  0  0
    0.7500   -3.8971    0.0000 C   0  0  0  0  0  0  0  0  0  0  0  0
    1.5000   -2.5981    0.0000 C   0  0  0  0  0  0  0  0  0  0  0  0
    0.7500   -1.2990    0.0000 C   0  0  0  0  0  0  0  0  0  0  0  0
    1.5000    0.0000    0.0000 C   0  0  0  0  0  0  0  0  0  0  0  0
    0.7500    1.2990    0.0000 C   0  0  0  0  0  0  0  0  0  0  0  0
   -0.7500    1.2990    0.0000 C   0  0  0  0  0  0  0  0  0  0  0  0
   -1.5000    0.0000    0.0000 C   0  0  0  0  0  0  0  0  0  0  0  0
   -0.7500   -1.2990    0.0000 C   0  0  0  0  0  0  0  0  0  0  0  0
   -6.1317   -5.1106    0.0000 S   0  0  0  0  0  0  0  0  0  0  0  0
   -7.5583   -4.6471    0.0000 C   0  0  0  0  0  0  0  0  0  0  0  0
   -7.5583   -3.1471    0.0000 C   0  0  0  0  0  0  0  0  0  0  0  0
   -8.8573   -2.3971    0.0000 C   0  0  0  0  0  0  0  0  0  0  0  0
  -10.1563   -3.1471    0.0000 C   0  0  0  0  0  0  0  0  0  0  0  0
  -10.1563   -4.6471    0.0000 C   0  0  0  0  0  0  0  0  0  0  0  0
   -8.8573   -5.3971    0.0000 C   0  0  0  0  0  0  0  0  0  0  0  0
  1  2  3  0
  2  3  1  0
  3  4  2  0
  4  5  1  0
  5  6  1  0
  6  7  2  0
  6  8  1  0
  8  9  2  0
  9 10  1  0
 10 11  2  0
 11 12  1  0
 12 13  2  0
 13 14  1  0
 14 15  2  0
 15 16  1  0
 16 17  2  0
  4 18  1  0
 18 19  1  0
 19 20  2  0
 20 21  1  0
 21 22  1  0
 22 23  1  0
 23 24  1  0
 20  3  1  0
 17  8  1  0
 24 19  1  0
 17 12  1  0
M  END
>  <Compound_ID>  (161) 
CHEMBL233001

>  <Active>  (161) 
0

>  <Smiles>  (161) 
N#Cc1c(NC(=O)c2cccc3ccccc23)sc2c1CCCC2

>  <canonical_smi>  (161) 
N#Cc1c(NC(=O)c2cccc3ccccc23)sc2c1CCCC2

>  <Set>  (161) 
G2 inactive

>  <Set_type>  (161) 
External

>  <MW>  (161) 
332.43

>  <HBD>  (161) 
1

>  <HBA>  (161) 
2

>  <NRB>  (161) 
2

>  <NR>  (161) 
4

>  <NAR>  (161) 
3

>  <PSA>  (161) 
52.89

>  <Standard Type>  (161) 
Inhibition

>  <Standard Relation>  (161) 
'='

>  <Standard Units>  (161) 
%

>  <Standard Value>  (161) 
1.08

>  <Assay ChEMBL ID>  (161) 
CHEMBL1962102

>  <Assay Description>  (161) 
GSK_PKIS: FMS mean inhibition at 0.1 uM [Nanosyn]

>  <BAO Label>  (161) 
single protein format

$$$$

     RDKit          2D

 33 36  0  0  0  0  0  0  0  0999 V2000
  -10.0849   -6.9740    0.0000 N   0  0  0  0  0  0  0  0  0  0  0  0
   -8.6583   -6.5105    0.0000 S   0  0  0  0  0  0  0  0  0  0  0  0
   -9.1218   -5.0839    0.0000 O   0  0  0  0  0  0  0  0  0  0  0  0
   -8.1948   -7.9371    0.0000 O   0  0  0  0  0  0  0  0  0  0  0  0
   -7.2317   -6.0469    0.0000 C   0  0  0  0  0  0  0  0  0  0  0  0
   -6.9199   -4.5797    0.0000 C   0  0  0  0  0  0  0  0  0  0  0  0
   -5.4933   -4.1162    0.0000 C   0  0  0  0  0  0  0  0  0  0  0  0
   -4.3786   -5.1199    0.0000 C   0  0  0  0  0  0  0  0  0  0  0  0
   -2.9520   -4.6564    0.0000 N   0  0  0  0  0  0  0  0  0  0  0  0
   -2.6401   -3.1891    0.0000 N   0  0  0  0  0  0  0  0  0  0  0  0
   -1.2135   -2.7256    0.0000 C   0  0  0  0  0  0  0  0  0  0  0  0
   -0.0000   -3.6073    0.0000 C   0  0  0  0  0  0  0  0  0  0  0  0
    0.0000   -5.1073    0.0000 O   0  0  0  0  0  0  0  0  0  0  0  0
    1.2135   -2.7256    0.0000 N   0  0  0  0  0  0  0  0  0  0  0  0
    0.7500   -1.2990    0.0000 C   0  0  0  0  0  0  0  0  0  0  0  0
    1.5000    0.0000    0.0000 C   0  0  0  0  0  0  0  0  0  0  0  0
    0.7500    1.2990    0.0000 C   0  0  0  0  0  0  0  0  0  0  0  0
   -0.7500    1.2990    0.0000 C   0  0  0  0  0  0  0  0  0  0  0  0
   -1.5000    2.5981    0.0000 C   0  0  0  0  0  0  0  0  0  0  0  0
   -3.0000    2.5981    0.0000 O   0  0  0  0  0  0  0  0  0  0  0  0
   -0.7500    3.8971    0.0000 N   0  0  0  0  0  0  0  0  0  0  0  0
   -1.5000    5.1962    0.0000 C   0  0  0  0  0  0  0  0  0  0  0  0
   -0.7500    6.4952    0.0000 C   0  0  0  0  0  0  0  0  0  0  0  0
   -1.5000    7.7942    0.0000 C   0  0  0  0  0  0  0  0  0  0  0  0
   -0.7500    9.0933    0.0000 N   0  0  0  0  0  0  0  0  0  0  0  0
   -1.3601   10.4636    0.0000 C   0  0  0  0  0  0  0  0  0  0  0  0
   -0.2454   11.4673    0.0000 C   0  0  0  0  0  0  0  0  0  0  0  0
    1.0537   10.7173    0.0000 N   0  0  0  0  0  0  0  0  0  0  0  0
    0.7418    9.2501    0.0000 C   0  0  0  0  0  0  0  0  0  0  0  0
   -1.5000    0.0000    0.0000 C   0  0  0  0  0  0  0  0  0  0  0  0
   -0.7500   -1.2990    0.0000 C   0  0  0  0  0  0  0  0  0  0  0  0
   -4.6904   -6.5871    0.0000 C   0  0  0  0  0  0  0  0  0  0  0  0
   -6.1170   -7.0506    0.0000 C   0  0  0  0  0  0  0  0  0  0  0  0
  1  2  1  0
  2  3  2  0
  2  4  2  0
  2  5  1  0
  5  6  2  0
  6  7  1  0
  7  8  2  0
  8  9  1  0
  9 10  1  0
 10 11  2  0
 11 12  1  0
 12 13  2  0
 12 14  1  0
 14 15  1  0
 15 16  2  0
 16 17  1  0
 17 18  2  0
 18 19  1  0
 19 20  2  0
 19 21  1  0
 21 22  1  0
 22 23  1  0
 23 24  1  0
 24 25  1  0
 25 26  1  0
 26 27  2  0
 27 28  1  0
 28 29  2  0
 18 30  1  0
 30 31  2  0
  8 32  1  0
 32 33  2  0
 33  5  1  0
 31 11  1  0
 31 15  1  0
 29 25  1  0
M  END
>  <Compound_ID>  (162) 
CHEMBL272026

>  <Active>  (162) 
0

>  <Smiles>  (162) 
NS(=O)(=O)c1ccc(N/N=C2\C(=O)Nc3ccc(C(=O)NCCCn4ccnc4)cc32)cc1

>  <canonical_smi>  (162) 
NS(=O)(=O)c1ccc(N/N=C2\C(=O)Nc3ccc(C(=O)NCCCn4ccnc4)cc32)cc1

>  <Set>  (162) 
G2 inactive

>  <Set_type>  (162) 
External

>  <MW>  (162) 
467.51

>  <HBD>  (162) 
4

>  <HBA>  (162) 
6

>  <NRB>  (162) 
8

>  <NR>  (162) 
4

>  <NAR>  (162) 
3

>  <PSA>  (162) 
160.57

>  <Standard Type>  (162) 
Inhibition

>  <Standard Relation>  (162) 
'='

>  <Standard Units>  (162) 
%

>  <Standard Value>  (162) 
4.6

>  <Assay ChEMBL ID>  (162) 
CHEMBL1962103

>  <Assay Description>  (162) 
GSK_PKIS: FMS mean inhibition at 1 uM [Nanosyn]

>  <BAO Label>  (162) 
single protein format

$$$$

     RDKit          2D

 22 23  0  0  0  0  0  0  0  0999 V2000
    3.7500   -1.2990    0.0000 C   0  0  0  0  0  0  0  0  0  0  0  0
    3.0000    0.0000    0.0000 C   0  0  0  0  0  0  0  0  0  0  0  0
    1.5000    0.0000    0.0000 C   0  0  0  0  0  0  0  0  0  0  0  0
    0.7500   -1.2990    0.0000 C   0  0  0  0  0  0  0  0  0  0  0  0
   -0.7500   -1.2990    0.0000 C   0  0  0  0  0  0  0  0  0  0  0  0
   -1.5000    0.0000    0.0000 C   0  0  0  0  0  0  0  0  0  0  0  0
   -0.7500    1.2990    0.0000 C   0  0  0  0  0  0  0  0  0  0  0  0
   -1.5000    2.5981    0.0000 C   0  0  0  0  0  0  0  0  0  0  0  0
   -0.7500    3.8971    0.0000 C   0  0  0  0  0  0  0  0  0  0  0  0
    0.7500    1.2990    0.0000 C   0  0  0  0  0  0  0  0  0  0  0  0
    1.5000    2.5981    0.0000 C   0  0  0  0  0  0  0  0  0  0  0  0
    3.0000    2.5981    0.0000 C   0  0  0  0  0  0  0  0  0  0  0  0
    3.7500    3.8971    0.0000 C   0  0  0  0  0  0  0  0  0  0  0  0
    5.2500    3.8971    0.0000 C   0  0  0  0  0  0  0  0  0  0  0  0
    6.0000    5.1962    0.0000 N   0  0  0  0  0  0  0  0  0  0  0  0
    5.2500    6.4952    0.0000 C   0  0  0  0  0  0  0  0  0  0  0  0
    3.7500    6.4952    0.0000 C   0  0  0  0  0  0  0  0  0  0  0  0
    3.0000    7.7942    0.0000 C   0  0  0  0  0  0  0  0  0  0  0  0
    1.5000    7.7942    0.0000 O   0  0  0  0  0  0  0  0  0  0  0  0
    3.7500    9.0933    0.0000 N   0  0  0  0  0  0  0  0  0  0  0  0
    3.0000   10.3923    0.0000 C   0  0  0  0  0  0  0  0  0  0  0  0
    3.0000    5.1962    0.0000 C   0  0  0  0  0  0  0  0  0  0  0  0
  1  2  1  0
  2  3  1  0
  3  4  2  0
  4  5  1  0
  5  6  2  0
  6  7  1  0
  7  8  1  0
  8  9  1  0
  7 10  2  0
 10 11  1  0
 11 12  2  0
 12 13  1  0
 13 14  2  0
 14 15  1  0
 15 16  2  0
 16 17  1  0
 17 18  1  0
 18 19  2  0
 18 20  1  0
 20 21  1  0
 17 22  2  0
 10  3  1  0
 22 13  1  0
M  END
>  <Compound_ID>  (163) 
CHEMBL385426

>  <Active>  (163) 
0

>  <Smiles>  (163) 
CCc1cccc(CC)c1/C=C/c1cncc(C(=O)NC)c1

>  <canonical_smi>  (163) 
CCc1cccc(CC)c1/C=C/c1cncc(C(=O)NC)c1

>  <Set>  (163) 
G2 inactive

>  <Set_type>  (163) 
External

>  <MW>  (163) 
294.4

>  <HBD>  (163) 
1

>  <HBA>  (163) 
2

>  <NRB>  (163) 
5

>  <NR>  (163) 
2

>  <NAR>  (163) 
2

>  <PSA>  (163) 
41.99

>  <Standard Type>  (163) 
Inhibition

>  <Standard Relation>  (163) 
'='

>  <Standard Units>  (163) 
%

>  <Standard Value>  (163) 
2.64

>  <Assay ChEMBL ID>  (163) 
CHEMBL1962102

>  <Assay Description>  (163) 
GSK_PKIS: FMS mean inhibition at 0.1 uM [Nanosyn]

>  <BAO Label>  (163) 
single protein format

$$$$

     RDKit          2D

 30 33  0  0  0  0  0  0  0  0999 V2000
    1.8478   -6.4639    0.0000 C   0  0  0  0  0  0  0  0  0  0  0  0
    2.0046   -4.9721    0.0000 C   0  0  0  0  0  0  0  0  0  0  0  0
    3.3037   -4.2221    0.0000 N   0  0  0  0  0  0  0  0  0  0  0  0
    2.9918   -2.7549    0.0000 N   0  0  0  0  0  0  0  0  0  0  0  0
    1.5000   -2.5981    0.0000 C   0  0  0  0  0  0  0  0  0  0  0  0
    0.7500   -1.2990    0.0000 C   0  0  0  0  0  0  0  0  0  0  0  0
    1.5000    0.0000    0.0000 C   0  0  0  0  0  0  0  0  0  0  0  0
    0.7500    1.2990    0.0000 C   0  0  0  0  0  0  0  0  0  0  0  0
   -0.7500    1.2990    0.0000 C   0  0  0  0  0  0  0  0  0  0  0  0
   -1.5000    2.5981    0.0000 C   0  0  0  0  0  0  0  0  0  0  0  0
   -1.5000    0.0000    0.0000 C   0  0  0  0  0  0  0  0  0  0  0  0
   -3.0000    0.0000    0.0000 C   0  0  0  0  0  0  0  0  0  0  0  0
   -3.7500    1.2990    0.0000 C   0  0  0  0  0  0  0  0  0  0  0  0
   -5.2500    1.2990    0.0000 C   0  0  0  0  0  0  0  0  0  0  0  0
   -6.0000    0.0000    0.0000 C   0  0  0  0  0  0  0  0  0  0  0  0
   -7.5000    0.0000    0.0000 C   0  0  0  0  0  0  0  0  0  0  0  0
   -8.2500   -1.2990    0.0000 O   0  0  0  0  0  0  0  0  0  0  0  0
   -8.2500    1.2990    0.0000 N   0  0  0  0  0  0  0  0  0  0  0  0
   -9.7500    1.2990    0.0000 C   0  0  0  0  0  0  0  0  0  0  0  0
  -10.5000    2.5981    0.0000 C   0  0  0  0  0  0  0  0  0  0  0  0
   -9.7500    3.8971    0.0000 C   0  0  0  0  0  0  0  0  0  0  0  0
  -10.5000    5.1962    0.0000 C   0  0  0  0  0  0  0  0  0  0  0  0
  -12.0000    5.1962    0.0000 C   0  0  0  0  0  0  0  0  0  0  0  0
  -12.7500    6.4952    0.0000 Cl  0  0  0  0  0  0  0  0  0  0  0  0
  -12.7500    3.8971    0.0000 C   0  0  0  0  0  0  0  0  0  0  0  0
  -12.0000    2.5981    0.0000 C   0  0  0  0  0  0  0  0  0  0  0  0
   -5.2500   -1.2990    0.0000 C   0  0  0  0  0  0  0  0  0  0  0  0
   -3.7500   -1.2990    0.0000 C   0  0  0  0  0  0  0  0  0  0  0  0
   -0.7500   -1.2990    0.0000 C   0  0  0  0  0  0  0  0  0  0  0  0
    0.8899   -3.9684    0.0000 O   0  0  0  0  0  0  0  0  0  0  0  0
  1  2  1  0
  2  3  2  0
  3  4  1  0
  4  5  2  0
  5  6  1  0
  6  7  2  0
  7  8  1  0
  8  9  2  0
  9 10  1  0
  9 11  1  0
 11 12  1  0
 12 13  2  0
 13 14  1  0
 14 15  2  0
 15 16  1  0
 16 17  2  0
 16 18  1  0
 18 19  1  0
 19 20  1  0
 20 21  2  0
 21 22  1  0
 22 23  2  0
 23 24  1  0
 23 25  1  0
 25 26  2  0
 15 27  1  0
 27 28  2  0
 11 29  2  0
  5 30  1  0
 30  2  1  0
 29  6  1  0
 28 12  1  0
 26 20  1  0
M  END
>  <Compound_ID>  (164) 
CHEMBL402108

>  <Active>  (164) 
0

>  <Smiles>  (164) 
Cc1nnc(-c2ccc(C)c(-c3ccc(C(=O)NCc4ccc(Cl)cc4)cc3)c2)o1

>  <canonical_smi>  (164) 
Cc1nnc(-c2ccc(C)c(-c3ccc(C(=O)NCc4ccc(Cl)cc4)cc3)c2)o1

>  <Set>  (164) 
G2 inactive

>  <Set_type>  (164) 
External

>  <MW>  (164) 
417.9

>  <HBD>  (164) 
1

>  <HBA>  (164) 
4

>  <NRB>  (164) 
5

>  <NR>  (164) 
4

>  <NAR>  (164) 
4

>  <PSA>  (164) 
68.02

>  <Standard Type>  (164) 
Inhibition

>  <Standard Relation>  (164) 
'='

>  <Standard Units>  (164) 
%

>  <Standard Value>  (164) 
1.63

>  <Assay ChEMBL ID>  (164) 
CHEMBL1962102

>  <Assay Description>  (164) 
GSK_PKIS: FMS mean inhibition at 0.1 uM [Nanosyn]

>  <BAO Label>  (164) 
single protein format

$$$$

     RDKit          2D

 22 25  0  0  0  0  0  0  0  0999 V2000
   -1.8373   -5.6601    0.0000 O   0  0  0  0  0  0  0  0  0  0  0  0
   -2.9520   -4.6564    0.0000 C   0  0  0  0  0  0  0  0  0  0  0  0
   -2.6401   -3.1891    0.0000 N   0  0  0  0  0  0  0  0  0  0  0  0
   -1.2135   -2.7256    0.0000 C   0  0  0  0  0  0  0  0  0  0  0  0
   -0.0000   -3.6073    0.0000 N   0  0  0  0  0  0  0  0  0  0  0  0
    1.2135   -2.7256    0.0000 N   0  0  0  0  0  0  0  0  0  0  0  0
    0.7500   -1.2990    0.0000 C   0  0  0  0  0  0  0  0  0  0  0  0
    1.5000    0.0000    0.0000 C   0  0  0  0  0  0  0  0  0  0  0  0
    0.7500    1.2990    0.0000 C   0  0  0  0  0  0  0  0  0  0  0  0
    1.5000    2.5981    0.0000 C   0  0  0  0  0  0  0  0  0  0  0  0
    3.0000    2.5981    0.0000 C   0  0  0  0  0  0  0  0  0  0  0  0
    3.7500    3.8971    0.0000 C   0  0  0  0  0  0  0  0  0  0  0  0
    3.0000    5.1962    0.0000 C   0  0  0  0  0  0  0  0  0  0  0  0
    3.7500    6.4952    0.0000 F   0  0  0  0  0  0  0  0  0  0  0  0
    1.5000    5.1962    0.0000 C   0  0  0  0  0  0  0  0  0  0  0  0
    0.7500    3.8971    0.0000 C   0  0  0  0  0  0  0  0  0  0  0  0
   -0.7500    1.2990    0.0000 C   0  0  0  0  0  0  0  0  0  0  0  0
   -1.5000    0.0000    0.0000 C   0  0  0  0  0  0  0  0  0  0  0  0
   -0.7500   -1.2990    0.0000 C   0  0  0  0  0  0  0  0  0  0  0  0
   -4.3786   -5.1199    0.0000 C   0  0  0  0  0  0  0  0  0  0  0  0
   -5.3823   -6.2346    0.0000 C   0  0  0  0  0  0  0  0  0  0  0  0
   -5.8458   -4.8080    0.0000 C   0  0  0  0  0  0  0  0  0  0  0  0
  1  2  2  0
  2  3  1  0
  3  4  1  0
  4  5  2  0
  5  6  1  0
  6  7  1  0
  7  8  2  0
  8  9  1  0
  9 10  1  0
 10 11  2  0
 11 12  1  0
 12 13  2  0
 13 14  1  0
 13 15  1  0
 15 16  2  0
  9 17  2  0
 17 18  1  0
 18 19  2  0
  2 20  1  0
 20 21  1  0
 21 22  1  0
 19  4  1  0
 22 20  1  0
 19  7  1  0
 16 10  1  0
M  END
>  <Compound_ID>  (165) 
CHEMBL419903

>  <Active>  (165) 
0

>  <Smiles>  (165) 
O=C(Nc1n[nH]c2cc(-c3ccc(F)cc3)ccc12)C1CC1

>  <canonical_smi>  (165) 
O=C(Nc1n[nH]c2cc(-c3ccc(F)cc3)ccc12)C1CC1

>  <Set>  (165) 
G2 inactive

>  <Set_type>  (165) 
External

>  <MW>  (165) 
295.32

>  <HBD>  (165) 
2

>  <HBA>  (165) 
2

>  <NRB>  (165) 
3

>  <NR>  (165) 
4

>  <NAR>  (165) 
3

>  <PSA>  (165) 
57.78

>  <Standard Type>  (165) 
Inhibition

>  <Standard Relation>  (165) 
'='

>  <Standard Units>  (165) 
%

>  <Standard Value>  (165) 
1.62

>  <Assay ChEMBL ID>  (165) 
CHEMBL1962102

>  <Assay Description>  (165) 
GSK_PKIS: FMS mean inhibition at 0.1 uM [Nanosyn]

>  <BAO Label>  (165) 
single protein format

$$$$

     RDKit          2D

 30 34  0  0  0  0  0  0  0  0999 V2000
   -5.2500   -6.4952    0.0000 C   0  0  0  0  0  0  0  0  0  0  0  0
   -3.7500   -6.4952    0.0000 C   0  0  0  0  0  0  0  0  0  0  0  0
   -3.0000   -5.1962    0.0000 C   0  0  0  0  0  0  0  0  0  0  0  0
   -3.7500   -3.8971    0.0000 C   0  0  0  0  0  0  0  0  0  0  0  0
   -3.0000   -2.5981    0.0000 O   0  0  0  0  0  0  0  0  0  0  0  0
   -5.2500   -3.8971    0.0000 N   0  0  0  0  0  0  0  0  0  0  0  0
   -6.0000   -2.5981    0.0000 C   0  0  0  0  0  0  0  0  0  0  0  0
   -5.2500   -1.2990    0.0000 C   0  0  0  0  0  0  0  0  0  0  0  0
   -6.0000   -0.0000    0.0000 C   0  0  0  0  0  0  0  0  0  0  0  0
   -7.5000   -0.0000    0.0000 C   0  0  0  0  0  0  0  0  0  0  0  0
   -8.5037    1.1147    0.0000 N   0  0  0  0  0  0  0  0  0  0  0  0
   -9.8740    0.5046    0.0000 N   0  0  0  0  0  0  0  0  0  0  0  0
   -9.7172   -0.9872    0.0000 C   0  0  0  0  0  0  0  0  0  0  0  0
   -8.2500   -1.2990    0.0000 C   0  0  0  0  0  0  0  0  0  0  0  0
   -7.5000   -2.5981    0.0000 C   0  0  0  0  0  0  0  0  0  0  0  0
   -1.5000   -5.1962    0.0000 C   0  0  0  0  0  0  0  0  0  0  0  0
   -0.7500   -3.8971    0.0000 C   0  0  0  0  0  0  0  0  0  0  0  0
    0.7500   -3.8971    0.0000 C   0  0  0  0  0  0  0  0  0  0  0  0
    1.5000   -2.5981    0.0000 C   0  0  0  0  0  0  0  0  0  0  0  0
    0.7500   -1.2990    0.0000 C   0  0  0  0  0  0  0  0  0  0  0  0
    1.5000    0.0000    0.0000 C   0  0  0  0  0  0  0  0  0  0  0  0
    0.7500    1.2990    0.0000 C   0  0  0  0  0  0  0  0  0  0  0  0
   -0.7500    1.2990    0.0000 C   0  0  0  0  0  0  0  0  0  0  0  0
   -1.5000    0.0000    0.0000 C   0  0  0  0  0  0  0  0  0  0  0  0
   -0.7500   -1.2990    0.0000 C   0  0  0  0  0  0  0  0  0  0  0  0
   -1.5000   -2.5981    0.0000 C   0  0  0  0  0  0  0  0  0  0  0  0
   -0.7500   -6.4952    0.0000 C   0  0  0  0  0  0  0  0  0  0  0  0
   -1.5000   -7.7942    0.0000 C   0  0  0  0  0  0  0  0  0  0  0  0
   -0.7500   -9.0933    0.0000 O   0  0  0  0  0  0  0  0  0  0  0  0
   -3.0000   -7.7942    0.0000 N   0  0  0  0  0  0  0  0  0  0  0  0
  1  2  1  0
  2  3  2  0
  3  4  1  0
  4  5  2  0
  4  6  1  0
  6  7  1  0
  7  8  2  0
  8  9  1  0
  9 10  2  0
 10 11  1  0
 11 12  1  0
 12 13  2  0
 13 14  1  0
 14 15  2  0
  3 16  1  0
 16 17  1  0
 17 18  2  0
 18 19  1  0
 19 20  2  0
 20 21  1  0
 21 22  2  0
 22 23  1  0
 23 24  2  0
 24 25  1  0
 25 26  2  0
 16 27  1  0
 27 28  1  0
 28 29  2  0
 28 30  1  0
 30  2  1  0
 15  7  1  0
 26 17  1  0
 14 10  1  0
 25 20  1  0
M  END
>  <Compound_ID>  (166) 
CHEMBL441702

>  <Active>  (166) 
0

>  <Smiles>  (166) 
CC1=C(C(=O)Nc2ccc3[nH]ncc3c2)C(c2ccc3ccccc3c2)CC(=O)N1

>  <canonical_smi>  (166) 
CC1=C(C(=O)Nc2ccc3[nH]ncc3c2)C(c2ccc3ccccc3c2)CC(=O)N1

>  <Set>  (166) 
G2 inactive

>  <Set_type>  (166) 
External

>  <MW>  (166) 
396.45

>  <HBD>  (166) 
3

>  <HBA>  (166) 
3

>  <NRB>  (166) 
3

>  <NR>  (166) 
5

>  <NAR>  (166) 
4

>  <PSA>  (166) 
86.88

>  <Standard Type>  (166) 
Inhibition

>  <Standard Relation>  (166) 
'='

>  <Standard Units>  (166) 
%

>  <Standard Value>  (166) 
4.89

>  <Assay ChEMBL ID>  (166) 
CHEMBL1962102

>  <Assay Description>  (166) 
GSK_PKIS: FMS mean inhibition at 0.1 uM [Nanosyn]

>  <BAO Label>  (166) 
single protein format

$$$$

     RDKit          2D

 36 41  0  0  0  0  0  0  0  0999 V2000
   -4.3764    3.7611    0.0000 C   0  0  0  0  0  0  0  0  0  0  0  0
   -2.9499    4.2246    0.0000 O   0  0  0  0  0  0  0  0  0  0  0  0
   -1.8351    3.2209    0.0000 C   0  0  0  0  0  0  0  0  0  0  0  0
   -2.1470    1.7537    0.0000 C   0  0  0  0  0  0  0  0  0  0  0  0
   -1.0323    0.7500    0.0000 C   0  0  0  0  0  0  0  0  0  0  0  0
    0.3943    1.2135    0.0000 C   0  0  0  0  0  0  0  0  0  0  0  0
    0.7062    2.6807    0.0000 C   0  0  0  0  0  0  0  0  0  0  0  0
   -0.4086    3.6844    0.0000 C   0  0  0  0  0  0  0  0  0  0  0  0
   -0.0967    5.1517    0.0000 N   0  0  0  0  0  0  0  0  0  0  0  0
    1.3299    5.6152    0.0000 C   0  0  0  0  0  0  0  0  0  0  0  0
    2.4446    4.6115    0.0000 N   0  0  0  0  0  0  0  0  0  0  0  0
    3.8712    5.0750    0.0000 C   0  0  0  0  0  0  0  0  0  0  0  0
    4.9859    4.0713    0.0000 N   0  0  0  0  0  0  0  0  0  0  0  0
    4.8291    2.5795    0.0000 C   0  0  0  0  0  0  0  0  0  0  0  0
    6.1994    1.9694    0.0000 C   0  0  0  0  0  0  0  0  0  0  0  0
    7.2031    3.0842    0.0000 C   0  0  0  0  0  0  0  0  0  0  0  0
    8.7031    3.0842    0.0000 C   0  0  0  0  0  0  0  0  0  0  0  0
    9.4531    4.3832    0.0000 C   0  0  0  0  0  0  0  0  0  0  0  0
    8.7031    5.6822    0.0000 C   0  0  0  0  0  0  0  0  0  0  0  0
    7.2031    5.6822    0.0000 C   0  0  0  0  0  0  0  0  0  0  0  0
    6.4531    4.3832    0.0000 C   0  0  0  0  0  0  0  0  0  0  0  0
    4.1831    6.5422    0.0000 C   0  0  0  0  0  0  0  0  0  0  0  0
    5.4821    7.2922    0.0000 C   0  0  0  0  0  0  0  0  0  0  0  0
    5.1702    8.7595    0.0000 C   0  0  0  0  0  0  0  0  0  0  0  0
    3.6785    8.9163    0.0000 N   0  0  0  0  0  0  0  0  0  0  0  0
    3.0684    7.5459    0.0000 C   0  0  0  0  0  0  0  0  0  0  0  0
    1.6418    7.0824    0.0000 N   0  0  0  0  0  0  0  0  0  0  0  0
    1.2760    0.0000    0.0000 N   0  0  0  0  0  0  0  0  0  0  0  0
    2.7760    0.0000    0.0000 C   0  0  0  0  0  0  0  0  0  0  0  0
    3.5260    1.2990    0.0000 O   0  0  0  0  0  0  0  0  0  0  0  0
    3.5260   -1.2990    0.0000 C   0  0  0  0  0  0  0  0  0  0  0  0
    5.0260   -1.2990    0.0000 N   0  0  0  0  0  0  0  0  0  0  0  0
    5.7760   -2.5981    0.0000 C   0  0  0  0  0  0  0  0  0  0  0  0
    5.7760    0.0000    0.0000 C   0  0  0  0  0  0  0  0  0  0  0  0
    0.3943   -1.2135    0.0000 C   0  0  0  0  0  0  0  0  0  0  0  0
   -1.0323   -0.7500    0.0000 C   0  0  0  0  0  0  0  0  0  0  0  0
  1  2  1  0
  2  3  1  0
  3  4  2  0
  4  5  1  0
  5  6  2  0
  6  7  1  0
  7  8  2  0
  8  9  1  0
  9 10  1  0
 10 11  2  0
 11 12  1  0
 12 13  1  0
 13 14  1  0
 14 15  1  0
 15 16  1  0
 16 17  2  0
 17 18  1  0
 18 19  2  0
 19 20  1  0
 20 21  2  0
 12 22  2  0
 22 23  1  0
 23 24  2  0
 24 25  1  0
 25 26  1  0
 26 27  2  0
  6 28  1  0
 28 29  1  0
 29 30  2  0
 29 31  1  0
 31 32  1  0
 32 33  1  0
 32 34  1  0
 28 35  1  0
 35 36  1  0
  8  3  1  0
 27 10  1  0
 36  5  1  0
 21 13  1  0
 26 22  1  0
 21 16  1  0
M  END
>  <Compound_ID>  (167) 
CHEMBL458415

>  <Active>  (167) 
0

>  <Smiles>  (167) 
COc1cc2c(cc1Nc1nc(N3CCc4ccccc43)c3cc[nH]c3n1)N(C(=O)CN(C)C)CC2

>  <canonical_smi>  (167) 
COc1cc2c(cc1Nc1nc(N3CCc4ccccc43)c3cc[nH]c3n1)N(C(=O)CN(C)C)CC2

>  <Set>  (167) 
G2 inactive

>  <Set_type>  (167) 
External

>  <MW>  (167) 
483.58

>  <HBD>  (167) 
2

>  <HBA>  (167) 
7

>  <NRB>  (167) 
6

>  <NR>  (167) 
6

>  <NAR>  (167) 
4

>  <PSA>  (167) 
89.62

>  <Standard Type>  (167) 
Inhibition

>  <Standard Relation>  (167) 
'='

>  <Standard Units>  (167) 
%

>  <Standard Value>  (167) 
1.78

>  <Assay ChEMBL ID>  (167) 
CHEMBL1962103

>  <Assay Description>  (167) 
GSK_PKIS: FMS mean inhibition at 1 uM [Nanosyn]

>  <BAO Label>  (167) 
single protein format

$$$$

     RDKit          2D

 32 35  0  0  0  0  0  0  0  0999 V2000
    3.7500   -1.2990    0.0000 C   0  0  0  0  0  0  0  0  0  0  0  0
    3.0000    0.0000    0.0000 O   0  0  0  0  0  0  0  0  0  0  0  0
    1.5000    0.0000    0.0000 C   0  0  0  0  0  0  0  0  0  0  0  0
    0.7500   -1.2990    0.0000 C   0  0  0  0  0  0  0  0  0  0  0  0
   -0.7500   -1.2990    0.0000 C   0  0  0  0  0  0  0  0  0  0  0  0
   -1.5000    0.0000    0.0000 C   0  0  0  0  0  0  0  0  0  0  0  0
   -2.9672    0.3119    0.0000 N   0  0  0  0  0  0  0  0  0  0  0  0
   -3.1240    1.8037    0.0000 C   0  0  0  0  0  0  0  0  0  0  0  0
   -1.7537    2.4138    0.0000 N   0  0  0  0  0  0  0  0  0  0  0  0
   -1.4418    3.8810    0.0000 C   0  0  0  0  0  0  0  0  0  0  0  0
   -2.4455    4.9957    0.0000 C   0  0  0  0  0  0  0  0  0  0  0  0
   -1.6955    6.2947    0.0000 C   0  0  0  0  0  0  0  0  0  0  0  0
   -2.3056    7.6651    0.0000 O   0  0  0  0  0  0  0  0  0  0  0  0
   -3.7974    7.8218    0.0000 C   0  0  0  0  0  0  0  0  0  0  0  0
   -4.4075    9.1922    0.0000 C   0  0  0  0  0  0  0  0  0  0  0  0
   -4.6791    6.6083    0.0000 C   0  0  0  0  0  0  0  0  0  0  0  0
   -4.0690    5.2380    0.0000 C   0  0  0  0  0  0  0  0  0  0  0  0
   -4.9507    4.0245    0.0000 C   0  0  0  0  0  0  0  0  0  0  0  0
   -6.4424    4.1813    0.0000 C   0  0  0  0  0  0  0  0  0  0  0  0
   -7.0526    5.5516    0.0000 C   0  0  0  0  0  0  0  0  0  0  0  0
   -6.1709    6.7651    0.0000 C   0  0  0  0  0  0  0  0  0  0  0  0
   -6.7810    8.1354    0.0000 C   0  0  0  0  0  0  0  0  0  0  0  0
   -7.3911    9.5057    0.0000 F   0  0  0  0  0  0  0  0  0  0  0  0
   -8.1513    7.5253    0.0000 F   0  0  0  0  0  0  0  0  0  0  0  0
   -5.4107    8.7455    0.0000 F   0  0  0  0  0  0  0  0  0  0  0  0
   -0.2283    5.9829    0.0000 C   0  0  0  0  0  0  0  0  0  0  0  0
    0.8864    6.9866    0.0000 C   0  0  0  0  0  0  0  0  0  0  0  0
    2.3130    6.5230    0.0000 N   0  0  0  0  0  0  0  0  0  0  0  0
    0.5745    8.4538    0.0000 O   0  0  0  0  0  0  0  0  0  0  0  0
   -0.0715    4.4911    0.0000 S   0  0  0  0  0  0  0  0  0  0  0  0
   -0.7500    1.2990    0.0000 C   0  0  0  0  0  0  0  0  0  0  0  0
    0.7500    1.2990    0.0000 C   0  0  0  0  0  0  0  0  0  0  0  0
  1  2  1  0
  2  3  1  0
  3  4  2  0
  4  5  1  0
  5  6  2  0
  6  7  1  0
  7  8  2  0
  8  9  1  0
  9 10  1  0
 10 11  2  0
 11 12  1  0
 12 13  1  0
 13 14  1  0
 14 15  1  1
 14 16  1  0
 16 17  2  0
 17 18  1  0
 18 19  2  0
 19 20  1  0
 20 21  2  0
 21 22  1  0
 22 23  1  0
 22 24  1  0
 22 25  1  0
 12 26  2  0
 26 27  1  0
 27 28  1  0
 27 29  2  0
 26 30  1  0
  9 31  1  0
 31 32  2  0
 32  3  1  0
 31  6  1  0
 30 10  1  0
 21 16  1  0
M  END
>  <Compound_ID>  (168) 
CHEMBL522709

>  <Active>  (168) 
0

>  <Smiles>  (168) 
COc1ccc2ncn(-c3cc(O[C@H](C)c4ccccc4C(F)(F)F)c(C(N)=O)s3)c2c1

>  <canonical_smi>  (168) 
COc1ccc2ncn(-c3cc(O[C@H](C)c4ccccc4C(F)(F)F)c(C(N)=O)s3)c2c1

>  <Set>  (168) 
G2 inactive

>  <Set_type>  (168) 
External

>  <MW>  (168) 
461.47

>  <HBD>  (168) 
1

>  <HBA>  (168) 
4

>  <NRB>  (168) 
6

>  <NR>  (168) 
4

>  <NAR>  (168) 
4

>  <PSA>  (168) 
79.37

>  <Standard Type>  (168) 
Inhibition

>  <Standard Relation>  (168) 
'='

>  <Standard Units>  (168) 
%

>  <Standard Value>  (168) 
2.9

>  <Assay ChEMBL ID>  (168) 
CHEMBL1962103

>  <Assay Description>  (168) 
GSK_PKIS: FMS mean inhibition at 1 uM [Nanosyn]

>  <BAO Label>  (168) 
single protein format

$$$$
