
     RDKit          2D

 40 44  0  0  0  0  0  0  0  0999 V2000
    3.7500   -1.2990    0.0000 C   0  0  0  0  0  0  0  0  0  0  0  0
    3.0000    0.0000    0.0000 O   0  0  0  0  0  0  0  0  0  0  0  0
    1.5000    0.0000    0.0000 C   0  0  0  0  0  0  0  0  0  0  0  0
    0.7500   -1.2990    0.0000 C   0  0  0  0  0  0  0  0  0  0  0  0
   -0.7500   -1.2990    0.0000 C   0  0  0  0  0  0  0  0  0  0  0  0
   -1.5000    0.0000    0.0000 C   0  0  0  0  0  0  0  0  0  0  0  0
   -3.0000    0.0000    0.0000 C   0  0  0  0  0  0  0  0  0  0  0  0
   -3.7500   -1.2990    0.0000 O   0  0  0  0  0  0  0  0  0  0  0  0
   -5.2500   -1.2990    0.0000 C   0  0  0  0  0  0  0  0  0  0  0  0
   -6.0000    0.0000    0.0000 C   0  0  0  0  0  0  0  0  0  0  0  0
   -7.5000    0.0000    0.0000 C   0  0  0  0  0  0  0  0  0  0  0  0
   -8.2500   -1.2990    0.0000 C   0  0  0  0  0  0  0  0  0  0  0  0
   -9.7500   -1.2990    0.0000 N   0  0  0  0  0  0  0  0  0  0  0  0
  -10.5000    0.0000    0.0000 C   0  0  0  0  0  0  0  0  0  0  0  0
   -9.7500    1.2990    0.0000 O   0  0  0  0  0  0  0  0  0  0  0  0
  -12.0000    0.0000    0.0000 C   0  0  0  0  0  0  0  0  0  0  0  0
  -12.8817   -1.2135    0.0000 C   0  0  0  0  0  0  0  0  0  0  0  0
  -12.4182   -2.6401    0.0000 C   0  0  0  0  0  0  0  0  0  0  0  0
  -14.3083   -0.7500    0.0000 N   0  0  0  0  0  0  0  0  0  0  0  0
  -15.5218   -1.6317    0.0000 C   0  0  0  0  0  0  0  0  0  0  0  0
  -16.8921   -1.0216    0.0000 C   0  0  0  0  0  0  0  0  0  0  0  0
  -16.2820    0.3487    0.0000 C   0  0  0  0  0  0  0  0  0  0  0  0
  -17.5022   -2.3919    0.0000 C   0  0  0  0  0  0  0  0  0  0  0  0
  -18.2624   -0.4115    0.0000 O   0  0  0  0  0  0  0  0  0  0  0  0
  -14.3083    0.7500    0.0000 N   0  0  0  0  0  0  0  0  0  0  0  0
  -15.5218    1.6317    0.0000 C   0  0  0  0  0  0  0  0  0  0  0  0
  -15.3650    3.1235    0.0000 C   0  0  0  0  0  0  0  0  0  0  0  0
  -16.5785    4.0051    0.0000 C   0  0  0  0  0  0  0  0  0  0  0  0
  -17.9488    3.3950    0.0000 C   0  0  0  0  0  0  0  0  0  0  0  0
  -18.1056    1.9033    0.0000 C   0  0  0  0  0  0  0  0  0  0  0  0
  -16.8921    1.0216    0.0000 C   0  0  0  0  0  0  0  0  0  0  0  0
  -12.8817    1.2135    0.0000 C   0  0  0  0  0  0  0  0  0  0  0  0
  -12.4182    2.6401    0.0000 O   0  0  0  0  0  0  0  0  0  0  0  0
   -7.5000   -2.5981    0.0000 N   0  0  0  0  0  0  0  0  0  0  0  0
   -6.0000   -2.5981    0.0000 C   0  0  0  0  0  0  0  0  0  0  0  0
   -3.7500    1.2990    0.0000 C   0  0  0  0  0  0  0  0  0  0  0  0
   -3.0000    2.5981    0.0000 C   0  0  0  0  0  0  0  0  0  0  0  0
   -1.5000    2.5981    0.0000 N   0  0  0  0  0  0  0  0  0  0  0  0
   -0.7500    1.2990    0.0000 C   0  0  0  0  0  0  0  0  0  0  0  0
    0.7500    1.2990    0.0000 C   0  0  0  0  0  0  0  0  0  0  0  0
  1  2  1  0
  2  3  1  0
  3  4  2  0
  4  5  1  0
  5  6  2  0
  6  7  1  0
  7  8  1  0
  8  9  1  0
  9 10  2  0
 10 11  1  0
 11 12  2  0
 12 13  1  0
 13 14  1  0
 14 15  2  0
 14 16  1  0
 16 17  2  0
 17 18  1  0
 17 19  1  0
 19 20  1  0
 20 21  1  0
 21 22  1  0
 21 23  1  0
 21 24  1  0
 19 25  1  0
 25 26  1  0
 26 27  2  0
 27 28  1  0
 28 29  2  0
 29 30  1  0
 30 31  2  0
 25 32  1  0
 32 33  2  0
 12 34  1  0
 34 35  2  0
  7 36  2  0
 36 37  1  0
 37 38  2  0
 38 39  1  0
 39 40  2  0
 40  3  1  0
 39  6  1  0
 35  9  1  0
 32 16  1  0
 31 26  1  0
M  END
>  <Compound_ID>  (1) 
CHEMBL460472

>  <Active>  (1) 
1.0

>  <Smiles>  (1) 
COc1ccc2c(Oc3ccc(NC(=O)c4c(C)n(CC(C)(C)O)n(-c5ccccc5)c4=O)nc3)ccnc2c1

>  <canonical_smi>  (1) 
COc1ccc2c(Oc3ccc(NC(=O)c4c(C)n(CC(C)(C)O)n(-c5ccccc5)c4=O)nc3)ccnc2c1

>  <Set>  (1) 
G1 active

>  <Set_type>  (1) 
G1

>  <MW>  (1) 
539.59

>  <HBD>  (1) 
2

>  <HBA>  (1) 
7

>  <NRB>  (1) 
8

>  <NR>  (1) 
5

>  <NAR>  (1) 
5

>  <PSA>  (1) 
120.5

>  <Standard Type>  (1) 
nan

>  <Standard Relation>  (1) 
nan

>  <Standard Units>  (1) 
nan

>  <Standard Value>  (1) 
nan

>  <Assay ChEMBL ID>  (1) 
nan

>  <Assay Description>  (1) 
nan

>  <BAO Label>  (1) 
nan

$$$$

     RDKit          2D

 31 33  0  0  0  0  0  0  0  0999 V2000
    4.5000    0.0000    0.0000 C   0  0  0  0  0  0  0  0  0  0  0  0
    3.0000    0.0000    0.0000 C   0  0  0  0  0  0  0  0  0  0  0  0
    1.5000    0.0000    0.0000 C   0  0  0  0  0  0  0  0  0  0  0  0
    0.7500   -1.2990    0.0000 C   0  0  0  0  0  0  0  0  0  0  0  0
    1.5000   -2.5981    0.0000 O   0  0  0  0  0  0  0  0  0  0  0  0
    0.7500   -3.8971    0.0000 C   0  0  0  0  0  0  0  0  0  0  0  0
   -0.7500   -3.8971    0.0000 C   0  0  0  0  0  0  0  0  0  0  0  0
   -1.5000   -5.1962    0.0000 C   0  0  0  0  0  0  0  0  0  0  0  0
   -0.7500   -6.4952    0.0000 C   0  0  0  0  0  0  0  0  0  0  0  0
   -1.5000   -7.7942    0.0000 N   0  0  0  0  0  0  0  0  0  0  0  0
   -3.0000   -7.7942    0.0000 C   0  0  0  0  0  0  0  0  0  0  0  0
   -3.7500   -6.4952    0.0000 O   0  0  0  0  0  0  0  0  0  0  0  0
   -3.7500   -9.0933    0.0000 N   0  0  0  0  0  0  0  0  0  0  0  0
   -5.2500   -9.0933    0.0000 C   0  0  0  0  0  0  0  0  0  0  0  0
   -6.0000   -7.7942    0.0000 O   0  0  0  0  0  0  0  0  0  0  0  0
   -6.0000  -10.3923    0.0000 C   0  0  0  0  0  0  0  0  0  0  0  0
   -7.5000  -10.3923    0.0000 C   0  0  0  0  0  0  0  0  0  0  0  0
   -8.2500   -9.0933    0.0000 C   0  0  0  0  0  0  0  0  0  0  0  0
   -9.7500   -9.0933    0.0000 C   0  0  0  0  0  0  0  0  0  0  0  0
  -10.5000  -10.3923    0.0000 C   0  0  0  0  0  0  0  0  0  0  0  0
  -12.0000  -10.3923    0.0000 F   0  0  0  0  0  0  0  0  0  0  0  0
   -9.7500  -11.6913    0.0000 C   0  0  0  0  0  0  0  0  0  0  0  0
   -8.2500  -11.6913    0.0000 C   0  0  0  0  0  0  0  0  0  0  0  0
    0.7500   -6.4952    0.0000 C   0  0  0  0  0  0  0  0  0  0  0  0
    1.5000   -5.1962    0.0000 C   0  0  0  0  0  0  0  0  0  0  0  0
    3.0000   -5.1962    0.0000 F   0  0  0  0  0  0  0  0  0  0  0  0
   -0.7500   -1.2990    0.0000 C   0  0  0  0  0  0  0  0  0  0  0  0
   -1.5000    0.0000    0.0000 C   0  0  0  0  0  0  0  0  0  0  0  0
   -0.7500    1.2990    0.0000 N   0  0  0  0  0  0  0  0  0  0  0  0
    0.7500    1.2990    0.0000 C   0  0  0  0  0  0  0  0  0  0  0  0
    1.5000    2.5981    0.0000 N   0  0  0  0  0  0  0  0  0  0  0  0
  1  2  3  0
  2  3  1  0
  3  4  2  0
  4  5  1  0
  5  6  1  0
  6  7  2  0
  7  8  1  0
  8  9  2  0
  9 10  1  0
 10 11  1  0
 11 12  2  0
 11 13  1  0
 13 14  1  0
 14 15  2  0
 14 16  1  0
 16 17  1  0
 17 18  2  0
 18 19  1  0
 19 20  2  0
 20 21  1  0
 20 22  1  0
 22 23  2  0
  9 24  1  0
 24 25  2  0
 25 26  1  0
  4 27  1  0
 27 28  2  0
 28 29  1  0
 29 30  2  0
 30 31  1  0
 30  3  1  0
 25  6  1  0
 23 17  1  0
M  END
>  <Compound_ID>  (2) 
CHEMBL502531

>  <Active>  (2) 
1.0

>  <Smiles>  (2) 
C#Cc1c(Oc2ccc(NC(=O)NC(=O)Cc3ccc(F)cc3)cc2F)ccnc1N

>  <canonical_smi>  (2) 
C#Cc1c(Oc2ccc(NC(=O)NC(=O)Cc3ccc(F)cc3)cc2F)ccnc1N

>  <Set>  (2) 
G1 active

>  <Set_type>  (2) 
G1

>  <MW>  (2) 
422.39

>  <HBD>  (2) 
3

>  <HBA>  (2) 
5

>  <NRB>  (2) 
5

>  <NR>  (2) 
3

>  <NAR>  (2) 
3

>  <PSA>  (2) 
106.34

>  <Standard Type>  (2) 
nan

>  <Standard Relation>  (2) 
nan

>  <Standard Units>  (2) 
nan

>  <Standard Value>  (2) 
nan

>  <Assay ChEMBL ID>  (2) 
nan

>  <Assay Description>  (2) 
nan

>  <BAO Label>  (2) 
nan

$$$$

     RDKit          2D

 29 33  0  0  0  0  0  0  0  0999 V2000
    3.7500   -1.2990    0.0000 C   0  0  0  0  0  0  0  0  0  0  0  0
    3.0000    0.0000    0.0000 O   0  0  0  0  0  0  0  0  0  0  0  0
    1.5000    0.0000    0.0000 C   0  0  0  0  0  0  0  0  0  0  0  0
    0.7500   -1.2990    0.0000 C   0  0  0  0  0  0  0  0  0  0  0  0
   -0.7500   -1.2990    0.0000 N   0  0  0  0  0  0  0  0  0  0  0  0
   -1.5000    0.0000    0.0000 C   0  0  0  0  0  0  0  0  0  0  0  0
   -3.0000    0.0000    0.0000 C   0  0  0  0  0  0  0  0  0  0  0  0
   -3.7500   -1.2990    0.0000 N   0  0  0  0  0  0  0  0  0  0  0  0
   -5.2500   -1.2990    0.0000 C   0  0  0  0  0  0  0  0  0  0  0  0
   -6.0000   -2.5981    0.0000 C   0  0  0  0  0  0  0  0  0  0  0  0
   -5.3899   -3.9684    0.0000 N   0  0  0  0  0  0  0  0  0  0  0  0
   -6.5046   -4.9721    0.0000 N   0  0  0  0  0  0  0  0  0  0  0  0
   -7.8037   -4.2221    0.0000 C   0  0  0  0  0  0  0  0  0  0  0  0
   -9.2302   -4.6856    0.0000 C   0  0  0  0  0  0  0  0  0  0  0  0
  -10.3450   -3.6819    0.0000 C   0  0  0  0  0  0  0  0  0  0  0  0
  -10.0331   -2.2147    0.0000 C   0  0  0  0  0  0  0  0  0  0  0  0
  -11.1478   -1.2110    0.0000 C   0  0  0  0  0  0  0  0  0  0  0  0
  -12.6150   -1.5229    0.0000 C   0  0  0  0  0  0  0  0  0  0  0  0
  -13.3650   -0.2238    0.0000 C   0  0  0  0  0  0  0  0  0  0  0  0
  -14.8568   -0.0670    0.0000 C   0  0  0  0  0  0  0  0  0  0  0  0
  -12.3613    0.8909    0.0000 N   0  0  0  0  0  0  0  0  0  0  0  0
  -10.9910    0.2808    0.0000 S   0  0  0  0  0  0  0  0  0  0  0  0
   -8.6065   -1.7512    0.0000 N   0  0  0  0  0  0  0  0  0  0  0  0
   -7.4918   -2.7549    0.0000 N   0  0  0  0  0  0  0  0  0  0  0  0
   -3.7500    1.2990    0.0000 C   0  0  0  0  0  0  0  0  0  0  0  0
   -3.0000    2.5981    0.0000 C   0  0  0  0  0  0  0  0  0  0  0  0
   -1.5000    2.5981    0.0000 N   0  0  0  0  0  0  0  0  0  0  0  0
   -0.7500    1.2990    0.0000 C   0  0  0  0  0  0  0  0  0  0  0  0
    0.7500    1.2990    0.0000 C   0  0  0  0  0  0  0  0  0  0  0  0
  1  2  1  0
  2  3  1  0
  3  4  2  0
  4  5  1  0
  5  6  2  0
  6  7  1  0
  7  8  1  0
  8  9  1  0
  9 10  1  0
 10 11  2  0
 11 12  1  0
 12 13  2  0
 13 14  1  0
 14 15  2  0
 15 16  1  0
 16 17  1  0
 17 18  2  0
 18 19  1  0
 19 20  1  0
 19 21  2  0
 21 22  1  0
 16 23  2  0
 23 24  1  0
  7 25  2  0
 25 26  1  0
 26 27  2  0
 27 28  1  0
 28 29  2  0
 29  3  1  0
 28  6  1  0
 24 10  1  0
 24 13  1  0
 22 17  1  0
M  END
>  <Compound_ID>  (3) 
CHEMBL566685

>  <Active>  (3) 
1.0

>  <Smiles>  (3) 
COc1cnc2c(NCc3nnc4ccc(-c5cc(C)ns5)nn34)ccnc2c1

>  <canonical_smi>  (3) 
COc1cnc2c(NCc3nnc4ccc(-c5cc(C)ns5)nn34)ccnc2c1

>  <Set>  (3) 
G1 active

>  <Set_type>  (3) 
G1

>  <MW>  (3) 
404.46

>  <HBD>  (3) 
1

>  <HBA>  (3) 
8

>  <NRB>  (3) 
5

>  <NR>  (3) 
5

>  <NAR>  (3) 
5

>  <PSA>  (3) 
103.01

>  <Standard Type>  (3) 
nan

>  <Standard Relation>  (3) 
nan

>  <Standard Units>  (3) 
nan

>  <Standard Value>  (3) 
nan

>  <Assay ChEMBL ID>  (3) 
nan

>  <Assay Description>  (3) 
nan

>  <BAO Label>  (3) 
nan

$$$$

     RDKit          2D

 32 36  0  0  0  0  0  0  0  0999 V2000
    3.7500   -1.2990    0.0000 C   0  0  0  0  0  0  0  0  0  0  0  0
    3.0000    0.0000    0.0000 O   0  0  0  0  0  0  0  0  0  0  0  0
    1.5000    0.0000    0.0000 C   0  0  0  0  0  0  0  0  0  0  0  0
    0.7500   -1.2990    0.0000 C   0  0  0  0  0  0  0  0  0  0  0  0
   -0.7500   -1.2990    0.0000 C   0  0  0  0  0  0  0  0  0  0  0  0
   -1.5000    0.0000    0.0000 C   0  0  0  0  0  0  0  0  0  0  0  0
   -3.0000    0.0000    0.0000 C   0  0  0  0  0  0  0  0  0  0  0  0
   -3.7500   -1.2990    0.0000 O   0  0  0  0  0  0  0  0  0  0  0  0
   -5.2500   -1.2990    0.0000 C   0  0  0  0  0  0  0  0  0  0  0  0
   -6.0000   -2.5981    0.0000 C   0  0  0  0  0  0  0  0  0  0  0  0
   -5.3899   -3.9684    0.0000 N   0  0  0  0  0  0  0  0  0  0  0  0
   -6.5046   -4.9721    0.0000 N   0  0  0  0  0  0  0  0  0  0  0  0
   -7.8037   -4.2221    0.0000 C   0  0  0  0  0  0  0  0  0  0  0  0
   -9.2302   -4.6856    0.0000 C   0  0  0  0  0  0  0  0  0  0  0  0
  -10.3450   -3.6819    0.0000 C   0  0  0  0  0  0  0  0  0  0  0  0
  -10.0331   -2.2147    0.0000 C   0  0  0  0  0  0  0  0  0  0  0  0
  -11.1478   -1.2110    0.0000 C   0  0  0  0  0  0  0  0  0  0  0  0
  -10.8359    0.2562    0.0000 C   0  0  0  0  0  0  0  0  0  0  0  0
  -11.9507    1.2599    0.0000 C   0  0  0  0  0  0  0  0  0  0  0  0
  -11.6388    2.7271    0.0000 F   0  0  0  0  0  0  0  0  0  0  0  0
  -13.3772    0.7964    0.0000 C   0  0  0  0  0  0  0  0  0  0  0  0
  -14.4920    1.8001    0.0000 F   0  0  0  0  0  0  0  0  0  0  0  0
  -13.6891   -0.6708    0.0000 C   0  0  0  0  0  0  0  0  0  0  0  0
  -15.1157   -1.1344    0.0000 F   0  0  0  0  0  0  0  0  0  0  0  0
  -12.5744   -1.6745    0.0000 C   0  0  0  0  0  0  0  0  0  0  0  0
   -8.6065   -1.7512    0.0000 N   0  0  0  0  0  0  0  0  0  0  0  0
   -7.4918   -2.7549    0.0000 N   0  0  0  0  0  0  0  0  0  0  0  0
   -3.7500    1.2990    0.0000 C   0  0  0  0  0  0  0  0  0  0  0  0
   -3.0000    2.5981    0.0000 C   0  0  0  0  0  0  0  0  0  0  0  0
   -1.5000    2.5981    0.0000 N   0  0  0  0  0  0  0  0  0  0  0  0
   -0.7500    1.2990    0.0000 C   0  0  0  0  0  0  0  0  0  0  0  0
    0.7500    1.2990    0.0000 C   0  0  0  0  0  0  0  0  0  0  0  0
  1  2  1  0
  2  3  1  0
  3  4  2  0
  4  5  1  0
  5  6  2  0
  6  7  1  0
  7  8  1  0
  8  9  1  0
  9 10  1  0
 10 11  2  0
 11 12  1  0
 12 13  2  0
 13 14  1  0
 14 15  2  0
 15 16  1  0
 16 17  1  0
 17 18  2  0
 18 19  1  0
 19 20  1  0
 19 21  2  0
 21 22  1  0
 21 23  1  0
 23 24  1  0
 23 25  2  0
 16 26  2  0
 26 27  1  0
  7 28  2  0
 28 29  1  0
 29 30  2  0
 30 31  1  0
 31 32  2  0
 32  3  1  0
 31  6  1  0
 27 10  1  0
 27 13  1  0
 25 17  1  0
M  END
>  <Compound_ID>  (4) 
CHEMBL494979

>  <Active>  (4) 
1.0

>  <Smiles>  (4) 
COc1ccc2c(OCc3nnc4ccc(-c5cc(F)c(F)c(F)c5)nn34)ccnc2c1

>  <canonical_smi>  (4) 
COc1ccc2c(OCc3nnc4ccc(-c5cc(F)c(F)c(F)c5)nn34)ccnc2c1

>  <Set>  (4) 
G1 active

>  <Set_type>  (4) 
G1

>  <MW>  (4) 
437.38

>  <HBD>  (4) 
0

>  <HBA>  (4) 
6

>  <NRB>  (4) 
5

>  <NR>  (4) 
5

>  <NAR>  (4) 
5

>  <PSA>  (4) 
74.43

>  <Standard Type>  (4) 
nan

>  <Standard Relation>  (4) 
nan

>  <Standard Units>  (4) 
nan

>  <Standard Value>  (4) 
nan

>  <Assay ChEMBL ID>  (4) 
nan

>  <Assay Description>  (4) 
nan

>  <BAO Label>  (4) 
nan

$$$$

     RDKit          2D

 40 44  0  0  0  0  0  0  0  0999 V2000
    3.0000    0.0000    0.0000 C   0  0  0  0  0  0  0  0  0  0  0  0
    1.5000    0.0000    0.0000 N   0  0  0  0  0  0  0  0  0  0  0  0
    0.7500   -1.2990    0.0000 C   0  0  0  0  0  0  0  0  0  0  0  0
   -0.7500   -1.2990    0.0000 C   0  0  0  0  0  0  0  0  0  0  0  0
   -1.5000    0.0000    0.0000 N   0  0  0  0  0  0  0  0  0  0  0  0
   -3.0000    0.0000    0.0000 C   0  0  0  0  0  0  0  0  0  0  0  0
   -3.7500    1.2990    0.0000 C   0  0  0  0  0  0  0  0  0  0  0  0
   -3.0000    2.5981    0.0000 C   0  0  0  0  0  0  0  0  0  0  0  0
   -1.5000    2.5981    0.0000 O   0  0  0  0  0  0  0  0  0  0  0  0
   -0.7500    3.8971    0.0000 C   0  0  0  0  0  0  0  0  0  0  0  0
    0.7500    3.8971    0.0000 C   0  0  0  0  0  0  0  0  0  0  0  0
    1.5000    5.1962    0.0000 C   0  0  0  0  0  0  0  0  0  0  0  0
    0.7500    6.4952    0.0000 C   0  0  0  0  0  0  0  0  0  0  0  0
    1.5000    7.7942    0.0000 N   0  0  0  0  0  0  0  0  0  0  0  0
    3.0000    7.7942    0.0000 C   0  0  0  0  0  0  0  0  0  0  0  0
    3.7500    6.4952    0.0000 O   0  0  0  0  0  0  0  0  0  0  0  0
    3.7500    9.0933    0.0000 C   0  0  0  0  0  0  0  0  0  0  0  0
    5.2500    9.0933    0.0000 C   0  0  0  0  0  0  0  0  0  0  0  0
    6.0000   10.3923    0.0000 C   0  0  0  0  0  0  0  0  0  0  0  0
    5.2500   11.6913    0.0000 C   0  0  0  0  0  0  0  0  0  0  0  0
    3.7500   11.6913    0.0000 N   0  0  0  0  0  0  0  0  0  0  0  0
    3.0000   12.9904    0.0000 C   0  0  0  0  0  0  0  0  0  0  0  0
    3.7500   14.2894    0.0000 C   0  0  0  0  0  0  0  0  0  0  0  0
    3.0000   15.5885    0.0000 C   0  0  0  0  0  0  0  0  0  0  0  0
    1.5000   15.5885    0.0000 C   0  0  0  0  0  0  0  0  0  0  0  0
    0.7500   16.8875    0.0000 F   0  0  0  0  0  0  0  0  0  0  0  0
    0.7500   14.2894    0.0000 C   0  0  0  0  0  0  0  0  0  0  0  0
    1.5000   12.9904    0.0000 C   0  0  0  0  0  0  0  0  0  0  0  0
    3.0000   10.3923    0.0000 C   0  0  0  0  0  0  0  0  0  0  0  0
    1.5000   10.3923    0.0000 O   0  0  0  0  0  0  0  0  0  0  0  0
   -0.7500    6.4952    0.0000 C   0  0  0  0  0  0  0  0  0  0  0  0
   -1.5000    5.1962    0.0000 C   0  0  0  0  0  0  0  0  0  0  0  0
   -3.0000    5.1962    0.0000 F   0  0  0  0  0  0  0  0  0  0  0  0
   -3.7500    3.8971    0.0000 C   0  0  0  0  0  0  0  0  0  0  0  0
   -5.2500    3.8971    0.0000 C   0  0  0  0  0  0  0  0  0  0  0  0
   -6.0000    2.5981    0.0000 N   0  0  0  0  0  0  0  0  0  0  0  0
   -5.2500    1.2990    0.0000 C   0  0  0  0  0  0  0  0  0  0  0  0
   -6.0000    0.0000    0.0000 N   0  0  0  0  0  0  0  0  0  0  0  0
   -0.7500    1.2990    0.0000 C   0  0  0  0  0  0  0  0  0  0  0  0
    0.7500    1.2990    0.0000 C   0  0  0  0  0  0  0  0  0  0  0  0
  1  2  1  0
  2  3  1  0
  3  4  1  0
  4  5  1  0
  5  6  1  0
  6  7  1  0
  7  8  1  0
  8  9  1  0
  9 10  1  0
 10 11  2  0
 11 12  1  0
 12 13  2  0
 13 14  1  0
 14 15  1  0
 15 16  2  0
 15 17  1  0
 17 18  2  0
 18 19  1  0
 19 20  2  0
 20 21  1  0
 21 22  1  0
 22 23  2  0
 23 24  1  0
 24 25  2  0
 25 26  1  0
 25 27  1  0
 27 28  2  0
 21 29  1  0
 29 30  2  0
 13 31  1  0
 31 32  2  0
 32 33  1  0
  8 34  2  0
 34 35  1  0
 35 36  2  0
 36 37  1  0
 37 38  1  0
  5 39  1  0
 39 40  1  0
 40  2  1  0
 37  7  2  0
 32 10  1  0
 29 17  1  0
 28 22  1  0
M  END
>  <Compound_ID>  (5) 
CHEMBL515858

>  <Active>  (5) 
1.0

>  <Smiles>  (5) 
CN1CCN(Cc2c(Oc3ccc(NC(=O)c4cccn(-c5ccc(F)cc5)c4=O)cc3F)ccnc2N)CC1

>  <canonical_smi>  (5) 
CN1CCN(Cc2c(Oc3ccc(NC(=O)c4cccn(-c5ccc(F)cc5)c4=O)cc3F)ccnc2N)CC1

>  <Set>  (5) 
G1 active

>  <Set_type>  (5) 
G1

>  <MW>  (5) 
546.58

>  <HBD>  (5) 
2

>  <HBA>  (5) 
7

>  <NRB>  (5) 
7

>  <NR>  (5) 
5

>  <NAR>  (5) 
4

>  <PSA>  (5) 
105.72

>  <Standard Type>  (5) 
nan

>  <Standard Relation>  (5) 
nan

>  <Standard Units>  (5) 
nan

>  <Standard Value>  (5) 
nan

>  <Assay ChEMBL ID>  (5) 
nan

>  <Assay Description>  (5) 
nan

>  <BAO Label>  (5) 
nan

$$$$

     RDKit          2D

 34 38  0  0  0  0  0  0  0  0999 V2000
  -13.6060   10.3234    0.0000 C   0  0  0  0  0  0  0  0  0  0  0  0
  -13.9179    8.8562    0.0000 C   0  0  0  0  0  0  0  0  0  0  0  0
  -15.3445    8.3927    0.0000 C   0  0  0  0  0  0  0  0  0  0  0  0
  -15.6564    6.9255    0.0000 C   0  0  0  0  0  0  0  0  0  0  0  0
  -14.5416    5.9218    0.0000 C   0  0  0  0  0  0  0  0  0  0  0  0
  -13.1151    6.3853    0.0000 C   0  0  0  0  0  0  0  0  0  0  0  0
  -12.8032    7.8525    0.0000 C   0  0  0  0  0  0  0  0  0  0  0  0
  -11.3766    8.3160    0.0000 N   0  0  0  0  0  0  0  0  0  0  0  0
  -10.2619    7.3123    0.0000 C   0  0  0  0  0  0  0  0  0  0  0  0
  -10.5738    5.8451    0.0000 O   0  0  0  0  0  0  0  0  0  0  0  0
   -8.8353    7.7759    0.0000 C   0  0  0  0  0  0  0  0  0  0  0  0
   -8.5234    9.2431    0.0000 C   0  0  0  0  0  0  0  0  0  0  0  0
   -7.0969    9.7066    0.0000 C   0  0  0  0  0  0  0  0  0  0  0  0
   -5.9821    8.7029    0.0000 C   0  0  0  0  0  0  0  0  0  0  0  0
   -6.2940    7.2357    0.0000 N   0  0  0  0  0  0  0  0  0  0  0  0
   -7.7206    6.7722    0.0000 C   0  0  0  0  0  0  0  0  0  0  0  0
   -8.0325    5.3050    0.0000 N   0  0  0  0  0  0  0  0  0  0  0  0
   -6.9177    4.3013    0.0000 C   0  0  0  0  0  0  0  0  0  0  0  0
   -7.2296    2.8340    0.0000 C   0  0  0  0  0  0  0  0  0  0  0  0
   -6.1149    1.8303    0.0000 C   0  0  0  0  0  0  0  0  0  0  0  0
   -4.6883    2.2939    0.0000 C   0  0  0  0  0  0  0  0  0  0  0  0
   -3.5736    1.2902    0.0000 O   0  0  0  0  0  0  0  0  0  0  0  0
   -3.8855   -0.1771    0.0000 C   0  0  0  0  0  0  0  0  0  0  0  0
   -5.3120   -0.6406    0.0000 C   0  0  0  0  0  0  0  0  0  0  0  0
   -5.6239   -2.1078    0.0000 C   0  0  0  0  0  0  0  0  0  0  0  0
   -4.5092   -3.1115    0.0000 N   0  0  0  0  0  0  0  0  0  0  0  0
   -3.0826   -2.6480    0.0000 C   0  0  0  0  0  0  0  0  0  0  0  0
   -1.7836   -3.3980    0.0000 N   0  0  0  0  0  0  0  0  0  0  0  0
   -0.6689   -2.3943    0.0000 C   0  0  0  0  0  0  0  0  0  0  0  0
   -1.2790   -1.0240    0.0000 C   0  0  0  0  0  0  0  0  0  0  0  0
   -2.7707   -1.1807    0.0000 C   0  0  0  0  0  0  0  0  0  0  0  0
   -4.3764    3.7611    0.0000 C   0  0  0  0  0  0  0  0  0  0  0  0
   -2.9499    4.2246    0.0000 F   0  0  0  0  0  0  0  0  0  0  0  0
   -5.4912    4.7648    0.0000 C   0  0  0  0  0  0  0  0  0  0  0  0
  1  2  1  0
  2  3  2  0
  3  4  1  0
  4  5  2  0
  5  6  1  0
  6  7  2  0
  7  8  1  0
  8  9  1  0
  9 10  2  0
  9 11  1  0
 11 12  2  0
 12 13  1  0
 13 14  2  0
 14 15  1  0
 15 16  2  0
 16 17  1  0
 17 18  1  0
 18 19  2  0
 19 20  1  0
 20 21  2  0
 21 22  1  0
 22 23  1  0
 23 24  2  0
 24 25  1  0
 25 26  2  0
 26 27  1  0
 27 28  1  0
 28 29  1  0
 29 30  2  0
 30 31  1  0
 21 32  1  0
 32 33  1  0
 32 34  2  0
  7  2  1  0
 16 11  1  0
 34 18  1  0
 31 23  1  0
 31 27  2  0
M  END
>  <Compound_ID>  (6) 
CHEMBL1099174

>  <Active>  (6) 
1.0

>  <Smiles>  (6) 
Cc1ccccc1NC(=O)c1cccnc1Nc1ccc(Oc2ccnc3[nH]ccc23)c(F)c1

>  <canonical_smi>  (6) 
Cc1ccccc1NC(=O)c1cccnc1Nc1ccc(Oc2ccnc3[nH]ccc23)c(F)c1

>  <Set>  (6) 
G1 active

>  <Set_type>  (6) 
G1

>  <MW>  (6) 
453.48

>  <HBD>  (6) 
3

>  <HBA>  (6) 
5

>  <NRB>  (6) 
6

>  <NR>  (6) 
5

>  <NAR>  (6) 
5

>  <PSA>  (6) 
91.93

>  <Standard Type>  (6) 
nan

>  <Standard Relation>  (6) 
nan

>  <Standard Units>  (6) 
nan

>  <Standard Value>  (6) 
nan

>  <Assay ChEMBL ID>  (6) 
nan

>  <Assay Description>  (6) 
nan

>  <BAO Label>  (6) 
nan

$$$$

     RDKit          2D

 30 33  0  0  0  0  0  0  0  0999 V2000
    3.7500   -1.2990    0.0000 C   0  0  0  0  0  0  0  0  0  0  0  0
    3.0000   -2.5981    0.0000 C   0  0  0  0  0  0  0  0  0  0  0  0
    1.5000   -2.5981    0.0000 O   0  0  0  0  0  0  0  0  0  0  0  0
    0.7500   -1.2990    0.0000 C   0  0  0  0  0  0  0  0  0  0  0  0
    1.5000    0.0000    0.0000 C   0  0  0  0  0  0  0  0  0  0  0  0
    0.7500    1.2990    0.0000 C   0  0  0  0  0  0  0  0  0  0  0  0
    1.5000    2.5981    0.0000 C   0  0  0  0  0  0  0  0  0  0  0  0
    0.8899    3.9684    0.0000 C   0  0  0  0  0  0  0  0  0  0  0  0
    2.0046    4.9721    0.0000 N   0  0  0  0  0  0  0  0  0  0  0  0
    3.3037    4.2221    0.0000 N   0  0  0  0  0  0  0  0  0  0  0  0
    4.6740    4.8322    0.0000 C   0  0  0  0  0  0  0  0  0  0  0  0
    5.8875    3.9505    0.0000 C   0  0  0  0  0  0  0  0  0  0  0  0
    7.2578    4.5606    0.0000 C   0  0  0  0  0  0  0  0  0  0  0  0
    7.4146    6.0524    0.0000 N   0  0  0  0  0  0  0  0  0  0  0  0
    6.2011    6.9341    0.0000 C   0  0  0  0  0  0  0  0  0  0  0  0
    4.8308    6.3240    0.0000 C   0  0  0  0  0  0  0  0  0  0  0  0
    2.9918    2.7549    0.0000 C   0  0  0  0  0  0  0  0  0  0  0  0
   -0.7500    1.2990    0.0000 C   0  0  0  0  0  0  0  0  0  0  0  0
   -1.5000    0.0000    0.0000 N   0  0  0  0  0  0  0  0  0  0  0  0
   -0.7500   -1.2990    0.0000 C   0  0  0  0  0  0  0  0  0  0  0  0
   -1.5000   -2.5981    0.0000 N   0  0  0  0  0  0  0  0  0  0  0  0
    3.7500   -3.8971    0.0000 C   0  0  0  0  0  0  0  0  0  0  0  0
    3.0000   -5.1962    0.0000 C   0  0  0  0  0  0  0  0  0  0  0  0
    1.5000   -5.1962    0.0000 Cl  0  0  0  0  0  0  0  0  0  0  0  0
    3.7500   -6.4952    0.0000 C   0  0  0  0  0  0  0  0  0  0  0  0
    5.2500   -6.4952    0.0000 C   0  0  0  0  0  0  0  0  0  0  0  0
    6.0000   -5.1962    0.0000 C   0  0  0  0  0  0  0  0  0  0  0  0
    7.5000   -5.1962    0.0000 F   0  0  0  0  0  0  0  0  0  0  0  0
    5.2500   -3.8971    0.0000 C   0  0  0  0  0  0  0  0  0  0  0  0
    6.0000   -2.5981    0.0000 Cl  0  0  0  0  0  0  0  0  0  0  0  0
  2  1  1  1
  2  3  1  0
  3  4  1  0
  4  5  2  0
  5  6  1  0
  6  7  1  0
  7  8  1  0
  8  9  2  0
  9 10  1  0
 10 11  1  0
 11 12  1  0
 12 13  1  0
 13 14  1  0
 14 15  1  0
 15 16  1  0
 10 17  1  0
  6 18  2  0
 18 19  1  0
 19 20  2  0
 20 21  1  0
  2 22  1  0
 22 23  2  0
 23 24  1  0
 23 25  1  0
 25 26  2  0
 26 27  1  0
 27 28  1  0
 27 29  2  0
 29 30  1  0
 20  4  1  0
 29 22  1  0
 17  7  2  0
 16 11  1  0
M  END
>  <Compound_ID>  (7) 
CHEMBL601719

>  <Active>  (7) 
1.0

>  <Smiles>  (7) 
C[C@H](Oc1cc(-c2cnn(C3CCNCC3)c2)cnc1N)c1c(Cl)ccc(F)c1Cl

>  <canonical_smi>  (7) 
C[C@H](Oc1cc(-c2cnn(C3CCNCC3)c2)cnc1N)c1c(Cl)ccc(F)c1Cl

>  <Set>  (7) 
G1 active

>  <Set_type>  (7) 
G1

>  <MW>  (7) 
450.35

>  <HBD>  (7) 
2

>  <HBA>  (7) 
5

>  <NRB>  (7) 
5

>  <NR>  (7) 
4

>  <NAR>  (7) 
3

>  <PSA>  (7) 
77.99

>  <Standard Type>  (7) 
nan

>  <Standard Relation>  (7) 
nan

>  <Standard Units>  (7) 
nan

>  <Standard Value>  (7) 
nan

>  <Assay ChEMBL ID>  (7) 
nan

>  <Assay Description>  (7) 
nan

>  <BAO Label>  (7) 
nan

$$$$

     RDKit          2D

 32 37  0  0  0  0  0  0  0  0999 V2000
   -4.0371    2.7168    0.0000 O   0  0  0  0  0  0  0  0  0  0  0  0
   -3.5736    1.2902    0.0000 S   0  0  0  0  0  0  0  0  0  0  0  0
   -3.1101   -0.1364    0.0000 O   0  0  0  0  0  0  0  0  0  0  0  0
   -2.1470    1.7537    0.0000 C   0  0  0  0  0  0  0  0  0  0  0  0
   -1.8351    3.2209    0.0000 C   0  0  0  0  0  0  0  0  0  0  0  0
   -0.4086    3.6844    0.0000 C   0  0  0  0  0  0  0  0  0  0  0  0
    0.7062    2.6807    0.0000 C   0  0  0  0  0  0  0  0  0  0  0  0
    0.3943    1.2135    0.0000 C   0  0  0  0  0  0  0  0  0  0  0  0
    1.2760    0.0000    0.0000 N   0  0  0  0  0  0  0  0  0  0  0  0
    0.3943   -1.2135    0.0000 O   0  0  0  0  0  0  0  0  0  0  0  0
   -1.0323   -0.7500    0.0000 N   0  0  0  0  0  0  0  0  0  0  0  0
   -1.0323    0.7500    0.0000 C   0  0  0  0  0  0  0  0  0  0  0  0
   -5.0002    0.8266    0.0000 N   0  0  0  0  0  0  0  0  0  0  0  0
   -5.4637   -0.5999    0.0000 C   0  0  0  0  0  0  0  0  0  0  0  0
   -6.9637   -0.5999    0.0000 C   0  0  0  0  0  0  0  0  0  0  0  0
   -7.4272    0.8266    0.0000 C   0  0  0  0  0  0  0  0  0  0  0  0
   -8.7975    1.4367    0.0000 N   0  0  0  0  0  0  0  0  0  0  0  0
   -8.9543    2.9285    0.0000 C   0  0  0  0  0  0  0  0  0  0  0  0
   -7.7408    3.8102    0.0000 C   0  0  0  0  0  0  0  0  0  0  0  0
   -7.8976    5.3020    0.0000 C   0  0  0  0  0  0  0  0  0  0  0  0
   -9.1966    6.0520    0.0000 C   0  0  0  0  0  0  0  0  0  0  0  0
   -8.8848    7.5192    0.0000 N   0  0  0  0  0  0  0  0  0  0  0  0
   -7.3930    7.6760    0.0000 N   0  0  0  0  0  0  0  0  0  0  0  0
   -6.6430    8.9750    0.0000 C   0  0  0  0  0  0  0  0  0  0  0  0
   -5.1430    8.9750    0.0000 C   0  0  0  0  0  0  0  0  0  0  0  0
   -4.3930   10.2741    0.0000 C   0  0  0  0  0  0  0  0  0  0  0  0
   -5.1430   11.5731    0.0000 N   0  0  0  0  0  0  0  0  0  0  0  0
   -6.6430   11.5731    0.0000 C   0  0  0  0  0  0  0  0  0  0  0  0
   -7.3930   10.2741    0.0000 C   0  0  0  0  0  0  0  0  0  0  0  0
   -6.7829    6.3057    0.0000 C   0  0  0  0  0  0  0  0  0  0  0  0
   -6.3705    3.2001    0.0000 C   0  0  0  0  0  0  0  0  0  0  0  0
   -6.2137    1.7083    0.0000 C   0  0  0  0  0  0  0  0  0  0  0  0
  1  2  2  0
  2  3  2  0
  2  4  1  0
  4  5  2  0
  5  6  1  0
  6  7  2  0
  7  8  1  0
  8  9  2  0
  9 10  1  0
 10 11  1  0
 11 12  2  0
  2 13  1  0
 13 14  1  0
 14 15  2  0
 15 16  1  0
 16 17  2  0
 17 18  1  0
 18 19  2  0
 19 20  1  0
 20 21  1  0
 21 22  2  0
 22 23  1  0
 23 24  1  0
 24 25  1  0
 25 26  1  0
 26 27  1  0
 27 28  1  0
 28 29  1  0
 23 30  1  0
 19 31  1  0
 31 32  2  0
 12  4  1  0
 32 13  1  0
 12  8  1  0
 32 16  1  0
 30 20  2  0
 29 24  1  0
M  END
>  <Compound_ID>  (8) 
CHEMBL554497

>  <Active>  (8) 
1.0

>  <Smiles>  (8) 
O=S(=O)(c1cccc2nonc12)n1ccc2ncc(-c3cnn(C4CCNCC4)c3)cc21

>  <canonical_smi>  (8) 
O=S(=O)(c1cccc2nonc12)n1ccc2ncc(-c3cnn(C4CCNCC4)c3)cc21

>  <Set>  (8) 
G1 active

>  <Set_type>  (8) 
G1

>  <MW>  (8) 
449.5

>  <HBD>  (8) 
1

>  <HBA>  (8) 
8

>  <NRB>  (8) 
4

>  <NR>  (8) 
6

>  <NAR>  (8) 
5

>  <PSA>  (8) 
120.73

>  <Standard Type>  (8) 
nan

>  <Standard Relation>  (8) 
nan

>  <Standard Units>  (8) 
nan

>  <Standard Value>  (8) 
nan

>  <Assay ChEMBL ID>  (8) 
nan

>  <Assay Description>  (8) 
nan

>  <BAO Label>  (8) 
nan

$$$$

     RDKit          2D

 28 31  0  0  0  0  0  0  0  0999 V2000
   -0.7500   -3.8971    0.0000 C   0  0  0  0  0  0  0  0  0  0  0  0
    0.7500   -3.8971    0.0000 C   0  0  0  0  0  0  0  0  0  0  0  0
    1.5000   -2.5981    0.0000 O   0  0  0  0  0  0  0  0  0  0  0  0
    0.7500   -1.2990    0.0000 C   0  0  0  0  0  0  0  0  0  0  0  0
    1.5000    0.0000    0.0000 C   0  0  0  0  0  0  0  0  0  0  0  0
    0.7500    1.2990    0.0000 C   0  0  0  0  0  0  0  0  0  0  0  0
   -0.7500    1.2990    0.0000 C   0  0  0  0  0  0  0  0  0  0  0  0
   -1.5000    2.5981    0.0000 N   0  0  0  0  0  0  0  0  0  0  0  0
   -3.0000    2.5981    0.0000 C   0  0  0  0  0  0  0  0  0  0  0  0
   -3.7500    1.2990    0.0000 C   0  0  0  0  0  0  0  0  0  0  0  0
   -5.2500    1.2990    0.0000 C   0  0  0  0  0  0  0  0  0  0  0  0
   -6.5490    0.5490    0.0000 C   0  0  0  0  0  0  0  0  0  0  0  0
   -6.5490    2.0490    0.0000 C   0  0  0  0  0  0  0  0  0  0  0  0
   -7.2990    3.3481    0.0000 C   0  0  0  0  0  0  0  0  0  0  0  0
   -6.5490    4.6471    0.0000 N   0  0  0  0  0  0  0  0  0  0  0  0
   -8.7990    3.3481    0.0000 O   0  0  0  0  0  0  0  0  0  0  0  0
   -3.0000    0.0000    0.0000 C   0  0  0  0  0  0  0  0  0  0  0  0
   -1.5000    0.0000    0.0000 C   0  0  0  0  0  0  0  0  0  0  0  0
   -0.7500   -1.2990    0.0000 C   0  0  0  0  0  0  0  0  0  0  0  0
    1.5000   -5.1962    0.0000 C   0  0  0  0  0  0  0  0  0  0  0  0
    3.0000   -5.1962    0.0000 C   0  0  0  0  0  0  0  0  0  0  0  0
    3.7500   -3.8971    0.0000 Cl  0  0  0  0  0  0  0  0  0  0  0  0
    3.7500   -6.4952    0.0000 C   0  0  0  0  0  0  0  0  0  0  0  0
    3.0000   -7.7942    0.0000 C   0  0  0  0  0  0  0  0  0  0  0  0
    1.5000   -7.7942    0.0000 C   0  0  0  0  0  0  0  0  0  0  0  0
    0.7500   -9.0933    0.0000 F   0  0  0  0  0  0  0  0  0  0  0  0
    0.7500   -6.4952    0.0000 C   0  0  0  0  0  0  0  0  0  0  0  0
   -0.7500   -6.4952    0.0000 Cl  0  0  0  0  0  0  0  0  0  0  0  0
  2  1  1  6
  2  3  1  0
  3  4  1  0
  4  5  2  0
  5  6  1  0
  6  7  2  0
  7  8  1  0
  8  9  2  0
  9 10  1  0
 10 11  1  0
 11 12  1  0
 12 13  1  0
 13 14  1  0
 14 15  1  0
 14 16  2  0
 10 17  2  0
 17 18  1  0
 18 19  2  0
  2 20  1  0
 20 21  2  0
 21 22  1  0
 21 23  1  0
 23 24  2  0
 24 25  1  0
 25 26  1  0
 25 27  2  0
 27 28  1  0
 19  4  1  0
 27 20  1  0
 18  7  1  0
 13 11  1  0
M  END
>  <Compound_ID>  (9) 
CHEMBL602472

>  <Active>  (9) 
1.0

>  <Smiles>  (9) 
C[C@H](Oc1ccc2ncc(C3CC3C(N)=O)cc2c1)c1c(Cl)ccc(F)c1Cl

>  <canonical_smi>  (9) 
C[C@H](Oc1ccc2ncc(C3CC3C(N)=O)cc2c1)c1c(Cl)ccc(F)c1Cl

>  <Set>  (9) 
G1 active

>  <Set_type>  (9) 
G1

>  <MW>  (9) 
419.28

>  <HBD>  (9) 
1

>  <HBA>  (9) 
3

>  <NRB>  (9) 
5

>  <NR>  (9) 
4

>  <NAR>  (9) 
3

>  <PSA>  (9) 
65.21

>  <Standard Type>  (9) 
nan

>  <Standard Relation>  (9) 
nan

>  <Standard Units>  (9) 
nan

>  <Standard Value>  (9) 
nan

>  <Assay ChEMBL ID>  (9) 
nan

>  <Assay Description>  (9) 
nan

>  <BAO Label>  (9) 
nan

$$$$

     RDKit          2D

 35 40  0  0  0  0  0  0  0  0999 V2000
    5.2500   -6.4952    0.0000 O   0  0  0  0  0  0  0  0  0  0  0  0
    3.7500   -6.4952    0.0000 C   0  0  0  0  0  0  0  0  0  0  0  0
    3.0000   -7.7942    0.0000 C   0  0  0  0  0  0  0  0  0  0  0  0
    1.5000   -7.7942    0.0000 C   0  0  0  0  0  0  0  0  0  0  0  0
    0.7500   -9.0933    0.0000 C   0  0  0  0  0  0  0  0  0  0  0  0
    1.5000  -10.3923    0.0000 C   0  0  0  0  0  0  0  0  0  0  0  0
    3.0000  -10.3923    0.0000 N   0  0  0  0  0  0  0  0  0  0  0  0
    3.7500   -9.0933    0.0000 C   0  0  0  0  0  0  0  0  0  0  0  0
    3.0000   -5.1962    0.0000 N   0  0  0  0  0  0  0  0  0  0  0  0
    3.7500   -3.8971    0.0000 C   0  0  0  0  0  0  0  0  0  0  0  0
    3.0000   -2.5981    0.0000 C   0  0  0  0  0  0  0  0  0  0  0  0
    1.5000   -2.5981    0.0000 N   0  0  0  0  0  0  0  0  0  0  0  0
    0.7500   -1.2990    0.0000 C   0  0  0  0  0  0  0  0  0  0  0  0
    1.5000    0.0000    0.0000 C   0  0  0  0  0  0  0  0  0  0  0  0
    0.7500    1.2990    0.0000 N   0  0  0  0  0  0  0  0  0  0  0  0
   -0.7500    1.2990    0.0000 C   0  0  0  0  0  0  0  0  0  0  0  0
   -1.7537    2.4138    0.0000 C   0  0  0  0  0  0  0  0  0  0  0  0
   -3.1240    1.8037    0.0000 C   0  0  0  0  0  0  0  0  0  0  0  0
   -2.9672    0.3119    0.0000 N   0  0  0  0  0  0  0  0  0  0  0  0
   -4.0819   -0.6918    0.0000 S   0  0  0  0  0  0  0  0  0  0  0  0
   -3.0782   -1.8065    0.0000 O   0  0  0  0  0  0  0  0  0  0  0  0
   -5.0856    0.4229    0.0000 O   0  0  0  0  0  0  0  0  0  0  0  0
   -5.1967   -1.6955    0.0000 C   0  0  0  0  0  0  0  0  0  0  0  0
   -4.8848   -3.1627    0.0000 C   0  0  0  0  0  0  0  0  0  0  0  0
   -5.9995   -4.1664    0.0000 C   0  0  0  0  0  0  0  0  0  0  0  0
   -7.4261   -3.7029    0.0000 C   0  0  0  0  0  0  0  0  0  0  0  0
   -7.7380   -2.2357    0.0000 C   0  0  0  0  0  0  0  0  0  0  0  0
   -9.0370   -1.4857    0.0000 N   0  0  0  0  0  0  0  0  0  0  0  0
   -8.7251   -0.0185    0.0000 O   0  0  0  0  0  0  0  0  0  0  0  0
   -7.2333    0.1383    0.0000 N   0  0  0  0  0  0  0  0  0  0  0  0
   -6.6232   -1.2320    0.0000 C   0  0  0  0  0  0  0  0  0  0  0  0
   -1.5000    0.0000    0.0000 C   0  0  0  0  0  0  0  0  0  0  0  0
   -0.7500   -1.2990    0.0000 C   0  0  0  0  0  0  0  0  0  0  0  0
    0.7500   -3.8971    0.0000 C   0  0  0  0  0  0  0  0  0  0  0  0
    1.5000   -5.1962    0.0000 C   0  0  0  0  0  0  0  0  0  0  0  0
  1  2  2  0
  2  3  1  0
  3  4  2  0
  4  5  1  0
  5  6  2  0
  6  7  1  0
  7  8  2  0
  2  9  1  0
  9 10  1  0
 10 11  1  0
 11 12  1  0
 12 13  1  0
 13 14  2  0
 14 15  1  0
 15 16  2  0
 16 17  1  0
 17 18  2  0
 18 19  1  0
 19 20  1  0
 20 21  2  0
 20 22  2  0
 20 23  1  0
 23 24  2  0
 24 25  1  0
 25 26  2  0
 26 27  1  0
 27 28  2  0
 28 29  1  0
 29 30  1  0
 30 31  2  0
 19 32  1  0
 32 33  2  0
 12 34  1  0
 34 35  1  0
  8  3  1  0
 35  9  1  0
 33 13  1  0
 32 16  1  0
 31 23  1  0
 31 27  1  0
M  END
>  <Compound_ID>  (10) 
CHEMBL564904

>  <Active>  (10) 
1.0

>  <Smiles>  (10) 
O=C(c1cccnc1)N1CCN(c2cnc3ccn(S(=O)(=O)c4cccc5nonc45)c3c2)CC1

>  <canonical_smi>  (10) 
O=C(c1cccnc1)N1CCN(c2cnc3ccn(S(=O)(=O)c4cccc5nonc45)c3c2)CC1

>  <Set>  (10) 
G1 active

>  <Set_type>  (10) 
G1

>  <MW>  (10) 
489.52

>  <HBD>  (10) 
0

>  <HBA>  (10) 
9

>  <NRB>  (10) 
4

>  <NR>  (10) 
6

>  <NAR>  (10) 
5

>  <PSA>  (10) 
127.32

>  <Standard Type>  (10) 
nan

>  <Standard Relation>  (10) 
nan

>  <Standard Units>  (10) 
nan

>  <Standard Value>  (10) 
nan

>  <Assay ChEMBL ID>  (10) 
nan

>  <Assay Description>  (10) 
nan

>  <BAO Label>  (10) 
nan

$$$$

     RDKit          2D

 36 40  0  0  0  0  0  0  0  0999 V2000
   -1.6317   -8.6291    0.0000 C   0  0  0  0  0  0  0  0  0  0  0  0
   -0.7500   -7.4156    0.0000 N   0  0  0  0  0  0  0  0  0  0  0  0
    0.7500   -7.4156    0.0000 C   0  0  0  0  0  0  0  0  0  0  0  0
    1.2135   -5.9890    0.0000 N   0  0  0  0  0  0  0  0  0  0  0  0
   -0.0000   -5.1073    0.0000 C   0  0  0  0  0  0  0  0  0  0  0  0
   -0.0000   -3.6073    0.0000 C   0  0  0  0  0  0  0  0  0  0  0  0
    1.2135   -2.7256    0.0000 C   0  0  0  0  0  0  0  0  0  0  0  0
    0.7500   -1.2990    0.0000 C   0  0  0  0  0  0  0  0  0  0  0  0
    1.5000    0.0000    0.0000 N   0  0  0  0  0  0  0  0  0  0  0  0
    0.7500    1.2990    0.0000 C   0  0  0  0  0  0  0  0  0  0  0  0
   -0.7500    1.2990    0.0000 C   0  0  0  0  0  0  0  0  0  0  0  0
   -1.5000    0.0000    0.0000 C   0  0  0  0  0  0  0  0  0  0  0  0
   -3.0000    0.0000    0.0000 O   0  0  0  0  0  0  0  0  0  0  0  0
   -3.7500    1.2990    0.0000 C   0  0  0  0  0  0  0  0  0  0  0  0
   -3.0000    2.5981    0.0000 C   0  0  0  0  0  0  0  0  0  0  0  0
   -3.7500    3.8971    0.0000 C   0  0  0  0  0  0  0  0  0  0  0  0
   -5.2500    3.8971    0.0000 C   0  0  0  0  0  0  0  0  0  0  0  0
   -6.0000    5.1962    0.0000 N   0  0  0  0  0  0  0  0  0  0  0  0
   -5.2500    6.4952    0.0000 C   0  0  0  0  0  0  0  0  0  0  0  0
   -3.7500    6.4952    0.0000 S   0  0  0  0  0  0  0  0  0  0  0  0
   -6.0000    7.7942    0.0000 N   0  0  0  0  0  0  0  0  0  0  0  0
   -5.2500    9.0933    0.0000 C   0  0  0  0  0  0  0  0  0  0  0  0
   -3.7500    9.0933    0.0000 O   0  0  0  0  0  0  0  0  0  0  0  0
   -6.0000   10.3923    0.0000 C   0  0  0  0  0  0  0  0  0  0  0  0
   -5.2500   11.6913    0.0000 C   0  0  0  0  0  0  0  0  0  0  0  0
   -3.7500   11.6913    0.0000 C   0  0  0  0  0  0  0  0  0  0  0  0
   -3.0000   12.9904    0.0000 C   0  0  0  0  0  0  0  0  0  0  0  0
   -3.7500   14.2894    0.0000 C   0  0  0  0  0  0  0  0  0  0  0  0
   -5.2500   14.2894    0.0000 C   0  0  0  0  0  0  0  0  0  0  0  0
   -6.0000   12.9904    0.0000 C   0  0  0  0  0  0  0  0  0  0  0  0
   -6.0000    2.5981    0.0000 C   0  0  0  0  0  0  0  0  0  0  0  0
   -5.2500    1.2990    0.0000 C   0  0  0  0  0  0  0  0  0  0  0  0
   -6.0000    0.0000    0.0000 F   0  0  0  0  0  0  0  0  0  0  0  0
   -0.7500   -1.2990    0.0000 C   0  0  0  0  0  0  0  0  0  0  0  0
   -1.2135   -2.7256    0.0000 S   0  0  0  0  0  0  0  0  0  0  0  0
   -1.2135   -5.9890    0.0000 C   0  0  0  0  0  0  0  0  0  0  0  0
  1  2  1  0
  2  3  1  0
  3  4  2  0
  4  5  1  0
  5  6  1  0
  6  7  2  0
  7  8  1  0
  8  9  2  0
  9 10  1  0
 10 11  2  0
 11 12  1  0
 12 13  1  0
 13 14  1  0
 14 15  2  0
 15 16  1  0
 16 17  2  0
 17 18  1  0
 18 19  1  0
 19 20  2  0
 19 21  1  0
 21 22  1  0
 22 23  2  0
 22 24  1  0
 24 25  1  0
 25 26  2  0
 26 27  1  0
 27 28  2  0
 28 29  1  0
 29 30  2  0
 17 31  1  0
 31 32  2  0
 32 33  1  0
 12 34  2  0
 34 35  1  0
  5 36  2  0
 36  2  1  0
 35  6  1  0
 34  8  1  0
 32 14  1  0
 30 25  1  0
M  END
>  <Compound_ID>  (11) 
CHEMBL254760

>  <Active>  (11) 
1.0

>  <Smiles>  (11) 
Cn1cnc(-c2cc3nccc(Oc4ccc(NC(=S)NC(=O)Cc5ccccc5)cc4F)c3s2)c1

>  <canonical_smi>  (11) 
Cn1cnc(-c2cc3nccc(Oc4ccc(NC(=S)NC(=O)Cc5ccccc5)cc4F)c3s2)c1

>  <Set>  (11) 
G1 active

>  <Set_type>  (11) 
G1

>  <MW>  (11) 
517.61

>  <HBD>  (11) 
2

>  <HBA>  (11) 
6

>  <NRB>  (11) 
6

>  <NR>  (11) 
5

>  <NAR>  (11) 
5

>  <PSA>  (11) 
81.07

>  <Standard Type>  (11) 
nan

>  <Standard Relation>  (11) 
nan

>  <Standard Units>  (11) 
nan

>  <Standard Value>  (11) 
nan

>  <Assay ChEMBL ID>  (11) 
nan

>  <Assay Description>  (11) 
nan

>  <BAO Label>  (11) 
nan

$$$$

     RDKit          2D

 38 42  0  0  0  0  0  0  0  0999 V2000
    3.0000   -5.1962    0.0000 C   0  0  0  0  0  0  0  0  0  0  0  0
    1.5000   -5.1962    0.0000 O   0  0  0  0  0  0  0  0  0  0  0  0
    0.7500   -3.8971    0.0000 C   0  0  0  0  0  0  0  0  0  0  0  0
    1.5000   -2.5981    0.0000 C   0  0  0  0  0  0  0  0  0  0  0  0
    0.7500   -1.2990    0.0000 C   0  0  0  0  0  0  0  0  0  0  0  0
    1.5000    0.0000    0.0000 N   0  0  0  0  0  0  0  0  0  0  0  0
    0.7500    1.2990    0.0000 C   0  0  0  0  0  0  0  0  0  0  0  0
   -0.7500    1.2990    0.0000 C   0  0  0  0  0  0  0  0  0  0  0  0
   -1.5000    0.0000    0.0000 C   0  0  0  0  0  0  0  0  0  0  0  0
   -3.0000    0.0000    0.0000 O   0  0  0  0  0  0  0  0  0  0  0  0
   -3.7500    1.2990    0.0000 C   0  0  0  0  0  0  0  0  0  0  0  0
   -3.0000    2.5981    0.0000 C   0  0  0  0  0  0  0  0  0  0  0  0
   -3.7500    3.8971    0.0000 C   0  0  0  0  0  0  0  0  0  0  0  0
   -5.2500    3.8971    0.0000 C   0  0  0  0  0  0  0  0  0  0  0  0
   -6.0000    5.1962    0.0000 C   0  0  0  0  0  0  0  0  0  0  0  0
   -5.2500    6.4952    0.0000 C   0  0  0  0  0  0  0  0  0  0  0  0
   -6.0000    7.7942    0.0000 N   0  0  0  0  0  0  0  0  0  0  0  0
   -7.5000    7.7942    0.0000 C   0  0  0  0  0  0  0  0  0  0  0  0
   -8.2500    9.0933    0.0000 N   0  0  0  0  0  0  0  0  0  0  0  0
   -7.5000   10.3923    0.0000 C   0  0  0  0  0  0  0  0  0  0  0  0
   -6.0000   10.3923    0.0000 C   0  0  0  0  0  0  0  0  0  0  0  0
   -5.2500   11.6913    0.0000 C   0  0  0  0  0  0  0  0  0  0  0  0
   -6.0000   12.9904    0.0000 C   0  0  0  0  0  0  0  0  0  0  0  0
   -5.2500   14.2894    0.0000 F   0  0  0  0  0  0  0  0  0  0  0  0
   -7.5000   12.9904    0.0000 C   0  0  0  0  0  0  0  0  0  0  0  0
   -8.2500   11.6913    0.0000 C   0  0  0  0  0  0  0  0  0  0  0  0
   -8.2500    6.4952    0.0000 N   0  0  0  0  0  0  0  0  0  0  0  0
   -9.7500    6.4952    0.0000 C   0  0  0  0  0  0  0  0  0  0  0  0
   -7.5000    5.1962    0.0000 C   0  0  0  0  0  0  0  0  0  0  0  0
   -8.2500    3.8971    0.0000 O   0  0  0  0  0  0  0  0  0  0  0  0
   -6.0000    2.5981    0.0000 C   0  0  0  0  0  0  0  0  0  0  0  0
   -5.2500    1.2990    0.0000 C   0  0  0  0  0  0  0  0  0  0  0  0
   -6.0000    0.0000    0.0000 F   0  0  0  0  0  0  0  0  0  0  0  0
   -0.7500   -1.2990    0.0000 C   0  0  0  0  0  0  0  0  0  0  0  0
   -1.5000   -2.5981    0.0000 C   0  0  0  0  0  0  0  0  0  0  0  0
   -0.7500   -3.8971    0.0000 C   0  0  0  0  0  0  0  0  0  0  0  0
   -1.5000   -5.1962    0.0000 O   0  0  0  0  0  0  0  0  0  0  0  0
   -3.0000   -5.1962    0.0000 C   0  0  0  0  0  0  0  0  0  0  0  0
  1  2  1  0
  2  3  1  0
  3  4  2  0
  4  5  1  0
  5  6  2  0
  6  7  1  0
  7  8  2  0
  8  9  1  0
  9 10  1  0
 10 11  1  0
 11 12  2  0
 12 13  1  0
 13 14  2  0
 14 15  1  0
 15 16  2  0
 16 17  1  0
 17 18  2  0
 18 19  1  0
 19 20  1  0
 20 21  2  0
 21 22  1  0
 22 23  2  0
 23 24  1  0
 23 25  1  0
 25 26  2  0
 18 27  1  0
 27 28  1  0
 27 29  1  0
 29 30  2  0
 14 31  1  0
 31 32  2  0
 32 33  1  0
  9 34  2  0
 34 35  1  0
 35 36  2  0
 36 37  1  0
 37 38  1  0
 36  3  1  0
 34  5  1  0
 32 11  1  0
 29 15  1  0
 26 20  1  0
M  END
>  <Compound_ID>  (12) 
CHEMBL461831

>  <Active>  (12) 
1.0

>  <Smiles>  (12) 
COc1cc2nccc(Oc3ccc(-c4cnc(Nc5ccc(F)cc5)n(C)c4=O)cc3F)c2cc1OC

>  <canonical_smi>  (12) 
COc1cc2nccc(Oc3ccc(-c4cnc(Nc5ccc(F)cc5)n(C)c4=O)cc3F)c2cc1OC

>  <Set>  (12) 
G1 active

>  <Set_type>  (12) 
G1

>  <MW>  (12) 
516.5

>  <HBD>  (12) 
1

>  <HBA>  (12) 
7

>  <NRB>  (12) 
7

>  <NR>  (12) 
5

>  <NAR>  (12) 
5

>  <PSA>  (12) 
87.5

>  <Standard Type>  (12) 
nan

>  <Standard Relation>  (12) 
nan

>  <Standard Units>  (12) 
nan

>  <Standard Value>  (12) 
nan

>  <Assay ChEMBL ID>  (12) 
nan

>  <Assay Description>  (12) 
nan

>  <BAO Label>  (12) 
nan

$$$$

     RDKit          2D

 34 38  0  0  0  0  0  0  0  0999 V2000
    2.4510   -9.8433    0.0000 C   0  0  0  0  0  0  0  0  0  0  0  0
    3.7500   -9.0933    0.0000 C   0  0  0  0  0  0  0  0  0  0  0  0
    5.0490   -8.3433    0.0000 C   0  0  0  0  0  0  0  0  0  0  0  0
    4.5000  -10.3923    0.0000 C   0  0  0  0  0  0  0  0  0  0  0  0
    3.0000   -7.7942    0.0000 O   0  0  0  0  0  0  0  0  0  0  0  0
    3.7500   -6.4952    0.0000 C   0  0  0  0  0  0  0  0  0  0  0  0
    5.2500   -6.4952    0.0000 O   0  0  0  0  0  0  0  0  0  0  0  0
    3.0000   -5.1962    0.0000 N   0  0  0  0  0  0  0  0  0  0  0  0
    1.5000   -5.1962    0.0000 C   0  0  0  0  0  0  0  0  0  0  0  0
    0.7500   -3.8971    0.0000 C   0  0  0  0  0  0  0  0  0  0  0  0
    1.5000   -2.5981    0.0000 N   0  0  0  0  0  0  0  0  0  0  0  0
    0.7500   -1.2990    0.0000 C   0  0  0  0  0  0  0  0  0  0  0  0
    1.5000    0.0000    0.0000 C   0  0  0  0  0  0  0  0  0  0  0  0
    0.7500    1.2990    0.0000 N   0  0  0  0  0  0  0  0  0  0  0  0
   -0.7500    1.2990    0.0000 C   0  0  0  0  0  0  0  0  0  0  0  0
   -1.7537    2.4138    0.0000 C   0  0  0  0  0  0  0  0  0  0  0  0
   -3.1240    1.8037    0.0000 C   0  0  0  0  0  0  0  0  0  0  0  0
   -2.9672    0.3119    0.0000 N   0  0  0  0  0  0  0  0  0  0  0  0
   -4.0819   -0.6918    0.0000 S   0  0  0  0  0  0  0  0  0  0  0  0
   -3.0782   -1.8065    0.0000 O   0  0  0  0  0  0  0  0  0  0  0  0
   -5.0856    0.4229    0.0000 O   0  0  0  0  0  0  0  0  0  0  0  0
   -5.1967   -1.6955    0.0000 C   0  0  0  0  0  0  0  0  0  0  0  0
   -5.0399   -3.1873    0.0000 C   0  0  0  0  0  0  0  0  0  0  0  0
   -3.7408   -3.9373    0.0000 Cl  0  0  0  0  0  0  0  0  0  0  0  0
   -6.4102   -3.7974    0.0000 N   0  0  0  0  0  0  0  0  0  0  0  0
   -7.4139   -2.6827    0.0000 C   0  0  0  0  0  0  0  0  0  0  0  0
   -8.8811   -2.3708    0.0000 S   0  0  0  0  0  0  0  0  0  0  0  0
   -9.0379   -0.8790    0.0000 C   0  0  0  0  0  0  0  0  0  0  0  0
   -7.6676   -0.2689    0.0000 C   0  0  0  0  0  0  0  0  0  0  0  0
   -6.6639   -1.3837    0.0000 N   0  0  0  0  0  0  0  0  0  0  0  0
   -1.5000    0.0000    0.0000 C   0  0  0  0  0  0  0  0  0  0  0  0
   -0.7500   -1.2990    0.0000 C   0  0  0  0  0  0  0  0  0  0  0  0
    3.0000   -2.5981    0.0000 C   0  0  0  0  0  0  0  0  0  0  0  0
    3.7500   -3.8971    0.0000 C   0  0  0  0  0  0  0  0  0  0  0  0
  1  2  1  0
  2  3  1  0
  2  4  1  0
  2  5  1  0
  5  6  1  0
  6  7  2  0
  6  8  1  0
  8  9  1  0
  9 10  1  0
 10 11  1  0
 11 12  1  0
 12 13  2  0
 13 14  1  0
 14 15  2  0
 15 16  1  0
 16 17  2  0
 17 18  1  0
 18 19  1  0
 19 20  2  0
 19 21  2  0
 19 22  1  0
 22 23  2  0
 23 24  1  0
 23 25  1  0
 25 26  2  0
 26 27  1  0
 27 28  1  0
 28 29  2  0
 29 30  1  0
 18 31  1  0
 31 32  2  0
 11 33  1  0
 33 34  1  0
 34  8  1  0
 32 12  1  0
 31 15  1  0
 30 22  1  0
 30 26  1  0
M  END
>  <Compound_ID>  (13) 
CHEMBL550158

>  <Active>  (13) 
1.0

>  <Smiles>  (13) 
CC(C)(C)OC(=O)N1CCN(c2cnc3ccn(S(=O)(=O)c4c(Cl)nc5sccn45)c3c2)CC1

>  <canonical_smi>  (13) 
CC(C)(C)OC(=O)N1CCN(c2cnc3ccn(S(=O)(=O)c4c(Cl)nc5sccn45)c3c2)CC1

>  <Set>  (13) 
G1 active

>  <Set_type>  (13) 
G1

>  <MW>  (13) 
523.04

>  <HBD>  (13) 
0

>  <HBA>  (13) 
7

>  <NRB>  (13) 
3

>  <NR>  (13) 
5

>  <NAR>  (13) 
4

>  <PSA>  (13) 
102.04

>  <Standard Type>  (13) 
nan

>  <Standard Relation>  (13) 
nan

>  <Standard Units>  (13) 
nan

>  <Standard Value>  (13) 
nan

>  <Assay ChEMBL ID>  (13) 
nan

>  <Assay Description>  (13) 
nan

>  <BAO Label>  (13) 
nan

$$$$

     RDKit          2D

 16 18  0  0  0  0  0  0  0  0999 V2000
   -3.5757   -7.5908    0.0000 C   0  0  0  0  0  0  0  0  0  0  0  0
   -4.6904   -6.5871    0.0000 C   0  0  0  0  0  0  0  0  0  0  0  0
   -4.3786   -5.1199    0.0000 C   0  0  0  0  0  0  0  0  0  0  0  0
   -2.9520   -4.6564    0.0000 C   0  0  0  0  0  0  0  0  0  0  0  0
   -2.6401   -3.1891    0.0000 C   0  0  0  0  0  0  0  0  0  0  0  0
   -1.2135   -2.7256    0.0000 N   0  0  0  0  0  0  0  0  0  0  0  0
   -0.0000   -3.6073    0.0000 C   0  0  0  0  0  0  0  0  0  0  0  0
    1.2135   -2.7256    0.0000 C   0  0  0  0  0  0  0  0  0  0  0  0
    0.7500   -1.2990    0.0000 C   0  0  0  0  0  0  0  0  0  0  0  0
    1.5000    0.0000    0.0000 N   0  0  0  0  0  0  0  0  0  0  0  0
    0.7500    1.2990    0.0000 C   0  0  0  0  0  0  0  0  0  0  0  0
   -0.7500    1.2990    0.0000 C   0  0  0  0  0  0  0  0  0  0  0  0
   -1.5000    0.0000    0.0000 C   0  0  0  0  0  0  0  0  0  0  0  0
   -0.7500   -1.2990    0.0000 C   0  0  0  0  0  0  0  0  0  0  0  0
   -1.8373   -5.6601    0.0000 C   0  0  0  0  0  0  0  0  0  0  0  0
   -2.1491   -7.1273    0.0000 C   0  0  0  0  0  0  0  0  0  0  0  0
  1  2  2  0
  2  3  1  0
  3  4  2  0
  4  5  1  0
  5  6  1  0
  6  7  1  0
  7  8  2  0
  8  9  1  0
  9 10  2  0
 10 11  1  0
 11 12  2  0
 12 13  1  0
 13 14  2  0
  4 15  1  0
 15 16  2  0
 16  1  1  0
 14  6  1  0
 14  9  1  0
M  END
>  <Compound_ID>  (14) 
CHEMBL561256

>  <Active>  (14) 
1.0

>  <Smiles>  (14) 
c1ccc(Cn2ccc3ncccc32)cc1

>  <canonical_smi>  (14) 
c1ccc(Cn2ccc3ncccc32)cc1

>  <Set>  (14) 
G1 active

>  <Set_type>  (14) 
G1

>  <MW>  (14) 
208.26

>  <HBD>  (14) 
0

>  <HBA>  (14) 
1

>  <NRB>  (14) 
2

>  <NR>  (14) 
3

>  <NAR>  (14) 
3

>  <PSA>  (14) 
17.82

>  <Standard Type>  (14) 
nan

>  <Standard Relation>  (14) 
nan

>  <Standard Units>  (14) 
nan

>  <Standard Value>  (14) 
nan

>  <Assay ChEMBL ID>  (14) 
nan

>  <Assay Description>  (14) 
nan

>  <BAO Label>  (14) 
nan

$$$$

     RDKit          2D

 39 43  0  0  0  0  0  0  0  0999 V2000
   -2.0882   -8.4404    0.0000 C   0  0  0  0  0  0  0  0  0  0  0  0
   -2.6983   -7.0701    0.0000 C   0  0  0  0  0  0  0  0  0  0  0  0
   -1.9483   -5.7711    0.0000 N   0  0  0  0  0  0  0  0  0  0  0  0
   -2.9520   -4.6564    0.0000 C   0  0  0  0  0  0  0  0  0  0  0  0
   -2.6401   -3.1891    0.0000 C   0  0  0  0  0  0  0  0  0  0  0  0
   -1.2135   -2.7256    0.0000 C   0  0  0  0  0  0  0  0  0  0  0  0
   -0.0000   -3.6073    0.0000 C   0  0  0  0  0  0  0  0  0  0  0  0
    0.0000   -5.1073    0.0000 O   0  0  0  0  0  0  0  0  0  0  0  0
    1.2135   -2.7256    0.0000 N   0  0  0  0  0  0  0  0  0  0  0  0
    0.7500   -1.2990    0.0000 C   0  0  0  0  0  0  0  0  0  0  0  0
    1.5000    0.0000    0.0000 C   0  0  0  0  0  0  0  0  0  0  0  0
    0.7500    1.2990    0.0000 C   0  0  0  0  0  0  0  0  0  0  0  0
   -0.7500    1.2990    0.0000 C   0  0  0  0  0  0  0  0  0  0  0  0
   -1.5000    2.5981    0.0000 S   0  0  0  0  0  0  0  0  0  0  0  0
   -0.2010    3.3481    0.0000 O   0  0  0  0  0  0  0  0  0  0  0  0
   -2.7990    1.8481    0.0000 O   0  0  0  0  0  0  0  0  0  0  0  0
   -2.2500    3.8971    0.0000 N   0  0  0  0  0  0  0  0  0  0  0  0
   -3.7500    3.8971    0.0000 C   0  0  0  0  0  0  0  0  0  0  0  0
   -1.5000    5.1962    0.0000 C   0  0  0  0  0  0  0  0  0  0  0  0
    0.0000    5.1962    0.0000 C   0  0  0  0  0  0  0  0  0  0  0  0
    0.7500    6.4952    0.0000 C   0  0  0  0  0  0  0  0  0  0  0  0
    0.0000    7.7942    0.0000 C   0  0  0  0  0  0  0  0  0  0  0  0
   -1.5000    7.7942    0.0000 C   0  0  0  0  0  0  0  0  0  0  0  0
   -2.2500    9.0933    0.0000 Cl  0  0  0  0  0  0  0  0  0  0  0  0
   -2.2500    6.4952    0.0000 C   0  0  0  0  0  0  0  0  0  0  0  0
   -1.5000    0.0000    0.0000 C   0  0  0  0  0  0  0  0  0  0  0  0
   -0.7500   -1.2990    0.0000 C   0  0  0  0  0  0  0  0  0  0  0  0
   -4.3223   -5.2665    0.0000 C   0  0  0  0  0  0  0  0  0  0  0  0
   -5.6213   -4.5165    0.0000 C   0  0  0  0  0  0  0  0  0  0  0  0
   -4.1655   -6.7583    0.0000 C   0  0  0  0  0  0  0  0  0  0  0  0
   -5.2802   -7.7620    0.0000 C   0  0  0  0  0  0  0  0  0  0  0  0
   -4.9684   -9.2292    0.0000 O   0  0  0  0  0  0  0  0  0  0  0  0
   -6.7068   -7.2984    0.0000 N   0  0  0  0  0  0  0  0  0  0  0  0
   -7.0187   -5.8312    0.0000 C   0  0  0  0  0  0  0  0  0  0  0  0
   -8.4453   -5.3677    0.0000 C   0  0  0  0  0  0  0  0  0  0  0  0
   -9.5600   -6.3714    0.0000 N   0  0  0  0  0  0  0  0  0  0  0  0
  -10.9866   -5.9079    0.0000 C   0  0  0  0  0  0  0  0  0  0  0  0
   -9.2481   -7.8386    0.0000 C   0  0  0  0  0  0  0  0  0  0  0  0
   -7.8215   -8.3021    0.0000 C   0  0  0  0  0  0  0  0  0  0  0  0
  1  2  1  0
  2  3  1  0
  3  4  1  0
  4  5  1  0
  5  6  2  0
  6  7  1  0
  7  8  2  0
  7  9  1  0
  9 10  1  0
 10 11  2  0
 11 12  1  0
 12 13  2  0
 13 14  1  0
 14 15  2  0
 14 16  2  0
 14 17  1  0
 17 18  1  0
 17 19  1  0
 19 20  2  0
 20 21  1  0
 21 22  2  0
 22 23  1  0
 23 24  1  0
 23 25  2  0
 13 26  1  0
 26 27  2  0
  4 28  2  0
 28 29  1  0
 28 30  1  0
 30 31  1  0
 31 32  2  0
 31 33  1  0
 33 34  1  0
 34 35  1  0
 35 36  1  0
 36 37  1  0
 36 38  1  0
 38 39  1  0
 30  2  2  0
 39 33  1  0
 27  6  1  0
 27 10  1  0
 25 19  1  0
M  END
>  <Compound_ID>  (15) 
CHEMBL261641

>  <Active>  (15) 
1.0

>  <Smiles>  (15) 
Cc1[nH]c(/C=C2\C(=O)Nc3ccc(S(=O)(=O)N(C)c4cccc(Cl)c4)cc32)c(C)c1C(=O)N1CCN(C)CC1

>  <canonical_smi>  (15) 
Cc1[nH]c(/C=C2\C(=O)Nc3ccc(S(=O)(=O)N(C)c4cccc(Cl)c4)cc32)c(C)c1C(=O)N1CCN(C)CC1

>  <Set>  (15) 
G1 active

>  <Set_type>  (15) 
G1

>  <MW>  (15) 
568.1

>  <HBD>  (15) 
2

>  <HBA>  (15) 
5

>  <NRB>  (15) 
5

>  <NR>  (15) 
5

>  <NAR>  (15) 
3

>  <PSA>  (15) 
105.82

>  <Standard Type>  (15) 
nan

>  <Standard Relation>  (15) 
nan

>  <Standard Units>  (15) 
nan

>  <Standard Value>  (15) 
nan

>  <Assay ChEMBL ID>  (15) 
nan

>  <Assay Description>  (15) 
nan

>  <BAO Label>  (15) 
nan

$$$$

     RDKit          2D

 27 29  0  0  0  0  0  0  0  0999 V2000
   -0.7500   -3.8971    0.0000 C   0  0  0  0  0  0  0  0  0  0  0  0
    0.7500   -3.8971    0.0000 C   0  0  0  0  0  0  0  0  0  0  0  0
    1.5000   -2.5981    0.0000 O   0  0  0  0  0  0  0  0  0  0  0  0
    0.7500   -1.2990    0.0000 C   0  0  0  0  0  0  0  0  0  0  0  0
    1.5000    0.0000    0.0000 C   0  0  0  0  0  0  0  0  0  0  0  0
    0.7500    1.2990    0.0000 C   0  0  0  0  0  0  0  0  0  0  0  0
   -0.7500    1.2990    0.0000 C   0  0  0  0  0  0  0  0  0  0  0  0
   -1.5000    2.5981    0.0000 N   0  0  0  0  0  0  0  0  0  0  0  0
   -3.0000    2.5981    0.0000 C   0  0  0  0  0  0  0  0  0  0  0  0
   -3.7500    1.2990    0.0000 C   0  0  0  0  0  0  0  0  0  0  0  0
   -5.2500    1.2990    0.0000 C   0  0  0  0  0  0  0  0  0  0  0  0
   -6.0000    2.5981    0.0000 C   0  0  0  0  0  0  0  0  0  0  0  0
   -7.5000    2.5981    0.0000 C   0  0  0  0  0  0  0  0  0  0  0  0
   -8.2500    3.8971    0.0000 N   0  0  0  0  0  0  0  0  0  0  0  0
   -8.2500    1.2990    0.0000 O   0  0  0  0  0  0  0  0  0  0  0  0
   -3.0000    0.0000    0.0000 C   0  0  0  0  0  0  0  0  0  0  0  0
   -1.5000    0.0000    0.0000 C   0  0  0  0  0  0  0  0  0  0  0  0
   -0.7500   -1.2990    0.0000 C   0  0  0  0  0  0  0  0  0  0  0  0
    1.5000   -5.1962    0.0000 C   0  0  0  0  0  0  0  0  0  0  0  0
    3.0000   -5.1962    0.0000 C   0  0  0  0  0  0  0  0  0  0  0  0
    3.7500   -3.8971    0.0000 Cl  0  0  0  0  0  0  0  0  0  0  0  0
    3.7500   -6.4952    0.0000 C   0  0  0  0  0  0  0  0  0  0  0  0
    3.0000   -7.7942    0.0000 C   0  0  0  0  0  0  0  0  0  0  0  0
    1.5000   -7.7942    0.0000 C   0  0  0  0  0  0  0  0  0  0  0  0
    0.7500   -9.0933    0.0000 F   0  0  0  0  0  0  0  0  0  0  0  0
    0.7500   -6.4952    0.0000 C   0  0  0  0  0  0  0  0  0  0  0  0
   -0.7500   -6.4952    0.0000 Cl  0  0  0  0  0  0  0  0  0  0  0  0
  1  2  1  0
  2  3  1  0
  3  4  1  0
  4  5  2  0
  5  6  1  0
  6  7  2  0
  7  8  1  0
  8  9  2  0
  9 10  1  0
 10 11  1  0
 11 12  2  0
 12 13  1  0
 13 14  1  0
 13 15  2  0
 10 16  2  0
 16 17  1  0
 17 18  2  0
  2 19  1  0
 19 20  2  0
 20 21  1  0
 20 22  1  0
 22 23  2  0
 23 24  1  0
 24 25  1  0
 24 26  2  0
 26 27  1  0
 18  4  1  0
 26 19  1  0
 17  7  1  0
M  END
>  <Compound_ID>  (16) 
CHEMBL598911

>  <Active>  (16) 
1.0

>  <Smiles>  (16) 
CC(Oc1ccc2ncc(/C=C/C(N)=O)cc2c1)c1c(Cl)ccc(F)c1Cl

>  <canonical_smi>  (16) 
CC(Oc1ccc2ncc(/C=C/C(N)=O)cc2c1)c1c(Cl)ccc(F)c1Cl

>  <Set>  (16) 
G1 active

>  <Set_type>  (16) 
G1

>  <MW>  (16) 
405.26

>  <HBD>  (16) 
1

>  <HBA>  (16) 
3

>  <NRB>  (16) 
5

>  <NR>  (16) 
3

>  <NAR>  (16) 
3

>  <PSA>  (16) 
65.21

>  <Standard Type>  (16) 
nan

>  <Standard Relation>  (16) 
nan

>  <Standard Units>  (16) 
nan

>  <Standard Value>  (16) 
nan

>  <Assay ChEMBL ID>  (16) 
nan

>  <Assay Description>  (16) 
nan

>  <BAO Label>  (16) 
nan

$$$$

     RDKit          2D

 22 25  0  0  0  0  0  0  0  0999 V2000
   -3.8876   -9.0580    0.0000 O   0  0  0  0  0  0  0  0  0  0  0  0
   -3.5757   -7.5908    0.0000 C   0  0  0  0  0  0  0  0  0  0  0  0
   -4.6904   -6.5871    0.0000 C   0  0  0  0  0  0  0  0  0  0  0  0
   -4.3786   -5.1199    0.0000 C   0  0  0  0  0  0  0  0  0  0  0  0
   -2.9520   -4.6564    0.0000 C   0  0  0  0  0  0  0  0  0  0  0  0
   -2.6401   -3.1891    0.0000 C   0  0  0  0  0  0  0  0  0  0  0  0
   -1.2135   -2.7256    0.0000 C   0  0  0  0  0  0  0  0  0  0  0  0
   -0.0000   -3.6073    0.0000 N   0  0  0  0  0  0  0  0  0  0  0  0
    1.2135   -2.7256    0.0000 N   0  0  0  0  0  0  0  0  0  0  0  0
    0.7500   -1.2990    0.0000 C   0  0  0  0  0  0  0  0  0  0  0  0
    1.5000    0.0000    0.0000 C   0  0  0  0  0  0  0  0  0  0  0  0
    0.7500    1.2990    0.0000 C   0  0  0  0  0  0  0  0  0  0  0  0
   -0.7500    1.2990    0.0000 C   0  0  0  0  0  0  0  0  0  0  0  0
   -1.5000    2.5981    0.0000 C   0  0  0  0  0  0  0  0  0  0  0  0
   -2.9918    2.7549    0.0000 C   0  0  0  0  0  0  0  0  0  0  0  0
   -3.3037    4.2221    0.0000 C   0  0  0  0  0  0  0  0  0  0  0  0
   -2.0046    4.9721    0.0000 C   0  0  0  0  0  0  0  0  0  0  0  0
   -0.8899    3.9684    0.0000 O   0  0  0  0  0  0  0  0  0  0  0  0
   -1.5000    0.0000    0.0000 N   0  0  0  0  0  0  0  0  0  0  0  0
   -0.7500   -1.2990    0.0000 N   0  0  0  0  0  0  0  0  0  0  0  0
   -1.8373   -5.6601    0.0000 C   0  0  0  0  0  0  0  0  0  0  0  0
   -2.1491   -7.1273    0.0000 C   0  0  0  0  0  0  0  0  0  0  0  0
  1  2  1  0
  2  3  2  0
  3  4  1  0
  4  5  2  0
  5  6  1  0
  6  7  1  0
  7  8  2  0
  8  9  1  0
  9 10  2  0
 10 11  1  0
 11 12  2  0
 12 13  1  0
 13 14  1  0
 14 15  2  0
 15 16  1  0
 16 17  2  0
 17 18  1  0
 13 19  2  0
 19 20  1  0
  5 21  1  0
 21 22  2  0
 22  2  1  0
 20  7  1  0
 20 10  1  0
 18 14  1  0
M  END
>  <Compound_ID>  (17) 
CHEMBL497119

>  <Active>  (17) 
1.0

>  <Smiles>  (17) 
Oc1ccc(Cc2nnc3ccc(-c4ccco4)nn23)cc1

>  <canonical_smi>  (17) 
Oc1ccc(Cc2nnc3ccc(-c4ccco4)nn23)cc1

>  <Set>  (17) 
G1 active

>  <Set_type>  (17) 
G1

>  <MW>  (17) 
292.3

>  <HBD>  (17) 
1

>  <HBA>  (17) 
5

>  <NRB>  (17) 
3

>  <NR>  (17) 
4

>  <NAR>  (17) 
4

>  <PSA>  (17) 
76.45

>  <Standard Type>  (17) 
nan

>  <Standard Relation>  (17) 
nan

>  <Standard Units>  (17) 
nan

>  <Standard Value>  (17) 
nan

>  <Assay ChEMBL ID>  (17) 
nan

>  <Assay Description>  (17) 
nan

>  <BAO Label>  (17) 
nan

$$$$

     RDKit          2D

 39 44  0  0  0  0  0  0  0  0999 V2000
    0.0000   -9.6073    0.0000 C   0  0  0  0  0  0  0  0  0  0  0  0
    0.0000   -8.1073    0.0000 N   0  0  0  0  0  0  0  0  0  0  0  0
   -1.2990   -7.3573    0.0000 C   0  0  0  0  0  0  0  0  0  0  0  0
   -1.2990   -5.8573    0.0000 C   0  0  0  0  0  0  0  0  0  0  0  0
   -0.0000   -5.1073    0.0000 C   0  0  0  0  0  0  0  0  0  0  0  0
   -0.0000   -3.6073    0.0000 C   0  0  0  0  0  0  0  0  0  0  0  0
    1.2135   -2.7256    0.0000 C   0  0  0  0  0  0  0  0  0  0  0  0
    0.7500   -1.2990    0.0000 C   0  0  0  0  0  0  0  0  0  0  0  0
    1.5000    0.0000    0.0000 N   0  0  0  0  0  0  0  0  0  0  0  0
    0.7500    1.2990    0.0000 C   0  0  0  0  0  0  0  0  0  0  0  0
   -0.7500    1.2990    0.0000 C   0  0  0  0  0  0  0  0  0  0  0  0
   -1.5000    0.0000    0.0000 C   0  0  0  0  0  0  0  0  0  0  0  0
   -3.0000    0.0000    0.0000 O   0  0  0  0  0  0  0  0  0  0  0  0
   -3.7500    1.2990    0.0000 C   0  0  0  0  0  0  0  0  0  0  0  0
   -3.0000    2.5981    0.0000 C   0  0  0  0  0  0  0  0  0  0  0  0
   -3.7500    3.8971    0.0000 C   0  0  0  0  0  0  0  0  0  0  0  0
   -5.2500    3.8971    0.0000 C   0  0  0  0  0  0  0  0  0  0  0  0
   -6.0000    5.1962    0.0000 N   0  0  0  0  0  0  0  0  0  0  0  0
   -5.2500    6.4952    0.0000 C   0  0  0  0  0  0  0  0  0  0  0  0
   -3.7500    6.4952    0.0000 O   0  0  0  0  0  0  0  0  0  0  0  0
   -6.0000    7.7942    0.0000 N   0  0  0  0  0  0  0  0  0  0  0  0
   -7.4918    7.9510    0.0000 C   0  0  0  0  0  0  0  0  0  0  0  0
   -7.8037    9.4182    0.0000 C   0  0  0  0  0  0  0  0  0  0  0  0
   -6.5046   10.1682    0.0000 N   0  0  0  0  0  0  0  0  0  0  0  0
   -6.3478   11.6600    0.0000 C   0  0  0  0  0  0  0  0  0  0  0  0
   -4.9775   12.2701    0.0000 C   0  0  0  0  0  0  0  0  0  0  0  0
   -4.8207   13.7619    0.0000 C   0  0  0  0  0  0  0  0  0  0  0  0
   -6.0342   14.6436    0.0000 C   0  0  0  0  0  0  0  0  0  0  0  0
   -7.4046   14.0335    0.0000 C   0  0  0  0  0  0  0  0  0  0  0  0
   -7.5613   12.5417    0.0000 C   0  0  0  0  0  0  0  0  0  0  0  0
   -5.3899    9.1645    0.0000 C   0  0  0  0  0  0  0  0  0  0  0  0
   -3.9227    9.4764    0.0000 O   0  0  0  0  0  0  0  0  0  0  0  0
   -6.0000    2.5981    0.0000 C   0  0  0  0  0  0  0  0  0  0  0  0
   -5.2500    1.2990    0.0000 C   0  0  0  0  0  0  0  0  0  0  0  0
   -6.0000    0.0000    0.0000 F   0  0  0  0  0  0  0  0  0  0  0  0
   -0.7500   -1.2990    0.0000 C   0  0  0  0  0  0  0  0  0  0  0  0
   -1.2135   -2.7256    0.0000 S   0  0  0  0  0  0  0  0  0  0  0  0
    1.2990   -5.8573    0.0000 C   0  0  0  0  0  0  0  0  0  0  0  0
    1.2990   -7.3573    0.0000 C   0  0  0  0  0  0  0  0  0  0  0  0
  1  2  1  0
  2  3  1  0
  3  4  1  0
  4  5  2  0
  5  6  1  0
  6  7  2  0
  7  8  1  0
  8  9  2  0
  9 10  1  0
 10 11  2  0
 11 12  1  0
 12 13  1  0
 13 14  1  0
 14 15  2  0
 15 16  1  0
 16 17  2  0
 17 18  1  0
 18 19  1  0
 19 20  2  0
 19 21  1  0
 21 22  1  0
 22 23  1  0
 23 24  1  0
 24 25  1  0
 25 26  2  0
 26 27  1  0
 27 28  2  0
 28 29  1  0
 29 30  2  0
 24 31  1  0
 31 32  2  0
 17 33  1  0
 33 34  2  0
 34 35  1  0
 12 36  2  0
 36 37  1  0
  5 38  1  0
 38 39  1  0
 39  2  1  0
 37  6  1  0
 36  8  1  0
 34 14  1  0
 31 21  1  0
 30 25  1  0
M  END
>  <Compound_ID>  (18) 
CHEMBL508776

>  <Active>  (18) 
1.0

>  <Smiles>  (18) 
CN1CC=C(c2cc3nccc(Oc4ccc(NC(=O)N5CCN(c6ccccc6)C5=O)cc4F)c3s2)CC1

>  <canonical_smi>  (18) 
CN1CC=C(c2cc3nccc(Oc4ccc(NC(=O)N5CCN(c6ccccc6)C5=O)cc4F)c3s2)CC1

>  <Set>  (18) 
G1 active

>  <Set_type>  (18) 
G1

>  <MW>  (18) 
543.62

>  <HBD>  (18) 
1

>  <HBA>  (18) 
5

>  <NRB>  (18) 
5

>  <NR>  (18) 
6

>  <NAR>  (18) 
4

>  <PSA>  (18) 
78.01

>  <Standard Type>  (18) 
nan

>  <Standard Relation>  (18) 
nan

>  <Standard Units>  (18) 
nan

>  <Standard Value>  (18) 
nan

>  <Assay ChEMBL ID>  (18) 
nan

>  <Assay Description>  (18) 
nan

>  <BAO Label>  (18) 
nan

$$$$

     RDKit          2D

 32 35  0  0  0  0  0  0  0  0999 V2000
    3.7500   -6.4952    0.0000 C   0  0  0  0  0  0  0  0  0  0  0  0
    3.0000   -5.1962    0.0000 N   0  0  0  0  0  0  0  0  0  0  0  0
    1.5000   -5.1962    0.0000 C   0  0  0  0  0  0  0  0  0  0  0  0
    0.7500   -3.8971    0.0000 C   0  0  0  0  0  0  0  0  0  0  0  0
    1.5000   -2.5981    0.0000 N   0  0  0  0  0  0  0  0  0  0  0  0
    0.7500   -1.2990    0.0000 C   0  0  0  0  0  0  0  0  0  0  0  0
    1.5000    0.0000    0.0000 C   0  0  0  0  0  0  0  0  0  0  0  0
    0.7500    1.2990    0.0000 N   0  0  0  0  0  0  0  0  0  0  0  0
   -0.7500    1.2990    0.0000 C   0  0  0  0  0  0  0  0  0  0  0  0
   -1.5000    2.5981    0.0000 C   0  0  0  0  0  0  0  0  0  0  0  0
   -3.0000    2.5981    0.0000 C   0  0  0  0  0  0  0  0  0  0  0  0
   -3.7500    3.8971    0.0000 C   0  0  0  0  0  0  0  0  0  0  0  0
   -4.5000    5.1962    0.0000 F   0  0  0  0  0  0  0  0  0  0  0  0
   -2.4510    4.6471    0.0000 F   0  0  0  0  0  0  0  0  0  0  0  0
   -5.0490    3.1471    0.0000 F   0  0  0  0  0  0  0  0  0  0  0  0
   -3.7500    1.2990    0.0000 C   0  0  0  0  0  0  0  0  0  0  0  0
   -3.0000    0.0000    0.0000 C   0  0  0  0  0  0  0  0  0  0  0  0
   -3.7500   -1.2990    0.0000 N   0  0  0  0  0  0  0  0  0  0  0  0
   -5.2500   -1.2990    0.0000 C   0  0  0  0  0  0  0  0  0  0  0  0
   -6.0000   -2.5981    0.0000 C   0  0  0  0  0  0  0  0  0  0  0  0
   -7.5000   -2.5981    0.0000 C   0  0  0  0  0  0  0  0  0  0  0  0
   -8.2500   -3.8971    0.0000 C   0  0  0  0  0  0  0  0  0  0  0  0
   -7.5000   -5.1962    0.0000 C   0  0  0  0  0  0  0  0  0  0  0  0
   -6.0000   -5.1962    0.0000 C   0  0  0  0  0  0  0  0  0  0  0  0
   -5.2500   -6.4952    0.0000 N   0  0  0  0  0  4  0  0  0  0  0  0
   -3.7500   -6.4952    0.0000 O   0  0  0  0  0  0  0  0  0  0  0  0
   -6.0000   -7.7942    0.0000 O   0  0  0  0  0  1  0  0  0  0  0  0
   -5.2500   -3.8971    0.0000 C   0  0  0  0  0  0  0  0  0  0  0  0
   -1.5000    0.0000    0.0000 C   0  0  0  0  0  0  0  0  0  0  0  0
   -0.7500   -1.2990    0.0000 N   0  0  0  0  0  0  0  0  0  0  0  0
    3.0000   -2.5981    0.0000 C   0  0  0  0  0  0  0  0  0  0  0  0
    3.7500   -3.8971    0.0000 C   0  0  0  0  0  0  0  0  0  0  0  0
  1  2  1  0
  2  3  1  0
  3  4  1  0
  4  5  1  0
  5  6  1  0
  6  7  2  0
  7  8  1  0
  8  9  2  0
  9 10  1  0
 10 11  2  0
 11 12  1  0
 12 13  1  0
 12 14  1  0
 12 15  1  0
 11 16  1  0
 16 17  2  0
 17 18  1  0
 18 19  1  0
 19 20  1  0
 20 21  2  0
 21 22  1  0
 22 23  2  0
 23 24  1  0
 24 25  1  0
 25 26  2  0
 25 27  1  0
 24 28  2  0
 17 29  1  0
 29 30  2  0
  5 31  1  0
 31 32  1  0
 32  2  1  0
 30  6  1  0
 29  9  1  0
 28 20  1  0
M  CHG  2  25   1  27  -1
M  END
>  <Compound_ID>  (19) 
CHEMBL518516

>  <Active>  (19) 
1.0

>  <Smiles>  (19) 
CN1CCN(c2cnc3cc(C(F)(F)F)cc(NCc4cccc([N+](=O)[O-])c4)c3n2)CC1

>  <canonical_smi>  (19) 
CN1CCN(c2cnc3cc(C(F)(F)F)cc(NCc4cccc([N+](=O)[O-])c4)c3n2)CC1

>  <Set>  (19) 
G1 active

>  <Set_type>  (19) 
G1

>  <MW>  (19) 
446.43

>  <HBD>  (19) 
1

>  <HBA>  (19) 
7

>  <NRB>  (19) 
5

>  <NR>  (19) 
4

>  <NAR>  (19) 
3

>  <PSA>  (19) 
87.43

>  <Standard Type>  (19) 
nan

>  <Standard Relation>  (19) 
nan

>  <Standard Units>  (19) 
nan

>  <Standard Value>  (19) 
nan

>  <Assay ChEMBL ID>  (19) 
nan

>  <Assay Description>  (19) 
nan

>  <BAO Label>  (19) 
nan

$$$$

     RDKit          2D

 37 41  0  0  0  0  0  0  0  0999 V2000
    9.7500   -6.4952    0.0000 O   0  0  0  0  0  0  0  0  0  0  0  0
   10.5000   -5.1962    0.0000 C   0  0  0  0  0  0  0  0  0  0  0  0
    9.7500   -3.8971    0.0000 C   0  0  0  0  0  0  0  0  0  0  0  0
    8.2500   -3.8971    0.0000 C   0  0  0  0  0  0  0  0  0  0  0  0
    7.5000   -5.1962    0.0000 O   0  0  0  0  0  0  0  0  0  0  0  0
    7.5000   -2.5981    0.0000 N   0  0  0  0  0  0  0  0  0  0  0  0
    6.0000   -2.5981    0.0000 C   0  0  0  0  0  0  0  0  0  0  0  0
    5.2500   -1.2990    0.0000 C   0  0  0  0  0  0  0  0  0  0  0  0
    3.7500   -1.2990    0.0000 C   0  0  0  0  0  0  0  0  0  0  0  0
    3.0000   -2.5981    0.0000 C   0  0  0  0  0  0  0  0  0  0  0  0
    1.5000   -2.5981    0.0000 O   0  0  0  0  0  0  0  0  0  0  0  0
    0.7500   -1.2990    0.0000 C   0  0  0  0  0  0  0  0  0  0  0  0
    1.5000    0.0000    0.0000 C   0  0  0  0  0  0  0  0  0  0  0  0
    0.7500    1.2990    0.0000 C   0  0  0  0  0  0  0  0  0  0  0  0
   -0.7500    1.2990    0.0000 N   0  0  0  0  0  0  0  0  0  0  0  0
   -1.5000    0.0000    0.0000 C   0  0  0  0  0  0  0  0  0  0  0  0
   -2.9672   -0.3119    0.0000 C   0  0  0  0  0  0  0  0  0  0  0  0
   -3.1240   -1.8037    0.0000 C   0  0  0  0  0  0  0  0  0  0  0  0
   -4.4231   -2.5537    0.0000 C   0  0  0  0  0  0  0  0  0  0  0  0
   -4.4231   -4.0537    0.0000 O   0  0  0  0  0  0  0  0  0  0  0  0
   -5.7221   -1.8037    0.0000 N   0  0  0  0  0  0  0  0  0  0  0  0
   -7.0924   -2.4138    0.0000 C   0  0  0  0  0  0  0  0  0  0  0  0
   -8.0961   -1.2990    0.0000 C   0  0  0  0  0  0  0  0  0  0  0  0
   -7.3461    0.0000    0.0000 C   0  0  0  0  0  0  0  0  0  0  0  0
   -5.8789   -0.3119    0.0000 C   0  0  0  0  0  0  0  0  0  0  0  0
   -1.7537   -2.4138    0.0000 S   0  0  0  0  0  0  0  0  0  0  0  0
   -0.7500   -1.2990    0.0000 C   0  0  0  0  0  0  0  0  0  0  0  0
    3.7500   -3.8971    0.0000 C   0  0  0  0  0  0  0  0  0  0  0  0
    3.0000   -5.1962    0.0000 F   0  0  0  0  0  0  0  0  0  0  0  0
    5.2500   -3.8971    0.0000 C   0  0  0  0  0  0  0  0  0  0  0  0
   12.0000   -5.1962    0.0000 N   0  0  0  0  0  0  0  0  0  0  0  0
   12.7500   -6.4952    0.0000 C   0  0  0  0  0  0  0  0  0  0  0  0
   12.0000   -7.7942    0.0000 C   0  0  0  0  0  0  0  0  0  0  0  0
   12.7500   -9.0933    0.0000 C   0  0  0  0  0  0  0  0  0  0  0  0
   14.2500   -9.0933    0.0000 C   0  0  0  0  0  0  0  0  0  0  0  0
   15.0000   -7.7942    0.0000 C   0  0  0  0  0  0  0  0  0  0  0  0
   14.2500   -6.4952    0.0000 C   0  0  0  0  0  0  0  0  0  0  0  0
  1  2  2  0
  2  3  1  0
  3  4  1  0
  4  5  2  0
  4  6  1  0
  6  7  1  0
  7  8  2  0
  8  9  1  0
  9 10  2  0
 10 11  1  0
 11 12  1  0
 12 13  2  0
 13 14  1  0
 14 15  2  0
 15 16  1  0
 16 17  1  0
 17 18  2  0
 18 19  1  0
 19 20  2  0
 19 21  1  0
 21 22  1  0
 22 23  1  0
 23 24  1  0
 24 25  1  0
 18 26  1  0
 26 27  1  0
 10 28  1  0
 28 29  1  0
 28 30  2  0
  2 31  1  0
 31 32  1  0
 32 33  2  0
 33 34  1  0
 34 35  2  0
 35 36  1  0
 36 37  2  0
 30  7  1  0
 37 32  1  0
 27 12  1  0
 27 16  2  0
 25 21  1  0
M  END
>  <Compound_ID>  (20) 
CHEMBL566010

>  <Active>  (20) 
1.0

>  <Smiles>  (20) 
O=C(CC(=O)Nc1ccc(Oc2ccnc3cc(C(=O)N4CCCC4)sc23)c(F)c1)Nc1ccccc1

>  <canonical_smi>  (20) 
O=C(CC(=O)Nc1ccc(Oc2ccnc3cc(C(=O)N4CCCC4)sc23)c(F)c1)Nc1ccccc1

>  <Set>  (20) 
G1 active

>  <Set_type>  (20) 
G1

>  <MW>  (20) 
518.57

>  <HBD>  (20) 
2

>  <HBA>  (20) 
5

>  <NRB>  (20) 
7

>  <NR>  (20) 
5

>  <NAR>  (20) 
4

>  <PSA>  (20) 
100.63

>  <Standard Type>  (20) 
nan

>  <Standard Relation>  (20) 
nan

>  <Standard Units>  (20) 
nan

>  <Standard Value>  (20) 
nan

>  <Assay ChEMBL ID>  (20) 
nan

>  <Assay Description>  (20) 
nan

>  <BAO Label>  (20) 
nan

$$$$

     RDKit          2D

 24 27  0  0  0  0  0  0  0  0999 V2000
    4.5000    0.0000    0.0000 N   0  0  0  0  0  0  0  0  0  0  0  0
    3.0000    0.0000    0.0000 C   0  0  0  0  0  0  0  0  0  0  0  0
    1.5000    0.0000    0.0000 C   0  0  0  0  0  0  0  0  0  0  0  0
    0.7500   -1.2990    0.0000 C   0  0  0  0  0  0  0  0  0  0  0  0
   -0.7500   -1.2990    0.0000 C   0  0  0  0  0  0  0  0  0  0  0  0
   -1.5000    0.0000    0.0000 C   0  0  0  0  0  0  0  0  0  0  0  0
   -2.9672    0.3119    0.0000 N   0  0  0  0  0  0  0  0  0  0  0  0
   -3.1240    1.8037    0.0000 C   0  0  0  0  0  0  0  0  0  0  0  0
   -4.4231    2.5537    0.0000 C   0  0  0  0  0  0  0  0  0  0  0  0
   -4.4231    4.0537    0.0000 C   0  0  0  0  0  0  0  0  0  0  0  0
   -5.7221    4.8037    0.0000 C   0  0  0  0  0  0  0  0  0  0  0  0
   -7.0211    4.0537    0.0000 N   0  0  0  0  0  0  0  0  0  0  0  0
   -7.0211    2.5537    0.0000 C   0  0  0  0  0  0  0  0  0  0  0  0
   -5.7221    1.8037    0.0000 C   0  0  0  0  0  0  0  0  0  0  0  0
   -1.7537    2.4138    0.0000 C   0  0  0  0  0  0  0  0  0  0  0  0
   -1.4418    3.8810    0.0000 C   0  0  0  0  0  0  0  0  0  0  0  0
   -0.0152    4.3445    0.0000 C   0  0  0  0  0  0  0  0  0  0  0  0
    0.2966    5.8117    0.0000 C   0  0  0  0  0  0  0  0  0  0  0  0
   -0.8181    6.8154    0.0000 C   0  0  0  0  0  0  0  0  0  0  0  0
   -2.2447    6.3519    0.0000 C   0  0  0  0  0  0  0  0  0  0  0  0
   -3.3594    7.3556    0.0000 Cl  0  0  0  0  0  0  0  0  0  0  0  0
   -2.5565    4.8847    0.0000 C   0  0  0  0  0  0  0  0  0  0  0  0
   -0.7500    1.2990    0.0000 C   0  0  0  0  0  0  0  0  0  0  0  0
    0.7500    1.2990    0.0000 N   0  0  0  0  0  0  0  0  0  0  0  0
  1  2  3  0
  2  3  1  0
  3  4  2  0
  4  5  1  0
  5  6  2  0
  6  7  1  0
  7  8  1  0
  8  9  1  0
  9 10  2  0
 10 11  1  0
 11 12  2  0
 12 13  1  0
 13 14  2  0
  8 15  2  0
 15 16  1  0
 16 17  2  0
 17 18  1  0
 18 19  2  0
 19 20  1  0
 20 21  1  0
 20 22  2  0
 15 23  1  0
 23 24  2  0
 24  3  1  0
 23  6  1  0
 14  9  1  0
 22 16  1  0
M  END
>  <Compound_ID>  (21) 
CHEMBL493519

>  <Active>  (21) 
1.0

>  <Smiles>  (21) 
N#Cc1ccc2[nH]c(-c3ccncc3)c(-c3cccc(Cl)c3)c2n1

>  <canonical_smi>  (21) 
N#Cc1ccc2[nH]c(-c3ccncc3)c(-c3cccc(Cl)c3)c2n1

>  <Set>  (21) 
G1 active

>  <Set_type>  (21) 
G1

>  <MW>  (21) 
330.78

>  <HBD>  (21) 
1

>  <HBA>  (21) 
3

>  <NRB>  (21) 
2

>  <NR>  (21) 
4

>  <NAR>  (21) 
4

>  <PSA>  (21) 
65.36

>  <Standard Type>  (21) 
nan

>  <Standard Relation>  (21) 
nan

>  <Standard Units>  (21) 
nan

>  <Standard Value>  (21) 
nan

>  <Assay ChEMBL ID>  (21) 
nan

>  <Assay Description>  (21) 
nan

>  <BAO Label>  (21) 
nan

$$$$

     RDKit          2D

 42 46  0  0  0  0  0  0  0  0999 V2000
   -2.6401   -3.1891    0.0000 C   0  0  0  0  0  0  0  0  0  0  0  0
   -1.2135   -2.7256    0.0000 C   0  0  0  0  0  0  0  0  0  0  0  0
   -0.0000   -3.6073    0.0000 C   0  0  0  0  0  0  0  0  0  0  0  0
   -0.0000   -5.1073    0.0000 O   0  0  0  0  0  0  0  0  0  0  0  0
    1.2990   -5.8573    0.0000 C   0  0  0  0  0  0  0  0  0  0  0  0
    1.2990   -7.3573    0.0000 C   0  0  0  0  0  0  0  0  0  0  0  0
    2.5981   -8.1073    0.0000 N   0  0  0  0  0  0  0  0  0  0  0  0
    2.5981   -9.6073    0.0000 C   0  0  0  0  0  0  0  0  0  0  0  0
    3.8971  -10.3573    0.0000 C   0  0  0  0  0  0  0  0  0  0  0  0
    5.1962   -9.6073    0.0000 N   0  0  0  0  0  0  0  0  0  0  0  0
    6.4952  -10.3573    0.0000 C   0  0  0  0  0  0  0  0  0  0  0  0
    5.1962   -8.1073    0.0000 C   0  0  0  0  0  0  0  0  0  0  0  0
    3.8971   -7.3573    0.0000 C   0  0  0  0  0  0  0  0  0  0  0  0
    1.2135   -2.7256    0.0000 C   0  0  0  0  0  0  0  0  0  0  0  0
    0.7500   -1.2990    0.0000 N   0  0  0  0  0  0  0  0  0  0  0  0
    1.5000    0.0000    0.0000 N   0  0  0  0  0  0  0  0  0  0  0  0
    0.7500    1.2990    0.0000 C   0  0  0  0  0  0  0  0  0  0  0  0
   -0.7500    1.2990    0.0000 N   0  0  0  0  0  0  0  0  0  0  0  0
   -1.5000    0.0000    0.0000 C   0  0  0  0  0  0  0  0  0  0  0  0
   -3.0000    0.0000    0.0000 O   0  0  0  0  0  0  0  0  0  0  0  0
   -3.7500    1.2990    0.0000 C   0  0  0  0  0  0  0  0  0  0  0  0
   -3.0000    2.5981    0.0000 C   0  0  0  0  0  0  0  0  0  0  0  0
   -3.7500    3.8971    0.0000 C   0  0  0  0  0  0  0  0  0  0  0  0
   -5.2500    3.8971    0.0000 C   0  0  0  0  0  0  0  0  0  0  0  0
   -6.0000    5.1962    0.0000 N   0  0  0  0  0  0  0  0  0  0  0  0
   -5.2500    6.4952    0.0000 C   0  0  0  0  0  0  0  0  0  0  0  0
   -3.7500    6.4952    0.0000 O   0  0  0  0  0  0  0  0  0  0  0  0
   -6.0000    7.7942    0.0000 N   0  0  0  0  0  0  0  0  0  0  0  0
   -5.2500    9.0933    0.0000 C   0  0  0  0  0  0  0  0  0  0  0  0
   -3.7500    9.0933    0.0000 O   0  0  0  0  0  0  0  0  0  0  0  0
   -6.0000   10.3923    0.0000 C   0  0  0  0  0  0  0  0  0  0  0  0
   -5.2500   11.6913    0.0000 C   0  0  0  0  0  0  0  0  0  0  0  0
   -3.7500   11.6913    0.0000 C   0  0  0  0  0  0  0  0  0  0  0  0
   -3.0000   12.9904    0.0000 C   0  0  0  0  0  0  0  0  0  0  0  0
   -3.7500   14.2894    0.0000 C   0  0  0  0  0  0  0  0  0  0  0  0
   -3.0000   15.5885    0.0000 F   0  0  0  0  0  0  0  0  0  0  0  0
   -5.2500   14.2894    0.0000 C   0  0  0  0  0  0  0  0  0  0  0  0
   -6.0000   12.9904    0.0000 C   0  0  0  0  0  0  0  0  0  0  0  0
   -6.0000    2.5981    0.0000 C   0  0  0  0  0  0  0  0  0  0  0  0
   -5.2500    1.2990    0.0000 C   0  0  0  0  0  0  0  0  0  0  0  0
   -6.0000    0.0000    0.0000 F   0  0  0  0  0  0  0  0  0  0  0  0
   -0.7500   -1.2990    0.0000 C   0  0  0  0  0  0  0  0  0  0  0  0
  1  2  1  0
  2  3  1  0
  3  4  1  0
  4  5  1  0
  5  6  1  0
  6  7  1  0
  7  8  1  0
  8  9  1  0
  9 10  1  0
 10 11  1  0
 10 12  1  0
 12 13  1  0
  3 14  2  0
 14 15  1  0
 15 16  1  0
 16 17  2  0
 17 18  1  0
 18 19  2  0
 19 20  1  0
 20 21  1  0
 21 22  2  0
 22 23  1  0
 23 24  2  0
 24 25  1  0
 25 26  1  0
 26 27  2  0
 26 28  1  0
 28 29  1  0
 29 30  2  0
 29 31  1  0
 31 32  1  0
 32 33  2  0
 33 34  1  0
 34 35  2  0
 35 36  1  0
 35 37  1  0
 37 38  2  0
 24 39  1  0
 39 40  2  0
 40 41  1  0
 19 42  1  0
 42  2  2  0
 13  7  1  0
 42 15  1  0
 40 21  1  0
 38 32  1  0
M  END
>  <Compound_ID>  (22) 
CHEMBL413996

>  <Active>  (22) 
1.0

>  <Smiles>  (22) 
Cc1c(OCCN2CCN(C)CC2)cn2ncnc(Oc3ccc(NC(=O)NC(=O)Cc4ccc(F)cc4)cc3F)c12

>  <canonical_smi>  (22) 
Cc1c(OCCN2CCN(C)CC2)cn2ncnc(Oc3ccc(NC(=O)NC(=O)Cc4ccc(F)cc4)cc3F)c12

>  <Set>  (22) 
G1 active

>  <Set_type>  (22) 
G1

>  <MW>  (22) 
579.61

>  <HBD>  (22) 
2

>  <HBA>  (22) 
8

>  <NRB>  (22) 
9

>  <NR>  (22) 
5

>  <NAR>  (22) 
4

>  <PSA>  (22) 
113.33

>  <Standard Type>  (22) 
nan

>  <Standard Relation>  (22) 
nan

>  <Standard Units>  (22) 
nan

>  <Standard Value>  (22) 
nan

>  <Assay ChEMBL ID>  (22) 
nan

>  <Assay Description>  (22) 
nan

>  <BAO Label>  (22) 
nan

$$$$

     RDKit          2D

 31 34  0  0  0  0  0  0  0  0999 V2000
   -7.0969    9.7066    0.0000 O   0  0  0  0  0  0  0  0  0  0  0  0
   -8.5234    9.2431    0.0000 C   0  0  0  0  0  0  0  0  0  0  0  0
   -8.8353    7.7759    0.0000 C   0  0  0  0  0  0  0  0  0  0  0  0
   -7.7206    6.7722    0.0000 C   0  0  0  0  0  0  0  0  0  0  0  0
   -6.2940    7.2357    0.0000 O   0  0  0  0  0  0  0  0  0  0  0  0
   -8.0325    5.3050    0.0000 N   0  0  0  0  0  0  0  0  0  0  0  0
   -6.9177    4.3013    0.0000 C   0  0  0  0  0  0  0  0  0  0  0  0
   -7.2296    2.8340    0.0000 C   0  0  0  0  0  0  0  0  0  0  0  0
   -6.1149    1.8303    0.0000 C   0  0  0  0  0  0  0  0  0  0  0  0
   -4.6883    2.2939    0.0000 C   0  0  0  0  0  0  0  0  0  0  0  0
   -3.5736    1.2902    0.0000 O   0  0  0  0  0  0  0  0  0  0  0  0
   -2.1470    1.7537    0.0000 C   0  0  0  0  0  0  0  0  0  0  0  0
   -1.8351    3.2209    0.0000 C   0  0  0  0  0  0  0  0  0  0  0  0
   -0.4086    3.6844    0.0000 C   0  0  0  0  0  0  0  0  0  0  0  0
    0.7062    2.6807    0.0000 N   0  0  0  0  0  0  0  0  0  0  0  0
    0.3943    1.2135    0.0000 C   0  0  0  0  0  0  0  0  0  0  0  0
    1.2760    0.0000    0.0000 N   0  0  0  0  0  0  0  0  0  0  0  0
    0.3943   -1.2135    0.0000 C   0  0  0  0  0  0  0  0  0  0  0  0
   -1.0323   -0.7500    0.0000 C   0  0  0  0  0  0  0  0  0  0  0  0
   -1.0323    0.7500    0.0000 C   0  0  0  0  0  0  0  0  0  0  0  0
   -4.3764    3.7611    0.0000 C   0  0  0  0  0  0  0  0  0  0  0  0
   -2.9499    4.2246    0.0000 F   0  0  0  0  0  0  0  0  0  0  0  0
   -5.4912    4.7648    0.0000 C   0  0  0  0  0  0  0  0  0  0  0  0
   -9.6382   10.2468    0.0000 N   0  0  0  0  0  0  0  0  0  0  0  0
   -9.3263   11.7140    0.0000 C   0  0  0  0  0  0  0  0  0  0  0  0
   -7.8997   12.1775    0.0000 C   0  0  0  0  0  0  0  0  0  0  0  0
   -7.5878   13.6448    0.0000 C   0  0  0  0  0  0  0  0  0  0  0  0
   -8.7026   14.6485    0.0000 C   0  0  0  0  0  0  0  0  0  0  0  0
   -8.3907   16.1157    0.0000 F   0  0  0  0  0  0  0  0  0  0  0  0
  -10.1291   14.1849    0.0000 C   0  0  0  0  0  0  0  0  0  0  0  0
  -10.4410   12.7177    0.0000 C   0  0  0  0  0  0  0  0  0  0  0  0
  1  2  2  0
  2  3  1  0
  3  4  1  0
  4  5  2  0
  4  6  1  0
  6  7  1  0
  7  8  2  0
  8  9  1  0
  9 10  2  0
 10 11  1  0
 11 12  1  0
 12 13  2  0
 13 14  1  0
 14 15  2  0
 15 16  1  0
 16 17  1  0
 17 18  1  0
 18 19  2  0
 19 20  1  0
 10 21  1  0
 21 22  1  0
 21 23  2  0
  2 24  1  0
 24 25  1  0
 25 26  2  0
 26 27  1  0
 27 28  2  0
 28 29  1  0
 28 30  1  0
 30 31  2  0
 23  7  1  0
 31 25  1  0
 20 12  1  0
 20 16  2  0
M  END
>  <Compound_ID>  (23) 
CHEMBL500921

>  <Active>  (23) 
1.0

>  <Smiles>  (23) 
O=C(CC(=O)Nc1ccc(Oc2ccnc3[nH]ccc23)c(F)c1)Nc1ccc(F)cc1

>  <canonical_smi>  (23) 
O=C(CC(=O)Nc1ccc(Oc2ccnc3[nH]ccc23)c(F)c1)Nc1ccc(F)cc1

>  <Set>  (23) 
G1 active

>  <Set_type>  (23) 
G1

>  <MW>  (23) 
422.39

>  <HBD>  (23) 
3

>  <HBA>  (23) 
4

>  <NRB>  (23) 
6

>  <NR>  (23) 
4

>  <NAR>  (23) 
4

>  <PSA>  (23) 
96.11

>  <Standard Type>  (23) 
nan

>  <Standard Relation>  (23) 
nan

>  <Standard Units>  (23) 
nan

>  <Standard Value>  (23) 
nan

>  <Assay ChEMBL ID>  (23) 
nan

>  <Assay Description>  (23) 
nan

>  <BAO Label>  (23) 
nan

$$$$

     RDKit          2D

 33 36  0  0  0  0  0  0  0  0999 V2000
    3.0000    0.0000    0.0000 N   0  0  0  0  0  0  0  0  0  0  0  0
    1.5000    0.0000    0.0000 C   0  0  0  0  0  0  0  0  0  0  0  0
    0.7500   -1.2990    0.0000 C   0  0  0  0  0  0  0  0  0  0  0  0
   -0.7500   -1.2990    0.0000 C   0  0  0  0  0  0  0  0  0  0  0  0
   -1.5000   -2.5981    0.0000 O   0  0  0  0  0  0  0  0  0  0  0  0
   -3.0000   -2.5981    0.0000 C   0  0  0  0  0  0  0  0  0  0  0  0
   -3.7500   -1.2990    0.0000 C   0  0  0  0  0  0  0  0  0  0  0  0
   -5.2500   -1.2990    0.0000 C   0  0  0  0  0  0  0  0  0  0  0  0
   -6.0000   -2.5981    0.0000 C   0  0  0  0  0  0  0  0  0  0  0  0
   -7.5000   -2.5981    0.0000 N   0  0  0  0  0  0  0  0  0  0  0  0
   -8.2500   -1.2990    0.0000 C   0  0  0  0  0  0  0  0  0  0  0  0
   -7.5000    0.0000    0.0000 N   0  0  0  0  0  0  0  0  0  0  0  0
   -8.2500    1.2990    0.0000 C   0  0  0  0  0  0  0  0  0  0  0  0
   -9.7500    1.2990    0.0000 C   0  0  0  0  0  0  0  0  0  0  0  0
  -10.5000    0.0000    0.0000 N   0  0  0  0  0  0  0  0  0  0  0  0
   -9.7500   -1.2990    0.0000 C   0  0  0  0  0  0  0  0  0  0  0  0
  -10.5000   -2.5981    0.0000 C   0  0  0  0  0  0  0  0  0  0  0  0
   -9.7500   -3.8971    0.0000 O   0  0  0  0  0  0  0  0  0  0  0  0
  -12.0000   -2.5981    0.0000 N   0  0  0  0  0  0  0  0  0  0  0  0
  -12.7500   -3.8971    0.0000 C   0  0  0  0  0  0  0  0  0  0  0  0
  -14.2500   -3.8971    0.0000 C   0  0  0  0  0  0  0  0  0  0  0  0
  -15.0000   -5.1962    0.0000 C   0  0  0  0  0  0  0  0  0  0  0  0
  -14.2500   -6.4952    0.0000 C   0  0  0  0  0  0  0  0  0  0  0  0
  -15.0000   -7.7942    0.0000 F   0  0  0  0  0  0  0  0  0  0  0  0
  -12.7500   -6.4952    0.0000 C   0  0  0  0  0  0  0  0  0  0  0  0
  -12.0000   -5.1962    0.0000 C   0  0  0  0  0  0  0  0  0  0  0  0
  -10.5000   -5.1962    0.0000 F   0  0  0  0  0  0  0  0  0  0  0  0
   -5.2500   -3.8971    0.0000 C   0  0  0  0  0  0  0  0  0  0  0  0
   -3.7500   -3.8971    0.0000 C   0  0  0  0  0  0  0  0  0  0  0  0
   -3.0000   -5.1962    0.0000 F   0  0  0  0  0  0  0  0  0  0  0  0
   -1.5000    0.0000    0.0000 C   0  0  0  0  0  0  0  0  0  0  0  0
   -0.7500    1.2990    0.0000 C   0  0  0  0  0  0  0  0  0  0  0  0
    0.7500    1.2990    0.0000 N   0  0  0  0  0  0  0  0  0  0  0  0
  1  2  1  0
  2  3  2  0
  3  4  1  0
  4  5  1  0
  5  6  1  0
  6  7  2  0
  7  8  1  0
  8  9  2  0
  9 10  1  0
 10 11  1  0
 11 12  2  0
 12 13  1  0
 13 14  2  0
 14 15  1  0
 15 16  2  0
 16 17  1  0
 17 18  2  0
 17 19  1  0
 19 20  1  0
 20 21  2  0
 21 22  1  0
 22 23  2  0
 23 24  1  0
 23 25  1  0
 25 26  2  0
 26 27  1  0
  9 28  1  0
 28 29  2  0
 29 30  1  0
  4 31  2  0
 31 32  1  0
 32 33  2  0
 33  2  1  0
 29  6  1  0
 16 11  1  0
 26 20  1  0
M  END
>  <Compound_ID>  (24) 
CHEMBL1096519

>  <Active>  (24) 
1.0

>  <Smiles>  (24) 
Nc1cc(Oc2ccc(Nc3nccnc3C(=O)Nc3ccc(F)cc3F)cc2F)ccn1

>  <canonical_smi>  (24) 
Nc1cc(Oc2ccc(Nc3nccnc3C(=O)Nc3ccc(F)cc3F)cc2F)ccn1

>  <Set>  (24) 
G1 active

>  <Set_type>  (24) 
G1

>  <MW>  (24) 
452.4

>  <HBD>  (24) 
3

>  <HBA>  (24) 
7

>  <NRB>  (24) 
6

>  <NR>  (24) 
4

>  <NAR>  (24) 
4

>  <PSA>  (24) 
115.05

>  <Standard Type>  (24) 
nan

>  <Standard Relation>  (24) 
nan

>  <Standard Units>  (24) 
nan

>  <Standard Value>  (24) 
nan

>  <Assay ChEMBL ID>  (24) 
nan

>  <Assay Description>  (24) 
nan

>  <BAO Label>  (24) 
nan

$$$$

     RDKit          2D

 34 37  0  0  0  0  0  0  0  0999 V2000
   -2.6401   -3.1891    0.0000 C   0  0  0  0  0  0  0  0  0  0  0  0
   -1.2135   -2.7256    0.0000 C   0  0  0  0  0  0  0  0  0  0  0  0
   -0.0000   -3.6073    0.0000 C   0  0  0  0  0  0  0  0  0  0  0  0
   -0.0000   -5.1073    0.0000 O   0  0  0  0  0  0  0  0  0  0  0  0
    1.2990   -5.8573    0.0000 C   0  0  0  0  0  0  0  0  0  0  0  0
    1.2990   -7.3573    0.0000 C   0  0  0  0  0  0  0  0  0  0  0  0
    2.5981   -8.1073    0.0000 C   0  0  0  0  0  0  0  0  0  0  0  0
    2.5981   -9.6073    0.0000 N   0  0  0  0  0  0  0  0  0  0  0  0
    3.8971  -10.3573    0.0000 C   0  0  0  0  0  0  0  0  0  0  0  0
    1.2990  -10.3573    0.0000 C   0  0  0  0  0  0  0  0  0  0  0  0
    1.2135   -2.7256    0.0000 C   0  0  0  0  0  0  0  0  0  0  0  0
    0.7500   -1.2990    0.0000 N   0  0  0  0  0  0  0  0  0  0  0  0
    1.5000    0.0000    0.0000 N   0  0  0  0  0  0  0  0  0  0  0  0
    0.7500    1.2990    0.0000 C   0  0  0  0  0  0  0  0  0  0  0  0
   -0.7500    1.2990    0.0000 N   0  0  0  0  0  0  0  0  0  0  0  0
   -1.5000    0.0000    0.0000 C   0  0  0  0  0  0  0  0  0  0  0  0
   -3.0000    0.0000    0.0000 O   0  0  0  0  0  0  0  0  0  0  0  0
   -3.7500    1.2990    0.0000 C   0  0  0  0  0  0  0  0  0  0  0  0
   -3.0000    2.5981    0.0000 C   0  0  0  0  0  0  0  0  0  0  0  0
   -3.7500    3.8971    0.0000 C   0  0  0  0  0  0  0  0  0  0  0  0
   -5.2500    3.8971    0.0000 C   0  0  0  0  0  0  0  0  0  0  0  0
   -6.0000    5.1962    0.0000 N   0  0  0  0  0  0  0  0  0  0  0  0
   -5.2500    6.4952    0.0000 C   0  0  0  0  0  0  0  0  0  0  0  0
   -3.7500    6.4952    0.0000 O   0  0  0  0  0  0  0  0  0  0  0  0
   -6.0000    7.7942    0.0000 C   0  0  0  0  0  0  0  0  0  0  0  0
   -5.2500    9.0933    0.0000 C   0  0  0  0  0  0  0  0  0  0  0  0
   -6.0000   10.3923    0.0000 C   0  0  0  0  0  0  0  0  0  0  0  0
   -7.5000   10.3923    0.0000 C   0  0  0  0  0  0  0  0  0  0  0  0
   -8.2500    9.0933    0.0000 N   0  0  0  0  0  0  0  0  0  0  0  0
   -7.5000    7.7942    0.0000 C   0  0  0  0  0  0  0  0  0  0  0  0
   -6.0000    2.5981    0.0000 C   0  0  0  0  0  0  0  0  0  0  0  0
   -5.2500    1.2990    0.0000 C   0  0  0  0  0  0  0  0  0  0  0  0
   -6.0000    0.0000    0.0000 F   0  0  0  0  0  0  0  0  0  0  0  0
   -0.7500   -1.2990    0.0000 C   0  0  0  0  0  0  0  0  0  0  0  0
  1  2  1  0
  2  3  1  0
  3  4  1  0
  4  5  1  0
  5  6  1  0
  6  7  1  0
  7  8  1  0
  8  9  1  0
  8 10  1  0
  3 11  2  0
 11 12  1  0
 12 13  1  0
 13 14  2  0
 14 15  1  0
 15 16  2  0
 16 17  1  0
 17 18  1  0
 18 19  2  0
 19 20  1  0
 20 21  2  0
 21 22  1  0
 22 23  1  0
 23 24  2  0
 23 25  1  0
 25 26  2  0
 26 27  1  0
 27 28  2  0
 28 29  1  0
 29 30  2  0
 21 31  1  0
 31 32  2  0
 32 33  1  0
 16 34  1  0
 34  2  2  0
 34 12  1  0
 32 18  1  0
 30 25  1  0
M  END
>  <Compound_ID>  (25) 
CHEMBL253222

>  <Active>  (25) 
1.0

>  <Smiles>  (25) 
Cc1c(OCCCN(C)C)cn2ncnc(Oc3ccc(NC(=O)c4cccnc4)cc3F)c12

>  <canonical_smi>  (25) 
Cc1c(OCCCN(C)C)cn2ncnc(Oc3ccc(NC(=O)c4cccnc4)cc3F)c12

>  <Set>  (25) 
G1 active

>  <Set_type>  (25) 
G1

>  <MW>  (25) 
464.5

>  <HBD>  (25) 
1

>  <HBA>  (25) 
7

>  <NRB>  (25) 
9

>  <NR>  (25) 
4

>  <NAR>  (25) 
4

>  <PSA>  (25) 
93.88

>  <Standard Type>  (25) 
nan

>  <Standard Relation>  (25) 
nan

>  <Standard Units>  (25) 
nan

>  <Standard Value>  (25) 
nan

>  <Assay ChEMBL ID>  (25) 
nan

>  <Assay Description>  (25) 
nan

>  <BAO Label>  (25) 
nan

$$$$

     RDKit          2D

 21 23  0  0  0  0  0  0  0  0999 V2000
   -1.8373   -5.6601    0.0000 O   0  0  0  0  0  0  0  0  0  0  0  0
   -3.2638   -6.1236    0.0000 N   0  0  0  0  0  4  0  0  0  0  0  0
   -3.5757   -7.5908    0.0000 O   0  0  0  0  0  1  0  0  0  0  0  0
   -4.3786   -5.1199    0.0000 C   0  0  0  0  0  0  0  0  0  0  0  0
   -5.8051   -5.5834    0.0000 C   0  0  0  0  0  0  0  0  0  0  0  0
   -6.9199   -4.5797    0.0000 C   0  0  0  0  0  0  0  0  0  0  0  0
   -6.6080   -3.1125    0.0000 C   0  0  0  0  0  0  0  0  0  0  0  0
   -5.1814   -2.6490    0.0000 C   0  0  0  0  0  0  0  0  0  0  0  0
   -4.0667   -3.6527    0.0000 C   0  0  0  0  0  0  0  0  0  0  0  0
   -2.6401   -3.1891    0.0000 S   0  0  0  0  0  0  0  0  0  0  0  0
   -3.1036   -1.7626    0.0000 O   0  0  0  0  0  0  0  0  0  0  0  0
   -2.1766   -4.6157    0.0000 O   0  0  0  0  0  0  0  0  0  0  0  0
   -1.2135   -2.7256    0.0000 C   0  0  0  0  0  0  0  0  0  0  0  0
   -0.0000   -3.6073    0.0000 C   0  0  0  0  0  0  0  0  0  0  0  0
    1.2135   -2.7256    0.0000 N   0  0  0  0  0  0  0  0  0  0  0  0
    0.7500   -1.2990    0.0000 C   0  0  0  0  0  0  0  0  0  0  0  0
    1.5000    0.0000    0.0000 N   0  0  0  0  0  0  0  0  0  0  0  0
    0.7500    1.2990    0.0000 C   0  0  0  0  0  0  0  0  0  0  0  0
   -0.7500    1.2990    0.0000 C   0  0  0  0  0  0  0  0  0  0  0  0
   -1.5000    0.0000    0.0000 C   0  0  0  0  0  0  0  0  0  0  0  0
   -0.7500   -1.2990    0.0000 C   0  0  0  0  0  0  0  0  0  0  0  0
  1  2  2  0
  2  3  1  0
  2  4  1  0
  4  5  2  0
  5  6  1  0
  6  7  2  0
  7  8  1  0
  8  9  2  0
  9 10  1  0
 10 11  2  0
 10 12  2  0
 10 13  1  0
 13 14  2  0
 14 15  1  0
 15 16  1  0
 16 17  2  0
 17 18  1  0
 18 19  2  0
 19 20  1  0
 20 21  2  0
  9  4  1  0
 21 13  1  0
 21 16  1  0
M  CHG  2   2   1   3  -1
M  END
>  <Compound_ID>  (26) 
CHEMBL552195

>  <Active>  (26) 
1.0

>  <Smiles>  (26) 
O=[N+]([O-])c1ccccc1S(=O)(=O)c1c[nH]c2ncccc12

>  <canonical_smi>  (26) 
O=[N+]([O-])c1ccccc1S(=O)(=O)c1c[nH]c2ncccc12

>  <Set>  (26) 
G1 active

>  <Set_type>  (26) 
G1

>  <MW>  (26) 
303.3

>  <HBD>  (26) 
1

>  <HBA>  (26) 
5

>  <NRB>  (26) 
3

>  <NR>  (26) 
3

>  <NAR>  (26) 
3

>  <PSA>  (26) 
105.96

>  <Standard Type>  (26) 
nan

>  <Standard Relation>  (26) 
nan

>  <Standard Units>  (26) 
nan

>  <Standard Value>  (26) 
nan

>  <Assay ChEMBL ID>  (26) 
nan

>  <Assay Description>  (26) 
nan

>  <BAO Label>  (26) 
nan

$$$$

     RDKit          2D

 35 42  0  0  0  0  0  0  0  0999 V2000
    7.0384   -5.9220    0.0000 C   0  0  0  0  0  0  0  0  0  0  0  0
    6.3474   -4.5907    0.0000 N   0  0  0  0  0  0  0  0  0  0  0  0
    4.8489   -4.5234    0.0000 C   0  0  0  0  0  0  0  0  0  0  0  0
    4.0414   -5.7874    0.0000 C   0  0  0  0  0  0  0  0  0  0  0  0
    2.5382   -5.8249    0.0000 C   0  0  0  0  0  0  0  0  0  0  0  0
    3.2490   -4.5040    0.0000 O   0  0  0  0  0  0  0  0  0  0  0  0
    2.6595   -3.1247    0.0000 C   0  0  0  0  0  0  0  0  0  0  0  0
    3.6464   -1.9951    0.0000 C   0  0  0  0  0  0  0  0  0  0  0  0
    4.1580   -3.1920    0.0000 C   0  0  0  0  0  0  0  0  0  0  0  0
    4.9655   -1.9279    0.0000 O   0  0  0  0  0  0  0  0  0  0  0  0
    6.4640   -1.9952    0.0000 C   0  0  0  0  0  0  0  0  0  0  0  0
    1.2135   -2.7256    0.0000 N   0  0  0  0  0  0  0  0  0  0  0  0
    0.7500   -1.2990    0.0000 C   0  0  0  0  0  0  0  0  0  0  0  0
    1.5000    0.0000    0.0000 C   0  0  0  0  0  0  0  0  0  0  0  0
    0.7500    1.2990    0.0000 C   0  0  0  0  0  0  0  0  0  0  0  0
   -0.7500    1.2990    0.0000 C   0  0  0  0  0  0  0  0  0  0  0  0
   -1.5000    0.0000    0.0000 C   0  0  0  0  0  0  0  0  0  0  0  0
   -0.7500   -1.2990    0.0000 C   0  0  0  0  0  0  0  0  0  0  0  0
   -1.2135   -2.7256    0.0000 C   0  0  0  0  0  0  0  0  0  0  0  0
   -2.5518   -3.5691    0.0000 C   0  0  0  0  0  0  0  0  0  0  0  0
   -2.6191   -5.0676    0.0000 C   0  0  0  0  0  0  0  0  0  0  0  0
   -1.3550   -5.8751    0.0000 C   0  0  0  0  0  0  0  0  0  0  0  0
   -1.0212   -7.3375    0.0000 C   0  0  0  0  0  0  0  0  0  0  0  0
   -1.8846   -8.5641    0.0000 C   0  0  0  0  0  0  0  0  0  0  0  0
   -1.2541   -9.9251    0.0000 C   0  0  0  0  0  0  0  0  0  0  0  0
    0.2399  -10.0596    0.0000 C   0  0  0  0  0  0  0  0  0  0  0  0
    1.1033   -8.8330    0.0000 C   0  0  0  0  0  0  0  0  0  0  0  0
    0.4728   -7.4720    0.0000 C   0  0  0  0  0  0  0  0  0  0  0  0
    1.0623   -6.0927    0.0000 N   0  0  0  0  0  0  0  0  0  0  0  0
   -0.0673   -5.1058    0.0000 C   0  0  0  0  0  0  0  0  0  0  0  0
   -0.0000   -3.6073    0.0000 C   0  0  0  0  0  0  0  0  0  0  0  0
   -4.0650   -5.4667    0.0000 C   0  0  0  0  0  0  0  0  0  0  0  0
   -4.5921   -6.8710    0.0000 O   0  0  0  0  0  0  0  0  0  0  0  0
   -4.8913   -4.2148    0.0000 N   0  0  0  0  0  0  0  0  0  0  0  0
   -3.9561   -3.0421    0.0000 C   0  0  0  0  0  0  0  0  0  0  0  0
  1  2  1  0
  3  2  1  6
  3  4  1  0
  4  5  1  0
  5  6  1  0
  6  7  1  0
  7  8  1  1
  7  9  1  0
  9 10  1  6
 10 11  1  0
  7 12  1  0
 12 13  1  0
 13 14  2  0
 14 15  1  0
 15 16  2  0
 16 17  1  0
 17 18  2  0
 18 19  1  0
 19 20  2  0
 20 21  1  0
 21 22  2  0
 22 23  1  0
 23 24  2  0
 24 25  1  0
 25 26  2  0
 26 27  1  0
 27 28  2  0
 28 29  1  0
 29 30  1  0
 30 31  2  0
 21 32  1  0
 32 33  2  0
 32 34  1  0
 34 35  1  0
  9  3  1  0
 31 12  1  0
 29  5  1  0
 18 13  1  0
 31 19  1  0
 35 20  1  0
 30 22  1  0
 28 23  1  0
M  END
>  <Compound_ID>  (27) 
CHEMBL162

>  <Active>  (27) 
1.0

>  <Smiles>  (27) 
CN[C@@H]1CC2O[C@@](C)([C@@H]1OC)n1c3ccccc3c3c4c(c5c6ccccc6n2c5c31)C(=O)NC4

>  <canonical_smi>  (27) 
CN[C@@H]1CC2O[C@@](C)([C@@H]1OC)n1c3ccccc3c3c4c(c5c6ccccc6n2c5c31)C(=O)NC4

>  <Set>  (27) 
G1 active

>  <Set_type>  (27) 
G1

>  <MW>  (27) 
466.54

>  <HBD>  (27) 
2

>  <HBA>  (27) 
4

>  <NRB>  (27) 
2

>  <NR>  (27) 
8

>  <NAR>  (27) 
5

>  <PSA>  (27) 
69.45

>  <Standard Type>  (27) 
nan

>  <Standard Relation>  (27) 
nan

>  <Standard Units>  (27) 
nan

>  <Standard Value>  (27) 
nan

>  <Assay ChEMBL ID>  (27) 
nan

>  <Assay Description>  (27) 
nan

>  <BAO Label>  (27) 
nan

$$$$

     RDKit          2D

 30 33  0  0  0  0  0  0  0  0999 V2000
   10.3923  -17.1073    0.0000 C   0  0  0  0  0  0  0  0  0  0  0  0
    9.0933  -16.3573    0.0000 N   0  0  0  0  0  0  0  0  0  0  0  0
    7.7942  -17.1073    0.0000 C   0  0  0  0  0  0  0  0  0  0  0  0
    9.0933  -14.8573    0.0000 C   0  0  0  0  0  0  0  0  0  0  0  0
    7.7942  -14.1073    0.0000 C   0  0  0  0  0  0  0  0  0  0  0  0
    7.7942  -12.6073    0.0000 O   0  0  0  0  0  0  0  0  0  0  0  0
    6.4952  -11.8573    0.0000 C   0  0  0  0  0  0  0  0  0  0  0  0
    5.1962  -12.6073    0.0000 C   0  0  0  0  0  0  0  0  0  0  0  0
    3.8971  -11.8573    0.0000 C   0  0  0  0  0  0  0  0  0  0  0  0
    3.8971  -10.3573    0.0000 C   0  0  0  0  0  0  0  0  0  0  0  0
    2.5981   -9.6073    0.0000 C   0  0  0  0  0  0  0  0  0  0  0  0
    2.5981   -8.1073    0.0000 C   0  0  0  0  0  0  0  0  0  0  0  0
    1.2990   -7.3573    0.0000 C   0  0  0  0  0  0  0  0  0  0  0  0
    1.2990   -5.8573    0.0000 C   0  0  0  0  0  0  0  0  0  0  0  0
   -0.0000   -5.1073    0.0000 C   0  0  0  0  0  0  0  0  0  0  0  0
   -0.0000   -3.6073    0.0000 C   0  0  0  0  0  0  0  0  0  0  0  0
    1.2135   -2.7256    0.0000 C   0  0  0  0  0  0  0  0  0  0  0  0
    0.7500   -1.2990    0.0000 C   0  0  0  0  0  0  0  0  0  0  0  0
    1.5000    0.0000    0.0000 C   0  0  0  0  0  0  0  0  0  0  0  0
    3.0000    0.0000    0.0000 O   0  0  0  0  0  0  0  0  0  0  0  0
    0.7500    1.2990    0.0000 N   0  0  0  0  0  0  0  0  0  0  0  0
   -0.7500    1.2990    0.0000 C   0  0  0  0  0  0  0  0  0  0  0  0
   -1.5000    0.0000    0.0000 N   0  0  0  0  0  0  0  0  0  0  0  0
   -0.7500   -1.2990    0.0000 C   0  0  0  0  0  0  0  0  0  0  0  0
   -1.2135   -2.7256    0.0000 N   0  0  0  0  0  0  0  0  0  0  0  0
   -1.2990   -5.8573    0.0000 C   0  0  0  0  0  0  0  0  0  0  0  0
   -1.2990   -7.3573    0.0000 C   0  0  0  0  0  0  0  0  0  0  0  0
   -0.0000   -8.1073    0.0000 N   0  0  0  0  0  0  0  0  0  0  0  0
    5.1962   -9.6073    0.0000 C   0  0  0  0  0  0  0  0  0  0  0  0
    6.4952  -10.3573    0.0000 C   0  0  0  0  0  0  0  0  0  0  0  0
  1  2  1  0
  2  3  1  0
  2  4  1  0
  4  5  1  0
  5  6  1  0
  6  7  1  0
  7  8  2  0
  8  9  1  0
  9 10  2  0
 10 11  1  0
 11 12  2  0
 12 13  1  0
 13 14  2  0
 14 15  1  0
 15 16  1  0
 16 17  2  0
 17 18  1  0
 18 19  1  0
 19 20  2  0
 19 21  1  0
 21 22  1  0
 22 23  2  0
 23 24  1  0
 24 25  1  0
 15 26  2  0
 26 27  1  0
 27 28  2  0
 10 29  1  0
 29 30  2  0
 30  7  1  0
 28 13  1  0
 25 16  1  0
 24 18  2  0
M  END
>  <Compound_ID>  (28) 
CHEMBL461140

>  <Active>  (28) 
1.0

>  <Smiles>  (28) 
CN(C)CCOc1ccc(/C=C/c2cc(-c3cc4c(=O)[nH]cnc4[nH]3)ccn2)cc1

>  <canonical_smi>  (28) 
CN(C)CCOc1ccc(/C=C/c2cc(-c3cc4c(=O)[nH]cnc4[nH]3)ccn2)cc1

>  <Set>  (28) 
G1 active

>  <Set_type>  (28) 
G1

>  <MW>  (28) 
401.47

>  <HBD>  (28) 
2

>  <HBA>  (28) 
5

>  <NRB>  (28) 
7

>  <NR>  (28) 
4

>  <NAR>  (28) 
4

>  <PSA>  (28) 
86.9

>  <Standard Type>  (28) 
nan

>  <Standard Relation>  (28) 
nan

>  <Standard Units>  (28) 
nan

>  <Standard Value>  (28) 
nan

>  <Assay ChEMBL ID>  (28) 
nan

>  <Assay Description>  (28) 
nan

>  <BAO Label>  (28) 
nan

$$$$

     RDKit          2D

 41 46  0  0  0  0  0  0  0  0999 V2000
   -2.6401   -5.5255    0.0000 C   0  0  0  0  0  0  0  0  0  0  0  0
   -1.2135   -5.9890    0.0000 N   0  0  0  0  0  0  0  0  0  0  0  0
   -0.7500   -7.4156    0.0000 C   0  0  0  0  0  0  0  0  0  0  0  0
    0.7500   -7.4156    0.0000 C   0  0  0  0  0  0  0  0  0  0  0  0
    1.2135   -5.9890    0.0000 N   0  0  0  0  0  0  0  0  0  0  0  0
   -0.0000   -5.1073    0.0000 C   0  0  0  0  0  0  0  0  0  0  0  0
   -0.0000   -3.6073    0.0000 C   0  0  0  0  0  0  0  0  0  0  0  0
    1.2135   -2.7256    0.0000 C   0  0  0  0  0  0  0  0  0  0  0  0
    0.7500   -1.2990    0.0000 C   0  0  0  0  0  0  0  0  0  0  0  0
    1.5000    0.0000    0.0000 N   0  0  0  0  0  0  0  0  0  0  0  0
    0.7500    1.2990    0.0000 C   0  0  0  0  0  0  0  0  0  0  0  0
   -0.7500    1.2990    0.0000 C   0  0  0  0  0  0  0  0  0  0  0  0
   -1.5000    0.0000    0.0000 C   0  0  0  0  0  0  0  0  0  0  0  0
   -3.0000    0.0000    0.0000 O   0  0  0  0  0  0  0  0  0  0  0  0
   -3.7500    1.2990    0.0000 C   0  0  0  0  0  0  0  0  0  0  0  0
   -3.0000    2.5981    0.0000 C   0  0  0  0  0  0  0  0  0  0  0  0
   -3.7500    3.8971    0.0000 C   0  0  0  0  0  0  0  0  0  0  0  0
   -5.2500    3.8971    0.0000 C   0  0  0  0  0  0  0  0  0  0  0  0
   -6.0000    5.1962    0.0000 N   0  0  0  0  0  0  0  0  0  0  0  0
   -5.2500    6.4952    0.0000 C   0  0  0  0  0  0  0  0  0  0  0  0
   -3.7500    6.4952    0.0000 O   0  0  0  0  0  0  0  0  0  0  0  0
   -6.0000    7.7942    0.0000 C   0  0  0  0  0  0  0  0  0  0  0  0
   -7.4918    7.9510    0.0000 C   0  0  0  0  0  0  0  0  0  0  0  0
   -7.8037    9.4182    0.0000 N   0  0  0  0  0  0  0  0  0  0  0  0
   -6.5046   10.1682    0.0000 N   0  0  0  0  0  0  0  0  0  0  0  0
   -6.3478   11.6600    0.0000 C   0  0  0  0  0  0  0  0  0  0  0  0
   -4.9775   12.2701    0.0000 C   0  0  0  0  0  0  0  0  0  0  0  0
   -4.8207   13.7619    0.0000 C   0  0  0  0  0  0  0  0  0  0  0  0
   -6.0342   14.6436    0.0000 C   0  0  0  0  0  0  0  0  0  0  0  0
   -7.4046   14.0335    0.0000 C   0  0  0  0  0  0  0  0  0  0  0  0
   -7.5613   12.5417    0.0000 C   0  0  0  0  0  0  0  0  0  0  0  0
   -5.3899    9.1645    0.0000 C   0  0  0  0  0  0  0  0  0  0  0  0
   -3.9227    9.4764    0.0000 C   0  0  0  0  0  0  0  0  0  0  0  0
   -2.4555    9.7883    0.0000 F   0  0  0  0  0  0  0  0  0  0  0  0
   -3.6108    8.0092    0.0000 F   0  0  0  0  0  0  0  0  0  0  0  0
   -4.2345   10.9436    0.0000 F   0  0  0  0  0  0  0  0  0  0  0  0
   -6.0000    2.5981    0.0000 C   0  0  0  0  0  0  0  0  0  0  0  0
   -5.2500    1.2990    0.0000 C   0  0  0  0  0  0  0  0  0  0  0  0
   -6.0000    0.0000    0.0000 F   0  0  0  0  0  0  0  0  0  0  0  0
   -0.7500   -1.2990    0.0000 C   0  0  0  0  0  0  0  0  0  0  0  0
   -1.2135   -2.7256    0.0000 S   0  0  0  0  0  0  0  0  0  0  0  0
  1  2  1  0
  2  3  1  0
  3  4  2  0
  4  5  1  0
  5  6  2  0
  6  7  1  0
  7  8  2  0
  8  9  1  0
  9 10  2  0
 10 11  1  0
 11 12  2  0
 12 13  1  0
 13 14  1  0
 14 15  1  0
 15 16  2  0
 16 17  1  0
 17 18  2  0
 18 19  1  0
 19 20  1  0
 20 21  2  0
 20 22  1  0
 22 23  1  0
 23 24  2  0
 24 25  1  0
 25 26  1  0
 26 27  2  0
 27 28  1  0
 28 29  2  0
 29 30  1  0
 30 31  2  0
 25 32  1  0
 32 33  1  0
 33 34  1  0
 33 35  1  0
 33 36  1  0
 18 37  1  0
 37 38  2  0
 38 39  1  0
 13 40  2  0
 40 41  1  0
  6  2  1  0
 41  7  1  0
 40  9  1  0
 38 15  1  0
 32 22  2  0
 31 26  1  0
M  END
>  <Compound_ID>  (29) 
CHEMBL1095034

>  <Active>  (29) 
1.0

>  <Smiles>  (29) 
Cn1ccnc1-c1cc2nccc(Oc3ccc(NC(=O)c4cnn(-c5ccccc5)c4C(F)(F)F)cc3F)c2s1

>  <canonical_smi>  (29) 
Cn1ccnc1-c1cc2nccc(Oc3ccc(NC(=O)c4cnn(-c5ccccc5)c4C(F)(F)F)cc3F)c2s1

>  <Set>  (29) 
G1 active

>  <Set_type>  (29) 
G1

>  <MW>  (29) 
578.55

>  <HBD>  (29) 
1

>  <HBA>  (29) 
5

>  <NRB>  (29) 
6

>  <NR>  (29) 
6

>  <NAR>  (29) 
6

>  <PSA>  (29) 
86.86

>  <Standard Type>  (29) 
nan

>  <Standard Relation>  (29) 
nan

>  <Standard Units>  (29) 
nan

>  <Standard Value>  (29) 
nan

>  <Assay ChEMBL ID>  (29) 
nan

>  <Assay Description>  (29) 
nan

>  <BAO Label>  (29) 
nan

$$$$

     RDKit          2D

 34 37  0  0  0  0  0  0  0  0999 V2000
    3.0000    0.0000    0.0000 C   0  0  0  0  0  0  0  0  0  0  0  0
    1.5000    0.0000    0.0000 C   0  0  0  0  0  0  0  0  0  0  0  0
    0.7500   -1.2990    0.0000 C   0  0  0  0  0  0  0  0  0  0  0  0
   -0.7500   -1.2990    0.0000 C   0  0  0  0  0  0  0  0  0  0  0  0
   -1.5000    0.0000    0.0000 C   0  0  0  0  0  0  0  0  0  0  0  0
   -3.0000    0.0000    0.0000 S   0  0  0  0  0  0  0  0  0  0  0  0
   -3.7500    1.2990    0.0000 C   0  0  0  0  0  0  0  0  0  0  0  0
   -5.2418    1.4558    0.0000 C   0  0  0  0  0  0  0  0  0  0  0  0
   -5.5537    2.9231    0.0000 N   0  0  0  0  0  0  0  0  0  0  0  0
   -4.2546    3.6731    0.0000 C   0  0  0  0  0  0  0  0  0  0  0  0
   -4.0978    5.1648    0.0000 N   0  0  0  0  0  0  0  0  0  0  0  0
   -5.3113    6.0465    0.0000 C   0  0  0  0  0  0  0  0  0  0  0  0
   -5.1546    7.5383    0.0000 C   0  0  0  0  0  0  0  0  0  0  0  0
   -6.3681    8.4200    0.0000 C   0  0  0  0  0  0  0  0  0  0  0  0
   -7.7384    7.8099    0.0000 C   0  0  0  0  0  0  0  0  0  0  0  0
   -7.8952    6.3181    0.0000 C   0  0  0  0  0  0  0  0  0  0  0  0
   -9.2655    5.7080    0.0000 Br  0  0  0  0  0  0  0  0  0  0  0  0
   -6.6817    5.4364    0.0000 N   0  0  0  0  0  0  0  0  0  0  0  0
   -3.1399    2.6694    0.0000 S   0  0  0  0  0  0  0  0  0  0  0  0
   -0.7500    1.2990    0.0000 C   0  0  0  0  0  0  0  0  0  0  0  0
    0.7500    1.2990    0.0000 C   0  0  0  0  0  0  0  0  0  0  0  0
    1.5000    2.5981    0.0000 C   0  0  0  0  0  0  0  0  0  0  0  0
    3.0000    2.5981    0.0000 O   0  0  0  0  0  0  0  0  0  0  0  0
    0.7500    3.8971    0.0000 N   0  0  0  0  0  0  0  0  0  0  0  0
    1.5000    5.1962    0.0000 C   0  0  0  0  0  0  0  0  0  0  0  0
    0.7500    6.4952    0.0000 C   0  0  0  0  0  0  0  0  0  0  0  0
   -0.7500    6.4952    0.0000 N   0  0  0  0  0  0  0  0  0  0  0  0
   -1.5000    7.7942    0.0000 C   0  0  0  0  0  0  0  0  0  0  0  0
   -3.0000    7.7942    0.0000 O   0  0  0  0  0  0  0  0  0  0  0  0
   -0.7500    9.0933    0.0000 C   0  0  0  0  0  0  0  0  0  0  0  0
   -1.5000   10.3923    0.0000 C   0  0  0  0  0  0  0  0  0  0  0  0
    0.7500    9.0933    0.0000 N   0  0  0  0  0  0  0  0  0  0  0  0
   -1.5000    5.1962    0.0000 C   0  0  0  0  0  0  0  0  0  0  0  0
   -0.7500    3.8971    0.0000 C   0  0  0  0  0  0  0  0  0  0  0  0
  1  2  1  0
  2  3  2  0
  3  4  1  0
  4  5  2  0
  5  6  1  0
  6  7  1  0
  7  8  2  0
  8  9  1  0
  9 10  2  0
 10 11  1  0
 11 12  1  0
 12 13  2  0
 13 14  1  0
 14 15  2  0
 15 16  1  0
 16 17  1  0
 16 18  2  0
 10 19  1  0
  5 20  1  0
 20 21  2  0
 21 22  1  0
 22 23  2  0
 22 24  1  0
 24 25  1  0
 25 26  1  0
 26 27  1  0
 27 28  1  0
 28 29  2  0
 28 30  1  0
 30 31  1  1
 30 32  1  0
 27 33  1  0
 33 34  1  0
 21  2  1  0
 34 24  1  0
 19  7  1  0
 18 12  1  0
M  END
>  <Compound_ID>  (30) 
CHEMBL251796

>  <Active>  (30) 
1.0

>  <Smiles>  (30) 
Cc1ccc(Sc2cnc(Nc3cccc(Br)n3)s2)cc1C(=O)N1CCN(C(=O)[C@@H](C)N)CC1

>  <canonical_smi>  (30) 
Cc1ccc(Sc2cnc(Nc3cccc(Br)n3)s2)cc1C(=O)N1CCN(C(=O)[C@@H](C)N)CC1

>  <Set>  (30) 
G1 active

>  <Set_type>  (30) 
G1

>  <MW>  (30) 
561.53

>  <HBD>  (30) 
2

>  <HBA>  (30) 
7

>  <NRB>  (30) 
6

>  <NR>  (30) 
4

>  <NAR>  (30) 
3

>  <PSA>  (30) 
104.45

>  <Standard Type>  (30) 
nan

>  <Standard Relation>  (30) 
nan

>  <Standard Units>  (30) 
nan

>  <Standard Value>  (30) 
nan

>  <Assay ChEMBL ID>  (30) 
nan

>  <Assay Description>  (30) 
nan

>  <BAO Label>  (30) 
nan

$$$$

     RDKit          2D

 35 39  0  0  0  0  0  0  0  0999 V2000
    3.0000   -5.1962    0.0000 C   0  0  0  0  0  0  0  0  0  0  0  0
    1.5000   -5.1962    0.0000 O   0  0  0  0  0  0  0  0  0  0  0  0
    0.7500   -3.8971    0.0000 C   0  0  0  0  0  0  0  0  0  0  0  0
    1.5000   -2.5981    0.0000 C   0  0  0  0  0  0  0  0  0  0  0  0
    0.7500   -1.2990    0.0000 C   0  0  0  0  0  0  0  0  0  0  0  0
    1.5000    0.0000    0.0000 N   0  0  0  0  0  0  0  0  0  0  0  0
    0.7500    1.2990    0.0000 C   0  0  0  0  0  0  0  0  0  0  0  0
   -0.7500    1.2990    0.0000 C   0  0  0  0  0  0  0  0  0  0  0  0
   -1.5000    0.0000    0.0000 C   0  0  0  0  0  0  0  0  0  0  0  0
   -3.0000    0.0000    0.0000 O   0  0  0  0  0  0  0  0  0  0  0  0
   -3.7500    1.2990    0.0000 C   0  0  0  0  0  0  0  0  0  0  0  0
   -3.0000    2.5981    0.0000 C   0  0  0  0  0  0  0  0  0  0  0  0
   -3.7500    3.8971    0.0000 C   0  0  0  0  0  0  0  0  0  0  0  0
   -5.2500    3.8971    0.0000 C   0  0  0  0  0  0  0  0  0  0  0  0
   -6.0000    5.1962    0.0000 C   0  0  0  0  0  0  0  0  0  0  0  0
   -5.2500    6.4952    0.0000 C   0  0  0  0  0  0  0  0  0  0  0  0
   -6.0000    7.7942    0.0000 C   0  0  0  0  0  0  0  0  0  0  0  0
   -7.5000    7.7942    0.0000 C   0  0  0  0  0  0  0  0  0  0  0  0
   -8.2500    9.0933    0.0000 C   0  0  0  0  0  0  0  0  0  0  0  0
   -7.5000   10.3923    0.0000 C   0  0  0  0  0  0  0  0  0  0  0  0
   -6.0000   10.3923    0.0000 C   0  0  0  0  0  0  0  0  0  0  0  0
   -5.2500   11.6913    0.0000 C   0  0  0  0  0  0  0  0  0  0  0  0
   -6.0000   12.9904    0.0000 C   0  0  0  0  0  0  0  0  0  0  0  0
   -7.5000   12.9904    0.0000 C   0  0  0  0  0  0  0  0  0  0  0  0
   -8.2500   11.6913    0.0000 C   0  0  0  0  0  0  0  0  0  0  0  0
   -8.2500    6.4952    0.0000 N   0  0  0  0  0  0  0  0  0  0  0  0
   -7.5000    5.1962    0.0000 N   0  0  0  0  0  0  0  0  0  0  0  0
   -6.0000    2.5981    0.0000 C   0  0  0  0  0  0  0  0  0  0  0  0
   -5.2500    1.2990    0.0000 C   0  0  0  0  0  0  0  0  0  0  0  0
   -6.0000    0.0000    0.0000 F   0  0  0  0  0  0  0  0  0  0  0  0
   -0.7500   -1.2990    0.0000 C   0  0  0  0  0  0  0  0  0  0  0  0
   -1.5000   -2.5981    0.0000 C   0  0  0  0  0  0  0  0  0  0  0  0
   -0.7500   -3.8971    0.0000 C   0  0  0  0  0  0  0  0  0  0  0  0
   -1.5000   -5.1962    0.0000 O   0  0  0  0  0  0  0  0  0  0  0  0
   -3.0000   -5.1962    0.0000 C   0  0  0  0  0  0  0  0  0  0  0  0
  1  2  1  0
  2  3  1  0
  3  4  2  0
  4  5  1  0
  5  6  2  0
  6  7  1  0
  7  8  2  0
  8  9  1  0
  9 10  1  0
 10 11  1  0
 11 12  2  0
 12 13  1  0
 13 14  2  0
 14 15  1  0
 15 16  2  0
 16 17  1  0
 17 18  2  0
 18 19  1  0
 19 20  1  0
 20 21  2  0
 21 22  1  0
 22 23  2  0
 23 24  1  0
 24 25  2  0
 18 26  1  0
 26 27  2  0
 14 28  1  0
 28 29  2  0
 29 30  1  0
  9 31  2  0
 31 32  1  0
 32 33  2  0
 33 34  1  0
 34 35  1  0
 33  3  1  0
 31  5  1  0
 29 11  1  0
 27 15  1  0
 25 20  1  0
M  END
>  <Compound_ID>  (31) 
CHEMBL460772

>  <Active>  (31) 
1.0

>  <Smiles>  (31) 
COc1cc2nccc(Oc3ccc(-c4ccc(Cc5ccccc5)nn4)cc3F)c2cc1OC

>  <canonical_smi>  (31) 
COc1cc2nccc(Oc3ccc(-c4ccc(Cc5ccccc5)nn4)cc3F)c2cc1OC

>  <Set>  (31) 
G1 active

>  <Set_type>  (31) 
G1

>  <MW>  (31) 
467.5

>  <HBD>  (31) 
0

>  <HBA>  (31) 
6

>  <NRB>  (31) 
7

>  <NR>  (31) 
5

>  <NAR>  (31) 
5

>  <PSA>  (31) 
66.36

>  <Standard Type>  (31) 
nan

>  <Standard Relation>  (31) 
nan

>  <Standard Units>  (31) 
nan

>  <Standard Value>  (31) 
nan

>  <Assay ChEMBL ID>  (31) 
nan

>  <Assay Description>  (31) 
nan

>  <BAO Label>  (31) 
nan

$$$$

     RDKit          2D

 36 40  0  0  0  0  0  0  0  0999 V2000
    3.0000   -5.1962    0.0000 C   0  0  0  0  0  0  0  0  0  0  0  0
    1.5000   -5.1962    0.0000 O   0  0  0  0  0  0  0  0  0  0  0  0
    0.7500   -3.8971    0.0000 C   0  0  0  0  0  0  0  0  0  0  0  0
    1.5000   -2.5981    0.0000 C   0  0  0  0  0  0  0  0  0  0  0  0
    0.7500   -1.2990    0.0000 C   0  0  0  0  0  0  0  0  0  0  0  0
    1.5000    0.0000    0.0000 N   0  0  0  0  0  0  0  0  0  0  0  0
    0.7500    1.2990    0.0000 C   0  0  0  0  0  0  0  0  0  0  0  0
   -0.7500    1.2990    0.0000 C   0  0  0  0  0  0  0  0  0  0  0  0
   -1.5000    0.0000    0.0000 C   0  0  0  0  0  0  0  0  0  0  0  0
   -3.0000    0.0000    0.0000 O   0  0  0  0  0  0  0  0  0  0  0  0
   -3.7500    1.2990    0.0000 C   0  0  0  0  0  0  0  0  0  0  0  0
   -3.0000    2.5981    0.0000 C   0  0  0  0  0  0  0  0  0  0  0  0
   -3.7500    3.8971    0.0000 C   0  0  0  0  0  0  0  0  0  0  0  0
   -5.2500    3.8971    0.0000 C   0  0  0  0  0  0  0  0  0  0  0  0
   -6.0000    2.5981    0.0000 C   0  0  0  0  0  0  0  0  0  0  0  0
   -5.2500    1.2990    0.0000 C   0  0  0  0  0  0  0  0  0  0  0  0
   -7.5000    2.5981    0.0000 O   0  0  0  0  0  0  0  0  0  0  0  0
   -8.2500    3.8971    0.0000 C   0  0  0  0  0  0  0  0  0  0  0  0
   -7.5000    5.1962    0.0000 C   0  0  0  0  0  0  0  0  0  0  0  0
   -6.0000    5.1962    0.0000 N   0  0  0  0  0  0  0  0  0  0  0  0
   -5.2500    6.4952    0.0000 C   0  0  0  0  0  0  0  0  0  0  0  0
   -3.7500    6.4952    0.0000 O   0  0  0  0  0  0  0  0  0  0  0  0
   -6.0000    7.7942    0.0000 N   0  0  0  0  0  0  0  0  0  0  0  0
   -5.2500    9.0933    0.0000 C   0  0  0  0  0  0  0  0  0  0  0  0
   -6.0000   10.3923    0.0000 C   0  0  0  0  0  0  0  0  0  0  0  0
   -3.7500    9.0933    0.0000 C   0  0  0  0  0  0  0  0  0  0  0  0
   -3.0000    7.7942    0.0000 C   0  0  0  0  0  0  0  0  0  0  0  0
   -1.5000    7.7942    0.0000 C   0  0  0  0  0  0  0  0  0  0  0  0
   -0.7500    9.0933    0.0000 C   0  0  0  0  0  0  0  0  0  0  0  0
   -1.5000   10.3923    0.0000 C   0  0  0  0  0  0  0  0  0  0  0  0
   -3.0000   10.3923    0.0000 C   0  0  0  0  0  0  0  0  0  0  0  0
   -0.7500   -1.2990    0.0000 C   0  0  0  0  0  0  0  0  0  0  0  0
   -1.5000   -2.5981    0.0000 C   0  0  0  0  0  0  0  0  0  0  0  0
   -0.7500   -3.8971    0.0000 C   0  0  0  0  0  0  0  0  0  0  0  0
   -1.5000   -5.1962    0.0000 O   0  0  0  0  0  0  0  0  0  0  0  0
   -3.0000   -5.1962    0.0000 C   0  0  0  0  0  0  0  0  0  0  0  0
  1  2  1  0
  2  3  1  0
  3  4  2  0
  4  5  1  0
  5  6  2  0
  6  7  1  0
  7  8  2  0
  8  9  1  0
  9 10  1  0
 10 11  1  0
 11 12  2  0
 12 13  1  0
 13 14  2  0
 14 15  1  0
 15 16  2  0
 15 17  1  0
 17 18  1  0
 18 19  1  0
 19 20  1  0
 20 21  1  0
 21 22  2  0
 21 23  1  0
 23 24  1  0
 24 25  1  6
 24 26  1  0
 26 27  2  0
 27 28  1  0
 28 29  2  0
 29 30  1  0
 30 31  2  0
  9 32  2  0
 32 33  1  0
 33 34  2  0
 34 35  1  0
 35 36  1  0
 34  3  1  0
 32  5  1  0
 16 11  1  0
 31 26  1  0
 20 14  1  0
M  END
>  <Compound_ID>  (32) 
CHEMBL409933

>  <Active>  (32) 
1.0

>  <Smiles>  (32) 
COc1cc2nccc(Oc3ccc4c(c3)OCCN4C(=O)N[C@H](C)c3ccccc3)c2cc1OC

>  <canonical_smi>  (32) 
COc1cc2nccc(Oc3ccc4c(c3)OCCN4C(=O)N[C@H](C)c3ccccc3)c2cc1OC

>  <Set>  (32) 
G1 active

>  <Set_type>  (32) 
G1

>  <MW>  (32) 
485.54

>  <HBD>  (32) 
1

>  <HBA>  (32) 
6

>  <NRB>  (32) 
6

>  <NR>  (32) 
5

>  <NAR>  (32) 
4

>  <PSA>  (32) 
82.15

>  <Standard Type>  (32) 
nan

>  <Standard Relation>  (32) 
nan

>  <Standard Units>  (32) 
nan

>  <Standard Value>  (32) 
nan

>  <Assay ChEMBL ID>  (32) 
nan

>  <Assay Description>  (32) 
nan

>  <BAO Label>  (32) 
nan

$$$$

     RDKit          2D

 20 22  0  0  0  0  0  0  0  0999 V2000
   -2.1491   -7.1273    0.0000 O   0  0  0  0  0  0  0  0  0  0  0  0
   -3.5757   -7.5908    0.0000 N   0  0  0  0  0  4  0  0  0  0  0  0
   -3.8876   -9.0580    0.0000 O   0  0  0  0  0  1  0  0  0  0  0  0
   -4.6904   -6.5871    0.0000 C   0  0  0  0  0  0  0  0  0  0  0  0
   -6.1170   -7.0506    0.0000 C   0  0  0  0  0  0  0  0  0  0  0  0
   -7.2317   -6.0469    0.0000 C   0  0  0  0  0  0  0  0  0  0  0  0
   -6.9199   -4.5797    0.0000 C   0  0  0  0  0  0  0  0  0  0  0  0
   -5.4933   -4.1162    0.0000 C   0  0  0  0  0  0  0  0  0  0  0  0
   -4.3786   -5.1199    0.0000 C   0  0  0  0  0  0  0  0  0  0  0  0
   -2.9520   -4.6564    0.0000 C   0  0  0  0  0  0  0  0  0  0  0  0
   -2.6401   -3.1891    0.0000 C   0  0  0  0  0  0  0  0  0  0  0  0
   -1.2135   -2.7256    0.0000 N   0  0  0  0  0  0  0  0  0  0  0  0
   -0.0000   -3.6073    0.0000 C   0  0  0  0  0  0  0  0  0  0  0  0
    1.2135   -2.7256    0.0000 C   0  0  0  0  0  0  0  0  0  0  0  0
    0.7500   -1.2990    0.0000 C   0  0  0  0  0  0  0  0  0  0  0  0
    1.5000    0.0000    0.0000 N   0  0  0  0  0  0  0  0  0  0  0  0
    0.7500    1.2990    0.0000 C   0  0  0  0  0  0  0  0  0  0  0  0
   -0.7500    1.2990    0.0000 C   0  0  0  0  0  0  0  0  0  0  0  0
   -1.5000    0.0000    0.0000 C   0  0  0  0  0  0  0  0  0  0  0  0
   -0.7500   -1.2990    0.0000 C   0  0  0  0  0  0  0  0  0  0  0  0
  1  2  2  0
  2  3  1  0
  2  4  1  0
  4  5  2  0
  5  6  1  0
  6  7  2  0
  7  8  1  0
  8  9  2  0
  9 10  1  0
 10 11  1  0
 11 12  1  0
 12 13  1  0
 13 14  2  0
 14 15  1  0
 15 16  2  0
 16 17  1  0
 17 18  2  0
 18 19  1  0
 19 20  2  0
  9  4  1  0
 20 12  1  0
 20 15  1  0
M  CHG  2   2   1   3  -1
M  END
>  <Compound_ID>  (33) 
CHEMBL540744

>  <Active>  (33) 
1.0

>  <Smiles>  (33) 
O=[N+]([O-])c1ccccc1CCn1ccc2ncccc21

>  <canonical_smi>  (33) 
O=[N+]([O-])c1ccccc1CCn1ccc2ncccc21

>  <Set>  (33) 
G1 active

>  <Set_type>  (33) 
G1

>  <MW>  (33) 
267.29

>  <HBD>  (33) 
0

>  <HBA>  (33) 
3

>  <NRB>  (33) 
4

>  <NR>  (33) 
3

>  <NAR>  (33) 
3

>  <PSA>  (33) 
60.96

>  <Standard Type>  (33) 
nan

>  <Standard Relation>  (33) 
nan

>  <Standard Units>  (33) 
nan

>  <Standard Value>  (33) 
nan

>  <Assay ChEMBL ID>  (33) 
nan

>  <Assay Description>  (33) 
nan

>  <BAO Label>  (33) 
nan

$$$$

     RDKit          2D

 30 33  0  0  0  0  0  0  0  0999 V2000
   -1.5000   -7.7942    0.0000 C   0  0  0  0  0  0  0  0  0  0  0  0
   -0.7500   -6.4952    0.0000 N   0  0  0  0  0  0  0  0  0  0  0  0
   -1.5000   -5.1962    0.0000 C   0  0  0  0  0  0  0  0  0  0  0  0
   -0.7500   -3.8971    0.0000 C   0  0  0  0  0  0  0  0  0  0  0  0
    0.7500   -3.8971    0.0000 N   0  0  0  0  0  0  0  0  0  0  0  0
    1.5000   -2.5981    0.0000 C   0  0  0  0  0  0  0  0  0  0  0  0
    3.0000   -2.5981    0.0000 O   0  0  0  0  0  0  0  0  0  0  0  0
    0.7500   -1.2990    0.0000 C   0  0  0  0  0  0  0  0  0  0  0  0
    1.5000    0.0000    0.0000 C   0  0  0  0  0  0  0  0  0  0  0  0
    0.7500    1.2990    0.0000 N   0  0  0  0  0  0  0  0  0  0  0  0
   -0.7500    1.2990    0.0000 C   0  0  0  0  0  0  0  0  0  0  0  0
   -1.7537    2.4138    0.0000 C   0  0  0  0  0  0  0  0  0  0  0  0
   -3.1240    1.8037    0.0000 C   0  0  0  0  0  0  0  0  0  0  0  0
   -2.9672    0.3119    0.0000 N   0  0  0  0  0  0  0  0  0  0  0  0
   -4.0819   -0.6918    0.0000 S   0  0  0  0  0  0  0  0  0  0  0  0
   -3.0782   -1.8065    0.0000 O   0  0  0  0  0  0  0  0  0  0  0  0
   -5.0856    0.4229    0.0000 O   0  0  0  0  0  0  0  0  0  0  0  0
   -5.1967   -1.6955    0.0000 C   0  0  0  0  0  0  0  0  0  0  0  0
   -6.6232   -1.2320    0.0000 C   0  0  0  0  0  0  0  0  0  0  0  0
   -7.7380   -2.2357    0.0000 C   0  0  0  0  0  0  0  0  0  0  0  0
   -7.4261   -3.7029    0.0000 C   0  0  0  0  0  0  0  0  0  0  0  0
   -5.9995   -4.1664    0.0000 C   0  0  0  0  0  0  0  0  0  0  0  0
   -4.8848   -3.1627    0.0000 C   0  0  0  0  0  0  0  0  0  0  0  0
   -3.4582   -3.6263    0.0000 N   0  0  0  0  0  4  0  0  0  0  0  0
   -2.3435   -2.6226    0.0000 O   0  0  0  0  0  0  0  0  0  0  0  0
   -3.1463   -5.0935    0.0000 O   0  0  0  0  0  1  0  0  0  0  0  0
   -1.5000    0.0000    0.0000 C   0  0  0  0  0  0  0  0  0  0  0  0
   -0.7500   -1.2990    0.0000 C   0  0  0  0  0  0  0  0  0  0  0  0
    1.5000   -5.1962    0.0000 C   0  0  0  0  0  0  0  0  0  0  0  0
    0.7500   -6.4952    0.0000 C   0  0  0  0  0  0  0  0  0  0  0  0
  1  2  1  0
  2  3  1  0
  3  4  1  0
  4  5  1  0
  5  6  1  0
  6  7  2  0
  6  8  1  0
  8  9  2  0
  9 10  1  0
 10 11  2  0
 11 12  1  0
 12 13  2  0
 13 14  1  0
 14 15  1  0
 15 16  2  0
 15 17  2  0
 15 18  1  0
 18 19  2  0
 19 20  1  0
 20 21  2  0
 21 22  1  0
 22 23  2  0
 23 24  1  0
 24 25  2  0
 24 26  1  0
 14 27  1  0
 27 28  2  0
  5 29  1  0
 29 30  1  0
 30  2  1  0
 28  8  1  0
 27 11  1  0
 23 18  1  0
M  CHG  2  24   1  26  -1
M  END
>  <Compound_ID>  (34) 
CHEMBL550857

>  <Active>  (34) 
1.0

>  <Smiles>  (34) 
CN1CCN(C(=O)c2cnc3ccn(S(=O)(=O)c4ccccc4[N+](=O)[O-])c3c2)CC1

>  <canonical_smi>  (34) 
CN1CCN(C(=O)c2cnc3ccn(S(=O)(=O)c4ccccc4[N+](=O)[O-])c3c2)CC1

>  <Set>  (34) 
G1 active

>  <Set_type>  (34) 
G1

>  <MW>  (34) 
429.46

>  <HBD>  (34) 
0

>  <HBA>  (34) 
7

>  <NRB>  (34) 
4

>  <NR>  (34) 
4

>  <NAR>  (34) 
3

>  <PSA>  (34) 
118.65

>  <Standard Type>  (34) 
nan

>  <Standard Relation>  (34) 
nan

>  <Standard Units>  (34) 
nan

>  <Standard Value>  (34) 
nan

>  <Assay ChEMBL ID>  (34) 
nan

>  <Assay Description>  (34) 
nan

>  <BAO Label>  (34) 
nan

$$$$

     RDKit          2D

 32 36  0  0  0  0  0  0  0  0999 V2000
   -7.9106   -1.1931    0.0000 C   0  0  0  0  0  0  0  0  0  0  0  0
   -6.4188   -1.3499    0.0000 C   0  0  0  0  0  0  0  0  0  0  0  0
   -5.5371   -0.1364    0.0000 N   0  0  0  0  0  0  0  0  0  0  0  0
   -4.0371   -0.1364    0.0000 C   0  0  0  0  0  0  0  0  0  0  0  0
   -3.5736    1.2902    0.0000 C   0  0  0  0  0  0  0  0  0  0  0  0
   -2.1470    1.7537    0.0000 C   0  0  0  0  0  0  0  0  0  0  0  0
   -1.8351    3.2209    0.0000 C   0  0  0  0  0  0  0  0  0  0  0  0
   -0.4086    3.6844    0.0000 C   0  0  0  0  0  0  0  0  0  0  0  0
    0.7062    2.6807    0.0000 N   0  0  0  0  0  0  0  0  0  0  0  0
    0.3943    1.2135    0.0000 C   0  0  0  0  0  0  0  0  0  0  0  0
    1.2760    0.0000    0.0000 N   0  0  0  0  0  0  0  0  0  0  0  0
    0.3943   -1.2135    0.0000 C   0  0  0  0  0  0  0  0  0  0  0  0
   -1.0323   -0.7500    0.0000 C   0  0  0  0  0  0  0  0  0  0  0  0
   -1.0323    0.7500    0.0000 C   0  0  0  0  0  0  0  0  0  0  0  0
   -4.7871    2.1718    0.0000 C   0  0  0  0  0  0  0  0  0  0  0  0
   -4.7871    3.6718    0.0000 C   0  0  0  0  0  0  0  0  0  0  0  0
   -3.4881    4.4218    0.0000 C   0  0  0  0  0  0  0  0  0  0  0  0
   -3.4881    5.9218    0.0000 C   0  0  0  0  0  0  0  0  0  0  0  0
   -4.7871    6.6718    0.0000 C   0  0  0  0  0  0  0  0  0  0  0  0
   -4.7871    8.1718    0.0000 N   0  0  0  0  0  0  0  0  0  0  0  0
   -3.4881    8.9218    0.0000 C   0  0  0  0  0  0  0  0  0  0  0  0
   -2.1890    8.1718    0.0000 O   0  0  0  0  0  0  0  0  0  0  0  0
   -3.4881   10.4218    0.0000 N   0  0  0  0  0  0  0  0  0  0  0  0
   -2.1890   11.1718    0.0000 C   0  0  0  0  0  0  0  0  0  0  0  0
   -0.8900   10.4218    0.0000 C   0  0  0  0  0  0  0  0  0  0  0  0
    0.4090   11.1718    0.0000 C   0  0  0  0  0  0  0  0  0  0  0  0
    0.4090   12.6718    0.0000 C   0  0  0  0  0  0  0  0  0  0  0  0
   -0.8900   13.4218    0.0000 C   0  0  0  0  0  0  0  0  0  0  0  0
   -2.1890   12.6718    0.0000 C   0  0  0  0  0  0  0  0  0  0  0  0
   -6.0862    5.9218    0.0000 C   0  0  0  0  0  0  0  0  0  0  0  0
   -6.0862    4.4218    0.0000 C   0  0  0  0  0  0  0  0  0  0  0  0
   -6.0006    1.2902    0.0000 N   0  0  0  0  0  0  0  0  0  0  0  0
  1  2  1  0
  2  3  1  0
  3  4  1  0
  4  5  2  0
  5  6  1  0
  6  7  2  0
  7  8  1  0
  8  9  2  0
  9 10  1  0
 10 11  1  0
 11 12  1  0
 12 13  2  0
 13 14  1  0
  5 15  1  0
 15 16  1  0
 16 17  2  0
 17 18  1  0
 18 19  2  0
 19 20  1  0
 20 21  1  0
 21 22  2  0
 21 23  1  0
 23 24  1  0
 24 25  2  0
 25 26  1  0
 26 27  2  0
 27 28  1  0
 28 29  2  0
 19 30  1  0
 30 31  2  0
 15 32  2  0
 32  3  1  0
 14  6  1  0
 31 16  1  0
 14 10  2  0
 29 24  1  0
M  END
>  <Compound_ID>  (35) 
CHEMBL1089116

>  <Active>  (35) 
1.0

>  <Smiles>  (35) 
CCn1cc(-c2ccnc3[nH]ccc23)c(-c2ccc(NC(=O)Nc3ccccc3)cc2)n1

>  <canonical_smi>  (35) 
CCn1cc(-c2ccnc3[nH]ccc23)c(-c2ccc(NC(=O)Nc3ccccc3)cc2)n1

>  <Set>  (35) 
G1 active

>  <Set_type>  (35) 
G1

>  <MW>  (35) 
422.49

>  <HBD>  (35) 
3

>  <HBA>  (35) 
3

>  <NRB>  (35) 
5

>  <NR>  (35) 
5

>  <NAR>  (35) 
5

>  <PSA>  (35) 
87.63

>  <Standard Type>  (35) 
nan

>  <Standard Relation>  (35) 
nan

>  <Standard Units>  (35) 
nan

>  <Standard Value>  (35) 
nan

>  <Assay ChEMBL ID>  (35) 
nan

>  <Assay Description>  (35) 
nan

>  <BAO Label>  (35) 
nan

$$$$

     RDKit          2D

 24 27  0  0  0  0  0  0  0  0999 V2000
    4.5000    0.0000    0.0000 N   0  0  0  0  0  0  0  0  0  0  0  0
    3.0000    0.0000    0.0000 C   0  0  0  0  0  0  0  0  0  0  0  0
    1.5000    0.0000    0.0000 C   0  0  0  0  0  0  0  0  0  0  0  0
    0.7500   -1.2990    0.0000 C   0  0  0  0  0  0  0  0  0  0  0  0
   -0.7500   -1.2990    0.0000 C   0  0  0  0  0  0  0  0  0  0  0  0
   -1.5000    0.0000    0.0000 C   0  0  0  0  0  0  0  0  0  0  0  0
   -2.9672    0.3119    0.0000 N   0  0  0  0  0  0  0  0  0  0  0  0
   -3.1240    1.8037    0.0000 C   0  0  0  0  0  0  0  0  0  0  0  0
   -4.4231    2.5537    0.0000 C   0  0  0  0  0  0  0  0  0  0  0  0
   -4.4231    4.0537    0.0000 C   0  0  0  0  0  0  0  0  0  0  0  0
   -5.7221    4.8037    0.0000 N   0  0  0  0  0  0  0  0  0  0  0  0
   -7.0211    4.0537    0.0000 C   0  0  0  0  0  0  0  0  0  0  0  0
   -7.0211    2.5537    0.0000 N   0  0  0  0  0  0  0  0  0  0  0  0
   -5.7221    1.8037    0.0000 C   0  0  0  0  0  0  0  0  0  0  0  0
   -1.7537    2.4138    0.0000 C   0  0  0  0  0  0  0  0  0  0  0  0
   -1.4418    3.8810    0.0000 C   0  0  0  0  0  0  0  0  0  0  0  0
   -0.0152    4.3445    0.0000 C   0  0  0  0  0  0  0  0  0  0  0  0
    0.2966    5.8117    0.0000 C   0  0  0  0  0  0  0  0  0  0  0  0
   -0.8181    6.8154    0.0000 C   0  0  0  0  0  0  0  0  0  0  0  0
   -0.5062    8.2826    0.0000 F   0  0  0  0  0  0  0  0  0  0  0  0
   -2.2447    6.3519    0.0000 C   0  0  0  0  0  0  0  0  0  0  0  0
   -2.5565    4.8847    0.0000 C   0  0  0  0  0  0  0  0  0  0  0  0
   -0.7500    1.2990    0.0000 C   0  0  0  0  0  0  0  0  0  0  0  0
    0.7500    1.2990    0.0000 N   0  0  0  0  0  0  0  0  0  0  0  0
  1  2  3  0
  2  3  1  0
  3  4  2  0
  4  5  1  0
  5  6  2  0
  6  7  1  0
  7  8  1  0
  8  9  1  0
  9 10  2  0
 10 11  1  0
 11 12  2  0
 12 13  1  0
 13 14  2  0
  8 15  2  0
 15 16  1  0
 16 17  2  0
 17 18  1  0
 18 19  2  0
 19 20  1  0
 19 21  1  0
 21 22  2  0
 15 23  1  0
 23 24  2  0
 24  3  1  0
 23  6  1  0
 14  9  1  0
 22 16  1  0
M  END
>  <Compound_ID>  (36) 
CHEMBL493313

>  <Active>  (36) 
1.0

>  <Smiles>  (36) 
N#Cc1ccc2[nH]c(-c3cncnc3)c(-c3ccc(F)cc3)c2n1

>  <canonical_smi>  (36) 
N#Cc1ccc2[nH]c(-c3cncnc3)c(-c3ccc(F)cc3)c2n1

>  <Set>  (36) 
G1 active

>  <Set_type>  (36) 
G1

>  <MW>  (36) 
315.31

>  <HBD>  (36) 
1

>  <HBA>  (36) 
4

>  <NRB>  (36) 
2

>  <NR>  (36) 
4

>  <NAR>  (36) 
4

>  <PSA>  (36) 
78.25

>  <Standard Type>  (36) 
nan

>  <Standard Relation>  (36) 
nan

>  <Standard Units>  (36) 
nan

>  <Standard Value>  (36) 
nan

>  <Assay ChEMBL ID>  (36) 
nan

>  <Assay Description>  (36) 
nan

>  <BAO Label>  (36) 
nan

$$$$

     RDKit          2D

 23 25  0  0  0  0  0  0  0  0999 V2000
    3.2014   -7.7209    0.0000 O   0  0  0  0  0  0  0  0  0  0  0  0
    2.9410   -6.2437    0.0000 C   0  0  0  0  0  0  0  0  0  0  0  0
    1.5314   -5.7307    0.0000 C   0  0  0  0  0  0  0  0  0  0  0  0
    1.2709   -4.2535    0.0000 C   0  0  0  0  0  0  0  0  0  0  0  0
    2.4200   -3.2893    0.0000 C   0  0  0  0  0  0  0  0  0  0  0  0
    2.1595   -1.8121    0.0000 C   0  0  0  0  0  0  0  0  0  0  0  0
    0.7500   -1.2990    0.0000 C   0  0  0  0  0  0  0  0  0  0  0  0
    0.4895   -2.7762    0.0000 O   0  0  0  0  0  0  0  0  0  0  0  0
    1.5000    0.0000    0.0000 C   0  0  0  0  0  0  0  0  0  0  0  0
    0.7500    1.2990    0.0000 O   0  0  0  0  0  0  0  0  0  0  0  0
   -0.7500    1.2990    0.0000 C   0  0  0  0  0  0  0  0  0  0  0  0
   -1.5000    0.0000    0.0000 C   0  0  0  0  0  0  0  0  0  0  0  0
   -3.0000    0.0000    0.0000 C   0  0  0  0  0  0  0  0  0  0  0  0
   -3.7500    1.2990    0.0000 C   0  0  0  0  0  0  0  0  0  0  0  0
   -3.0000    2.5981    0.0000 C   0  0  0  0  0  0  0  0  0  0  0  0
   -3.7500    3.8971    0.0000 O   0  0  0  0  0  0  0  0  0  0  0  0
   -1.5000    2.5981    0.0000 C   0  0  0  0  0  0  0  0  0  0  0  0
   -0.7500    3.8971    0.0000 O   0  0  0  0  0  0  0  0  0  0  0  0
   -0.7500   -1.2990    0.0000 C   0  0  0  0  0  0  0  0  0  0  0  0
   -1.5000   -2.5981    0.0000 O   0  0  0  0  0  0  0  0  0  0  0  0
    3.8296   -3.8023    0.0000 C   0  0  0  0  0  0  0  0  0  0  0  0
    4.0900   -5.2795    0.0000 C   0  0  0  0  0  0  0  0  0  0  0  0
    5.4996   -5.7926    0.0000 O   0  0  0  0  0  0  0  0  0  0  0  0
  1  2  1  0
  2  3  2  0
  3  4  1  0
  4  5  2  0
  5  6  1  0
  6  7  1  0
  7  8  1  1
  7  9  1  0
  9 10  1  0
 10 11  1  0
 11 12  2  0
 12 13  1  0
 13 14  2  0
 14 15  1  0
 15 16  1  0
 15 17  2  0
 17 18  1  0
 12 19  1  0
 19 20  1  6
  5 21  1  0
 21 22  2  0
 22 23  1  0
 22  2  1  0
 19  7  1  0
 17 11  1  0
M  END
>  <Compound_ID>  (37) 
CHEMBL478611

>  <Active>  (37) 
1.0

>  <Smiles>  (37) 
Oc1ccc(C[C@@]2(O)COc3c(ccc(O)c3O)[C@H]2O)cc1O

>  <canonical_smi>  (37) 
Oc1ccc(C[C@@]2(O)COc3c(ccc(O)c3O)[C@H]2O)cc1O

>  <Set>  (37) 
G1 active

>  <Set_type>  (37) 
G1

>  <MW>  (37) 
320.3

>  <HBD>  (37) 
6

>  <HBA>  (37) 
7

>  <NRB>  (37) 
2

>  <NR>  (37) 
3

>  <NAR>  (37) 
2

>  <PSA>  (37) 
130.61

>  <Standard Type>  (37) 
nan

>  <Standard Relation>  (37) 
nan

>  <Standard Units>  (37) 
nan

>  <Standard Value>  (37) 
nan

>  <Assay ChEMBL ID>  (37) 
nan

>  <Assay Description>  (37) 
nan

>  <BAO Label>  (37) 
nan

$$$$

     RDKit          2D

 22 25  0  0  0  0  0  0  0  0999 V2000
    3.0000    0.0000    0.0000 O   0  0  0  0  0  0  0  0  0  0  0  0
    1.5000    0.0000    0.0000 C   0  0  0  0  0  0  0  0  0  0  0  0
    0.7500   -1.2990    0.0000 C   0  0  0  0  0  0  0  0  0  0  0  0
   -0.7500   -1.2990    0.0000 C   0  0  0  0  0  0  0  0  0  0  0  0
   -1.5000    0.0000    0.0000 C   0  0  0  0  0  0  0  0  0  0  0  0
   -0.7500    1.2990    0.0000 C   0  0  0  0  0  0  0  0  0  0  0  0
    0.7500    1.2990    0.0000 C   0  0  0  0  0  0  0  0  0  0  0  0
    1.5000    2.5981    0.0000 O   0  0  0  0  0  0  0  0  0  0  0  0
   -2.9672   -0.3119    0.0000 C   0  0  0  0  0  0  0  0  0  0  0  0
   -4.1807    0.5698    0.0000 C   0  0  0  0  0  0  0  0  0  0  0  0
   -4.0240    2.0616    0.0000 C   0  0  0  0  0  0  0  0  0  0  0  0
   -5.2375    2.9433    0.0000 C   0  0  0  0  0  0  0  0  0  0  0  0
   -6.6078    2.3332    0.0000 C   0  0  0  0  0  0  0  0  0  0  0  0
   -7.8213    3.2148    0.0000 O   0  0  0  0  0  0  0  0  0  0  0  0
   -6.7646    0.8414    0.0000 C   0  0  0  0  0  0  0  0  0  0  0  0
   -8.1349    0.2313    0.0000 O   0  0  0  0  0  0  0  0  0  0  0  0
   -5.5511   -0.0403    0.0000 C   0  0  0  0  0  0  0  0  0  0  0  0
   -5.7079   -1.5321    0.0000 O   0  0  0  0  0  0  0  0  0  0  0  0
   -4.4943   -2.4138    0.0000 C   0  0  0  0  0  0  0  0  0  0  0  0
   -3.1240   -1.8037    0.0000 C   0  0  0  0  0  0  0  0  0  0  0  0
   -3.1240   -3.3037    0.0000 O   0  0  0  0  0  0  0  0  0  0  0  0
   -1.7537   -2.4138    0.0000 C   0  0  0  0  0  0  0  0  0  0  0  0
  1  2  1  0
  2  3  2  0
  3  4  1  0
  4  5  2  0
  5  6  1  0
  6  7  2  0
  7  8  1  0
  9  5  1  1
  9 10  1  0
 10 11  2  0
 11 12  1  0
 12 13  2  0
 13 14  1  0
 13 15  1  0
 15 16  1  0
 15 17  2  0
 17 18  1  0
 18 19  1  0
 19 20  1  0
 20 21  1  6
 20 22  1  0
  7  2  1  0
 20  9  1  0
 22  4  1  0
 17 10  1  0
M  END
>  <Compound_ID>  (38) 
CHEMBL477197

>  <Active>  (38) 
1.0

>  <Smiles>  (38) 
Oc1cc2c(cc1O)[C@@H]1c3ccc(O)c(O)c3OC[C@]1(O)C2

>  <canonical_smi>  (38) 
Oc1cc2c(cc1O)[C@@H]1c3ccc(O)c(O)c3OC[C@]1(O)C2

>  <Set>  (38) 
G1 active

>  <Set_type>  (38) 
G1

>  <MW>  (38) 
302.28

>  <HBD>  (38) 
5

>  <HBA>  (38) 
6

>  <NRB>  (38) 
0

>  <NR>  (38) 
4

>  <NAR>  (38) 
2

>  <PSA>  (38) 
110.38

>  <Standard Type>  (38) 
nan

>  <Standard Relation>  (38) 
nan

>  <Standard Units>  (38) 
nan

>  <Standard Value>  (38) 
nan

>  <Assay ChEMBL ID>  (38) 
nan

>  <Assay Description>  (38) 
nan

>  <BAO Label>  (38) 
nan

$$$$

     RDKit          2D

 31 34  0  0  0  0  0  0  0  0999 V2000
    3.0000   -5.1962    0.0000 C   0  0  0  0  0  0  0  0  0  0  0  0
    1.5000   -5.1962    0.0000 O   0  0  0  0  0  0  0  0  0  0  0  0
    0.7500   -3.8971    0.0000 C   0  0  0  0  0  0  0  0  0  0  0  0
    1.5000   -2.5981    0.0000 C   0  0  0  0  0  0  0  0  0  0  0  0
    0.7500   -1.2990    0.0000 C   0  0  0  0  0  0  0  0  0  0  0  0
    1.5000    0.0000    0.0000 N   0  0  0  0  0  0  0  0  0  0  0  0
    0.7500    1.2990    0.0000 C   0  0  0  0  0  0  0  0  0  0  0  0
   -0.7500    1.2990    0.0000 C   0  0  0  0  0  0  0  0  0  0  0  0
   -1.5000    0.0000    0.0000 C   0  0  0  0  0  0  0  0  0  0  0  0
   -3.0000    0.0000    0.0000 O   0  0  0  0  0  0  0  0  0  0  0  0
   -3.7500    1.2990    0.0000 C   0  0  0  0  0  0  0  0  0  0  0  0
   -3.0000    2.5981    0.0000 C   0  0  0  0  0  0  0  0  0  0  0  0
   -3.7500    3.8971    0.0000 C   0  0  0  0  0  0  0  0  0  0  0  0
   -5.2500    3.8971    0.0000 C   0  0  0  0  0  0  0  0  0  0  0  0
   -6.0000    5.1962    0.0000 N   0  0  0  0  0  0  0  0  0  0  0  0
   -5.2500    6.4952    0.0000 C   0  0  0  0  0  0  0  0  0  0  0  0
   -3.7500    6.4952    0.0000 O   0  0  0  0  0  0  0  0  0  0  0  0
   -6.0000    7.7942    0.0000 C   0  0  0  0  0  0  0  0  0  0  0  0
   -5.2500    9.0933    0.0000 C   0  0  0  0  0  0  0  0  0  0  0  0
   -3.7500    9.0933    0.0000 C   0  0  0  0  0  0  0  0  0  0  0  0
   -3.0000   10.3923    0.0000 C   0  0  0  0  0  0  0  0  0  0  0  0
   -3.7500   11.6913    0.0000 C   0  0  0  0  0  0  0  0  0  0  0  0
   -5.2500   11.6913    0.0000 C   0  0  0  0  0  0  0  0  0  0  0  0
   -6.0000   10.3923    0.0000 C   0  0  0  0  0  0  0  0  0  0  0  0
   -6.0000    2.5981    0.0000 N   0  0  0  0  0  0  0  0  0  0  0  0
   -5.2500    1.2990    0.0000 C   0  0  0  0  0  0  0  0  0  0  0  0
   -0.7500   -1.2990    0.0000 C   0  0  0  0  0  0  0  0  0  0  0  0
   -1.5000   -2.5981    0.0000 C   0  0  0  0  0  0  0  0  0  0  0  0
   -0.7500   -3.8971    0.0000 C   0  0  0  0  0  0  0  0  0  0  0  0
   -1.5000   -5.1962    0.0000 O   0  0  0  0  0  0  0  0  0  0  0  0
   -3.0000   -5.1962    0.0000 C   0  0  0  0  0  0  0  0  0  0  0  0
  1  2  1  0
  2  3  1  0
  3  4  2  0
  4  5  1  0
  5  6  2  0
  6  7  1  0
  7  8  2  0
  8  9  1  0
  9 10  1  0
 10 11  1  0
 11 12  2  0
 12 13  1  0
 13 14  2  0
 14 15  1  0
 15 16  1  0
 16 17  2  0
 16 18  1  0
 18 19  1  0
 19 20  2  0
 20 21  1  0
 21 22  2  0
 22 23  1  0
 23 24  2  0
 14 25  1  0
 25 26  2  0
  9 27  2  0
 27 28  1  0
 28 29  2  0
 29 30  1  0
 30 31  1  0
 29  3  1  0
 27  5  1  0
 26 11  1  0
 24 19  1  0
M  END
>  <Compound_ID>  (39) 
CHEMBL518511

>  <Active>  (39) 
1.0

>  <Smiles>  (39) 
COc1cc2nccc(Oc3ccc(NC(=O)Cc4ccccc4)nc3)c2cc1OC

>  <canonical_smi>  (39) 
COc1cc2nccc(Oc3ccc(NC(=O)Cc4ccccc4)nc3)c2cc1OC

>  <Set>  (39) 
G1 active

>  <Set_type>  (39) 
G1

>  <MW>  (39) 
415.45

>  <HBD>  (39) 
1

>  <HBA>  (39) 
6

>  <NRB>  (39) 
7

>  <NR>  (39) 
4

>  <NAR>  (39) 
4

>  <PSA>  (39) 
82.57

>  <Standard Type>  (39) 
nan

>  <Standard Relation>  (39) 
nan

>  <Standard Units>  (39) 
nan

>  <Standard Value>  (39) 
nan

>  <Assay ChEMBL ID>  (39) 
nan

>  <Assay Description>  (39) 
nan

>  <BAO Label>  (39) 
nan

$$$$

     RDKit          2D

 27 31  0  0  0  0  0  0  0  0999 V2000
    2.5981   -5.1073    0.0000 N   0  0  0  0  0  0  0  0  0  0  0  0
    1.2990   -5.8573    0.0000 C   0  0  0  0  0  0  0  0  0  0  0  0
    1.2990   -7.3573    0.0000 N   0  0  0  0  0  0  0  0  0  0  0  0
   -0.0000   -8.1073    0.0000 C   0  0  0  0  0  0  0  0  0  0  0  0
   -1.2990   -7.3573    0.0000 C   0  0  0  0  0  0  0  0  0  0  0  0
   -2.5981   -8.1073    0.0000 C   0  0  0  0  0  0  0  0  0  0  0  0
   -2.7549   -9.5991    0.0000 C   0  0  0  0  0  0  0  0  0  0  0  0
   -4.2221   -9.9110    0.0000 N   0  0  0  0  0  0  0  0  0  0  0  0
   -4.9721   -8.6119    0.0000 N   0  0  0  0  0  0  0  0  0  0  0  0
   -6.4639   -8.4551    0.0000 C   0  0  0  0  0  0  0  0  0  0  0  0
   -7.0740   -7.0848    0.0000 C   0  0  0  0  0  0  0  0  0  0  0  0
   -8.5658   -6.9280    0.0000 C   0  0  0  0  0  0  0  0  0  0  0  0
   -9.4474   -8.1415    0.0000 O   0  0  0  0  0  0  0  0  0  0  0  0
   -8.8373   -9.5119    0.0000 C   0  0  0  0  0  0  0  0  0  0  0  0
   -7.3456   -9.6686    0.0000 C   0  0  0  0  0  0  0  0  0  0  0  0
   -3.9684   -7.4972    0.0000 C   0  0  0  0  0  0  0  0  0  0  0  0
   -1.2990   -5.8573    0.0000 C   0  0  0  0  0  0  0  0  0  0  0  0
   -0.0000   -5.1073    0.0000 C   0  0  0  0  0  0  0  0  0  0  0  0
   -0.0000   -3.6073    0.0000 C   0  0  0  0  0  0  0  0  0  0  0  0
    1.2135   -2.7256    0.0000 N   0  0  0  0  0  0  0  0  0  0  0  0
    0.7500   -1.2990    0.0000 C   0  0  0  0  0  0  0  0  0  0  0  0
    1.5000    0.0000    0.0000 C   0  0  0  0  0  0  0  0  0  0  0  0
    0.7500    1.2990    0.0000 C   0  0  0  0  0  0  0  0  0  0  0  0
   -0.7500    1.2990    0.0000 C   0  0  0  0  0  0  0  0  0  0  0  0
   -1.5000    0.0000    0.0000 C   0  0  0  0  0  0  0  0  0  0  0  0
   -0.7500   -1.2990    0.0000 C   0  0  0  0  0  0  0  0  0  0  0  0
   -1.2135   -2.7256    0.0000 O   0  0  0  0  0  0  0  0  0  0  0  0
  1  2  1  0
  2  3  2  0
  3  4  1  0
  4  5  2  0
  5  6  1  0
  6  7  1  0
  7  8  2  0
  8  9  1  0
  9 10  1  0
 10 11  1  0
 11 12  1  0
 12 13  1  0
 13 14  1  0
 14 15  1  0
  9 16  1  0
  5 17  1  0
 17 18  2  0
 18 19  1  0
 19 20  2  0
 20 21  1  0
 21 22  2  0
 22 23  1  0
 23 24  2  0
 24 25  1  0
 25 26  2  0
 26 27  1  0
 18  2  1  0
 27 19  1  0
 16  6  2  0
 26 21  1  0
 15 10  1  0
M  END
>  <Compound_ID>  (40) 
CHEMBL1170607

>  <Active>  (40) 
1.0

>  <Smiles>  (40) 
Nc1ncc(-c2cnn(C3CCOCC3)c2)cc1-c1nc2ccccc2o1

>  <canonical_smi>  (40) 
Nc1ncc(-c2cnn(C3CCOCC3)c2)cc1-c1nc2ccccc2o1

>  <Set>  (40) 
G1 active

>  <Set_type>  (40) 
G1

>  <MW>  (40) 
361.41

>  <HBD>  (40) 
1

>  <HBA>  (40) 
6

>  <NRB>  (40) 
3

>  <NR>  (40) 
5

>  <NAR>  (40) 
4

>  <PSA>  (40) 
91.99

>  <Standard Type>  (40) 
nan

>  <Standard Relation>  (40) 
nan

>  <Standard Units>  (40) 
nan

>  <Standard Value>  (40) 
nan

>  <Assay ChEMBL ID>  (40) 
nan

>  <Assay Description>  (40) 
nan

>  <BAO Label>  (40) 
nan

$$$$

     RDKit          2D

 35 39  0  0  0  0  0  0  0  0999 V2000
    3.0000   -5.1962    0.0000 C   0  0  0  0  0  0  0  0  0  0  0  0
    1.5000   -5.1962    0.0000 O   0  0  0  0  0  0  0  0  0  0  0  0
    0.7500   -3.8971    0.0000 C   0  0  0  0  0  0  0  0  0  0  0  0
    1.5000   -2.5981    0.0000 C   0  0  0  0  0  0  0  0  0  0  0  0
    0.7500   -1.2990    0.0000 C   0  0  0  0  0  0  0  0  0  0  0  0
    1.5000    0.0000    0.0000 N   0  0  0  0  0  0  0  0  0  0  0  0
    0.7500    1.2990    0.0000 C   0  0  0  0  0  0  0  0  0  0  0  0
   -0.7500    1.2990    0.0000 C   0  0  0  0  0  0  0  0  0  0  0  0
   -1.5000    0.0000    0.0000 C   0  0  0  0  0  0  0  0  0  0  0  0
   -3.0000    0.0000    0.0000 O   0  0  0  0  0  0  0  0  0  0  0  0
   -3.7500    1.2990    0.0000 C   0  0  0  0  0  0  0  0  0  0  0  0
   -3.0000    2.5981    0.0000 C   0  0  0  0  0  0  0  0  0  0  0  0
   -3.7500    3.8971    0.0000 C   0  0  0  0  0  0  0  0  0  0  0  0
   -5.2500    3.8971    0.0000 C   0  0  0  0  0  0  0  0  0  0  0  0
   -6.0000    5.1962    0.0000 C   0  0  0  0  0  0  0  0  0  0  0  0
   -5.2500    6.4952    0.0000 C   0  0  0  0  0  0  0  0  0  0  0  0
   -3.7500    6.4952    0.0000 O   0  0  0  0  0  0  0  0  0  0  0  0
   -6.0000    7.7942    0.0000 N   0  0  0  0  0  0  0  0  0  0  0  0
   -5.2500    9.0933    0.0000 C   0  0  0  0  0  0  0  0  0  0  0  0
   -3.7500    9.0933    0.0000 C   0  0  0  0  0  0  0  0  0  0  0  0
   -3.0000   10.3923    0.0000 C   0  0  0  0  0  0  0  0  0  0  0  0
   -3.7500   11.6913    0.0000 C   0  0  0  0  0  0  0  0  0  0  0  0
   -3.0000   12.9904    0.0000 Cl  0  0  0  0  0  0  0  0  0  0  0  0
   -5.2500   11.6913    0.0000 C   0  0  0  0  0  0  0  0  0  0  0  0
   -6.0000   10.3923    0.0000 C   0  0  0  0  0  0  0  0  0  0  0  0
   -7.5000    5.1962    0.0000 C   0  0  0  0  0  0  0  0  0  0  0  0
   -8.2500    3.8971    0.0000 C   0  0  0  0  0  0  0  0  0  0  0  0
   -7.5000    2.5981    0.0000 C   0  0  0  0  0  0  0  0  0  0  0  0
   -6.0000    2.5981    0.0000 C   0  0  0  0  0  0  0  0  0  0  0  0
   -5.2500    1.2990    0.0000 C   0  0  0  0  0  0  0  0  0  0  0  0
   -0.7500   -1.2990    0.0000 C   0  0  0  0  0  0  0  0  0  0  0  0
   -1.5000   -2.5981    0.0000 C   0  0  0  0  0  0  0  0  0  0  0  0
   -0.7500   -3.8971    0.0000 C   0  0  0  0  0  0  0  0  0  0  0  0
   -1.5000   -5.1962    0.0000 O   0  0  0  0  0  0  0  0  0  0  0  0
   -3.0000   -5.1962    0.0000 C   0  0  0  0  0  0  0  0  0  0  0  0
  1  2  1  0
  2  3  1  0
  3  4  2  0
  4  5  1  0
  5  6  2  0
  6  7  1  0
  7  8  2  0
  8  9  1  0
  9 10  1  0
 10 11  1  0
 11 12  2  0
 12 13  1  0
 13 14  2  0
 14 15  1  0
 15 16  1  0
 16 17  2  0
 16 18  1  0
 18 19  1  0
 19 20  2  0
 20 21  1  0
 21 22  2  0
 22 23  1  0
 22 24  1  0
 24 25  2  0
 15 26  2  0
 26 27  1  0
 27 28  2  0
 28 29  1  0
 29 30  2  0
  9 31  2  0
 31 32  1  0
 32 33  2  0
 33 34  1  0
 34 35  1  0
 33  3  1  0
 31  5  1  0
 30 11  1  0
 29 14  1  0
 25 19  1  0
M  END
>  <Compound_ID>  (41) 
CHEMBL429743

>  <Active>  (41) 
1.0

>  <Smiles>  (41) 
COc1cc2nccc(Oc3ccc4c(C(=O)Nc5ccc(Cl)cc5)cccc4c3)c2cc1OC

>  <canonical_smi>  (41) 
COc1cc2nccc(Oc3ccc4c(C(=O)Nc5ccc(Cl)cc5)cccc4c3)c2cc1OC

>  <Set>  (41) 
G1 active

>  <Set_type>  (41) 
G1

>  <MW>  (41) 
484.94

>  <HBD>  (41) 
1

>  <HBA>  (41) 
5

>  <NRB>  (41) 
6

>  <NR>  (41) 
5

>  <NAR>  (41) 
5

>  <PSA>  (41) 
69.68

>  <Standard Type>  (41) 
nan

>  <Standard Relation>  (41) 
nan

>  <Standard Units>  (41) 
nan

>  <Standard Value>  (41) 
nan

>  <Assay ChEMBL ID>  (41) 
nan

>  <Assay Description>  (41) 
nan

>  <BAO Label>  (41) 
nan

$$$$

     RDKit          2D

 23 26  0  0  0  0  0  0  0  0999 V2000
   -3.8876   -9.0580    0.0000 O   0  0  0  0  0  0  0  0  0  0  0  0
   -3.5757   -7.5908    0.0000 C   0  0  0  0  0  0  0  0  0  0  0  0
   -4.6904   -6.5871    0.0000 C   0  0  0  0  0  0  0  0  0  0  0  0
   -4.3786   -5.1199    0.0000 C   0  0  0  0  0  0  0  0  0  0  0  0
   -2.9520   -4.6564    0.0000 C   0  0  0  0  0  0  0  0  0  0  0  0
   -2.6401   -3.1891    0.0000 C   0  0  0  0  0  0  0  0  0  0  0  0
   -1.2135   -2.7256    0.0000 C   0  0  0  0  0  0  0  0  0  0  0  0
   -0.0000   -3.6073    0.0000 N   0  0  0  0  0  0  0  0  0  0  0  0
    1.2135   -2.7256    0.0000 N   0  0  0  0  0  0  0  0  0  0  0  0
    0.7500   -1.2990    0.0000 C   0  0  0  0  0  0  0  0  0  0  0  0
    1.5000    0.0000    0.0000 N   0  0  0  0  0  0  0  0  0  0  0  0
    0.7500    1.2990    0.0000 C   0  0  0  0  0  0  0  0  0  0  0  0
   -0.7500    1.2990    0.0000 C   0  0  0  0  0  0  0  0  0  0  0  0
   -1.5000    2.5981    0.0000 C   0  0  0  0  0  0  0  0  0  0  0  0
   -0.7500    3.8971    0.0000 C   0  0  0  0  0  0  0  0  0  0  0  0
   -1.5000    5.1962    0.0000 C   0  0  0  0  0  0  0  0  0  0  0  0
   -3.0000    5.1962    0.0000 C   0  0  0  0  0  0  0  0  0  0  0  0
   -3.7500    3.8971    0.0000 C   0  0  0  0  0  0  0  0  0  0  0  0
   -3.0000    2.5981    0.0000 C   0  0  0  0  0  0  0  0  0  0  0  0
   -1.5000    0.0000    0.0000 C   0  0  0  0  0  0  0  0  0  0  0  0
   -0.7500   -1.2990    0.0000 N   0  0  0  0  0  0  0  0  0  0  0  0
   -1.8373   -5.6601    0.0000 C   0  0  0  0  0  0  0  0  0  0  0  0
   -2.1491   -7.1273    0.0000 C   0  0  0  0  0  0  0  0  0  0  0  0
  1  2  1  0
  2  3  2  0
  3  4  1  0
  4  5  2  0
  5  6  1  0
  6  7  1  0
  7  8  2  0
  8  9  1  0
  9 10  2  0
 10 11  1  0
 11 12  2  0
 12 13  1  0
 13 14  1  0
 14 15  2  0
 15 16  1  0
 16 17  2  0
 17 18  1  0
 18 19  2  0
 13 20  2  0
 20 21  1  0
  5 22  1  0
 22 23  2  0
 23  2  1  0
 21  7  1  0
 21 10  1  0
 19 14  1  0
M  END
>  <Compound_ID>  (42) 
CHEMBL495899

>  <Active>  (42) 
1.0

>  <Smiles>  (42) 
Oc1ccc(Cc2nnc3ncc(-c4ccccc4)cn23)cc1

>  <canonical_smi>  (42) 
Oc1ccc(Cc2nnc3ncc(-c4ccccc4)cn23)cc1

>  <Set>  (42) 
G1 active

>  <Set_type>  (42) 
G1

>  <MW>  (42) 
302.34

>  <HBD>  (42) 
1

>  <HBA>  (42) 
4

>  <NRB>  (42) 
3

>  <NR>  (42) 
4

>  <NAR>  (42) 
4

>  <PSA>  (42) 
63.31

>  <Standard Type>  (42) 
nan

>  <Standard Relation>  (42) 
nan

>  <Standard Units>  (42) 
nan

>  <Standard Value>  (42) 
nan

>  <Assay ChEMBL ID>  (42) 
nan

>  <Assay Description>  (42) 
nan

>  <BAO Label>  (42) 
nan

$$$$

     RDKit          2D

 27 30  0  0  0  0  0  0  0  0999 V2000
    3.7500   -6.4952    0.0000 C   0  0  0  0  0  0  0  0  0  0  0  0
    3.0000   -5.1962    0.0000 N   0  0  0  0  0  0  0  0  0  0  0  0
    1.5000   -5.1962    0.0000 C   0  0  0  0  0  0  0  0  0  0  0  0
    0.7500   -3.8971    0.0000 C   0  0  0  0  0  0  0  0  0  0  0  0
    1.5000   -2.5981    0.0000 N   0  0  0  0  0  0  0  0  0  0  0  0
    0.7500   -1.2990    0.0000 C   0  0  0  0  0  0  0  0  0  0  0  0
    1.5000    0.0000    0.0000 C   0  0  0  0  0  0  0  0  0  0  0  0
    0.7500    1.2990    0.0000 N   0  0  0  0  0  0  0  0  0  0  0  0
   -0.7500    1.2990    0.0000 C   0  0  0  0  0  0  0  0  0  0  0  0
   -1.5000    2.5981    0.0000 C   0  0  0  0  0  0  0  0  0  0  0  0
   -3.0000    2.5981    0.0000 C   0  0  0  0  0  0  0  0  0  0  0  0
   -3.7500    3.8971    0.0000 C   0  0  0  0  0  0  0  0  0  0  0  0
   -4.5000    5.1962    0.0000 F   0  0  0  0  0  0  0  0  0  0  0  0
   -2.4510    4.6471    0.0000 F   0  0  0  0  0  0  0  0  0  0  0  0
   -5.0490    3.1471    0.0000 F   0  0  0  0  0  0  0  0  0  0  0  0
   -3.7500    1.2990    0.0000 C   0  0  0  0  0  0  0  0  0  0  0  0
   -3.0000    0.0000    0.0000 C   0  0  0  0  0  0  0  0  0  0  0  0
   -3.7500   -1.2990    0.0000 C   0  0  0  0  0  0  0  0  0  0  0  0
   -5.2500   -1.2990    0.0000 C   0  0  0  0  0  0  0  0  0  0  0  0
   -6.0000   -2.5981    0.0000 C   0  0  0  0  0  0  0  0  0  0  0  0
   -5.2500   -3.8971    0.0000 C   0  0  0  0  0  0  0  0  0  0  0  0
   -3.7500   -3.8971    0.0000 C   0  0  0  0  0  0  0  0  0  0  0  0
   -3.0000   -2.5981    0.0000 C   0  0  0  0  0  0  0  0  0  0  0  0
   -1.5000    0.0000    0.0000 C   0  0  0  0  0  0  0  0  0  0  0  0
   -0.7500   -1.2990    0.0000 C   0  0  0  0  0  0  0  0  0  0  0  0
    3.0000   -2.5981    0.0000 C   0  0  0  0  0  0  0  0  0  0  0  0
    3.7500   -3.8971    0.0000 C   0  0  0  0  0  0  0  0  0  0  0  0
  1  2  1  0
  2  3  1  0
  3  4  1  0
  4  5  1  0
  5  6  1  0
  6  7  2  0
  7  8  1  0
  8  9  2  0
  9 10  1  0
 10 11  2  0
 11 12  1  0
 12 13  1  0
 12 14  1  0
 12 15  1  0
 11 16  1  0
 16 17  2  0
 17 18  1  0
 18 19  2  0
 19 20  1  0
 20 21  2  0
 21 22  1  0
 22 23  2  0
 17 24  1  0
 24 25  2  0
  5 26  1  0
 26 27  1  0
 27  2  1  0
 25  6  1  0
 24  9  1  0
 23 18  1  0
M  END
>  <Compound_ID>  (43) 
CHEMBL456720

>  <Active>  (43) 
1.0

>  <Smiles>  (43) 
CN1CCN(c2cnc3cc(C(F)(F)F)cc(-c4ccccc4)c3c2)CC1

>  <canonical_smi>  (43) 
CN1CCN(c2cnc3cc(C(F)(F)F)cc(-c4ccccc4)c3c2)CC1

>  <Set>  (43) 
G1 active

>  <Set_type>  (43) 
G1

>  <MW>  (43) 
371.41

>  <HBD>  (43) 
0

>  <HBA>  (43) 
3

>  <NRB>  (43) 
2

>  <NR>  (43) 
4

>  <NAR>  (43) 
3

>  <PSA>  (43) 
19.37

>  <Standard Type>  (43) 
nan

>  <Standard Relation>  (43) 
nan

>  <Standard Units>  (43) 
nan

>  <Standard Value>  (43) 
nan

>  <Assay ChEMBL ID>  (43) 
nan

>  <Assay Description>  (43) 
nan

>  <BAO Label>  (43) 
nan

$$$$

     RDKit          2D

 27 29  0  0  0  0  0  0  0  0999 V2000
    0.4022   -7.7629    0.0000 N   0  0  0  0  0  0  0  0  0  0  0  0
    0.2454   -6.2711    0.0000 C   0  0  0  0  0  0  0  0  0  0  0  0
    1.3601   -5.2674    0.0000 N   0  0  0  0  0  0  0  0  0  0  0  0
    0.7500   -3.8971    0.0000 C   0  0  0  0  0  0  0  0  0  0  0  0
    1.5000   -2.5981    0.0000 N   0  0  0  0  0  0  0  0  0  0  0  0
    0.7500   -1.2990    0.0000 C   0  0  0  0  0  0  0  0  0  0  0  0
    1.5000    0.0000    0.0000 C   0  0  0  0  0  0  0  0  0  0  0  0
    0.7500    1.2990    0.0000 C   0  0  0  0  0  0  0  0  0  0  0  0
   -0.7500    1.2990    0.0000 C   0  0  0  0  0  0  0  0  0  0  0  0
   -1.5000    2.5981    0.0000 S   0  0  0  0  0  0  0  0  0  0  0  0
   -2.2500    3.8971    0.0000 N   0  0  0  0  0  0  0  0  0  0  0  0
   -0.2010    3.3481    0.0000 O   0  0  0  0  0  0  0  0  0  0  0  0
   -2.7990    1.8481    0.0000 O   0  0  0  0  0  0  0  0  0  0  0  0
   -1.5000    0.0000    0.0000 C   0  0  0  0  0  0  0  0  0  0  0  0
   -0.7500   -1.2990    0.0000 C   0  0  0  0  0  0  0  0  0  0  0  0
   -0.7418   -4.0539    0.0000 N   0  0  0  0  0  0  0  0  0  0  0  0
   -1.0537   -5.5211    0.0000 N   0  0  0  0  0  0  0  0  0  0  0  0
   -2.4240   -6.1312    0.0000 C   0  0  0  0  0  0  0  0  0  0  0  0
   -2.5808   -7.6230    0.0000 O   0  0  0  0  0  0  0  0  0  0  0  0
   -3.6375   -5.2496    0.0000 C   0  0  0  0  0  0  0  0  0  0  0  0
   -3.4807   -3.7578    0.0000 C   0  0  0  0  0  0  0  0  0  0  0  0
   -2.1104   -3.1477    0.0000 F   0  0  0  0  0  0  0  0  0  0  0  0
   -4.6942   -2.8761    0.0000 C   0  0  0  0  0  0  0  0  0  0  0  0
   -6.0645   -3.4862    0.0000 C   0  0  0  0  0  0  0  0  0  0  0  0
   -6.2213   -4.9780    0.0000 C   0  0  0  0  0  0  0  0  0  0  0  0
   -5.0078   -5.8597    0.0000 C   0  0  0  0  0  0  0  0  0  0  0  0
   -5.1646   -7.3514    0.0000 F   0  0  0  0  0  0  0  0  0  0  0  0
  1  2  1  0
  2  3  2  0
  3  4  1  0
  4  5  1  0
  5  6  1  0
  6  7  2  0
  7  8  1  0
  8  9  2  0
  9 10  1  0
 10 11  1  0
 10 12  2  0
 10 13  2  0
  9 14  1  0
 14 15  2  0
  4 16  2  0
 16 17  1  0
 17 18  1  0
 18 19  2  0
 18 20  1  0
 20 21  2  0
 21 22  1  0
 21 23  1  0
 23 24  2  0
 24 25  1  0
 25 26  2  0
 26 27  1  0
 17  2  1  0
 26 20  1  0
 15  6  1  0
M  END
>  <Compound_ID>  (44) 
CHEMBL191003

>  <Active>  (44) 
1.0

>  <Smiles>  (44) 
Nc1nc(Nc2ccc(S(N)(=O)=O)cc2)nn1C(=O)c1c(F)cccc1F

>  <canonical_smi>  (44) 
Nc1nc(Nc2ccc(S(N)(=O)=O)cc2)nn1C(=O)c1c(F)cccc1F

>  <Set>  (44) 
G1 active

>  <Set_type>  (44) 
G1

>  <MW>  (44) 
394.36

>  <HBD>  (44) 
3

>  <HBA>  (44) 
7

>  <NRB>  (44) 
4

>  <NR>  (44) 
3

>  <NAR>  (44) 
3

>  <PSA>  (44) 
145.99

>  <Standard Type>  (44) 
nan

>  <Standard Relation>  (44) 
nan

>  <Standard Units>  (44) 
nan

>  <Standard Value>  (44) 
nan

>  <Assay ChEMBL ID>  (44) 
nan

>  <Assay Description>  (44) 
nan

>  <BAO Label>  (44) 
nan

$$$$

     RDKit          2D

 33 37  0  0  0  0  0  0  0  0999 V2000
    0.4022   -7.7629    0.0000 C   0  0  0  0  0  0  0  0  0  0  0  0
    0.2454   -6.2711    0.0000 C   0  0  0  0  0  0  0  0  0  0  0  0
    1.3601   -5.2674    0.0000 C   0  0  0  0  0  0  0  0  0  0  0  0
    0.7500   -3.8971    0.0000 C   0  0  0  0  0  0  0  0  0  0  0  0
    1.5000   -2.5981    0.0000 N   0  0  0  0  0  0  0  0  0  0  0  0
    0.7500   -1.2990    0.0000 C   0  0  0  0  0  0  0  0  0  0  0  0
    1.5000    0.0000    0.0000 C   0  0  0  0  0  0  0  0  0  0  0  0
    0.7500    1.2990    0.0000 C   0  0  0  0  0  0  0  0  0  0  0  0
    1.5000    2.5981    0.0000 N   0  0  0  0  0  0  0  0  0  0  0  0
    3.0000    2.5981    0.0000 C   0  0  0  0  0  0  0  0  0  0  0  0
    3.7500    3.8971    0.0000 C   0  0  0  0  0  0  0  0  0  0  0  0
    3.0000    5.1962    0.0000 N   0  0  0  0  0  0  0  0  0  0  0  0
    3.7500    6.4952    0.0000 C   0  0  0  0  0  0  0  0  0  0  0  0
    1.5000    5.1962    0.0000 C   0  0  0  0  0  0  0  0  0  0  0  0
    0.7500    3.8971    0.0000 C   0  0  0  0  0  0  0  0  0  0  0  0
   -0.7500    1.2990    0.0000 N   0  0  0  0  0  0  0  0  0  0  0  0
   -1.5000    0.0000    0.0000 C   0  0  0  0  0  0  0  0  0  0  0  0
   -3.0000    0.0000    0.0000 S   0  0  0  0  0  0  0  0  0  0  0  0
   -3.7500    1.2990    0.0000 C   0  0  0  0  0  0  0  0  0  0  0  0
   -3.0000    2.5981    0.0000 C   0  0  0  0  0  0  0  0  0  0  0  0
   -3.7500    3.8971    0.0000 C   0  0  0  0  0  0  0  0  0  0  0  0
   -5.2500    3.8971    0.0000 C   0  0  0  0  0  0  0  0  0  0  0  0
   -6.0000    5.1962    0.0000 N   0  0  0  0  0  0  0  0  0  0  0  0
   -5.2500    6.4952    0.0000 C   0  0  0  0  0  0  0  0  0  0  0  0
   -3.7500    6.4952    0.0000 O   0  0  0  0  0  0  0  0  0  0  0  0
   -6.0000    7.7942    0.0000 C   0  0  0  0  0  0  0  0  0  0  0  0
   -7.2990    8.5442    0.0000 C   0  0  0  0  0  0  0  0  0  0  0  0
   -6.0000    9.2942    0.0000 C   0  0  0  0  0  0  0  0  0  0  0  0
   -6.0000    2.5981    0.0000 C   0  0  0  0  0  0  0  0  0  0  0  0
   -5.2500    1.2990    0.0000 C   0  0  0  0  0  0  0  0  0  0  0  0
   -0.7500   -1.2990    0.0000 N   0  0  0  0  0  0  0  0  0  0  0  0
   -0.7418   -4.0539    0.0000 N   0  0  0  0  0  0  0  0  0  0  0  0
   -1.0537   -5.5211    0.0000 N   0  0  0  0  0  0  0  0  0  0  0  0
  1  2  1  0
  2  3  1  0
  3  4  2  0
  4  5  1  0
  5  6  1  0
  6  7  2  0
  7  8  1  0
  8  9  1  0
  9 10  1  0
 10 11  1  0
 11 12  1  0
 12 13  1  0
 12 14  1  0
 14 15  1  0
  8 16  2  0
 16 17  1  0
 17 18  1  0
 18 19  1  0
 19 20  2  0
 20 21  1  0
 21 22  2  0
 22 23  1  0
 23 24  1  0
 24 25  2  0
 24 26  1  0
 26 27  1  0
 27 28  1  0
 22 29  1  0
 29 30  2  0
 17 31  2  0
  4 32  1  0
 32 33  1  0
 33  2  2  0
 31  6  1  0
 15  9  1  0
 30 19  1  0
 28 26  1  0
M  END
>  <Compound_ID>  (45) 
CHEMBL572878

>  <Active>  (45) 
1.0

>  <Smiles>  (45) 
Cc1cc(Nc2cc(N3CCN(C)CC3)nc(Sc3ccc(NC(=O)C4CC4)cc3)n2)[nH]n1

>  <canonical_smi>  (45) 
Cc1cc(Nc2cc(N3CCN(C)CC3)nc(Sc3ccc(NC(=O)C4CC4)cc3)n2)[nH]n1

>  <Set>  (45) 
G1 active

>  <Set_type>  (45) 
G1

>  <MW>  (45) 
464.6

>  <HBD>  (45) 
3

>  <HBA>  (45) 
8

>  <NRB>  (45) 
7

>  <NR>  (45) 
5

>  <NAR>  (45) 
3

>  <PSA>  (45) 
102.07

>  <Standard Type>  (45) 
nan

>  <Standard Relation>  (45) 
nan

>  <Standard Units>  (45) 
nan

>  <Standard Value>  (45) 
nan

>  <Assay ChEMBL ID>  (45) 
nan

>  <Assay Description>  (45) 
nan

>  <BAO Label>  (45) 
nan

$$$$

     RDKit          2D

 26 29  0  0  0  0  0  0  0  0999 V2000
    3.0000    0.0000    0.0000 O   0  0  0  0  0  0  0  0  0  0  0  0
    1.5000    0.0000    0.0000 C   0  0  0  0  0  0  0  0  0  0  0  0
    0.7500   -1.2990    0.0000 C   0  0  0  0  0  0  0  0  0  0  0  0
   -0.7500   -1.2990    0.0000 C   0  0  0  0  0  0  0  0  0  0  0  0
   -1.5000   -2.5981    0.0000 O   0  0  0  0  0  0  0  0  0  0  0  0
   -3.0000   -2.5981    0.0000 C   0  0  0  0  0  0  0  0  0  0  0  0
   -3.7500   -3.8971    0.0000 C   0  0  0  0  0  0  0  0  0  0  0  0
   -5.2500   -3.8971    0.0000 C   0  0  0  0  0  0  0  0  0  0  0  0
   -6.0000   -5.1962    0.0000 O   0  0  0  0  0  0  0  0  0  0  0  0
   -6.0000   -2.5981    0.0000 C   0  0  0  0  0  0  0  0  0  0  0  0
   -7.5000   -2.5981    0.0000 O   0  0  0  0  0  0  0  0  0  0  0  0
   -5.2500   -1.2990    0.0000 C   0  0  0  0  0  0  0  0  0  0  0  0
   -3.7500   -1.2990    0.0000 C   0  0  0  0  0  0  0  0  0  0  0  0
   -3.0000    0.0000    0.0000 C   0  0  0  0  0  0  0  0  0  0  0  0
   -3.7500    1.2990    0.0000 C   0  0  0  0  0  0  0  0  0  0  0  0
   -3.0000    2.5981    0.0000 C   0  0  0  0  0  0  0  0  0  0  0  0
   -3.7500    3.8971    0.0000 C   0  0  0  0  0  0  0  0  0  0  0  0
   -5.2500    3.8971    0.0000 C   0  0  0  0  0  0  0  0  0  0  0  0
   -6.0000    2.5981    0.0000 C   0  0  0  0  0  0  0  0  0  0  0  0
   -7.5000    2.5981    0.0000 Cl  0  0  0  0  0  0  0  0  0  0  0  0
   -5.2500    1.2990    0.0000 C   0  0  0  0  0  0  0  0  0  0  0  0
   -6.0000    0.0000    0.0000 Cl  0  0  0  0  0  0  0  0  0  0  0  0
   -1.5000    0.0000    0.0000 C   0  0  0  0  0  0  0  0  0  0  0  0
   -0.7500    1.2990    0.0000 C   0  0  0  0  0  0  0  0  0  0  0  0
    0.7500    1.2990    0.0000 C   0  0  0  0  0  0  0  0  0  0  0  0
    1.5000    2.5981    0.0000 O   0  0  0  0  0  0  0  0  0  0  0  0
  1  2  2  0
  2  3  1  0
  3  4  2  0
  4  5  1  0
  5  6  1  0
  6  7  2  0
  7  8  1  0
  8  9  1  0
  8 10  2  0
 10 11  1  0
 10 12  1  0
 12 13  2  0
 13 14  1  0
 14 15  1  0
 15 16  2  0
 16 17  1  0
 17 18  2  0
 18 19  1  0
 19 20  1  0
 19 21  2  0
 21 22  1  0
 14 23  2  0
 23 24  1  0
 24 25  2  0
 25 26  1  0
 25  2  1  0
 23  4  1  0
 13  6  1  0
 21 15  1  0
M  END
>  <Compound_ID>  (46) 
CHEMBL473332

>  <Active>  (46) 
1.0

>  <Smiles>  (46) 
O=c1cc2oc3cc(O)c(O)cc3c(-c3cccc(Cl)c3Cl)c-2cc1O

>  <canonical_smi>  (46) 
O=c1cc2oc3cc(O)c(O)cc3c(-c3cccc(Cl)c3Cl)c-2cc1O

>  <Set>  (46) 
G1 active

>  <Set_type>  (46) 
G1

>  <MW>  (46) 
389.19

>  <HBD>  (46) 
3

>  <HBA>  (46) 
5

>  <NRB>  (46) 
1

>  <NR>  (46) 
4

>  <NAR>  (46) 
4

>  <PSA>  (46) 
90.9

>  <Standard Type>  (46) 
nan

>  <Standard Relation>  (46) 
nan

>  <Standard Units>  (46) 
nan

>  <Standard Value>  (46) 
nan

>  <Assay ChEMBL ID>  (46) 
nan

>  <Assay Description>  (46) 
nan

>  <BAO Label>  (46) 
nan

$$$$

     RDKit          2D

 21 23  0  0  0  0  0  0  0  0999 V2000
   -1.5000   -7.7942    0.0000 O   0  0  0  0  0  0  0  0  0  0  0  0
   -0.7500   -6.4952    0.0000 C   0  0  0  0  0  0  0  0  0  0  0  0
   -1.5000   -5.1962    0.0000 C   0  0  0  0  0  0  0  0  0  0  0  0
   -0.7500   -3.8971    0.0000 C   0  0  0  0  0  0  0  0  0  0  0  0
    0.7500   -3.8971    0.0000 C   0  0  0  0  0  0  0  0  0  0  0  0
    1.5000   -2.5981    0.0000 C   0  0  0  0  0  0  0  0  0  0  0  0
    0.7500   -1.2990    0.0000 C   0  0  0  0  0  0  0  0  0  0  0  0
    1.5000    0.0000    0.0000 C   0  0  0  0  0  0  0  0  0  0  0  0
    0.7500    1.2990    0.0000 C   0  0  0  0  0  0  0  0  0  0  0  0
    1.5000    2.5981    0.0000 C   0  0  0  0  0  0  0  0  0  0  0  0
    0.7500    3.8971    0.0000 C   0  0  0  0  0  0  0  0  0  0  0  0
   -0.7500    3.8971    0.0000 C   0  0  0  0  0  0  0  0  0  0  0  0
   -1.5000    5.1962    0.0000 O   0  0  0  0  0  0  0  0  0  0  0  0
   -1.5000    2.5981    0.0000 C   0  0  0  0  0  0  0  0  0  0  0  0
   -3.0000    2.5981    0.0000 O   0  0  0  0  0  0  0  0  0  0  0  0
   -0.7500    1.2990    0.0000 C   0  0  0  0  0  0  0  0  0  0  0  0
   -1.5000    0.0000    0.0000 O   0  0  0  0  0  0  0  0  0  0  0  0
   -0.7500   -1.2990    0.0000 C   0  0  0  0  0  0  0  0  0  0  0  0
    1.5000   -5.1962    0.0000 C   0  0  0  0  0  0  0  0  0  0  0  0
    0.7500   -6.4952    0.0000 C   0  0  0  0  0  0  0  0  0  0  0  0
    1.5000   -7.7942    0.0000 O   0  0  0  0  0  0  0  0  0  0  0  0
  1  2  1  0
  2  3  2  0
  3  4  1  0
  4  5  2  0
  5  6  1  0
  6  7  1  0
  7  8  2  0
  8  9  1  0
  9 10  2  0
 10 11  1  0
 11 12  2  0
 12 13  1  0
 12 14  1  0
 14 15  1  0
 14 16  2  0
 16 17  1  0
 17 18  1  0
  5 19  1  0
 19 20  2  0
 20 21  1  0
 20  2  1  0
 18  7  1  0
 16  9  1  0
M  END
>  <Compound_ID>  (47) 
CHEMBL477560

>  <Active>  (47) 
1.0

>  <Smiles>  (47) 
Oc1ccc(CC2=Cc3ccc(O)c(O)c3OC2)cc1O

>  <canonical_smi>  (47) 
Oc1ccc(CC2=Cc3ccc(O)c(O)c3OC2)cc1O

>  <Set>  (47) 
G1 active

>  <Set_type>  (47) 
G1

>  <MW>  (47) 
286.28

>  <HBD>  (47) 
4

>  <HBA>  (47) 
5

>  <NRB>  (47) 
2

>  <NR>  (47) 
3

>  <NAR>  (47) 
2

>  <PSA>  (47) 
90.15

>  <Standard Type>  (47) 
nan

>  <Standard Relation>  (47) 
nan

>  <Standard Units>  (47) 
nan

>  <Standard Value>  (47) 
nan

>  <Assay ChEMBL ID>  (47) 
nan

>  <Assay Description>  (47) 
nan

>  <BAO Label>  (47) 
nan

$$$$

     RDKit          2D

 28 31  0  0  0  0  0  0  0  0999 V2000
    3.7500   -6.4952    0.0000 C   0  0  0  0  0  0  0  0  0  0  0  0
    3.0000   -5.1962    0.0000 N   0  0  0  0  0  0  0  0  0  0  0  0
    1.5000   -5.1962    0.0000 C   0  0  0  0  0  0  0  0  0  0  0  0
    0.7500   -3.8971    0.0000 C   0  0  0  0  0  0  0  0  0  0  0  0
    1.5000   -2.5981    0.0000 N   0  0  0  0  0  0  0  0  0  0  0  0
    0.7500   -1.2990    0.0000 C   0  0  0  0  0  0  0  0  0  0  0  0
    1.5000    0.0000    0.0000 C   0  0  0  0  0  0  0  0  0  0  0  0
    0.7500    1.2990    0.0000 N   0  0  0  0  0  0  0  0  0  0  0  0
   -0.7500    1.2990    0.0000 C   0  0  0  0  0  0  0  0  0  0  0  0
   -1.5000    2.5981    0.0000 C   0  0  0  0  0  0  0  0  0  0  0  0
   -3.0000    2.5981    0.0000 C   0  0  0  0  0  0  0  0  0  0  0  0
   -3.7500    3.8971    0.0000 C   0  0  0  0  0  0  0  0  0  0  0  0
   -4.5000    5.1962    0.0000 F   0  0  0  0  0  0  0  0  0  0  0  0
   -2.4510    4.6471    0.0000 F   0  0  0  0  0  0  0  0  0  0  0  0
   -5.0490    3.1471    0.0000 F   0  0  0  0  0  0  0  0  0  0  0  0
   -3.7500    1.2990    0.0000 C   0  0  0  0  0  0  0  0  0  0  0  0
   -3.0000    0.0000    0.0000 C   0  0  0  0  0  0  0  0  0  0  0  0
   -3.7500   -1.2990    0.0000 C   0  0  0  0  0  0  0  0  0  0  0  0
   -5.2500   -1.2990    0.0000 C   0  0  0  0  0  0  0  0  0  0  0  0
   -6.0000   -2.5981    0.0000 C   0  0  0  0  0  0  0  0  0  0  0  0
   -5.2500   -3.8971    0.0000 C   0  0  0  0  0  0  0  0  0  0  0  0
   -6.0000   -5.1962    0.0000 O   0  0  0  0  0  0  0  0  0  0  0  0
   -3.7500   -3.8971    0.0000 C   0  0  0  0  0  0  0  0  0  0  0  0
   -3.0000   -2.5981    0.0000 C   0  0  0  0  0  0  0  0  0  0  0  0
   -1.5000    0.0000    0.0000 C   0  0  0  0  0  0  0  0  0  0  0  0
   -0.7500   -1.2990    0.0000 N   0  0  0  0  0  0  0  0  0  0  0  0
    3.0000   -2.5981    0.0000 C   0  0  0  0  0  0  0  0  0  0  0  0
    3.7500   -3.8971    0.0000 C   0  0  0  0  0  0  0  0  0  0  0  0
  1  2  1  0
  2  3  1  0
  3  4  1  0
  4  5  1  0
  5  6  1  0
  6  7  2  0
  7  8  1  0
  8  9  2  0
  9 10  1  0
 10 11  2  0
 11 12  1  0
 12 13  1  0
 12 14  1  0
 12 15  1  0
 11 16  1  0
 16 17  2  0
 17 18  1  0
 18 19  2  0
 19 20  1  0
 20 21  2  0
 21 22  1  0
 21 23  1  0
 23 24  2  0
 17 25  1  0
 25 26  2  0
  5 27  1  0
 27 28  1  0
 28  2  1  0
 26  6  1  0
 25  9  1  0
 24 18  1  0
M  END
>  <Compound_ID>  (48) 
CHEMBL462914

>  <Active>  (48) 
1.0

>  <Smiles>  (48) 
CN1CCN(c2cnc3cc(C(F)(F)F)cc(-c4ccc(O)cc4)c3n2)CC1

>  <canonical_smi>  (48) 
CN1CCN(c2cnc3cc(C(F)(F)F)cc(-c4ccc(O)cc4)c3n2)CC1

>  <Set>  (48) 
G1 active

>  <Set_type>  (48) 
G1

>  <MW>  (48) 
388.39

>  <HBD>  (48) 
1

>  <HBA>  (48) 
5

>  <NRB>  (48) 
2

>  <NR>  (48) 
4

>  <NAR>  (48) 
3

>  <PSA>  (48) 
52.49

>  <Standard Type>  (48) 
nan

>  <Standard Relation>  (48) 
nan

>  <Standard Units>  (48) 
nan

>  <Standard Value>  (48) 
nan

>  <Assay ChEMBL ID>  (48) 
nan

>  <Assay Description>  (48) 
nan

>  <BAO Label>  (48) 
nan

$$$$

     RDKit          2D

 23 25  0  0  0  0  0  0  0  0999 V2000
    3.0000    0.0000    0.0000 O   0  0  0  0  0  0  0  0  0  0  0  0
    1.5000    0.0000    0.0000 C   0  0  0  0  0  0  0  0  0  0  0  0
    0.7500   -1.2990    0.0000 C   0  0  0  0  0  0  0  0  0  0  0  0
    1.5000   -2.5981    0.0000 C   0  0  0  0  0  0  0  0  0  0  0  0
    0.7500   -3.8971    0.0000 C   0  0  0  0  0  0  0  0  0  0  0  0
   -0.7500   -3.8971    0.0000 C   0  0  0  0  0  0  0  0  0  0  0  0
   -1.5000   -5.1962    0.0000 O   0  0  0  0  0  0  0  0  0  0  0  0
   -1.5000   -2.5981    0.0000 C   0  0  0  0  0  0  0  0  0  0  0  0
   -3.0000   -2.5981    0.0000 O   0  0  0  0  0  0  0  0  0  0  0  0
   -0.7500   -1.2990    0.0000 C   0  0  0  0  0  0  0  0  0  0  0  0
   -1.5000    0.0000    0.0000 O   0  0  0  0  0  0  0  0  0  0  0  0
   -0.7500    1.2990    0.0000 C   0  0  0  0  0  0  0  0  0  0  0  0
    0.7500    1.2990    0.0000 C   0  0  0  0  0  0  0  0  0  0  0  0
    2.1595    1.8121    0.0000 O   0  0  0  0  0  0  0  0  0  0  0  0
    0.4895    2.7762    0.0000 C   0  0  0  0  0  0  0  0  0  0  0  0
    1.6386    3.7404    0.0000 C   0  0  0  0  0  0  0  0  0  0  0  0
    3.0481    3.2274    0.0000 C   0  0  0  0  0  0  0  0  0  0  0  0
    4.1972    4.1916    0.0000 C   0  0  0  0  0  0  0  0  0  0  0  0
    3.9367    5.6688    0.0000 C   0  0  0  0  0  0  0  0  0  0  0  0
    5.0858    6.6330    0.0000 O   0  0  0  0  0  0  0  0  0  0  0  0
    2.5272    6.1818    0.0000 C   0  0  0  0  0  0  0  0  0  0  0  0
    2.2667    7.6590    0.0000 O   0  0  0  0  0  0  0  0  0  0  0  0
    1.3781    5.2176    0.0000 C   0  0  0  0  0  0  0  0  0  0  0  0
  1  2  2  0
  2  3  1  0
  3  4  2  0
  4  5  1  0
  5  6  2  0
  6  7  1  0
  6  8  1  0
  8  9  1  0
  8 10  2  0
 10 11  1  0
 11 12  1  0
 12 13  1  0
 13 14  1  1
 13 15  1  0
 15 16  1  0
 16 17  2  0
 17 18  1  0
 18 19  2  0
 19 20  1  0
 19 21  1  0
 21 22  1  0
 21 23  2  0
 13  2  1  0
 23 16  1  0
 10  3  1  0
M  END
>  <Compound_ID>  (49) 
CHEMBL477768

>  <Active>  (49) 
1.0

>  <Smiles>  (49) 
O=C1c2ccc(O)c(O)c2OC[C@]1(O)Cc1ccc(O)c(O)c1

>  <canonical_smi>  (49) 
O=C1c2ccc(O)c(O)c2OC[C@]1(O)Cc1ccc(O)c(O)c1

>  <Set>  (49) 
G1 active

>  <Set_type>  (49) 
G1

>  <MW>  (49) 
318.28

>  <HBD>  (49) 
5

>  <HBA>  (49) 
7

>  <NRB>  (49) 
2

>  <NR>  (49) 
3

>  <NAR>  (49) 
2

>  <PSA>  (49) 
127.45

>  <Standard Type>  (49) 
nan

>  <Standard Relation>  (49) 
nan

>  <Standard Units>  (49) 
nan

>  <Standard Value>  (49) 
nan

>  <Assay ChEMBL ID>  (49) 
nan

>  <Assay Description>  (49) 
nan

>  <BAO Label>  (49) 
nan

$$$$

     RDKit          2D

 38 41  0  0  0  0  0  0  0  0999 V2000
    3.0000   -5.1962    0.0000 C   0  0  0  0  0  0  0  0  0  0  0  0
    1.5000   -5.1962    0.0000 O   0  0  0  0  0  0  0  0  0  0  0  0
    0.7500   -3.8971    0.0000 C   0  0  0  0  0  0  0  0  0  0  0  0
    1.5000   -2.5981    0.0000 C   0  0  0  0  0  0  0  0  0  0  0  0
    0.7500   -1.2990    0.0000 C   0  0  0  0  0  0  0  0  0  0  0  0
    1.5000    0.0000    0.0000 N   0  0  0  0  0  0  0  0  0  0  0  0
    0.7500    1.2990    0.0000 C   0  0  0  0  0  0  0  0  0  0  0  0
   -0.7500    1.2990    0.0000 C   0  0  0  0  0  0  0  0  0  0  0  0
   -1.5000    0.0000    0.0000 C   0  0  0  0  0  0  0  0  0  0  0  0
   -3.0000    0.0000    0.0000 O   0  0  0  0  0  0  0  0  0  0  0  0
   -3.7500    1.2990    0.0000 C   0  0  0  0  0  0  0  0  0  0  0  0
   -3.0000    2.5981    0.0000 C   0  0  0  0  0  0  0  0  0  0  0  0
   -3.7500    3.8971    0.0000 C   0  0  0  0  0  0  0  0  0  0  0  0
   -5.2500    3.8971    0.0000 C   0  0  0  0  0  0  0  0  0  0  0  0
   -6.0000    5.1962    0.0000 N   0  0  0  0  0  0  0  0  0  0  0  0
   -5.2500    6.4952    0.0000 C   0  0  0  0  0  0  0  0  0  0  0  0
   -6.0000    7.7942    0.0000 C   0  0  0  0  0  0  0  0  0  0  0  0
   -5.2500    9.0933    0.0000 C   0  0  0  0  0  0  0  0  0  0  0  0
   -3.7500    9.0933    0.0000 O   0  0  0  0  0  0  0  0  0  0  0  0
   -6.0000   10.3923    0.0000 N   0  0  0  0  0  0  0  0  0  0  0  0
   -5.2500   11.6913    0.0000 C   0  0  0  0  0  0  0  0  0  0  0  0
   -3.7500   11.6913    0.0000 C   0  0  0  0  0  0  0  0  0  0  0  0
   -3.0000   12.9904    0.0000 C   0  0  0  0  0  0  0  0  0  0  0  0
   -3.7500   14.2894    0.0000 C   0  0  0  0  0  0  0  0  0  0  0  0
   -5.2500   14.2894    0.0000 C   0  0  0  0  0  0  0  0  0  0  0  0
   -6.0000   12.9904    0.0000 C   0  0  0  0  0  0  0  0  0  0  0  0
   -3.7500    6.4952    0.0000 C   0  0  0  0  0  0  0  0  0  0  0  0
   -2.2500    6.4952    0.0000 F   0  0  0  0  0  0  0  0  0  0  0  0
   -3.7500    7.9952    0.0000 F   0  0  0  0  0  0  0  0  0  0  0  0
   -3.7500    4.9952    0.0000 F   0  0  0  0  0  0  0  0  0  0  0  0
   -6.0000    2.5981    0.0000 C   0  0  0  0  0  0  0  0  0  0  0  0
   -5.2500    1.2990    0.0000 C   0  0  0  0  0  0  0  0  0  0  0  0
   -6.0000    0.0000    0.0000 F   0  0  0  0  0  0  0  0  0  0  0  0
   -0.7500   -1.2990    0.0000 C   0  0  0  0  0  0  0  0  0  0  0  0
   -1.5000   -2.5981    0.0000 C   0  0  0  0  0  0  0  0  0  0  0  0
   -0.7500   -3.8971    0.0000 C   0  0  0  0  0  0  0  0  0  0  0  0
   -1.5000   -5.1962    0.0000 O   0  0  0  0  0  0  0  0  0  0  0  0
   -3.0000   -5.1962    0.0000 C   0  0  0  0  0  0  0  0  0  0  0  0
  1  2  1  0
  2  3  1  0
  3  4  2  0
  4  5  1  0
  5  6  2  0
  6  7  1  0
  7  8  2  0
  8  9  1  0
  9 10  1  0
 10 11  1  0
 11 12  2  0
 12 13  1  0
 13 14  2  0
 14 15  1  0
 15 16  1  0
 16 17  1  0
 17 18  1  0
 18 19  2  0
 18 20  1  0
 20 21  1  0
 21 22  2  0
 22 23  1  0
 23 24  2  0
 24 25  1  0
 25 26  2  0
 16 27  1  0
 27 28  1  0
 27 29  1  0
 27 30  1  0
 14 31  1  0
 31 32  2  0
 32 33  1  0
  9 34  2  0
 34 35  1  0
 35 36  2  0
 36 37  1  0
 37 38  1  0
 36  3  1  0
 34  5  1  0
 32 11  1  0
 26 21  1  0
M  END
>  <Compound_ID>  (50) 
CHEMBL600604

>  <Active>  (50) 
1.0

>  <Smiles>  (50) 
COc1cc2nccc(Oc3ccc(NC(CC(=O)Nc4ccccc4)C(F)(F)F)cc3F)c2cc1OC

>  <canonical_smi>  (50) 
COc1cc2nccc(Oc3ccc(NC(CC(=O)Nc4ccccc4)C(F)(F)F)cc3F)c2cc1OC

>  <Set>  (50) 
G1 active

>  <Set_type>  (50) 
G1

>  <MW>  (50) 
529.49

>  <HBD>  (50) 
2

>  <HBA>  (50) 
6

>  <NRB>  (50) 
9

>  <NR>  (50) 
4

>  <NAR>  (50) 
4

>  <PSA>  (50) 
81.71

>  <Standard Type>  (50) 
nan

>  <Standard Relation>  (50) 
nan

>  <Standard Units>  (50) 
nan

>  <Standard Value>  (50) 
nan

>  <Assay ChEMBL ID>  (50) 
nan

>  <Assay Description>  (50) 
nan

>  <BAO Label>  (50) 
nan

$$$$

     RDKit          2D

 37 41  0  0  0  0  0  0  0  0999 V2000
    3.7500   -1.2990    0.0000 C   0  0  0  0  0  0  0  0  0  0  0  0
    3.0000    0.0000    0.0000 O   0  0  0  0  0  0  0  0  0  0  0  0
    1.5000    0.0000    0.0000 C   0  0  0  0  0  0  0  0  0  0  0  0
    0.7500   -1.2990    0.0000 C   0  0  0  0  0  0  0  0  0  0  0  0
   -0.7500   -1.2990    0.0000 C   0  0  0  0  0  0  0  0  0  0  0  0
   -1.5000    0.0000    0.0000 C   0  0  0  0  0  0  0  0  0  0  0  0
   -3.0000    0.0000    0.0000 C   0  0  0  0  0  0  0  0  0  0  0  0
   -3.7500   -1.2990    0.0000 O   0  0  0  0  0  0  0  0  0  0  0  0
   -5.2500   -1.2990    0.0000 C   0  0  0  0  0  0  0  0  0  0  0  0
   -6.0000    0.0000    0.0000 C   0  0  0  0  0  0  0  0  0  0  0  0
   -7.5000    0.0000    0.0000 C   0  0  0  0  0  0  0  0  0  0  0  0
   -8.2500   -1.2990    0.0000 C   0  0  0  0  0  0  0  0  0  0  0  0
   -9.7500   -1.2990    0.0000 N   0  0  0  0  0  0  0  0  0  0  0  0
  -10.5000    0.0000    0.0000 C   0  0  0  0  0  0  0  0  0  0  0  0
   -9.7500    1.2990    0.0000 O   0  0  0  0  0  0  0  0  0  0  0  0
  -12.0000    0.0000    0.0000 C   0  0  0  0  0  0  0  0  0  0  0  0
  -12.8817   -1.2135    0.0000 C   0  0  0  0  0  0  0  0  0  0  0  0
  -12.4182   -2.6401    0.0000 C   0  0  0  0  0  0  0  0  0  0  0  0
  -14.3083   -0.7500    0.0000 N   0  0  0  0  0  0  0  0  0  0  0  0
  -15.5218   -1.6317    0.0000 C   0  0  0  0  0  0  0  0  0  0  0  0
  -14.3083    0.7500    0.0000 N   0  0  0  0  0  0  0  0  0  0  0  0
  -15.5218    1.6317    0.0000 C   0  0  0  0  0  0  0  0  0  0  0  0
  -15.3650    3.1235    0.0000 C   0  0  0  0  0  0  0  0  0  0  0  0
  -16.5785    4.0051    0.0000 C   0  0  0  0  0  0  0  0  0  0  0  0
  -17.9488    3.3950    0.0000 C   0  0  0  0  0  0  0  0  0  0  0  0
  -18.1056    1.9033    0.0000 C   0  0  0  0  0  0  0  0  0  0  0  0
  -16.8921    1.0216    0.0000 C   0  0  0  0  0  0  0  0  0  0  0  0
  -12.8817    1.2135    0.0000 C   0  0  0  0  0  0  0  0  0  0  0  0
  -12.4182    2.6401    0.0000 O   0  0  0  0  0  0  0  0  0  0  0  0
   -7.5000   -2.5981    0.0000 C   0  0  0  0  0  0  0  0  0  0  0  0
   -6.0000   -2.5981    0.0000 C   0  0  0  0  0  0  0  0  0  0  0  0
   -5.2500   -3.8971    0.0000 F   0  0  0  0  0  0  0  0  0  0  0  0
   -3.7500    1.2990    0.0000 C   0  0  0  0  0  0  0  0  0  0  0  0
   -3.0000    2.5981    0.0000 C   0  0  0  0  0  0  0  0  0  0  0  0
   -1.5000    2.5981    0.0000 N   0  0  0  0  0  0  0  0  0  0  0  0
   -0.7500    1.2990    0.0000 C   0  0  0  0  0  0  0  0  0  0  0  0
    0.7500    1.2990    0.0000 C   0  0  0  0  0  0  0  0  0  0  0  0
  1  2  1  0
  2  3  1  0
  3  4  2  0
  4  5  1  0
  5  6  2  0
  6  7  1  0
  7  8  1  0
  8  9  1  0
  9 10  2  0
 10 11  1  0
 11 12  2  0
 12 13  1  0
 13 14  1  0
 14 15  2  0
 14 16  1  0
 16 17  2  0
 17 18  1  0
 17 19  1  0
 19 20  1  0
 19 21  1  0
 21 22  1  0
 22 23  2  0
 23 24  1  0
 24 25  2  0
 25 26  1  0
 26 27  2  0
 21 28  1  0
 28 29  2  0
 12 30  1  0
 30 31  2  0
 31 32  1  0
  7 33  2  0
 33 34  1  0
 34 35  2  0
 35 36  1  0
 36 37  2  0
 37  3  1  0
 36  6  1  0
 31  9  1  0
 28 16  1  0
 27 22  1  0
M  END
>  <Compound_ID>  (51) 
CHEMBL460465

>  <Active>  (51) 
1.0

>  <Smiles>  (51) 
COc1ccc2c(Oc3ccc(NC(=O)c4c(C)n(C)n(-c5ccccc5)c4=O)cc3F)ccnc2c1

>  <canonical_smi>  (51) 
COc1ccc2c(Oc3ccc(NC(=O)c4c(C)n(C)n(-c5ccccc5)c4=O)cc3F)ccnc2c1

>  <Set>  (51) 
G2 active

>  <Set_type>  (51) 
Train

>  <MW>  (51) 
498.51

>  <HBD>  (51) 
1

>  <HBA>  (51) 
5

>  <NRB>  (51) 
6

>  <NR>  (51) 
5

>  <NAR>  (51) 
5

>  <PSA>  (51) 
87.38

>  <Standard Type>  (51) 
nan

>  <Standard Relation>  (51) 
nan

>  <Standard Units>  (51) 
nan

>  <Standard Value>  (51) 
nan

>  <Assay ChEMBL ID>  (51) 
nan

>  <Assay Description>  (51) 
nan

>  <BAO Label>  (51) 
nan

$$$$

     RDKit          2D

 34 37  0  0  0  0  0  0  0  0999 V2000
    4.5000    0.0000    0.0000 C   0  0  0  0  0  0  0  0  0  0  0  0
    3.0000    0.0000    0.0000 C   0  0  0  0  0  0  0  0  0  0  0  0
    1.5000    0.0000    0.0000 C   0  0  0  0  0  0  0  0  0  0  0  0
    0.7500   -1.2990    0.0000 C   0  0  0  0  0  0  0  0  0  0  0  0
    1.5000   -2.5981    0.0000 O   0  0  0  0  0  0  0  0  0  0  0  0
    0.7500   -3.8971    0.0000 C   0  0  0  0  0  0  0  0  0  0  0  0
   -0.7500   -3.8971    0.0000 C   0  0  0  0  0  0  0  0  0  0  0  0
   -1.5000   -5.1962    0.0000 C   0  0  0  0  0  0  0  0  0  0  0  0
   -0.7500   -6.4952    0.0000 C   0  0  0  0  0  0  0  0  0  0  0  0
   -1.5000   -7.7942    0.0000 N   0  0  0  0  0  0  0  0  0  0  0  0
   -3.0000   -7.7942    0.0000 C   0  0  0  0  0  0  0  0  0  0  0  0
   -3.7500   -6.4952    0.0000 O   0  0  0  0  0  0  0  0  0  0  0  0
   -3.7500   -9.0933    0.0000 C   0  0  0  0  0  0  0  0  0  0  0  0
   -5.2500   -9.0933    0.0000 C   0  0  0  0  0  0  0  0  0  0  0  0
   -6.0000  -10.3923    0.0000 C   0  0  0  0  0  0  0  0  0  0  0  0
   -5.2500  -11.6913    0.0000 C   0  0  0  0  0  0  0  0  0  0  0  0
   -3.7500  -11.6913    0.0000 N   0  0  0  0  0  0  0  0  0  0  0  0
   -3.0000  -12.9904    0.0000 C   0  0  0  0  0  0  0  0  0  0  0  0
   -3.7500  -14.2894    0.0000 C   0  0  0  0  0  0  0  0  0  0  0  0
   -3.0000  -15.5885    0.0000 C   0  0  0  0  0  0  0  0  0  0  0  0
   -1.5000  -15.5885    0.0000 C   0  0  0  0  0  0  0  0  0  0  0  0
   -0.7500  -16.8875    0.0000 F   0  0  0  0  0  0  0  0  0  0  0  0
   -0.7500  -14.2894    0.0000 C   0  0  0  0  0  0  0  0  0  0  0  0
   -1.5000  -12.9904    0.0000 C   0  0  0  0  0  0  0  0  0  0  0  0
   -3.0000  -10.3923    0.0000 C   0  0  0  0  0  0  0  0  0  0  0  0
   -1.5000  -10.3923    0.0000 O   0  0  0  0  0  0  0  0  0  0  0  0
    0.7500   -6.4952    0.0000 C   0  0  0  0  0  0  0  0  0  0  0  0
    1.5000   -5.1962    0.0000 C   0  0  0  0  0  0  0  0  0  0  0  0
    3.0000   -5.1962    0.0000 F   0  0  0  0  0  0  0  0  0  0  0  0
   -0.7500   -1.2990    0.0000 C   0  0  0  0  0  0  0  0  0  0  0  0
   -1.5000    0.0000    0.0000 C   0  0  0  0  0  0  0  0  0  0  0  0
   -0.7500    1.2990    0.0000 N   0  0  0  0  0  0  0  0  0  0  0  0
    0.7500    1.2990    0.0000 C   0  0  0  0  0  0  0  0  0  0  0  0
    1.5000    2.5981    0.0000 N   0  0  0  0  0  0  0  0  0  0  0  0
  1  2  3  0
  2  3  1  0
  3  4  2  0
  4  5  1  0
  5  6  1  0
  6  7  2  0
  7  8  1  0
  8  9  2  0
  9 10  1  0
 10 11  1  0
 11 12  2  0
 11 13  1  0
 13 14  2  0
 14 15  1  0
 15 16  2  0
 16 17  1  0
 17 18  1  0
 18 19  2  0
 19 20  1  0
 20 21  2  0
 21 22  1  0
 21 23  1  0
 23 24  2  0
 17 25  1  0
 25 26  2  0
  9 27  1  0
 27 28  2  0
 28 29  1  0
  4 30  1  0
 30 31  2  0
 31 32  1  0
 32 33  2  0
 33 34  1  0
 33  3  1  0
 28  6  1  0
 25 13  1  0
 24 18  1  0
M  END
>  <Compound_ID>  (52) 
CHEMBL462622

>  <Active>  (52) 
1.0

>  <Smiles>  (52) 
C#Cc1c(Oc2ccc(NC(=O)c3cccn(-c4ccc(F)cc4)c3=O)cc2F)ccnc1N

>  <canonical_smi>  (52) 
C#Cc1c(Oc2ccc(NC(=O)c3cccn(-c4ccc(F)cc4)c3=O)cc2F)ccnc1N

>  <Set>  (52) 
G2 active

>  <Set_type>  (52) 
Train

>  <MW>  (52) 
458.42

>  <HBD>  (52) 
2

>  <HBA>  (52) 
5

>  <NRB>  (52) 
5

>  <NR>  (52) 
4

>  <NAR>  (52) 
4

>  <PSA>  (52) 
99.24

>  <Standard Type>  (52) 
nan

>  <Standard Relation>  (52) 
nan

>  <Standard Units>  (52) 
nan

>  <Standard Value>  (52) 
nan

>  <Assay ChEMBL ID>  (52) 
nan

>  <Assay Description>  (52) 
nan

>  <BAO Label>  (52) 
nan

$$$$

     RDKit          2D

 23 26  0  0  0  0  0  0  0  0999 V2000
    1.8478   -6.4639    0.0000 C   0  0  0  0  0  0  0  0  0  0  0  0
    2.0046   -4.9721    0.0000 C   0  0  0  0  0  0  0  0  0  0  0  0
    3.3037   -4.2221    0.0000 C   0  0  0  0  0  0  0  0  0  0  0  0
    2.9918   -2.7549    0.0000 S   0  0  0  0  0  0  0  0  0  0  0  0
    1.5000   -2.5981    0.0000 C   0  0  0  0  0  0  0  0  0  0  0  0
    0.7500   -1.2990    0.0000 C   0  0  0  0  0  0  0  0  0  0  0  0
    1.5000    0.0000    0.0000 C   0  0  0  0  0  0  0  0  0  0  0  0
    0.7500    1.2990    0.0000 C   0  0  0  0  0  0  0  0  0  0  0  0
   -0.7500    1.2990    0.0000 C   0  0  0  0  0  0  0  0  0  0  0  0
   -1.7537    2.4138    0.0000 N   0  0  0  0  0  0  0  0  0  0  0  0
   -3.1240    1.8037    0.0000 N   0  0  0  0  0  0  0  0  0  0  0  0
   -2.9672    0.3119    0.0000 C   0  0  0  0  0  0  0  0  0  0  0  0
   -4.0819   -0.6918    0.0000 C   0  0  0  0  0  0  0  0  0  0  0  0
   -5.5085   -0.2283    0.0000 C   0  0  0  0  0  0  0  0  0  0  0  0
   -5.8204    1.2389    0.0000 C   0  0  0  0  0  0  0  0  0  0  0  0
   -7.2470    1.7024    0.0000 C   0  0  0  0  0  0  0  0  0  0  0  0
   -8.3617    0.6987    0.0000 C   0  0  0  0  0  0  0  0  0  0  0  0
   -9.7883    1.1623    0.0000 O   0  0  0  0  0  0  0  0  0  0  0  0
   -8.0498   -0.7685    0.0000 C   0  0  0  0  0  0  0  0  0  0  0  0
   -6.6232   -1.2320    0.0000 C   0  0  0  0  0  0  0  0  0  0  0  0
   -1.5000    0.0000    0.0000 N   0  0  0  0  0  0  0  0  0  0  0  0
   -0.7500   -1.2990    0.0000 N   0  0  0  0  0  0  0  0  0  0  0  0
    0.8899   -3.9684    0.0000 C   0  0  0  0  0  0  0  0  0  0  0  0
  1  2  1  0
  2  3  2  0
  3  4  1  0
  4  5  1  0
  5  6  1  0
  6  7  1  0
  7  8  2  0
  8  9  1  0
  9 10  2  0
 10 11  1  0
 11 12  2  0
 12 13  1  0
 13 14  1  0
 14 15  2  0
 15 16  1  0
 16 17  2  0
 17 18  1  0
 17 19  1  0
 19 20  2  0
 12 21  1  0
 21 22  1  0
  5 23  2  0
 23  2  1  0
 22  6  2  0
 21  9  1  0
 20 14  1  0
M  END
>  <Compound_ID>  (53) 
CHEMBL497118

>  <Active>  (53) 
1.0

>  <Smiles>  (53) 
Cc1csc(-c2ccc3nnc(Cc4ccc(O)cc4)n3n2)c1

>  <canonical_smi>  (53) 
Cc1csc(-c2ccc3nnc(Cc4ccc(O)cc4)n3n2)c1

>  <Set>  (53) 
G2 active

>  <Set_type>  (53) 
Train

>  <MW>  (53) 
322.39

>  <HBD>  (53) 
1

>  <HBA>  (53) 
4

>  <NRB>  (53) 
3

>  <NR>  (53) 
4

>  <NAR>  (53) 
4

>  <PSA>  (53) 
63.31

>  <Standard Type>  (53) 
nan

>  <Standard Relation>  (53) 
nan

>  <Standard Units>  (53) 
nan

>  <Standard Value>  (53) 
nan

>  <Assay ChEMBL ID>  (53) 
nan

>  <Assay Description>  (53) 
nan

>  <BAO Label>  (53) 
nan

$$$$

     RDKit          2D

 28 31  0  0  0  0  0  0  0  0999 V2000
    3.7500   -9.0933    0.0000 C   0  0  0  0  0  0  0  0  0  0  0  0
    3.0000   -7.7942    0.0000 N   0  0  0  0  0  0  0  0  0  0  0  0
    3.7500   -6.4952    0.0000 C   0  0  0  0  0  0  0  0  0  0  0  0
    5.2500   -6.4952    0.0000 O   0  0  0  0  0  0  0  0  0  0  0  0
    3.0000   -5.1962    0.0000 C   0  0  0  0  0  0  0  0  0  0  0  0
    1.5000   -5.1962    0.0000 C   0  0  0  0  0  0  0  0  0  0  0  0
    0.7500   -3.8971    0.0000 C   0  0  0  0  0  0  0  0  0  0  0  0
    1.5000   -2.5981    0.0000 C   0  0  0  0  0  0  0  0  0  0  0  0
    0.7500   -1.2990    0.0000 C   0  0  0  0  0  0  0  0  0  0  0  0
    1.5000    0.0000    0.0000 C   0  0  0  0  0  0  0  0  0  0  0  0
    0.7500    1.2990    0.0000 C   0  0  0  0  0  0  0  0  0  0  0  0
   -0.7500    1.2990    0.0000 C   0  0  0  0  0  0  0  0  0  0  0  0
   -1.7537    2.4138    0.0000 N   0  0  0  0  0  0  0  0  0  0  0  0
   -3.1240    1.8037    0.0000 N   0  0  0  0  0  0  0  0  0  0  0  0
   -2.9672    0.3119    0.0000 C   0  0  0  0  0  0  0  0  0  0  0  0
   -4.0819   -0.6918    0.0000 C   0  0  0  0  0  0  0  0  0  0  0  0
   -5.5085   -0.2283    0.0000 C   0  0  0  0  0  0  0  0  0  0  0  0
   -5.8204    1.2389    0.0000 C   0  0  0  0  0  0  0  0  0  0  0  0
   -7.2470    1.7024    0.0000 C   0  0  0  0  0  0  0  0  0  0  0  0
   -8.3617    0.6987    0.0000 C   0  0  0  0  0  0  0  0  0  0  0  0
   -9.7883    1.1623    0.0000 O   0  0  0  0  0  0  0  0  0  0  0  0
   -8.0498   -0.7685    0.0000 C   0  0  0  0  0  0  0  0  0  0  0  0
   -6.6232   -1.2320    0.0000 C   0  0  0  0  0  0  0  0  0  0  0  0
   -1.5000    0.0000    0.0000 N   0  0  0  0  0  0  0  0  0  0  0  0
   -0.7500   -1.2990    0.0000 N   0  0  0  0  0  0  0  0  0  0  0  0
    3.0000   -2.5981    0.0000 C   0  0  0  0  0  0  0  0  0  0  0  0
    3.7500   -3.8971    0.0000 C   0  0  0  0  0  0  0  0  0  0  0  0
    5.2500   -3.8971    0.0000 Cl  0  0  0  0  0  0  0  0  0  0  0  0
  1  2  1  0
  2  3  1  0
  3  4  2  0
  3  5  1  0
  5  6  2  0
  6  7  1  0
  7  8  2  0
  8  9  1  0
  9 10  1  0
 10 11  2  0
 11 12  1  0
 12 13  2  0
 13 14  1  0
 14 15  2  0
 15 16  1  0
 16 17  1  0
 17 18  2  0
 18 19  1  0
 19 20  2  0
 20 21  1  0
 20 22  1  0
 22 23  2  0
 15 24  1  0
 24 25  1  0
  8 26  1  0
 26 27  2  0
 27 28  1  0
 27  5  1  0
 25  9  2  0
 24 12  1  0
 23 17  1  0
M  END
>  <Compound_ID>  (54) 
CHEMBL494985

>  <Active>  (54) 
1.0

>  <Smiles>  (54) 
CNC(=O)c1ccc(-c2ccc3nnc(Cc4ccc(O)cc4)n3n2)cc1Cl

>  <canonical_smi>  (54) 
CNC(=O)c1ccc(-c2ccc3nnc(Cc4ccc(O)cc4)n3n2)cc1Cl

>  <Set>  (54) 
G2 active

>  <Set_type>  (54) 
Train

>  <MW>  (54) 
393.83

>  <HBD>  (54) 
2

>  <HBA>  (54) 
5

>  <NRB>  (54) 
4

>  <NR>  (54) 
4

>  <NAR>  (54) 
4

>  <PSA>  (54) 
92.41

>  <Standard Type>  (54) 
nan

>  <Standard Relation>  (54) 
nan

>  <Standard Units>  (54) 
nan

>  <Standard Value>  (54) 
nan

>  <Assay ChEMBL ID>  (54) 
nan

>  <Assay Description>  (54) 
nan

>  <BAO Label>  (54) 
nan

$$$$

     RDKit          2D

 35 38  0  0  0  0  0  0  0  0999 V2000
    3.0000   -5.1962    0.0000 C   0  0  0  0  0  0  0  0  0  0  0  0
    1.5000   -5.1962    0.0000 O   0  0  0  0  0  0  0  0  0  0  0  0
    0.7500   -3.8971    0.0000 C   0  0  0  0  0  0  0  0  0  0  0  0
    1.5000   -2.5981    0.0000 C   0  0  0  0  0  0  0  0  0  0  0  0
    0.7500   -1.2990    0.0000 C   0  0  0  0  0  0  0  0  0  0  0  0
    1.5000    0.0000    0.0000 N   0  0  0  0  0  0  0  0  0  0  0  0
    0.7500    1.2990    0.0000 C   0  0  0  0  0  0  0  0  0  0  0  0
   -0.7500    1.2990    0.0000 C   0  0  0  0  0  0  0  0  0  0  0  0
   -1.5000    0.0000    0.0000 C   0  0  0  0  0  0  0  0  0  0  0  0
   -3.0000    0.0000    0.0000 O   0  0  0  0  0  0  0  0  0  0  0  0
   -3.7500    1.2990    0.0000 C   0  0  0  0  0  0  0  0  0  0  0  0
   -3.0000    2.5981    0.0000 C   0  0  0  0  0  0  0  0  0  0  0  0
   -3.7500    3.8971    0.0000 C   0  0  0  0  0  0  0  0  0  0  0  0
   -5.2500    3.8971    0.0000 C   0  0  0  0  0  0  0  0  0  0  0  0
   -6.0000    5.1962    0.0000 N   0  0  0  0  0  0  0  0  0  0  0  0
   -5.2500    6.4952    0.0000 C   0  0  0  0  0  0  0  0  0  0  0  0
   -3.7500    6.4952    0.0000 S   0  0  0  0  0  0  0  0  0  0  0  0
   -6.0000    7.7942    0.0000 N   0  0  0  0  0  0  0  0  0  0  0  0
   -5.2500    9.0933    0.0000 C   0  0  0  0  0  0  0  0  0  0  0  0
   -3.7500    9.0933    0.0000 O   0  0  0  0  0  0  0  0  0  0  0  0
   -6.0000   10.3923    0.0000 C   0  0  0  0  0  0  0  0  0  0  0  0
   -5.2500   11.6913    0.0000 C   0  0  0  0  0  0  0  0  0  0  0  0
   -3.7500   11.6913    0.0000 C   0  0  0  0  0  0  0  0  0  0  0  0
   -3.0000   12.9904    0.0000 C   0  0  0  0  0  0  0  0  0  0  0  0
   -3.7500   14.2894    0.0000 C   0  0  0  0  0  0  0  0  0  0  0  0
   -5.2500   14.2894    0.0000 C   0  0  0  0  0  0  0  0  0  0  0  0
   -6.0000   12.9904    0.0000 C   0  0  0  0  0  0  0  0  0  0  0  0
   -6.0000    2.5981    0.0000 C   0  0  0  0  0  0  0  0  0  0  0  0
   -5.2500    1.2990    0.0000 C   0  0  0  0  0  0  0  0  0  0  0  0
   -6.0000    0.0000    0.0000 F   0  0  0  0  0  0  0  0  0  0  0  0
   -0.7500   -1.2990    0.0000 C   0  0  0  0  0  0  0  0  0  0  0  0
   -1.5000   -2.5981    0.0000 C   0  0  0  0  0  0  0  0  0  0  0  0
   -0.7500   -3.8971    0.0000 C   0  0  0  0  0  0  0  0  0  0  0  0
   -1.5000   -5.1962    0.0000 O   0  0  0  0  0  0  0  0  0  0  0  0
   -3.0000   -5.1962    0.0000 C   0  0  0  0  0  0  0  0  0  0  0  0
  1  2  1  0
  2  3  1  0
  3  4  2  0
  4  5  1  0
  5  6  2  0
  6  7  1  0
  7  8  2  0
  8  9  1  0
  9 10  1  0
 10 11  1  0
 11 12  2  0
 12 13  1  0
 13 14  2  0
 14 15  1  0
 15 16  1  0
 16 17  2  0
 16 18  1  0
 18 19  1  0
 19 20  2  0
 19 21  1  0
 21 22  1  0
 22 23  2  0
 23 24  1  0
 24 25  2  0
 25 26  1  0
 26 27  2  0
 14 28  1  0
 28 29  2  0
 29 30  1  0
  9 31  2  0
 31 32  1  0
 32 33  2  0
 33 34  1  0
 34 35  1  0
 33  3  1  0
 31  5  1  0
 29 11  1  0
 27 22  1  0
M  END
>  <Compound_ID>  (55) 
CHEMBL404881

>  <Active>  (55) 
1.0

>  <Smiles>  (55) 
COc1cc2nccc(Oc3ccc(NC(=S)NC(=O)Cc4ccccc4)cc3F)c2cc1OC

>  <canonical_smi>  (55) 
COc1cc2nccc(Oc3ccc(NC(=S)NC(=O)Cc4ccccc4)cc3F)c2cc1OC

>  <Set>  (55) 
G2 active

>  <Set_type>  (55) 
Train

>  <MW>  (55) 
491.54

>  <HBD>  (55) 
2

>  <HBA>  (55) 
7

>  <NRB>  (55) 
7

>  <NR>  (55) 
4

>  <NAR>  (55) 
4

>  <PSA>  (55) 
81.71

>  <Standard Type>  (55) 
nan

>  <Standard Relation>  (55) 
nan

>  <Standard Units>  (55) 
nan

>  <Standard Value>  (55) 
nan

>  <Assay ChEMBL ID>  (55) 
nan

>  <Assay Description>  (55) 
nan

>  <BAO Label>  (55) 
nan

$$$$

     RDKit          2D

 33 37  0  0  0  0  0  0  0  0999 V2000
   -6.2940    7.2357    0.0000 O   0  0  0  0  0  0  0  0  0  0  0  0
   -7.7206    6.7722    0.0000 C   0  0  0  0  0  0  0  0  0  0  0  0
   -8.0325    5.3050    0.0000 N   0  0  0  0  0  0  0  0  0  0  0  0
   -6.9177    4.3013    0.0000 C   0  0  0  0  0  0  0  0  0  0  0  0
   -7.2296    2.8340    0.0000 C   0  0  0  0  0  0  0  0  0  0  0  0
   -6.1149    1.8303    0.0000 C   0  0  0  0  0  0  0  0  0  0  0  0
   -4.6883    2.2939    0.0000 C   0  0  0  0  0  0  0  0  0  0  0  0
   -3.5736    1.2902    0.0000 O   0  0  0  0  0  0  0  0  0  0  0  0
   -2.1470    1.7537    0.0000 C   0  0  0  0  0  0  0  0  0  0  0  0
   -1.8351    3.2209    0.0000 C   0  0  0  0  0  0  0  0  0  0  0  0
   -0.4086    3.6844    0.0000 C   0  0  0  0  0  0  0  0  0  0  0  0
    0.7062    2.6807    0.0000 N   0  0  0  0  0  0  0  0  0  0  0  0
    0.3943    1.2135    0.0000 C   0  0  0  0  0  0  0  0  0  0  0  0
    1.2760    0.0000    0.0000 N   0  0  0  0  0  0  0  0  0  0  0  0
    0.3943   -1.2135    0.0000 C   0  0  0  0  0  0  0  0  0  0  0  0
   -1.0323   -0.7500    0.0000 C   0  0  0  0  0  0  0  0  0  0  0  0
   -1.0323    0.7500    0.0000 C   0  0  0  0  0  0  0  0  0  0  0  0
   -4.3764    3.7611    0.0000 C   0  0  0  0  0  0  0  0  0  0  0  0
   -2.9499    4.2246    0.0000 F   0  0  0  0  0  0  0  0  0  0  0  0
   -5.4912    4.7648    0.0000 C   0  0  0  0  0  0  0  0  0  0  0  0
   -8.8353    7.7759    0.0000 C   0  0  0  0  0  0  0  0  0  0  0  0
   -8.5234    9.2431    0.0000 C   0  0  0  0  0  0  0  0  0  0  0  0
   -9.6382   10.2468    0.0000 C   0  0  0  0  0  0  0  0  0  0  0  0
  -11.0647    9.7833    0.0000 C   0  0  0  0  0  0  0  0  0  0  0  0
  -11.3766    8.3160    0.0000 C   0  0  0  0  0  0  0  0  0  0  0  0
  -12.8032    7.8525    0.0000 C   0  0  0  0  0  0  0  0  0  0  0  0
  -13.9179    8.8562    0.0000 C   0  0  0  0  0  0  0  0  0  0  0  0
  -15.3445    8.3927    0.0000 C   0  0  0  0  0  0  0  0  0  0  0  0
  -15.6564    6.9255    0.0000 C   0  0  0  0  0  0  0  0  0  0  0  0
  -14.5416    5.9218    0.0000 C   0  0  0  0  0  0  0  0  0  0  0  0
  -13.1151    6.3853    0.0000 C   0  0  0  0  0  0  0  0  0  0  0  0
  -10.2619    7.3123    0.0000 N   0  0  0  0  0  4  0  0  0  0  0  0
  -10.5738    5.8451    0.0000 O   0  0  0  0  0  1  0  0  0  0  0  0
  1  2  2  0
  2  3  1  0
  3  4  1  0
  4  5  2  0
  5  6  1  0
  6  7  2  0
  7  8  1  0
  8  9  1  0
  9 10  2  0
 10 11  1  0
 11 12  2  0
 12 13  1  0
 13 14  1  0
 14 15  1  0
 15 16  2  0
 16 17  1  0
  7 18  1  0
 18 19  1  0
 18 20  2  0
  2 21  1  0
 21 22  2  0
 22 23  1  0
 23 24  2  0
 24 25  1  0
 25 26  1  0
 26 27  2  0
 27 28  1  0
 28 29  2  0
 29 30  1  0
 30 31  2  0
 25 32  2  0
 32 33  1  0
 20  4  1  0
 32 21  1  0
 17  9  1  0
 31 26  1  0
 17 13  2  0
M  CHG  2  32   1  33  -1
M  END
>  <Compound_ID>  (56) 
CHEMBL459875

>  <Active>  (56) 
1.0

>  <Smiles>  (56) 
O=C(Nc1ccc(Oc2ccnc3[nH]ccc23)c(F)c1)c1cccc(-c2ccccc2)[n+]1[O-]

>  <canonical_smi>  (56) 
O=C(Nc1ccc(Oc2ccnc3[nH]ccc23)c(F)c1)c1cccc(-c2ccccc2)[n+]1[O-]

>  <Set>  (56) 
G2 active

>  <Set_type>  (56) 
Train

>  <MW>  (56) 
440.43

>  <HBD>  (56) 
2

>  <HBA>  (56) 
4

>  <NRB>  (56) 
5

>  <NR>  (56) 
5

>  <NAR>  (56) 
5

>  <PSA>  (56) 
93.95

>  <Standard Type>  (56) 
nan

>  <Standard Relation>  (56) 
nan

>  <Standard Units>  (56) 
nan

>  <Standard Value>  (56) 
nan

>  <Assay ChEMBL ID>  (56) 
nan

>  <Assay Description>  (56) 
nan

>  <BAO Label>  (56) 
nan

$$$$

     RDKit          2D

 39 43  0  0  0  0  0  0  0  0999 V2000
   -3.8876   -9.0580    0.0000 N   0  0  0  0  0  0  0  0  0  0  0  0
   -3.5757   -7.5908    0.0000 C   0  0  0  0  0  0  0  0  0  0  0  0
   -4.6904   -6.5871    0.0000 C   0  0  0  0  0  0  0  0  0  0  0  0
   -4.3786   -5.1199    0.0000 C   0  0  0  0  0  0  0  0  0  0  0  0
   -2.9520   -4.6564    0.0000 C   0  0  0  0  0  0  0  0  0  0  0  0
   -2.6401   -3.1891    0.0000 C   0  0  0  0  0  0  0  0  0  0  0  0
   -1.2135   -2.7256    0.0000 C   0  0  0  0  0  0  0  0  0  0  0  0
   -0.0000   -3.6073    0.0000 C   0  0  0  0  0  0  0  0  0  0  0  0
    1.2135   -2.7256    0.0000 C   0  0  0  0  0  0  0  0  0  0  0  0
    0.7500   -1.2990    0.0000 N   0  0  0  0  0  0  0  0  0  0  0  0
    1.5000    0.0000    0.0000 N   0  0  0  0  0  0  0  0  0  0  0  0
    0.7500    1.2990    0.0000 C   0  0  0  0  0  0  0  0  0  0  0  0
   -0.7500    1.2990    0.0000 N   0  0  0  0  0  0  0  0  0  0  0  0
   -1.5000    0.0000    0.0000 C   0  0  0  0  0  0  0  0  0  0  0  0
   -3.0000    0.0000    0.0000 O   0  0  0  0  0  0  0  0  0  0  0  0
   -3.7500    1.2990    0.0000 C   0  0  0  0  0  0  0  0  0  0  0  0
   -3.0000    2.5981    0.0000 C   0  0  0  0  0  0  0  0  0  0  0  0
   -3.7500    3.8971    0.0000 C   0  0  0  0  0  0  0  0  0  0  0  0
   -5.2500    3.8971    0.0000 C   0  0  0  0  0  0  0  0  0  0  0  0
   -6.0000    5.1962    0.0000 N   0  0  0  0  0  0  0  0  0  0  0  0
   -5.2500    6.4952    0.0000 C   0  0  0  0  0  0  0  0  0  0  0  0
   -3.7500    6.4952    0.0000 O   0  0  0  0  0  0  0  0  0  0  0  0
   -6.0000    7.7942    0.0000 N   0  0  0  0  0  0  0  0  0  0  0  0
   -5.2500    9.0933    0.0000 C   0  0  0  0  0  0  0  0  0  0  0  0
   -3.7500    9.0933    0.0000 O   0  0  0  0  0  0  0  0  0  0  0  0
   -6.0000   10.3923    0.0000 C   0  0  0  0  0  0  0  0  0  0  0  0
   -5.2500   11.6913    0.0000 C   0  0  0  0  0  0  0  0  0  0  0  0
   -3.7500   11.6913    0.0000 C   0  0  0  0  0  0  0  0  0  0  0  0
   -3.0000   12.9904    0.0000 C   0  0  0  0  0  0  0  0  0  0  0  0
   -3.7500   14.2894    0.0000 C   0  0  0  0  0  0  0  0  0  0  0  0
   -3.0000   15.5885    0.0000 F   0  0  0  0  0  0  0  0  0  0  0  0
   -5.2500   14.2894    0.0000 C   0  0  0  0  0  0  0  0  0  0  0  0
   -6.0000   12.9904    0.0000 C   0  0  0  0  0  0  0  0  0  0  0  0
   -6.0000    2.5981    0.0000 C   0  0  0  0  0  0  0  0  0  0  0  0
   -5.2500    1.2990    0.0000 C   0  0  0  0  0  0  0  0  0  0  0  0
   -6.0000    0.0000    0.0000 F   0  0  0  0  0  0  0  0  0  0  0  0
   -0.7500   -1.2990    0.0000 C   0  0  0  0  0  0  0  0  0  0  0  0
   -1.8373   -5.6601    0.0000 C   0  0  0  0  0  0  0  0  0  0  0  0
   -2.1491   -7.1273    0.0000 C   0  0  0  0  0  0  0  0  0  0  0  0
  1  2  1  0
  2  3  1  0
  3  4  1  0
  4  5  1  0
  5  6  2  0
  6  7  1  0
  7  8  1  0
  8  9  2  0
  9 10  1  0
 10 11  1  0
 11 12  2  0
 12 13  1  0
 13 14  2  0
 14 15  1  0
 15 16  1  0
 16 17  2  0
 17 18  1  0
 18 19  2  0
 19 20  1  0
 20 21  1  0
 21 22  2  0
 21 23  1  0
 23 24  1  0
 24 25  2  0
 24 26  1  0
 26 27  1  0
 27 28  2  0
 28 29  1  0
 29 30  2  0
 30 31  1  0
 30 32  1  0
 32 33  2  0
 19 34  1  0
 34 35  2  0
 35 36  1  0
 14 37  1  0
  5 38  1  0
 38 39  1  0
 39  2  1  0
 37  7  2  0
 37 10  1  0
 35 16  1  0
 33 27  1  0
M  END
>  <Compound_ID>  (57) 
CHEMBL254086

>  <Active>  (57) 
1.0

>  <Smiles>  (57) 
NC1CCC(=Cc2ccn3ncnc(Oc4ccc(NC(=O)NC(=O)Cc5ccc(F)cc5)cc4F)c23)CC1

>  <canonical_smi>  (57) 
NC1CCC(=Cc2ccn3ncnc(Oc4ccc(NC(=O)NC(=O)Cc5ccc(F)cc5)cc4F)c23)CC1

>  <Set>  (57) 
G2 active

>  <Set_type>  (57) 
Train

>  <MW>  (57) 
532.55

>  <HBD>  (57) 
3

>  <HBA>  (57) 
6

>  <NRB>  (57) 
6

>  <NR>  (57) 
5

>  <NAR>  (57) 
4

>  <PSA>  (57) 
123.64

>  <Standard Type>  (57) 
nan

>  <Standard Relation>  (57) 
nan

>  <Standard Units>  (57) 
nan

>  <Standard Value>  (57) 
nan

>  <Assay ChEMBL ID>  (57) 
nan

>  <Assay Description>  (57) 
nan

>  <BAO Label>  (57) 
nan

$$$$

     RDKit          2D

 36 40  0  0  0  0  0  0  0  0999 V2000
   -2.6401   -5.5255    0.0000 C   0  0  0  0  0  0  0  0  0  0  0  0
   -1.2135   -5.9890    0.0000 N   0  0  0  0  0  0  0  0  0  0  0  0
   -0.7500   -7.4156    0.0000 C   0  0  0  0  0  0  0  0  0  0  0  0
    0.7500   -7.4156    0.0000 C   0  0  0  0  0  0  0  0  0  0  0  0
    1.2135   -5.9890    0.0000 N   0  0  0  0  0  0  0  0  0  0  0  0
   -0.0000   -5.1073    0.0000 C   0  0  0  0  0  0  0  0  0  0  0  0
   -0.0000   -3.6073    0.0000 C   0  0  0  0  0  0  0  0  0  0  0  0
    1.2135   -2.7256    0.0000 C   0  0  0  0  0  0  0  0  0  0  0  0
    0.7500   -1.2990    0.0000 C   0  0  0  0  0  0  0  0  0  0  0  0
    1.5000    0.0000    0.0000 N   0  0  0  0  0  0  0  0  0  0  0  0
    0.7500    1.2990    0.0000 C   0  0  0  0  0  0  0  0  0  0  0  0
   -0.7500    1.2990    0.0000 C   0  0  0  0  0  0  0  0  0  0  0  0
   -1.5000    0.0000    0.0000 C   0  0  0  0  0  0  0  0  0  0  0  0
   -3.0000    0.0000    0.0000 O   0  0  0  0  0  0  0  0  0  0  0  0
   -3.7500    1.2990    0.0000 C   0  0  0  0  0  0  0  0  0  0  0  0
   -3.0000    2.5981    0.0000 C   0  0  0  0  0  0  0  0  0  0  0  0
   -3.7500    3.8971    0.0000 C   0  0  0  0  0  0  0  0  0  0  0  0
   -5.2500    3.8971    0.0000 C   0  0  0  0  0  0  0  0  0  0  0  0
   -6.0000    5.1962    0.0000 N   0  0  0  0  0  0  0  0  0  0  0  0
   -5.2500    6.4952    0.0000 C   0  0  0  0  0  0  0  0  0  0  0  0
   -3.7500    6.4952    0.0000 S   0  0  0  0  0  0  0  0  0  0  0  0
   -6.0000    7.7942    0.0000 N   0  0  0  0  0  0  0  0  0  0  0  0
   -5.2500    9.0933    0.0000 C   0  0  0  0  0  0  0  0  0  0  0  0
   -3.7500    9.0933    0.0000 O   0  0  0  0  0  0  0  0  0  0  0  0
   -6.0000   10.3923    0.0000 C   0  0  0  0  0  0  0  0  0  0  0  0
   -5.2500   11.6913    0.0000 C   0  0  0  0  0  0  0  0  0  0  0  0
   -3.7500   11.6913    0.0000 C   0  0  0  0  0  0  0  0  0  0  0  0
   -3.0000   12.9904    0.0000 C   0  0  0  0  0  0  0  0  0  0  0  0
   -3.7500   14.2894    0.0000 C   0  0  0  0  0  0  0  0  0  0  0  0
   -5.2500   14.2894    0.0000 C   0  0  0  0  0  0  0  0  0  0  0  0
   -6.0000   12.9904    0.0000 C   0  0  0  0  0  0  0  0  0  0  0  0
   -6.0000    2.5981    0.0000 C   0  0  0  0  0  0  0  0  0  0  0  0
   -5.2500    1.2990    0.0000 C   0  0  0  0  0  0  0  0  0  0  0  0
   -6.0000    0.0000    0.0000 F   0  0  0  0  0  0  0  0  0  0  0  0
   -0.7500   -1.2990    0.0000 C   0  0  0  0  0  0  0  0  0  0  0  0
   -1.2135   -2.7256    0.0000 S   0  0  0  0  0  0  0  0  0  0  0  0
  1  2  1  0
  2  3  1  0
  3  4  2  0
  4  5  1  0
  5  6  2  0
  6  7  1  0
  7  8  2  0
  8  9  1  0
  9 10  2  0
 10 11  1  0
 11 12  2  0
 12 13  1  0
 13 14  1  0
 14 15  1  0
 15 16  2  0
 16 17  1  0
 17 18  2  0
 18 19  1  0
 19 20  1  0
 20 21  2  0
 20 22  1  0
 22 23  1  0
 23 24  2  0
 23 25  1  0
 25 26  1  0
 26 27  2  0
 27 28  1  0
 28 29  2  0
 29 30  1  0
 30 31  2  0
 18 32  1  0
 32 33  2  0
 33 34  1  0
 13 35  2  0
 35 36  1  0
  6  2  1  0
 36  7  1  0
 35  9  1  0
 33 15  1  0
 31 26  1  0
M  END
>  <Compound_ID>  (58) 
CHEMBL258240

>  <Active>  (58) 
1.0

>  <Smiles>  (58) 
Cn1ccnc1-c1cc2nccc(Oc3ccc(NC(=S)NC(=O)Cc4ccccc4)cc3F)c2s1

>  <canonical_smi>  (58) 
Cn1ccnc1-c1cc2nccc(Oc3ccc(NC(=S)NC(=O)Cc4ccccc4)cc3F)c2s1

>  <Set>  (58) 
G2 active

>  <Set_type>  (58) 
Train

>  <MW>  (58) 
517.61

>  <HBD>  (58) 
2

>  <HBA>  (58) 
6

>  <NRB>  (58) 
6

>  <NR>  (58) 
5

>  <NAR>  (58) 
5

>  <PSA>  (58) 
81.07

>  <Standard Type>  (58) 
nan

>  <Standard Relation>  (58) 
nan

>  <Standard Units>  (58) 
nan

>  <Standard Value>  (58) 
nan

>  <Assay ChEMBL ID>  (58) 
nan

>  <Assay Description>  (58) 
nan

>  <BAO Label>  (58) 
nan

$$$$

     RDKit          2D

 37 41  0  0  0  0  0  0  0  0999 V2000
    9.7500   -6.4952    0.0000 O   0  0  0  0  0  0  0  0  0  0  0  0
   10.5000   -5.1962    0.0000 C   0  0  0  0  0  0  0  0  0  0  0  0
   12.0000   -5.1962    0.0000 C   0  0  0  0  0  0  0  0  0  0  0  0
   12.7500   -6.4952    0.0000 C   0  0  0  0  0  0  0  0  0  0  0  0
   12.0000   -7.7942    0.0000 C   0  0  0  0  0  0  0  0  0  0  0  0
   12.7500   -9.0933    0.0000 C   0  0  0  0  0  0  0  0  0  0  0  0
   14.2500   -9.0933    0.0000 C   0  0  0  0  0  0  0  0  0  0  0  0
   15.0000  -10.3923    0.0000 F   0  0  0  0  0  0  0  0  0  0  0  0
   15.0000   -7.7942    0.0000 C   0  0  0  0  0  0  0  0  0  0  0  0
   14.2500   -6.4952    0.0000 C   0  0  0  0  0  0  0  0  0  0  0  0
    9.7500   -3.8971    0.0000 N   0  0  0  0  0  0  0  0  0  0  0  0
    8.2500   -3.8971    0.0000 C   0  0  0  0  0  0  0  0  0  0  0  0
    7.5000   -5.1962    0.0000 O   0  0  0  0  0  0  0  0  0  0  0  0
    7.5000   -2.5981    0.0000 N   0  0  0  0  0  0  0  0  0  0  0  0
    6.0000   -2.5981    0.0000 C   0  0  0  0  0  0  0  0  0  0  0  0
    5.2500   -1.2990    0.0000 C   0  0  0  0  0  0  0  0  0  0  0  0
    3.7500   -1.2990    0.0000 C   0  0  0  0  0  0  0  0  0  0  0  0
    3.0000   -2.5981    0.0000 C   0  0  0  0  0  0  0  0  0  0  0  0
    1.5000   -2.5981    0.0000 O   0  0  0  0  0  0  0  0  0  0  0  0
    0.7500   -1.2990    0.0000 C   0  0  0  0  0  0  0  0  0  0  0  0
    1.5000    0.0000    0.0000 C   0  0  0  0  0  0  0  0  0  0  0  0
    0.7500    1.2990    0.0000 C   0  0  0  0  0  0  0  0  0  0  0  0
   -0.7500    1.2990    0.0000 N   0  0  0  0  0  0  0  0  0  0  0  0
   -1.5000    0.0000    0.0000 C   0  0  0  0  0  0  0  0  0  0  0  0
   -2.9672   -0.3119    0.0000 N   0  0  0  0  0  0  0  0  0  0  0  0
   -3.1240   -1.8037    0.0000 C   0  0  0  0  0  0  0  0  0  0  0  0
   -4.4231   -2.5537    0.0000 C   0  0  0  0  0  0  0  0  0  0  0  0
   -5.7221   -1.8037    0.0000 C   0  0  0  0  0  0  0  0  0  0  0  0
   -7.0211   -2.5537    0.0000 C   0  0  0  0  0  0  0  0  0  0  0  0
   -7.0211   -4.0537    0.0000 C   0  0  0  0  0  0  0  0  0  0  0  0
   -5.7221   -4.8037    0.0000 N   0  0  0  0  0  0  0  0  0  0  0  0
   -4.4231   -4.0537    0.0000 C   0  0  0  0  0  0  0  0  0  0  0  0
   -1.7537   -2.4138    0.0000 C   0  0  0  0  0  0  0  0  0  0  0  0
   -0.7500   -1.2990    0.0000 C   0  0  0  0  0  0  0  0  0  0  0  0
    3.7500   -3.8971    0.0000 C   0  0  0  0  0  0  0  0  0  0  0  0
    3.0000   -5.1962    0.0000 F   0  0  0  0  0  0  0  0  0  0  0  0
    5.2500   -3.8971    0.0000 C   0  0  0  0  0  0  0  0  0  0  0  0
  1  2  2  0
  2  3  1  0
  3  4  1  0
  4  5  2  0
  5  6  1  0
  6  7  2  0
  7  8  1  0
  7  9  1  0
  9 10  2  0
  2 11  1  0
 11 12  1  0
 12 13  2  0
 12 14  1  0
 14 15  1  0
 15 16  2  0
 16 17  1  0
 17 18  2  0
 18 19  1  0
 19 20  1  0
 20 21  2  0
 21 22  1  0
 22 23  2  0
 23 24  1  0
 24 25  1  0
 25 26  1  0
 26 27  1  0
 27 28  2  0
 28 29  1  0
 29 30  2  0
 30 31  1  0
 31 32  2  0
 26 33  2  0
 33 34  1  0
 18 35  1  0
 35 36  1  0
 35 37  2  0
 10  4  1  0
 37 15  1  0
 34 20  1  0
 34 24  2  0
 32 27  1  0
M  END
>  <Compound_ID>  (59) 
CHEMBL525260

>  <Active>  (59) 
1.0

>  <Smiles>  (59) 
O=C(Cc1ccc(F)cc1)NC(=O)Nc1ccc(Oc2ccnc3[nH]c(-c4cccnc4)cc23)c(F)c1

>  <canonical_smi>  (59) 
O=C(Cc1ccc(F)cc1)NC(=O)Nc1ccc(Oc2ccnc3[nH]c(-c4cccnc4)cc23)c(F)c1

>  <Set>  (59) 
G2 active

>  <Set_type>  (59) 
Train

>  <MW>  (59) 
499.48

>  <HBD>  (59) 
3

>  <HBA>  (59) 
5

>  <NRB>  (59) 
6

>  <NR>  (59) 
5

>  <NAR>  (59) 
5

>  <PSA>  (59) 
109.0

>  <Standard Type>  (59) 
nan

>  <Standard Relation>  (59) 
nan

>  <Standard Units>  (59) 
nan

>  <Standard Value>  (59) 
nan

>  <Assay ChEMBL ID>  (59) 
nan

>  <Assay Description>  (59) 
nan

>  <BAO Label>  (59) 
nan

$$$$

     RDKit          2D

 37 41  0  0  0  0  0  0  0  0999 V2000
    9.7500   -6.4952    0.0000 O   0  0  0  0  0  0  0  0  0  0  0  0
   10.5000   -5.1962    0.0000 C   0  0  0  0  0  0  0  0  0  0  0  0
   12.0000   -5.1962    0.0000 C   0  0  0  0  0  0  0  0  0  0  0  0
   12.7500   -6.4952    0.0000 C   0  0  0  0  0  0  0  0  0  0  0  0
   12.0000   -7.7942    0.0000 C   0  0  0  0  0  0  0  0  0  0  0  0
   12.7500   -9.0933    0.0000 C   0  0  0  0  0  0  0  0  0  0  0  0
   14.2500   -9.0933    0.0000 C   0  0  0  0  0  0  0  0  0  0  0  0
   15.0000  -10.3923    0.0000 F   0  0  0  0  0  0  0  0  0  0  0  0
   15.0000   -7.7942    0.0000 C   0  0  0  0  0  0  0  0  0  0  0  0
   14.2500   -6.4952    0.0000 C   0  0  0  0  0  0  0  0  0  0  0  0
    9.7500   -3.8971    0.0000 N   0  0  0  0  0  0  0  0  0  0  0  0
    8.2500   -3.8971    0.0000 C   0  0  0  0  0  0  0  0  0  0  0  0
    7.5000   -5.1962    0.0000 O   0  0  0  0  0  0  0  0  0  0  0  0
    7.5000   -2.5981    0.0000 N   0  0  0  0  0  0  0  0  0  0  0  0
    6.0000   -2.5981    0.0000 C   0  0  0  0  0  0  0  0  0  0  0  0
    5.2500   -1.2990    0.0000 C   0  0  0  0  0  0  0  0  0  0  0  0
    3.7500   -1.2990    0.0000 C   0  0  0  0  0  0  0  0  0  0  0  0
    3.0000   -2.5981    0.0000 C   0  0  0  0  0  0  0  0  0  0  0  0
    1.5000   -2.5981    0.0000 O   0  0  0  0  0  0  0  0  0  0  0  0
    0.7500   -1.2990    0.0000 C   0  0  0  0  0  0  0  0  0  0  0  0
    1.5000    0.0000    0.0000 C   0  0  0  0  0  0  0  0  0  0  0  0
    0.7500    1.2990    0.0000 C   0  0  0  0  0  0  0  0  0  0  0  0
   -0.7500    1.2990    0.0000 N   0  0  0  0  0  0  0  0  0  0  0  0
   -1.5000    0.0000    0.0000 C   0  0  0  0  0  0  0  0  0  0  0  0
   -2.9672   -0.3119    0.0000 N   0  0  0  0  0  0  0  0  0  0  0  0
   -3.1240   -1.8037    0.0000 C   0  0  0  0  0  0  0  0  0  0  0  0
   -1.7537   -2.4138    0.0000 C   0  0  0  0  0  0  0  0  0  0  0  0
   -1.4418   -3.8810    0.0000 C   0  0  0  0  0  0  0  0  0  0  0  0
   -2.5565   -4.8847    0.0000 C   0  0  0  0  0  0  0  0  0  0  0  0
   -2.2447   -6.3519    0.0000 C   0  0  0  0  0  0  0  0  0  0  0  0
   -0.8181   -6.8154    0.0000 C   0  0  0  0  0  0  0  0  0  0  0  0
    0.2966   -5.8117    0.0000 N   0  0  0  0  0  0  0  0  0  0  0  0
   -0.0152   -4.3445    0.0000 C   0  0  0  0  0  0  0  0  0  0  0  0
   -0.7500   -1.2990    0.0000 C   0  0  0  0  0  0  0  0  0  0  0  0
    3.7500   -3.8971    0.0000 C   0  0  0  0  0  0  0  0  0  0  0  0
    3.0000   -5.1962    0.0000 F   0  0  0  0  0  0  0  0  0  0  0  0
    5.2500   -3.8971    0.0000 C   0  0  0  0  0  0  0  0  0  0  0  0
  1  2  2  0
  2  3  1  0
  3  4  1  0
  4  5  2  0
  5  6  1  0
  6  7  2  0
  7  8  1  0
  7  9  1  0
  9 10  2  0
  2 11  1  0
 11 12  1  0
 12 13  2  0
 12 14  1  0
 14 15  1  0
 15 16  2  0
 16 17  1  0
 17 18  2  0
 18 19  1  0
 19 20  1  0
 20 21  2  0
 21 22  1  0
 22 23  2  0
 23 24  1  0
 24 25  1  0
 25 26  1  0
 26 27  2  0
 27 28  1  0
 28 29  2  0
 29 30  1  0
 30 31  2  0
 31 32  1  0
 32 33  2  0
 27 34  1  0
 18 35  1  0
 35 36  1  0
 35 37  2  0
 10  4  1  0
 37 15  1  0
 34 20  1  0
 34 24  2  0
 33 28  1  0
M  END
>  <Compound_ID>  (60) 
CHEMBL524364

>  <Active>  (60) 
1.0

>  <Smiles>  (60) 
O=C(Cc1ccc(F)cc1)NC(=O)Nc1ccc(Oc2ccnc3[nH]cc(-c4cccnc4)c23)c(F)c1

>  <canonical_smi>  (60) 
O=C(Cc1ccc(F)cc1)NC(=O)Nc1ccc(Oc2ccnc3[nH]cc(-c4cccnc4)c23)c(F)c1

>  <Set>  (60) 
G2 active

>  <Set_type>  (60) 
Train

>  <MW>  (60) 
499.48

>  <HBD>  (60) 
3

>  <HBA>  (60) 
5

>  <NRB>  (60) 
6

>  <NR>  (60) 
5

>  <NAR>  (60) 
5

>  <PSA>  (60) 
109.0

>  <Standard Type>  (60) 
nan

>  <Standard Relation>  (60) 
nan

>  <Standard Units>  (60) 
nan

>  <Standard Value>  (60) 
nan

>  <Assay ChEMBL ID>  (60) 
nan

>  <Assay Description>  (60) 
nan

>  <BAO Label>  (60) 
nan

$$$$

     RDKit          2D

 23 26  0  0  0  0  0  0  0  0999 V2000
    4.6740   -4.8322    0.0000 C   0  0  0  0  0  0  0  0  0  0  0  0
    3.3037   -4.2221    0.0000 C   0  0  0  0  0  0  0  0  0  0  0  0
    2.9918   -2.7549    0.0000 C   0  0  0  0  0  0  0  0  0  0  0  0
    1.5000   -2.5981    0.0000 C   0  0  0  0  0  0  0  0  0  0  0  0
    0.7500   -1.2990    0.0000 C   0  0  0  0  0  0  0  0  0  0  0  0
    1.5000    0.0000    0.0000 C   0  0  0  0  0  0  0  0  0  0  0  0
    0.7500    1.2990    0.0000 C   0  0  0  0  0  0  0  0  0  0  0  0
   -0.7500    1.2990    0.0000 C   0  0  0  0  0  0  0  0  0  0  0  0
   -1.7537    2.4138    0.0000 N   0  0  0  0  0  0  0  0  0  0  0  0
   -3.1240    1.8037    0.0000 N   0  0  0  0  0  0  0  0  0  0  0  0
   -2.9672    0.3119    0.0000 C   0  0  0  0  0  0  0  0  0  0  0  0
   -4.0819   -0.6918    0.0000 C   0  0  0  0  0  0  0  0  0  0  0  0
   -5.5085   -0.2283    0.0000 C   0  0  0  0  0  0  0  0  0  0  0  0
   -5.8204    1.2389    0.0000 C   0  0  0  0  0  0  0  0  0  0  0  0
   -7.2470    1.7024    0.0000 C   0  0  0  0  0  0  0  0  0  0  0  0
   -8.3617    0.6987    0.0000 C   0  0  0  0  0  0  0  0  0  0  0  0
   -9.7883    1.1623    0.0000 O   0  0  0  0  0  0  0  0  0  0  0  0
   -8.0498   -0.7685    0.0000 C   0  0  0  0  0  0  0  0  0  0  0  0
   -6.6232   -1.2320    0.0000 C   0  0  0  0  0  0  0  0  0  0  0  0
   -1.5000    0.0000    0.0000 N   0  0  0  0  0  0  0  0  0  0  0  0
   -0.7500   -1.2990    0.0000 N   0  0  0  0  0  0  0  0  0  0  0  0
    0.8899   -3.9684    0.0000 S   0  0  0  0  0  0  0  0  0  0  0  0
    2.0046   -4.9721    0.0000 N   0  0  0  0  0  0  0  0  0  0  0  0
  1  2  1  0
  2  3  1  0
  3  4  2  0
  4  5  1  0
  5  6  1  0
  6  7  2  0
  7  8  1  0
  8  9  2  0
  9 10  1  0
 10 11  2  0
 11 12  1  0
 12 13  1  0
 13 14  2  0
 14 15  1  0
 15 16  2  0
 16 17  1  0
 16 18  1  0
 18 19  2  0
 11 20  1  0
 20 21  1  0
  4 22  1  0
 22 23  1  0
 23  2  2  0
 21  5  2  0
 20  8  1  0
 19 13  1  0
M  END
>  <Compound_ID>  (61) 
CHEMBL523413

>  <Active>  (61) 
1.0

>  <Smiles>  (61) 
Cc1cc(-c2ccc3nnc(Cc4ccc(O)cc4)n3n2)sn1

>  <canonical_smi>  (61) 
Cc1cc(-c2ccc3nnc(Cc4ccc(O)cc4)n3n2)sn1

>  <Set>  (61) 
G2 active

>  <Set_type>  (61) 
Train

>  <MW>  (61) 
323.38

>  <HBD>  (61) 
1

>  <HBA>  (61) 
5

>  <NRB>  (61) 
3

>  <NR>  (61) 
4

>  <NAR>  (61) 
4

>  <PSA>  (61) 
76.2

>  <Standard Type>  (61) 
nan

>  <Standard Relation>  (61) 
nan

>  <Standard Units>  (61) 
nan

>  <Standard Value>  (61) 
nan

>  <Assay ChEMBL ID>  (61) 
nan

>  <Assay Description>  (61) 
nan

>  <BAO Label>  (61) 
nan

$$$$

     RDKit          2D

 42 47  0  0  0  0  0  0  0  0999 V2000
   -6.2940    7.2357    0.0000 O   0  0  0  0  0  0  0  0  0  0  0  0
   -7.7206    6.7722    0.0000 C   0  0  0  0  0  0  0  0  0  0  0  0
   -8.0325    5.3050    0.0000 N   0  0  0  0  0  0  0  0  0  0  0  0
   -6.9177    4.3013    0.0000 C   0  0  0  0  0  0  0  0  0  0  0  0
   -7.2296    2.8340    0.0000 C   0  0  0  0  0  0  0  0  0  0  0  0
   -6.1149    1.8303    0.0000 C   0  0  0  0  0  0  0  0  0  0  0  0
   -4.6883    2.2939    0.0000 C   0  0  0  0  0  0  0  0  0  0  0  0
   -3.5736    1.2902    0.0000 O   0  0  0  0  0  0  0  0  0  0  0  0
   -2.1470    1.7537    0.0000 C   0  0  0  0  0  0  0  0  0  0  0  0
   -1.8351    3.2209    0.0000 C   0  0  0  0  0  0  0  0  0  0  0  0
   -0.4086    3.6844    0.0000 C   0  0  0  0  0  0  0  0  0  0  0  0
    0.7062    2.6807    0.0000 N   0  0  0  0  0  0  0  0  0  0  0  0
    0.3943    1.2135    0.0000 C   0  0  0  0  0  0  0  0  0  0  0  0
    1.2760    0.0000    0.0000 N   0  0  0  0  0  0  0  0  0  0  0  0
    0.3943   -1.2135    0.0000 C   0  0  0  0  0  0  0  0  0  0  0  0
   -1.0323   -0.7500    0.0000 C   0  0  0  0  0  0  0  0  0  0  0  0
   -1.0323    0.7500    0.0000 C   0  0  0  0  0  0  0  0  0  0  0  0
   -4.3764    3.7611    0.0000 C   0  0  0  0  0  0  0  0  0  0  0  0
   -2.9499    4.2246    0.0000 F   0  0  0  0  0  0  0  0  0  0  0  0
   -5.4912    4.7648    0.0000 C   0  0  0  0  0  0  0  0  0  0  0  0
   -8.8353    7.7759    0.0000 C   0  0  0  0  0  0  0  0  0  0  0  0
   -8.5234    9.2431    0.0000 C   0  0  0  0  0  0  0  0  0  0  0  0
   -9.6382   10.2468    0.0000 N   0  0  0  0  0  0  0  0  0  0  0  0
   -9.3263   11.7140    0.0000 C   0  0  0  0  0  0  0  0  0  0  0  0
   -7.8997   12.1775    0.0000 C   0  0  0  0  0  0  0  0  0  0  0  0
   -7.5878   13.6448    0.0000 C   0  0  0  0  0  0  0  0  0  0  0  0
   -8.7026   14.6485    0.0000 C   0  0  0  0  0  0  0  0  0  0  0  0
   -8.3907   16.1157    0.0000 Cl  0  0  0  0  0  0  0  0  0  0  0  0
  -10.1291   14.1849    0.0000 C   0  0  0  0  0  0  0  0  0  0  0  0
  -11.2439   15.1886    0.0000 F   0  0  0  0  0  0  0  0  0  0  0  0
  -10.4410   12.7177    0.0000 C   0  0  0  0  0  0  0  0  0  0  0  0
  -11.0647    9.7833    0.0000 C   0  0  0  0  0  0  0  0  0  0  0  0
  -11.3766    8.3160    0.0000 C   0  0  0  0  0  0  0  0  0  0  0  0
  -12.8032    7.8525    0.0000 C   0  0  0  0  0  0  0  0  0  0  0  0
  -13.9179    8.8562    0.0000 C   0  0  0  0  0  0  0  0  0  0  0  0
  -15.3445    8.3927    0.0000 C   0  0  0  0  0  0  0  0  0  0  0  0
  -15.6564    6.9255    0.0000 C   0  0  0  0  0  0  0  0  0  0  0  0
  -17.0829    6.4619    0.0000 F   0  0  0  0  0  0  0  0  0  0  0  0
  -14.5416    5.9218    0.0000 C   0  0  0  0  0  0  0  0  0  0  0  0
  -13.1151    6.3853    0.0000 C   0  0  0  0  0  0  0  0  0  0  0  0
  -10.2619    7.3123    0.0000 C   0  0  0  0  0  0  0  0  0  0  0  0
  -10.5738    5.8451    0.0000 O   0  0  0  0  0  0  0  0  0  0  0  0
  1  2  2  0
  2  3  1  0
  3  4  1  0
  4  5  2  0
  5  6  1  0
  6  7  2  0
  7  8  1  0
  8  9  1  0
  9 10  2  0
 10 11  1  0
 11 12  2  0
 12 13  1  0
 13 14  1  0
 14 15  1  0
 15 16  2  0
 16 17  1  0
  7 18  1  0
 18 19  1  0
 18 20  2  0
  2 21  1  0
 21 22  2  0
 22 23  1  0
 23 24  1  0
 24 25  2  0
 25 26  1  0
 26 27  2  0
 27 28  1  0
 27 29  1  0
 29 30  1  0
 29 31  2  0
 23 32  1  0
 32 33  2  0
 33 34  1  0
 34 35  2  0
 35 36  1  0
 36 37  2  0
 37 38  1  0
 37 39  1  0
 39 40  2  0
 33 41  1  0
 41 42  2  0
 20  4  1  0
 41 21  1  0
 17  9  1  0
 31 24  1  0
 40 34  1  0
 17 13  2  0
M  END
>  <Compound_ID>  (62) 
CHEMBL503901

>  <Active>  (62) 
1.0

>  <Smiles>  (62) 
O=C(Nc1ccc(Oc2ccnc3[nH]ccc23)c(F)c1)c1cn(-c2ccc(Cl)c(F)c2)cc(-c2ccc(F)cc2)c1=O

>  <canonical_smi>  (62) 
O=C(Nc1ccc(Oc2ccnc3[nH]ccc23)c(F)c1)c1cn(-c2ccc(Cl)c(F)c2)cc(-c2ccc(F)cc2)c1=O

>  <Set>  (62) 
G2 active

>  <Set_type>  (62) 
Train

>  <MW>  (62) 
586.96

>  <HBD>  (62) 
2

>  <HBA>  (62) 
4

>  <NRB>  (62) 
6

>  <NR>  (62) 
6

>  <NAR>  (62) 
6

>  <PSA>  (62) 
89.01

>  <Standard Type>  (62) 
nan

>  <Standard Relation>  (62) 
nan

>  <Standard Units>  (62) 
nan

>  <Standard Value>  (62) 
nan

>  <Assay ChEMBL ID>  (62) 
nan

>  <Assay Description>  (62) 
nan

>  <BAO Label>  (62) 
nan

$$$$

     RDKit          2D

 34 38  0  0  0  0  0  0  0  0999 V2000
   -6.2940    7.2357    0.0000 O   0  0  0  0  0  0  0  0  0  0  0  0
   -7.7206    6.7722    0.0000 C   0  0  0  0  0  0  0  0  0  0  0  0
   -8.0325    5.3050    0.0000 N   0  0  0  0  0  0  0  0  0  0  0  0
   -6.9177    4.3013    0.0000 C   0  0  0  0  0  0  0  0  0  0  0  0
   -7.2296    2.8340    0.0000 C   0  0  0  0  0  0  0  0  0  0  0  0
   -6.1149    1.8303    0.0000 C   0  0  0  0  0  0  0  0  0  0  0  0
   -4.6883    2.2939    0.0000 C   0  0  0  0  0  0  0  0  0  0  0  0
   -3.5736    1.2902    0.0000 O   0  0  0  0  0  0  0  0  0  0  0  0
   -2.1470    1.7537    0.0000 C   0  0  0  0  0  0  0  0  0  0  0  0
   -1.8351    3.2209    0.0000 C   0  0  0  0  0  0  0  0  0  0  0  0
   -0.4086    3.6844    0.0000 C   0  0  0  0  0  0  0  0  0  0  0  0
    0.7062    2.6807    0.0000 N   0  0  0  0  0  0  0  0  0  0  0  0
    0.3943    1.2135    0.0000 C   0  0  0  0  0  0  0  0  0  0  0  0
    1.2760    0.0000    0.0000 N   0  0  0  0  0  0  0  0  0  0  0  0
    0.3943   -1.2135    0.0000 C   0  0  0  0  0  0  0  0  0  0  0  0
   -1.0323   -0.7500    0.0000 C   0  0  0  0  0  0  0  0  0  0  0  0
   -1.0323    0.7500    0.0000 C   0  0  0  0  0  0  0  0  0  0  0  0
   -4.3764    3.7611    0.0000 C   0  0  0  0  0  0  0  0  0  0  0  0
   -2.9499    4.2246    0.0000 F   0  0  0  0  0  0  0  0  0  0  0  0
   -5.4912    4.7648    0.0000 C   0  0  0  0  0  0  0  0  0  0  0  0
   -8.8353    7.7759    0.0000 C   0  0  0  0  0  0  0  0  0  0  0  0
   -8.5234    9.2431    0.0000 C   0  0  0  0  0  0  0  0  0  0  0  0
   -9.6382   10.2468    0.0000 N   0  0  0  0  0  0  0  0  0  0  0  0
  -11.0647    9.7833    0.0000 C   0  0  0  0  0  0  0  0  0  0  0  0
  -11.3766    8.3160    0.0000 C   0  0  0  0  0  0  0  0  0  0  0  0
  -12.8032    7.8525    0.0000 C   0  0  0  0  0  0  0  0  0  0  0  0
  -13.9179    8.8562    0.0000 C   0  0  0  0  0  0  0  0  0  0  0  0
  -15.3445    8.3927    0.0000 C   0  0  0  0  0  0  0  0  0  0  0  0
  -15.6564    6.9255    0.0000 C   0  0  0  0  0  0  0  0  0  0  0  0
  -17.0829    6.4619    0.0000 F   0  0  0  0  0  0  0  0  0  0  0  0
  -14.5416    5.9218    0.0000 C   0  0  0  0  0  0  0  0  0  0  0  0
  -13.1151    6.3853    0.0000 C   0  0  0  0  0  0  0  0  0  0  0  0
  -10.2619    7.3123    0.0000 C   0  0  0  0  0  0  0  0  0  0  0  0
  -10.5738    5.8451    0.0000 O   0  0  0  0  0  0  0  0  0  0  0  0
  1  2  2  0
  2  3  1  0
  3  4  1  0
  4  5  2  0
  5  6  1  0
  6  7  2  0
  7  8  1  0
  8  9  1  0
  9 10  2  0
 10 11  1  0
 11 12  2  0
 12 13  1  0
 13 14  1  0
 14 15  1  0
 15 16  2  0
 16 17  1  0
  7 18  1  0
 18 19  1  0
 18 20  2  0
  2 21  1  0
 21 22  2  0
 22 23  1  0
 23 24  1  0
 24 25  2  0
 25 26  1  0
 26 27  2  0
 27 28  1  0
 28 29  2  0
 29 30  1  0
 29 31  1  0
 31 32  2  0
 25 33  1  0
 33 34  2  0
 20  4  1  0
 33 21  1  0
 17  9  1  0
 32 26  1  0
 17 13  2  0
M  END
>  <Compound_ID>  (63) 
CHEMBL454356

>  <Active>  (63) 
1.0

>  <Smiles>  (63) 
O=C(Nc1ccc(Oc2ccnc3[nH]ccc23)c(F)c1)c1c[nH]cc(-c2ccc(F)cc2)c1=O

>  <canonical_smi>  (63) 
O=C(Nc1ccc(Oc2ccnc3[nH]ccc23)c(F)c1)c1c[nH]cc(-c2ccc(F)cc2)c1=O

>  <Set>  (63) 
G2 active

>  <Set_type>  (63) 
Train

>  <MW>  (63) 
458.42

>  <HBD>  (63) 
3

>  <HBA>  (63) 
4

>  <NRB>  (63) 
5

>  <NR>  (63) 
5

>  <NAR>  (63) 
5

>  <PSA>  (63) 
99.87

>  <Standard Type>  (63) 
nan

>  <Standard Relation>  (63) 
nan

>  <Standard Units>  (63) 
nan

>  <Standard Value>  (63) 
nan

>  <Assay ChEMBL ID>  (63) 
nan

>  <Assay Description>  (63) 
nan

>  <BAO Label>  (63) 
nan

$$$$

     RDKit          2D

 29 33  0  0  0  0  0  0  0  0999 V2000
    3.7500   -1.2990    0.0000 C   0  0  0  0  0  0  0  0  0  0  0  0
    3.0000    0.0000    0.0000 O   0  0  0  0  0  0  0  0  0  0  0  0
    1.5000    0.0000    0.0000 C   0  0  0  0  0  0  0  0  0  0  0  0
    0.7500   -1.2990    0.0000 C   0  0  0  0  0  0  0  0  0  0  0  0
   -0.7500   -1.2990    0.0000 C   0  0  0  0  0  0  0  0  0  0  0  0
   -1.5000    0.0000    0.0000 C   0  0  0  0  0  0  0  0  0  0  0  0
   -3.0000    0.0000    0.0000 C   0  0  0  0  0  0  0  0  0  0  0  0
   -3.7500   -1.2990    0.0000 O   0  0  0  0  0  0  0  0  0  0  0  0
   -5.2500   -1.2990    0.0000 C   0  0  0  0  0  0  0  0  0  0  0  0
   -6.0000   -2.5981    0.0000 C   0  0  0  0  0  0  0  0  0  0  0  0
   -5.3899   -3.9684    0.0000 N   0  0  0  0  0  0  0  0  0  0  0  0
   -6.5046   -4.9721    0.0000 N   0  0  0  0  0  0  0  0  0  0  0  0
   -7.8037   -4.2221    0.0000 C   0  0  0  0  0  0  0  0  0  0  0  0
   -9.2302   -4.6856    0.0000 C   0  0  0  0  0  0  0  0  0  0  0  0
  -10.3450   -3.6819    0.0000 C   0  0  0  0  0  0  0  0  0  0  0  0
  -10.0331   -2.2147    0.0000 C   0  0  0  0  0  0  0  0  0  0  0  0
  -11.1478   -1.2110    0.0000 C   0  0  0  0  0  0  0  0  0  0  0  0
  -12.6150   -1.5229    0.0000 C   0  0  0  0  0  0  0  0  0  0  0  0
  -13.3650   -0.2238    0.0000 C   0  0  0  0  0  0  0  0  0  0  0  0
  -14.8568   -0.0670    0.0000 C   0  0  0  0  0  0  0  0  0  0  0  0
  -12.3613    0.8909    0.0000 N   0  0  0  0  0  0  0  0  0  0  0  0
  -10.9910    0.2808    0.0000 S   0  0  0  0  0  0  0  0  0  0  0  0
   -8.6065   -1.7512    0.0000 N   0  0  0  0  0  0  0  0  0  0  0  0
   -7.4918   -2.7549    0.0000 N   0  0  0  0  0  0  0  0  0  0  0  0
   -3.7500    1.2990    0.0000 C   0  0  0  0  0  0  0  0  0  0  0  0
   -3.0000    2.5981    0.0000 C   0  0  0  0  0  0  0  0  0  0  0  0
   -1.5000    2.5981    0.0000 N   0  0  0  0  0  0  0  0  0  0  0  0
   -0.7500    1.2990    0.0000 C   0  0  0  0  0  0  0  0  0  0  0  0
    0.7500    1.2990    0.0000 C   0  0  0  0  0  0  0  0  0  0  0  0
  1  2  1  0
  2  3  1  0
  3  4  2  0
  4  5  1  0
  5  6  2  0
  6  7  1  0
  7  8  1  0
  8  9  1  0
  9 10  1  0
 10 11  2  0
 11 12  1  0
 12 13  2  0
 13 14  1  0
 14 15  2  0
 15 16  1  0
 16 17  1  0
 17 18  2  0
 18 19  1  0
 19 20  1  0
 19 21  2  0
 21 22  1  0
 16 23  2  0
 23 24  1  0
  7 25  2  0
 25 26  1  0
 26 27  2  0
 27 28  1  0
 28 29  2  0
 29  3  1  0
 28  6  1  0
 24 10  1  0
 24 13  1  0
 22 17  1  0
M  END
>  <Compound_ID>  (64) 
CHEMBL567908

>  <Active>  (64) 
1.0

>  <Smiles>  (64) 
COc1ccc2c(OCc3nnc4ccc(-c5cc(C)ns5)nn34)ccnc2c1

>  <canonical_smi>  (64) 
COc1ccc2c(OCc3nnc4ccc(-c5cc(C)ns5)nn34)ccnc2c1

>  <Set>  (64) 
G2 active

>  <Set_type>  (64) 
Train

>  <MW>  (64) 
404.46

>  <HBD>  (64) 
0

>  <HBA>  (64) 
7

>  <NRB>  (64) 
5

>  <NR>  (64) 
5

>  <NAR>  (64) 
5

>  <PSA>  (64) 
87.32

>  <Standard Type>  (64) 
nan

>  <Standard Relation>  (64) 
nan

>  <Standard Units>  (64) 
nan

>  <Standard Value>  (64) 
nan

>  <Assay ChEMBL ID>  (64) 
nan

>  <Assay Description>  (64) 
nan

>  <BAO Label>  (64) 
nan

$$$$

     RDKit          2D

 34 37  0  0  0  0  0  0  0  0999 V2000
    3.0000   -5.1962    0.0000 C   0  0  0  0  0  0  0  0  0  0  0  0
    1.5000   -5.1962    0.0000 O   0  0  0  0  0  0  0  0  0  0  0  0
    0.7500   -3.8971    0.0000 C   0  0  0  0  0  0  0  0  0  0  0  0
    1.5000   -2.5981    0.0000 C   0  0  0  0  0  0  0  0  0  0  0  0
    0.7500   -1.2990    0.0000 C   0  0  0  0  0  0  0  0  0  0  0  0
    1.5000    0.0000    0.0000 N   0  0  0  0  0  0  0  0  0  0  0  0
    0.7500    1.2990    0.0000 C   0  0  0  0  0  0  0  0  0  0  0  0
   -0.7500    1.2990    0.0000 C   0  0  0  0  0  0  0  0  0  0  0  0
   -1.5000    0.0000    0.0000 C   0  0  0  0  0  0  0  0  0  0  0  0
   -3.0000    0.0000    0.0000 O   0  0  0  0  0  0  0  0  0  0  0  0
   -3.7500    1.2990    0.0000 C   0  0  0  0  0  0  0  0  0  0  0  0
   -3.0000    2.5981    0.0000 C   0  0  0  0  0  0  0  0  0  0  0  0
   -3.7500    3.8971    0.0000 C   0  0  0  0  0  0  0  0  0  0  0  0
   -5.2500    3.8971    0.0000 C   0  0  0  0  0  0  0  0  0  0  0  0
   -6.0000    5.1962    0.0000 N   0  0  0  0  0  0  0  0  0  0  0  0
   -5.2500    6.4952    0.0000 C   0  0  0  0  0  0  0  0  0  0  0  0
   -3.7500    6.4952    0.0000 S   0  0  0  0  0  0  0  0  0  0  0  0
   -6.0000    7.7942    0.0000 N   0  0  0  0  0  0  0  0  0  0  0  0
   -5.2500    9.0933    0.0000 C   0  0  0  0  0  0  0  0  0  0  0  0
   -3.7500    9.0933    0.0000 O   0  0  0  0  0  0  0  0  0  0  0  0
   -6.0000   10.3923    0.0000 C   0  0  0  0  0  0  0  0  0  0  0  0
   -5.2500   11.6913    0.0000 C   0  0  0  0  0  0  0  0  0  0  0  0
   -3.7500   11.6913    0.0000 C   0  0  0  0  0  0  0  0  0  0  0  0
   -3.0000   12.9904    0.0000 C   0  0  0  0  0  0  0  0  0  0  0  0
   -3.7500   14.2894    0.0000 C   0  0  0  0  0  0  0  0  0  0  0  0
   -5.2500   14.2894    0.0000 C   0  0  0  0  0  0  0  0  0  0  0  0
   -6.0000   12.9904    0.0000 C   0  0  0  0  0  0  0  0  0  0  0  0
   -6.0000    2.5981    0.0000 C   0  0  0  0  0  0  0  0  0  0  0  0
   -5.2500    1.2990    0.0000 N   0  0  0  0  0  0  0  0  0  0  0  0
   -0.7500   -1.2990    0.0000 C   0  0  0  0  0  0  0  0  0  0  0  0
   -1.5000   -2.5981    0.0000 C   0  0  0  0  0  0  0  0  0  0  0  0
   -0.7500   -3.8971    0.0000 C   0  0  0  0  0  0  0  0  0  0  0  0
   -1.5000   -5.1962    0.0000 O   0  0  0  0  0  0  0  0  0  0  0  0
   -3.0000   -5.1962    0.0000 C   0  0  0  0  0  0  0  0  0  0  0  0
  1  2  1  0
  2  3  1  0
  3  4  2  0
  4  5  1  0
  5  6  2  0
  6  7  1  0
  7  8  2  0
  8  9  1  0
  9 10  1  0
 10 11  1  0
 11 12  2  0
 12 13  1  0
 13 14  2  0
 14 15  1  0
 15 16  1  0
 16 17  2  0
 16 18  1  0
 18 19  1  0
 19 20  2  0
 19 21  1  0
 21 22  1  0
 22 23  2  0
 23 24  1  0
 24 25  2  0
 25 26  1  0
 26 27  2  0
 14 28  1  0
 28 29  2  0
  9 30  2  0
 30 31  1  0
 31 32  2  0
 32 33  1  0
 33 34  1  0
 32  3  1  0
 30  5  1  0
 29 11  1  0
 27 22  1  0
M  END
>  <Compound_ID>  (65) 
CHEMBL510112

>  <Active>  (65) 
1.0

>  <Smiles>  (65) 
COc1cc2nccc(Oc3ccc(NC(=S)NC(=O)Cc4ccccc4)cn3)c2cc1OC

>  <canonical_smi>  (65) 
COc1cc2nccc(Oc3ccc(NC(=S)NC(=O)Cc4ccccc4)cn3)c2cc1OC

>  <Set>  (65) 
G2 active

>  <Set_type>  (65) 
Train

>  <MW>  (65) 
474.54

>  <HBD>  (65) 
2

>  <HBA>  (65) 
8

>  <NRB>  (65) 
7

>  <NR>  (65) 
4

>  <NAR>  (65) 
4

>  <PSA>  (65) 
94.6

>  <Standard Type>  (65) 
nan

>  <Standard Relation>  (65) 
nan

>  <Standard Units>  (65) 
nan

>  <Standard Value>  (65) 
nan

>  <Assay ChEMBL ID>  (65) 
nan

>  <Assay Description>  (65) 
nan

>  <BAO Label>  (65) 
nan

$$$$

     RDKit          2D

 31 35  0  0  0  0  0  0  0  0999 V2000
    3.7500   -1.2990    0.0000 C   0  0  0  0  0  0  0  0  0  0  0  0
    3.0000    0.0000    0.0000 O   0  0  0  0  0  0  0  0  0  0  0  0
    1.5000    0.0000    0.0000 C   0  0  0  0  0  0  0  0  0  0  0  0
    0.7500   -1.2990    0.0000 C   0  0  0  0  0  0  0  0  0  0  0  0
   -0.7500   -1.2990    0.0000 N   0  0  0  0  0  0  0  0  0  0  0  0
   -1.5000    0.0000    0.0000 C   0  0  0  0  0  0  0  0  0  0  0  0
   -3.0000    0.0000    0.0000 C   0  0  0  0  0  0  0  0  0  0  0  0
   -3.7500   -1.2990    0.0000 N   0  0  0  0  0  0  0  0  0  0  0  0
   -5.2500   -1.2990    0.0000 C   0  0  0  0  0  0  0  0  0  0  0  0
   -6.0000   -2.5981    0.0000 C   0  0  0  0  0  0  0  0  0  0  0  0
   -5.3899   -3.9684    0.0000 N   0  0  0  0  0  0  0  0  0  0  0  0
   -6.5046   -4.9721    0.0000 N   0  0  0  0  0  0  0  0  0  0  0  0
   -7.8037   -4.2221    0.0000 C   0  0  0  0  0  0  0  0  0  0  0  0
   -9.2302   -4.6856    0.0000 C   0  0  0  0  0  0  0  0  0  0  0  0
  -10.3450   -3.6819    0.0000 C   0  0  0  0  0  0  0  0  0  0  0  0
  -10.0331   -2.2147    0.0000 C   0  0  0  0  0  0  0  0  0  0  0  0
  -11.1478   -1.2110    0.0000 C   0  0  0  0  0  0  0  0  0  0  0  0
  -10.8359    0.2562    0.0000 C   0  0  0  0  0  0  0  0  0  0  0  0
  -11.9507    1.2599    0.0000 C   0  0  0  0  0  0  0  0  0  0  0  0
  -11.6388    2.7271    0.0000 F   0  0  0  0  0  0  0  0  0  0  0  0
  -13.3772    0.7964    0.0000 C   0  0  0  0  0  0  0  0  0  0  0  0
  -13.6891   -0.6708    0.0000 C   0  0  0  0  0  0  0  0  0  0  0  0
  -15.1157   -1.1344    0.0000 F   0  0  0  0  0  0  0  0  0  0  0  0
  -12.5744   -1.6745    0.0000 C   0  0  0  0  0  0  0  0  0  0  0  0
   -8.6065   -1.7512    0.0000 N   0  0  0  0  0  0  0  0  0  0  0  0
   -7.4918   -2.7549    0.0000 N   0  0  0  0  0  0  0  0  0  0  0  0
   -3.7500    1.2990    0.0000 C   0  0  0  0  0  0  0  0  0  0  0  0
   -3.0000    2.5981    0.0000 C   0  0  0  0  0  0  0  0  0  0  0  0
   -1.5000    2.5981    0.0000 N   0  0  0  0  0  0  0  0  0  0  0  0
   -0.7500    1.2990    0.0000 C   0  0  0  0  0  0  0  0  0  0  0  0
    0.7500    1.2990    0.0000 C   0  0  0  0  0  0  0  0  0  0  0  0
  1  2  1  0
  2  3  1  0
  3  4  2  0
  4  5  1  0
  5  6  2  0
  6  7  1  0
  7  8  1  0
  8  9  1  0
  9 10  1  0
 10 11  2  0
 11 12  1  0
 12 13  2  0
 13 14  1  0
 14 15  2  0
 15 16  1  0
 16 17  1  0
 17 18  2  0
 18 19  1  0
 19 20  1  0
 19 21  2  0
 21 22  1  0
 22 23  1  0
 22 24  2  0
 16 25  2  0
 25 26  1  0
  7 27  2  0
 27 28  1  0
 28 29  2  0
 29 30  1  0
 30 31  2  0
 31  3  1  0
 30  6  1  0
 26 10  1  0
 26 13  1  0
 24 17  1  0
M  END
>  <Compound_ID>  (66) 
CHEMBL568138

>  <Active>  (66) 
1.0

>  <Smiles>  (66) 
COc1cnc2c(NCc3nnc4ccc(-c5cc(F)cc(F)c5)nn34)ccnc2c1

>  <canonical_smi>  (66) 
COc1cnc2c(NCc3nnc4ccc(-c5cc(F)cc(F)c5)nn34)ccnc2c1

>  <Set>  (66) 
G2 active

>  <Set_type>  (66) 
Train

>  <MW>  (66) 
419.4

>  <HBD>  (66) 
1

>  <HBA>  (66) 
7

>  <NRB>  (66) 
5

>  <NR>  (66) 
5

>  <NAR>  (66) 
5

>  <PSA>  (66) 
90.12

>  <Standard Type>  (66) 
nan

>  <Standard Relation>  (66) 
nan

>  <Standard Units>  (66) 
nan

>  <Standard Value>  (66) 
nan

>  <Assay ChEMBL ID>  (66) 
nan

>  <Assay Description>  (66) 
nan

>  <BAO Label>  (66) 
nan

$$$$

     RDKit          2D

 37 42  0  0  0  0  0  0  0  0999 V2000
   -6.2940    7.2357    0.0000 O   0  0  0  0  0  0  0  0  0  0  0  0
   -7.7206    6.7722    0.0000 C   0  0  0  0  0  0  0  0  0  0  0  0
   -8.0325    5.3050    0.0000 N   0  0  0  0  0  0  0  0  0  0  0  0
   -6.9177    4.3013    0.0000 C   0  0  0  0  0  0  0  0  0  0  0  0
   -7.2296    2.8340    0.0000 C   0  0  0  0  0  0  0  0  0  0  0  0
   -6.1149    1.8303    0.0000 C   0  0  0  0  0  0  0  0  0  0  0  0
   -4.6883    2.2939    0.0000 C   0  0  0  0  0  0  0  0  0  0  0  0
   -3.5736    1.2902    0.0000 O   0  0  0  0  0  0  0  0  0  0  0  0
   -2.1470    1.7537    0.0000 C   0  0  0  0  0  0  0  0  0  0  0  0
   -1.8351    3.2209    0.0000 C   0  0  0  0  0  0  0  0  0  0  0  0
   -0.4086    3.6844    0.0000 C   0  0  0  0  0  0  0  0  0  0  0  0
    0.7062    2.6807    0.0000 N   0  0  0  0  0  0  0  0  0  0  0  0
    0.3943    1.2135    0.0000 C   0  0  0  0  0  0  0  0  0  0  0  0
    1.2760    0.0000    0.0000 N   0  0  0  0  0  0  0  0  0  0  0  0
    0.3943   -1.2135    0.0000 C   0  0  0  0  0  0  0  0  0  0  0  0
   -1.0323   -0.7500    0.0000 C   0  0  0  0  0  0  0  0  0  0  0  0
   -1.0323    0.7500    0.0000 C   0  0  0  0  0  0  0  0  0  0  0  0
   -4.3764    3.7611    0.0000 C   0  0  0  0  0  0  0  0  0  0  0  0
   -2.9499    4.2246    0.0000 F   0  0  0  0  0  0  0  0  0  0  0  0
   -5.4912    4.7648    0.0000 C   0  0  0  0  0  0  0  0  0  0  0  0
   -8.8353    7.7759    0.0000 C   0  0  0  0  0  0  0  0  0  0  0  0
   -8.5234    9.2431    0.0000 C   0  0  0  0  0  0  0  0  0  0  0  0
   -9.6382   10.2468    0.0000 N   0  0  0  0  0  0  0  0  0  0  0  0
   -9.3263   11.7140    0.0000 C   0  0  0  0  0  0  0  0  0  0  0  0
   -9.7898   13.1406    0.0000 C   0  0  0  0  0  0  0  0  0  0  0  0
   -8.3226   12.8287    0.0000 C   0  0  0  0  0  0  0  0  0  0  0  0
  -11.0647    9.7833    0.0000 C   0  0  0  0  0  0  0  0  0  0  0  0
  -11.3766    8.3160    0.0000 C   0  0  0  0  0  0  0  0  0  0  0  0
  -12.8032    7.8525    0.0000 C   0  0  0  0  0  0  0  0  0  0  0  0
  -13.9179    8.8562    0.0000 C   0  0  0  0  0  0  0  0  0  0  0  0
  -15.3445    8.3927    0.0000 C   0  0  0  0  0  0  0  0  0  0  0  0
  -15.6564    6.9255    0.0000 C   0  0  0  0  0  0  0  0  0  0  0  0
  -17.0829    6.4619    0.0000 F   0  0  0  0  0  0  0  0  0  0  0  0
  -14.5416    5.9218    0.0000 C   0  0  0  0  0  0  0  0  0  0  0  0
  -13.1151    6.3853    0.0000 C   0  0  0  0  0  0  0  0  0  0  0  0
  -10.2619    7.3123    0.0000 C   0  0  0  0  0  0  0  0  0  0  0  0
  -10.5738    5.8451    0.0000 O   0  0  0  0  0  0  0  0  0  0  0  0
  1  2  2  0
  2  3  1  0
  3  4  1  0
  4  5  2  0
  5  6  1  0
  6  7  2  0
  7  8  1  0
  8  9  1  0
  9 10  2  0
 10 11  1  0
 11 12  2  0
 12 13  1  0
 13 14  1  0
 14 15  1  0
 15 16  2  0
 16 17  1  0
  7 18  1  0
 18 19  1  0
 18 20  2  0
  2 21  1  0
 21 22  2  0
 22 23  1  0
 23 24  1  0
 24 25  1  0
 25 26  1  0
 23 27  1  0
 27 28  2  0
 28 29  1  0
 29 30  2  0
 30 31  1  0
 31 32  2  0
 32 33  1  0
 32 34  1  0
 34 35  2  0
 28 36  1  0
 36 37  2  0
 20  4  1  0
 36 21  1  0
 17  9  1  0
 26 24  1  0
 35 29  1  0
 17 13  2  0
M  END
>  <Compound_ID>  (67) 
CHEMBL455386

>  <Active>  (67) 
1.0

>  <Smiles>  (67) 
O=C(Nc1ccc(Oc2ccnc3[nH]ccc23)c(F)c1)c1cn(C2CC2)cc(-c2ccc(F)cc2)c1=O

>  <canonical_smi>  (67) 
O=C(Nc1ccc(Oc2ccnc3[nH]ccc23)c(F)c1)c1cn(C2CC2)cc(-c2ccc(F)cc2)c1=O

>  <Set>  (67) 
G2 active

>  <Set_type>  (67) 
Train

>  <MW>  (67) 
498.49

>  <HBD>  (67) 
2

>  <HBA>  (67) 
4

>  <NRB>  (67) 
6

>  <NR>  (67) 
6

>  <NAR>  (67) 
5

>  <PSA>  (67) 
89.01

>  <Standard Type>  (67) 
nan

>  <Standard Relation>  (67) 
nan

>  <Standard Units>  (67) 
nan

>  <Standard Value>  (67) 
nan

>  <Assay ChEMBL ID>  (67) 
nan

>  <Assay Description>  (67) 
nan

>  <BAO Label>  (67) 
nan

$$$$

     RDKit          2D

 33 36  0  0  0  0  0  0  0  0999 V2000
    9.7500   -6.4952    0.0000 O   0  0  0  0  0  0  0  0  0  0  0  0
   10.5000   -5.1962    0.0000 C   0  0  0  0  0  0  0  0  0  0  0  0
   12.0000   -5.1962    0.0000 C   0  0  0  0  0  0  0  0  0  0  0  0
   12.7500   -6.4952    0.0000 C   0  0  0  0  0  0  0  0  0  0  0  0
   12.0000   -7.7942    0.0000 C   0  0  0  0  0  0  0  0  0  0  0  0
   12.7500   -9.0933    0.0000 C   0  0  0  0  0  0  0  0  0  0  0  0
   14.2500   -9.0933    0.0000 C   0  0  0  0  0  0  0  0  0  0  0  0
   15.0000  -10.3923    0.0000 F   0  0  0  0  0  0  0  0  0  0  0  0
   15.0000   -7.7942    0.0000 C   0  0  0  0  0  0  0  0  0  0  0  0
   14.2500   -6.4952    0.0000 C   0  0  0  0  0  0  0  0  0  0  0  0
    9.7500   -3.8971    0.0000 N   0  0  0  0  0  0  0  0  0  0  0  0
    8.2500   -3.8971    0.0000 C   0  0  0  0  0  0  0  0  0  0  0  0
    7.5000   -5.1962    0.0000 O   0  0  0  0  0  0  0  0  0  0  0  0
    7.5000   -2.5981    0.0000 N   0  0  0  0  0  0  0  0  0  0  0  0
    6.0000   -2.5981    0.0000 C   0  0  0  0  0  0  0  0  0  0  0  0
    5.2500   -1.2990    0.0000 C   0  0  0  0  0  0  0  0  0  0  0  0
    3.7500   -1.2990    0.0000 C   0  0  0  0  0  0  0  0  0  0  0  0
    3.0000   -2.5981    0.0000 C   0  0  0  0  0  0  0  0  0  0  0  0
    1.5000   -2.5981    0.0000 O   0  0  0  0  0  0  0  0  0  0  0  0
    0.7500   -1.2990    0.0000 C   0  0  0  0  0  0  0  0  0  0  0  0
    1.5000    0.0000    0.0000 C   0  0  0  0  0  0  0  0  0  0  0  0
    0.7500    1.2990    0.0000 C   0  0  0  0  0  0  0  0  0  0  0  0
   -0.7500    1.2990    0.0000 N   0  0  0  0  0  0  0  0  0  0  0  0
   -1.5000    0.0000    0.0000 C   0  0  0  0  0  0  0  0  0  0  0  0
   -2.9672   -0.3119    0.0000 N   0  0  0  0  0  0  0  0  0  0  0  0
   -3.1240   -1.8037    0.0000 C   0  0  0  0  0  0  0  0  0  0  0  0
   -1.7537   -2.4138    0.0000 C   0  0  0  0  0  0  0  0  0  0  0  0
   -1.4418   -3.8810    0.0000 C   0  0  0  0  0  0  0  0  0  0  0  0
   -2.5565   -4.8847    0.0000 O   0  0  0  0  0  0  0  0  0  0  0  0
   -0.7500   -1.2990    0.0000 C   0  0  0  0  0  0  0  0  0  0  0  0
    3.7500   -3.8971    0.0000 C   0  0  0  0  0  0  0  0  0  0  0  0
    3.0000   -5.1962    0.0000 F   0  0  0  0  0  0  0  0  0  0  0  0
    5.2500   -3.8971    0.0000 C   0  0  0  0  0  0  0  0  0  0  0  0
  1  2  2  0
  2  3  1  0
  3  4  1  0
  4  5  2  0
  5  6  1  0
  6  7  2  0
  7  8  1  0
  7  9  1  0
  9 10  2  0
  2 11  1  0
 11 12  1  0
 12 13  2  0
 12 14  1  0
 14 15  1  0
 15 16  2  0
 16 17  1  0
 17 18  2  0
 18 19  1  0
 19 20  1  0
 20 21  2  0
 21 22  1  0
 22 23  2  0
 23 24  1  0
 24 25  1  0
 25 26  1  0
 26 27  2  0
 27 28  1  0
 28 29  1  0
 27 30  1  0
 18 31  1  0
 31 32  1  0
 31 33  2  0
 10  4  1  0
 33 15  1  0
 30 20  1  0
 30 24  2  0
M  END
>  <Compound_ID>  (68) 
CHEMBL499886

>  <Active>  (68) 
1.0

>  <Smiles>  (68) 
O=C(Cc1ccc(F)cc1)NC(=O)Nc1ccc(Oc2ccnc3[nH]cc(CO)c23)c(F)c1

>  <canonical_smi>  (68) 
O=C(Cc1ccc(F)cc1)NC(=O)Nc1ccc(Oc2ccnc3[nH]cc(CO)c23)c(F)c1

>  <Set>  (68) 
G2 active

>  <Set_type>  (68) 
Train

>  <MW>  (68) 
452.42

>  <HBD>  (68) 
4

>  <HBA>  (68) 
5

>  <NRB>  (68) 
6

>  <NR>  (68) 
4

>  <NAR>  (68) 
4

>  <PSA>  (68) 
116.34

>  <Standard Type>  (68) 
nan

>  <Standard Relation>  (68) 
nan

>  <Standard Units>  (68) 
nan

>  <Standard Value>  (68) 
nan

>  <Assay ChEMBL ID>  (68) 
nan

>  <Assay Description>  (68) 
nan

>  <BAO Label>  (68) 
nan

$$$$

     RDKit          2D

 22 25  0  0  0  0  0  0  0  0999 V2000
   -3.8876   -9.0580    0.0000 O   0  0  0  0  0  0  0  0  0  0  0  0
   -3.5757   -7.5908    0.0000 C   0  0  0  0  0  0  0  0  0  0  0  0
   -4.6904   -6.5871    0.0000 C   0  0  0  0  0  0  0  0  0  0  0  0
   -4.3786   -5.1199    0.0000 C   0  0  0  0  0  0  0  0  0  0  0  0
   -2.9520   -4.6564    0.0000 C   0  0  0  0  0  0  0  0  0  0  0  0
   -2.6401   -3.1891    0.0000 C   0  0  0  0  0  0  0  0  0  0  0  0
   -1.2135   -2.7256    0.0000 C   0  0  0  0  0  0  0  0  0  0  0  0
   -0.0000   -3.6073    0.0000 N   0  0  0  0  0  0  0  0  0  0  0  0
    1.2135   -2.7256    0.0000 N   0  0  0  0  0  0  0  0  0  0  0  0
    0.7500   -1.2990    0.0000 C   0  0  0  0  0  0  0  0  0  0  0  0
    1.5000    0.0000    0.0000 C   0  0  0  0  0  0  0  0  0  0  0  0
    0.7500    1.2990    0.0000 C   0  0  0  0  0  0  0  0  0  0  0  0
   -0.7500    1.2990    0.0000 C   0  0  0  0  0  0  0  0  0  0  0  0
   -1.5000    2.5981    0.0000 C   0  0  0  0  0  0  0  0  0  0  0  0
   -2.9918    2.7549    0.0000 C   0  0  0  0  0  0  0  0  0  0  0  0
   -3.3037    4.2221    0.0000 C   0  0  0  0  0  0  0  0  0  0  0  0
   -2.0046    4.9721    0.0000 S   0  0  0  0  0  0  0  0  0  0  0  0
   -0.8899    3.9684    0.0000 C   0  0  0  0  0  0  0  0  0  0  0  0
   -1.5000    0.0000    0.0000 N   0  0  0  0  0  0  0  0  0  0  0  0
   -0.7500   -1.2990    0.0000 N   0  0  0  0  0  0  0  0  0  0  0  0
   -1.8373   -5.6601    0.0000 C   0  0  0  0  0  0  0  0  0  0  0  0
   -2.1491   -7.1273    0.0000 C   0  0  0  0  0  0  0  0  0  0  0  0
  1  2  1  0
  2  3  2  0
  3  4  1  0
  4  5  2  0
  5  6  1  0
  6  7  1  0
  7  8  2  0
  8  9  1  0
  9 10  2  0
 10 11  1  0
 11 12  2  0
 12 13  1  0
 13 14  1  0
 14 15  1  0
 15 16  2  0
 16 17  1  0
 17 18  1  0
 13 19  2  0
 19 20  1  0
  5 21  1  0
 21 22  2  0
 22  2  1  0
 20  7  1  0
 20 10  1  0
 18 14  2  0
M  END
>  <Compound_ID>  (69) 
CHEMBL497117

>  <Active>  (69) 
1.0

>  <Smiles>  (69) 
Oc1ccc(Cc2nnc3ccc(-c4ccsc4)nn23)cc1

>  <canonical_smi>  (69) 
Oc1ccc(Cc2nnc3ccc(-c4ccsc4)nn23)cc1

>  <Set>  (69) 
G2 active

>  <Set_type>  (69) 
Train

>  <MW>  (69) 
308.37

>  <HBD>  (69) 
1

>  <HBA>  (69) 
4

>  <NRB>  (69) 
3

>  <NR>  (69) 
4

>  <NAR>  (69) 
4

>  <PSA>  (69) 
63.31

>  <Standard Type>  (69) 
nan

>  <Standard Relation>  (69) 
nan

>  <Standard Units>  (69) 
nan

>  <Standard Value>  (69) 
nan

>  <Assay ChEMBL ID>  (69) 
nan

>  <Assay Description>  (69) 
nan

>  <BAO Label>  (69) 
nan

$$$$

     RDKit          2D

 39 44  0  0  0  0  0  0  0  0999 V2000
   -3.1235   -8.4723    0.0000 C   0  0  0  0  0  0  0  0  0  0  0  0
   -1.6317   -8.6291    0.0000 C   0  0  0  0  0  0  0  0  0  0  0  0
   -0.7500   -7.4156    0.0000 N   0  0  0  0  0  0  0  0  0  0  0  0
    0.7500   -7.4156    0.0000 C   0  0  0  0  0  0  0  0  0  0  0  0
    1.2135   -5.9890    0.0000 N   0  0  0  0  0  0  0  0  0  0  0  0
   -0.0000   -5.1073    0.0000 C   0  0  0  0  0  0  0  0  0  0  0  0
   -0.0000   -3.6073    0.0000 C   0  0  0  0  0  0  0  0  0  0  0  0
    1.2135   -2.7256    0.0000 C   0  0  0  0  0  0  0  0  0  0  0  0
    0.7500   -1.2990    0.0000 C   0  0  0  0  0  0  0  0  0  0  0  0
    1.5000    0.0000    0.0000 N   0  0  0  0  0  0  0  0  0  0  0  0
    0.7500    1.2990    0.0000 C   0  0  0  0  0  0  0  0  0  0  0  0
   -0.7500    1.2990    0.0000 C   0  0  0  0  0  0  0  0  0  0  0  0
   -1.5000    0.0000    0.0000 C   0  0  0  0  0  0  0  0  0  0  0  0
   -3.0000    0.0000    0.0000 O   0  0  0  0  0  0  0  0  0  0  0  0
   -3.7500    1.2990    0.0000 C   0  0  0  0  0  0  0  0  0  0  0  0
   -3.0000    2.5981    0.0000 C   0  0  0  0  0  0  0  0  0  0  0  0
   -3.7500    3.8971    0.0000 C   0  0  0  0  0  0  0  0  0  0  0  0
   -5.2500    3.8971    0.0000 C   0  0  0  0  0  0  0  0  0  0  0  0
   -6.0000    5.1962    0.0000 N   0  0  0  0  0  0  0  0  0  0  0  0
   -5.2500    6.4952    0.0000 C   0  0  0  0  0  0  0  0  0  0  0  0
   -3.7500    6.4952    0.0000 O   0  0  0  0  0  0  0  0  0  0  0  0
   -6.0000    7.7942    0.0000 C   0  0  0  0  0  0  0  0  0  0  0  0
   -7.4095    7.2812    0.0000 C   0  0  0  0  0  0  0  0  0  0  0  0
   -7.6700    5.8040    0.0000 O   0  0  0  0  0  0  0  0  0  0  0  0
   -8.5586    8.2454    0.0000 N   0  0  0  0  0  0  0  0  0  0  0  0
   -9.9681    7.7323    0.0000 C   0  0  0  0  0  0  0  0  0  0  0  0
  -11.1172    8.6965    0.0000 C   0  0  0  0  0  0  0  0  0  0  0  0
  -12.5268    8.1835    0.0000 C   0  0  0  0  0  0  0  0  0  0  0  0
  -12.7872    6.7063    0.0000 C   0  0  0  0  0  0  0  0  0  0  0  0
  -11.6382    5.7421    0.0000 C   0  0  0  0  0  0  0  0  0  0  0  0
  -10.2286    6.2551    0.0000 C   0  0  0  0  0  0  0  0  0  0  0  0
   -6.2605    9.2714    0.0000 C   0  0  0  0  0  0  0  0  0  0  0  0
   -4.8509    8.7584    0.0000 C   0  0  0  0  0  0  0  0  0  0  0  0
   -6.0000    2.5981    0.0000 C   0  0  0  0  0  0  0  0  0  0  0  0
   -5.2500    1.2990    0.0000 C   0  0  0  0  0  0  0  0  0  0  0  0
   -6.0000    0.0000    0.0000 F   0  0  0  0  0  0  0  0  0  0  0  0
   -0.7500   -1.2990    0.0000 C   0  0  0  0  0  0  0  0  0  0  0  0
   -1.2135   -2.7256    0.0000 S   0  0  0  0  0  0  0  0  0  0  0  0
   -1.2135   -5.9890    0.0000 C   0  0  0  0  0  0  0  0  0  0  0  0
  1  2  1  0
  2  3  1  0
  3  4  1  0
  4  5  2  0
  5  6  1  0
  6  7  1  0
  7  8  2  0
  8  9  1  0
  9 10  2  0
 10 11  1  0
 11 12  2  0
 12 13  1  0
 13 14  1  0
 14 15  1  0
 15 16  2  0
 16 17  1  0
 17 18  2  0
 18 19  1  0
 19 20  1  0
 20 21  2  0
 20 22  1  0
 22 23  1  0
 23 24  2  0
 23 25  1  0
 25 26  1  0
 26 27  2  0
 27 28  1  0
 28 29  2  0
 29 30  1  0
 30 31  2  0
 22 32  1  0
 32 33  1  0
 18 34  1  0
 34 35  2  0
 35 36  1  0
 13 37  2  0
 37 38  1  0
  6 39  2  0
 39  3  1  0
 38  7  1  0
 37  9  1  0
 35 15  1  0
 33 22  1  0
 31 26  1  0
M  END
>  <Compound_ID>  (70) 
CHEMBL565807

>  <Active>  (70) 
1.0

>  <Smiles>  (70) 
CCn1cnc(-c2cc3nccc(Oc4ccc(NC(=O)C5(C(=O)Nc6ccccc6)CC5)cc4F)c3s2)c1

>  <canonical_smi>  (70) 
CCn1cnc(-c2cc3nccc(Oc4ccc(NC(=O)C5(C(=O)Nc6ccccc6)CC5)cc4F)c3s2)c1

>  <Set>  (70) 
G2 active

>  <Set_type>  (70) 
Train

>  <MW>  (70) 
541.61

>  <HBD>  (70) 
2

>  <HBA>  (70) 
5

>  <NRB>  (70) 
8

>  <NR>  (70) 
6

>  <NAR>  (70) 
5

>  <PSA>  (70) 
98.14

>  <Standard Type>  (70) 
nan

>  <Standard Relation>  (70) 
nan

>  <Standard Units>  (70) 
nan

>  <Standard Value>  (70) 
nan

>  <Assay ChEMBL ID>  (70) 
nan

>  <Assay Description>  (70) 
nan

>  <BAO Label>  (70) 
nan

$$$$

     RDKit          2D

 37 40  0  0  0  0  0  0  0  0999 V2000
    3.0000    0.0000    0.0000 N   0  0  0  0  0  0  0  0  0  0  0  0
    1.5000    0.0000    0.0000 C   0  0  0  0  0  0  0  0  0  0  0  0
    0.7500   -1.2990    0.0000 N   0  0  0  0  0  0  0  0  0  0  0  0
   -0.7500   -1.2990    0.0000 C   0  0  0  0  0  0  0  0  0  0  0  0
   -1.5000    0.0000    0.0000 C   0  0  0  0  0  0  0  0  0  0  0  0
   -0.7500    1.2990    0.0000 C   0  0  0  0  0  0  0  0  0  0  0  0
   -1.5000    2.5981    0.0000 O   0  0  0  0  0  0  0  0  0  0  0  0
   -3.0000    2.5981    0.0000 C   0  0  0  0  0  0  0  0  0  0  0  0
   -3.7500    3.8971    0.0000 C   0  0  0  0  0  0  0  0  0  0  0  0
   -5.2500    3.8971    0.0000 C   0  0  0  0  0  0  0  0  0  0  0  0
   -6.0000    2.5981    0.0000 C   0  0  0  0  0  0  0  0  0  0  0  0
   -7.5000    2.5981    0.0000 N   0  0  0  0  0  0  0  0  0  0  0  0
   -8.2500    3.8971    0.0000 C   0  0  0  0  0  0  0  0  0  0  0  0
   -7.5000    5.1962    0.0000 O   0  0  0  0  0  0  0  0  0  0  0  0
   -9.7500    3.8971    0.0000 N   0  0  0  0  0  0  0  0  0  0  0  0
  -10.5000    5.1962    0.0000 C   0  0  0  0  0  0  0  0  0  0  0  0
   -9.7500    6.4952    0.0000 O   0  0  0  0  0  0  0  0  0  0  0  0
  -12.0000    5.1962    0.0000 C   0  0  0  0  0  0  0  0  0  0  0  0
  -12.7500    6.4952    0.0000 C   0  0  0  0  0  0  0  0  0  0  0  0
  -12.0000    7.7942    0.0000 C   0  0  0  0  0  0  0  0  0  0  0  0
  -12.7500    9.0933    0.0000 C   0  0  0  0  0  0  0  0  0  0  0  0
  -14.2500    9.0933    0.0000 C   0  0  0  0  0  0  0  0  0  0  0  0
  -15.0000   10.3923    0.0000 F   0  0  0  0  0  0  0  0  0  0  0  0
  -15.0000    7.7942    0.0000 C   0  0  0  0  0  0  0  0  0  0  0  0
  -14.2500    6.4952    0.0000 C   0  0  0  0  0  0  0  0  0  0  0  0
   -5.2500    1.2990    0.0000 C   0  0  0  0  0  0  0  0  0  0  0  0
   -3.7500    1.2990    0.0000 C   0  0  0  0  0  0  0  0  0  0  0  0
   -3.0000   -0.0000    0.0000 F   0  0  0  0  0  0  0  0  0  0  0  0
    0.7500    1.2990    0.0000 C   0  0  0  0  0  0  0  0  0  0  0  0
    1.5000    2.5981    0.0000 C   0  0  0  0  0  0  0  0  0  0  0  0
    2.2500    3.8971    0.0000 C   0  0  0  0  0  0  0  0  0  0  0  0
    3.0000    5.1962    0.0000 C   0  0  0  0  0  0  0  0  0  0  0  0
    4.5000    5.1962    0.0000 C   0  0  0  0  0  0  0  0  0  0  0  0
    5.2500    6.4952    0.0000 C   0  0  0  0  0  0  0  0  0  0  0  0
    4.5000    7.7942    0.0000 C   0  0  0  0  0  0  0  0  0  0  0  0
    3.0000    7.7942    0.0000 C   0  0  0  0  0  0  0  0  0  0  0  0
    2.2500    6.4952    0.0000 N   0  0  0  0  0  0  0  0  0  0  0  0
  1  2  1  0
  2  3  2  0
  3  4  1  0
  4  5  2  0
  5  6  1  0
  6  7  1  0
  7  8  1  0
  8  9  2  0
  9 10  1  0
 10 11  2  0
 11 12  1  0
 12 13  1  0
 13 14  2  0
 13 15  1  0
 15 16  1  0
 16 17  2  0
 16 18  1  0
 18 19  1  0
 19 20  2  0
 20 21  1  0
 21 22  2  0
 22 23  1  0
 22 24  1  0
 24 25  2  0
 11 26  1  0
 26 27  2  0
 27 28  1  0
  6 29  2  0
 29 30  1  0
 30 31  3  0
 31 32  1  0
 32 33  2  0
 33 34  1  0
 34 35  2  0
 35 36  1  0
 36 37  2  0
 29  2  1  0
 37 32  1  0
 27  8  1  0
 25 19  1  0
M  END
>  <Compound_ID>  (71) 
CHEMBL500422

>  <Active>  (71) 
1.0

>  <Smiles>  (71) 
Nc1nccc(Oc2ccc(NC(=O)NC(=O)Cc3ccc(F)cc3)cc2F)c1C#Cc1ccccn1

>  <canonical_smi>  (71) 
Nc1nccc(Oc2ccc(NC(=O)NC(=O)Cc3ccc(F)cc3)cc2F)c1C#Cc1ccccn1

>  <Set>  (71) 
G2 active

>  <Set_type>  (71) 
Train

>  <MW>  (71) 
499.48

>  <HBD>  (71) 
3

>  <HBA>  (71) 
6

>  <NRB>  (71) 
5

>  <NR>  (71) 
4

>  <NAR>  (71) 
4

>  <PSA>  (71) 
119.23

>  <Standard Type>  (71) 
nan

>  <Standard Relation>  (71) 
nan

>  <Standard Units>  (71) 
nan

>  <Standard Value>  (71) 
nan

>  <Assay ChEMBL ID>  (71) 
nan

>  <Assay Description>  (71) 
nan

>  <BAO Label>  (71) 
nan

$$$$

     RDKit          2D

 23 26  0  0  0  0  0  0  0  0999 V2000
   -3.8876   -9.0580    0.0000 O   0  0  0  0  0  0  0  0  0  0  0  0
   -3.5757   -7.5908    0.0000 C   0  0  0  0  0  0  0  0  0  0  0  0
   -4.6904   -6.5871    0.0000 C   0  0  0  0  0  0  0  0  0  0  0  0
   -4.3786   -5.1199    0.0000 C   0  0  0  0  0  0  0  0  0  0  0  0
   -2.9520   -4.6564    0.0000 C   0  0  0  0  0  0  0  0  0  0  0  0
   -2.6401   -3.1891    0.0000 C   0  0  0  0  0  0  0  0  0  0  0  0
   -1.2135   -2.7256    0.0000 C   0  0  0  0  0  0  0  0  0  0  0  0
   -0.0000   -3.6073    0.0000 N   0  0  0  0  0  0  0  0  0  0  0  0
    1.2135   -2.7256    0.0000 N   0  0  0  0  0  0  0  0  0  0  0  0
    0.7500   -1.2990    0.0000 C   0  0  0  0  0  0  0  0  0  0  0  0
    1.5000    0.0000    0.0000 N   0  0  0  0  0  0  0  0  0  0  0  0
    0.7500    1.2990    0.0000 C   0  0  0  0  0  0  0  0  0  0  0  0
   -0.7500    1.2990    0.0000 C   0  0  0  0  0  0  0  0  0  0  0  0
   -1.5000    2.5981    0.0000 C   0  0  0  0  0  0  0  0  0  0  0  0
   -0.7500    3.8971    0.0000 C   0  0  0  0  0  0  0  0  0  0  0  0
   -1.5000    5.1962    0.0000 C   0  0  0  0  0  0  0  0  0  0  0  0
   -3.0000    5.1962    0.0000 C   0  0  0  0  0  0  0  0  0  0  0  0
   -3.7500    3.8971    0.0000 C   0  0  0  0  0  0  0  0  0  0  0  0
   -3.0000    2.5981    0.0000 C   0  0  0  0  0  0  0  0  0  0  0  0
   -1.5000    0.0000    0.0000 N   0  0  0  0  0  0  0  0  0  0  0  0
   -0.7500   -1.2990    0.0000 N   0  0  0  0  0  0  0  0  0  0  0  0
   -1.8373   -5.6601    0.0000 C   0  0  0  0  0  0  0  0  0  0  0  0
   -2.1491   -7.1273    0.0000 C   0  0  0  0  0  0  0  0  0  0  0  0
  1  2  1  0
  2  3  2  0
  3  4  1  0
  4  5  2  0
  5  6  1  0
  6  7  1  0
  7  8  2  0
  8  9  1  0
  9 10  2  0
 10 11  1  0
 11 12  2  0
 12 13  1  0
 13 14  1  0
 14 15  2  0
 15 16  1  0
 16 17  2  0
 17 18  1  0
 18 19  2  0
 13 20  2  0
 20 21  1  0
  5 22  1  0
 22 23  2  0
 23  2  1  0
 21  7  1  0
 21 10  1  0
 19 14  1  0
M  END
>  <Compound_ID>  (72) 
CHEMBL498769

>  <Active>  (72) 
1.0

>  <Smiles>  (72) 
Oc1ccc(Cc2nnc3ncc(-c4ccccc4)nn23)cc1

>  <canonical_smi>  (72) 
Oc1ccc(Cc2nnc3ncc(-c4ccccc4)nn23)cc1

>  <Set>  (72) 
G2 active

>  <Set_type>  (72) 
Train

>  <MW>  (72) 
303.33

>  <HBD>  (72) 
1

>  <HBA>  (72) 
5

>  <NRB>  (72) 
3

>  <NR>  (72) 
4

>  <NAR>  (72) 
4

>  <PSA>  (72) 
76.2

>  <Standard Type>  (72) 
nan

>  <Standard Relation>  (72) 
nan

>  <Standard Units>  (72) 
nan

>  <Standard Value>  (72) 
nan

>  <Assay ChEMBL ID>  (72) 
nan

>  <Assay Description>  (72) 
nan

>  <BAO Label>  (72) 
nan

$$$$

     RDKit          2D

 37 41  0  0  0  0  0  0  0  0999 V2000
   -5.4853   -5.8293    0.0000 N   0  0  0  0  0  0  0  0  0  0  0  0
   -4.6036   -4.6157    0.0000 C   0  0  0  0  0  0  0  0  0  0  0  0
   -3.1036   -4.6157    0.0000 N   0  0  0  0  0  0  0  0  0  0  0  0
   -2.6401   -3.1891    0.0000 C   0  0  0  0  0  0  0  0  0  0  0  0
   -1.2135   -2.7256    0.0000 C   0  0  0  0  0  0  0  0  0  0  0  0
   -0.0000   -3.6073    0.0000 C   0  0  0  0  0  0  0  0  0  0  0  0
    1.2135   -2.7256    0.0000 N   0  0  0  0  0  0  0  0  0  0  0  0
    0.7500   -1.2990    0.0000 C   0  0  0  0  0  0  0  0  0  0  0  0
    1.5000    0.0000    0.0000 N   0  0  0  0  0  0  0  0  0  0  0  0
    0.7500    1.2990    0.0000 C   0  0  0  0  0  0  0  0  0  0  0  0
   -0.7500    1.2990    0.0000 C   0  0  0  0  0  0  0  0  0  0  0  0
   -1.5000    0.0000    0.0000 C   0  0  0  0  0  0  0  0  0  0  0  0
   -3.0000    0.0000    0.0000 O   0  0  0  0  0  0  0  0  0  0  0  0
   -3.7500    1.2990    0.0000 C   0  0  0  0  0  0  0  0  0  0  0  0
   -3.0000    2.5981    0.0000 C   0  0  0  0  0  0  0  0  0  0  0  0
   -3.7500    3.8971    0.0000 C   0  0  0  0  0  0  0  0  0  0  0  0
   -5.2500    3.8971    0.0000 C   0  0  0  0  0  0  0  0  0  0  0  0
   -6.0000    5.1962    0.0000 N   0  0  0  0  0  0  0  0  0  0  0  0
   -5.2500    6.4952    0.0000 C   0  0  0  0  0  0  0  0  0  0  0  0
   -3.7500    6.4952    0.0000 O   0  0  0  0  0  0  0  0  0  0  0  0
   -6.0000    7.7942    0.0000 N   0  0  0  0  0  0  0  0  0  0  0  0
   -5.2500    9.0933    0.0000 C   0  0  0  0  0  0  0  0  0  0  0  0
   -3.7500    9.0933    0.0000 O   0  0  0  0  0  0  0  0  0  0  0  0
   -6.0000   10.3923    0.0000 C   0  0  0  0  0  0  0  0  0  0  0  0
   -5.2500   11.6913    0.0000 C   0  0  0  0  0  0  0  0  0  0  0  0
   -3.7500   11.6913    0.0000 C   0  0  0  0  0  0  0  0  0  0  0  0
   -3.0000   12.9904    0.0000 C   0  0  0  0  0  0  0  0  0  0  0  0
   -3.7500   14.2894    0.0000 C   0  0  0  0  0  0  0  0  0  0  0  0
   -3.0000   15.5885    0.0000 F   0  0  0  0  0  0  0  0  0  0  0  0
   -5.2500   14.2894    0.0000 C   0  0  0  0  0  0  0  0  0  0  0  0
   -6.0000   12.9904    0.0000 C   0  0  0  0  0  0  0  0  0  0  0  0
   -6.0000    2.5981    0.0000 C   0  0  0  0  0  0  0  0  0  0  0  0
   -5.2500    1.2990    0.0000 C   0  0  0  0  0  0  0  0  0  0  0  0
   -6.0000    0.0000    0.0000 F   0  0  0  0  0  0  0  0  0  0  0  0
   -0.7500   -1.2990    0.0000 C   0  0  0  0  0  0  0  0  0  0  0  0
   -3.8536   -2.3075    0.0000 C   0  0  0  0  0  0  0  0  0  0  0  0
   -5.0672   -3.1891    0.0000 S   0  0  0  0  0  0  0  0  0  0  0  0
  1  2  1  0
  2  3  2  0
  3  4  1  0
  4  5  1  0
  5  6  2  0
  6  7  1  0
  7  8  1  0
  8  9  2  0
  9 10  1  0
 10 11  2  0
 11 12  1  0
 12 13  1  0
 13 14  1  0
 14 15  2  0
 15 16  1  0
 16 17  2  0
 17 18  1  0
 18 19  1  0
 19 20  2  0
 19 21  1  0
 21 22  1  0
 22 23  2  0
 22 24  1  0
 24 25  1  0
 25 26  2  0
 26 27  1  0
 27 28  2  0
 28 29  1  0
 28 30  1  0
 30 31  2  0
 17 32  1  0
 32 33  2  0
 33 34  1  0
 12 35  2  0
  4 36  2  0
 36 37  1  0
 37  2  1  0
 35  5  1  0
 35  8  1  0
 33 14  1  0
 31 25  1  0
M  END
>  <Compound_ID>  (73) 
CHEMBL502283

>  <Active>  (73) 
1.0

>  <Smiles>  (73) 
Nc1nc(-c2c[nH]c3nccc(Oc4ccc(NC(=O)NC(=O)Cc5ccc(F)cc5)cc4F)c23)cs1

>  <canonical_smi>  (73) 
Nc1nc(-c2c[nH]c3nccc(Oc4ccc(NC(=O)NC(=O)Cc5ccc(F)cc5)cc4F)c23)cs1

>  <Set>  (73) 
G2 active

>  <Set_type>  (73) 
Train

>  <MW>  (73) 
520.52

>  <HBD>  (73) 
4

>  <HBA>  (73) 
6

>  <NRB>  (73) 
6

>  <NR>  (73) 
5

>  <NAR>  (73) 
5

>  <PSA>  (73) 
135.02

>  <Standard Type>  (73) 
nan

>  <Standard Relation>  (73) 
nan

>  <Standard Units>  (73) 
nan

>  <Standard Value>  (73) 
nan

>  <Assay ChEMBL ID>  (73) 
nan

>  <Assay Description>  (73) 
nan

>  <BAO Label>  (73) 
nan

$$$$

     RDKit          2D

 33 36  0  0  0  0  0  0  0  0999 V2000
    3.0000    0.0000    0.0000 N   0  0  0  0  0  0  0  0  0  0  0  0
    1.5000    0.0000    0.0000 C   0  0  0  0  0  0  0  0  0  0  0  0
    0.7500   -1.2990    0.0000 C   0  0  0  0  0  0  0  0  0  0  0  0
   -0.7500   -1.2990    0.0000 C   0  0  0  0  0  0  0  0  0  0  0  0
   -1.5000   -2.5981    0.0000 O   0  0  0  0  0  0  0  0  0  0  0  0
   -3.0000   -2.5981    0.0000 C   0  0  0  0  0  0  0  0  0  0  0  0
   -3.7500   -1.2990    0.0000 C   0  0  0  0  0  0  0  0  0  0  0  0
   -5.2500   -1.2990    0.0000 C   0  0  0  0  0  0  0  0  0  0  0  0
   -6.0000   -2.5981    0.0000 C   0  0  0  0  0  0  0  0  0  0  0  0
   -7.5000   -2.5981    0.0000 N   0  0  0  0  0  0  0  0  0  0  0  0
   -8.2500   -1.2990    0.0000 C   0  0  0  0  0  0  0  0  0  0  0  0
   -7.5000    0.0000    0.0000 N   0  0  0  0  0  0  0  0  0  0  0  0
   -8.2500    1.2990    0.0000 C   0  0  0  0  0  0  0  0  0  0  0  0
   -9.7500    1.2990    0.0000 C   0  0  0  0  0  0  0  0  0  0  0  0
  -10.5000    0.0000    0.0000 C   0  0  0  0  0  0  0  0  0  0  0  0
   -9.7500   -1.2990    0.0000 C   0  0  0  0  0  0  0  0  0  0  0  0
  -10.5000   -2.5981    0.0000 C   0  0  0  0  0  0  0  0  0  0  0  0
   -9.7500   -3.8971    0.0000 O   0  0  0  0  0  0  0  0  0  0  0  0
  -12.0000   -2.5981    0.0000 N   0  0  0  0  0  0  0  0  0  0  0  0
  -12.7500   -3.8971    0.0000 C   0  0  0  0  0  0  0  0  0  0  0  0
  -14.2500   -3.8971    0.0000 C   0  0  0  0  0  0  0  0  0  0  0  0
  -15.0000   -5.1962    0.0000 C   0  0  0  0  0  0  0  0  0  0  0  0
  -14.2500   -6.4952    0.0000 C   0  0  0  0  0  0  0  0  0  0  0  0
  -15.0000   -7.7942    0.0000 F   0  0  0  0  0  0  0  0  0  0  0  0
  -12.7500   -6.4952    0.0000 C   0  0  0  0  0  0  0  0  0  0  0  0
  -12.0000   -5.1962    0.0000 C   0  0  0  0  0  0  0  0  0  0  0  0
  -10.5000   -5.1962    0.0000 F   0  0  0  0  0  0  0  0  0  0  0  0
   -5.2500   -3.8971    0.0000 C   0  0  0  0  0  0  0  0  0  0  0  0
   -3.7500   -3.8971    0.0000 C   0  0  0  0  0  0  0  0  0  0  0  0
   -3.0000   -5.1962    0.0000 F   0  0  0  0  0  0  0  0  0  0  0  0
   -1.5000    0.0000    0.0000 C   0  0  0  0  0  0  0  0  0  0  0  0
   -0.7500    1.2990    0.0000 C   0  0  0  0  0  0  0  0  0  0  0  0
    0.7500    1.2990    0.0000 N   0  0  0  0  0  0  0  0  0  0  0  0
  1  2  1  0
  2  3  2  0
  3  4  1  0
  4  5  1  0
  5  6  1  0
  6  7  2  0
  7  8  1  0
  8  9  2  0
  9 10  1  0
 10 11  1  0
 11 12  2  0
 12 13  1  0
 13 14  2  0
 14 15  1  0
 15 16  2  0
 16 17  1  0
 17 18  2  0
 17 19  1  0
 19 20  1  0
 20 21  2  0
 21 22  1  0
 22 23  2  0
 23 24  1  0
 23 25  1  0
 25 26  2  0
 26 27  1  0
  9 28  1  0
 28 29  2  0
 29 30  1  0
  4 31  2  0
 31 32  1  0
 32 33  2  0
 33  2  1  0
 29  6  1  0
 16 11  1  0
 26 20  1  0
M  END
>  <Compound_ID>  (74) 
CHEMBL1097142

>  <Active>  (74) 
1.0

>  <Smiles>  (74) 
Nc1cc(Oc2ccc(Nc3ncccc3C(=O)Nc3ccc(F)cc3F)cc2F)ccn1

>  <canonical_smi>  (74) 
Nc1cc(Oc2ccc(Nc3ncccc3C(=O)Nc3ccc(F)cc3F)cc2F)ccn1

>  <Set>  (74) 
G2 active

>  <Set_type>  (74) 
Train

>  <MW>  (74) 
451.41

>  <HBD>  (74) 
3

>  <HBA>  (74) 
6

>  <NRB>  (74) 
6

>  <NR>  (74) 
4

>  <NAR>  (74) 
4

>  <PSA>  (74) 
102.16

>  <Standard Type>  (74) 
nan

>  <Standard Relation>  (74) 
nan

>  <Standard Units>  (74) 
nan

>  <Standard Value>  (74) 
nan

>  <Assay ChEMBL ID>  (74) 
nan

>  <Assay Description>  (74) 
nan

>  <BAO Label>  (74) 
nan

$$$$

     RDKit          2D

 35 39  0  0  0  0  0  0  0  0999 V2000
   -6.2940    7.2357    0.0000 O   0  0  0  0  0  0  0  0  0  0  0  0
   -7.7206    6.7722    0.0000 C   0  0  0  0  0  0  0  0  0  0  0  0
   -8.0325    5.3050    0.0000 N   0  0  0  0  0  0  0  0  0  0  0  0
   -6.9177    4.3013    0.0000 C   0  0  0  0  0  0  0  0  0  0  0  0
   -7.2296    2.8340    0.0000 C   0  0  0  0  0  0  0  0  0  0  0  0
   -6.1149    1.8303    0.0000 C   0  0  0  0  0  0  0  0  0  0  0  0
   -4.6883    2.2939    0.0000 C   0  0  0  0  0  0  0  0  0  0  0  0
   -3.5736    1.2902    0.0000 O   0  0  0  0  0  0  0  0  0  0  0  0
   -2.1470    1.7537    0.0000 C   0  0  0  0  0  0  0  0  0  0  0  0
   -1.8351    3.2209    0.0000 C   0  0  0  0  0  0  0  0  0  0  0  0
   -0.4086    3.6844    0.0000 C   0  0  0  0  0  0  0  0  0  0  0  0
    0.7062    2.6807    0.0000 N   0  0  0  0  0  0  0  0  0  0  0  0
    0.3943    1.2135    0.0000 C   0  0  0  0  0  0  0  0  0  0  0  0
    1.2760    0.0000    0.0000 N   0  0  0  0  0  0  0  0  0  0  0  0
    0.3943   -1.2135    0.0000 C   0  0  0  0  0  0  0  0  0  0  0  0
   -1.0323   -0.7500    0.0000 C   0  0  0  0  0  0  0  0  0  0  0  0
   -1.0323    0.7500    0.0000 C   0  0  0  0  0  0  0  0  0  0  0  0
   -4.3764    3.7611    0.0000 C   0  0  0  0  0  0  0  0  0  0  0  0
   -2.9499    4.2246    0.0000 F   0  0  0  0  0  0  0  0  0  0  0  0
   -5.4912    4.7648    0.0000 C   0  0  0  0  0  0  0  0  0  0  0  0
   -8.8353    7.7759    0.0000 C   0  0  0  0  0  0  0  0  0  0  0  0
   -8.5234    9.2431    0.0000 C   0  0  0  0  0  0  0  0  0  0  0  0
   -9.6382   10.2468    0.0000 C   0  0  0  0  0  0  0  0  0  0  0  0
  -11.0647    9.7833    0.0000 C   0  0  0  0  0  0  0  0  0  0  0  0
  -11.3766    8.3160    0.0000 N   0  0  0  0  0  0  0  0  0  0  0  0
  -12.8032    7.8525    0.0000 C   0  0  0  0  0  0  0  0  0  0  0  0
  -13.9179    8.8562    0.0000 C   0  0  0  0  0  0  0  0  0  0  0  0
  -13.6060   10.3234    0.0000 C   0  0  0  0  0  0  0  0  0  0  0  0
  -14.7208   11.3271    0.0000 C   0  0  0  0  0  0  0  0  0  0  0  0
  -16.1473   10.8636    0.0000 C   0  0  0  0  0  0  0  0  0  0  0  0
  -17.2621   11.8673    0.0000 F   0  0  0  0  0  0  0  0  0  0  0  0
  -16.4592    9.3964    0.0000 C   0  0  0  0  0  0  0  0  0  0  0  0
  -15.3445    8.3927    0.0000 C   0  0  0  0  0  0  0  0  0  0  0  0
  -10.2619    7.3123    0.0000 C   0  0  0  0  0  0  0  0  0  0  0  0
  -10.5738    5.8451    0.0000 O   0  0  0  0  0  0  0  0  0  0  0  0
  1  2  2  0
  2  3  1  0
  3  4  1  0
  4  5  2  0
  5  6  1  0
  6  7  2  0
  7  8  1  0
  8  9  1  0
  9 10  2  0
 10 11  1  0
 11 12  2  0
 12 13  1  0
 13 14  1  0
 14 15  1  0
 15 16  2  0
 16 17  1  0
  7 18  1  0
 18 19  1  0
 18 20  2  0
  2 21  1  0
 21 22  2  0
 22 23  1  0
 23 24  2  0
 24 25  1  0
 25 26  1  0
 26 27  1  0
 27 28  2  0
 28 29  1  0
 29 30  2  0
 30 31  1  0
 30 32  1  0
 32 33  2  0
 25 34  1  0
 34 35  2  0
 20  4  1  0
 34 21  1  0
 17  9  1  0
 33 27  1  0
 17 13  2  0
M  END
>  <Compound_ID>  (75) 
CHEMBL453850

>  <Active>  (75) 
1.0

>  <Smiles>  (75) 
O=C(Nc1ccc(Oc2ccnc3[nH]ccc23)c(F)c1)c1cccn(Cc2ccc(F)cc2)c1=O

>  <canonical_smi>  (75) 
O=C(Nc1ccc(Oc2ccnc3[nH]ccc23)c(F)c1)c1cccn(Cc2ccc(F)cc2)c1=O

>  <Set>  (75) 
G2 active

>  <Set_type>  (75) 
Train

>  <MW>  (75) 
472.45

>  <HBD>  (75) 
2

>  <HBA>  (75) 
4

>  <NRB>  (75) 
6

>  <NR>  (75) 
5

>  <NAR>  (75) 
5

>  <PSA>  (75) 
89.01

>  <Standard Type>  (75) 
nan

>  <Standard Relation>  (75) 
nan

>  <Standard Units>  (75) 
nan

>  <Standard Value>  (75) 
nan

>  <Assay ChEMBL ID>  (75) 
nan

>  <Assay Description>  (75) 
nan

>  <BAO Label>  (75) 
nan

$$$$

     RDKit          2D

 32 37  0  0  0  0  0  0  0  0999 V2000
   -3.1036   -1.7626    0.0000 O   0  0  0  0  0  0  0  0  0  0  0  0
   -2.6401   -3.1891    0.0000 S   0  0  0  0  0  0  0  0  0  0  0  0
   -2.1766   -4.6157    0.0000 O   0  0  0  0  0  0  0  0  0  0  0  0
   -4.0667   -3.6527    0.0000 C   0  0  0  0  0  0  0  0  0  0  0  0
   -5.2802   -2.7710    0.0000 C   0  0  0  0  0  0  0  0  0  0  0  0
   -5.2802   -1.2710    0.0000 Cl  0  0  0  0  0  0  0  0  0  0  0  0
   -6.4937   -3.6527    0.0000 N   0  0  0  0  0  0  0  0  0  0  0  0
   -6.0302   -5.0793    0.0000 C   0  0  0  0  0  0  0  0  0  0  0  0
   -6.4937   -6.5058    0.0000 S   0  0  0  0  0  0  0  0  0  0  0  0
   -5.2802   -7.3875    0.0000 C   0  0  0  0  0  0  0  0  0  0  0  0
   -4.0667   -6.5058    0.0000 C   0  0  0  0  0  0  0  0  0  0  0  0
   -4.5302   -5.0793    0.0000 N   0  0  0  0  0  0  0  0  0  0  0  0
   -1.2135   -2.7256    0.0000 N   0  0  0  0  0  0  0  0  0  0  0  0
   -0.0000   -3.6073    0.0000 C   0  0  0  0  0  0  0  0  0  0  0  0
    1.2135   -2.7256    0.0000 C   0  0  0  0  0  0  0  0  0  0  0  0
    0.7500   -1.2990    0.0000 C   0  0  0  0  0  0  0  0  0  0  0  0
    1.5000    0.0000    0.0000 N   0  0  0  0  0  0  0  0  0  0  0  0
    0.7500    1.2990    0.0000 C   0  0  0  0  0  0  0  0  0  0  0  0
   -0.7500    1.2990    0.0000 C   0  0  0  0  0  0  0  0  0  0  0  0
   -1.5000    2.5981    0.0000 C   0  0  0  0  0  0  0  0  0  0  0  0
   -2.9918    2.7549    0.0000 C   0  0  0  0  0  0  0  0  0  0  0  0
   -3.3037    4.2221    0.0000 N   0  0  0  0  0  0  0  0  0  0  0  0
   -2.0046    4.9721    0.0000 N   0  0  0  0  0  0  0  0  0  0  0  0
   -1.8478    6.4639    0.0000 C   0  0  0  0  0  0  0  0  0  0  0  0
   -0.4775    7.0740    0.0000 C   0  0  0  0  0  0  0  0  0  0  0  0
   -0.3207    8.5658    0.0000 C   0  0  0  0  0  0  0  0  0  0  0  0
   -1.5342    9.4474    0.0000 N   0  0  0  0  0  0  0  0  0  0  0  0
   -2.9046    8.8373    0.0000 C   0  0  0  0  0  0  0  0  0  0  0  0
   -3.0613    7.3456    0.0000 C   0  0  0  0  0  0  0  0  0  0  0  0
   -0.8899    3.9684    0.0000 C   0  0  0  0  0  0  0  0  0  0  0  0
   -1.5000    0.0000    0.0000 C   0  0  0  0  0  0  0  0  0  0  0  0
   -0.7500   -1.2990    0.0000 C   0  0  0  0  0  0  0  0  0  0  0  0
  1  2  2  0
  2  3  2  0
  2  4  1  0
  4  5  2  0
  5  6  1  0
  5  7  1  0
  7  8  2  0
  8  9  1  0
  9 10  1  0
 10 11  2  0
 11 12  1  0
  2 13  1  0
 13 14  1  0
 14 15  2  0
 15 16  1  0
 16 17  2  0
 17 18  1  0
 18 19  2  0
 19 20  1  0
 20 21  1  0
 21 22  2  0
 22 23  1  0
 23 24  1  0
 24 25  1  0
 25 26  1  0
 26 27  1  0
 27 28  1  0
 28 29  1  0
 23 30  1  0
 19 31  1  0
 31 32  2  0
 12  4  1  0
 32 13  1  0
 12  8  1  0
 32 16  1  0
 30 20  2  0
 29 24  1  0
M  END
>  <Compound_ID>  (76) 
CHEMBL564371

>  <Active>  (76) 
1.0

>  <Smiles>  (76) 
O=S(=O)(c1c(Cl)nc2sccn12)n1ccc2ncc(-c3cnn(C4CCNCC4)c3)cc21

>  <canonical_smi>  (76) 
O=S(=O)(c1c(Cl)nc2sccn12)n1ccc2ncc(-c3cnn(C4CCNCC4)c3)cc21

>  <Set>  (76) 
G2 active

>  <Set_type>  (76) 
Train

>  <MW>  (76) 
488.0

>  <HBD>  (76) 
1

>  <HBA>  (76) 
6

>  <NRB>  (76) 
4

>  <NR>  (76) 
6

>  <NAR>  (76) 
5

>  <PSA>  (76) 
99.11

>  <Standard Type>  (76) 
nan

>  <Standard Relation>  (76) 
nan

>  <Standard Units>  (76) 
nan

>  <Standard Value>  (76) 
nan

>  <Assay ChEMBL ID>  (76) 
nan

>  <Assay Description>  (76) 
nan

>  <BAO Label>  (76) 
nan

$$$$

     RDKit          2D

 35 38  0  0  0  0  0  0  0  0999 V2000
    3.7500   -1.2990    0.0000 C   0  0  0  0  0  0  0  0  0  0  0  0
    3.0000    0.0000    0.0000 S   0  0  0  0  0  0  0  0  0  0  0  0
    1.5000    0.0000    0.0000 C   0  0  0  0  0  0  0  0  0  0  0  0
    0.7500   -1.2990    0.0000 N   0  0  0  0  0  0  0  0  0  0  0  0
   -0.7500   -1.2990    0.0000 C   0  0  0  0  0  0  0  0  0  0  0  0
   -1.5000    0.0000    0.0000 C   0  0  0  0  0  0  0  0  0  0  0  0
   -3.0000    0.0000    0.0000 C   0  0  0  0  0  0  0  0  0  0  0  0
   -3.7500   -1.2990    0.0000 O   0  0  0  0  0  0  0  0  0  0  0  0
   -3.7500    1.2990    0.0000 N   0  0  0  0  0  0  0  0  0  0  0  0
   -5.2500    1.2990    0.0000 C   0  0  0  0  0  0  0  0  0  0  0  0
   -6.0000    2.5981    0.0000 C   0  0  0  0  0  0  0  0  0  0  0  0
   -7.5000    2.5981    0.0000 C   0  0  0  0  0  0  0  0  0  0  0  0
   -8.2500    1.2990    0.0000 C   0  0  0  0  0  0  0  0  0  0  0  0
   -9.7500    1.2990    0.0000 F   0  0  0  0  0  0  0  0  0  0  0  0
   -7.5000    0.0000    0.0000 C   0  0  0  0  0  0  0  0  0  0  0  0
   -6.0000    0.0000    0.0000 C   0  0  0  0  0  0  0  0  0  0  0  0
   -5.2500   -1.2990    0.0000 F   0  0  0  0  0  0  0  0  0  0  0  0
   -0.7500    1.2990    0.0000 C   0  0  0  0  0  0  0  0  0  0  0  0
   -1.5000    2.5981    0.0000 N   0  0  0  0  0  0  0  0  0  0  0  0
   -0.7500    3.8971    0.0000 C   0  0  0  0  0  0  0  0  0  0  0  0
    0.7500    3.8971    0.0000 C   0  0  0  0  0  0  0  0  0  0  0  0
    1.5000    5.1962    0.0000 C   0  0  0  0  0  0  0  0  0  0  0  0
    0.7500    6.4952    0.0000 C   0  0  0  0  0  0  0  0  0  0  0  0
    1.5000    7.7942    0.0000 O   0  0  0  0  0  0  0  0  0  0  0  0
    3.0000    7.7942    0.0000 C   0  0  0  0  0  0  0  0  0  0  0  0
    3.7500    6.4952    0.0000 C   0  0  0  0  0  0  0  0  0  0  0  0
    5.2500    6.4952    0.0000 C   0  0  0  0  0  0  0  0  0  0  0  0
    6.0000    7.7942    0.0000 N   0  0  0  0  0  0  0  0  0  0  0  0
    5.2500    9.0933    0.0000 C   0  0  0  0  0  0  0  0  0  0  0  0
    6.0000   10.3923    0.0000 N   0  0  0  0  0  0  0  0  0  0  0  0
    3.7500    9.0933    0.0000 C   0  0  0  0  0  0  0  0  0  0  0  0
   -0.7500    6.4952    0.0000 C   0  0  0  0  0  0  0  0  0  0  0  0
   -1.5000    7.7942    0.0000 F   0  0  0  0  0  0  0  0  0  0  0  0
   -1.5000    5.1962    0.0000 C   0  0  0  0  0  0  0  0  0  0  0  0
    0.7500    1.2990    0.0000 N   0  0  0  0  0  0  0  0  0  0  0  0
  1  2  1  0
  2  3  1  0
  3  4  2  0
  4  5  1  0
  5  6  2  0
  6  7  1  0
  7  8  2  0
  7  9  1  0
  9 10  1  0
 10 11  2  0
 11 12  1  0
 12 13  2  0
 13 14  1  0
 13 15  1  0
 15 16  2  0
 16 17  1  0
  6 18  1  0
 18 19  1  0
 19 20  1  0
 20 21  2  0
 21 22  1  0
 22 23  2  0
 23 24  1  0
 24 25  1  0
 25 26  2  0
 26 27  1  0
 27 28  2  0
 28 29  1  0
 29 30  1  0
 29 31  2  0
 23 32  1  0
 32 33  1  0
 32 34  2  0
 18 35  2  0
 35  3  1  0
 16 10  1  0
 34 20  1  0
 31 25  1  0
M  END
>  <Compound_ID>  (77) 
CHEMBL1096536

>  <Active>  (77) 
1.0

>  <Smiles>  (77) 
CSc1ncc(C(=O)Nc2ccc(F)cc2F)c(Nc2ccc(Oc3ccnc(N)c3)c(F)c2)n1

>  <canonical_smi>  (77) 
CSc1ncc(C(=O)Nc2ccc(F)cc2F)c(Nc2ccc(Oc3ccnc(N)c3)c(F)c2)n1

>  <Set>  (77) 
G2 active

>  <Set_type>  (77) 
Train

>  <MW>  (77) 
498.49

>  <HBD>  (77) 
3

>  <HBA>  (77) 
8

>  <NRB>  (77) 
7

>  <NR>  (77) 
4

>  <NAR>  (77) 
4

>  <PSA>  (77) 
115.05

>  <Standard Type>  (77) 
nan

>  <Standard Relation>  (77) 
nan

>  <Standard Units>  (77) 
nan

>  <Standard Value>  (77) 
nan

>  <Assay ChEMBL ID>  (77) 
nan

>  <Assay Description>  (77) 
nan

>  <BAO Label>  (77) 
nan

$$$$

     RDKit          2D

 33 37  0  0  0  0  0  0  0  0999 V2000
   -6.2940    7.2357    0.0000 O   0  0  0  0  0  0  0  0  0  0  0  0
   -7.7206    6.7722    0.0000 C   0  0  0  0  0  0  0  0  0  0  0  0
   -8.0325    5.3050    0.0000 N   0  0  0  0  0  0  0  0  0  0  0  0
   -6.9177    4.3013    0.0000 C   0  0  0  0  0  0  0  0  0  0  0  0
   -7.2296    2.8340    0.0000 C   0  0  0  0  0  0  0  0  0  0  0  0
   -6.1149    1.8303    0.0000 C   0  0  0  0  0  0  0  0  0  0  0  0
   -4.6883    2.2939    0.0000 C   0  0  0  0  0  0  0  0  0  0  0  0
   -3.5736    1.2902    0.0000 O   0  0  0  0  0  0  0  0  0  0  0  0
   -2.1470    1.7537    0.0000 C   0  0  0  0  0  0  0  0  0  0  0  0
   -1.8351    3.2209    0.0000 C   0  0  0  0  0  0  0  0  0  0  0  0
   -0.4086    3.6844    0.0000 C   0  0  0  0  0  0  0  0  0  0  0  0
    0.7062    2.6807    0.0000 N   0  0  0  0  0  0  0  0  0  0  0  0
    0.3943    1.2135    0.0000 C   0  0  0  0  0  0  0  0  0  0  0  0
    1.2760    0.0000    0.0000 N   0  0  0  0  0  0  0  0  0  0  0  0
    0.3943   -1.2135    0.0000 C   0  0  0  0  0  0  0  0  0  0  0  0
   -1.0323   -0.7500    0.0000 C   0  0  0  0  0  0  0  0  0  0  0  0
   -1.0323    0.7500    0.0000 C   0  0  0  0  0  0  0  0  0  0  0  0
   -4.3764    3.7611    0.0000 C   0  0  0  0  0  0  0  0  0  0  0  0
   -2.9499    4.2246    0.0000 F   0  0  0  0  0  0  0  0  0  0  0  0
   -5.4912    4.7648    0.0000 C   0  0  0  0  0  0  0  0  0  0  0  0
   -8.8353    7.7759    0.0000 C   0  0  0  0  0  0  0  0  0  0  0  0
   -8.5234    9.2431    0.0000 C   0  0  0  0  0  0  0  0  0  0  0  0
   -9.6382   10.2468    0.0000 C   0  0  0  0  0  0  0  0  0  0  0  0
  -11.0647    9.7833    0.0000 C   0  0  0  0  0  0  0  0  0  0  0  0
  -11.3766    8.3160    0.0000 N   0  0  0  0  0  0  0  0  0  0  0  0
  -12.8032    7.8525    0.0000 C   0  0  0  0  0  0  0  0  0  0  0  0
  -13.9179    8.8562    0.0000 C   0  0  0  0  0  0  0  0  0  0  0  0
  -15.3445    8.3927    0.0000 C   0  0  0  0  0  0  0  0  0  0  0  0
  -15.6564    6.9255    0.0000 C   0  0  0  0  0  0  0  0  0  0  0  0
  -14.5416    5.9218    0.0000 C   0  0  0  0  0  0  0  0  0  0  0  0
  -13.1151    6.3853    0.0000 N   0  0  0  0  0  0  0  0  0  0  0  0
  -10.2619    7.3123    0.0000 C   0  0  0  0  0  0  0  0  0  0  0  0
  -10.5738    5.8451    0.0000 O   0  0  0  0  0  0  0  0  0  0  0  0
  1  2  2  0
  2  3  1  0
  3  4  1  0
  4  5  2  0
  5  6  1  0
  6  7  2  0
  7  8  1  0
  8  9  1  0
  9 10  2  0
 10 11  1  0
 11 12  2  0
 12 13  1  0
 13 14  1  0
 14 15  1  0
 15 16  2  0
 16 17  1  0
  7 18  1  0
 18 19  1  0
 18 20  2  0
  2 21  1  0
 21 22  2  0
 22 23  1  0
 23 24  2  0
 24 25  1  0
 25 26  1  0
 26 27  2  0
 27 28  1  0
 28 29  2  0
 29 30  1  0
 30 31  2  0
 25 32  1  0
 32 33  2  0
 20  4  1  0
 32 21  1  0
 17  9  1  0
 31 26  1  0
 17 13  2  0
M  END
>  <Compound_ID>  (78) 
CHEMBL454101

>  <Active>  (78) 
1.0

>  <Smiles>  (78) 
O=C(Nc1ccc(Oc2ccnc3[nH]ccc23)c(F)c1)c1cccn(-c2ccccn2)c1=O

>  <canonical_smi>  (78) 
O=C(Nc1ccc(Oc2ccnc3[nH]ccc23)c(F)c1)c1cccn(-c2ccccn2)c1=O

>  <Set>  (78) 
G2 active

>  <Set_type>  (78) 
Train

>  <MW>  (78) 
441.42

>  <HBD>  (78) 
2

>  <HBA>  (78) 
5

>  <NRB>  (78) 
5

>  <NR>  (78) 
5

>  <NAR>  (78) 
5

>  <PSA>  (78) 
101.9

>  <Standard Type>  (78) 
nan

>  <Standard Relation>  (78) 
nan

>  <Standard Units>  (78) 
nan

>  <Standard Value>  (78) 
nan

>  <Assay ChEMBL ID>  (78) 
nan

>  <Assay Description>  (78) 
nan

>  <BAO Label>  (78) 
nan

$$$$

     RDKit          2D

 22 25  0  0  0  0  0  0  0  0999 V2000
    3.0000    0.0000    0.0000 N   0  0  0  0  0  0  0  0  0  0  0  0
    1.5000    0.0000    0.0000 C   0  0  0  0  0  0  0  0  0  0  0  0
    0.7500   -1.2990    0.0000 C   0  0  0  0  0  0  0  0  0  0  0  0
   -0.7500   -1.2990    0.0000 N   0  0  0  0  0  0  0  0  0  0  0  0
   -1.5000    0.0000    0.0000 C   0  0  0  0  0  0  0  0  0  0  0  0
   -2.9672    0.3119    0.0000 C   0  0  0  0  0  0  0  0  0  0  0  0
   -3.1240    1.8037    0.0000 C   0  0  0  0  0  0  0  0  0  0  0  0
   -1.7537    2.4138    0.0000 N   0  0  0  0  0  0  0  0  0  0  0  0
   -1.4418    3.8810    0.0000 S   0  0  0  0  0  0  0  0  0  0  0  0
    0.0254    3.5691    0.0000 O   0  0  0  0  0  0  0  0  0  0  0  0
   -2.9090    4.1928    0.0000 O   0  0  0  0  0  0  0  0  0  0  0  0
   -1.1300    5.3482    0.0000 C   0  0  0  0  0  0  0  0  0  0  0  0
    0.2404    5.9583    0.0000 C   0  0  0  0  0  0  0  0  0  0  0  0
    1.5394    5.2083    0.0000 Cl  0  0  0  0  0  0  0  0  0  0  0  0
    0.0836    7.4501    0.0000 N   0  0  0  0  0  0  0  0  0  0  0  0
   -1.3837    7.7620    0.0000 C   0  0  0  0  0  0  0  0  0  0  0  0
   -2.3874    8.8767    0.0000 S   0  0  0  0  0  0  0  0  0  0  0  0
   -3.7577    8.2666    0.0000 C   0  0  0  0  0  0  0  0  0  0  0  0
   -3.6009    6.7748    0.0000 C   0  0  0  0  0  0  0  0  0  0  0  0
   -2.1337    6.4629    0.0000 N   0  0  0  0  0  0  0  0  0  0  0  0
   -0.7500    1.2990    0.0000 C   0  0  0  0  0  0  0  0  0  0  0  0
    0.7500    1.2990    0.0000 C   0  0  0  0  0  0  0  0  0  0  0  0
  1  2  1  0
  2  3  2  0
  3  4  1  0
  4  5  2  0
  5  6  1  0
  6  7  2  0
  7  8  1  0
  8  9  1  0
  9 10  2  0
  9 11  2  0
  9 12  1  0
 12 13  2  0
 13 14  1  0
 13 15  1  0
 15 16  2  0
 16 17  1  0
 17 18  1  0
 18 19  2  0
 19 20  1  0
  8 21  1  0
 21 22  2  0
 22  2  1  0
 21  5  1  0
 20 12  1  0
 20 16  1  0
M  END
>  <Compound_ID>  (79) 
CHEMBL558306

>  <Active>  (79) 
1.0

>  <Smiles>  (79) 
Nc1cnc2ccn(S(=O)(=O)c3c(Cl)nc4sccn34)c2c1

>  <canonical_smi>  (79) 
Nc1cnc2ccn(S(=O)(=O)c3c(Cl)nc4sccn34)c2c1

>  <Set>  (79) 
G2 active

>  <Set_type>  (79) 
Train

>  <MW>  (79) 
353.82

>  <HBD>  (79) 
1

>  <HBA>  (79) 
5

>  <NRB>  (79) 
2

>  <NR>  (79) 
4

>  <NAR>  (79) 
4

>  <PSA>  (79) 
95.28

>  <Standard Type>  (79) 
nan

>  <Standard Relation>  (79) 
nan

>  <Standard Units>  (79) 
nan

>  <Standard Value>  (79) 
nan

>  <Assay ChEMBL ID>  (79) 
nan

>  <Assay Description>  (79) 
nan

>  <BAO Label>  (79) 
nan

$$$$

     RDKit          2D

 41 45  0  0  0  0  0  0  0  0999 V2000
    9.7500   -6.4952    0.0000 O   0  0  0  0  0  0  0  0  0  0  0  0
   10.5000   -5.1962    0.0000 C   0  0  0  0  0  0  0  0  0  0  0  0
   12.0000   -5.1962    0.0000 C   0  0  0  0  0  0  0  0  0  0  0  0
   12.7500   -6.4952    0.0000 C   0  0  0  0  0  0  0  0  0  0  0  0
   12.0000   -7.7942    0.0000 C   0  0  0  0  0  0  0  0  0  0  0  0
   12.7500   -9.0933    0.0000 C   0  0  0  0  0  0  0  0  0  0  0  0
   14.2500   -9.0933    0.0000 C   0  0  0  0  0  0  0  0  0  0  0  0
   15.0000  -10.3923    0.0000 F   0  0  0  0  0  0  0  0  0  0  0  0
   15.0000   -7.7942    0.0000 C   0  0  0  0  0  0  0  0  0  0  0  0
   14.2500   -6.4952    0.0000 C   0  0  0  0  0  0  0  0  0  0  0  0
    9.7500   -3.8971    0.0000 N   0  0  0  0  0  0  0  0  0  0  0  0
    8.2500   -3.8971    0.0000 C   0  0  0  0  0  0  0  0  0  0  0  0
    7.5000   -5.1962    0.0000 O   0  0  0  0  0  0  0  0  0  0  0  0
    7.5000   -2.5981    0.0000 N   0  0  0  0  0  0  0  0  0  0  0  0
    6.0000   -2.5981    0.0000 C   0  0  0  0  0  0  0  0  0  0  0  0
    5.2500   -1.2990    0.0000 C   0  0  0  0  0  0  0  0  0  0  0  0
    3.7500   -1.2990    0.0000 C   0  0  0  0  0  0  0  0  0  0  0  0
    3.0000   -2.5981    0.0000 C   0  0  0  0  0  0  0  0  0  0  0  0
    1.5000   -2.5981    0.0000 O   0  0  0  0  0  0  0  0  0  0  0  0
    0.7500   -1.2990    0.0000 C   0  0  0  0  0  0  0  0  0  0  0  0
    1.5000    0.0000    0.0000 C   0  0  0  0  0  0  0  0  0  0  0  0
    0.7500    1.2990    0.0000 C   0  0  0  0  0  0  0  0  0  0  0  0
   -0.7500    1.2990    0.0000 N   0  0  0  0  0  0  0  0  0  0  0  0
   -1.5000    0.0000    0.0000 C   0  0  0  0  0  0  0  0  0  0  0  0
   -2.9672   -0.3119    0.0000 N   0  0  0  0  0  0  0  0  0  0  0  0
   -3.1240   -1.8037    0.0000 C   0  0  0  0  0  0  0  0  0  0  0  0
   -1.7537   -2.4138    0.0000 C   0  0  0  0  0  0  0  0  0  0  0  0
   -1.4418   -3.8810    0.0000 C   0  0  0  0  0  0  0  0  0  0  0  0
   -0.0152   -4.3445    0.0000 O   0  0  0  0  0  0  0  0  0  0  0  0
   -2.5565   -4.8847    0.0000 N   0  0  0  0  0  0  0  0  0  0  0  0
   -2.2447   -6.3519    0.0000 C   0  0  0  0  0  0  0  0  0  0  0  0
   -3.3594   -7.3556    0.0000 C   0  0  0  0  0  0  0  0  0  0  0  0
   -4.7860   -6.8921    0.0000 C   0  0  0  0  0  0  0  0  0  0  0  0
   -5.9007   -7.8958    0.0000 C   0  0  0  0  0  0  0  0  0  0  0  0
   -5.5888   -9.3630    0.0000 C   0  0  0  0  0  0  0  0  0  0  0  0
   -4.1622   -9.8265    0.0000 N   0  0  0  0  0  0  0  0  0  0  0  0
   -3.0475   -8.8228    0.0000 C   0  0  0  0  0  0  0  0  0  0  0  0
   -0.7500   -1.2990    0.0000 C   0  0  0  0  0  0  0  0  0  0  0  0
    3.7500   -3.8971    0.0000 C   0  0  0  0  0  0  0  0  0  0  0  0
    3.0000   -5.1962    0.0000 F   0  0  0  0  0  0  0  0  0  0  0  0
    5.2500   -3.8971    0.0000 C   0  0  0  0  0  0  0  0  0  0  0  0
  1  2  2  0
  2  3  1  0
  3  4  1  0
  4  5  2  0
  5  6  1  0
  6  7  2  0
  7  8  1  0
  7  9  1  0
  9 10  2  0
  2 11  1  0
 11 12  1  0
 12 13  2  0
 12 14  1  0
 14 15  1  0
 15 16  2  0
 16 17  1  0
 17 18  2  0
 18 19  1  0
 19 20  1  0
 20 21  2  0
 21 22  1  0
 22 23  2  0
 23 24  1  0
 24 25  1  0
 25 26  1  0
 26 27  2  0
 27 28  1  0
 28 29  2  0
 28 30  1  0
 30 31  1  0
 31 32  1  0
 32 33  2  0
 33 34  1  0
 34 35  2  0
 35 36  1  0
 36 37  2  0
 27 38  1  0
 18 39  1  0
 39 40  1  0
 39 41  2  0
 10  4  1  0
 41 15  1  0
 38 20  1  0
 38 24  2  0
 37 32  1  0
M  END
>  <Compound_ID>  (80) 
CHEMBL502232

>  <Active>  (80) 
1.0

>  <Smiles>  (80) 
O=C(Cc1ccc(F)cc1)NC(=O)Nc1ccc(Oc2ccnc3[nH]cc(C(=O)NCc4cccnc4)c23)c(F)c1

>  <canonical_smi>  (80) 
O=C(Cc1ccc(F)cc1)NC(=O)Nc1ccc(Oc2ccnc3[nH]cc(C(=O)NCc4cccnc4)c23)c(F)c1

>  <Set>  (80) 
G2 active

>  <Set_type>  (80) 
Train

>  <MW>  (80) 
556.53

>  <HBD>  (80) 
4

>  <HBA>  (80) 
6

>  <NRB>  (80) 
8

>  <NR>  (80) 
5

>  <NAR>  (80) 
5

>  <PSA>  (80) 
138.1

>  <Standard Type>  (80) 
nan

>  <Standard Relation>  (80) 
nan

>  <Standard Units>  (80) 
nan

>  <Standard Value>  (80) 
nan

>  <Assay ChEMBL ID>  (80) 
nan

>  <Assay Description>  (80) 
nan

>  <BAO Label>  (80) 
nan

$$$$

     RDKit          2D

 30 34  0  0  0  0  0  0  0  0999 V2000
    3.0000   -7.7942    0.0000 C   0  0  0  0  0  0  0  0  0  0  0  0
    3.7500   -6.4952    0.0000 C   0  0  0  0  0  0  0  0  0  0  0  0
    5.2500   -6.4952    0.0000 O   0  0  0  0  0  0  0  0  0  0  0  0
    3.0000   -5.1962    0.0000 N   0  0  0  0  0  0  0  0  0  0  0  0
    1.5000   -5.1962    0.0000 C   0  0  0  0  0  0  0  0  0  0  0  0
    0.7500   -3.8971    0.0000 C   0  0  0  0  0  0  0  0  0  0  0  0
    1.5000   -2.5981    0.0000 N   0  0  0  0  0  0  0  0  0  0  0  0
    0.7500   -1.2990    0.0000 C   0  0  0  0  0  0  0  0  0  0  0  0
    1.5000    0.0000    0.0000 C   0  0  0  0  0  0  0  0  0  0  0  0
    0.7500    1.2990    0.0000 N   0  0  0  0  0  0  0  0  0  0  0  0
   -0.7500    1.2990    0.0000 C   0  0  0  0  0  0  0  0  0  0  0  0
   -1.7537    2.4138    0.0000 C   0  0  0  0  0  0  0  0  0  0  0  0
   -3.1240    1.8037    0.0000 C   0  0  0  0  0  0  0  0  0  0  0  0
   -2.9672    0.3119    0.0000 N   0  0  0  0  0  0  0  0  0  0  0  0
   -4.0819   -0.6918    0.0000 S   0  0  0  0  0  0  0  0  0  0  0  0
   -3.0782   -1.8065    0.0000 O   0  0  0  0  0  0  0  0  0  0  0  0
   -5.0856    0.4229    0.0000 O   0  0  0  0  0  0  0  0  0  0  0  0
   -5.1967   -1.6955    0.0000 C   0  0  0  0  0  0  0  0  0  0  0  0
   -4.8848   -3.1627    0.0000 C   0  0  0  0  0  0  0  0  0  0  0  0
   -5.9995   -4.1664    0.0000 C   0  0  0  0  0  0  0  0  0  0  0  0
   -7.4261   -3.7029    0.0000 C   0  0  0  0  0  0  0  0  0  0  0  0
   -7.7380   -2.2357    0.0000 C   0  0  0  0  0  0  0  0  0  0  0  0
   -9.0370   -1.4857    0.0000 N   0  0  0  0  0  0  0  0  0  0  0  0
   -8.7251   -0.0185    0.0000 O   0  0  0  0  0  0  0  0  0  0  0  0
   -7.2333    0.1383    0.0000 N   0  0  0  0  0  0  0  0  0  0  0  0
   -6.6232   -1.2320    0.0000 C   0  0  0  0  0  0  0  0  0  0  0  0
   -1.5000    0.0000    0.0000 C   0  0  0  0  0  0  0  0  0  0  0  0
   -0.7500   -1.2990    0.0000 C   0  0  0  0  0  0  0  0  0  0  0  0
    3.0000   -2.5981    0.0000 C   0  0  0  0  0  0  0  0  0  0  0  0
    3.7500   -3.8971    0.0000 C   0  0  0  0  0  0  0  0  0  0  0  0
  1  2  1  0
  2  3  2  0
  2  4  1  0
  4  5  1  0
  5  6  1  0
  6  7  1  0
  7  8  1  0
  8  9  2  0
  9 10  1  0
 10 11  2  0
 11 12  1  0
 12 13  2  0
 13 14  1  0
 14 15  1  0
 15 16  2  0
 15 17  2  0
 15 18  1  0
 18 19  2  0
 19 20  1  0
 20 21  2  0
 21 22  1  0
 22 23  2  0
 23 24  1  0
 24 25  1  0
 25 26  2  0
 14 27  1  0
 27 28  2  0
  7 29  1  0
 29 30  1  0
 30  4  1  0
 28  8  1  0
 27 11  1  0
 26 18  1  0
 26 22  1  0
M  END
>  <Compound_ID>  (81) 
CHEMBL549980

>  <Active>  (81) 
1.0

>  <Smiles>  (81) 
CC(=O)N1CCN(c2cnc3ccn(S(=O)(=O)c4cccc5nonc45)c3c2)CC1

>  <canonical_smi>  (81) 
CC(=O)N1CCN(c2cnc3ccn(S(=O)(=O)c4cccc5nonc45)c3c2)CC1

>  <Set>  (81) 
G2 active

>  <Set_type>  (81) 
Train

>  <MW>  (81) 
426.46

>  <HBD>  (81) 
0

>  <HBA>  (81) 
8

>  <NRB>  (81) 
3

>  <NR>  (81) 
5

>  <NAR>  (81) 
4

>  <PSA>  (81) 
114.43

>  <Standard Type>  (81) 
nan

>  <Standard Relation>  (81) 
nan

>  <Standard Units>  (81) 
nan

>  <Standard Value>  (81) 
nan

>  <Assay ChEMBL ID>  (81) 
nan

>  <Assay Description>  (81) 
nan

>  <BAO Label>  (81) 
nan

$$$$

     RDKit          2D

 34 39  0  0  0  0  0  0  0  0999 V2000
    6.0000  -10.3923    0.0000 C   0  0  0  0  0  0  0  0  0  0  0  0
    5.2500   -9.0933    0.0000 N   0  0  0  0  0  0  0  0  0  0  0  0
    3.7500   -9.0933    0.0000 C   0  0  0  0  0  0  0  0  0  0  0  0
    3.0000   -7.7942    0.0000 C   0  0  0  0  0  0  0  0  0  0  0  0
    3.7500   -6.4952    0.0000 N   0  0  0  0  0  0  0  0  0  0  0  0
    3.0000   -5.1962    0.0000 C   0  0  0  0  0  0  0  0  0  0  0  0
    3.7500   -3.8971    0.0000 C   0  0  0  0  0  0  0  0  0  0  0  0
    3.0000   -2.5981    0.0000 C   0  0  0  0  0  0  0  0  0  0  0  0
    1.5000   -2.5981    0.0000 C   0  0  0  0  0  0  0  0  0  0  0  0
    0.7500   -1.2990    0.0000 C   0  0  0  0  0  0  0  0  0  0  0  0
    1.5000    0.0000    0.0000 C   0  0  0  0  0  0  0  0  0  0  0  0
    0.7500    1.2990    0.0000 N   0  0  0  0  0  0  0  0  0  0  0  0
   -0.7500    1.2990    0.0000 C   0  0  0  0  0  0  0  0  0  0  0  0
   -1.7537    2.4138    0.0000 C   0  0  0  0  0  0  0  0  0  0  0  0
   -3.1240    1.8037    0.0000 C   0  0  0  0  0  0  0  0  0  0  0  0
   -2.9672    0.3119    0.0000 N   0  0  0  0  0  0  0  0  0  0  0  0
   -4.0819   -0.6918    0.0000 S   0  0  0  0  0  0  0  0  0  0  0  0
   -3.0782   -1.8065    0.0000 O   0  0  0  0  0  0  0  0  0  0  0  0
   -5.0856    0.4229    0.0000 O   0  0  0  0  0  0  0  0  0  0  0  0
   -5.1967   -1.6955    0.0000 C   0  0  0  0  0  0  0  0  0  0  0  0
   -4.8848   -3.1627    0.0000 C   0  0  0  0  0  0  0  0  0  0  0  0
   -5.9995   -4.1664    0.0000 C   0  0  0  0  0  0  0  0  0  0  0  0
   -7.4261   -3.7029    0.0000 C   0  0  0  0  0  0  0  0  0  0  0  0
   -7.7380   -2.2357    0.0000 C   0  0  0  0  0  0  0  0  0  0  0  0
   -9.0370   -1.4857    0.0000 N   0  0  0  0  0  0  0  0  0  0  0  0
   -8.7251   -0.0185    0.0000 O   0  0  0  0  0  0  0  0  0  0  0  0
   -7.2333    0.1383    0.0000 N   0  0  0  0  0  0  0  0  0  0  0  0
   -6.6232   -1.2320    0.0000 C   0  0  0  0  0  0  0  0  0  0  0  0
   -1.5000    0.0000    0.0000 C   0  0  0  0  0  0  0  0  0  0  0  0
   -0.7500   -1.2990    0.0000 C   0  0  0  0  0  0  0  0  0  0  0  0
    0.7500   -3.8971    0.0000 C   0  0  0  0  0  0  0  0  0  0  0  0
    1.5000   -5.1962    0.0000 N   0  0  0  0  0  0  0  0  0  0  0  0
    5.2500   -6.4952    0.0000 C   0  0  0  0  0  0  0  0  0  0  0  0
    6.0000   -7.7942    0.0000 C   0  0  0  0  0  0  0  0  0  0  0  0
  1  2  1  0
  2  3  1  0
  3  4  1  0
  4  5  1  0
  5  6  1  0
  6  7  2  0
  7  8  1  0
  8  9  2  0
  9 10  1  0
 10 11  2  0
 11 12  1  0
 12 13  2  0
 13 14  1  0
 14 15  2  0
 15 16  1  0
 16 17  1  0
 17 18  2  0
 17 19  2  0
 17 20  1  0
 20 21  2  0
 21 22  1  0
 22 23  2  0
 23 24  1  0
 24 25  2  0
 25 26  1  0
 26 27  1  0
 27 28  2  0
 16 29  1  0
 29 30  2  0
  9 31  1  0
 31 32  2  0
  5 33  1  0
 33 34  1  0
 34  2  1  0
 32  6  1  0
 30 10  1  0
 29 13  1  0
 28 20  1  0
 28 24  1  0
M  END
>  <Compound_ID>  (82) 
CHEMBL551458

>  <Active>  (82) 
1.0

>  <Smiles>  (82) 
CN1CCN(c2ccc(-c3cnc4ccn(S(=O)(=O)c5cccc6nonc56)c4c3)cn2)CC1

>  <canonical_smi>  (82) 
CN1CCN(c2ccc(-c3cnc4ccn(S(=O)(=O)c5cccc6nonc56)c4c3)cn2)CC1

>  <Set>  (82) 
G2 active

>  <Set_type>  (82) 
Train

>  <MW>  (82) 
475.53

>  <HBD>  (82) 
0

>  <HBA>  (82) 
9

>  <NRB>  (82) 
4

>  <NR>  (82) 
6

>  <NAR>  (82) 
5

>  <PSA>  (82) 
110.25

>  <Standard Type>  (82) 
nan

>  <Standard Relation>  (82) 
nan

>  <Standard Units>  (82) 
nan

>  <Standard Value>  (82) 
nan

>  <Assay ChEMBL ID>  (82) 
nan

>  <Assay Description>  (82) 
nan

>  <BAO Label>  (82) 
nan

$$$$

     RDKit          2D

 22 25  0  0  0  0  0  0  0  0999 V2000
    3.0000    0.0000    0.0000 N   0  0  0  0  0  0  0  0  0  0  0  0
    1.5000    0.0000    0.0000 C   0  0  0  0  0  0  0  0  0  0  0  0
    0.7500   -1.2990    0.0000 C   0  0  0  0  0  0  0  0  0  0  0  0
   -0.7500   -1.2990    0.0000 N   0  0  0  0  0  0  0  0  0  0  0  0
   -1.5000    0.0000    0.0000 C   0  0  0  0  0  0  0  0  0  0  0  0
   -2.9672    0.3119    0.0000 C   0  0  0  0  0  0  0  0  0  0  0  0
   -3.1240    1.8037    0.0000 C   0  0  0  0  0  0  0  0  0  0  0  0
   -1.7537    2.4138    0.0000 N   0  0  0  0  0  0  0  0  0  0  0  0
   -1.4418    3.8810    0.0000 S   0  0  0  0  0  0  0  0  0  0  0  0
    0.0254    3.5691    0.0000 O   0  0  0  0  0  0  0  0  0  0  0  0
   -2.9090    4.1928    0.0000 O   0  0  0  0  0  0  0  0  0  0  0  0
   -1.1300    5.3482    0.0000 C   0  0  0  0  0  0  0  0  0  0  0  0
    0.2966    5.8117    0.0000 C   0  0  0  0  0  0  0  0  0  0  0  0
    0.6085    7.2789    0.0000 C   0  0  0  0  0  0  0  0  0  0  0  0
   -0.5062    8.2826    0.0000 C   0  0  0  0  0  0  0  0  0  0  0  0
   -1.9328    7.8191    0.0000 C   0  0  0  0  0  0  0  0  0  0  0  0
   -3.2318    8.5691    0.0000 N   0  0  0  0  0  0  0  0  0  0  0  0
   -4.3466    7.5654    0.0000 O   0  0  0  0  0  0  0  0  0  0  0  0
   -3.7365    6.1951    0.0000 N   0  0  0  0  0  0  0  0  0  0  0  0
   -2.2447    6.3519    0.0000 C   0  0  0  0  0  0  0  0  0  0  0  0
   -0.7500    1.2990    0.0000 C   0  0  0  0  0  0  0  0  0  0  0  0
    0.7500    1.2990    0.0000 C   0  0  0  0  0  0  0  0  0  0  0  0
  1  2  1  0
  2  3  2  0
  3  4  1  0
  4  5  2  0
  5  6  1  0
  6  7  2  0
  7  8  1  0
  8  9  1  0
  9 10  2  0
  9 11  2  0
  9 12  1  0
 12 13  2  0
 13 14  1  0
 14 15  2  0
 15 16  1  0
 16 17  2  0
 17 18  1  0
 18 19  1  0
 19 20  2  0
  8 21  1  0
 21 22  2  0
 22  2  1  0
 21  5  1  0
 20 12  1  0
 20 16  1  0
M  END
>  <Compound_ID>  (83) 
CHEMBL562063

>  <Active>  (83) 
1.0

>  <Smiles>  (83) 
Nc1cnc2ccn(S(=O)(=O)c3cccc4nonc34)c2c1

>  <canonical_smi>  (83) 
Nc1cnc2ccn(S(=O)(=O)c3cccc4nonc34)c2c1

>  <Set>  (83) 
G2 active

>  <Set_type>  (83) 
Train

>  <MW>  (83) 
315.31

>  <HBD>  (83) 
1

>  <HBA>  (83) 
7

>  <NRB>  (83) 
2

>  <NR>  (83) 
4

>  <NAR>  (83) 
4

>  <PSA>  (83) 
116.9

>  <Standard Type>  (83) 
nan

>  <Standard Relation>  (83) 
nan

>  <Standard Units>  (83) 
nan

>  <Standard Value>  (83) 
nan

>  <Assay ChEMBL ID>  (83) 
nan

>  <Assay Description>  (83) 
nan

>  <BAO Label>  (83) 
nan

$$$$

     RDKit          2D

 34 38  0  0  0  0  0  0  0  0999 V2000
    3.0000   -5.1962    0.0000 C   0  0  0  0  0  0  0  0  0  0  0  0
    1.5000   -5.1962    0.0000 O   0  0  0  0  0  0  0  0  0  0  0  0
    0.7500   -3.8971    0.0000 C   0  0  0  0  0  0  0  0  0  0  0  0
    1.5000   -2.5981    0.0000 C   0  0  0  0  0  0  0  0  0  0  0  0
    0.7500   -1.2990    0.0000 C   0  0  0  0  0  0  0  0  0  0  0  0
    1.5000    0.0000    0.0000 N   0  0  0  0  0  0  0  0  0  0  0  0
    0.7500    1.2990    0.0000 C   0  0  0  0  0  0  0  0  0  0  0  0
   -0.7500    1.2990    0.0000 C   0  0  0  0  0  0  0  0  0  0  0  0
   -1.5000    0.0000    0.0000 C   0  0  0  0  0  0  0  0  0  0  0  0
   -3.0000    0.0000    0.0000 O   0  0  0  0  0  0  0  0  0  0  0  0
   -3.7500    1.2990    0.0000 C   0  0  0  0  0  0  0  0  0  0  0  0
   -3.0000    2.5981    0.0000 C   0  0  0  0  0  0  0  0  0  0  0  0
   -3.7500    3.8971    0.0000 C   0  0  0  0  0  0  0  0  0  0  0  0
   -5.2500    3.8971    0.0000 C   0  0  0  0  0  0  0  0  0  0  0  0
   -6.2537    5.0118    0.0000 N   0  0  0  0  0  0  0  0  0  0  0  0
   -7.6240    4.4017    0.0000 C   0  0  0  0  0  0  0  0  0  0  0  0
   -8.9231    5.1517    0.0000 N   0  0  0  0  0  0  0  0  0  0  0  0
   -8.9231    6.6517    0.0000 C   0  0  0  0  0  0  0  0  0  0  0  0
   -7.6240    7.4017    0.0000 O   0  0  0  0  0  0  0  0  0  0  0  0
  -10.2221    7.4017    0.0000 C   0  0  0  0  0  0  0  0  0  0  0  0
  -10.2221    8.9017    0.0000 C   0  0  0  0  0  0  0  0  0  0  0  0
   -8.9231    9.6517    0.0000 C   0  0  0  0  0  0  0  0  0  0  0  0
   -8.9231   11.1517    0.0000 C   0  0  0  0  0  0  0  0  0  0  0  0
  -10.2221   11.9017    0.0000 C   0  0  0  0  0  0  0  0  0  0  0  0
  -11.5211   11.1517    0.0000 C   0  0  0  0  0  0  0  0  0  0  0  0
  -11.5211    9.6517    0.0000 C   0  0  0  0  0  0  0  0  0  0  0  0
   -7.4672    2.9099    0.0000 S   0  0  0  0  0  0  0  0  0  0  0  0
   -6.0000    2.5981    0.0000 C   0  0  0  0  0  0  0  0  0  0  0  0
   -5.2500    1.2990    0.0000 C   0  0  0  0  0  0  0  0  0  0  0  0
   -0.7500   -1.2990    0.0000 C   0  0  0  0  0  0  0  0  0  0  0  0
   -1.5000   -2.5981    0.0000 C   0  0  0  0  0  0  0  0  0  0  0  0
   -0.7500   -3.8971    0.0000 C   0  0  0  0  0  0  0  0  0  0  0  0
   -1.5000   -5.1962    0.0000 O   0  0  0  0  0  0  0  0  0  0  0  0
   -3.0000   -5.1962    0.0000 C   0  0  0  0  0  0  0  0  0  0  0  0
  1  2  1  0
  2  3  1  0
  3  4  2  0
  4  5  1  0
  5  6  2  0
  6  7  1  0
  7  8  2  0
  8  9  1  0
  9 10  1  0
 10 11  1  0
 11 12  2  0
 12 13  1  0
 13 14  2  0
 14 15  1  0
 15 16  2  0
 16 17  1  0
 17 18  1  0
 18 19  2  0
 18 20  1  0
 20 21  1  0
 21 22  2  0
 22 23  1  0
 23 24  2  0
 24 25  1  0
 25 26  2  0
 16 27  1  0
 27 28  1  0
 28 29  2  0
  9 30  2  0
 30 31  1  0
 31 32  2  0
 32 33  1  0
 33 34  1  0
 32  3  1  0
 30  5  1  0
 29 11  1  0
 28 14  1  0
 26 21  1  0
M  END
>  <Compound_ID>  (84) 
CHEMBL460791

>  <Active>  (84) 
1.0

>  <Smiles>  (84) 
COc1cc2nccc(Oc3ccc4nc(NC(=O)Cc5ccccc5)sc4c3)c2cc1OC

>  <canonical_smi>  (84) 
COc1cc2nccc(Oc3ccc4nc(NC(=O)Cc5ccccc5)sc4c3)c2cc1OC

>  <Set>  (84) 
G2 active

>  <Set_type>  (84) 
Train

>  <MW>  (84) 
471.54

>  <HBD>  (84) 
1

>  <HBA>  (84) 
6

>  <NRB>  (84) 
7

>  <NR>  (84) 
5

>  <NAR>  (84) 
5

>  <PSA>  (84) 
82.57

>  <Standard Type>  (84) 
nan

>  <Standard Relation>  (84) 
nan

>  <Standard Units>  (84) 
nan

>  <Standard Value>  (84) 
nan

>  <Assay ChEMBL ID>  (84) 
nan

>  <Assay Description>  (84) 
nan

>  <BAO Label>  (84) 
nan

$$$$

     RDKit          2D

 34 37  0  0  0  0  0  0  0  0999 V2000
    3.7500   -6.4952    0.0000 C   0  0  0  0  0  0  0  0  0  0  0  0
    3.0000   -5.1962    0.0000 N   0  0  0  0  0  0  0  0  0  0  0  0
    1.5000   -5.1962    0.0000 C   0  0  0  0  0  0  0  0  0  0  0  0
    0.7500   -3.8971    0.0000 C   0  0  0  0  0  0  0  0  0  0  0  0
    1.5000   -2.5981    0.0000 N   0  0  0  0  0  0  0  0  0  0  0  0
    0.7500   -1.2990    0.0000 C   0  0  0  0  0  0  0  0  0  0  0  0
    1.5000    0.0000    0.0000 C   0  0  0  0  0  0  0  0  0  0  0  0
    0.7500    1.2990    0.0000 N   0  0  0  0  0  0  0  0  0  0  0  0
   -0.7500    1.2990    0.0000 C   0  0  0  0  0  0  0  0  0  0  0  0
   -1.5000    2.5981    0.0000 C   0  0  0  0  0  0  0  0  0  0  0  0
   -3.0000    2.5981    0.0000 C   0  0  0  0  0  0  0  0  0  0  0  0
   -3.7500    3.8971    0.0000 C   0  0  0  0  0  0  0  0  0  0  0  0
   -4.5000    5.1962    0.0000 F   0  0  0  0  0  0  0  0  0  0  0  0
   -2.4510    4.6471    0.0000 F   0  0  0  0  0  0  0  0  0  0  0  0
   -5.0490    3.1471    0.0000 F   0  0  0  0  0  0  0  0  0  0  0  0
   -3.7500    1.2990    0.0000 C   0  0  0  0  0  0  0  0  0  0  0  0
   -3.0000    0.0000    0.0000 C   0  0  0  0  0  0  0  0  0  0  0  0
   -3.7500   -1.2990    0.0000 N   0  0  0  0  0  0  0  0  0  0  0  0
   -5.2500   -1.2990    0.0000 S   0  0  0  0  0  0  0  0  0  0  0  0
   -5.2500    0.2010    0.0000 O   0  0  0  0  0  0  0  0  0  0  0  0
   -5.2500   -2.7990    0.0000 O   0  0  0  0  0  0  0  0  0  0  0  0
   -6.7500   -1.2990    0.0000 C   0  0  0  0  0  0  0  0  0  0  0  0
   -7.5000    0.0000    0.0000 C   0  0  0  0  0  0  0  0  0  0  0  0
   -9.0000    0.0000    0.0000 C   0  0  0  0  0  0  0  0  0  0  0  0
   -9.7500   -1.2990    0.0000 C   0  0  0  0  0  0  0  0  0  0  0  0
   -9.0000   -2.5981    0.0000 C   0  0  0  0  0  0  0  0  0  0  0  0
   -9.7500   -3.8971    0.0000 N   0  0  0  0  0  4  0  0  0  0  0  0
   -9.0000   -5.1962    0.0000 O   0  0  0  0  0  0  0  0  0  0  0  0
  -11.2500   -3.8971    0.0000 O   0  0  0  0  0  1  0  0  0  0  0  0
   -7.5000   -2.5981    0.0000 C   0  0  0  0  0  0  0  0  0  0  0  0
   -1.5000    0.0000    0.0000 C   0  0  0  0  0  0  0  0  0  0  0  0
   -0.7500   -1.2990    0.0000 N   0  0  0  0  0  0  0  0  0  0  0  0
    3.0000   -2.5981    0.0000 C   0  0  0  0  0  0  0  0  0  0  0  0
    3.7500   -3.8971    0.0000 C   0  0  0  0  0  0  0  0  0  0  0  0
  1  2  1  0
  2  3  1  0
  3  4  1  0
  4  5  1  0
  5  6  1  0
  6  7  2  0
  7  8  1  0
  8  9  2  0
  9 10  1  0
 10 11  2  0
 11 12  1  0
 12 13  1  0
 12 14  1  0
 12 15  1  0
 11 16  1  0
 16 17  2  0
 17 18  1  0
 18 19  1  0
 19 20  2  0
 19 21  2  0
 19 22  1  0
 22 23  2  0
 23 24  1  0
 24 25  2  0
 25 26  1  0
 26 27  1  0
 27 28  2  0
 27 29  1  0
 26 30  2  0
 17 31  1  0
 31 32  2  0
  5 33  1  0
 33 34  1  0
 34  2  1  0
 32  6  1  0
 31  9  1  0
 30 22  1  0
M  CHG  2  27   1  29  -1
M  END
>  <Compound_ID>  (85) 
CHEMBL462707

>  <Active>  (85) 
1.0

>  <Smiles>  (85) 
CN1CCN(c2cnc3cc(C(F)(F)F)cc(NS(=O)(=O)c4cccc([N+](=O)[O-])c4)c3n2)CC1

>  <canonical_smi>  (85) 
CN1CCN(c2cnc3cc(C(F)(F)F)cc(NS(=O)(=O)c4cccc([N+](=O)[O-])c4)c3n2)CC1

>  <Set>  (85) 
G2 active

>  <Set_type>  (85) 
Train

>  <MW>  (85) 
496.47

>  <HBD>  (85) 
1

>  <HBA>  (85) 
8

>  <NRB>  (85) 
5

>  <NR>  (85) 
4

>  <NAR>  (85) 
3

>  <PSA>  (85) 
121.57

>  <Standard Type>  (85) 
nan

>  <Standard Relation>  (85) 
nan

>  <Standard Units>  (85) 
nan

>  <Standard Value>  (85) 
nan

>  <Assay ChEMBL ID>  (85) 
nan

>  <Assay Description>  (85) 
nan

>  <BAO Label>  (85) 
nan

$$$$

     RDKit          2D

 40 44  0  0  0  0  0  0  0  0999 V2000
    9.7500   -6.4952    0.0000 O   0  0  0  0  0  0  0  0  0  0  0  0
   10.5000   -5.1962    0.0000 C   0  0  0  0  0  0  0  0  0  0  0  0
   12.0000   -5.1962    0.0000 C   0  0  0  0  0  0  0  0  0  0  0  0
   12.7500   -6.4952    0.0000 C   0  0  0  0  0  0  0  0  0  0  0  0
   12.0000   -7.7942    0.0000 C   0  0  0  0  0  0  0  0  0  0  0  0
   12.7500   -9.0933    0.0000 C   0  0  0  0  0  0  0  0  0  0  0  0
   14.2500   -9.0933    0.0000 C   0  0  0  0  0  0  0  0  0  0  0  0
   15.0000  -10.3923    0.0000 F   0  0  0  0  0  0  0  0  0  0  0  0
   15.0000   -7.7942    0.0000 C   0  0  0  0  0  0  0  0  0  0  0  0
   14.2500   -6.4952    0.0000 C   0  0  0  0  0  0  0  0  0  0  0  0
    9.7500   -3.8971    0.0000 N   0  0  0  0  0  0  0  0  0  0  0  0
    8.2500   -3.8971    0.0000 C   0  0  0  0  0  0  0  0  0  0  0  0
    7.5000   -5.1962    0.0000 O   0  0  0  0  0  0  0  0  0  0  0  0
    7.5000   -2.5981    0.0000 N   0  0  0  0  0  0  0  0  0  0  0  0
    6.0000   -2.5981    0.0000 C   0  0  0  0  0  0  0  0  0  0  0  0
    5.2500   -1.2990    0.0000 C   0  0  0  0  0  0  0  0  0  0  0  0
    3.7500   -1.2990    0.0000 C   0  0  0  0  0  0  0  0  0  0  0  0
    3.0000   -2.5981    0.0000 C   0  0  0  0  0  0  0  0  0  0  0  0
    1.5000   -2.5981    0.0000 O   0  0  0  0  0  0  0  0  0  0  0  0
    0.7500   -1.2990    0.0000 C   0  0  0  0  0  0  0  0  0  0  0  0
    1.5000    0.0000    0.0000 C   0  0  0  0  0  0  0  0  0  0  0  0
    0.7500    1.2990    0.0000 C   0  0  0  0  0  0  0  0  0  0  0  0
   -0.7500    1.2990    0.0000 N   0  0  0  0  0  0  0  0  0  0  0  0
   -1.5000    0.0000    0.0000 C   0  0  0  0  0  0  0  0  0  0  0  0
   -2.9672   -0.3119    0.0000 N   0  0  0  0  0  0  0  0  0  0  0  0
   -3.1240   -1.8037    0.0000 C   0  0  0  0  0  0  0  0  0  0  0  0
   -1.7537   -2.4138    0.0000 C   0  0  0  0  0  0  0  0  0  0  0  0
   -1.4418   -3.8810    0.0000 C   0  0  0  0  0  0  0  0  0  0  0  0
   -0.0152   -4.3445    0.0000 O   0  0  0  0  0  0  0  0  0  0  0  0
   -2.5565   -4.8847    0.0000 C   0  0  0  0  0  0  0  0  0  0  0  0
   -2.2447   -6.3519    0.0000 N   0  0  0  0  0  0  0  0  0  0  0  0
   -0.8744   -6.9620    0.0000 C   0  0  0  0  0  0  0  0  0  0  0  0
   -1.0312   -8.4538    0.0000 C   0  0  0  0  0  0  0  0  0  0  0  0
   -2.4984   -8.7656    0.0000 C   0  0  0  0  0  0  0  0  0  0  0  0
   -3.1085  -10.1360    0.0000 O   0  0  0  0  0  0  0  0  0  0  0  0
   -3.2484   -7.4666    0.0000 C   0  0  0  0  0  0  0  0  0  0  0  0
   -0.7500   -1.2990    0.0000 C   0  0  0  0  0  0  0  0  0  0  0  0
    3.7500   -3.8971    0.0000 C   0  0  0  0  0  0  0  0  0  0  0  0
    3.0000   -5.1962    0.0000 F   0  0  0  0  0  0  0  0  0  0  0  0
    5.2500   -3.8971    0.0000 C   0  0  0  0  0  0  0  0  0  0  0  0
  1  2  2  0
  2  3  1  0
  3  4  1  0
  4  5  2  0
  5  6  1  0
  6  7  2  0
  7  8  1  0
  7  9  1  0
  9 10  2  0
  2 11  1  0
 11 12  1  0
 12 13  2  0
 12 14  1  0
 14 15  1  0
 15 16  2  0
 16 17  1  0
 17 18  2  0
 18 19  1  0
 19 20  1  0
 20 21  2  0
 21 22  1  0
 22 23  2  0
 23 24  1  0
 24 25  1  0
 25 26  1  0
 26 27  2  0
 27 28  1  0
 28 29  2  0
 28 30  1  0
 30 31  1  0
 31 32  1  0
 32 33  1  0
 33 34  1  0
 34 35  1  0
 34 36  1  0
 27 37  1  0
 18 38  1  0
 38 39  1  0
 38 40  2  0
 10  4  1  0
 40 15  1  0
 37 20  1  0
 37 24  2  0
 36 31  1  0
M  END
>  <Compound_ID>  (86) 
CHEMBL502544

>  <Active>  (86) 
1.0

>  <Smiles>  (86) 
O=C(Cc1ccc(F)cc1)NC(=O)Nc1ccc(Oc2ccnc3[nH]cc(C(=O)CN4CCC(O)C4)c23)c(F)c1

>  <canonical_smi>  (86) 
O=C(Cc1ccc(F)cc1)NC(=O)Nc1ccc(Oc2ccnc3[nH]cc(C(=O)CN4CCC(O)C4)c23)c(F)c1

>  <Set>  (86) 
G2 active

>  <Set_type>  (86) 
Train

>  <MW>  (86) 
549.53

>  <HBD>  (86) 
4

>  <HBA>  (86) 
7

>  <NRB>  (86) 
8

>  <NR>  (86) 
5

>  <NAR>  (86) 
4

>  <PSA>  (86) 
136.65

>  <Standard Type>  (86) 
nan

>  <Standard Relation>  (86) 
nan

>  <Standard Units>  (86) 
nan

>  <Standard Value>  (86) 
nan

>  <Assay ChEMBL ID>  (86) 
nan

>  <Assay Description>  (86) 
nan

>  <BAO Label>  (86) 
nan

$$$$

     RDKit          2D

 39 43  0  0  0  0  0  0  0  0999 V2000
   -5.7749   -4.8348    0.0000 C   0  0  0  0  0  0  0  0  0  0  0  0
   -5.1648   -6.2051    0.0000 C   0  0  0  0  0  0  0  0  0  0  0  0
   -3.6731   -6.3619    0.0000 N   0  0  0  0  0  0  0  0  0  0  0  0
   -2.9231   -7.6610    0.0000 C   0  0  0  0  0  0  0  0  0  0  0  0
   -1.4558   -7.3491    0.0000 N   0  0  0  0  0  0  0  0  0  0  0  0
   -1.2990   -5.8573    0.0000 C   0  0  0  0  0  0  0  0  0  0  0  0
   -0.0000   -5.1073    0.0000 C   0  0  0  0  0  0  0  0  0  0  0  0
    1.2990   -5.8573    0.0000 O   0  0  0  0  0  0  0  0  0  0  0  0
   -0.0000   -3.6073    0.0000 C   0  0  0  0  0  0  0  0  0  0  0  0
    1.2135   -2.7256    0.0000 C   0  0  0  0  0  0  0  0  0  0  0  0
    0.7500   -1.2990    0.0000 C   0  0  0  0  0  0  0  0  0  0  0  0
    1.5000    0.0000    0.0000 N   0  0  0  0  0  0  0  0  0  0  0  0
    0.7500    1.2990    0.0000 C   0  0  0  0  0  0  0  0  0  0  0  0
   -0.7500    1.2990    0.0000 C   0  0  0  0  0  0  0  0  0  0  0  0
   -1.5000    0.0000    0.0000 C   0  0  0  0  0  0  0  0  0  0  0  0
   -3.0000    0.0000    0.0000 O   0  0  0  0  0  0  0  0  0  0  0  0
   -3.7500    1.2990    0.0000 C   0  0  0  0  0  0  0  0  0  0  0  0
   -3.0000    2.5981    0.0000 C   0  0  0  0  0  0  0  0  0  0  0  0
   -3.7500    3.8971    0.0000 C   0  0  0  0  0  0  0  0  0  0  0  0
   -5.2500    3.8971    0.0000 C   0  0  0  0  0  0  0  0  0  0  0  0
   -6.0000    5.1962    0.0000 N   0  0  0  0  0  0  0  0  0  0  0  0
   -5.2500    6.4952    0.0000 C   0  0  0  0  0  0  0  0  0  0  0  0
   -3.7500    6.4952    0.0000 O   0  0  0  0  0  0  0  0  0  0  0  0
   -6.0000    7.7942    0.0000 C   0  0  0  0  0  0  0  0  0  0  0  0
   -5.2500    9.0933    0.0000 C   0  0  0  0  0  0  0  0  0  0  0  0
   -3.7500    9.0933    0.0000 O   0  0  0  0  0  0  0  0  0  0  0  0
   -6.0000   10.3923    0.0000 N   0  0  0  0  0  0  0  0  0  0  0  0
   -5.2500   11.6913    0.0000 C   0  0  0  0  0  0  0  0  0  0  0  0
   -3.7500   11.6913    0.0000 C   0  0  0  0  0  0  0  0  0  0  0  0
   -3.0000   12.9904    0.0000 C   0  0  0  0  0  0  0  0  0  0  0  0
   -3.7500   14.2894    0.0000 C   0  0  0  0  0  0  0  0  0  0  0  0
   -5.2500   14.2894    0.0000 C   0  0  0  0  0  0  0  0  0  0  0  0
   -6.0000   12.9904    0.0000 C   0  0  0  0  0  0  0  0  0  0  0  0
   -6.0000    2.5981    0.0000 C   0  0  0  0  0  0  0  0  0  0  0  0
   -5.2500    1.2990    0.0000 C   0  0  0  0  0  0  0  0  0  0  0  0
   -6.0000    0.0000    0.0000 F   0  0  0  0  0  0  0  0  0  0  0  0
   -0.7500   -1.2990    0.0000 C   0  0  0  0  0  0  0  0  0  0  0  0
   -1.2135   -2.7256    0.0000 S   0  0  0  0  0  0  0  0  0  0  0  0
   -2.6694   -5.2472    0.0000 C   0  0  0  0  0  0  0  0  0  0  0  0
  1  2  1  0
  2  3  1  0
  3  4  1  0
  4  5  2  0
  5  6  1  0
  6  7  1  0
  7  8  2  0
  7  9  1  0
  9 10  2  0
 10 11  1  0
 11 12  2  0
 12 13  1  0
 13 14  2  0
 14 15  1  0
 15 16  1  0
 16 17  1  0
 17 18  2  0
 18 19  1  0
 19 20  2  0
 20 21  1  0
 21 22  1  0
 22 23  2  0
 22 24  1  0
 24 25  1  0
 25 26  2  0
 25 27  1  0
 27 28  1  0
 28 29  2  0
 29 30  1  0
 30 31  2  0
 31 32  1  0
 32 33  2  0
 20 34  1  0
 34 35  2  0
 35 36  1  0
 15 37  2  0
 37 38  1  0
  6 39  2  0
 39  3  1  0
 38  9  1  0
 37 11  1  0
 35 17  1  0
 33 28  1  0
M  END
>  <Compound_ID>  (87) 
CHEMBL565990

>  <Active>  (87) 
1.0

>  <Smiles>  (87) 
CCn1cnc(C(=O)c2cc3nccc(Oc4ccc(NC(=O)CC(=O)Nc5ccccc5)cc4F)c3s2)c1

>  <canonical_smi>  (87) 
CCn1cnc(C(=O)c2cc3nccc(Oc4ccc(NC(=O)CC(=O)Nc5ccccc5)cc4F)c3s2)c1

>  <Set>  (87) 
G2 active

>  <Set_type>  (87) 
Train

>  <MW>  (87) 
543.58

>  <HBD>  (87) 
2

>  <HBA>  (87) 
6

>  <NRB>  (87) 
9

>  <NR>  (87) 
5

>  <NAR>  (87) 
5

>  <PSA>  (87) 
115.21

>  <Standard Type>  (87) 
nan

>  <Standard Relation>  (87) 
nan

>  <Standard Units>  (87) 
nan

>  <Standard Value>  (87) 
nan

>  <Assay ChEMBL ID>  (87) 
nan

>  <Assay Description>  (87) 
nan

>  <BAO Label>  (87) 
nan

$$$$

     RDKit          2D

 30 35  0  0  0  0  0  0  0  0999 V2000
   -1.8351    3.2209    0.0000 C   0  0  0  0  0  0  0  0  0  0  0  0
   -0.4086    3.6844    0.0000 C   0  0  0  0  0  0  0  0  0  0  0  0
    0.7062    2.6807    0.0000 C   0  0  0  0  0  0  0  0  0  0  0  0
    2.1328    3.1443    0.0000 C   0  0  0  0  0  0  0  0  0  0  0  0
    2.4446    4.6115    0.0000 N   0  0  0  0  0  0  0  0  0  0  0  0
    1.4409    5.7262    0.0000 C   0  0  0  0  0  0  0  0  0  0  0  0
    2.1909    7.0252    0.0000 C   0  0  0  0  0  0  0  0  0  0  0  0
    3.6581    6.7134    0.0000 C   0  0  0  0  0  0  0  0  0  0  0  0
    4.8717    7.5951    0.0000 N   0  0  0  0  0  0  0  0  0  0  0  0
    6.2420    6.9850    0.0000 C   0  0  0  0  0  0  0  0  0  0  0  0
    6.3988    5.4932    0.0000 C   0  0  0  0  0  0  0  0  0  0  0  0
    7.7691    4.8831    0.0000 C   0  0  0  0  0  0  0  0  0  0  0  0
    9.0681    5.6331    0.0000 C   0  0  0  0  0  0  0  0  0  0  0  0
   10.1829    4.6294    0.0000 N   0  0  0  0  0  0  0  0  0  0  0  0
    9.5727    3.2591    0.0000 N   0  0  0  0  0  0  0  0  0  0  0  0
   10.3227    1.9600    0.0000 C   0  0  0  0  0  0  0  0  0  0  0  0
    9.5727    0.6610    0.0000 C   0  0  0  0  0  0  0  0  0  0  0  0
   10.3227   -0.6381    0.0000 C   0  0  0  0  0  0  0  0  0  0  0  0
   11.8227   -0.6381    0.0000 N   0  0  0  0  0  0  0  0  0  0  0  0
   12.5727    0.6610    0.0000 C   0  0  0  0  0  0  0  0  0  0  0  0
   11.8227    1.9600    0.0000 C   0  0  0  0  0  0  0  0  0  0  0  0
    8.0810    3.4158    0.0000 C   0  0  0  0  0  0  0  0  0  0  0  0
    5.1853    4.6115    0.0000 C   0  0  0  0  0  0  0  0  0  0  0  0
    3.8149    5.2216    0.0000 C   0  0  0  0  0  0  0  0  0  0  0  0
    0.3943    1.2135    0.0000 C   0  0  0  0  0  0  0  0  0  0  0  0
    1.2760    0.0000    0.0000 N   0  0  0  0  0  0  0  0  0  0  0  0
    0.3943   -1.2135    0.0000 O   0  0  0  0  0  0  0  0  0  0  0  0
   -1.0323   -0.7500    0.0000 N   0  0  0  0  0  0  0  0  0  0  0  0
   -1.0323    0.7500    0.0000 C   0  0  0  0  0  0  0  0  0  0  0  0
   -2.1470    1.7537    0.0000 C   0  0  0  0  0  0  0  0  0  0  0  0
  1  2  1  0
  2  3  2  0
  3  4  1  0
  4  5  1  0
  5  6  1  0
  6  7  2  0
  7  8  1  0
  8  9  2  0
  9 10  1  0
 10 11  2  0
 11 12  1  0
 12 13  1  0
 13 14  2  0
 14 15  1  0
 15 16  1  0
 16 17  1  0
 17 18  1  0
 18 19  1  0
 19 20  1  0
 20 21  1  0
 15 22  1  0
 11 23  1  0
 23 24  2  0
  3 25  1  0
 25 26  2  0
 26 27  1  0
 27 28  1  0
 28 29  2  0
 29 30  1  0
 30  1  2  0
 24  5  1  0
 29 25  1  0
 24  8  1  0
 22 12  2  0
 21 16  1  0
M  END
>  <Compound_ID>  (88) 
CHEMBL550160

>  <Active>  (88) 
1.0

>  <Smiles>  (88) 
c1cc(Cn2ccc3ncc(-c4cnn(C5CCNCC5)c4)cc32)c2nonc2c1

>  <canonical_smi>  (88) 
c1cc(Cn2ccc3ncc(-c4cnn(C5CCNCC5)c4)cc32)c2nonc2c1

>  <Set>  (88) 
G2 active

>  <Set_type>  (88) 
Train

>  <MW>  (88) 
399.46

>  <HBD>  (88) 
1

>  <HBA>  (88) 
6

>  <NRB>  (88) 
4

>  <NR>  (88) 
6

>  <NAR>  (88) 
5

>  <PSA>  (88) 
86.59

>  <Standard Type>  (88) 
nan

>  <Standard Relation>  (88) 
nan

>  <Standard Units>  (88) 
nan

>  <Standard Value>  (88) 
nan

>  <Assay ChEMBL ID>  (88) 
nan

>  <Assay Description>  (88) 
nan

>  <BAO Label>  (88) 
nan

$$$$

     RDKit          2D

 21 23  0  0  0  0  0  0  0  0999 V2000
   -1.8373   -5.6601    0.0000 O   0  0  0  0  0  0  0  0  0  0  0  0
   -3.2638   -6.1236    0.0000 N   0  0  0  0  0  4  0  0  0  0  0  0
   -3.5757   -7.5908    0.0000 O   0  0  0  0  0  1  0  0  0  0  0  0
   -4.3786   -5.1199    0.0000 C   0  0  0  0  0  0  0  0  0  0  0  0
   -5.8051   -5.5834    0.0000 C   0  0  0  0  0  0  0  0  0  0  0  0
   -6.9199   -4.5797    0.0000 C   0  0  0  0  0  0  0  0  0  0  0  0
   -6.6080   -3.1125    0.0000 C   0  0  0  0  0  0  0  0  0  0  0  0
   -5.1814   -2.6490    0.0000 C   0  0  0  0  0  0  0  0  0  0  0  0
   -4.0667   -3.6527    0.0000 C   0  0  0  0  0  0  0  0  0  0  0  0
   -2.6401   -3.1891    0.0000 S   0  0  0  0  0  0  0  0  0  0  0  0
   -3.1036   -1.7626    0.0000 O   0  0  0  0  0  0  0  0  0  0  0  0
   -2.1766   -4.6157    0.0000 O   0  0  0  0  0  0  0  0  0  0  0  0
   -1.2135   -2.7256    0.0000 N   0  0  0  0  0  0  0  0  0  0  0  0
   -0.0000   -3.6073    0.0000 C   0  0  0  0  0  0  0  0  0  0  0  0
    1.2135   -2.7256    0.0000 C   0  0  0  0  0  0  0  0  0  0  0  0
    0.7500   -1.2990    0.0000 C   0  0  0  0  0  0  0  0  0  0  0  0
    1.5000    0.0000    0.0000 N   0  0  0  0  0  0  0  0  0  0  0  0
    0.7500    1.2990    0.0000 C   0  0  0  0  0  0  0  0  0  0  0  0
   -0.7500    1.2990    0.0000 C   0  0  0  0  0  0  0  0  0  0  0  0
   -1.5000    0.0000    0.0000 C   0  0  0  0  0  0  0  0  0  0  0  0
   -0.7500   -1.2990    0.0000 C   0  0  0  0  0  0  0  0  0  0  0  0
  1  2  2  0
  2  3  1  0
  2  4  1  0
  4  5  2  0
  5  6  1  0
  6  7  2  0
  7  8  1  0
  8  9  2  0
  9 10  1  0
 10 11  2  0
 10 12  2  0
 10 13  1  0
 13 14  1  0
 14 15  2  0
 15 16  1  0
 16 17  2  0
 17 18  1  0
 18 19  2  0
 19 20  1  0
 20 21  2  0
  9  4  1  0
 21 13  1  0
 21 16  1  0
M  CHG  2   2   1   3  -1
M  END
>  <Compound_ID>  (89) 
CHEMBL550305

>  <Active>  (89) 
1.0

>  <Smiles>  (89) 
O=[N+]([O-])c1ccccc1S(=O)(=O)n1ccc2ncccc21

>  <canonical_smi>  (89) 
O=[N+]([O-])c1ccccc1S(=O)(=O)n1ccc2ncccc21

>  <Set>  (89) 
G2 active

>  <Set_type>  (89) 
Train

>  <MW>  (89) 
303.3

>  <HBD>  (89) 
0

>  <HBA>  (89) 
5

>  <NRB>  (89) 
3

>  <NR>  (89) 
3

>  <NAR>  (89) 
3

>  <PSA>  (89) 
95.1

>  <Standard Type>  (89) 
nan

>  <Standard Relation>  (89) 
nan

>  <Standard Units>  (89) 
nan

>  <Standard Value>  (89) 
nan

>  <Assay ChEMBL ID>  (89) 
nan

>  <Assay Description>  (89) 
nan

>  <BAO Label>  (89) 
nan

$$$$

     RDKit          2D

 34 37  0  0  0  0  0  0  0  0999 V2000
    2.4510   -9.8433    0.0000 C   0  0  0  0  0  0  0  0  0  0  0  0
    3.7500   -9.0933    0.0000 C   0  0  0  0  0  0  0  0  0  0  0  0
    5.0490   -8.3433    0.0000 C   0  0  0  0  0  0  0  0  0  0  0  0
    4.5000  -10.3923    0.0000 C   0  0  0  0  0  0  0  0  0  0  0  0
    3.0000   -7.7942    0.0000 O   0  0  0  0  0  0  0  0  0  0  0  0
    3.7500   -6.4952    0.0000 C   0  0  0  0  0  0  0  0  0  0  0  0
    5.2500   -6.4952    0.0000 O   0  0  0  0  0  0  0  0  0  0  0  0
    3.0000   -5.1962    0.0000 N   0  0  0  0  0  0  0  0  0  0  0  0
    1.5000   -5.1962    0.0000 C   0  0  0  0  0  0  0  0  0  0  0  0
    0.7500   -3.8971    0.0000 C   0  0  0  0  0  0  0  0  0  0  0  0
    1.5000   -2.5981    0.0000 N   0  0  0  0  0  0  0  0  0  0  0  0
    0.7500   -1.2990    0.0000 C   0  0  0  0  0  0  0  0  0  0  0  0
    1.5000    0.0000    0.0000 C   0  0  0  0  0  0  0  0  0  0  0  0
    0.7500    1.2990    0.0000 N   0  0  0  0  0  0  0  0  0  0  0  0
   -0.7500    1.2990    0.0000 C   0  0  0  0  0  0  0  0  0  0  0  0
   -1.7537    2.4138    0.0000 C   0  0  0  0  0  0  0  0  0  0  0  0
   -3.1240    1.8037    0.0000 C   0  0  0  0  0  0  0  0  0  0  0  0
   -2.9672    0.3119    0.0000 N   0  0  0  0  0  0  0  0  0  0  0  0
   -4.0819   -0.6918    0.0000 S   0  0  0  0  0  0  0  0  0  0  0  0
   -3.0782   -1.8065    0.0000 O   0  0  0  0  0  0  0  0  0  0  0  0
   -5.0856    0.4229    0.0000 O   0  0  0  0  0  0  0  0  0  0  0  0
   -5.1967   -1.6955    0.0000 C   0  0  0  0  0  0  0  0  0  0  0  0
   -6.6232   -1.2320    0.0000 C   0  0  0  0  0  0  0  0  0  0  0  0
   -7.7380   -2.2357    0.0000 C   0  0  0  0  0  0  0  0  0  0  0  0
   -7.4261   -3.7029    0.0000 C   0  0  0  0  0  0  0  0  0  0  0  0
   -5.9995   -4.1664    0.0000 C   0  0  0  0  0  0  0  0  0  0  0  0
   -4.8848   -3.1627    0.0000 C   0  0  0  0  0  0  0  0  0  0  0  0
   -3.4582   -3.6263    0.0000 N   0  0  0  0  0  4  0  0  0  0  0  0
   -2.3435   -2.6226    0.0000 O   0  0  0  0  0  0  0  0  0  0  0  0
   -3.1463   -5.0935    0.0000 O   0  0  0  0  0  1  0  0  0  0  0  0
   -1.5000    0.0000    0.0000 C   0  0  0  0  0  0  0  0  0  0  0  0
   -0.7500   -1.2990    0.0000 C   0  0  0  0  0  0  0  0  0  0  0  0
    3.0000   -2.5981    0.0000 C   0  0  0  0  0  0  0  0  0  0  0  0
    3.7500   -3.8971    0.0000 C   0  0  0  0  0  0  0  0  0  0  0  0
  1  2  1  0
  2  3  1  0
  2  4  1  0
  2  5  1  0
  5  6  1  0
  6  7  2  0
  6  8  1  0
  8  9  1  0
  9 10  1  0
 10 11  1  0
 11 12  1  0
 12 13  2  0
 13 14  1  0
 14 15  2  0
 15 16  1  0
 16 17  2  0
 17 18  1  0
 18 19  1  0
 19 20  2  0
 19 21  2  0
 19 22  1  0
 22 23  2  0
 23 24  1  0
 24 25  2  0
 25 26  1  0
 26 27  2  0
 27 28  1  0
 28 29  2  0
 28 30  1  0
 18 31  1  0
 31 32  2  0
 11 33  1  0
 33 34  1  0
 34  8  1  0
 32 12  1  0
 31 15  1  0
 27 22  1  0
M  CHG  2  28   1  30  -1
M  END
>  <Compound_ID>  (90) 
CHEMBL556627

>  <Active>  (90) 
1.0

>  <Smiles>  (90) 
CC(C)(C)OC(=O)N1CCN(c2cnc3ccn(S(=O)(=O)c4ccccc4[N+](=O)[O-])c3c2)CC1

>  <canonical_smi>  (90) 
CC(C)(C)OC(=O)N1CCN(c2cnc3ccn(S(=O)(=O)c4ccccc4[N+](=O)[O-])c3c2)CC1

>  <Set>  (90) 
G2 active

>  <Set_type>  (90) 
Train

>  <MW>  (90) 
487.54

>  <HBD>  (90) 
0

>  <HBA>  (90) 
8

>  <NRB>  (90) 
4

>  <NR>  (90) 
4

>  <NAR>  (90) 
3

>  <PSA>  (90) 
127.88

>  <Standard Type>  (90) 
nan

>  <Standard Relation>  (90) 
nan

>  <Standard Units>  (90) 
nan

>  <Standard Value>  (90) 
nan

>  <Assay ChEMBL ID>  (90) 
nan

>  <Assay Description>  (90) 
nan

>  <BAO Label>  (90) 
nan

$$$$

     RDKit          2D

 38 42  0  0  0  0  0  0  0  0999 V2000
    3.0000   -5.1962    0.0000 C   0  0  0  0  0  0  0  0  0  0  0  0
    1.5000   -5.1962    0.0000 O   0  0  0  0  0  0  0  0  0  0  0  0
    0.7500   -3.8971    0.0000 C   0  0  0  0  0  0  0  0  0  0  0  0
    1.5000   -2.5981    0.0000 C   0  0  0  0  0  0  0  0  0  0  0  0
    0.7500   -1.2990    0.0000 C   0  0  0  0  0  0  0  0  0  0  0  0
    1.5000    0.0000    0.0000 N   0  0  0  0  0  0  0  0  0  0  0  0
    0.7500    1.2990    0.0000 C   0  0  0  0  0  0  0  0  0  0  0  0
   -0.7500    1.2990    0.0000 C   0  0  0  0  0  0  0  0  0  0  0  0
   -1.5000    0.0000    0.0000 C   0  0  0  0  0  0  0  0  0  0  0  0
   -3.0000    0.0000    0.0000 O   0  0  0  0  0  0  0  0  0  0  0  0
   -3.7500    1.2990    0.0000 C   0  0  0  0  0  0  0  0  0  0  0  0
   -3.0000    2.5981    0.0000 C   0  0  0  0  0  0  0  0  0  0  0  0
   -3.7500    3.8971    0.0000 C   0  0  0  0  0  0  0  0  0  0  0  0
   -5.2500    3.8971    0.0000 C   0  0  0  0  0  0  0  0  0  0  0  0
   -6.0000    5.1962    0.0000 N   0  0  0  0  0  0  0  0  0  0  0  0
   -5.2500    6.4952    0.0000 C   0  0  0  0  0  0  0  0  0  0  0  0
   -3.7500    6.4952    0.0000 O   0  0  0  0  0  0  0  0  0  0  0  0
   -6.0000    7.7942    0.0000 C   0  0  0  0  0  0  0  0  0  0  0  0
   -7.4095    7.2812    0.0000 C   0  0  0  0  0  0  0  0  0  0  0  0
   -7.6700    5.8040    0.0000 O   0  0  0  0  0  0  0  0  0  0  0  0
   -8.5586    8.2454    0.0000 N   0  0  0  0  0  0  0  0  0  0  0  0
   -9.9681    7.7323    0.0000 C   0  0  0  0  0  0  0  0  0  0  0  0
  -11.1172    8.6965    0.0000 C   0  0  0  0  0  0  0  0  0  0  0  0
  -12.5268    8.1835    0.0000 C   0  0  0  0  0  0  0  0  0  0  0  0
  -12.7872    6.7063    0.0000 C   0  0  0  0  0  0  0  0  0  0  0  0
  -14.1968    6.1933    0.0000 F   0  0  0  0  0  0  0  0  0  0  0  0
  -11.6382    5.7421    0.0000 C   0  0  0  0  0  0  0  0  0  0  0  0
  -10.2286    6.2551    0.0000 C   0  0  0  0  0  0  0  0  0  0  0  0
   -6.2605    9.2714    0.0000 C   0  0  0  0  0  0  0  0  0  0  0  0
   -4.8509    8.7584    0.0000 C   0  0  0  0  0  0  0  0  0  0  0  0
   -6.0000    2.5981    0.0000 C   0  0  0  0  0  0  0  0  0  0  0  0
   -5.2500    1.2990    0.0000 C   0  0  0  0  0  0  0  0  0  0  0  0
   -6.0000    0.0000    0.0000 F   0  0  0  0  0  0  0  0  0  0  0  0
   -0.7500   -1.2990    0.0000 C   0  0  0  0  0  0  0  0  0  0  0  0
   -1.5000   -2.5981    0.0000 C   0  0  0  0  0  0  0  0  0  0  0  0
   -0.7500   -3.8971    0.0000 C   0  0  0  0  0  0  0  0  0  0  0  0
   -1.5000   -5.1962    0.0000 O   0  0  0  0  0  0  0  0  0  0  0  0
   -3.0000   -5.1962    0.0000 C   0  0  0  0  0  0  0  0  0  0  0  0
  1  2  1  0
  2  3  1  0
  3  4  2  0
  4  5  1  0
  5  6  2  0
  6  7  1  0
  7  8  2  0
  8  9  1  0
  9 10  1  0
 10 11  1  0
 11 12  2  0
 12 13  1  0
 13 14  2  0
 14 15  1  0
 15 16  1  0
 16 17  2  0
 16 18  1  0
 18 19  1  0
 19 20  2  0
 19 21  1  0
 21 22  1  0
 22 23  2  0
 23 24  1  0
 24 25  2  0
 25 26  1  0
 25 27  1  0
 27 28  2  0
 18 29  1  0
 29 30  1  0
 14 31  1  0
 31 32  2  0
 32 33  1  0
  9 34  2  0
 34 35  1  0
 35 36  2  0
 36 37  1  0
 37 38  1  0
 36  3  1  0
 34  5  1  0
 32 11  1  0
 30 18  1  0
 28 22  1  0
M  END
>  <Compound_ID>  (91) 
CHEMBL489326

>  <Active>  (91) 
1.0

>  <Smiles>  (91) 
COc1cc2nccc(Oc3ccc(NC(=O)C4(C(=O)Nc5ccc(F)cc5)CC4)cc3F)c2cc1OC

>  <canonical_smi>  (91) 
COc1cc2nccc(Oc3ccc(NC(=O)C4(C(=O)Nc5ccc(F)cc5)CC4)cc3F)c2cc1OC

>  <Set>  (91) 
G2 active

>  <Set_type>  (91) 
Train

>  <MW>  (91) 
519.5

>  <HBD>  (91) 
2

>  <HBA>  (91) 
6

>  <NRB>  (91) 
8

>  <NR>  (91) 
5

>  <NAR>  (91) 
4

>  <PSA>  (91) 
98.78

>  <Standard Type>  (91) 
nan

>  <Standard Relation>  (91) 
nan

>  <Standard Units>  (91) 
nan

>  <Standard Value>  (91) 
nan

>  <Assay ChEMBL ID>  (91) 
nan

>  <Assay Description>  (91) 
nan

>  <BAO Label>  (91) 
nan

$$$$

     RDKit          2D

 38 42  0  0  0  0  0  0  0  0999 V2000
   -3.1235   -8.4723    0.0000 C   0  0  0  0  0  0  0  0  0  0  0  0
   -1.6317   -8.6291    0.0000 C   0  0  0  0  0  0  0  0  0  0  0  0
   -0.7500   -7.4156    0.0000 N   0  0  0  0  0  0  0  0  0  0  0  0
    0.7500   -7.4156    0.0000 C   0  0  0  0  0  0  0  0  0  0  0  0
    1.2135   -5.9890    0.0000 N   0  0  0  0  0  0  0  0  0  0  0  0
   -0.0000   -5.1073    0.0000 C   0  0  0  0  0  0  0  0  0  0  0  0
   -0.0000   -3.6073    0.0000 C   0  0  0  0  0  0  0  0  0  0  0  0
    1.2135   -2.7256    0.0000 C   0  0  0  0  0  0  0  0  0  0  0  0
    0.7500   -1.2990    0.0000 C   0  0  0  0  0  0  0  0  0  0  0  0
    1.5000    0.0000    0.0000 N   0  0  0  0  0  0  0  0  0  0  0  0
    0.7500    1.2990    0.0000 C   0  0  0  0  0  0  0  0  0  0  0  0
   -0.7500    1.2990    0.0000 C   0  0  0  0  0  0  0  0  0  0  0  0
   -1.5000    0.0000    0.0000 C   0  0  0  0  0  0  0  0  0  0  0  0
   -3.0000    0.0000    0.0000 O   0  0  0  0  0  0  0  0  0  0  0  0
   -3.7500    1.2990    0.0000 C   0  0  0  0  0  0  0  0  0  0  0  0
   -3.0000    2.5981    0.0000 C   0  0  0  0  0  0  0  0  0  0  0  0
   -3.7500    3.8971    0.0000 C   0  0  0  0  0  0  0  0  0  0  0  0
   -5.2500    3.8971    0.0000 C   0  0  0  0  0  0  0  0  0  0  0  0
   -6.0000    5.1962    0.0000 N   0  0  0  0  0  0  0  0  0  0  0  0
   -5.2500    6.4952    0.0000 C   0  0  0  0  0  0  0  0  0  0  0  0
   -3.7500    6.4952    0.0000 O   0  0  0  0  0  0  0  0  0  0  0  0
   -6.0000    7.7942    0.0000 C   0  0  0  0  0  0  0  0  0  0  0  0
   -5.2500    9.0933    0.0000 C   0  0  0  0  0  0  0  0  0  0  0  0
   -3.7500    9.0933    0.0000 O   0  0  0  0  0  0  0  0  0  0  0  0
   -6.0000   10.3923    0.0000 N   0  0  0  0  0  0  0  0  0  0  0  0
   -5.2500   11.6913    0.0000 C   0  0  0  0  0  0  0  0  0  0  0  0
   -3.7500   11.6913    0.0000 C   0  0  0  0  0  0  0  0  0  0  0  0
   -3.0000   12.9904    0.0000 C   0  0  0  0  0  0  0  0  0  0  0  0
   -3.7500   14.2894    0.0000 C   0  0  0  0  0  0  0  0  0  0  0  0
   -3.0000   15.5885    0.0000 F   0  0  0  0  0  0  0  0  0  0  0  0
   -5.2500   14.2894    0.0000 C   0  0  0  0  0  0  0  0  0  0  0  0
   -6.0000   12.9904    0.0000 C   0  0  0  0  0  0  0  0  0  0  0  0
   -6.0000    2.5981    0.0000 C   0  0  0  0  0  0  0  0  0  0  0  0
   -5.2500    1.2990    0.0000 C   0  0  0  0  0  0  0  0  0  0  0  0
   -6.0000    0.0000    0.0000 F   0  0  0  0  0  0  0  0  0  0  0  0
   -0.7500   -1.2990    0.0000 C   0  0  0  0  0  0  0  0  0  0  0  0
   -1.2135   -2.7256    0.0000 S   0  0  0  0  0  0  0  0  0  0  0  0
   -1.2135   -5.9890    0.0000 C   0  0  0  0  0  0  0  0  0  0  0  0
  1  2  1  0
  2  3  1  0
  3  4  1  0
  4  5  2  0
  5  6  1  0
  6  7  1  0
  7  8  2  0
  8  9  1  0
  9 10  2  0
 10 11  1  0
 11 12  2  0
 12 13  1  0
 13 14  1  0
 14 15  1  0
 15 16  2  0
 16 17  1  0
 17 18  2  0
 18 19  1  0
 19 20  1  0
 20 21  2  0
 20 22  1  0
 22 23  1  0
 23 24  2  0
 23 25  1  0
 25 26  1  0
 26 27  2  0
 27 28  1  0
 28 29  2  0
 29 30  1  0
 29 31  1  0
 31 32  2  0
 18 33  1  0
 33 34  2  0
 34 35  1  0
 13 36  2  0
 36 37  1  0
  6 38  2  0
 38  3  1  0
 37  7  1  0
 36  9  1  0
 34 15  1  0
 32 26  1  0
M  END
>  <Compound_ID>  (92) 
CHEMBL567475

>  <Active>  (92) 
1.0

>  <Smiles>  (92) 
CCn1cnc(-c2cc3nccc(Oc4ccc(NC(=O)CC(=O)Nc5ccc(F)cc5)cc4F)c3s2)c1

>  <canonical_smi>  (92) 
CCn1cnc(-c2cc3nccc(Oc4ccc(NC(=O)CC(=O)Nc5ccc(F)cc5)cc4F)c3s2)c1

>  <Set>  (92) 
G2 active

>  <Set_type>  (92) 
Train

>  <MW>  (92) 
533.56

>  <HBD>  (92) 
2

>  <HBA>  (92) 
5

>  <NRB>  (92) 
8

>  <NR>  (92) 
5

>  <NAR>  (92) 
5

>  <PSA>  (92) 
98.14

>  <Standard Type>  (92) 
nan

>  <Standard Relation>  (92) 
nan

>  <Standard Units>  (92) 
nan

>  <Standard Value>  (92) 
nan

>  <Assay ChEMBL ID>  (92) 
nan

>  <Assay Description>  (92) 
nan

>  <BAO Label>  (92) 
nan

$$$$

     RDKit          2D

 39 44  0  0  0  0  0  0  0  0999 V2000
   -3.7548   -6.5291    0.0000 C   0  0  0  0  0  0  0  0  0  0  0  0
   -2.6401   -5.5255    0.0000 C   0  0  0  0  0  0  0  0  0  0  0  0
   -1.2135   -5.9890    0.0000 N   0  0  0  0  0  0  0  0  0  0  0  0
   -0.7500   -7.4156    0.0000 C   0  0  0  0  0  0  0  0  0  0  0  0
    0.7500   -7.4156    0.0000 C   0  0  0  0  0  0  0  0  0  0  0  0
    1.2135   -5.9890    0.0000 N   0  0  0  0  0  0  0  0  0  0  0  0
   -0.0000   -5.1073    0.0000 C   0  0  0  0  0  0  0  0  0  0  0  0
   -0.0000   -3.6073    0.0000 C   0  0  0  0  0  0  0  0  0  0  0  0
    1.2135   -2.7256    0.0000 C   0  0  0  0  0  0  0  0  0  0  0  0
    0.7500   -1.2990    0.0000 C   0  0  0  0  0  0  0  0  0  0  0  0
    1.5000    0.0000    0.0000 N   0  0  0  0  0  0  0  0  0  0  0  0
    0.7500    1.2990    0.0000 C   0  0  0  0  0  0  0  0  0  0  0  0
   -0.7500    1.2990    0.0000 C   0  0  0  0  0  0  0  0  0  0  0  0
   -1.5000    0.0000    0.0000 C   0  0  0  0  0  0  0  0  0  0  0  0
   -3.0000    0.0000    0.0000 O   0  0  0  0  0  0  0  0  0  0  0  0
   -3.7500    1.2990    0.0000 C   0  0  0  0  0  0  0  0  0  0  0  0
   -3.0000    2.5981    0.0000 C   0  0  0  0  0  0  0  0  0  0  0  0
   -3.7500    3.8971    0.0000 C   0  0  0  0  0  0  0  0  0  0  0  0
   -5.2500    3.8971    0.0000 C   0  0  0  0  0  0  0  0  0  0  0  0
   -6.0000    5.1962    0.0000 N   0  0  0  0  0  0  0  0  0  0  0  0
   -5.2500    6.4952    0.0000 C   0  0  0  0  0  0  0  0  0  0  0  0
   -3.7500    6.4952    0.0000 O   0  0  0  0  0  0  0  0  0  0  0  0
   -6.0000    7.7942    0.0000 N   0  0  0  0  0  0  0  0  0  0  0  0
   -7.4918    7.9510    0.0000 C   0  0  0  0  0  0  0  0  0  0  0  0
   -7.8037    9.4182    0.0000 C   0  0  0  0  0  0  0  0  0  0  0  0
   -6.5046   10.1682    0.0000 N   0  0  0  0  0  0  0  0  0  0  0  0
   -6.3478   11.6600    0.0000 C   0  0  0  0  0  0  0  0  0  0  0  0
   -4.9775   12.2701    0.0000 C   0  0  0  0  0  0  0  0  0  0  0  0
   -4.8207   13.7619    0.0000 C   0  0  0  0  0  0  0  0  0  0  0  0
   -6.0342   14.6436    0.0000 C   0  0  0  0  0  0  0  0  0  0  0  0
   -7.4046   14.0335    0.0000 C   0  0  0  0  0  0  0  0  0  0  0  0
   -7.5613   12.5417    0.0000 C   0  0  0  0  0  0  0  0  0  0  0  0
   -5.3899    9.1645    0.0000 C   0  0  0  0  0  0  0  0  0  0  0  0
   -3.9227    9.4764    0.0000 O   0  0  0  0  0  0  0  0  0  0  0  0
   -6.0000    2.5981    0.0000 C   0  0  0  0  0  0  0  0  0  0  0  0
   -5.2500    1.2990    0.0000 C   0  0  0  0  0  0  0  0  0  0  0  0
   -6.0000    0.0000    0.0000 F   0  0  0  0  0  0  0  0  0  0  0  0
   -0.7500   -1.2990    0.0000 C   0  0  0  0  0  0  0  0  0  0  0  0
   -1.2135   -2.7256    0.0000 S   0  0  0  0  0  0  0  0  0  0  0  0
  1  2  1  0
  2  3  1  0
  3  4  1  0
  4  5  2  0
  5  6  1  0
  6  7  2  0
  7  8  1  0
  8  9  2  0
  9 10  1  0
 10 11  2  0
 11 12  1  0
 12 13  2  0
 13 14  1  0
 14 15  1  0
 15 16  1  0
 16 17  2  0
 17 18  1  0
 18 19  2  0
 19 20  1  0
 20 21  1  0
 21 22  2  0
 21 23  1  0
 23 24  1  0
 24 25  1  0
 25 26  1  0
 26 27  1  0
 27 28  2  0
 28 29  1  0
 29 30  2  0
 30 31  1  0
 31 32  2  0
 26 33  1  0
 33 34  2  0
 19 35  1  0
 35 36  2  0
 36 37  1  0
 14 38  2  0
 38 39  1  0
  7  3  1  0
 39  8  1  0
 38 10  1  0
 36 16  1  0
 33 23  1  0
 32 27  1  0
M  END
>  <Compound_ID>  (93) 
CHEMBL455655

>  <Active>  (93) 
1.0

>  <Smiles>  (93) 
CCn1ccnc1-c1cc2nccc(Oc3ccc(NC(=O)N4CCN(c5ccccc5)C4=O)cc3F)c2s1

>  <canonical_smi>  (93) 
CCn1ccnc1-c1cc2nccc(Oc3ccc(NC(=O)N4CCN(c5ccccc5)C4=O)cc3F)c2s1

>  <Set>  (93) 
G2 active

>  <Set_type>  (93) 
Train

>  <MW>  (93) 
542.6

>  <HBD>  (93) 
1

>  <HBA>  (93) 
5

>  <NRB>  (93) 
6

>  <NR>  (93) 
6

>  <NAR>  (93) 
5

>  <PSA>  (93) 
92.59

>  <Standard Type>  (93) 
nan

>  <Standard Relation>  (93) 
nan

>  <Standard Units>  (93) 
nan

>  <Standard Value>  (93) 
nan

>  <Assay ChEMBL ID>  (93) 
nan

>  <Assay Description>  (93) 
nan

>  <BAO Label>  (93) 
nan

$$$$

     RDKit          2D

 38 43  0  0  0  0  0  0  0  0999 V2000
   -1.6317   -8.6291    0.0000 C   0  0  0  0  0  0  0  0  0  0  0  0
   -0.7500   -7.4156    0.0000 N   0  0  0  0  0  0  0  0  0  0  0  0
    0.7500   -7.4156    0.0000 C   0  0  0  0  0  0  0  0  0  0  0  0
    1.2135   -5.9890    0.0000 N   0  0  0  0  0  0  0  0  0  0  0  0
   -0.0000   -5.1073    0.0000 C   0  0  0  0  0  0  0  0  0  0  0  0
   -0.0000   -3.6073    0.0000 C   0  0  0  0  0  0  0  0  0  0  0  0
    1.2135   -2.7256    0.0000 C   0  0  0  0  0  0  0  0  0  0  0  0
    0.7500   -1.2990    0.0000 C   0  0  0  0  0  0  0  0  0  0  0  0
    1.5000    0.0000    0.0000 N   0  0  0  0  0  0  0  0  0  0  0  0
    0.7500    1.2990    0.0000 C   0  0  0  0  0  0  0  0  0  0  0  0
   -0.7500    1.2990    0.0000 C   0  0  0  0  0  0  0  0  0  0  0  0
   -1.5000    0.0000    0.0000 C   0  0  0  0  0  0  0  0  0  0  0  0
   -3.0000    0.0000    0.0000 O   0  0  0  0  0  0  0  0  0  0  0  0
   -3.7500    1.2990    0.0000 C   0  0  0  0  0  0  0  0  0  0  0  0
   -3.0000    2.5981    0.0000 C   0  0  0  0  0  0  0  0  0  0  0  0
   -3.7500    3.8971    0.0000 C   0  0  0  0  0  0  0  0  0  0  0  0
   -5.2500    3.8971    0.0000 C   0  0  0  0  0  0  0  0  0  0  0  0
   -6.0000    5.1962    0.0000 N   0  0  0  0  0  0  0  0  0  0  0  0
   -5.2500    6.4952    0.0000 C   0  0  0  0  0  0  0  0  0  0  0  0
   -3.7500    6.4952    0.0000 S   0  0  0  0  0  0  0  0  0  0  0  0
   -6.0000    7.7942    0.0000 N   0  0  0  0  0  0  0  0  0  0  0  0
   -7.4918    7.9510    0.0000 C   0  0  0  0  0  0  0  0  0  0  0  0
   -7.8037    9.4182    0.0000 C   0  0  0  0  0  0  0  0  0  0  0  0
   -6.5046   10.1682    0.0000 N   0  0  0  0  0  0  0  0  0  0  0  0
   -6.3478   11.6600    0.0000 C   0  0  0  0  0  0  0  0  0  0  0  0
   -4.9775   12.2701    0.0000 C   0  0  0  0  0  0  0  0  0  0  0  0
   -4.8207   13.7619    0.0000 C   0  0  0  0  0  0  0  0  0  0  0  0
   -6.0342   14.6436    0.0000 C   0  0  0  0  0  0  0  0  0  0  0  0
   -7.4046   14.0335    0.0000 C   0  0  0  0  0  0  0  0  0  0  0  0
   -7.5613   12.5417    0.0000 C   0  0  0  0  0  0  0  0  0  0  0  0
   -5.3899    9.1645    0.0000 C   0  0  0  0  0  0  0  0  0  0  0  0
   -3.9227    9.4764    0.0000 O   0  0  0  0  0  0  0  0  0  0  0  0
   -6.0000    2.5981    0.0000 C   0  0  0  0  0  0  0  0  0  0  0  0
   -5.2500    1.2990    0.0000 C   0  0  0  0  0  0  0  0  0  0  0  0
   -6.0000    0.0000    0.0000 F   0  0  0  0  0  0  0  0  0  0  0  0
   -0.7500   -1.2990    0.0000 C   0  0  0  0  0  0  0  0  0  0  0  0
   -1.2135   -2.7256    0.0000 S   0  0  0  0  0  0  0  0  0  0  0  0
   -1.2135   -5.9890    0.0000 C   0  0  0  0  0  0  0  0  0  0  0  0
  1  2  1  0
  2  3  1  0
  3  4  2  0
  4  5  1  0
  5  6  1  0
  6  7  2  0
  7  8  1  0
  8  9  2  0
  9 10  1  0
 10 11  2  0
 11 12  1  0
 12 13  1  0
 13 14  1  0
 14 15  2  0
 15 16  1  0
 16 17  2  0
 17 18  1  0
 18 19  1  0
 19 20  2  0
 19 21  1  0
 21 22  1  0
 22 23  1  0
 23 24  1  0
 24 25  1  0
 25 26  2  0
 26 27  1  0
 27 28  2  0
 28 29  1  0
 29 30  2  0
 24 31  1  0
 31 32  2  0
 17 33  1  0
 33 34  2  0
 34 35  1  0
 12 36  2  0
 36 37  1  0
  5 38  2  0
 38  2  1  0
 37  6  1  0
 36  8  1  0
 34 14  1  0
 31 21  1  0
 30 25  1  0
M  END
>  <Compound_ID>  (94) 
CHEMBL518676

>  <Active>  (94) 
1.0

>  <Smiles>  (94) 
Cn1cnc(-c2cc3nccc(Oc4ccc(NC(=S)N5CCN(c6ccccc6)C5=O)cc4F)c3s2)c1

>  <canonical_smi>  (94) 
Cn1cnc(-c2cc3nccc(Oc4ccc(NC(=S)N5CCN(c6ccccc6)C5=O)cc4F)c3s2)c1

>  <Set>  (94) 
G2 active

>  <Set_type>  (94) 
Train

>  <MW>  (94) 
544.64

>  <HBD>  (94) 
1

>  <HBA>  (94) 
6

>  <NRB>  (94) 
5

>  <NR>  (94) 
6

>  <NAR>  (94) 
5

>  <PSA>  (94) 
75.52

>  <Standard Type>  (94) 
nan

>  <Standard Relation>  (94) 
nan

>  <Standard Units>  (94) 
nan

>  <Standard Value>  (94) 
nan

>  <Assay ChEMBL ID>  (94) 
nan

>  <Assay Description>  (94) 
nan

>  <BAO Label>  (94) 
nan

$$$$

     RDKit          2D

 36 40  0  0  0  0  0  0  0  0999 V2000
   -1.6317   -8.6291    0.0000 C   0  0  0  0  0  0  0  0  0  0  0  0
   -0.7500   -7.4156    0.0000 N   0  0  0  0  0  0  0  0  0  0  0  0
    0.7500   -7.4156    0.0000 C   0  0  0  0  0  0  0  0  0  0  0  0
    1.2135   -5.9890    0.0000 N   0  0  0  0  0  0  0  0  0  0  0  0
   -0.0000   -5.1073    0.0000 C   0  0  0  0  0  0  0  0  0  0  0  0
   -0.0000   -3.6073    0.0000 C   0  0  0  0  0  0  0  0  0  0  0  0
    1.2135   -2.7256    0.0000 C   0  0  0  0  0  0  0  0  0  0  0  0
    0.7500   -1.2990    0.0000 C   0  0  0  0  0  0  0  0  0  0  0  0
    1.5000    0.0000    0.0000 N   0  0  0  0  0  0  0  0  0  0  0  0
    0.7500    1.2990    0.0000 C   0  0  0  0  0  0  0  0  0  0  0  0
   -0.7500    1.2990    0.0000 C   0  0  0  0  0  0  0  0  0  0  0  0
   -1.5000    0.0000    0.0000 C   0  0  0  0  0  0  0  0  0  0  0  0
   -3.0000    0.0000    0.0000 O   0  0  0  0  0  0  0  0  0  0  0  0
   -3.7500    1.2990    0.0000 C   0  0  0  0  0  0  0  0  0  0  0  0
   -3.0000    2.5981    0.0000 C   0  0  0  0  0  0  0  0  0  0  0  0
   -3.7500    3.8971    0.0000 C   0  0  0  0  0  0  0  0  0  0  0  0
   -5.2500    3.8971    0.0000 C   0  0  0  0  0  0  0  0  0  0  0  0
   -6.0000    5.1962    0.0000 N   0  0  0  0  0  0  0  0  0  0  0  0
   -5.2500    6.4952    0.0000 C   0  0  0  0  0  0  0  0  0  0  0  0
   -3.7500    6.4952    0.0000 O   0  0  0  0  0  0  0  0  0  0  0  0
   -6.0000    7.7942    0.0000 N   0  0  0  0  0  0  0  0  0  0  0  0
   -5.2500    9.0933    0.0000 C   0  0  0  0  0  0  0  0  0  0  0  0
   -3.7500    9.0933    0.0000 O   0  0  0  0  0  0  0  0  0  0  0  0
   -6.0000   10.3923    0.0000 C   0  0  0  0  0  0  0  0  0  0  0  0
   -5.2500   11.6913    0.0000 C   0  0  0  0  0  0  0  0  0  0  0  0
   -3.7500   11.6913    0.0000 C   0  0  0  0  0  0  0  0  0  0  0  0
   -3.0000   12.9904    0.0000 C   0  0  0  0  0  0  0  0  0  0  0  0
   -3.7500   14.2894    0.0000 C   0  0  0  0  0  0  0  0  0  0  0  0
   -5.2500   14.2894    0.0000 C   0  0  0  0  0  0  0  0  0  0  0  0
   -6.0000   12.9904    0.0000 C   0  0  0  0  0  0  0  0  0  0  0  0
   -6.0000    2.5981    0.0000 C   0  0  0  0  0  0  0  0  0  0  0  0
   -5.2500    1.2990    0.0000 C   0  0  0  0  0  0  0  0  0  0  0  0
   -6.0000    0.0000    0.0000 F   0  0  0  0  0  0  0  0  0  0  0  0
   -0.7500   -1.2990    0.0000 C   0  0  0  0  0  0  0  0  0  0  0  0
   -1.2135   -2.7256    0.0000 S   0  0  0  0  0  0  0  0  0  0  0  0
   -1.2135   -5.9890    0.0000 C   0  0  0  0  0  0  0  0  0  0  0  0
  1  2  1  0
  2  3  1  0
  3  4  2  0
  4  5  1  0
  5  6  1  0
  6  7  2  0
  7  8  1  0
  8  9  2  0
  9 10  1  0
 10 11  2  0
 11 12  1  0
 12 13  1  0
 13 14  1  0
 14 15  2  0
 15 16  1  0
 16 17  2  0
 17 18  1  0
 18 19  1  0
 19 20  2  0
 19 21  1  0
 21 22  1  0
 22 23  2  0
 22 24  1  0
 24 25  1  0
 25 26  2  0
 26 27  1  0
 27 28  2  0
 28 29  1  0
 29 30  2  0
 17 31  1  0
 31 32  2  0
 32 33  1  0
 12 34  2  0
 34 35  1  0
  5 36  2  0
 36  2  1  0
 35  6  1  0
 34  8  1  0
 32 14  1  0
 30 25  1  0
M  END
>  <Compound_ID>  (95) 
CHEMBL490965

>  <Active>  (95) 
1.0

>  <Smiles>  (95) 
Cn1cnc(-c2cc3nccc(Oc4ccc(NC(=O)NC(=O)Cc5ccccc5)cc4F)c3s2)c1

>  <canonical_smi>  (95) 
Cn1cnc(-c2cc3nccc(Oc4ccc(NC(=O)NC(=O)Cc5ccccc5)cc4F)c3s2)c1

>  <Set>  (95) 
G2 active

>  <Set_type>  (95) 
Train

>  <MW>  (95) 
501.54

>  <HBD>  (95) 
2

>  <HBA>  (95) 
5

>  <NRB>  (95) 
6

>  <NR>  (95) 
5

>  <NAR>  (95) 
5

>  <PSA>  (95) 
98.14

>  <Standard Type>  (95) 
nan

>  <Standard Relation>  (95) 
nan

>  <Standard Units>  (95) 
nan

>  <Standard Value>  (95) 
nan

>  <Assay ChEMBL ID>  (95) 
nan

>  <Assay Description>  (95) 
nan

>  <BAO Label>  (95) 
nan

$$$$

     RDKit          2D

 44 49  0  0  0  0  0  0  0  0999 V2000
   -5.2500   -3.8971    0.0000 C   0  0  0  0  0  0  0  0  0  0  0  0
   -3.7500   -3.8971    0.0000 O   0  0  0  0  0  0  0  0  0  0  0  0
   -3.0000   -2.5981    0.0000 C   0  0  0  0  0  0  0  0  0  0  0  0
   -1.5000   -2.5981    0.0000 C   0  0  0  0  0  0  0  0  0  0  0  0
   -0.7500   -1.2990    0.0000 C   0  0  0  0  0  0  0  0  0  0  0  0
    0.7500   -1.2990    0.0000 C   0  0  0  0  0  0  0  0  0  0  0  0
    1.5000   -2.5981    0.0000 O   0  0  0  0  0  0  0  0  0  0  0  0
    3.0000   -2.5981    0.0000 C   0  0  0  0  0  0  0  0  0  0  0  0
    3.7500   -3.8971    0.0000 C   0  0  0  0  0  0  0  0  0  0  0  0
    5.2500   -3.8971    0.0000 C   0  0  0  0  0  0  0  0  0  0  0  0
    6.0000   -2.5981    0.0000 C   0  0  0  0  0  0  0  0  0  0  0  0
    7.5000   -2.5981    0.0000 C   0  0  0  0  0  0  0  0  0  0  0  0
    8.2500   -3.8971    0.0000 C   0  0  0  0  0  0  0  0  0  0  0  0
    9.7500   -3.8971    0.0000 N   0  0  0  0  0  0  0  0  0  0  0  0
   10.5000   -2.5981    0.0000 C   0  0  0  0  0  0  0  0  0  0  0  0
   12.0000   -2.5981    0.0000 C   0  0  0  0  0  0  0  0  0  0  0  0
   12.7500   -3.8971    0.0000 C   0  0  0  0  0  0  0  0  0  0  0  0
   12.0000   -5.1962    0.0000 C   0  0  0  0  0  0  0  0  0  0  0  0
   12.7500   -6.4952    0.0000 C   0  0  0  0  0  0  0  0  0  0  0  0
   14.2500   -6.4952    0.0000 C   0  0  0  0  0  0  0  0  0  0  0  0
   15.0000   -5.1962    0.0000 C   0  0  0  0  0  0  0  0  0  0  0  0
   14.2500   -3.8971    0.0000 C   0  0  0  0  0  0  0  0  0  0  0  0
    9.7500   -1.2990    0.0000 N   0  0  0  0  0  0  0  0  0  0  0  0
   10.5000   -0.0000    0.0000 C   0  0  0  0  0  0  0  0  0  0  0  0
    8.2500   -1.2990    0.0000 C   0  0  0  0  0  0  0  0  0  0  0  0
    7.5000   -0.0000    0.0000 O   0  0  0  0  0  0  0  0  0  0  0  0
    5.2500   -1.2990    0.0000 C   0  0  0  0  0  0  0  0  0  0  0  0
    3.7500   -1.2990    0.0000 C   0  0  0  0  0  0  0  0  0  0  0  0
    3.0000   -0.0000    0.0000 F   0  0  0  0  0  0  0  0  0  0  0  0
    1.5000    0.0000    0.0000 C   0  0  0  0  0  0  0  0  0  0  0  0
    0.7500    1.2990    0.0000 C   0  0  0  0  0  0  0  0  0  0  0  0
   -0.7500    1.2990    0.0000 N   0  0  0  0  0  0  0  0  0  0  0  0
   -1.5000    0.0000    0.0000 C   0  0  0  0  0  0  0  0  0  0  0  0
   -3.0000    0.0000    0.0000 C   0  0  0  0  0  0  0  0  0  0  0  0
   -3.7500   -1.2990    0.0000 C   0  0  0  0  0  0  0  0  0  0  0  0
   -5.2500   -1.2990    0.0000 O   0  0  0  0  0  0  0  0  0  0  0  0
   -6.0000    0.0000    0.0000 C   0  0  0  0  0  0  0  0  0  0  0  0
   -7.5000    0.0000    0.0000 C   0  0  0  0  0  0  0  0  0  0  0  0
   -8.2500    1.2990    0.0000 C   0  0  0  0  0  0  0  0  0  0  0  0
   -9.7500    1.2990    0.0000 N   0  0  0  0  0  0  0  0  0  0  0  0
  -10.6317    0.0855    0.0000 C   0  0  0  0  0  0  0  0  0  0  0  0
  -12.0583    0.5490    0.0000 N   0  0  0  0  0  0  0  0  0  0  0  0
  -12.0583    2.0490    0.0000 C   0  0  0  0  0  0  0  0  0  0  0  0
  -10.6317    2.5126    0.0000 N   0  0  0  0  0  0  0  0  0  0  0  0
  1  2  1  0
  2  3  1  0
  3  4  2  0
  4  5  1  0
  5  6  2  0
  6  7  1  0
  7  8  1  0
  8  9  2  0
  9 10  1  0
 10 11  2  0
 11 12  1  0
 12 13  2  0
 13 14  1  0
 14 15  2  0
 15 16  1  0
 16 17  1  0
 17 18  2  0
 18 19  1  0
 19 20  2  0
 20 21  1  0
 21 22  2  0
 15 23  1  0
 23 24  1  0
 23 25  1  0
 25 26  2  0
 11 27  1  0
 27 28  2  0
 28 29  1  0
  6 30  1  0
 30 31  2  0
 31 32  1  0
 32 33  2  0
 33 34  1  0
 34 35  2  0
 35 36  1  0
 36 37  1  0
 37 38  1  0
 38 39  1  0
 39 40  1  0
 40 41  1  0
 41 42  2  0
 42 43  1  0
 43 44  2  0
 35  3  1  0
 44 40  1  0
 33  5  1  0
 28  8  1  0
 25 12  1  0
 22 17  1  0
M  END
>  <Compound_ID>  (96) 
CHEMBL502331

>  <Active>  (96) 
1.0

>  <Smiles>  (96) 
COc1cc2c(Oc3ccc(-c4cnc(Cc5ccccc5)n(C)c4=O)cc3F)ccnc2cc1OCCCn1cncn1

>  <canonical_smi>  (96) 
COc1cc2c(Oc3ccc(-c4cnc(Cc5ccccc5)n(C)c4=O)cc3F)ccnc2cc1OCCCn1cncn1

>  <Set>  (96) 
G2 active

>  <Set_type>  (96) 
Train

>  <MW>  (96) 
592.63

>  <HBD>  (96) 
0

>  <HBA>  (96) 
8

>  <NRB>  (96) 
11

>  <NR>  (96) 
6

>  <NAR>  (96) 
6

>  <PSA>  (96) 
106.18

>  <Standard Type>  (96) 
nan

>  <Standard Relation>  (96) 
nan

>  <Standard Units>  (96) 
nan

>  <Standard Value>  (96) 
nan

>  <Assay ChEMBL ID>  (96) 
nan

>  <Assay Description>  (96) 
nan

>  <BAO Label>  (96) 
nan

$$$$

     RDKit          2D

 32 35  0  0  0  0  0  0  0  0999 V2000
  -16.4592    9.3964    0.0000 C   0  0  0  0  0  0  0  0  0  0  0  0
  -15.3445    8.3927    0.0000 C   0  0  0  0  0  0  0  0  0  0  0  0
  -15.6564    6.9255    0.0000 C   0  0  0  0  0  0  0  0  0  0  0  0
  -13.9179    8.8562    0.0000 C   0  0  0  0  0  0  0  0  0  0  0  0
  -12.8032    7.8525    0.0000 C   0  0  0  0  0  0  0  0  0  0  0  0
  -11.3766    8.3160    0.0000 N   0  0  0  0  0  0  0  0  0  0  0  0
  -11.0647    9.7833    0.0000 C   0  0  0  0  0  0  0  0  0  0  0  0
   -9.6382   10.2468    0.0000 C   0  0  0  0  0  0  0  0  0  0  0  0
   -8.5234    9.2431    0.0000 C   0  0  0  0  0  0  0  0  0  0  0  0
   -8.8353    7.7759    0.0000 C   0  0  0  0  0  0  0  0  0  0  0  0
   -7.7206    6.7722    0.0000 C   0  0  0  0  0  0  0  0  0  0  0  0
   -6.2940    7.2357    0.0000 O   0  0  0  0  0  0  0  0  0  0  0  0
   -8.0325    5.3050    0.0000 N   0  0  0  0  0  0  0  0  0  0  0  0
   -6.9177    4.3013    0.0000 C   0  0  0  0  0  0  0  0  0  0  0  0
   -7.2296    2.8340    0.0000 C   0  0  0  0  0  0  0  0  0  0  0  0
   -6.1149    1.8303    0.0000 C   0  0  0  0  0  0  0  0  0  0  0  0
   -4.6883    2.2939    0.0000 C   0  0  0  0  0  0  0  0  0  0  0  0
   -3.5736    1.2902    0.0000 O   0  0  0  0  0  0  0  0  0  0  0  0
   -2.1470    1.7537    0.0000 C   0  0  0  0  0  0  0  0  0  0  0  0
   -1.8351    3.2209    0.0000 C   0  0  0  0  0  0  0  0  0  0  0  0
   -0.4086    3.6844    0.0000 C   0  0  0  0  0  0  0  0  0  0  0  0
    0.7062    2.6807    0.0000 N   0  0  0  0  0  0  0  0  0  0  0  0
    0.3943    1.2135    0.0000 C   0  0  0  0  0  0  0  0  0  0  0  0
    1.2760    0.0000    0.0000 N   0  0  0  0  0  0  0  0  0  0  0  0
    0.3943   -1.2135    0.0000 C   0  0  0  0  0  0  0  0  0  0  0  0
   -1.0323   -0.7500    0.0000 C   0  0  0  0  0  0  0  0  0  0  0  0
   -1.0323    0.7500    0.0000 C   0  0  0  0  0  0  0  0  0  0  0  0
   -4.3764    3.7611    0.0000 C   0  0  0  0  0  0  0  0  0  0  0  0
   -2.9499    4.2246    0.0000 F   0  0  0  0  0  0  0  0  0  0  0  0
   -5.4912    4.7648    0.0000 C   0  0  0  0  0  0  0  0  0  0  0  0
  -10.2619    7.3123    0.0000 C   0  0  0  0  0  0  0  0  0  0  0  0
  -10.5738    5.8451    0.0000 O   0  0  0  0  0  0  0  0  0  0  0  0
  1  2  1  0
  2  3  1  0
  2  4  1  0
  4  5  1  0
  5  6  1  0
  6  7  1  0
  7  8  2  0
  8  9  1  0
  9 10  2  0
 10 11  1  0
 11 12  2  0
 11 13  1  0
 13 14  1  0
 14 15  2  0
 15 16  1  0
 16 17  2  0
 17 18  1  0
 18 19  1  0
 19 20  2  0
 20 21  1  0
 21 22  2  0
 22 23  1  0
 23 24  1  0
 24 25  1  0
 25 26  2  0
 26 27  1  0
 17 28  1  0
 28 29  1  0
 28 30  2  0
 10 31  1  0
 31 32  2  0
 31  6  1  0
 30 14  1  0
 27 19  1  0
 27 23  2  0
M  END
>  <Compound_ID>  (97) 
CHEMBL453849

>  <Active>  (97) 
1.0

>  <Smiles>  (97) 
CC(C)CCn1cccc(C(=O)Nc2ccc(Oc3ccnc4[nH]ccc34)c(F)c2)c1=O

>  <canonical_smi>  (97) 
CC(C)CCn1cccc(C(=O)Nc2ccc(Oc3ccnc4[nH]ccc34)c(F)c2)c1=O

>  <Set>  (97) 
G2 active

>  <Set_type>  (97) 
Train

>  <MW>  (97) 
434.47

>  <HBD>  (97) 
2

>  <HBA>  (97) 
4

>  <NRB>  (97) 
7

>  <NR>  (97) 
4

>  <NAR>  (97) 
4

>  <PSA>  (97) 
89.01

>  <Standard Type>  (97) 
nan

>  <Standard Relation>  (97) 
nan

>  <Standard Units>  (97) 
nan

>  <Standard Value>  (97) 
nan

>  <Assay ChEMBL ID>  (97) 
nan

>  <Assay Description>  (97) 
nan

>  <BAO Label>  (97) 
nan

$$$$

     RDKit          2D

 44 48  0  0  0  0  0  0  0  0999 V2000
    3.0000   -5.1962    0.0000 C   0  0  0  0  0  0  0  0  0  0  0  0
    1.5000   -5.1962    0.0000 O   0  0  0  0  0  0  0  0  0  0  0  0
    0.7500   -3.8971    0.0000 C   0  0  0  0  0  0  0  0  0  0  0  0
    1.5000   -2.5981    0.0000 C   0  0  0  0  0  0  0  0  0  0  0  0
    0.7500   -1.2990    0.0000 C   0  0  0  0  0  0  0  0  0  0  0  0
    1.5000    0.0000    0.0000 N   0  0  0  0  0  0  0  0  0  0  0  0
    0.7500    1.2990    0.0000 C   0  0  0  0  0  0  0  0  0  0  0  0
   -0.7500    1.2990    0.0000 C   0  0  0  0  0  0  0  0  0  0  0  0
   -1.5000    0.0000    0.0000 C   0  0  0  0  0  0  0  0  0  0  0  0
   -3.0000    0.0000    0.0000 O   0  0  0  0  0  0  0  0  0  0  0  0
   -3.7500    1.2990    0.0000 C   0  0  0  0  0  0  0  0  0  0  0  0
   -3.0000    2.5981    0.0000 C   0  0  0  0  0  0  0  0  0  0  0  0
   -3.7500    3.8971    0.0000 C   0  0  0  0  0  0  0  0  0  0  0  0
   -5.2500    3.8971    0.0000 C   0  0  0  0  0  0  0  0  0  0  0  0
   -6.0000    5.1962    0.0000 C   0  0  0  0  0  0  0  0  0  0  0  0
   -5.2500    6.4952    0.0000 C   0  0  0  0  0  0  0  0  0  0  0  0
   -6.0000    7.7942    0.0000 N   0  0  0  0  0  0  0  0  0  0  0  0
   -7.5000    7.7942    0.0000 C   0  0  0  0  0  0  0  0  0  0  0  0
   -8.2500    9.0933    0.0000 C   0  0  0  0  0  0  0  0  0  0  0  0
   -9.7500    9.0933    0.0000 N   0  0  0  0  0  0  0  0  0  0  0  0
  -10.5000   10.3923    0.0000 C   0  0  0  0  0  0  0  0  0  0  0  0
   -9.7500   11.6913    0.0000 O   0  0  0  0  0  0  0  0  0  0  0  0
  -12.0000   10.3923    0.0000 C   0  0  0  0  0  0  0  0  0  0  0  0
  -12.7500   11.6913    0.0000 N   0  0  0  0  0  0  0  0  0  0  0  0
  -14.2500   11.6913    0.0000 C   0  0  0  0  0  0  0  0  0  0  0  0
  -12.0000   12.9904    0.0000 C   0  0  0  0  0  0  0  0  0  0  0  0
   -7.5000   10.3923    0.0000 C   0  0  0  0  0  0  0  0  0  0  0  0
   -6.0000   10.3923    0.0000 C   0  0  0  0  0  0  0  0  0  0  0  0
   -5.2500   11.6913    0.0000 C   0  0  0  0  0  0  0  0  0  0  0  0
   -6.0000   12.9904    0.0000 C   0  0  0  0  0  0  0  0  0  0  0  0
   -7.5000   12.9904    0.0000 C   0  0  0  0  0  0  0  0  0  0  0  0
   -8.2500   11.6913    0.0000 C   0  0  0  0  0  0  0  0  0  0  0  0
   -8.2500    6.4952    0.0000 N   0  0  0  0  0  0  0  0  0  0  0  0
   -9.7500    6.4952    0.0000 C   0  0  0  0  0  0  0  0  0  0  0  0
   -7.5000    5.1962    0.0000 C   0  0  0  0  0  0  0  0  0  0  0  0
   -8.2500    3.8971    0.0000 O   0  0  0  0  0  0  0  0  0  0  0  0
   -6.0000    2.5981    0.0000 C   0  0  0  0  0  0  0  0  0  0  0  0
   -5.2500    1.2990    0.0000 C   0  0  0  0  0  0  0  0  0  0  0  0
   -6.0000    0.0000    0.0000 F   0  0  0  0  0  0  0  0  0  0  0  0
   -0.7500   -1.2990    0.0000 C   0  0  0  0  0  0  0  0  0  0  0  0
   -1.5000   -2.5981    0.0000 C   0  0  0  0  0  0  0  0  0  0  0  0
   -0.7500   -3.8971    0.0000 C   0  0  0  0  0  0  0  0  0  0  0  0
   -1.5000   -5.1962    0.0000 O   0  0  0  0  0  0  0  0  0  0  0  0
   -3.0000   -5.1962    0.0000 C   0  0  0  0  0  0  0  0  0  0  0  0
  1  2  1  0
  2  3  1  0
  3  4  2  0
  4  5  1  0
  5  6  2  0
  6  7  1  0
  7  8  2  0
  8  9  1  0
  9 10  1  0
 10 11  1  0
 11 12  2  0
 12 13  1  0
 13 14  2  0
 14 15  1  0
 15 16  2  0
 16 17  1  0
 17 18  2  0
 18 19  1  0
 19 20  1  0
 20 21  1  0
 21 22  2  0
 21 23  1  0
 23 24  1  0
 24 25  1  0
 24 26  1  0
 19 27  1  0
 27 28  2  0
 28 29  1  0
 29 30  2  0
 30 31  1  0
 31 32  2  0
 18 33  1  0
 33 34  1  0
 33 35  1  0
 35 36  2  0
 14 37  1  0
 37 38  2  0
 38 39  1  0
  9 40  2  0
 40 41  1  0
 41 42  2  0
 42 43  1  0
 43 44  1  0
 42  3  1  0
 40  5  1  0
 38 11  1  0
 35 15  1  0
 32 27  1  0
M  END
>  <Compound_ID>  (98) 
CHEMBL500834

>  <Active>  (98) 
1.0

>  <Smiles>  (98) 
COc1cc2nccc(Oc3ccc(-c4cnc(C(NC(=O)CN(C)C)c5ccccc5)n(C)c4=O)cc3F)c2cc1OC

>  <canonical_smi>  (98) 
COc1cc2nccc(Oc3ccc(-c4cnc(C(NC(=O)CN(C)C)c5ccccc5)n(C)c4=O)cc3F)c2cc1OC

>  <Set>  (98) 
G2 active

>  <Set_type>  (98) 
Train

>  <MW>  (98) 
597.65

>  <HBD>  (98) 
1

>  <HBA>  (98) 
8

>  <NRB>  (98) 
10

>  <NR>  (98) 
5

>  <NAR>  (98) 
5

>  <PSA>  (98) 
107.81

>  <Standard Type>  (98) 
nan

>  <Standard Relation>  (98) 
nan

>  <Standard Units>  (98) 
nan

>  <Standard Value>  (98) 
nan

>  <Assay ChEMBL ID>  (98) 
nan

>  <Assay Description>  (98) 
nan

>  <BAO Label>  (98) 
nan

$$$$

     RDKit          2D

 39 42  0  0  0  0  0  0  0  0999 V2000
   -2.6401   -3.1891    0.0000 C   0  0  0  0  0  0  0  0  0  0  0  0
   -1.2135   -2.7256    0.0000 C   0  0  0  0  0  0  0  0  0  0  0  0
   -0.0000   -3.6073    0.0000 C   0  0  0  0  0  0  0  0  0  0  0  0
   -0.0000   -5.1073    0.0000 O   0  0  0  0  0  0  0  0  0  0  0  0
    1.2990   -5.8573    0.0000 C   0  0  0  0  0  0  0  0  0  0  0  0
    1.2990   -7.3573    0.0000 C   0  0  0  0  0  0  0  0  0  0  0  0
    2.5981   -8.1073    0.0000 C   0  0  0  0  0  0  0  0  0  0  0  0
    2.5981   -9.6073    0.0000 N   0  0  0  0  0  0  0  0  0  0  0  0
    3.8971  -10.3573    0.0000 C   0  0  0  0  0  0  0  0  0  0  0  0
    1.2990  -10.3573    0.0000 C   0  0  0  0  0  0  0  0  0  0  0  0
    1.2135   -2.7256    0.0000 C   0  0  0  0  0  0  0  0  0  0  0  0
    0.7500   -1.2990    0.0000 N   0  0  0  0  0  0  0  0  0  0  0  0
    1.5000    0.0000    0.0000 N   0  0  0  0  0  0  0  0  0  0  0  0
    0.7500    1.2990    0.0000 C   0  0  0  0  0  0  0  0  0  0  0  0
   -0.7500    1.2990    0.0000 N   0  0  0  0  0  0  0  0  0  0  0  0
   -1.5000    0.0000    0.0000 C   0  0  0  0  0  0  0  0  0  0  0  0
   -3.0000    0.0000    0.0000 O   0  0  0  0  0  0  0  0  0  0  0  0
   -3.7500    1.2990    0.0000 C   0  0  0  0  0  0  0  0  0  0  0  0
   -3.0000    2.5981    0.0000 C   0  0  0  0  0  0  0  0  0  0  0  0
   -3.7500    3.8971    0.0000 C   0  0  0  0  0  0  0  0  0  0  0  0
   -5.2500    3.8971    0.0000 C   0  0  0  0  0  0  0  0  0  0  0  0
   -6.0000    5.1962    0.0000 N   0  0  0  0  0  0  0  0  0  0  0  0
   -5.2500    6.4952    0.0000 C   0  0  0  0  0  0  0  0  0  0  0  0
   -3.7500    6.4952    0.0000 O   0  0  0  0  0  0  0  0  0  0  0  0
   -6.0000    7.7942    0.0000 C   0  0  0  0  0  0  0  0  0  0  0  0
   -5.2500    9.0933    0.0000 C   0  0  0  0  0  0  0  0  0  0  0  0
   -3.7500    9.0933    0.0000 O   0  0  0  0  0  0  0  0  0  0  0  0
   -6.0000   10.3923    0.0000 N   0  0  0  0  0  0  0  0  0  0  0  0
   -5.2500   11.6913    0.0000 C   0  0  0  0  0  0  0  0  0  0  0  0
   -3.7500   11.6913    0.0000 C   0  0  0  0  0  0  0  0  0  0  0  0
   -3.0000   12.9904    0.0000 C   0  0  0  0  0  0  0  0  0  0  0  0
   -3.7500   14.2894    0.0000 C   0  0  0  0  0  0  0  0  0  0  0  0
   -3.0000   15.5885    0.0000 F   0  0  0  0  0  0  0  0  0  0  0  0
   -5.2500   14.2894    0.0000 C   0  0  0  0  0  0  0  0  0  0  0  0
   -6.0000   12.9904    0.0000 C   0  0  0  0  0  0  0  0  0  0  0  0
   -6.0000    2.5981    0.0000 C   0  0  0  0  0  0  0  0  0  0  0  0
   -5.2500    1.2990    0.0000 C   0  0  0  0  0  0  0  0  0  0  0  0
   -6.0000    0.0000    0.0000 F   0  0  0  0  0  0  0  0  0  0  0  0
   -0.7500   -1.2990    0.0000 C   0  0  0  0  0  0  0  0  0  0  0  0
  1  2  1  0
  2  3  1  0
  3  4  1  0
  4  5  1  0
  5  6  1  0
  6  7  1  0
  7  8  1  0
  8  9  1  0
  8 10  1  0
  3 11  2  0
 11 12  1  0
 12 13  1  0
 13 14  2  0
 14 15  1  0
 15 16  2  0
 16 17  1  0
 17 18  1  0
 18 19  2  0
 19 20  1  0
 20 21  2  0
 21 22  1  0
 22 23  1  0
 23 24  2  0
 23 25  1  0
 25 26  1  0
 26 27  2  0
 26 28  1  0
 28 29  1  0
 29 30  2  0
 30 31  1  0
 31 32  2  0
 32 33  1  0
 32 34  1  0
 34 35  2  0
 21 36  1  0
 36 37  2  0
 37 38  1  0
 16 39  1  0
 39  2  2  0
 39 12  1  0
 37 18  1  0
 35 29  1  0
M  END
>  <Compound_ID>  (99) 
CHEMBL254280

>  <Active>  (99) 
1.0

>  <Smiles>  (99) 
Cc1c(OCCCN(C)C)cn2ncnc(Oc3ccc(NC(=O)CC(=O)Nc4ccc(F)cc4)cc3F)c12

>  <canonical_smi>  (99) 
Cc1c(OCCCN(C)C)cn2ncnc(Oc3ccc(NC(=O)CC(=O)Nc4ccc(F)cc4)cc3F)c12

>  <Set>  (99) 
G2 active

>  <Set_type>  (99) 
Train

>  <MW>  (99) 
538.56

>  <HBD>  (99) 
2

>  <HBA>  (99) 
7

>  <NRB>  (99) 
11

>  <NR>  (99) 
4

>  <NAR>  (99) 
4

>  <PSA>  (99) 
110.09

>  <Standard Type>  (99) 
nan

>  <Standard Relation>  (99) 
nan

>  <Standard Units>  (99) 
nan

>  <Standard Value>  (99) 
nan

>  <Assay ChEMBL ID>  (99) 
nan

>  <Assay Description>  (99) 
nan

>  <BAO Label>  (99) 
nan

$$$$

     RDKit          2D

 36 39  0  0  0  0  0  0  0  0999 V2000
   -2.6401   -3.1891    0.0000 C   0  0  0  0  0  0  0  0  0  0  0  0
   -1.2135   -2.7256    0.0000 C   0  0  0  0  0  0  0  0  0  0  0  0
   -0.0000   -3.6073    0.0000 C   0  0  0  0  0  0  0  0  0  0  0  0
   -0.0000   -5.1073    0.0000 O   0  0  0  0  0  0  0  0  0  0  0  0
    1.2990   -5.8573    0.0000 C   0  0  0  0  0  0  0  0  0  0  0  0
    1.2990   -7.3573    0.0000 C   0  0  0  0  0  0  0  0  0  0  0  0
    2.5981   -8.1073    0.0000 C   0  0  0  0  0  0  0  0  0  0  0  0
    2.5981   -9.6073    0.0000 N   0  0  0  0  0  0  0  0  0  0  0  0
    3.8971  -10.3573    0.0000 C   0  0  0  0  0  0  0  0  0  0  0  0
    1.2990  -10.3573    0.0000 C   0  0  0  0  0  0  0  0  0  0  0  0
    1.2135   -2.7256    0.0000 C   0  0  0  0  0  0  0  0  0  0  0  0
    0.7500   -1.2990    0.0000 N   0  0  0  0  0  0  0  0  0  0  0  0
    1.5000    0.0000    0.0000 N   0  0  0  0  0  0  0  0  0  0  0  0
    0.7500    1.2990    0.0000 C   0  0  0  0  0  0  0  0  0  0  0  0
   -0.7500    1.2990    0.0000 N   0  0  0  0  0  0  0  0  0  0  0  0
   -1.5000    0.0000    0.0000 C   0  0  0  0  0  0  0  0  0  0  0  0
   -3.0000    0.0000    0.0000 O   0  0  0  0  0  0  0  0  0  0  0  0
   -3.7500    1.2990    0.0000 C   0  0  0  0  0  0  0  0  0  0  0  0
   -3.0000    2.5981    0.0000 C   0  0  0  0  0  0  0  0  0  0  0  0
   -3.7500    3.8971    0.0000 C   0  0  0  0  0  0  0  0  0  0  0  0
   -5.2500    3.8971    0.0000 C   0  0  0  0  0  0  0  0  0  0  0  0
   -6.0000    5.1962    0.0000 N   0  0  0  0  0  0  0  0  0  0  0  0
   -5.2500    6.4952    0.0000 C   0  0  0  0  0  0  0  0  0  0  0  0
   -3.7500    6.4952    0.0000 O   0  0  0  0  0  0  0  0  0  0  0  0
   -6.0000    7.7942    0.0000 C   0  0  0  0  0  0  0  0  0  0  0  0
   -5.2500    9.0933    0.0000 C   0  0  0  0  0  0  0  0  0  0  0  0
   -3.7500    9.0933    0.0000 F   0  0  0  0  0  0  0  0  0  0  0  0
   -6.0000   10.3923    0.0000 C   0  0  0  0  0  0  0  0  0  0  0  0
   -7.5000   10.3923    0.0000 C   0  0  0  0  0  0  0  0  0  0  0  0
   -8.2500    9.0933    0.0000 C   0  0  0  0  0  0  0  0  0  0  0  0
   -7.5000    7.7942    0.0000 C   0  0  0  0  0  0  0  0  0  0  0  0
   -8.2500    6.4952    0.0000 F   0  0  0  0  0  0  0  0  0  0  0  0
   -6.0000    2.5981    0.0000 C   0  0  0  0  0  0  0  0  0  0  0  0
   -5.2500    1.2990    0.0000 C   0  0  0  0  0  0  0  0  0  0  0  0
   -6.0000    0.0000    0.0000 F   0  0  0  0  0  0  0  0  0  0  0  0
   -0.7500   -1.2990    0.0000 C   0  0  0  0  0  0  0  0  0  0  0  0
  1  2  1  0
  2  3  1  0
  3  4  1  0
  4  5  1  0
  5  6  1  0
  6  7  1  0
  7  8  1  0
  8  9  1  0
  8 10  1  0
  3 11  2  0
 11 12  1  0
 12 13  1  0
 13 14  2  0
 14 15  1  0
 15 16  2  0
 16 17  1  0
 17 18  1  0
 18 19  2  0
 19 20  1  0
 20 21  2  0
 21 22  1  0
 22 23  1  0
 23 24  2  0
 23 25  1  0
 25 26  2  0
 26 27  1  0
 26 28  1  0
 28 29  2  0
 29 30  1  0
 30 31  2  0
 31 32  1  0
 21 33  1  0
 33 34  2  0
 34 35  1  0
 16 36  1  0
 36  2  2  0
 36 12  1  0
 34 18  1  0
 31 25  1  0
M  END
>  <Compound_ID>  (100) 
CHEMBL400332

>  <Active>  (100) 
1.0

>  <Smiles>  (100) 
Cc1c(OCCCN(C)C)cn2ncnc(Oc3ccc(NC(=O)c4c(F)cccc4F)cc3F)c12

>  <canonical_smi>  (100) 
Cc1c(OCCCN(C)C)cn2ncnc(Oc3ccc(NC(=O)c4c(F)cccc4F)cc3F)c12

>  <Set>  (100) 
G2 active

>  <Set_type>  (100) 
Train

>  <MW>  (100) 
499.49

>  <HBD>  (100) 
1

>  <HBA>  (100) 
6

>  <NRB>  (100) 
9

>  <NR>  (100) 
4

>  <NAR>  (100) 
4

>  <PSA>  (100) 
80.99

>  <Standard Type>  (100) 
nan

>  <Standard Relation>  (100) 
nan

>  <Standard Units>  (100) 
nan

>  <Standard Value>  (100) 
nan

>  <Assay ChEMBL ID>  (100) 
nan

>  <Assay Description>  (100) 
nan

>  <BAO Label>  (100) 
nan

$$$$

     RDKit          2D

 32 36  0  0  0  0  0  0  0  0999 V2000
    3.7500   -6.4952    0.0000 C   0  0  0  0  0  0  0  0  0  0  0  0
    3.0000   -5.1962    0.0000 N   0  0  0  0  0  0  0  0  0  0  0  0
    1.5000   -5.1962    0.0000 C   0  0  0  0  0  0  0  0  0  0  0  0
    0.7500   -3.8971    0.0000 C   0  0  0  0  0  0  0  0  0  0  0  0
    1.5000   -2.5981    0.0000 N   0  0  0  0  0  0  0  0  0  0  0  0
    0.7500   -1.2990    0.0000 C   0  0  0  0  0  0  0  0  0  0  0  0
    1.5000    0.0000    0.0000 C   0  0  0  0  0  0  0  0  0  0  0  0
    0.7500    1.2990    0.0000 N   0  0  0  0  0  0  0  0  0  0  0  0
   -0.7500    1.2990    0.0000 C   0  0  0  0  0  0  0  0  0  0  0  0
   -1.5000    2.5981    0.0000 C   0  0  0  0  0  0  0  0  0  0  0  0
   -3.0000    2.5981    0.0000 C   0  0  0  0  0  0  0  0  0  0  0  0
   -3.7500    3.8971    0.0000 C   0  0  0  0  0  0  0  0  0  0  0  0
   -4.5000    5.1962    0.0000 F   0  0  0  0  0  0  0  0  0  0  0  0
   -2.4510    4.6471    0.0000 F   0  0  0  0  0  0  0  0  0  0  0  0
   -5.0490    3.1471    0.0000 F   0  0  0  0  0  0  0  0  0  0  0  0
   -3.7500    1.2990    0.0000 C   0  0  0  0  0  0  0  0  0  0  0  0
   -3.0000    0.0000    0.0000 C   0  0  0  0  0  0  0  0  0  0  0  0
   -3.7500   -1.2990    0.0000 N   0  0  0  0  0  0  0  0  0  0  0  0
   -5.2500   -1.2990    0.0000 C   0  0  0  0  0  0  0  0  0  0  0  0
   -6.0000   -2.5981    0.0000 C   0  0  0  0  0  0  0  0  0  0  0  0
   -5.2500   -3.8971    0.0000 C   0  0  0  0  0  0  0  0  0  0  0  0
   -6.0000   -5.1962    0.0000 C   0  0  0  0  0  0  0  0  0  0  0  0
   -7.5000   -5.1962    0.0000 C   0  0  0  0  0  0  0  0  0  0  0  0
   -8.2500   -3.8971    0.0000 C   0  0  0  0  0  0  0  0  0  0  0  0
   -9.7172   -3.5852    0.0000 N   0  0  0  0  0  0  0  0  0  0  0  0
   -9.8740   -2.0935    0.0000 O   0  0  0  0  0  0  0  0  0  0  0  0
   -8.5037   -1.4834    0.0000 N   0  0  0  0  0  0  0  0  0  0  0  0
   -7.5000   -2.5981    0.0000 C   0  0  0  0  0  0  0  0  0  0  0  0
   -1.5000    0.0000    0.0000 C   0  0  0  0  0  0  0  0  0  0  0  0
   -0.7500   -1.2990    0.0000 N   0  0  0  0  0  0  0  0  0  0  0  0
    3.0000   -2.5981    0.0000 C   0  0  0  0  0  0  0  0  0  0  0  0
    3.7500   -3.8971    0.0000 C   0  0  0  0  0  0  0  0  0  0  0  0
  1  2  1  0
  2  3  1  0
  3  4  1  0
  4  5  1  0
  5  6  1  0
  6  7  2  0
  7  8  1  0
  8  9  2  0
  9 10  1  0
 10 11  2  0
 11 12  1  0
 12 13  1  0
 12 14  1  0
 12 15  1  0
 11 16  1  0
 16 17  2  0
 17 18  1  0
 18 19  1  0
 19 20  1  0
 20 21  2  0
 21 22  1  0
 22 23  2  0
 23 24  1  0
 24 25  2  0
 25 26  1  0
 26 27  1  0
 27 28  2  0
 17 29  1  0
 29 30  2  0
  5 31  1  0
 31 32  1  0
 32  2  1  0
 30  6  1  0
 29  9  1  0
 28 20  1  0
 28 24  1  0
M  END
>  <Compound_ID>  (101) 
CHEMBL515659

>  <Active>  (101) 
1.0

>  <Smiles>  (101) 
CN1CCN(c2cnc3cc(C(F)(F)F)cc(NCc4cccc5nonc45)c3n2)CC1

>  <canonical_smi>  (101) 
CN1CCN(c2cnc3cc(C(F)(F)F)cc(NCc4cccc5nonc45)c3n2)CC1

>  <Set>  (101) 
G2 active

>  <Set_type>  (101) 
Train

>  <MW>  (101) 
443.43

>  <HBD>  (101) 
1

>  <HBA>  (101) 
8

>  <NRB>  (101) 
4

>  <NR>  (101) 
5

>  <NAR>  (101) 
4

>  <PSA>  (101) 
83.21

>  <Standard Type>  (101) 
nan

>  <Standard Relation>  (101) 
nan

>  <Standard Units>  (101) 
nan

>  <Standard Value>  (101) 
nan

>  <Assay ChEMBL ID>  (101) 
nan

>  <Assay Description>  (101) 
nan

>  <BAO Label>  (101) 
nan

$$$$

     RDKit          2D

 34 38  0  0  0  0  0  0  0  0999 V2000
  -10.5738    5.8451    0.0000 O   0  0  0  0  0  0  0  0  0  0  0  0
  -10.2619    7.3123    0.0000 C   0  0  0  0  0  0  0  0  0  0  0  0
  -11.3766    8.3160    0.0000 N   0  0  0  0  0  0  0  0  0  0  0  0
  -12.8032    7.8525    0.0000 C   0  0  0  0  0  0  0  0  0  0  0  0
  -13.1151    6.3853    0.0000 C   0  0  0  0  0  0  0  0  0  0  0  0
  -14.5416    5.9218    0.0000 C   0  0  0  0  0  0  0  0  0  0  0  0
  -15.6564    6.9255    0.0000 C   0  0  0  0  0  0  0  0  0  0  0  0
  -17.0829    6.4619    0.0000 F   0  0  0  0  0  0  0  0  0  0  0  0
  -15.3445    8.3927    0.0000 C   0  0  0  0  0  0  0  0  0  0  0  0
  -13.9179    8.8562    0.0000 N   0  0  0  0  0  0  0  0  0  0  0  0
   -8.8353    7.7759    0.0000 C   0  0  0  0  0  0  0  0  0  0  0  0
   -8.5234    9.2431    0.0000 C   0  0  0  0  0  0  0  0  0  0  0  0
   -7.0969    9.7066    0.0000 C   0  0  0  0  0  0  0  0  0  0  0  0
   -5.9821    8.7029    0.0000 C   0  0  0  0  0  0  0  0  0  0  0  0
   -6.2940    7.2357    0.0000 N   0  0  0  0  0  0  0  0  0  0  0  0
   -7.7206    6.7722    0.0000 C   0  0  0  0  0  0  0  0  0  0  0  0
   -8.0325    5.3050    0.0000 N   0  0  0  0  0  0  0  0  0  0  0  0
   -6.9177    4.3013    0.0000 C   0  0  0  0  0  0  0  0  0  0  0  0
   -7.2296    2.8340    0.0000 C   0  0  0  0  0  0  0  0  0  0  0  0
   -6.1149    1.8303    0.0000 C   0  0  0  0  0  0  0  0  0  0  0  0
   -4.6883    2.2939    0.0000 C   0  0  0  0  0  0  0  0  0  0  0  0
   -3.5736    1.2902    0.0000 O   0  0  0  0  0  0  0  0  0  0  0  0
   -3.8855   -0.1771    0.0000 C   0  0  0  0  0  0  0  0  0  0  0  0
   -5.3120   -0.6406    0.0000 C   0  0  0  0  0  0  0  0  0  0  0  0
   -5.6239   -2.1078    0.0000 C   0  0  0  0  0  0  0  0  0  0  0  0
   -4.5092   -3.1115    0.0000 N   0  0  0  0  0  0  0  0  0  0  0  0
   -3.0826   -2.6480    0.0000 C   0  0  0  0  0  0  0  0  0  0  0  0
   -1.7836   -3.3980    0.0000 N   0  0  0  0  0  0  0  0  0  0  0  0
   -0.6689   -2.3943    0.0000 C   0  0  0  0  0  0  0  0  0  0  0  0
   -1.2790   -1.0240    0.0000 C   0  0  0  0  0  0  0  0  0  0  0  0
   -2.7707   -1.1807    0.0000 C   0  0  0  0  0  0  0  0  0  0  0  0
   -4.3764    3.7611    0.0000 C   0  0  0  0  0  0  0  0  0  0  0  0
   -2.9499    4.2246    0.0000 F   0  0  0  0  0  0  0  0  0  0  0  0
   -5.4912    4.7648    0.0000 C   0  0  0  0  0  0  0  0  0  0  0  0
  1  2  2  0
  2  3  1  0
  3  4  1  0
  4  5  2  0
  5  6  1  0
  6  7  2  0
  7  8  1  0
  7  9  1  0
  9 10  2  0
  2 11  1  0
 11 12  2  0
 12 13  1  0
 13 14  2  0
 14 15  1  0
 15 16  2  0
 16 17  1  0
 17 18  1  0
 18 19  2  0
 19 20  1  0
 20 21  2  0
 21 22  1  0
 22 23  1  0
 23 24  2  0
 24 25  1  0
 25 26  2  0
 26 27  1  0
 27 28  1  0
 28 29  1  0
 29 30  2  0
 30 31  1  0
 21 32  1  0
 32 33  1  0
 32 34  2  0
 10  4  1  0
 16 11  1  0
 34 18  1  0
 31 23  1  0
 31 27  2  0
M  END
>  <Compound_ID>  (102) 
CHEMBL1099204

>  <Active>  (102) 
1.0

>  <Smiles>  (102) 
O=C(Nc1ccc(F)cn1)c1cccnc1Nc1ccc(Oc2ccnc3[nH]ccc23)c(F)c1

>  <canonical_smi>  (102) 
O=C(Nc1ccc(F)cn1)c1cccnc1Nc1ccc(Oc2ccnc3[nH]ccc23)c(F)c1

>  <Set>  (102) 
G2 active

>  <Set_type>  (102) 
Train

>  <MW>  (102) 
458.43

>  <HBD>  (102) 
3

>  <HBA>  (102) 
6

>  <NRB>  (102) 
6

>  <NR>  (102) 
5

>  <NAR>  (102) 
5

>  <PSA>  (102) 
104.82

>  <Standard Type>  (102) 
nan

>  <Standard Relation>  (102) 
nan

>  <Standard Units>  (102) 
nan

>  <Standard Value>  (102) 
nan

>  <Assay ChEMBL ID>  (102) 
nan

>  <Assay Description>  (102) 
nan

>  <BAO Label>  (102) 
nan

$$$$

     RDKit          2D

 38 43  0  0  0  0  0  0  0  0999 V2000
   -1.6317   -8.6291    0.0000 C   0  0  0  0  0  0  0  0  0  0  0  0
   -0.7500   -7.4156    0.0000 N   0  0  0  0  0  0  0  0  0  0  0  0
    0.7500   -7.4156    0.0000 C   0  0  0  0  0  0  0  0  0  0  0  0
    1.2135   -5.9890    0.0000 N   0  0  0  0  0  0  0  0  0  0  0  0
   -0.0000   -5.1073    0.0000 C   0  0  0  0  0  0  0  0  0  0  0  0
   -0.0000   -3.6073    0.0000 C   0  0  0  0  0  0  0  0  0  0  0  0
    1.2135   -2.7256    0.0000 C   0  0  0  0  0  0  0  0  0  0  0  0
    0.7500   -1.2990    0.0000 C   0  0  0  0  0  0  0  0  0  0  0  0
    1.5000    0.0000    0.0000 N   0  0  0  0  0  0  0  0  0  0  0  0
    0.7500    1.2990    0.0000 C   0  0  0  0  0  0  0  0  0  0  0  0
   -0.7500    1.2990    0.0000 C   0  0  0  0  0  0  0  0  0  0  0  0
   -1.5000    0.0000    0.0000 C   0  0  0  0  0  0  0  0  0  0  0  0
   -3.0000    0.0000    0.0000 O   0  0  0  0  0  0  0  0  0  0  0  0
   -3.7500    1.2990    0.0000 C   0  0  0  0  0  0  0  0  0  0  0  0
   -3.0000    2.5981    0.0000 C   0  0  0  0  0  0  0  0  0  0  0  0
   -3.7500    3.8971    0.0000 C   0  0  0  0  0  0  0  0  0  0  0  0
   -5.2500    3.8971    0.0000 C   0  0  0  0  0  0  0  0  0  0  0  0
   -6.0000    5.1962    0.0000 N   0  0  0  0  0  0  0  0  0  0  0  0
   -5.2500    6.4952    0.0000 C   0  0  0  0  0  0  0  0  0  0  0  0
   -3.7500    6.4952    0.0000 O   0  0  0  0  0  0  0  0  0  0  0  0
   -6.0000    7.7942    0.0000 C   0  0  0  0  0  0  0  0  0  0  0  0
   -7.4918    7.9510    0.0000 C   0  0  0  0  0  0  0  0  0  0  0  0
   -7.8037    9.4182    0.0000 C   0  0  0  0  0  0  0  0  0  0  0  0
   -6.5046   10.1682    0.0000 N   0  0  0  0  0  0  0  0  0  0  0  0
   -6.3478   11.6600    0.0000 C   0  0  0  0  0  0  0  0  0  0  0  0
   -4.9775   12.2701    0.0000 C   0  0  0  0  0  0  0  0  0  0  0  0
   -4.8207   13.7619    0.0000 C   0  0  0  0  0  0  0  0  0  0  0  0
   -6.0342   14.6436    0.0000 C   0  0  0  0  0  0  0  0  0  0  0  0
   -7.4046   14.0335    0.0000 C   0  0  0  0  0  0  0  0  0  0  0  0
   -7.5613   12.5417    0.0000 C   0  0  0  0  0  0  0  0  0  0  0  0
   -5.3899    9.1645    0.0000 C   0  0  0  0  0  0  0  0  0  0  0  0
   -3.9227    9.4764    0.0000 O   0  0  0  0  0  0  0  0  0  0  0  0
   -6.0000    2.5981    0.0000 C   0  0  0  0  0  0  0  0  0  0  0  0
   -5.2500    1.2990    0.0000 C   0  0  0  0  0  0  0  0  0  0  0  0
   -6.0000    0.0000    0.0000 F   0  0  0  0  0  0  0  0  0  0  0  0
   -0.7500   -1.2990    0.0000 C   0  0  0  0  0  0  0  0  0  0  0  0
   -1.2135   -2.7256    0.0000 S   0  0  0  0  0  0  0  0  0  0  0  0
   -1.2135   -5.9890    0.0000 C   0  0  0  0  0  0  0  0  0  0  0  0
  1  2  1  0
  2  3  1  0
  3  4  2  0
  4  5  1  0
  5  6  1  0
  6  7  2  0
  7  8  1  0
  8  9  2  0
  9 10  1  0
 10 11  2  0
 11 12  1  0
 12 13  1  0
 13 14  1  0
 14 15  2  0
 15 16  1  0
 16 17  2  0
 17 18  1  0
 18 19  1  0
 19 20  2  0
 19 21  1  0
 21 22  1  0
 22 23  1  0
 23 24  1  0
 24 25  1  0
 25 26  2  0
 26 27  1  0
 27 28  2  0
 28 29  1  0
 29 30  2  0
 24 31  1  0
 31 32  2  0
 17 33  1  0
 33 34  2  0
 34 35  1  0
 12 36  2  0
 36 37  1  0
  5 38  2  0
 38  2  1  0
 37  6  1  0
 36  8  1  0
 34 14  1  0
 31 21  1  0
 30 25  1  0
M  END
>  <Compound_ID>  (103) 
CHEMBL518209

>  <Active>  (103) 
1.0

>  <Smiles>  (103) 
Cn1cnc(-c2cc3nccc(Oc4ccc(NC(=O)C5CCN(c6ccccc6)C5=O)cc4F)c3s2)c1

>  <canonical_smi>  (103) 
Cn1cnc(-c2cc3nccc(Oc4ccc(NC(=O)C5CCN(c6ccccc6)C5=O)cc4F)c3s2)c1

>  <Set>  (103) 
G2 active

>  <Set_type>  (103) 
Train

>  <MW>  (103) 
527.58

>  <HBD>  (103) 
1

>  <HBA>  (103) 
5

>  <NRB>  (103) 
6

>  <NR>  (103) 
6

>  <NAR>  (103) 
5

>  <PSA>  (103) 
89.35

>  <Standard Type>  (103) 
nan

>  <Standard Relation>  (103) 
nan

>  <Standard Units>  (103) 
nan

>  <Standard Value>  (103) 
nan

>  <Assay ChEMBL ID>  (103) 
nan

>  <Assay Description>  (103) 
nan

>  <BAO Label>  (103) 
nan

$$$$

     RDKit          2D

 38 42  0  0  0  0  0  0  0  0999 V2000
   -2.9812   -3.7800    0.0000 C   0  0  0  0  0  0  0  0  0  0  0  0
   -2.6694   -5.2472    0.0000 N   0  0  0  0  0  0  0  0  0  0  0  0
   -3.6731   -6.3619    0.0000 C   0  0  0  0  0  0  0  0  0  0  0  0
   -2.9231   -7.6610    0.0000 C   0  0  0  0  0  0  0  0  0  0  0  0
   -1.4558   -7.3491    0.0000 N   0  0  0  0  0  0  0  0  0  0  0  0
   -1.2990   -5.8573    0.0000 C   0  0  0  0  0  0  0  0  0  0  0  0
   -0.0000   -5.1073    0.0000 C   0  0  0  0  0  0  0  0  0  0  0  0
    1.2990   -5.8573    0.0000 O   0  0  0  0  0  0  0  0  0  0  0  0
   -0.0000   -3.6073    0.0000 C   0  0  0  0  0  0  0  0  0  0  0  0
    1.2135   -2.7256    0.0000 C   0  0  0  0  0  0  0  0  0  0  0  0
    0.7500   -1.2990    0.0000 C   0  0  0  0  0  0  0  0  0  0  0  0
    1.5000    0.0000    0.0000 N   0  0  0  0  0  0  0  0  0  0  0  0
    0.7500    1.2990    0.0000 C   0  0  0  0  0  0  0  0  0  0  0  0
   -0.7500    1.2990    0.0000 C   0  0  0  0  0  0  0  0  0  0  0  0
   -1.5000    0.0000    0.0000 C   0  0  0  0  0  0  0  0  0  0  0  0
   -3.0000    0.0000    0.0000 O   0  0  0  0  0  0  0  0  0  0  0  0
   -3.7500    1.2990    0.0000 C   0  0  0  0  0  0  0  0  0  0  0  0
   -3.0000    2.5981    0.0000 C   0  0  0  0  0  0  0  0  0  0  0  0
   -3.7500    3.8971    0.0000 C   0  0  0  0  0  0  0  0  0  0  0  0
   -5.2500    3.8971    0.0000 C   0  0  0  0  0  0  0  0  0  0  0  0
   -6.0000    5.1962    0.0000 N   0  0  0  0  0  0  0  0  0  0  0  0
   -5.2500    6.4952    0.0000 C   0  0  0  0  0  0  0  0  0  0  0  0
   -3.7500    6.4952    0.0000 O   0  0  0  0  0  0  0  0  0  0  0  0
   -6.0000    7.7942    0.0000 C   0  0  0  0  0  0  0  0  0  0  0  0
   -5.2500    9.0933    0.0000 C   0  0  0  0  0  0  0  0  0  0  0  0
   -3.7500    9.0933    0.0000 O   0  0  0  0  0  0  0  0  0  0  0  0
   -6.0000   10.3923    0.0000 N   0  0  0  0  0  0  0  0  0  0  0  0
   -5.2500   11.6913    0.0000 C   0  0  0  0  0  0  0  0  0  0  0  0
   -3.7500   11.6913    0.0000 C   0  0  0  0  0  0  0  0  0  0  0  0
   -3.0000   12.9904    0.0000 C   0  0  0  0  0  0  0  0  0  0  0  0
   -3.7500   14.2894    0.0000 C   0  0  0  0  0  0  0  0  0  0  0  0
   -5.2500   14.2894    0.0000 C   0  0  0  0  0  0  0  0  0  0  0  0
   -6.0000   12.9904    0.0000 C   0  0  0  0  0  0  0  0  0  0  0  0
   -6.0000    2.5981    0.0000 C   0  0  0  0  0  0  0  0  0  0  0  0
   -5.2500    1.2990    0.0000 C   0  0  0  0  0  0  0  0  0  0  0  0
   -6.0000    0.0000    0.0000 F   0  0  0  0  0  0  0  0  0  0  0  0
   -0.7500   -1.2990    0.0000 C   0  0  0  0  0  0  0  0  0  0  0  0
   -1.2135   -2.7256    0.0000 S   0  0  0  0  0  0  0  0  0  0  0  0
  1  2  1  0
  2  3  1  0
  3  4  2  0
  4  5  1  0
  5  6  2  0
  6  7  1  0
  7  8  2  0
  7  9  1  0
  9 10  2  0
 10 11  1  0
 11 12  2  0
 12 13  1  0
 13 14  2  0
 14 15  1  0
 15 16  1  0
 16 17  1  0
 17 18  2  0
 18 19  1  0
 19 20  2  0
 20 21  1  0
 21 22  1  0
 22 23  2  0
 22 24  1  0
 24 25  1  0
 25 26  2  0
 25 27  1  0
 27 28  1  0
 28 29  2  0
 29 30  1  0
 30 31  2  0
 31 32  1  0
 32 33  2  0
 20 34  1  0
 34 35  2  0
 35 36  1  0
 15 37  2  0
 37 38  1  0
  6  2  1  0
 38  9  1  0
 37 11  1  0
 35 17  1  0
 33 28  1  0
M  END
>  <Compound_ID>  (104) 
CHEMBL566623

>  <Active>  (104) 
1.0

>  <Smiles>  (104) 
Cn1ccnc1C(=O)c1cc2nccc(Oc3ccc(NC(=O)CC(=O)Nc4ccccc4)cc3F)c2s1

>  <canonical_smi>  (104) 
Cn1ccnc1C(=O)c1cc2nccc(Oc3ccc(NC(=O)CC(=O)Nc4ccccc4)cc3F)c2s1

>  <Set>  (104) 
G2 active

>  <Set_type>  (104) 
Train

>  <MW>  (104) 
529.55

>  <HBD>  (104) 
2

>  <HBA>  (104) 
6

>  <NRB>  (104) 
8

>  <NR>  (104) 
5

>  <NAR>  (104) 
5

>  <PSA>  (104) 
115.21

>  <Standard Type>  (104) 
nan

>  <Standard Relation>  (104) 
nan

>  <Standard Units>  (104) 
nan

>  <Standard Value>  (104) 
nan

>  <Assay ChEMBL ID>  (104) 
nan

>  <Assay Description>  (104) 
nan

>  <BAO Label>  (104) 
nan

$$$$

     RDKit          2D

 39 42  0  0  0  0  0  0  0  0999 V2000
   -2.6401   -3.1891    0.0000 C   0  0  0  0  0  0  0  0  0  0  0  0
   -1.2135   -2.7256    0.0000 C   0  0  0  0  0  0  0  0  0  0  0  0
   -0.0000   -3.6073    0.0000 C   0  0  0  0  0  0  0  0  0  0  0  0
   -0.0000   -5.1073    0.0000 O   0  0  0  0  0  0  0  0  0  0  0  0
    1.2990   -5.8573    0.0000 C   0  0  0  0  0  0  0  0  0  0  0  0
    1.2990   -7.3573    0.0000 C   0  0  0  0  0  0  0  0  0  0  0  0
    2.5981   -8.1073    0.0000 C   0  0  0  0  0  0  0  0  0  0  0  0
    2.5981   -9.6073    0.0000 N   0  0  0  0  0  0  0  0  0  0  0  0
    3.8971  -10.3573    0.0000 C   0  0  0  0  0  0  0  0  0  0  0  0
    1.2990  -10.3573    0.0000 C   0  0  0  0  0  0  0  0  0  0  0  0
    1.2135   -2.7256    0.0000 C   0  0  0  0  0  0  0  0  0  0  0  0
    0.7500   -1.2990    0.0000 N   0  0  0  0  0  0  0  0  0  0  0  0
    1.5000    0.0000    0.0000 N   0  0  0  0  0  0  0  0  0  0  0  0
    0.7500    1.2990    0.0000 C   0  0  0  0  0  0  0  0  0  0  0  0
   -0.7500    1.2990    0.0000 N   0  0  0  0  0  0  0  0  0  0  0  0
   -1.5000    0.0000    0.0000 C   0  0  0  0  0  0  0  0  0  0  0  0
   -3.0000    0.0000    0.0000 O   0  0  0  0  0  0  0  0  0  0  0  0
   -3.7500    1.2990    0.0000 C   0  0  0  0  0  0  0  0  0  0  0  0
   -3.0000    2.5981    0.0000 C   0  0  0  0  0  0  0  0  0  0  0  0
   -3.7500    3.8971    0.0000 C   0  0  0  0  0  0  0  0  0  0  0  0
   -5.2500    3.8971    0.0000 C   0  0  0  0  0  0  0  0  0  0  0  0
   -6.0000    5.1962    0.0000 N   0  0  0  0  0  0  0  0  0  0  0  0
   -5.2500    6.4952    0.0000 C   0  0  0  0  0  0  0  0  0  0  0  0
   -3.7500    6.4952    0.0000 O   0  0  0  0  0  0  0  0  0  0  0  0
   -6.0000    7.7942    0.0000 N   0  0  0  0  0  0  0  0  0  0  0  0
   -5.2500    9.0933    0.0000 C   0  0  0  0  0  0  0  0  0  0  0  0
   -3.7500    9.0933    0.0000 O   0  0  0  0  0  0  0  0  0  0  0  0
   -6.0000   10.3923    0.0000 C   0  0  0  0  0  0  0  0  0  0  0  0
   -5.2500   11.6913    0.0000 C   0  0  0  0  0  0  0  0  0  0  0  0
   -3.7500   11.6913    0.0000 C   0  0  0  0  0  0  0  0  0  0  0  0
   -3.0000   12.9904    0.0000 C   0  0  0  0  0  0  0  0  0  0  0  0
   -3.7500   14.2894    0.0000 C   0  0  0  0  0  0  0  0  0  0  0  0
   -3.0000   15.5885    0.0000 F   0  0  0  0  0  0  0  0  0  0  0  0
   -5.2500   14.2894    0.0000 C   0  0  0  0  0  0  0  0  0  0  0  0
   -6.0000   12.9904    0.0000 C   0  0  0  0  0  0  0  0  0  0  0  0
   -6.0000    2.5981    0.0000 C   0  0  0  0  0  0  0  0  0  0  0  0
   -5.2500    1.2990    0.0000 C   0  0  0  0  0  0  0  0  0  0  0  0
   -6.0000    0.0000    0.0000 F   0  0  0  0  0  0  0  0  0  0  0  0
   -0.7500   -1.2990    0.0000 C   0  0  0  0  0  0  0  0  0  0  0  0
  1  2  1  0
  2  3  1  0
  3  4  1  0
  4  5  1  0
  5  6  1  0
  6  7  1  0
  7  8  1  0
  8  9  1  0
  8 10  1  0
  3 11  2  0
 11 12  1  0
 12 13  1  0
 13 14  2  0
 14 15  1  0
 15 16  2  0
 16 17  1  0
 17 18  1  0
 18 19  2  0
 19 20  1  0
 20 21  2  0
 21 22  1  0
 22 23  1  0
 23 24  2  0
 23 25  1  0
 25 26  1  0
 26 27  2  0
 26 28  1  0
 28 29  1  0
 29 30  2  0
 30 31  1  0
 31 32  2  0
 32 33  1  0
 32 34  1  0
 34 35  2  0
 21 36  1  0
 36 37  2  0
 37 38  1  0
 16 39  1  0
 39  2  2  0
 39 12  1  0
 37 18  1  0
 35 29  1  0
M  END
>  <Compound_ID>  (105) 
CHEMBL438696

>  <Active>  (105) 
1.0

>  <Smiles>  (105) 
Cc1c(OCCCN(C)C)cn2ncnc(Oc3ccc(NC(=O)NC(=O)Cc4ccc(F)cc4)cc3F)c12

>  <canonical_smi>  (105) 
Cc1c(OCCCN(C)C)cn2ncnc(Oc3ccc(NC(=O)NC(=O)Cc4ccc(F)cc4)cc3F)c12

>  <Set>  (105) 
G2 active

>  <Set_type>  (105) 
Train

>  <MW>  (105) 
538.56

>  <HBD>  (105) 
2

>  <HBA>  (105) 
7

>  <NRB>  (105) 
10

>  <NR>  (105) 
4

>  <NAR>  (105) 
4

>  <PSA>  (105) 
110.09

>  <Standard Type>  (105) 
nan

>  <Standard Relation>  (105) 
nan

>  <Standard Units>  (105) 
nan

>  <Standard Value>  (105) 
nan

>  <Assay ChEMBL ID>  (105) 
nan

>  <Assay Description>  (105) 
nan

>  <BAO Label>  (105) 
nan

$$$$

     RDKit          2D

 42 47  0  0  0  0  0  0  0  0999 V2000
   -5.7749   -4.8348    0.0000 C   0  0  0  0  0  0  0  0  0  0  0  0
   -5.1648   -6.2051    0.0000 N   0  0  0  0  0  0  0  0  0  0  0  0
   -6.0465   -7.4186    0.0000 C   0  0  0  0  0  0  0  0  0  0  0  0
   -3.6731   -6.3619    0.0000 C   0  0  0  0  0  0  0  0  0  0  0  0
   -2.9231   -7.6610    0.0000 C   0  0  0  0  0  0  0  0  0  0  0  0
   -1.4558   -7.3491    0.0000 C   0  0  0  0  0  0  0  0  0  0  0  0
   -1.2990   -5.8573    0.0000 N   0  0  0  0  0  0  0  0  0  0  0  0
   -0.0000   -5.1073    0.0000 C   0  0  0  0  0  0  0  0  0  0  0  0
    1.2990   -5.8573    0.0000 O   0  0  0  0  0  0  0  0  0  0  0  0
   -0.0000   -3.6073    0.0000 C   0  0  0  0  0  0  0  0  0  0  0  0
    1.2135   -2.7256    0.0000 C   0  0  0  0  0  0  0  0  0  0  0  0
    0.7500   -1.2990    0.0000 C   0  0  0  0  0  0  0  0  0  0  0  0
    1.5000    0.0000    0.0000 N   0  0  0  0  0  0  0  0  0  0  0  0
    0.7500    1.2990    0.0000 C   0  0  0  0  0  0  0  0  0  0  0  0
   -0.7500    1.2990    0.0000 C   0  0  0  0  0  0  0  0  0  0  0  0
   -1.5000    0.0000    0.0000 C   0  0  0  0  0  0  0  0  0  0  0  0
   -3.0000    0.0000    0.0000 O   0  0  0  0  0  0  0  0  0  0  0  0
   -3.7500    1.2990    0.0000 C   0  0  0  0  0  0  0  0  0  0  0  0
   -3.0000    2.5981    0.0000 C   0  0  0  0  0  0  0  0  0  0  0  0
   -3.7500    3.8971    0.0000 C   0  0  0  0  0  0  0  0  0  0  0  0
   -5.2500    3.8971    0.0000 C   0  0  0  0  0  0  0  0  0  0  0  0
   -6.0000    5.1962    0.0000 N   0  0  0  0  0  0  0  0  0  0  0  0
   -5.2500    6.4952    0.0000 C   0  0  0  0  0  0  0  0  0  0  0  0
   -3.7500    6.4952    0.0000 O   0  0  0  0  0  0  0  0  0  0  0  0
   -6.0000    7.7942    0.0000 N   0  0  0  0  0  0  0  0  0  0  0  0
   -7.4918    7.9510    0.0000 C   0  0  0  0  0  0  0  0  0  0  0  0
   -7.8037    9.4182    0.0000 C   0  0  0  0  0  0  0  0  0  0  0  0
   -6.5046   10.1682    0.0000 N   0  0  0  0  0  0  0  0  0  0  0  0
   -6.3478   11.6600    0.0000 C   0  0  0  0  0  0  0  0  0  0  0  0
   -4.9775   12.2701    0.0000 C   0  0  0  0  0  0  0  0  0  0  0  0
   -4.8207   13.7619    0.0000 C   0  0  0  0  0  0  0  0  0  0  0  0
   -6.0342   14.6436    0.0000 C   0  0  0  0  0  0  0  0  0  0  0  0
   -7.4046   14.0335    0.0000 C   0  0  0  0  0  0  0  0  0  0  0  0
   -7.5613   12.5417    0.0000 C   0  0  0  0  0  0  0  0  0  0  0  0
   -5.3899    9.1645    0.0000 C   0  0  0  0  0  0  0  0  0  0  0  0
   -3.9227    9.4764    0.0000 O   0  0  0  0  0  0  0  0  0  0  0  0
   -6.0000    2.5981    0.0000 C   0  0  0  0  0  0  0  0  0  0  0  0
   -5.2500    1.2990    0.0000 C   0  0  0  0  0  0  0  0  0  0  0  0
   -6.0000    0.0000    0.0000 F   0  0  0  0  0  0  0  0  0  0  0  0
   -0.7500   -1.2990    0.0000 C   0  0  0  0  0  0  0  0  0  0  0  0
   -1.2135   -2.7256    0.0000 S   0  0  0  0  0  0  0  0  0  0  0  0
   -2.6694   -5.2472    0.0000 C   0  0  0  0  0  0  0  0  0  0  0  0
  1  2  1  0
  2  3  1  0
  4  2  1  6
  4  5  1  0
  5  6  1  0
  6  7  1  0
  7  8  1  0
  8  9  2  0
  8 10  1  0
 10 11  2  0
 11 12  1  0
 12 13  2  0
 13 14  1  0
 14 15  2  0
 15 16  1  0
 16 17  1  0
 17 18  1  0
 18 19  2  0
 19 20  1  0
 20 21  2  0
 21 22  1  0
 22 23  1  0
 23 24  2  0
 23 25  1  0
 25 26  1  0
 26 27  1  0
 27 28  1  0
 28 29  1  0
 29 30  2  0
 30 31  1  0
 31 32  2  0
 32 33  1  0
 33 34  2  0
 28 35  1  0
 35 36  2  0
 21 37  1  0
 37 38  2  0
 38 39  1  0
 16 40  2  0
 40 41  1  0
  7 42  1  0
 42  4  1  0
 41 10  1  0
 40 12  1  0
 38 18  1  0
 35 25  1  0
 34 29  1  0
M  END
>  <Compound_ID>  (106) 
CHEMBL502621

>  <Active>  (106) 
1.0

>  <Smiles>  (106) 
CN(C)[C@H]1CCN(C(=O)c2cc3nccc(Oc4ccc(NC(=O)N5CCN(c6ccccc6)C5=O)cc4F)c3s2)C1

>  <canonical_smi>  (106) 
CN(C)[C@H]1CCN(C(=O)c2cc3nccc(Oc4ccc(NC(=O)N5CCN(c6ccccc6)C5=O)cc4F)c3s2)C1

>  <Set>  (106) 
G2 active

>  <Set_type>  (106) 
Train

>  <MW>  (106) 
588.67

>  <HBD>  (106) 
1

>  <HBA>  (106) 
6

>  <NRB>  (106) 
6

>  <NR>  (106) 
6

>  <NAR>  (106) 
4

>  <PSA>  (106) 
98.32

>  <Standard Type>  (106) 
nan

>  <Standard Relation>  (106) 
nan

>  <Standard Units>  (106) 
nan

>  <Standard Value>  (106) 
nan

>  <Assay ChEMBL ID>  (106) 
nan

>  <Assay Description>  (106) 
nan

>  <BAO Label>  (106) 
nan

$$$$

     RDKit          2D

 35 38  0  0  0  0  0  0  0  0999 V2000
   -1.2990   -7.3573    0.0000 C   0  0  0  0  0  0  0  0  0  0  0  0
   -1.2990   -5.8573    0.0000 N   0  0  0  0  0  0  0  0  0  0  0  0
   -2.5981   -5.1073    0.0000 C   0  0  0  0  0  0  0  0  0  0  0  0
   -0.0000   -5.1073    0.0000 C   0  0  0  0  0  0  0  0  0  0  0  0
    1.2990   -5.8573    0.0000 O   0  0  0  0  0  0  0  0  0  0  0  0
   -0.0000   -3.6073    0.0000 C   0  0  0  0  0  0  0  0  0  0  0  0
    1.2135   -2.7256    0.0000 C   0  0  0  0  0  0  0  0  0  0  0  0
    0.7500   -1.2990    0.0000 C   0  0  0  0  0  0  0  0  0  0  0  0
    1.5000    0.0000    0.0000 N   0  0  0  0  0  0  0  0  0  0  0  0
    0.7500    1.2990    0.0000 C   0  0  0  0  0  0  0  0  0  0  0  0
   -0.7500    1.2990    0.0000 C   0  0  0  0  0  0  0  0  0  0  0  0
   -1.5000    0.0000    0.0000 C   0  0  0  0  0  0  0  0  0  0  0  0
   -3.0000    0.0000    0.0000 O   0  0  0  0  0  0  0  0  0  0  0  0
   -3.7500    1.2990    0.0000 C   0  0  0  0  0  0  0  0  0  0  0  0
   -3.0000    2.5981    0.0000 C   0  0  0  0  0  0  0  0  0  0  0  0
   -3.7500    3.8971    0.0000 C   0  0  0  0  0  0  0  0  0  0  0  0
   -5.2500    3.8971    0.0000 C   0  0  0  0  0  0  0  0  0  0  0  0
   -6.0000    5.1962    0.0000 N   0  0  0  0  0  0  0  0  0  0  0  0
   -5.2500    6.4952    0.0000 C   0  0  0  0  0  0  0  0  0  0  0  0
   -3.7500    6.4952    0.0000 S   0  0  0  0  0  0  0  0  0  0  0  0
   -6.0000    7.7942    0.0000 N   0  0  0  0  0  0  0  0  0  0  0  0
   -5.2500    9.0933    0.0000 C   0  0  0  0  0  0  0  0  0  0  0  0
   -3.7500    9.0933    0.0000 O   0  0  0  0  0  0  0  0  0  0  0  0
   -6.0000   10.3923    0.0000 C   0  0  0  0  0  0  0  0  0  0  0  0
   -5.2500   11.6913    0.0000 C   0  0  0  0  0  0  0  0  0  0  0  0
   -3.7500   11.6913    0.0000 C   0  0  0  0  0  0  0  0  0  0  0  0
   -3.0000   12.9904    0.0000 C   0  0  0  0  0  0  0  0  0  0  0  0
   -3.7500   14.2894    0.0000 C   0  0  0  0  0  0  0  0  0  0  0  0
   -5.2500   14.2894    0.0000 C   0  0  0  0  0  0  0  0  0  0  0  0
   -6.0000   12.9904    0.0000 C   0  0  0  0  0  0  0  0  0  0  0  0
   -6.0000    2.5981    0.0000 C   0  0  0  0  0  0  0  0  0  0  0  0
   -5.2500    1.2990    0.0000 C   0  0  0  0  0  0  0  0  0  0  0  0
   -6.0000    0.0000    0.0000 F   0  0  0  0  0  0  0  0  0  0  0  0
   -0.7500   -1.2990    0.0000 C   0  0  0  0  0  0  0  0  0  0  0  0
   -1.2135   -2.7256    0.0000 S   0  0  0  0  0  0  0  0  0  0  0  0
  1  2  1  0
  2  3  1  0
  2  4  1  0
  4  5  2  0
  4  6  1  0
  6  7  2  0
  7  8  1  0
  8  9  2  0
  9 10  1  0
 10 11  2  0
 11 12  1  0
 12 13  1  0
 13 14  1  0
 14 15  2  0
 15 16  1  0
 16 17  2  0
 17 18  1  0
 18 19  1  0
 19 20  2  0
 19 21  1  0
 21 22  1  0
 22 23  2  0
 22 24  1  0
 24 25  1  0
 25 26  2  0
 26 27  1  0
 27 28  2  0
 28 29  1  0
 29 30  2  0
 17 31  1  0
 31 32  2  0
 32 33  1  0
 12 34  2  0
 34 35  1  0
 35  6  1  0
 34  8  1  0
 32 14  1  0
 30 25  1  0
M  END
>  <Compound_ID>  (107) 
CHEMBL402036

>  <Active>  (107) 
1.0

>  <Smiles>  (107) 
CN(C)C(=O)c1cc2nccc(Oc3ccc(NC(=S)NC(=O)Cc4ccccc4)cc3F)c2s1

>  <canonical_smi>  (107) 
CN(C)C(=O)c1cc2nccc(Oc3ccc(NC(=S)NC(=O)Cc4ccccc4)cc3F)c2s1

>  <Set>  (107) 
G2 active

>  <Set_type>  (107) 
Train

>  <MW>  (107) 
508.6

>  <HBD>  (107) 
2

>  <HBA>  (107) 
6

>  <NRB>  (107) 
6

>  <NR>  (107) 
4

>  <NAR>  (107) 
4

>  <PSA>  (107) 
83.56

>  <Standard Type>  (107) 
nan

>  <Standard Relation>  (107) 
nan

>  <Standard Units>  (107) 
nan

>  <Standard Value>  (107) 
nan

>  <Assay ChEMBL ID>  (107) 
nan

>  <Assay Description>  (107) 
nan

>  <BAO Label>  (107) 
nan

$$$$

     RDKit          2D

 33 36  0  0  0  0  0  0  0  0999 V2000
    3.0000   -5.1962    0.0000 C   0  0  0  0  0  0  0  0  0  0  0  0
    1.5000   -5.1962    0.0000 O   0  0  0  0  0  0  0  0  0  0  0  0
    0.7500   -3.8971    0.0000 C   0  0  0  0  0  0  0  0  0  0  0  0
    1.5000   -2.5981    0.0000 C   0  0  0  0  0  0  0  0  0  0  0  0
    0.7500   -1.2990    0.0000 C   0  0  0  0  0  0  0  0  0  0  0  0
    1.5000    0.0000    0.0000 N   0  0  0  0  0  0  0  0  0  0  0  0
    0.7500    1.2990    0.0000 C   0  0  0  0  0  0  0  0  0  0  0  0
   -0.7500    1.2990    0.0000 C   0  0  0  0  0  0  0  0  0  0  0  0
   -1.5000    0.0000    0.0000 C   0  0  0  0  0  0  0  0  0  0  0  0
   -3.0000    0.0000    0.0000 O   0  0  0  0  0  0  0  0  0  0  0  0
   -3.7500    1.2990    0.0000 C   0  0  0  0  0  0  0  0  0  0  0  0
   -3.0000    2.5981    0.0000 C   0  0  0  0  0  0  0  0  0  0  0  0
   -3.7500    3.8971    0.0000 C   0  0  0  0  0  0  0  0  0  0  0  0
   -5.2500    3.8971    0.0000 C   0  0  0  0  0  0  0  0  0  0  0  0
   -6.0000    5.1962    0.0000 N   0  0  0  0  0  0  0  0  0  0  0  0
   -5.2500    6.4952    0.0000 C   0  0  0  0  0  0  0  0  0  0  0  0
   -3.7500    6.4952    0.0000 O   0  0  0  0  0  0  0  0  0  0  0  0
   -6.0000    7.7942    0.0000 N   0  0  0  0  0  0  0  0  0  0  0  0
   -5.2500    9.0933    0.0000 C   0  0  0  0  0  0  0  0  0  0  0  0
   -3.7500    9.0933    0.0000 O   0  0  0  0  0  0  0  0  0  0  0  0
   -6.0000   10.3923    0.0000 C   0  0  0  0  0  0  0  0  0  0  0  0
   -5.2500   11.6913    0.0000 C   0  0  0  0  0  0  0  0  0  0  0  0
   -6.0000   12.9904    0.0000 C   0  0  0  0  0  0  0  0  0  0  0  0
   -7.5000   12.9904    0.0000 C   0  0  0  0  0  0  0  0  0  0  0  0
   -8.2500   11.6913    0.0000 C   0  0  0  0  0  0  0  0  0  0  0  0
   -7.5000   10.3923    0.0000 C   0  0  0  0  0  0  0  0  0  0  0  0
   -6.0000    2.5981    0.0000 N   0  0  0  0  0  0  0  0  0  0  0  0
   -5.2500    1.2990    0.0000 C   0  0  0  0  0  0  0  0  0  0  0  0
   -0.7500   -1.2990    0.0000 C   0  0  0  0  0  0  0  0  0  0  0  0
   -1.5000   -2.5981    0.0000 C   0  0  0  0  0  0  0  0  0  0  0  0
   -0.7500   -3.8971    0.0000 C   0  0  0  0  0  0  0  0  0  0  0  0
   -1.5000   -5.1962    0.0000 O   0  0  0  0  0  0  0  0  0  0  0  0
   -3.0000   -5.1962    0.0000 C   0  0  0  0  0  0  0  0  0  0  0  0
  1  2  1  0
  2  3  1  0
  3  4  2  0
  4  5  1  0
  5  6  2  0
  6  7  1  0
  7  8  2  0
  8  9  1  0
  9 10  1  0
 10 11  1  0
 11 12  2  0
 12 13  1  0
 13 14  2  0
 14 15  1  0
 15 16  1  0
 16 17  2  0
 16 18  1  0
 18 19  1  0
 19 20  2  0
 19 21  1  0
 21 22  2  0
 22 23  1  0
 23 24  2  0
 24 25  1  0
 25 26  2  0
 14 27  1  0
 27 28  2  0
  9 29  2  0
 29 30  1  0
 30 31  2  0
 31 32  1  0
 32 33  1  0
 31  3  1  0
 29  5  1  0
 28 11  1  0
 26 21  1  0
M  END
>  <Compound_ID>  (108) 
CHEMBL472552

>  <Active>  (108) 
1.0

>  <Smiles>  (108) 
COc1cc2nccc(Oc3ccc(NC(=O)NC(=O)c4ccccc4)nc3)c2cc1OC

>  <canonical_smi>  (108) 
COc1cc2nccc(Oc3ccc(NC(=O)NC(=O)c4ccccc4)nc3)c2cc1OC

>  <Set>  (108) 
G2 active

>  <Set_type>  (108) 
Train

>  <MW>  (108) 
444.45

>  <HBD>  (108) 
2

>  <HBA>  (108) 
7

>  <NRB>  (108) 
6

>  <NR>  (108) 
4

>  <NAR>  (108) 
4

>  <PSA>  (108) 
111.67

>  <Standard Type>  (108) 
nan

>  <Standard Relation>  (108) 
nan

>  <Standard Units>  (108) 
nan

>  <Standard Value>  (108) 
nan

>  <Assay ChEMBL ID>  (108) 
nan

>  <Assay Description>  (108) 
nan

>  <BAO Label>  (108) 
nan

$$$$

     RDKit          2D

 37 41  0  0  0  0  0  0  0  0999 V2000
   -3.1235   -8.4723    0.0000 C   0  0  0  0  0  0  0  0  0  0  0  0
   -1.6317   -8.6291    0.0000 C   0  0  0  0  0  0  0  0  0  0  0  0
   -0.7500   -7.4156    0.0000 N   0  0  0  0  0  0  0  0  0  0  0  0
    0.7500   -7.4156    0.0000 C   0  0  0  0  0  0  0  0  0  0  0  0
    1.2135   -5.9890    0.0000 N   0  0  0  0  0  0  0  0  0  0  0  0
   -0.0000   -5.1073    0.0000 C   0  0  0  0  0  0  0  0  0  0  0  0
   -0.0000   -3.6073    0.0000 C   0  0  0  0  0  0  0  0  0  0  0  0
    1.2135   -2.7256    0.0000 C   0  0  0  0  0  0  0  0  0  0  0  0
    0.7500   -1.2990    0.0000 C   0  0  0  0  0  0  0  0  0  0  0  0
    1.5000    0.0000    0.0000 N   0  0  0  0  0  0  0  0  0  0  0  0
    0.7500    1.2990    0.0000 C   0  0  0  0  0  0  0  0  0  0  0  0
   -0.7500    1.2990    0.0000 C   0  0  0  0  0  0  0  0  0  0  0  0
   -1.5000    0.0000    0.0000 C   0  0  0  0  0  0  0  0  0  0  0  0
   -3.0000    0.0000    0.0000 O   0  0  0  0  0  0  0  0  0  0  0  0
   -3.7500    1.2990    0.0000 C   0  0  0  0  0  0  0  0  0  0  0  0
   -3.0000    2.5981    0.0000 C   0  0  0  0  0  0  0  0  0  0  0  0
   -3.7500    3.8971    0.0000 C   0  0  0  0  0  0  0  0  0  0  0  0
   -5.2500    3.8971    0.0000 C   0  0  0  0  0  0  0  0  0  0  0  0
   -6.0000    5.1962    0.0000 N   0  0  0  0  0  0  0  0  0  0  0  0
   -5.2500    6.4952    0.0000 C   0  0  0  0  0  0  0  0  0  0  0  0
   -3.7500    6.4952    0.0000 O   0  0  0  0  0  0  0  0  0  0  0  0
   -6.0000    7.7942    0.0000 C   0  0  0  0  0  0  0  0  0  0  0  0
   -5.2500    9.0933    0.0000 C   0  0  0  0  0  0  0  0  0  0  0  0
   -3.7500    9.0933    0.0000 O   0  0  0  0  0  0  0  0  0  0  0  0
   -6.0000   10.3923    0.0000 N   0  0  0  0  0  0  0  0  0  0  0  0
   -5.2500   11.6913    0.0000 C   0  0  0  0  0  0  0  0  0  0  0  0
   -3.7500   11.6913    0.0000 C   0  0  0  0  0  0  0  0  0  0  0  0
   -3.0000   12.9904    0.0000 C   0  0  0  0  0  0  0  0  0  0  0  0
   -3.7500   14.2894    0.0000 C   0  0  0  0  0  0  0  0  0  0  0  0
   -5.2500   14.2894    0.0000 C   0  0  0  0  0  0  0  0  0  0  0  0
   -6.0000   12.9904    0.0000 C   0  0  0  0  0  0  0  0  0  0  0  0
   -6.0000    2.5981    0.0000 C   0  0  0  0  0  0  0  0  0  0  0  0
   -5.2500    1.2990    0.0000 C   0  0  0  0  0  0  0  0  0  0  0  0
   -6.0000    0.0000    0.0000 F   0  0  0  0  0  0  0  0  0  0  0  0
   -0.7500   -1.2990    0.0000 C   0  0  0  0  0  0  0  0  0  0  0  0
   -1.2135   -2.7256    0.0000 S   0  0  0  0  0  0  0  0  0  0  0  0
   -1.2135   -5.9890    0.0000 C   0  0  0  0  0  0  0  0  0  0  0  0
  1  2  1  0
  2  3  1  0
  3  4  1  0
  4  5  2  0
  5  6  1  0
  6  7  1  0
  7  8  2  0
  8  9  1  0
  9 10  2  0
 10 11  1  0
 11 12  2  0
 12 13  1  0
 13 14  1  0
 14 15  1  0
 15 16  2  0
 16 17  1  0
 17 18  2  0
 18 19  1  0
 19 20  1  0
 20 21  2  0
 20 22  1  0
 22 23  1  0
 23 24  2  0
 23 25  1  0
 25 26  1  0
 26 27  1  0
 27 28  1  0
 28 29  1  0
 29 30  1  0
 30 31  1  0
 18 32  1  0
 32 33  2  0
 33 34  1  0
 13 35  2  0
 35 36  1  0
  6 37  2  0
 37  3  1  0
 36  7  1  0
 35  9  1  0
 33 15  1  0
 31 26  1  0
M  END
>  <Compound_ID>  (109) 
CHEMBL585205

>  <Active>  (109) 
1.0

>  <Smiles>  (109) 
CCn1cnc(-c2cc3nccc(Oc4ccc(NC(=O)CC(=O)NC5CCCCC5)cc4F)c3s2)c1

>  <canonical_smi>  (109) 
CCn1cnc(-c2cc3nccc(Oc4ccc(NC(=O)CC(=O)NC5CCCCC5)cc4F)c3s2)c1

>  <Set>  (109) 
G2 active

>  <Set_type>  (109) 
Train

>  <MW>  (109) 
521.62

>  <HBD>  (109) 
2

>  <HBA>  (109) 
5

>  <NRB>  (109) 
8

>  <NR>  (109) 
5

>  <NAR>  (109) 
4

>  <PSA>  (109) 
98.14

>  <Standard Type>  (109) 
nan

>  <Standard Relation>  (109) 
nan

>  <Standard Units>  (109) 
nan

>  <Standard Value>  (109) 
nan

>  <Assay ChEMBL ID>  (109) 
nan

>  <Assay Description>  (109) 
nan

>  <BAO Label>  (109) 
nan

$$$$

     RDKit          2D

 35 39  0  0  0  0  0  0  0  0999 V2000
  -10.5738    5.8451    0.0000 O   0  0  0  0  0  0  0  0  0  0  0  0
  -10.2619    7.3123    0.0000 C   0  0  0  0  0  0  0  0  0  0  0  0
  -11.3766    8.3160    0.0000 N   0  0  0  0  0  0  0  0  0  0  0  0
  -12.8032    7.8525    0.0000 C   0  0  0  0  0  0  0  0  0  0  0  0
  -13.1151    6.3853    0.0000 C   0  0  0  0  0  0  0  0  0  0  0  0
  -14.5416    5.9218    0.0000 C   0  0  0  0  0  0  0  0  0  0  0  0
  -15.6564    6.9255    0.0000 C   0  0  0  0  0  0  0  0  0  0  0  0
  -17.0829    6.4619    0.0000 F   0  0  0  0  0  0  0  0  0  0  0  0
  -15.3445    8.3927    0.0000 C   0  0  0  0  0  0  0  0  0  0  0  0
  -13.9179    8.8562    0.0000 C   0  0  0  0  0  0  0  0  0  0  0  0
  -13.6060   10.3234    0.0000 F   0  0  0  0  0  0  0  0  0  0  0  0
   -8.8353    7.7759    0.0000 C   0  0  0  0  0  0  0  0  0  0  0  0
   -8.5234    9.2431    0.0000 N   0  0  0  0  0  0  0  0  0  0  0  0
   -7.0969    9.7066    0.0000 C   0  0  0  0  0  0  0  0  0  0  0  0
   -5.9821    8.7029    0.0000 C   0  0  0  0  0  0  0  0  0  0  0  0
   -6.2940    7.2357    0.0000 N   0  0  0  0  0  0  0  0  0  0  0  0
   -7.7206    6.7722    0.0000 C   0  0  0  0  0  0  0  0  0  0  0  0
   -8.0325    5.3050    0.0000 N   0  0  0  0  0  0  0  0  0  0  0  0
   -6.9177    4.3013    0.0000 C   0  0  0  0  0  0  0  0  0  0  0  0
   -7.2296    2.8340    0.0000 C   0  0  0  0  0  0  0  0  0  0  0  0
   -6.1149    1.8303    0.0000 C   0  0  0  0  0  0  0  0  0  0  0  0
   -4.6883    2.2939    0.0000 C   0  0  0  0  0  0  0  0  0  0  0  0
   -3.5736    1.2902    0.0000 O   0  0  0  0  0  0  0  0  0  0  0  0
   -3.8855   -0.1771    0.0000 C   0  0  0  0  0  0  0  0  0  0  0  0
   -5.3120   -0.6406    0.0000 C   0  0  0  0  0  0  0  0  0  0  0  0
   -5.6239   -2.1078    0.0000 C   0  0  0  0  0  0  0  0  0  0  0  0
   -4.5092   -3.1115    0.0000 N   0  0  0  0  0  0  0  0  0  0  0  0
   -3.0826   -2.6480    0.0000 C   0  0  0  0  0  0  0  0  0  0  0  0
   -1.7836   -3.3980    0.0000 N   0  0  0  0  0  0  0  0  0  0  0  0
   -0.6689   -2.3943    0.0000 C   0  0  0  0  0  0  0  0  0  0  0  0
   -1.2790   -1.0240    0.0000 C   0  0  0  0  0  0  0  0  0  0  0  0
   -2.7707   -1.1807    0.0000 C   0  0  0  0  0  0  0  0  0  0  0  0
   -4.3764    3.7611    0.0000 C   0  0  0  0  0  0  0  0  0  0  0  0
   -2.9499    4.2246    0.0000 F   0  0  0  0  0  0  0  0  0  0  0  0
   -5.4912    4.7648    0.0000 C   0  0  0  0  0  0  0  0  0  0  0  0
  1  2  2  0
  2  3  1  0
  3  4  1  0
  4  5  2  0
  5  6  1  0
  6  7  2  0
  7  8  1  0
  7  9  1  0
  9 10  2  0
 10 11  1  0
  2 12  1  0
 12 13  2  0
 13 14  1  0
 14 15  2  0
 15 16  1  0
 16 17  2  0
 17 18  1  0
 18 19  1  0
 19 20  2  0
 20 21  1  0
 21 22  2  0
 22 23  1  0
 23 24  1  0
 24 25  2  0
 25 26  1  0
 26 27  2  0
 27 28  1  0
 28 29  1  0
 29 30  1  0
 30 31  2  0
 31 32  1  0
 22 33  1  0
 33 34  1  0
 33 35  2  0
 10  4  1  0
 17 12  1  0
 35 19  1  0
 32 24  1  0
 32 28  2  0
M  END
>  <Compound_ID>  (110) 
CHEMBL1098517

>  <Active>  (110) 
1.0

>  <Smiles>  (110) 
O=C(Nc1ccc(F)cc1F)c1nccnc1Nc1ccc(Oc2ccnc3[nH]ccc23)c(F)c1

>  <canonical_smi>  (110) 
O=C(Nc1ccc(F)cc1F)c1nccnc1Nc1ccc(Oc2ccnc3[nH]ccc23)c(F)c1

>  <Set>  (110) 
G2 active

>  <Set_type>  (110) 
Train

>  <MW>  (110) 
476.42

>  <HBD>  (110) 
3

>  <HBA>  (110) 
6

>  <NRB>  (110) 
6

>  <NR>  (110) 
5

>  <NAR>  (110) 
5

>  <PSA>  (110) 
104.82

>  <Standard Type>  (110) 
nan

>  <Standard Relation>  (110) 
nan

>  <Standard Units>  (110) 
nan

>  <Standard Value>  (110) 
nan

>  <Assay ChEMBL ID>  (110) 
nan

>  <Assay Description>  (110) 
nan

>  <BAO Label>  (110) 
nan

$$$$

     RDKit          2D

 36 40  0  0  0  0  0  0  0  0999 V2000
   -1.6317   -8.6291    0.0000 C   0  0  0  0  0  0  0  0  0  0  0  0
   -0.7500   -7.4156    0.0000 N   0  0  0  0  0  0  0  0  0  0  0  0
    0.7500   -7.4156    0.0000 C   0  0  0  0  0  0  0  0  0  0  0  0
    1.2135   -5.9890    0.0000 N   0  0  0  0  0  0  0  0  0  0  0  0
   -0.0000   -5.1073    0.0000 C   0  0  0  0  0  0  0  0  0  0  0  0
   -0.0000   -3.6073    0.0000 C   0  0  0  0  0  0  0  0  0  0  0  0
    1.2135   -2.7256    0.0000 C   0  0  0  0  0  0  0  0  0  0  0  0
    0.7500   -1.2990    0.0000 C   0  0  0  0  0  0  0  0  0  0  0  0
    1.5000    0.0000    0.0000 N   0  0  0  0  0  0  0  0  0  0  0  0
    0.7500    1.2990    0.0000 C   0  0  0  0  0  0  0  0  0  0  0  0
   -0.7500    1.2990    0.0000 C   0  0  0  0  0  0  0  0  0  0  0  0
   -1.5000    0.0000    0.0000 C   0  0  0  0  0  0  0  0  0  0  0  0
   -3.0000    0.0000    0.0000 O   0  0  0  0  0  0  0  0  0  0  0  0
   -3.7500    1.2990    0.0000 C   0  0  0  0  0  0  0  0  0  0  0  0
   -3.0000    2.5981    0.0000 C   0  0  0  0  0  0  0  0  0  0  0  0
   -3.7500    3.8971    0.0000 C   0  0  0  0  0  0  0  0  0  0  0  0
   -5.2500    3.8971    0.0000 C   0  0  0  0  0  0  0  0  0  0  0  0
   -6.0000    5.1962    0.0000 N   0  0  0  0  0  0  0  0  0  0  0  0
   -5.2500    6.4952    0.0000 C   0  0  0  0  0  0  0  0  0  0  0  0
   -3.7500    6.4952    0.0000 O   0  0  0  0  0  0  0  0  0  0  0  0
   -6.0000    7.7942    0.0000 C   0  0  0  0  0  0  0  0  0  0  0  0
   -7.4918    7.9510    0.0000 C   0  0  0  0  0  0  0  0  0  0  0  0
   -7.8037    9.4182    0.0000 N   0  0  0  0  0  0  0  0  0  0  0  0
   -6.5046   10.1682    0.0000 N   0  0  0  0  0  0  0  0  0  0  0  0
   -6.3478   11.6600    0.0000 C   0  0  0  0  0  0  0  0  0  0  0  0
   -5.3899    9.1645    0.0000 C   0  0  0  0  0  0  0  0  0  0  0  0
   -3.9227    9.4764    0.0000 C   0  0  0  0  0  0  0  0  0  0  0  0
   -2.4555    9.7883    0.0000 F   0  0  0  0  0  0  0  0  0  0  0  0
   -4.2345   10.9436    0.0000 F   0  0  0  0  0  0  0  0  0  0  0  0
   -3.6108    8.0092    0.0000 F   0  0  0  0  0  0  0  0  0  0  0  0
   -6.0000    2.5981    0.0000 C   0  0  0  0  0  0  0  0  0  0  0  0
   -5.2500    1.2990    0.0000 C   0  0  0  0  0  0  0  0  0  0  0  0
   -6.0000    0.0000    0.0000 F   0  0  0  0  0  0  0  0  0  0  0  0
   -0.7500   -1.2990    0.0000 C   0  0  0  0  0  0  0  0  0  0  0  0
   -1.2135   -2.7256    0.0000 S   0  0  0  0  0  0  0  0  0  0  0  0
   -1.2135   -5.9890    0.0000 C   0  0  0  0  0  0  0  0  0  0  0  0
  1  2  1  0
  2  3  1  0
  3  4  2  0
  4  5  1  0
  5  6  1  0
  6  7  2  0
  7  8  1  0
  8  9  2  0
  9 10  1  0
 10 11  2  0
 11 12  1  0
 12 13  1  0
 13 14  1  0
 14 15  2  0
 15 16  1  0
 16 17  2  0
 17 18  1  0
 18 19  1  0
 19 20  2  0
 19 21  1  0
 21 22  1  0
 22 23  2  0
 23 24  1  0
 24 25  1  0
 24 26  1  0
 26 27  1  0
 27 28  1  0
 27 29  1  0
 27 30  1  0
 17 31  1  0
 31 32  2  0
 32 33  1  0
 12 34  2  0
 34 35  1  0
  5 36  2  0
 36  2  1  0
 35  6  1  0
 34  8  1  0
 32 14  1  0
 26 21  2  0
M  END
>  <Compound_ID>  (111) 
CHEMBL1098157

>  <Active>  (111) 
1.0

>  <Smiles>  (111) 
Cn1cnc(-c2cc3nccc(Oc4ccc(NC(=O)c5cnn(C)c5C(F)(F)F)cc4F)c3s2)c1

>  <canonical_smi>  (111) 
Cn1cnc(-c2cc3nccc(Oc4ccc(NC(=O)c5cnn(C)c5C(F)(F)F)cc4F)c3s2)c1

>  <Set>  (111) 
G2 active

>  <Set_type>  (111) 
Train

>  <MW>  (111) 
516.48

>  <HBD>  (111) 
1

>  <HBA>  (111) 
5

>  <NRB>  (111) 
5

>  <NR>  (111) 
5

>  <NAR>  (111) 
5

>  <PSA>  (111) 
86.86

>  <Standard Type>  (111) 
nan

>  <Standard Relation>  (111) 
nan

>  <Standard Units>  (111) 
nan

>  <Standard Value>  (111) 
nan

>  <Assay ChEMBL ID>  (111) 
nan

>  <Assay Description>  (111) 
nan

>  <BAO Label>  (111) 
nan

$$$$

     RDKit          2D

 36 40  0  0  0  0  0  0  0  0999 V2000
    9.7500   -6.4952    0.0000 O   0  0  0  0  0  0  0  0  0  0  0  0
   10.5000   -5.1962    0.0000 C   0  0  0  0  0  0  0  0  0  0  0  0
   12.0000   -5.1962    0.0000 C   0  0  0  0  0  0  0  0  0  0  0  0
   12.7500   -6.4952    0.0000 C   0  0  0  0  0  0  0  0  0  0  0  0
   12.0000   -7.7942    0.0000 C   0  0  0  0  0  0  0  0  0  0  0  0
   12.7500   -9.0933    0.0000 C   0  0  0  0  0  0  0  0  0  0  0  0
   14.2500   -9.0933    0.0000 C   0  0  0  0  0  0  0  0  0  0  0  0
   15.0000   -7.7942    0.0000 C   0  0  0  0  0  0  0  0  0  0  0  0
   14.2500   -6.4952    0.0000 C   0  0  0  0  0  0  0  0  0  0  0  0
    9.7500   -3.8971    0.0000 N   0  0  0  0  0  0  0  0  0  0  0  0
    8.2500   -3.8971    0.0000 C   0  0  0  0  0  0  0  0  0  0  0  0
    7.5000   -5.1962    0.0000 S   0  0  0  0  0  0  0  0  0  0  0  0
    7.5000   -2.5981    0.0000 N   0  0  0  0  0  0  0  0  0  0  0  0
    6.0000   -2.5981    0.0000 C   0  0  0  0  0  0  0  0  0  0  0  0
    5.2500   -1.2990    0.0000 C   0  0  0  0  0  0  0  0  0  0  0  0
    3.7500   -1.2990    0.0000 C   0  0  0  0  0  0  0  0  0  0  0  0
    3.0000   -2.5981    0.0000 C   0  0  0  0  0  0  0  0  0  0  0  0
    1.5000   -2.5981    0.0000 O   0  0  0  0  0  0  0  0  0  0  0  0
    0.7500   -1.2990    0.0000 C   0  0  0  0  0  0  0  0  0  0  0  0
    1.5000    0.0000    0.0000 C   0  0  0  0  0  0  0  0  0  0  0  0
    0.7500    1.2990    0.0000 C   0  0  0  0  0  0  0  0  0  0  0  0
   -0.7500    1.2990    0.0000 N   0  0  0  0  0  0  0  0  0  0  0  0
   -1.5000    0.0000    0.0000 C   0  0  0  0  0  0  0  0  0  0  0  0
   -2.9672   -0.3119    0.0000 C   0  0  0  0  0  0  0  0  0  0  0  0
   -3.1240   -1.8037    0.0000 C   0  0  0  0  0  0  0  0  0  0  0  0
   -4.4231   -2.5537    0.0000 C   0  0  0  0  0  0  0  0  0  0  0  0
   -5.7221   -1.8037    0.0000 C   0  0  0  0  0  0  0  0  0  0  0  0
   -7.0211   -2.5537    0.0000 N   0  0  0  0  0  0  0  0  0  0  0  0
   -7.0211   -4.0537    0.0000 C   0  0  0  0  0  0  0  0  0  0  0  0
   -5.7221   -4.8037    0.0000 N   0  0  0  0  0  0  0  0  0  0  0  0
   -4.4231   -4.0537    0.0000 C   0  0  0  0  0  0  0  0  0  0  0  0
   -1.7537   -2.4138    0.0000 S   0  0  0  0  0  0  0  0  0  0  0  0
   -0.7500   -1.2990    0.0000 C   0  0  0  0  0  0  0  0  0  0  0  0
    3.7500   -3.8971    0.0000 C   0  0  0  0  0  0  0  0  0  0  0  0
    3.0000   -5.1962    0.0000 F   0  0  0  0  0  0  0  0  0  0  0  0
    5.2500   -3.8971    0.0000 C   0  0  0  0  0  0  0  0  0  0  0  0
  1  2  2  0
  2  3  1  0
  3  4  1  0
  4  5  2  0
  5  6  1  0
  6  7  2  0
  7  8  1  0
  8  9  2  0
  2 10  1  0
 10 11  1  0
 11 12  2  0
 11 13  1  0
 13 14  1  0
 14 15  2  0
 15 16  1  0
 16 17  2  0
 17 18  1  0
 18 19  1  0
 19 20  2  0
 20 21  1  0
 21 22  2  0
 22 23  1  0
 23 24  1  0
 24 25  2  0
 25 26  1  0
 26 27  2  0
 27 28  1  0
 28 29  2  0
 29 30  1  0
 30 31  2  0
 25 32  1  0
 32 33  1  0
 17 34  1  0
 34 35  1  0
 34 36  2  0
  9  4  1  0
 36 14  1  0
 33 19  1  0
 33 23  2  0
 31 26  1  0
M  END
>  <Compound_ID>  (112) 
CHEMBL256786

>  <Active>  (112) 
1.0

>  <Smiles>  (112) 
O=C(Cc1ccccc1)NC(=S)Nc1ccc(Oc2ccnc3cc(-c4cncnc4)sc23)c(F)c1

>  <canonical_smi>  (112) 
O=C(Cc1ccccc1)NC(=S)Nc1ccc(Oc2ccnc3cc(-c4cncnc4)sc23)c(F)c1

>  <Set>  (112) 
G2 active

>  <Set_type>  (112) 
Train

>  <MW>  (112) 
515.6

>  <HBD>  (112) 
2

>  <HBA>  (112) 
7

>  <NRB>  (112) 
6

>  <NR>  (112) 
5

>  <NAR>  (112) 
5

>  <PSA>  (112) 
89.03

>  <Standard Type>  (112) 
nan

>  <Standard Relation>  (112) 
nan

>  <Standard Units>  (112) 
nan

>  <Standard Value>  (112) 
nan

>  <Assay ChEMBL ID>  (112) 
nan

>  <Assay Description>  (112) 
nan

>  <BAO Label>  (112) 
nan

$$$$

     RDKit          2D

 35 39  0  0  0  0  0  0  0  0999 V2000
    9.7500   -6.4952    0.0000 O   0  0  0  0  0  0  0  0  0  0  0  0
   10.5000   -5.1962    0.0000 C   0  0  0  0  0  0  0  0  0  0  0  0
   12.0000   -5.1962    0.0000 C   0  0  0  0  0  0  0  0  0  0  0  0
   12.7500   -6.4952    0.0000 C   0  0  0  0  0  0  0  0  0  0  0  0
   12.0000   -7.7942    0.0000 C   0  0  0  0  0  0  0  0  0  0  0  0
   12.7500   -9.0933    0.0000 C   0  0  0  0  0  0  0  0  0  0  0  0
   14.2500   -9.0933    0.0000 C   0  0  0  0  0  0  0  0  0  0  0  0
   15.0000   -7.7942    0.0000 C   0  0  0  0  0  0  0  0  0  0  0  0
   14.2500   -6.4952    0.0000 C   0  0  0  0  0  0  0  0  0  0  0  0
    9.7500   -3.8971    0.0000 N   0  0  0  0  0  0  0  0  0  0  0  0
    8.2500   -3.8971    0.0000 C   0  0  0  0  0  0  0  0  0  0  0  0
    7.5000   -5.1962    0.0000 S   0  0  0  0  0  0  0  0  0  0  0  0
    7.5000   -2.5981    0.0000 N   0  0  0  0  0  0  0  0  0  0  0  0
    6.0000   -2.5981    0.0000 C   0  0  0  0  0  0  0  0  0  0  0  0
    5.2500   -1.2990    0.0000 C   0  0  0  0  0  0  0  0  0  0  0  0
    3.7500   -1.2990    0.0000 C   0  0  0  0  0  0  0  0  0  0  0  0
    3.0000   -2.5981    0.0000 C   0  0  0  0  0  0  0  0  0  0  0  0
    1.5000   -2.5981    0.0000 O   0  0  0  0  0  0  0  0  0  0  0  0
    0.7500   -1.2990    0.0000 C   0  0  0  0  0  0  0  0  0  0  0  0
    1.5000    0.0000    0.0000 C   0  0  0  0  0  0  0  0  0  0  0  0
    0.7500    1.2990    0.0000 C   0  0  0  0  0  0  0  0  0  0  0  0
   -0.7500    1.2990    0.0000 N   0  0  0  0  0  0  0  0  0  0  0  0
   -1.5000    0.0000    0.0000 C   0  0  0  0  0  0  0  0  0  0  0  0
   -2.9672   -0.3119    0.0000 C   0  0  0  0  0  0  0  0  0  0  0  0
   -3.1240   -1.8037    0.0000 C   0  0  0  0  0  0  0  0  0  0  0  0
   -4.4231   -2.5537    0.0000 C   0  0  0  0  0  0  0  0  0  0  0  0
   -4.5798   -4.0454    0.0000 C   0  0  0  0  0  0  0  0  0  0  0  0
   -6.0471   -4.3573    0.0000 C   0  0  0  0  0  0  0  0  0  0  0  0
   -6.7971   -3.0583    0.0000 C   0  0  0  0  0  0  0  0  0  0  0  0
   -5.7934   -1.9435    0.0000 S   0  0  0  0  0  0  0  0  0  0  0  0
   -1.7537   -2.4138    0.0000 S   0  0  0  0  0  0  0  0  0  0  0  0
   -0.7500   -1.2990    0.0000 C   0  0  0  0  0  0  0  0  0  0  0  0
    3.7500   -3.8971    0.0000 C   0  0  0  0  0  0  0  0  0  0  0  0
    3.0000   -5.1962    0.0000 F   0  0  0  0  0  0  0  0  0  0  0  0
    5.2500   -3.8971    0.0000 C   0  0  0  0  0  0  0  0  0  0  0  0
  1  2  2  0
  2  3  1  0
  3  4  1  0
  4  5  2  0
  5  6  1  0
  6  7  2  0
  7  8  1  0
  8  9  2  0
  2 10  1  0
 10 11  1  0
 11 12  2  0
 11 13  1  0
 13 14  1  0
 14 15  2  0
 15 16  1  0
 16 17  2  0
 17 18  1  0
 18 19  1  0
 19 20  2  0
 20 21  1  0
 21 22  2  0
 22 23  1  0
 23 24  1  0
 24 25  2  0
 25 26  1  0
 26 27  2  0
 27 28  1  0
 28 29  2  0
 29 30  1  0
 25 31  1  0
 31 32  1  0
 17 33  1  0
 33 34  1  0
 33 35  2  0
  9  4  1  0
 35 14  1  0
 32 19  1  0
 32 23  2  0
 30 26  1  0
M  END
>  <Compound_ID>  (113) 
CHEMBL402004

>  <Active>  (113) 
1.0

>  <Smiles>  (113) 
O=C(Cc1ccccc1)NC(=S)Nc1ccc(Oc2ccnc3cc(-c4cccs4)sc23)c(F)c1

>  <canonical_smi>  (113) 
O=C(Cc1ccccc1)NC(=S)Nc1ccc(Oc2ccnc3cc(-c4cccs4)sc23)c(F)c1

>  <Set>  (113) 
G2 active

>  <Set_type>  (113) 
Train

>  <MW>  (113) 
519.65

>  <HBD>  (113) 
2

>  <HBA>  (113) 
5

>  <NRB>  (113) 
6

>  <NR>  (113) 
5

>  <NAR>  (113) 
5

>  <PSA>  (113) 
63.25

>  <Standard Type>  (113) 
nan

>  <Standard Relation>  (113) 
nan

>  <Standard Units>  (113) 
nan

>  <Standard Value>  (113) 
nan

>  <Assay ChEMBL ID>  (113) 
nan

>  <Assay Description>  (113) 
nan

>  <BAO Label>  (113) 
nan

$$$$

     RDKit          2D

 33 37  0  0  0  0  0  0  0  0999 V2000
   -6.2940    7.2357    0.0000 O   0  0  0  0  0  0  0  0  0  0  0  0
   -7.7206    6.7722    0.0000 C   0  0  0  0  0  0  0  0  0  0  0  0
   -8.0325    5.3050    0.0000 N   0  0  0  0  0  0  0  0  0  0  0  0
   -6.9177    4.3013    0.0000 C   0  0  0  0  0  0  0  0  0  0  0  0
   -7.2296    2.8340    0.0000 C   0  0  0  0  0  0  0  0  0  0  0  0
   -6.1149    1.8303    0.0000 C   0  0  0  0  0  0  0  0  0  0  0  0
   -4.6883    2.2939    0.0000 C   0  0  0  0  0  0  0  0  0  0  0  0
   -3.5736    1.2902    0.0000 O   0  0  0  0  0  0  0  0  0  0  0  0
   -2.1470    1.7537    0.0000 C   0  0  0  0  0  0  0  0  0  0  0  0
   -1.8351    3.2209    0.0000 C   0  0  0  0  0  0  0  0  0  0  0  0
   -0.4086    3.6844    0.0000 C   0  0  0  0  0  0  0  0  0  0  0  0
    0.7062    2.6807    0.0000 N   0  0  0  0  0  0  0  0  0  0  0  0
    0.3943    1.2135    0.0000 C   0  0  0  0  0  0  0  0  0  0  0  0
    1.2760    0.0000    0.0000 N   0  0  0  0  0  0  0  0  0  0  0  0
    0.3943   -1.2135    0.0000 C   0  0  0  0  0  0  0  0  0  0  0  0
   -1.0323   -0.7500    0.0000 C   0  0  0  0  0  0  0  0  0  0  0  0
   -1.0323    0.7500    0.0000 C   0  0  0  0  0  0  0  0  0  0  0  0
   -4.3764    3.7611    0.0000 C   0  0  0  0  0  0  0  0  0  0  0  0
   -2.9499    4.2246    0.0000 F   0  0  0  0  0  0  0  0  0  0  0  0
   -5.4912    4.7648    0.0000 C   0  0  0  0  0  0  0  0  0  0  0  0
   -8.8353    7.7759    0.0000 C   0  0  0  0  0  0  0  0  0  0  0  0
   -8.5234    9.2431    0.0000 C   0  0  0  0  0  0  0  0  0  0  0  0
   -9.6382   10.2468    0.0000 C   0  0  0  0  0  0  0  0  0  0  0  0
  -11.0647    9.7833    0.0000 C   0  0  0  0  0  0  0  0  0  0  0  0
  -11.3766    8.3160    0.0000 N   0  0  0  0  0  0  0  0  0  0  0  0
  -12.8032    7.8525    0.0000 C   0  0  0  0  0  0  0  0  0  0  0  0
  -13.9179    8.8562    0.0000 C   0  0  0  0  0  0  0  0  0  0  0  0
  -15.3445    8.3927    0.0000 C   0  0  0  0  0  0  0  0  0  0  0  0
  -15.6564    6.9255    0.0000 C   0  0  0  0  0  0  0  0  0  0  0  0
  -14.5416    5.9218    0.0000 N   0  0  0  0  0  0  0  0  0  0  0  0
  -13.1151    6.3853    0.0000 C   0  0  0  0  0  0  0  0  0  0  0  0
  -10.2619    7.3123    0.0000 C   0  0  0  0  0  0  0  0  0  0  0  0
  -10.5738    5.8451    0.0000 O   0  0  0  0  0  0  0  0  0  0  0  0
  1  2  2  0
  2  3  1  0
  3  4  1  0
  4  5  2  0
  5  6  1  0
  6  7  2  0
  7  8  1  0
  8  9  1  0
  9 10  2  0
 10 11  1  0
 11 12  2  0
 12 13  1  0
 13 14  1  0
 14 15  1  0
 15 16  2  0
 16 17  1  0
  7 18  1  0
 18 19  1  0
 18 20  2  0
  2 21  1  0
 21 22  2  0
 22 23  1  0
 23 24  2  0
 24 25  1  0
 25 26  1  0
 26 27  2  0
 27 28  1  0
 28 29  2  0
 29 30  1  0
 30 31  2  0
 25 32  1  0
 32 33  2  0
 20  4  1  0
 32 21  1  0
 17  9  1  0
 31 26  1  0
 17 13  2  0
M  END
>  <Compound_ID>  (114) 
CHEMBL510316

>  <Active>  (114) 
1.0

>  <Smiles>  (114) 
O=C(Nc1ccc(Oc2ccnc3[nH]ccc23)c(F)c1)c1cccn(-c2cccnc2)c1=O

>  <canonical_smi>  (114) 
O=C(Nc1ccc(Oc2ccnc3[nH]ccc23)c(F)c1)c1cccn(-c2cccnc2)c1=O

>  <Set>  (114) 
G2 active

>  <Set_type>  (114) 
Train

>  <MW>  (114) 
441.42

>  <HBD>  (114) 
2

>  <HBA>  (114) 
5

>  <NRB>  (114) 
5

>  <NR>  (114) 
5

>  <NAR>  (114) 
5

>  <PSA>  (114) 
101.9

>  <Standard Type>  (114) 
nan

>  <Standard Relation>  (114) 
nan

>  <Standard Units>  (114) 
nan

>  <Standard Value>  (114) 
nan

>  <Assay ChEMBL ID>  (114) 
nan

>  <Assay Description>  (114) 
nan

>  <BAO Label>  (114) 
nan

$$$$

     RDKit          2D

 38 43  0  0  0  0  0  0  0  0999 V2000
   10.1682   -1.2570    0.0000 C   0  0  0  0  0  0  0  0  0  0  0  0
   10.6317   -2.6836    0.0000 C   0  0  0  0  0  0  0  0  0  0  0  0
    9.7500   -3.8971    0.0000 C   0  0  0  0  0  0  0  0  0  0  0  0
    8.2500   -3.8971    0.0000 C   0  0  0  0  0  0  0  0  0  0  0  0
    7.5000   -5.1962    0.0000 O   0  0  0  0  0  0  0  0  0  0  0  0
    7.5000   -2.5981    0.0000 N   0  0  0  0  0  0  0  0  0  0  0  0
    6.0000   -2.5981    0.0000 C   0  0  0  0  0  0  0  0  0  0  0  0
    5.2500   -1.2990    0.0000 C   0  0  0  0  0  0  0  0  0  0  0  0
    3.7500   -1.2990    0.0000 C   0  0  0  0  0  0  0  0  0  0  0  0
    3.0000   -2.5981    0.0000 C   0  0  0  0  0  0  0  0  0  0  0  0
    1.5000   -2.5981    0.0000 O   0  0  0  0  0  0  0  0  0  0  0  0
    0.7500   -1.2990    0.0000 C   0  0  0  0  0  0  0  0  0  0  0  0
    1.5000    0.0000    0.0000 C   0  0  0  0  0  0  0  0  0  0  0  0
    0.7500    1.2990    0.0000 C   0  0  0  0  0  0  0  0  0  0  0  0
   -0.7500    1.2990    0.0000 N   0  0  0  0  0  0  0  0  0  0  0  0
   -1.5000    0.0000    0.0000 C   0  0  0  0  0  0  0  0  0  0  0  0
   -2.9672   -0.3119    0.0000 C   0  0  0  0  0  0  0  0  0  0  0  0
   -3.1240   -1.8037    0.0000 C   0  0  0  0  0  0  0  0  0  0  0  0
   -4.4231   -2.5537    0.0000 C   0  0  0  0  0  0  0  0  0  0  0  0
   -4.5798   -4.0454    0.0000 C   0  0  0  0  0  0  0  0  0  0  0  0
   -6.0471   -4.3573    0.0000 N   0  0  0  0  0  0  0  0  0  0  0  0
   -6.6572   -5.7276    0.0000 C   0  0  0  0  0  0  0  0  0  0  0  0
   -6.7971   -3.0583    0.0000 C   0  0  0  0  0  0  0  0  0  0  0  0
   -5.7934   -1.9435    0.0000 N   0  0  0  0  0  0  0  0  0  0  0  0
   -1.7537   -2.4138    0.0000 S   0  0  0  0  0  0  0  0  0  0  0  0
   -0.7500   -1.2990    0.0000 C   0  0  0  0  0  0  0  0  0  0  0  0
    3.7500   -3.8971    0.0000 C   0  0  0  0  0  0  0  0  0  0  0  0
    3.0000   -5.1962    0.0000 F   0  0  0  0  0  0  0  0  0  0  0  0
    5.2500   -3.8971    0.0000 C   0  0  0  0  0  0  0  0  0  0  0  0
   10.6317   -5.1106    0.0000 C   0  0  0  0  0  0  0  0  0  0  0  0
   12.0583   -4.6471    0.0000 N   0  0  0  0  0  0  0  0  0  0  0  0
   12.0583   -3.1471    0.0000 N   0  0  0  0  0  0  0  0  0  0  0  0
   13.2718   -2.2654    0.0000 C   0  0  0  0  0  0  0  0  0  0  0  0
   14.6421   -2.8755    0.0000 C   0  0  0  0  0  0  0  0  0  0  0  0
   15.8556   -1.9939    0.0000 C   0  0  0  0  0  0  0  0  0  0  0  0
   15.6988   -0.5021    0.0000 C   0  0  0  0  0  0  0  0  0  0  0  0
   14.3285    0.1080    0.0000 C   0  0  0  0  0  0  0  0  0  0  0  0
   13.1150   -0.7737    0.0000 C   0  0  0  0  0  0  0  0  0  0  0  0
  1  2  1  0
  2  3  2  0
  3  4  1  0
  4  5  2  0
  4  6  1  0
  6  7  1  0
  7  8  2  0
  8  9  1  0
  9 10  2  0
 10 11  1  0
 11 12  1  0
 12 13  2  0
 13 14  1  0
 14 15  2  0
 15 16  1  0
 16 17  1  0
 17 18  2  0
 18 19  1  0
 19 20  2  0
 20 21  1  0
 21 22  1  0
 21 23  1  0
 23 24  2  0
 18 25  1  0
 25 26  1  0
 10 27  1  0
 27 28  1  0
 27 29  2  0
  3 30  1  0
 30 31  2  0
 31 32  1  0
 32 33  1  0
 33 34  2  0
 34 35  1  0
 35 36  2  0
 36 37  1  0
 37 38  2  0
 32  2  1  0
 38 33  1  0
 29  7  1  0
 26 12  1  0
 26 16  2  0
 24 19  1  0
M  END
>  <Compound_ID>  (115) 
CHEMBL1086932

>  <Active>  (115) 
1.0

>  <Smiles>  (115) 
Cc1c(C(=O)Nc2ccc(Oc3ccnc4cc(-c5cn(C)cn5)sc34)c(F)c2)cnn1-c1ccccc1

>  <canonical_smi>  (115) 
Cc1c(C(=O)Nc2ccc(Oc3ccnc4cc(-c5cn(C)cn5)sc34)c(F)c2)cnn1-c1ccccc1

>  <Set>  (115) 
G2 active

>  <Set_type>  (115) 
Train

>  <MW>  (115) 
524.58

>  <HBD>  (115) 
1

>  <HBA>  (115) 
5

>  <NRB>  (115) 
6

>  <NR>  (115) 
6

>  <NAR>  (115) 
6

>  <PSA>  (115) 
86.86

>  <Standard Type>  (115) 
nan

>  <Standard Relation>  (115) 
nan

>  <Standard Units>  (115) 
nan

>  <Standard Value>  (115) 
nan

>  <Assay ChEMBL ID>  (115) 
nan

>  <Assay Description>  (115) 
nan

>  <BAO Label>  (115) 
nan

$$$$

     RDKit          2D

 31 35  0  0  0  0  0  0  0  0999 V2000
    3.0000    0.0000    0.0000 O   0  0  0  0  0  0  0  0  0  0  0  0
    1.5000    0.0000    0.0000 C   0  0  0  0  0  0  0  0  0  0  0  0
    0.7500   -1.2990    0.0000 N   0  0  0  0  0  0  0  0  0  0  0  0
   -0.7500   -1.2990    0.0000 C   0  0  0  0  0  0  0  0  0  0  0  0
   -1.5000    0.0000    0.0000 N   0  0  0  0  0  0  0  0  0  0  0  0
   -0.7500    1.2990    0.0000 C   0  0  0  0  0  0  0  0  0  0  0  0
   -1.2135    2.7256    0.0000 N   0  0  0  0  0  0  0  0  0  0  0  0
   -0.0000    3.6073    0.0000 C   0  0  0  0  0  0  0  0  0  0  0  0
   -0.0000    5.1073    0.0000 C   0  0  0  0  0  0  0  0  0  0  0  0
    1.2990    5.8573    0.0000 C   0  0  0  0  0  0  0  0  0  0  0  0
    1.2990    7.3573    0.0000 C   0  0  0  0  0  0  0  0  0  0  0  0
   -0.0000    8.1073    0.0000 N   0  0  0  0  0  0  0  0  0  0  0  0
   -1.2990    7.3573    0.0000 C   0  0  0  0  0  0  0  0  0  0  0  0
   -2.5981    8.1073    0.0000 C   0  0  0  0  0  0  0  0  0  0  0  0
   -2.5981    9.6073    0.0000 C   0  0  0  0  0  0  0  0  0  0  0  0
   -3.8971   10.3573    0.0000 C   0  0  0  0  0  0  0  0  0  0  0  0
   -3.8971   11.8573    0.0000 C   0  0  0  0  0  0  0  0  0  0  0  0
   -5.1962   12.6073    0.0000 C   0  0  0  0  0  0  0  0  0  0  0  0
   -6.4952   11.8573    0.0000 C   0  0  0  0  0  0  0  0  0  0  0  0
   -7.7942   12.6073    0.0000 C   0  0  0  0  0  0  0  0  0  0  0  0
   -7.7942   14.1073    0.0000 N   0  0  0  0  0  0  0  0  0  0  0  0
   -6.4952   14.8573    0.0000 C   0  0  0  0  0  0  0  0  0  0  0  0
   -6.4952   16.3573    0.0000 C   0  0  0  0  0  0  0  0  0  0  0  0
   -7.7942   17.1073    0.0000 O   0  0  0  0  0  0  0  0  0  0  0  0
   -9.0933   16.3573    0.0000 C   0  0  0  0  0  0  0  0  0  0  0  0
   -9.0933   14.8573    0.0000 C   0  0  0  0  0  0  0  0  0  0  0  0
   -6.4952   10.3573    0.0000 C   0  0  0  0  0  0  0  0  0  0  0  0
   -5.1962    9.6073    0.0000 C   0  0  0  0  0  0  0  0  0  0  0  0
   -1.2990    5.8573    0.0000 C   0  0  0  0  0  0  0  0  0  0  0  0
    1.2135    2.7256    0.0000 C   0  0  0  0  0  0  0  0  0  0  0  0
    0.7500    1.2990    0.0000 C   0  0  0  0  0  0  0  0  0  0  0  0
  1  2  2  0
  2  3  1  0
  3  4  1  0
  4  5  2  0
  5  6  1  0
  6  7  1  0
  7  8  1  0
  8  9  1  0
  9 10  2  0
 10 11  1  0
 11 12  2  0
 12 13  1  0
 13 14  1  0
 14 15  2  0
 15 16  1  0
 16 17  2  0
 17 18  1  0
 18 19  2  0
 19 20  1  0
 20 21  1  0
 21 22  1  0
 22 23  1  0
 23 24  1  0
 24 25  1  0
 25 26  1  0
 19 27  1  0
 27 28  2  0
 13 29  2  0
  8 30  2  0
 30 31  1  0
 31  2  1  0
 31  6  2  0
 29  9  1  0
 28 16  1  0
 26 21  1  0
M  END
>  <Compound_ID>  (116) 
CHEMBL461139

>  <Active>  (116) 
1.0

>  <Smiles>  (116) 
O=c1[nH]cnc2[nH]c(-c3ccnc(/C=C/c4ccc(CN5CCOCC5)cc4)c3)cc12

>  <canonical_smi>  (116) 
O=c1[nH]cnc2[nH]c(-c3ccnc(/C=C/c4ccc(CN5CCOCC5)cc4)c3)cc12

>  <Set>  (116) 
G2 active

>  <Set_type>  (116) 
Train

>  <MW>  (116) 
413.48

>  <HBD>  (116) 
2

>  <HBA>  (116) 
5

>  <NRB>  (116) 
5

>  <NR>  (116) 
5

>  <NAR>  (116) 
4

>  <PSA>  (116) 
86.9

>  <Standard Type>  (116) 
nan

>  <Standard Relation>  (116) 
nan

>  <Standard Units>  (116) 
nan

>  <Standard Value>  (116) 
nan

>  <Assay ChEMBL ID>  (116) 
nan

>  <Assay Description>  (116) 
nan

>  <BAO Label>  (116) 
nan

$$$$

     RDKit          2D

 35 39  0  0  0  0  0  0  0  0999 V2000
    3.0000   -5.1962    0.0000 C   0  0  0  0  0  0  0  0  0  0  0  0
    1.5000   -5.1962    0.0000 O   0  0  0  0  0  0  0  0  0  0  0  0
    0.7500   -3.8971    0.0000 C   0  0  0  0  0  0  0  0  0  0  0  0
    1.5000   -2.5981    0.0000 C   0  0  0  0  0  0  0  0  0  0  0  0
    0.7500   -1.2990    0.0000 C   0  0  0  0  0  0  0  0  0  0  0  0
    1.5000    0.0000    0.0000 N   0  0  0  0  0  0  0  0  0  0  0  0
    0.7500    1.2990    0.0000 C   0  0  0  0  0  0  0  0  0  0  0  0
   -0.7500    1.2990    0.0000 C   0  0  0  0  0  0  0  0  0  0  0  0
   -1.5000    0.0000    0.0000 C   0  0  0  0  0  0  0  0  0  0  0  0
   -3.0000    0.0000    0.0000 O   0  0  0  0  0  0  0  0  0  0  0  0
   -3.7500    1.2990    0.0000 C   0  0  0  0  0  0  0  0  0  0  0  0
   -3.0000    2.5981    0.0000 C   0  0  0  0  0  0  0  0  0  0  0  0
   -3.7500    3.8971    0.0000 C   0  0  0  0  0  0  0  0  0  0  0  0
   -5.2500    3.8971    0.0000 C   0  0  0  0  0  0  0  0  0  0  0  0
   -6.0000    5.1962    0.0000 C   0  0  0  0  0  0  0  0  0  0  0  0
   -7.5000    5.1962    0.0000 C   0  0  0  0  0  0  0  0  0  0  0  0
   -8.2500    6.4952    0.0000 N   0  0  0  0  0  0  0  0  0  0  0  0
   -7.5000    7.7942    0.0000 C   0  0  0  0  0  0  0  0  0  0  0  0
   -6.0000    7.7942    0.0000 O   0  0  0  0  0  0  0  0  0  0  0  0
   -8.2500    9.0933    0.0000 C   0  0  0  0  0  0  0  0  0  0  0  0
   -7.5000   10.3923    0.0000 C   0  0  0  0  0  0  0  0  0  0  0  0
   -6.0000   10.3923    0.0000 C   0  0  0  0  0  0  0  0  0  0  0  0
   -5.2500   11.6913    0.0000 C   0  0  0  0  0  0  0  0  0  0  0  0
   -6.0000   12.9904    0.0000 C   0  0  0  0  0  0  0  0  0  0  0  0
   -7.5000   12.9904    0.0000 C   0  0  0  0  0  0  0  0  0  0  0  0
   -8.2500   11.6913    0.0000 C   0  0  0  0  0  0  0  0  0  0  0  0
   -8.2500    3.8971    0.0000 C   0  0  0  0  0  0  0  0  0  0  0  0
   -7.5000    2.5981    0.0000 C   0  0  0  0  0  0  0  0  0  0  0  0
   -6.0000    2.5981    0.0000 C   0  0  0  0  0  0  0  0  0  0  0  0
   -5.2500    1.2990    0.0000 C   0  0  0  0  0  0  0  0  0  0  0  0
   -0.7500   -1.2990    0.0000 C   0  0  0  0  0  0  0  0  0  0  0  0
   -1.5000   -2.5981    0.0000 C   0  0  0  0  0  0  0  0  0  0  0  0
   -0.7500   -3.8971    0.0000 C   0  0  0  0  0  0  0  0  0  0  0  0
   -1.5000   -5.1962    0.0000 O   0  0  0  0  0  0  0  0  0  0  0  0
   -3.0000   -5.1962    0.0000 C   0  0  0  0  0  0  0  0  0  0  0  0
  1  2  1  0
  2  3  1  0
  3  4  2  0
  4  5  1  0
  5  6  2  0
  6  7  1  0
  7  8  2  0
  8  9  1  0
  9 10  1  0
 10 11  1  0
 11 12  2  0
 12 13  1  0
 13 14  2  0
 14 15  1  0
 15 16  2  0
 16 17  1  0
 17 18  1  0
 18 19  2  0
 18 20  1  0
 20 21  1  0
 21 22  2  0
 22 23  1  0
 23 24  2  0
 24 25  1  0
 25 26  2  0
 16 27  1  0
 27 28  2  0
 28 29  1  0
 29 30  2  0
  9 31  2  0
 31 32  1  0
 32 33  2  0
 33 34  1  0
 34 35  1  0
 33  3  1  0
 31  5  1  0
 30 11  1  0
 29 14  1  0
 26 21  1  0
M  END
>  <Compound_ID>  (117) 
CHEMBL460774

>  <Active>  (117) 
1.0

>  <Smiles>  (117) 
COc1cc2nccc(Oc3ccc4cc(NC(=O)Cc5ccccc5)ccc4c3)c2cc1OC

>  <canonical_smi>  (117) 
COc1cc2nccc(Oc3ccc4cc(NC(=O)Cc5ccccc5)ccc4c3)c2cc1OC

>  <Set>  (117) 
G2 active

>  <Set_type>  (117) 
Train

>  <MW>  (117) 
464.52

>  <HBD>  (117) 
1

>  <HBA>  (117) 
5

>  <NRB>  (117) 
7

>  <NR>  (117) 
5

>  <NAR>  (117) 
5

>  <PSA>  (117) 
69.68

>  <Standard Type>  (117) 
nan

>  <Standard Relation>  (117) 
nan

>  <Standard Units>  (117) 
nan

>  <Standard Value>  (117) 
nan

>  <Assay ChEMBL ID>  (117) 
nan

>  <Assay Description>  (117) 
nan

>  <BAO Label>  (117) 
nan

$$$$

     RDKit          2D

 40 44  0  0  0  0  0  0  0  0999 V2000
   -1.6317   -8.6291    0.0000 C   0  0  0  0  0  0  0  0  0  0  0  0
   -0.7500   -7.4156    0.0000 N   0  0  0  0  0  0  0  0  0  0  0  0
    0.7500   -7.4156    0.0000 C   0  0  0  0  0  0  0  0  0  0  0  0
    1.2135   -5.9890    0.0000 N   0  0  0  0  0  0  0  0  0  0  0  0
   -0.0000   -5.1073    0.0000 C   0  0  0  0  0  0  0  0  0  0  0  0
   -0.0000   -3.6073    0.0000 C   0  0  0  0  0  0  0  0  0  0  0  0
    1.2135   -2.7256    0.0000 C   0  0  0  0  0  0  0  0  0  0  0  0
    0.7500   -1.2990    0.0000 C   0  0  0  0  0  0  0  0  0  0  0  0
    1.5000    0.0000    0.0000 N   0  0  0  0  0  0  0  0  0  0  0  0
    0.7500    1.2990    0.0000 C   0  0  0  0  0  0  0  0  0  0  0  0
   -0.7500    1.2990    0.0000 C   0  0  0  0  0  0  0  0  0  0  0  0
   -1.5000    0.0000    0.0000 C   0  0  0  0  0  0  0  0  0  0  0  0
   -3.0000    0.0000    0.0000 O   0  0  0  0  0  0  0  0  0  0  0  0
   -3.7500    1.2990    0.0000 C   0  0  0  0  0  0  0  0  0  0  0  0
   -3.0000    2.5981    0.0000 C   0  0  0  0  0  0  0  0  0  0  0  0
   -3.7500    3.8971    0.0000 C   0  0  0  0  0  0  0  0  0  0  0  0
   -5.2500    3.8971    0.0000 C   0  0  0  0  0  0  0  0  0  0  0  0
   -6.0000    5.1962    0.0000 N   0  0  0  0  0  0  0  0  0  0  0  0
   -5.2500    6.4952    0.0000 C   0  0  0  0  0  0  0  0  0  0  0  0
   -6.0000    7.7942    0.0000 C   0  0  0  0  0  0  0  0  0  0  0  0
   -5.2500    9.0933    0.0000 C   0  0  0  0  0  0  0  0  0  0  0  0
   -3.7500    9.0933    0.0000 O   0  0  0  0  0  0  0  0  0  0  0  0
   -6.0000   10.3923    0.0000 N   0  0  0  0  0  0  0  0  0  0  0  0
   -5.2500   11.6913    0.0000 C   0  0  0  0  0  0  0  0  0  0  0  0
   -3.7500   11.6913    0.0000 C   0  0  0  0  0  0  0  0  0  0  0  0
   -3.0000   12.9904    0.0000 C   0  0  0  0  0  0  0  0  0  0  0  0
   -3.7500   14.2894    0.0000 C   0  0  0  0  0  0  0  0  0  0  0  0
   -3.0000   15.5885    0.0000 F   0  0  0  0  0  0  0  0  0  0  0  0
   -5.2500   14.2894    0.0000 C   0  0  0  0  0  0  0  0  0  0  0  0
   -6.0000   12.9904    0.0000 C   0  0  0  0  0  0  0  0  0  0  0  0
   -3.7500    6.4952    0.0000 C   0  0  0  0  0  0  0  0  0  0  0  0
   -2.2500    6.4952    0.0000 F   0  0  0  0  0  0  0  0  0  0  0  0
   -3.7500    7.9952    0.0000 F   0  0  0  0  0  0  0  0  0  0  0  0
   -3.7500    4.9952    0.0000 F   0  0  0  0  0  0  0  0  0  0  0  0
   -6.0000    2.5981    0.0000 C   0  0  0  0  0  0  0  0  0  0  0  0
   -5.2500    1.2990    0.0000 C   0  0  0  0  0  0  0  0  0  0  0  0
   -6.0000    0.0000    0.0000 F   0  0  0  0  0  0  0  0  0  0  0  0
   -0.7500   -1.2990    0.0000 C   0  0  0  0  0  0  0  0  0  0  0  0
   -1.2135   -2.7256    0.0000 S   0  0  0  0  0  0  0  0  0  0  0  0
   -1.2135   -5.9890    0.0000 C   0  0  0  0  0  0  0  0  0  0  0  0
  1  2  1  0
  2  3  1  0
  3  4  2  0
  4  5  1  0
  5  6  1  0
  6  7  2  0
  7  8  1  0
  8  9  2  0
  9 10  1  0
 10 11  2  0
 11 12  1  0
 12 13  1  0
 13 14  1  0
 14 15  2  0
 15 16  1  0
 16 17  2  0
 17 18  1  0
 18 19  1  0
 19 20  1  0
 20 21  1  0
 21 22  2  0
 21 23  1  0
 23 24  1  0
 24 25  2  0
 25 26  1  0
 26 27  2  0
 27 28  1  0
 27 29  1  0
 29 30  2  0
 19 31  1  0
 31 32  1  0
 31 33  1  0
 31 34  1  0
 17 35  1  0
 35 36  2  0
 36 37  1  0
 12 38  2  0
 38 39  1  0
  5 40  2  0
 40  2  1  0
 39  6  1  0
 38  8  1  0
 36 14  1  0
 30 24  1  0
M  END
>  <Compound_ID>  (118) 
CHEMBL602704

>  <Active>  (118) 
1.0

>  <Smiles>  (118) 
Cn1cnc(-c2cc3nccc(Oc4ccc(NC(CC(=O)Nc5ccc(F)cc5)C(F)(F)F)cc4F)c3s2)c1

>  <canonical_smi>  (118) 
Cn1cnc(-c2cc3nccc(Oc4ccc(NC(CC(=O)Nc5ccc(F)cc5)C(F)(F)F)cc4F)c3s2)c1

>  <Set>  (118) 
G2 active

>  <Set_type>  (118) 
Train

>  <MW>  (118) 
573.55

>  <HBD>  (118) 
2

>  <HBA>  (118) 
5

>  <NRB>  (118) 
8

>  <NR>  (118) 
5

>  <NAR>  (118) 
5

>  <PSA>  (118) 
81.07

>  <Standard Type>  (118) 
nan

>  <Standard Relation>  (118) 
nan

>  <Standard Units>  (118) 
nan

>  <Standard Value>  (118) 
nan

>  <Assay ChEMBL ID>  (118) 
nan

>  <Assay Description>  (118) 
nan

>  <BAO Label>  (118) 
nan

$$$$

     RDKit          2D

 29 31  0  0  0  0  0  0  0  0999 V2000
    3.0000    0.0000    0.0000 N   0  0  0  0  0  0  0  0  0  0  0  0
    1.5000    0.0000    0.0000 C   0  0  0  0  0  0  0  0  0  0  0  0
    0.7500   -1.2990    0.0000 C   0  0  0  0  0  0  0  0  0  0  0  0
   -0.7500   -1.2990    0.0000 C   0  0  0  0  0  0  0  0  0  0  0  0
   -1.5000   -2.5981    0.0000 O   0  0  0  0  0  0  0  0  0  0  0  0
   -3.0000   -2.5981    0.0000 C   0  0  0  0  0  0  0  0  0  0  0  0
   -3.7500   -1.2990    0.0000 C   0  0  0  0  0  0  0  0  0  0  0  0
   -5.2500   -1.2990    0.0000 C   0  0  0  0  0  0  0  0  0  0  0  0
   -6.0000   -2.5981    0.0000 C   0  0  0  0  0  0  0  0  0  0  0  0
   -7.5000   -2.5981    0.0000 N   0  0  0  0  0  0  0  0  0  0  0  0
   -8.2500   -1.2990    0.0000 C   0  0  0  0  0  0  0  0  0  0  0  0
   -7.5000    0.0000    0.0000 O   0  0  0  0  0  0  0  0  0  0  0  0
   -9.7500   -1.2990    0.0000 C   0  0  0  0  0  0  0  0  0  0  0  0
  -10.5000    0.0000    0.0000 C   0  0  0  0  0  0  0  0  0  0  0  0
   -9.7500    1.2990    0.0000 O   0  0  0  0  0  0  0  0  0  0  0  0
  -12.0000    0.0000    0.0000 N   0  0  0  0  0  0  0  0  0  0  0  0
  -12.7500    1.2990    0.0000 C   0  0  0  0  0  0  0  0  0  0  0  0
  -12.0000    2.5981    0.0000 C   0  0  0  0  0  0  0  0  0  0  0  0
  -12.7500    3.8971    0.0000 C   0  0  0  0  0  0  0  0  0  0  0  0
  -14.2500    3.8971    0.0000 C   0  0  0  0  0  0  0  0  0  0  0  0
  -15.0000    5.1962    0.0000 F   0  0  0  0  0  0  0  0  0  0  0  0
  -15.0000    2.5981    0.0000 C   0  0  0  0  0  0  0  0  0  0  0  0
  -14.2500    1.2990    0.0000 C   0  0  0  0  0  0  0  0  0  0  0  0
   -5.2500   -3.8971    0.0000 C   0  0  0  0  0  0  0  0  0  0  0  0
   -3.7500   -3.8971    0.0000 C   0  0  0  0  0  0  0  0  0  0  0  0
   -3.0000   -5.1962    0.0000 F   0  0  0  0  0  0  0  0  0  0  0  0
   -1.5000    0.0000    0.0000 C   0  0  0  0  0  0  0  0  0  0  0  0
   -0.7500    1.2990    0.0000 C   0  0  0  0  0  0  0  0  0  0  0  0
    0.7500    1.2990    0.0000 N   0  0  0  0  0  0  0  0  0  0  0  0
  1  2  1  0
  2  3  2  0
  3  4  1  0
  4  5  1  0
  5  6  1  0
  6  7  2  0
  7  8  1  0
  8  9  2  0
  9 10  1  0
 10 11  1  0
 11 12  2  0
 11 13  1  0
 13 14  1  0
 14 15  2  0
 14 16  1  0
 16 17  1  0
 17 18  2  0
 18 19  1  0
 19 20  2  0
 20 21  1  0
 20 22  1  0
 22 23  2  0
  9 24  1  0
 24 25  2  0
 25 26  1  0
  4 27  2  0
 27 28  1  0
 28 29  2  0
 29  2  1  0
 25  6  1  0
 23 17  1  0
M  END
>  <Compound_ID>  (119) 
CHEMBL499618

>  <Active>  (119) 
1.0

>  <Smiles>  (119) 
Nc1cc(Oc2ccc(NC(=O)CC(=O)Nc3ccc(F)cc3)cc2F)ccn1

>  <canonical_smi>  (119) 
Nc1cc(Oc2ccc(NC(=O)CC(=O)Nc3ccc(F)cc3)cc2F)ccn1

>  <Set>  (119) 
G2 active

>  <Set_type>  (119) 
Train

>  <MW>  (119) 
398.37

>  <HBD>  (119) 
3

>  <HBA>  (119) 
5

>  <NRB>  (119) 
6

>  <NR>  (119) 
3

>  <NAR>  (119) 
3

>  <PSA>  (119) 
106.34

>  <Standard Type>  (119) 
nan

>  <Standard Relation>  (119) 
nan

>  <Standard Units>  (119) 
nan

>  <Standard Value>  (119) 
nan

>  <Assay ChEMBL ID>  (119) 
nan

>  <Assay Description>  (119) 
nan

>  <BAO Label>  (119) 
nan

$$$$

     RDKit          2D

 37 41  0  0  0  0  0  0  0  0999 V2000
    9.7500   -6.4952    0.0000 O   0  0  0  0  0  0  0  0  0  0  0  0
   10.5000   -5.1962    0.0000 C   0  0  0  0  0  0  0  0  0  0  0  0
   12.0000   -5.1962    0.0000 C   0  0  0  0  0  0  0  0  0  0  0  0
   12.7500   -6.4952    0.0000 C   0  0  0  0  0  0  0  0  0  0  0  0
   12.0000   -7.7942    0.0000 C   0  0  0  0  0  0  0  0  0  0  0  0
   12.7500   -9.0933    0.0000 C   0  0  0  0  0  0  0  0  0  0  0  0
   14.2500   -9.0933    0.0000 C   0  0  0  0  0  0  0  0  0  0  0  0
   15.0000   -7.7942    0.0000 C   0  0  0  0  0  0  0  0  0  0  0  0
   14.2500   -6.4952    0.0000 C   0  0  0  0  0  0  0  0  0  0  0  0
    9.7500   -3.8971    0.0000 N   0  0  0  0  0  0  0  0  0  0  0  0
    8.2500   -3.8971    0.0000 C   0  0  0  0  0  0  0  0  0  0  0  0
    7.5000   -5.1962    0.0000 S   0  0  0  0  0  0  0  0  0  0  0  0
    7.5000   -2.5981    0.0000 N   0  0  0  0  0  0  0  0  0  0  0  0
    6.0000   -2.5981    0.0000 C   0  0  0  0  0  0  0  0  0  0  0  0
    5.2500   -1.2990    0.0000 C   0  0  0  0  0  0  0  0  0  0  0  0
    3.7500   -1.2990    0.0000 C   0  0  0  0  0  0  0  0  0  0  0  0
    3.0000   -2.5981    0.0000 C   0  0  0  0  0  0  0  0  0  0  0  0
    1.5000   -2.5981    0.0000 O   0  0  0  0  0  0  0  0  0  0  0  0
    0.7500   -1.2990    0.0000 C   0  0  0  0  0  0  0  0  0  0  0  0
    1.5000    0.0000    0.0000 C   0  0  0  0  0  0  0  0  0  0  0  0
    0.7500    1.2990    0.0000 C   0  0  0  0  0  0  0  0  0  0  0  0
   -0.7500    1.2990    0.0000 N   0  0  0  0  0  0  0  0  0  0  0  0
   -1.5000    0.0000    0.0000 C   0  0  0  0  0  0  0  0  0  0  0  0
   -2.9672   -0.3119    0.0000 C   0  0  0  0  0  0  0  0  0  0  0  0
   -3.1240   -1.8037    0.0000 C   0  0  0  0  0  0  0  0  0  0  0  0
   -4.4231   -2.5537    0.0000 C   0  0  0  0  0  0  0  0  0  0  0  0
   -4.4231   -4.0537    0.0000 O   0  0  0  0  0  0  0  0  0  0  0  0
   -5.7221   -1.8037    0.0000 C   0  0  0  0  0  0  0  0  0  0  0  0
   -7.0924   -2.4138    0.0000 C   0  0  0  0  0  0  0  0  0  0  0  0
   -8.0961   -1.2990    0.0000 C   0  0  0  0  0  0  0  0  0  0  0  0
   -7.3461    0.0000    0.0000 C   0  0  0  0  0  0  0  0  0  0  0  0
   -5.8789   -0.3119    0.0000 O   0  0  0  0  0  0  0  0  0  0  0  0
   -1.7537   -2.4138    0.0000 S   0  0  0  0  0  0  0  0  0  0  0  0
   -0.7500   -1.2990    0.0000 C   0  0  0  0  0  0  0  0  0  0  0  0
    3.7500   -3.8971    0.0000 C   0  0  0  0  0  0  0  0  0  0  0  0
    3.0000   -5.1962    0.0000 F   0  0  0  0  0  0  0  0  0  0  0  0
    5.2500   -3.8971    0.0000 C   0  0  0  0  0  0  0  0  0  0  0  0
  1  2  2  0
  2  3  1  0
  3  4  1  0
  4  5  2  0
  5  6  1  0
  6  7  2  0
  7  8  1  0
  8  9  2  0
  2 10  1  0
 10 11  1  0
 11 12  2  0
 11 13  1  0
 13 14  1  0
 14 15  2  0
 15 16  1  0
 16 17  2  0
 17 18  1  0
 18 19  1  0
 19 20  2  0
 20 21  1  0
 21 22  2  0
 22 23  1  0
 23 24  1  0
 24 25  2  0
 25 26  1  0
 26 27  2  0
 26 28  1  0
 28 29  2  0
 29 30  1  0
 30 31  2  0
 31 32  1  0
 25 33  1  0
 33 34  1  0
 17 35  1  0
 35 36  1  0
 35 37  2  0
  9  4  1  0
 37 14  1  0
 34 19  1  0
 34 23  2  0
 32 28  1  0
M  END
>  <Compound_ID>  (120) 
CHEMBL257546

>  <Active>  (120) 
1.0

>  <Smiles>  (120) 
O=C(Cc1ccccc1)NC(=S)Nc1ccc(Oc2ccnc3cc(C(=O)c4ccco4)sc23)c(F)c1

>  <canonical_smi>  (120) 
O=C(Cc1ccccc1)NC(=S)Nc1ccc(Oc2ccnc3cc(C(=O)c4ccco4)sc23)c(F)c1

>  <Set>  (120) 
G2 active

>  <Set_type>  (120) 
Train

>  <MW>  (120) 
531.59

>  <HBD>  (120) 
2

>  <HBA>  (120) 
7

>  <NRB>  (120) 
7

>  <NR>  (120) 
5

>  <NAR>  (120) 
5

>  <PSA>  (120) 
93.46

>  <Standard Type>  (120) 
nan

>  <Standard Relation>  (120) 
nan

>  <Standard Units>  (120) 
nan

>  <Standard Value>  (120) 
nan

>  <Assay ChEMBL ID>  (120) 
nan

>  <Assay Description>  (120) 
nan

>  <BAO Label>  (120) 
nan

$$$$

     RDKit          2D

 41 45  0  0  0  0  0  0  0  0999 V2000
   -2.6401   -3.1891    0.0000 C   0  0  0  0  0  0  0  0  0  0  0  0
   -1.2135   -2.7256    0.0000 C   0  0  0  0  0  0  0  0  0  0  0  0
   -0.0000   -3.6073    0.0000 C   0  0  0  0  0  0  0  0  0  0  0  0
   -0.0000   -5.1073    0.0000 O   0  0  0  0  0  0  0  0  0  0  0  0
    1.2990   -5.8573    0.0000 C   0  0  0  0  0  0  0  0  0  0  0  0
    1.2990   -7.3573    0.0000 C   0  0  0  0  0  0  0  0  0  0  0  0
    2.5981   -8.1073    0.0000 N   0  0  0  0  0  0  0  0  0  0  0  0
    2.5981   -9.6073    0.0000 C   0  0  0  0  0  0  0  0  0  0  0  0
    3.8971  -10.3573    0.0000 C   0  0  0  0  0  0  0  0  0  0  0  0
    5.1962   -9.6073    0.0000 O   0  0  0  0  0  0  0  0  0  0  0  0
    5.1962   -8.1073    0.0000 C   0  0  0  0  0  0  0  0  0  0  0  0
    3.8971   -7.3573    0.0000 C   0  0  0  0  0  0  0  0  0  0  0  0
    1.2135   -2.7256    0.0000 C   0  0  0  0  0  0  0  0  0  0  0  0
    0.7500   -1.2990    0.0000 N   0  0  0  0  0  0  0  0  0  0  0  0
    1.5000    0.0000    0.0000 N   0  0  0  0  0  0  0  0  0  0  0  0
    0.7500    1.2990    0.0000 C   0  0  0  0  0  0  0  0  0  0  0  0
   -0.7500    1.2990    0.0000 N   0  0  0  0  0  0  0  0  0  0  0  0
   -1.5000    0.0000    0.0000 C   0  0  0  0  0  0  0  0  0  0  0  0
   -3.0000    0.0000    0.0000 O   0  0  0  0  0  0  0  0  0  0  0  0
   -3.7500    1.2990    0.0000 C   0  0  0  0  0  0  0  0  0  0  0  0
   -3.0000    2.5981    0.0000 C   0  0  0  0  0  0  0  0  0  0  0  0
   -3.7500    3.8971    0.0000 C   0  0  0  0  0  0  0  0  0  0  0  0
   -5.2500    3.8971    0.0000 C   0  0  0  0  0  0  0  0  0  0  0  0
   -6.0000    5.1962    0.0000 N   0  0  0  0  0  0  0  0  0  0  0  0
   -5.2500    6.4952    0.0000 C   0  0  0  0  0  0  0  0  0  0  0  0
   -3.7500    6.4952    0.0000 O   0  0  0  0  0  0  0  0  0  0  0  0
   -6.0000    7.7942    0.0000 C   0  0  0  0  0  0  0  0  0  0  0  0
   -5.2500    9.0933    0.0000 C   0  0  0  0  0  0  0  0  0  0  0  0
   -3.7500    9.0933    0.0000 O   0  0  0  0  0  0  0  0  0  0  0  0
   -6.0000   10.3923    0.0000 N   0  0  0  0  0  0  0  0  0  0  0  0
   -5.2500   11.6913    0.0000 C   0  0  0  0  0  0  0  0  0  0  0  0
   -3.7500   11.6913    0.0000 C   0  0  0  0  0  0  0  0  0  0  0  0
   -3.0000   12.9904    0.0000 C   0  0  0  0  0  0  0  0  0  0  0  0
   -3.7500   14.2894    0.0000 C   0  0  0  0  0  0  0  0  0  0  0  0
   -3.0000   15.5885    0.0000 F   0  0  0  0  0  0  0  0  0  0  0  0
   -5.2500   14.2894    0.0000 C   0  0  0  0  0  0  0  0  0  0  0  0
   -6.0000   12.9904    0.0000 C   0  0  0  0  0  0  0  0  0  0  0  0
   -6.0000    2.5981    0.0000 C   0  0  0  0  0  0  0  0  0  0  0  0
   -5.2500    1.2990    0.0000 C   0  0  0  0  0  0  0  0  0  0  0  0
   -6.0000    0.0000    0.0000 F   0  0  0  0  0  0  0  0  0  0  0  0
   -0.7500   -1.2990    0.0000 C   0  0  0  0  0  0  0  0  0  0  0  0
  1  2  1  0
  2  3  1  0
  3  4  1  0
  4  5  1  0
  5  6  1  0
  6  7  1  0
  7  8  1  0
  8  9  1  0
  9 10  1  0
 10 11  1  0
 11 12  1  0
  3 13  2  0
 13 14  1  0
 14 15  1  0
 15 16  2  0
 16 17  1  0
 17 18  2  0
 18 19  1  0
 19 20  1  0
 20 21  2  0
 21 22  1  0
 22 23  2  0
 23 24  1  0
 24 25  1  0
 25 26  2  0
 25 27  1  0
 27 28  1  0
 28 29  2  0
 28 30  1  0
 30 31  1  0
 31 32  2  0
 32 33  1  0
 33 34  2  0
 34 35  1  0
 34 36  1  0
 36 37  2  0
 23 38  1  0
 38 39  2  0
 39 40  1  0
 18 41  1  0
 41  2  2  0
 12  7  1  0
 41 14  1  0
 39 20  1  0
 37 31  1  0
M  END
>  <Compound_ID>  (121) 
CHEMBL401344

>  <Active>  (121) 
1.0

>  <Smiles>  (121) 
Cc1c(OCCN2CCOCC2)cn2ncnc(Oc3ccc(NC(=O)CC(=O)Nc4ccc(F)cc4)cc3F)c12

>  <canonical_smi>  (121) 
Cc1c(OCCN2CCOCC2)cn2ncnc(Oc3ccc(NC(=O)CC(=O)Nc4ccc(F)cc4)cc3F)c12

>  <Set>  (121) 
G2 active

>  <Set_type>  (121) 
Train

>  <MW>  (121) 
566.57

>  <HBD>  (121) 
2

>  <HBA>  (121) 
8

>  <NRB>  (121) 
10

>  <NR>  (121) 
5

>  <NAR>  (121) 
4

>  <PSA>  (121) 
119.32

>  <Standard Type>  (121) 
nan

>  <Standard Relation>  (121) 
nan

>  <Standard Units>  (121) 
nan

>  <Standard Value>  (121) 
nan

>  <Assay ChEMBL ID>  (121) 
nan

>  <Assay Description>  (121) 
nan

>  <BAO Label>  (121) 
nan

$$$$

     RDKit          2D

 35 40  0  0  0  0  0  0  0  0999 V2000
    2.5981   -5.1073    0.0000 N   0  0  0  0  0  0  0  0  0  0  0  0
    1.2990   -5.8573    0.0000 C   0  0  0  0  0  0  0  0  0  0  0  0
    1.2990   -7.3573    0.0000 N   0  0  0  0  0  0  0  0  0  0  0  0
   -0.0000   -8.1073    0.0000 C   0  0  0  0  0  0  0  0  0  0  0  0
   -1.2990   -7.3573    0.0000 C   0  0  0  0  0  0  0  0  0  0  0  0
   -2.5981   -8.1073    0.0000 C   0  0  0  0  0  0  0  0  0  0  0  0
   -2.7549   -9.5991    0.0000 C   0  0  0  0  0  0  0  0  0  0  0  0
   -4.2221   -9.9110    0.0000 N   0  0  0  0  0  0  0  0  0  0  0  0
   -4.9721   -8.6119    0.0000 N   0  0  0  0  0  0  0  0  0  0  0  0
   -6.4639   -8.4551    0.0000 C   0  0  0  0  0  0  0  0  0  0  0  0
   -7.0740   -7.0848    0.0000 C   0  0  0  0  0  0  0  0  0  0  0  0
   -8.5658   -6.9280    0.0000 C   0  0  0  0  0  0  0  0  0  0  0  0
   -9.4474   -8.1415    0.0000 N   0  0  0  0  0  0  0  0  0  0  0  0
  -10.9392   -7.9847    0.0000 C   0  0  0  0  0  0  0  0  0  0  0  0
  -11.8209   -9.1983    0.0000 O   0  0  0  0  0  0  0  0  0  0  0  0
  -11.5493   -6.6144    0.0000 C   0  0  0  0  0  0  0  0  0  0  0  0
  -10.6676   -5.4009    0.0000 C   0  0  0  0  0  0  0  0  0  0  0  0
  -11.2778   -4.0306    0.0000 C   0  0  0  0  0  0  0  0  0  0  0  0
  -12.7695   -3.8738    0.0000 C   0  0  0  0  0  0  0  0  0  0  0  0
  -13.6512   -5.0873    0.0000 C   0  0  0  0  0  0  0  0  0  0  0  0
  -13.0411   -6.4576    0.0000 C   0  0  0  0  0  0  0  0  0  0  0  0
   -8.8373   -9.5119    0.0000 C   0  0  0  0  0  0  0  0  0  0  0  0
   -7.3456   -9.6686    0.0000 C   0  0  0  0  0  0  0  0  0  0  0  0
   -3.9684   -7.4972    0.0000 C   0  0  0  0  0  0  0  0  0  0  0  0
   -1.2990   -5.8573    0.0000 C   0  0  0  0  0  0  0  0  0  0  0  0
   -0.0000   -5.1073    0.0000 C   0  0  0  0  0  0  0  0  0  0  0  0
   -0.0000   -3.6073    0.0000 C   0  0  0  0  0  0  0  0  0  0  0  0
    1.2135   -2.7256    0.0000 N   0  0  0  0  0  0  0  0  0  0  0  0
    0.7500   -1.2990    0.0000 C   0  0  0  0  0  0  0  0  0  0  0  0
    1.5000    0.0000    0.0000 C   0  0  0  0  0  0  0  0  0  0  0  0
    0.7500    1.2990    0.0000 C   0  0  0  0  0  0  0  0  0  0  0  0
   -0.7500    1.2990    0.0000 C   0  0  0  0  0  0  0  0  0  0  0  0
   -1.5000    0.0000    0.0000 C   0  0  0  0  0  0  0  0  0  0  0  0
   -0.7500   -1.2990    0.0000 C   0  0  0  0  0  0  0  0  0  0  0  0
   -1.2135   -2.7256    0.0000 O   0  0  0  0  0  0  0  0  0  0  0  0
  1  2  1  0
  2  3  2  0
  3  4  1  0
  4  5  2  0
  5  6  1  0
  6  7  1  0
  7  8  2  0
  8  9  1  0
  9 10  1  0
 10 11  1  0
 11 12  1  0
 12 13  1  0
 13 14  1  0
 14 15  2  0
 14 16  1  0
 16 17  2  0
 17 18  1  0
 18 19  2  0
 19 20  1  0
 20 21  2  0
 13 22  1  0
 22 23  1  0
  9 24  1  0
  5 25  1  0
 25 26  2  0
 26 27  1  0
 27 28  2  0
 28 29  1  0
 29 30  2  0
 30 31  1  0
 31 32  2  0
 32 33  1  0
 33 34  2  0
 34 35  1  0
 26  2  1  0
 35 27  1  0
 24  6  2  0
 34 29  1  0
 23 10  1  0
 21 16  1  0
M  END
>  <Compound_ID>  (122) 
CHEMBL1171025

>  <Active>  (122) 
1.0

>  <Smiles>  (122) 
Nc1ncc(-c2cnn(C3CCN(C(=O)c4ccccc4)CC3)c2)cc1-c1nc2ccccc2o1

>  <canonical_smi>  (122) 
Nc1ncc(-c2cnn(C3CCN(C(=O)c4ccccc4)CC3)c2)cc1-c1nc2ccccc2o1

>  <Set>  (122) 
G2 active

>  <Set_type>  (122) 
Train

>  <MW>  (122) 
464.53

>  <HBD>  (122) 
1

>  <HBA>  (122) 
6

>  <NRB>  (122) 
4

>  <NR>  (122) 
6

>  <NAR>  (122) 
5

>  <PSA>  (122) 
103.07

>  <Standard Type>  (122) 
nan

>  <Standard Relation>  (122) 
nan

>  <Standard Units>  (122) 
nan

>  <Standard Value>  (122) 
nan

>  <Assay ChEMBL ID>  (122) 
nan

>  <Assay Description>  (122) 
nan

>  <BAO Label>  (122) 
nan

$$$$

     RDKit          2D

 39 43  0  0  0  0  0  0  0  0999 V2000
    9.7500   -6.4952    0.0000 O   0  0  0  0  0  0  0  0  0  0  0  0
   10.5000   -5.1962    0.0000 C   0  0  0  0  0  0  0  0  0  0  0  0
   12.0000   -5.1962    0.0000 C   0  0  0  0  0  0  0  0  0  0  0  0
   12.7500   -6.4952    0.0000 C   0  0  0  0  0  0  0  0  0  0  0  0
   12.0000   -7.7942    0.0000 C   0  0  0  0  0  0  0  0  0  0  0  0
   12.7500   -9.0933    0.0000 C   0  0  0  0  0  0  0  0  0  0  0  0
   14.2500   -9.0933    0.0000 C   0  0  0  0  0  0  0  0  0  0  0  0
   15.0000  -10.3923    0.0000 F   0  0  0  0  0  0  0  0  0  0  0  0
   15.0000   -7.7942    0.0000 C   0  0  0  0  0  0  0  0  0  0  0  0
   14.2500   -6.4952    0.0000 C   0  0  0  0  0  0  0  0  0  0  0  0
    9.7500   -3.8971    0.0000 N   0  0  0  0  0  0  0  0  0  0  0  0
    8.2500   -3.8971    0.0000 C   0  0  0  0  0  0  0  0  0  0  0  0
    7.5000   -5.1962    0.0000 O   0  0  0  0  0  0  0  0  0  0  0  0
    7.5000   -2.5981    0.0000 N   0  0  0  0  0  0  0  0  0  0  0  0
    6.0000   -2.5981    0.0000 C   0  0  0  0  0  0  0  0  0  0  0  0
    5.2500   -1.2990    0.0000 C   0  0  0  0  0  0  0  0  0  0  0  0
    3.7500   -1.2990    0.0000 C   0  0  0  0  0  0  0  0  0  0  0  0
    3.0000   -2.5981    0.0000 C   0  0  0  0  0  0  0  0  0  0  0  0
    1.5000   -2.5981    0.0000 O   0  0  0  0  0  0  0  0  0  0  0  0
    0.7500   -1.2990    0.0000 C   0  0  0  0  0  0  0  0  0  0  0  0
    1.5000    0.0000    0.0000 N   0  0  0  0  0  0  0  0  0  0  0  0
    0.7500    1.2990    0.0000 C   0  0  0  0  0  0  0  0  0  0  0  0
   -0.7500    1.2990    0.0000 N   0  0  0  0  0  0  0  0  0  0  0  0
   -1.5000    0.0000    0.0000 N   0  0  0  0  0  0  0  0  0  0  0  0
   -2.9672   -0.3119    0.0000 C   0  0  0  0  0  0  0  0  0  0  0  0
   -3.1240   -1.8037    0.0000 C   0  0  0  0  0  0  0  0  0  0  0  0
   -1.7537   -2.4138    0.0000 C   0  0  0  0  0  0  0  0  0  0  0  0
   -1.4418   -3.8810    0.0000 C   0  0  0  0  0  0  0  0  0  0  0  0
   -2.5565   -4.8847    0.0000 N   0  0  0  0  0  0  0  0  0  0  0  0
   -2.2447   -6.3519    0.0000 C   0  0  0  0  0  0  0  0  0  0  0  0
   -3.3594   -7.3556    0.0000 C   0  0  0  0  0  0  0  0  0  0  0  0
   -3.0475   -8.8228    0.0000 C   0  0  0  0  0  0  0  0  0  0  0  0
   -1.6209   -9.2863    0.0000 N   0  0  0  0  0  0  0  0  0  0  0  0
   -0.5062   -8.2826    0.0000 C   0  0  0  0  0  0  0  0  0  0  0  0
   -0.8181   -6.8154    0.0000 C   0  0  0  0  0  0  0  0  0  0  0  0
   -0.7500   -1.2990    0.0000 C   0  0  0  0  0  0  0  0  0  0  0  0
    3.7500   -3.8971    0.0000 C   0  0  0  0  0  0  0  0  0  0  0  0
    3.0000   -5.1962    0.0000 F   0  0  0  0  0  0  0  0  0  0  0  0
    5.2500   -3.8971    0.0000 C   0  0  0  0  0  0  0  0  0  0  0  0
  1  2  2  0
  2  3  1  0
  3  4  1  0
  4  5  2  0
  5  6  1  0
  6  7  2  0
  7  8  1  0
  7  9  1  0
  9 10  2  0
  2 11  1  0
 11 12  1  0
 12 13  2  0
 12 14  1  0
 14 15  1  0
 15 16  2  0
 16 17  1  0
 17 18  2  0
 18 19  1  0
 19 20  1  0
 20 21  2  0
 21 22  1  0
 22 23  2  0
 23 24  1  0
 24 25  1  0
 25 26  2  0
 26 27  1  0
 27 28  1  0
 28 29  1  0
 29 30  1  0
 30 31  1  0
 31 32  1  0
 32 33  1  0
 33 34  1  0
 34 35  1  0
 27 36  2  0
 18 37  1  0
 37 38  1  0
 37 39  2  0
 10  4  1  0
 39 15  1  0
 36 20  1  0
 36 24  1  0
 35 30  1  0
M  END
>  <Compound_ID>  (123) 
CHEMBL429490

>  <Active>  (123) 
1.0

>  <Smiles>  (123) 
O=C(Cc1ccc(F)cc1)NC(=O)Nc1ccc(Oc2ncnn3ccc(CNC4CCNCC4)c23)c(F)c1

>  <canonical_smi>  (123) 
O=C(Cc1ccc(F)cc1)NC(=O)Nc1ccc(Oc2ncnn3ccc(CNC4CCNCC4)c23)c(F)c1

>  <Set>  (123) 
G2 active

>  <Set_type>  (123) 
Train

>  <MW>  (123) 
535.56

>  <HBD>  (123) 
4

>  <HBA>  (123) 
7

>  <NRB>  (123) 
8

>  <NR>  (123) 
5

>  <NAR>  (123) 
4

>  <PSA>  (123) 
121.68

>  <Standard Type>  (123) 
nan

>  <Standard Relation>  (123) 
nan

>  <Standard Units>  (123) 
nan

>  <Standard Value>  (123) 
nan

>  <Assay ChEMBL ID>  (123) 
nan

>  <Assay Description>  (123) 
nan

>  <BAO Label>  (123) 
nan

$$$$

     RDKit          2D

 36 40  0  0  0  0  0  0  0  0999 V2000
    3.0000   -5.1962    0.0000 C   0  0  0  0  0  0  0  0  0  0  0  0
    1.5000   -5.1962    0.0000 O   0  0  0  0  0  0  0  0  0  0  0  0
    0.7500   -3.8971    0.0000 C   0  0  0  0  0  0  0  0  0  0  0  0
    1.5000   -2.5981    0.0000 C   0  0  0  0  0  0  0  0  0  0  0  0
    0.7500   -1.2990    0.0000 C   0  0  0  0  0  0  0  0  0  0  0  0
    1.5000    0.0000    0.0000 N   0  0  0  0  0  0  0  0  0  0  0  0
    0.7500    1.2990    0.0000 C   0  0  0  0  0  0  0  0  0  0  0  0
   -0.7500    1.2990    0.0000 C   0  0  0  0  0  0  0  0  0  0  0  0
   -1.5000    0.0000    0.0000 C   0  0  0  0  0  0  0  0  0  0  0  0
   -3.0000    0.0000    0.0000 O   0  0  0  0  0  0  0  0  0  0  0  0
   -3.7500    1.2990    0.0000 C   0  0  0  0  0  0  0  0  0  0  0  0
   -3.0000    2.5981    0.0000 C   0  0  0  0  0  0  0  0  0  0  0  0
   -3.7500    3.8971    0.0000 C   0  0  0  0  0  0  0  0  0  0  0  0
   -5.2500    3.8971    0.0000 C   0  0  0  0  0  0  0  0  0  0  0  0
   -6.0000    2.5981    0.0000 C   0  0  0  0  0  0  0  0  0  0  0  0
   -5.2500    1.2990    0.0000 C   0  0  0  0  0  0  0  0  0  0  0  0
   -7.5000    2.5981    0.0000 O   0  0  0  0  0  0  0  0  0  0  0  0
   -8.2500    3.8971    0.0000 C   0  0  0  0  0  0  0  0  0  0  0  0
   -7.5000    5.1962    0.0000 C   0  0  0  0  0  0  0  0  0  0  0  0
   -6.0000    5.1962    0.0000 N   0  0  0  0  0  0  0  0  0  0  0  0
   -5.2500    6.4952    0.0000 C   0  0  0  0  0  0  0  0  0  0  0  0
   -3.7500    6.4952    0.0000 O   0  0  0  0  0  0  0  0  0  0  0  0
   -6.0000    7.7942    0.0000 N   0  0  0  0  0  0  0  0  0  0  0  0
   -5.2500    9.0933    0.0000 C   0  0  0  0  0  0  0  0  0  0  0  0
   -3.7500    9.0933    0.0000 C   0  0  0  0  0  0  0  0  0  0  0  0
   -3.0000   10.3923    0.0000 C   0  0  0  0  0  0  0  0  0  0  0  0
   -3.7500   11.6913    0.0000 C   0  0  0  0  0  0  0  0  0  0  0  0
   -3.0000   12.9904    0.0000 Cl  0  0  0  0  0  0  0  0  0  0  0  0
   -5.2500   11.6913    0.0000 C   0  0  0  0  0  0  0  0  0  0  0  0
   -6.0000   10.3923    0.0000 C   0  0  0  0  0  0  0  0  0  0  0  0
   -0.7500   -1.2990    0.0000 C   0  0  0  0  0  0  0  0  0  0  0  0
   -1.5000   -2.5981    0.0000 C   0  0  0  0  0  0  0  0  0  0  0  0
   -0.7500   -3.8971    0.0000 C   0  0  0  0  0  0  0  0  0  0  0  0
   -1.5000   -5.1962    0.0000 C   0  0  0  0  0  0  0  0  0  0  0  0
   -3.0000   -5.1962    0.0000 N   0  0  0  0  0  0  0  0  0  0  0  0
   -0.7500   -6.4952    0.0000 O   0  0  0  0  0  0  0  0  0  0  0  0
  1  2  1  0
  2  3  1  0
  3  4  2  0
  4  5  1  0
  5  6  2  0
  6  7  1  0
  7  8  2  0
  8  9  1  0
  9 10  1  0
 10 11  1  0
 11 12  2  0
 12 13  1  0
 13 14  2  0
 14 15  1  0
 15 16  2  0
 15 17  1  0
 17 18  1  0
 18 19  1  0
 19 20  1  0
 20 21  1  0
 21 22  2  0
 21 23  1  0
 23 24  1  0
 24 25  2  0
 25 26  1  0
 26 27  2  0
 27 28  1  0
 27 29  1  0
 29 30  2  0
  9 31  2  0
 31 32  1  0
 32 33  2  0
 33 34  1  0
 34 35  1  0
 34 36  2  0
 33  3  1  0
 31  5  1  0
 16 11  1  0
 30 24  1  0
 20 14  1  0
M  END
>  <Compound_ID>  (124) 
CHEMBL409867

>  <Active>  (124) 
1.0

>  <Smiles>  (124) 
COc1cc2nccc(Oc3ccc4c(c3)OCCN4C(=O)Nc3ccc(Cl)cc3)c2cc1C(N)=O

>  <canonical_smi>  (124) 
COc1cc2nccc(Oc3ccc4c(c3)OCCN4C(=O)Nc3ccc(Cl)cc3)c2cc1C(N)=O

>  <Set>  (124) 
G2 active

>  <Set_type>  (124) 
Train

>  <MW>  (124) 
504.93

>  <HBD>  (124) 
2

>  <HBA>  (124) 
6

>  <NRB>  (124) 
5

>  <NR>  (124) 
5

>  <NAR>  (124) 
4

>  <PSA>  (124) 
116.01

>  <Standard Type>  (124) 
nan

>  <Standard Relation>  (124) 
nan

>  <Standard Units>  (124) 
nan

>  <Standard Value>  (124) 
nan

>  <Assay ChEMBL ID>  (124) 
nan

>  <Assay Description>  (124) 
nan

>  <BAO Label>  (124) 
nan

$$$$

     RDKit          2D

 37 41  0  0  0  0  0  0  0  0999 V2000
   -2.6401   -3.1891    0.0000 C   0  0  0  0  0  0  0  0  0  0  0  0
   -1.2135   -2.7256    0.0000 C   0  0  0  0  0  0  0  0  0  0  0  0
   -0.0000   -3.6073    0.0000 C   0  0  0  0  0  0  0  0  0  0  0  0
   -0.0000   -5.1073    0.0000 O   0  0  0  0  0  0  0  0  0  0  0  0
    1.2990   -5.8573    0.0000 C   0  0  0  0  0  0  0  0  0  0  0  0
    1.2990   -7.3573    0.0000 C   0  0  0  0  0  0  0  0  0  0  0  0
    2.5981   -8.1073    0.0000 N   0  0  0  0  0  0  0  0  0  0  0  0
    2.5981   -9.6073    0.0000 C   0  0  0  0  0  0  0  0  0  0  0  0
    3.8971  -10.3573    0.0000 C   0  0  0  0  0  0  0  0  0  0  0  0
    5.1962   -9.6073    0.0000 N   0  0  0  0  0  0  0  0  0  0  0  0
    6.4952  -10.3573    0.0000 C   0  0  0  0  0  0  0  0  0  0  0  0
    5.1962   -8.1073    0.0000 C   0  0  0  0  0  0  0  0  0  0  0  0
    3.8971   -7.3573    0.0000 C   0  0  0  0  0  0  0  0  0  0  0  0
    1.2135   -2.7256    0.0000 C   0  0  0  0  0  0  0  0  0  0  0  0
    0.7500   -1.2990    0.0000 N   0  0  0  0  0  0  0  0  0  0  0  0
    1.5000    0.0000    0.0000 N   0  0  0  0  0  0  0  0  0  0  0  0
    0.7500    1.2990    0.0000 C   0  0  0  0  0  0  0  0  0  0  0  0
   -0.7500    1.2990    0.0000 N   0  0  0  0  0  0  0  0  0  0  0  0
   -1.5000    0.0000    0.0000 C   0  0  0  0  0  0  0  0  0  0  0  0
   -3.0000    0.0000    0.0000 O   0  0  0  0  0  0  0  0  0  0  0  0
   -3.7500    1.2990    0.0000 C   0  0  0  0  0  0  0  0  0  0  0  0
   -3.0000    2.5981    0.0000 C   0  0  0  0  0  0  0  0  0  0  0  0
   -3.7500    3.8971    0.0000 C   0  0  0  0  0  0  0  0  0  0  0  0
   -5.2500    3.8971    0.0000 C   0  0  0  0  0  0  0  0  0  0  0  0
   -6.0000    5.1962    0.0000 N   0  0  0  0  0  0  0  0  0  0  0  0
   -5.2500    6.4952    0.0000 C   0  0  0  0  0  0  0  0  0  0  0  0
   -3.7500    6.4952    0.0000 O   0  0  0  0  0  0  0  0  0  0  0  0
   -6.0000    7.7942    0.0000 C   0  0  0  0  0  0  0  0  0  0  0  0
   -5.2500    9.0933    0.0000 C   0  0  0  0  0  0  0  0  0  0  0  0
   -6.0000   10.3923    0.0000 C   0  0  0  0  0  0  0  0  0  0  0  0
   -7.5000   10.3923    0.0000 C   0  0  0  0  0  0  0  0  0  0  0  0
   -8.2500    9.0933    0.0000 N   0  0  0  0  0  0  0  0  0  0  0  0
   -7.5000    7.7942    0.0000 C   0  0  0  0  0  0  0  0  0  0  0  0
   -6.0000    2.5981    0.0000 C   0  0  0  0  0  0  0  0  0  0  0  0
   -5.2500    1.2990    0.0000 C   0  0  0  0  0  0  0  0  0  0  0  0
   -6.0000    0.0000    0.0000 F   0  0  0  0  0  0  0  0  0  0  0  0
   -0.7500   -1.2990    0.0000 C   0  0  0  0  0  0  0  0  0  0  0  0
  1  2  1  0
  2  3  1  0
  3  4  1  0
  4  5  1  0
  5  6  1  0
  6  7  1  0
  7  8  1  0
  8  9  1  0
  9 10  1  0
 10 11  1  0
 10 12  1  0
 12 13  1  0
  3 14  2  0
 14 15  1  0
 15 16  1  0
 16 17  2  0
 17 18  1  0
 18 19  2  0
 19 20  1  0
 20 21  1  0
 21 22  2  0
 22 23  1  0
 23 24  2  0
 24 25  1  0
 25 26  1  0
 26 27  2  0
 26 28  1  0
 28 29  2  0
 29 30  1  0
 30 31  2  0
 31 32  1  0
 32 33  2  0
 24 34  1  0
 34 35  2  0
 35 36  1  0
 19 37  1  0
 37  2  2  0
 13  7  1  0
 37 15  1  0
 35 21  1  0
 33 28  1  0
M  END
>  <Compound_ID>  (125) 
CHEMBL251980

>  <Active>  (125) 
1.0

>  <Smiles>  (125) 
Cc1c(OCCN2CCN(C)CC2)cn2ncnc(Oc3ccc(NC(=O)c4cccnc4)cc3F)c12

>  <canonical_smi>  (125) 
Cc1c(OCCN2CCN(C)CC2)cn2ncnc(Oc3ccc(NC(=O)c4cccnc4)cc3F)c12

>  <Set>  (125) 
G2 active

>  <Set_type>  (125) 
Train

>  <MW>  (125) 
505.55

>  <HBD>  (125) 
1

>  <HBA>  (125) 
8

>  <NRB>  (125) 
8

>  <NR>  (125) 
5

>  <NAR>  (125) 
4

>  <PSA>  (125) 
97.12

>  <Standard Type>  (125) 
nan

>  <Standard Relation>  (125) 
nan

>  <Standard Units>  (125) 
nan

>  <Standard Value>  (125) 
nan

>  <Assay ChEMBL ID>  (125) 
nan

>  <Assay Description>  (125) 
nan

>  <BAO Label>  (125) 
nan

$$$$

     RDKit          2D

 31 35  0  0  0  0  0  0  0  0999 V2000
    3.7500   -6.4952    0.0000 C   0  0  0  0  0  0  0  0  0  0  0  0
    3.0000   -5.1962    0.0000 N   0  0  0  0  0  0  0  0  0  0  0  0
    1.5000   -5.1962    0.0000 C   0  0  0  0  0  0  0  0  0  0  0  0
    0.7500   -3.8971    0.0000 C   0  0  0  0  0  0  0  0  0  0  0  0
    1.5000   -2.5981    0.0000 N   0  0  0  0  0  0  0  0  0  0  0  0
    0.7500   -1.2990    0.0000 C   0  0  0  0  0  0  0  0  0  0  0  0
    1.5000    0.0000    0.0000 C   0  0  0  0  0  0  0  0  0  0  0  0
    0.7500    1.2990    0.0000 N   0  0  0  0  0  0  0  0  0  0  0  0
   -0.7500    1.2990    0.0000 C   0  0  0  0  0  0  0  0  0  0  0  0
   -1.5000    2.5981    0.0000 C   0  0  0  0  0  0  0  0  0  0  0  0
   -3.0000    2.5981    0.0000 C   0  0  0  0  0  0  0  0  0  0  0  0
   -3.7500    3.8971    0.0000 C   0  0  0  0  0  0  0  0  0  0  0  0
   -4.5000    5.1962    0.0000 F   0  0  0  0  0  0  0  0  0  0  0  0
   -2.4510    4.6471    0.0000 F   0  0  0  0  0  0  0  0  0  0  0  0
   -5.0490    3.1471    0.0000 F   0  0  0  0  0  0  0  0  0  0  0  0
   -3.7500    1.2990    0.0000 C   0  0  0  0  0  0  0  0  0  0  0  0
   -3.0000    0.0000    0.0000 C   0  0  0  0  0  0  0  0  0  0  0  0
   -3.7500   -1.2990    0.0000 C   0  0  0  0  0  0  0  0  0  0  0  0
   -3.0000   -2.5981    0.0000 C   0  0  0  0  0  0  0  0  0  0  0  0
   -3.7500   -3.8971    0.0000 C   0  0  0  0  0  0  0  0  0  0  0  0
   -5.2500   -3.8971    0.0000 C   0  0  0  0  0  0  0  0  0  0  0  0
   -6.0000   -2.5981    0.0000 C   0  0  0  0  0  0  0  0  0  0  0  0
   -5.2500   -1.2990    0.0000 C   0  0  0  0  0  0  0  0  0  0  0  0
   -7.4672   -2.9099    0.0000 C   0  0  0  0  0  0  0  0  0  0  0  0
   -7.6240   -4.4017    0.0000 C   0  0  0  0  0  0  0  0  0  0  0  0
   -8.9231   -5.1517    0.0000 O   0  0  0  0  0  0  0  0  0  0  0  0
   -6.2537   -5.0118    0.0000 N   0  0  0  0  0  0  0  0  0  0  0  0
   -1.5000    0.0000    0.0000 C   0  0  0  0  0  0  0  0  0  0  0  0
   -0.7500   -1.2990    0.0000 N   0  0  0  0  0  0  0  0  0  0  0  0
    3.0000   -2.5981    0.0000 C   0  0  0  0  0  0  0  0  0  0  0  0
    3.7500   -3.8971    0.0000 C   0  0  0  0  0  0  0  0  0  0  0  0
  1  2  1  0
  2  3  1  0
  3  4  1  0
  4  5  1  0
  5  6  1  0
  6  7  2  0
  7  8  1  0
  8  9  2  0
  9 10  1  0
 10 11  2  0
 11 12  1  0
 12 13  1  0
 12 14  1  0
 12 15  1  0
 11 16  1  0
 16 17  2  0
 17 18  1  0
 18 19  2  0
 19 20  1  0
 20 21  2  0
 21 22  1  0
 22 23  2  0
 22 24  1  0
 24 25  1  0
 25 26  2  0
 25 27  1  0
 17 28  1  0
 28 29  2  0
  5 30  1  0
 30 31  1  0
 31  2  1  0
 29  6  1  0
 28  9  1  0
 23 18  1  0
 27 21  1  0
M  END
>  <Compound_ID>  (126) 
CHEMBL468787

>  <Active>  (126) 
1.0

>  <Smiles>  (126) 
CN1CCN(c2cnc3cc(C(F)(F)F)cc(-c4ccc5c(c4)CC(=O)N5)c3n2)CC1

>  <canonical_smi>  (126) 
CN1CCN(c2cnc3cc(C(F)(F)F)cc(-c4ccc5c(c4)CC(=O)N5)c3n2)CC1

>  <Set>  (126) 
G2 active

>  <Set_type>  (126) 
Train

>  <MW>  (126) 
427.43

>  <HBD>  (126) 
1

>  <HBA>  (126) 
5

>  <NRB>  (126) 
2

>  <NR>  (126) 
5

>  <NAR>  (126) 
3

>  <PSA>  (126) 
61.36

>  <Standard Type>  (126) 
nan

>  <Standard Relation>  (126) 
nan

>  <Standard Units>  (126) 
nan

>  <Standard Value>  (126) 
nan

>  <Assay ChEMBL ID>  (126) 
nan

>  <Assay Description>  (126) 
nan

>  <BAO Label>  (126) 
nan

$$$$

     RDKit          2D

 36 40  0  0  0  0  0  0  0  0999 V2000
   -2.6401   -3.1891    0.0000 C   0  0  0  0  0  0  0  0  0  0  0  0
   -1.2135   -2.7256    0.0000 C   0  0  0  0  0  0  0  0  0  0  0  0
   -0.0000   -3.6073    0.0000 C   0  0  0  0  0  0  0  0  0  0  0  0
   -0.0000   -5.1073    0.0000 O   0  0  0  0  0  0  0  0  0  0  0  0
    1.2990   -5.8573    0.0000 C   0  0  0  0  0  0  0  0  0  0  0  0
    1.2990   -7.3573    0.0000 C   0  0  0  0  0  0  0  0  0  0  0  0
    2.5981   -8.1073    0.0000 N   0  0  0  0  0  0  0  0  0  0  0  0
    2.5981   -9.6073    0.0000 C   0  0  0  0  0  0  0  0  0  0  0  0
    3.8971  -10.3573    0.0000 C   0  0  0  0  0  0  0  0  0  0  0  0
    5.1962   -9.6073    0.0000 N   0  0  0  0  0  0  0  0  0  0  0  0
    6.4952  -10.3573    0.0000 C   0  0  0  0  0  0  0  0  0  0  0  0
    5.1962   -8.1073    0.0000 C   0  0  0  0  0  0  0  0  0  0  0  0
    3.8971   -7.3573    0.0000 C   0  0  0  0  0  0  0  0  0  0  0  0
    1.2135   -2.7256    0.0000 C   0  0  0  0  0  0  0  0  0  0  0  0
    0.7500   -1.2990    0.0000 N   0  0  0  0  0  0  0  0  0  0  0  0
    1.5000    0.0000    0.0000 N   0  0  0  0  0  0  0  0  0  0  0  0
    0.7500    1.2990    0.0000 C   0  0  0  0  0  0  0  0  0  0  0  0
   -0.7500    1.2990    0.0000 N   0  0  0  0  0  0  0  0  0  0  0  0
   -1.5000    0.0000    0.0000 C   0  0  0  0  0  0  0  0  0  0  0  0
   -3.0000    0.0000    0.0000 O   0  0  0  0  0  0  0  0  0  0  0  0
   -3.7500    1.2990    0.0000 C   0  0  0  0  0  0  0  0  0  0  0  0
   -3.0000    2.5981    0.0000 C   0  0  0  0  0  0  0  0  0  0  0  0
   -3.7500    3.8971    0.0000 C   0  0  0  0  0  0  0  0  0  0  0  0
   -5.2500    3.8971    0.0000 C   0  0  0  0  0  0  0  0  0  0  0  0
   -6.0000    5.1962    0.0000 N   0  0  0  0  0  0  0  0  0  0  0  0
   -5.2500    6.4952    0.0000 C   0  0  0  0  0  0  0  0  0  0  0  0
   -3.7500    6.4952    0.0000 O   0  0  0  0  0  0  0  0  0  0  0  0
   -6.0000    7.7942    0.0000 C   0  0  0  0  0  0  0  0  0  0  0  0
   -7.4918    7.9510    0.0000 C   0  0  0  0  0  0  0  0  0  0  0  0
   -7.8037    9.4182    0.0000 C   0  0  0  0  0  0  0  0  0  0  0  0
   -6.5046   10.1682    0.0000 C   0  0  0  0  0  0  0  0  0  0  0  0
   -5.3899    9.1645    0.0000 S   0  0  0  0  0  0  0  0  0  0  0  0
   -6.0000    2.5981    0.0000 C   0  0  0  0  0  0  0  0  0  0  0  0
   -5.2500    1.2990    0.0000 C   0  0  0  0  0  0  0  0  0  0  0  0
   -6.0000    0.0000    0.0000 F   0  0  0  0  0  0  0  0  0  0  0  0
   -0.7500   -1.2990    0.0000 C   0  0  0  0  0  0  0  0  0  0  0  0
  1  2  1  0
  2  3  1  0
  3  4  1  0
  4  5  1  0
  5  6  1  0
  6  7  1  0
  7  8  1  0
  8  9  1  0
  9 10  1  0
 10 11  1  0
 10 12  1  0
 12 13  1  0
  3 14  2  0
 14 15  1  0
 15 16  1  0
 16 17  2  0
 17 18  1  0
 18 19  2  0
 19 20  1  0
 20 21  1  0
 21 22  2  0
 22 23  1  0
 23 24  2  0
 24 25  1  0
 25 26  1  0
 26 27  2  0
 26 28  1  0
 28 29  2  0
 29 30  1  0
 30 31  2  0
 31 32  1  0
 24 33  1  0
 33 34  2  0
 34 35  1  0
 19 36  1  0
 36  2  2  0
 13  7  1  0
 36 15  1  0
 34 21  1  0
 32 28  1  0
M  END
>  <Compound_ID>  (127) 
CHEMBL399674

>  <Active>  (127) 
1.0

>  <Smiles>  (127) 
Cc1c(OCCN2CCN(C)CC2)cn2ncnc(Oc3ccc(NC(=O)c4cccs4)cc3F)c12

>  <canonical_smi>  (127) 
Cc1c(OCCN2CCN(C)CC2)cn2ncnc(Oc3ccc(NC(=O)c4cccs4)cc3F)c12

>  <Set>  (127) 
G2 active

>  <Set_type>  (127) 
Train

>  <MW>  (127) 
510.6

>  <HBD>  (127) 
1

>  <HBA>  (127) 
7

>  <NRB>  (127) 
8

>  <NR>  (127) 
5

>  <NAR>  (127) 
4

>  <PSA>  (127) 
84.23

>  <Standard Type>  (127) 
nan

>  <Standard Relation>  (127) 
nan

>  <Standard Units>  (127) 
nan

>  <Standard Value>  (127) 
nan

>  <Assay ChEMBL ID>  (127) 
nan

>  <Assay Description>  (127) 
nan

>  <BAO Label>  (127) 
nan

$$$$

     RDKit          2D

 39 43  0  0  0  0  0  0  0  0999 V2000
   -5.1962   -8.1073    0.0000 C   0  0  0  0  0  0  0  0  0  0  0  0
   -3.8971   -7.3573    0.0000 N   0  0  0  0  0  0  0  0  0  0  0  0
   -3.8971   -5.8573    0.0000 C   0  0  0  0  0  0  0  0  0  0  0  0
   -2.5981   -5.1073    0.0000 C   0  0  0  0  0  0  0  0  0  0  0  0
   -1.2990   -5.8573    0.0000 N   0  0  0  0  0  0  0  0  0  0  0  0
   -0.0000   -5.1073    0.0000 C   0  0  0  0  0  0  0  0  0  0  0  0
    1.2990   -5.8573    0.0000 O   0  0  0  0  0  0  0  0  0  0  0  0
   -0.0000   -3.6073    0.0000 C   0  0  0  0  0  0  0  0  0  0  0  0
    1.2135   -2.7256    0.0000 C   0  0  0  0  0  0  0  0  0  0  0  0
    0.7500   -1.2990    0.0000 C   0  0  0  0  0  0  0  0  0  0  0  0
    1.5000    0.0000    0.0000 N   0  0  0  0  0  0  0  0  0  0  0  0
    0.7500    1.2990    0.0000 C   0  0  0  0  0  0  0  0  0  0  0  0
   -0.7500    1.2990    0.0000 C   0  0  0  0  0  0  0  0  0  0  0  0
   -1.5000    0.0000    0.0000 C   0  0  0  0  0  0  0  0  0  0  0  0
   -3.0000    0.0000    0.0000 O   0  0  0  0  0  0  0  0  0  0  0  0
   -3.7500    1.2990    0.0000 C   0  0  0  0  0  0  0  0  0  0  0  0
   -3.0000    2.5981    0.0000 C   0  0  0  0  0  0  0  0  0  0  0  0
   -3.7500    3.8971    0.0000 C   0  0  0  0  0  0  0  0  0  0  0  0
   -5.2500    3.8971    0.0000 C   0  0  0  0  0  0  0  0  0  0  0  0
   -6.0000    5.1962    0.0000 N   0  0  0  0  0  0  0  0  0  0  0  0
   -5.2500    6.4952    0.0000 C   0  0  0  0  0  0  0  0  0  0  0  0
   -3.7500    6.4952    0.0000 S   0  0  0  0  0  0  0  0  0  0  0  0
   -6.0000    7.7942    0.0000 N   0  0  0  0  0  0  0  0  0  0  0  0
   -5.2500    9.0933    0.0000 C   0  0  0  0  0  0  0  0  0  0  0  0
   -3.7500    9.0933    0.0000 O   0  0  0  0  0  0  0  0  0  0  0  0
   -6.0000   10.3923    0.0000 C   0  0  0  0  0  0  0  0  0  0  0  0
   -5.2500   11.6913    0.0000 C   0  0  0  0  0  0  0  0  0  0  0  0
   -3.7500   11.6913    0.0000 C   0  0  0  0  0  0  0  0  0  0  0  0
   -3.0000   12.9904    0.0000 C   0  0  0  0  0  0  0  0  0  0  0  0
   -3.7500   14.2894    0.0000 C   0  0  0  0  0  0  0  0  0  0  0  0
   -5.2500   14.2894    0.0000 C   0  0  0  0  0  0  0  0  0  0  0  0
   -6.0000   12.9904    0.0000 C   0  0  0  0  0  0  0  0  0  0  0  0
   -6.0000    2.5981    0.0000 C   0  0  0  0  0  0  0  0  0  0  0  0
   -5.2500    1.2990    0.0000 C   0  0  0  0  0  0  0  0  0  0  0  0
   -6.0000    0.0000    0.0000 F   0  0  0  0  0  0  0  0  0  0  0  0
   -0.7500   -1.2990    0.0000 C   0  0  0  0  0  0  0  0  0  0  0  0
   -1.2135   -2.7256    0.0000 S   0  0  0  0  0  0  0  0  0  0  0  0
   -1.2990   -7.3573    0.0000 C   0  0  0  0  0  0  0  0  0  0  0  0
   -2.5981   -8.1073    0.0000 C   0  0  0  0  0  0  0  0  0  0  0  0
  1  2  1  0
  2  3  1  0
  3  4  1  0
  4  5  1  0
  5  6  1  0
  6  7  2  0
  6  8  1  0
  8  9  2  0
  9 10  1  0
 10 11  2  0
 11 12  1  0
 12 13  2  0
 13 14  1  0
 14 15  1  0
 15 16  1  0
 16 17  2  0
 17 18  1  0
 18 19  2  0
 19 20  1  0
 20 21  1  0
 21 22  2  0
 21 23  1  0
 23 24  1  0
 24 25  2  0
 24 26  1  0
 26 27  1  0
 27 28  2  0
 28 29  1  0
 29 30  2  0
 30 31  1  0
 31 32  2  0
 19 33  1  0
 33 34  2  0
 34 35  1  0
 14 36  2  0
 36 37  1  0
  5 38  1  0
 38 39  1  0
 39  2  1  0
 37  8  1  0
 36 10  1  0
 34 16  1  0
 32 27  1  0
M  END
>  <Compound_ID>  (128) 
CHEMBL254761

>  <Active>  (128) 
1.0

>  <Smiles>  (128) 
CN1CCN(C(=O)c2cc3nccc(Oc4ccc(NC(=S)NC(=O)Cc5ccccc5)cc4F)c3s2)CC1

>  <canonical_smi>  (128) 
CN1CCN(C(=O)c2cc3nccc(Oc4ccc(NC(=S)NC(=O)Cc5ccccc5)cc4F)c3s2)CC1

>  <Set>  (128) 
G2 active

>  <Set_type>  (128) 
Train

>  <MW>  (128) 
563.68

>  <HBD>  (128) 
2

>  <HBA>  (128) 
7

>  <NRB>  (128) 
6

>  <NR>  (128) 
5

>  <NAR>  (128) 
4

>  <PSA>  (128) 
86.8

>  <Standard Type>  (128) 
nan

>  <Standard Relation>  (128) 
nan

>  <Standard Units>  (128) 
nan

>  <Standard Value>  (128) 
nan

>  <Assay ChEMBL ID>  (128) 
nan

>  <Assay Description>  (128) 
nan

>  <BAO Label>  (128) 
nan

$$$$

     RDKit          2D

 41 46  0  0  0  0  0  0  0  0999 V2000
    2.5981   -9.6073    0.0000 C   0  0  0  0  0  0  0  0  0  0  0  0
    2.5981   -8.1073    0.0000 C   0  0  0  0  0  0  0  0  0  0  0  0
    3.8971   -7.3573    0.0000 O   0  0  0  0  0  0  0  0  0  0  0  0
    1.2990   -7.3573    0.0000 C   0  0  0  0  0  0  0  0  0  0  0  0
   -0.0000   -8.1073    0.0000 C   0  0  0  0  0  0  0  0  0  0  0  0
   -1.2990   -7.3573    0.0000 C   0  0  0  0  0  0  0  0  0  0  0  0
   -1.2990   -5.8573    0.0000 C   0  0  0  0  0  0  0  0  0  0  0  0
   -0.0000   -5.1073    0.0000 C   0  0  0  0  0  0  0  0  0  0  0  0
   -0.0000   -3.6073    0.0000 C   0  0  0  0  0  0  0  0  0  0  0  0
    1.2135   -2.7256    0.0000 C   0  0  0  0  0  0  0  0  0  0  0  0
    0.7500   -1.2990    0.0000 C   0  0  0  0  0  0  0  0  0  0  0  0
    1.5000    0.0000    0.0000 N   0  0  0  0  0  0  0  0  0  0  0  0
    0.7500    1.2990    0.0000 C   0  0  0  0  0  0  0  0  0  0  0  0
   -0.7500    1.2990    0.0000 C   0  0  0  0  0  0  0  0  0  0  0  0
   -1.5000    0.0000    0.0000 C   0  0  0  0  0  0  0  0  0  0  0  0
   -3.0000    0.0000    0.0000 O   0  0  0  0  0  0  0  0  0  0  0  0
   -3.7500    1.2990    0.0000 C   0  0  0  0  0  0  0  0  0  0  0  0
   -3.0000    2.5981    0.0000 C   0  0  0  0  0  0  0  0  0  0  0  0
   -3.7500    3.8971    0.0000 C   0  0  0  0  0  0  0  0  0  0  0  0
   -5.2500    3.8971    0.0000 C   0  0  0  0  0  0  0  0  0  0  0  0
   -6.0000    5.1962    0.0000 N   0  0  0  0  0  0  0  0  0  0  0  0
   -5.2500    6.4952    0.0000 C   0  0  0  0  0  0  0  0  0  0  0  0
   -3.7500    6.4952    0.0000 O   0  0  0  0  0  0  0  0  0  0  0  0
   -6.0000    7.7942    0.0000 N   0  0  0  0  0  0  0  0  0  0  0  0
   -7.4918    7.9510    0.0000 C   0  0  0  0  0  0  0  0  0  0  0  0
   -7.8037    9.4182    0.0000 C   0  0  0  0  0  0  0  0  0  0  0  0
   -6.5046   10.1682    0.0000 N   0  0  0  0  0  0  0  0  0  0  0  0
   -6.3478   11.6600    0.0000 C   0  0  0  0  0  0  0  0  0  0  0  0
   -4.9775   12.2701    0.0000 C   0  0  0  0  0  0  0  0  0  0  0  0
   -4.8207   13.7619    0.0000 C   0  0  0  0  0  0  0  0  0  0  0  0
   -6.0342   14.6436    0.0000 C   0  0  0  0  0  0  0  0  0  0  0  0
   -7.4046   14.0335    0.0000 C   0  0  0  0  0  0  0  0  0  0  0  0
   -7.5613   12.5417    0.0000 C   0  0  0  0  0  0  0  0  0  0  0  0
   -5.3899    9.1645    0.0000 C   0  0  0  0  0  0  0  0  0  0  0  0
   -3.9227    9.4764    0.0000 O   0  0  0  0  0  0  0  0  0  0  0  0
   -6.0000    2.5981    0.0000 C   0  0  0  0  0  0  0  0  0  0  0  0
   -5.2500    1.2990    0.0000 C   0  0  0  0  0  0  0  0  0  0  0  0
   -6.0000    0.0000    0.0000 F   0  0  0  0  0  0  0  0  0  0  0  0
   -0.7500   -1.2990    0.0000 C   0  0  0  0  0  0  0  0  0  0  0  0
   -1.2135   -2.7256    0.0000 S   0  0  0  0  0  0  0  0  0  0  0  0
    1.2990   -5.8573    0.0000 C   0  0  0  0  0  0  0  0  0  0  0  0
  1  2  1  0
  2  3  2  0
  2  4  1  0
  4  5  2  0
  5  6  1  0
  6  7  2  0
  7  8  1  0
  8  9  1  0
  9 10  2  0
 10 11  1  0
 11 12  2  0
 12 13  1  0
 13 14  2  0
 14 15  1  0
 15 16  1  0
 16 17  1  0
 17 18  2  0
 18 19  1  0
 19 20  2  0
 20 21  1  0
 21 22  1  0
 22 23  2  0
 22 24  1  0
 24 25  1  0
 25 26  1  0
 26 27  1  0
 27 28  1  0
 28 29  2  0
 29 30  1  0
 30 31  2  0
 31 32  1  0
 32 33  2  0
 27 34  1  0
 34 35  2  0
 20 36  1  0
 36 37  2  0
 37 38  1  0
 15 39  2  0
 39 40  1  0
  8 41  2  0
 41  4  1  0
 40  9  1  0
 39 11  1  0
 37 17  1  0
 34 24  1  0
 33 28  1  0
M  END
>  <Compound_ID>  (129) 
CHEMBL448993

>  <Active>  (129) 
1.0

>  <Smiles>  (129) 
CC(=O)c1cccc(-c2cc3nccc(Oc4ccc(NC(=O)N5CCN(c6ccccc6)C5=O)cc4F)c3s2)c1

>  <canonical_smi>  (129) 
CC(=O)c1cccc(-c2cc3nccc(Oc4ccc(NC(=O)N5CCN(c6ccccc6)C5=O)cc4F)c3s2)c1

>  <Set>  (129) 
G2 active

>  <Set_type>  (129) 
Train

>  <MW>  (129) 
566.61

>  <HBD>  (129) 
1

>  <HBA>  (129) 
5

>  <NRB>  (129) 
6

>  <NR>  (129) 
6

>  <NAR>  (129) 
5

>  <PSA>  (129) 
91.84

>  <Standard Type>  (129) 
nan

>  <Standard Relation>  (129) 
nan

>  <Standard Units>  (129) 
nan

>  <Standard Value>  (129) 
nan

>  <Assay ChEMBL ID>  (129) 
nan

>  <Assay Description>  (129) 
nan

>  <BAO Label>  (129) 
nan

$$$$

     RDKit          2D

 40 44  0  0  0  0  0  0  0  0999 V2000
    3.0000   -5.1962    0.0000 C   0  0  0  0  0  0  0  0  0  0  0  0
    1.5000   -5.1962    0.0000 O   0  0  0  0  0  0  0  0  0  0  0  0
    0.7500   -3.8971    0.0000 C   0  0  0  0  0  0  0  0  0  0  0  0
    1.5000   -2.5981    0.0000 C   0  0  0  0  0  0  0  0  0  0  0  0
    0.7500   -1.2990    0.0000 C   0  0  0  0  0  0  0  0  0  0  0  0
    1.5000    0.0000    0.0000 N   0  0  0  0  0  0  0  0  0  0  0  0
    0.7500    1.2990    0.0000 C   0  0  0  0  0  0  0  0  0  0  0  0
   -0.7500    1.2990    0.0000 C   0  0  0  0  0  0  0  0  0  0  0  0
   -1.5000    0.0000    0.0000 C   0  0  0  0  0  0  0  0  0  0  0  0
   -3.0000    0.0000    0.0000 O   0  0  0  0  0  0  0  0  0  0  0  0
   -3.7500    1.2990    0.0000 C   0  0  0  0  0  0  0  0  0  0  0  0
   -3.0000    2.5981    0.0000 C   0  0  0  0  0  0  0  0  0  0  0  0
   -3.7500    3.8971    0.0000 C   0  0  0  0  0  0  0  0  0  0  0  0
   -5.2500    3.8971    0.0000 C   0  0  0  0  0  0  0  0  0  0  0  0
   -6.0000    5.1962    0.0000 N   0  0  0  0  0  0  0  0  0  0  0  0
   -5.2500    6.4952    0.0000 C   0  0  0  0  0  0  0  0  0  0  0  0
   -3.7500    6.4952    0.0000 O   0  0  0  0  0  0  0  0  0  0  0  0
   -6.0000    7.7942    0.0000 C   0  0  0  0  0  0  0  0  0  0  0  0
   -7.4918    7.9510    0.0000 C   0  0  0  0  0  0  0  0  0  0  0  0
   -7.8037    9.4182    0.0000 N   0  0  0  0  0  0  0  0  0  0  0  0
   -6.5046   10.1682    0.0000 N   0  0  0  0  0  0  0  0  0  0  0  0
   -6.3478   11.6600    0.0000 C   0  0  0  0  0  0  0  0  0  0  0  0
   -4.9775   12.2701    0.0000 C   0  0  0  0  0  0  0  0  0  0  0  0
   -4.8207   13.7619    0.0000 C   0  0  0  0  0  0  0  0  0  0  0  0
   -6.0342   14.6436    0.0000 C   0  0  0  0  0  0  0  0  0  0  0  0
   -7.4046   14.0335    0.0000 C   0  0  0  0  0  0  0  0  0  0  0  0
   -7.5613   12.5417    0.0000 C   0  0  0  0  0  0  0  0  0  0  0  0
   -5.3899    9.1645    0.0000 C   0  0  0  0  0  0  0  0  0  0  0  0
   -3.9227    9.4764    0.0000 C   0  0  0  0  0  0  0  0  0  0  0  0
   -2.4555    9.7883    0.0000 F   0  0  0  0  0  0  0  0  0  0  0  0
   -3.6108    8.0092    0.0000 F   0  0  0  0  0  0  0  0  0  0  0  0
   -4.2345   10.9436    0.0000 F   0  0  0  0  0  0  0  0  0  0  0  0
   -6.0000    2.5981    0.0000 C   0  0  0  0  0  0  0  0  0  0  0  0
   -5.2500    1.2990    0.0000 C   0  0  0  0  0  0  0  0  0  0  0  0
   -6.0000    0.0000    0.0000 F   0  0  0  0  0  0  0  0  0  0  0  0
   -0.7500   -1.2990    0.0000 C   0  0  0  0  0  0  0  0  0  0  0  0
   -1.5000   -2.5981    0.0000 C   0  0  0  0  0  0  0  0  0  0  0  0
   -0.7500   -3.8971    0.0000 C   0  0  0  0  0  0  0  0  0  0  0  0
   -1.5000   -5.1962    0.0000 O   0  0  0  0  0  0  0  0  0  0  0  0
   -3.0000   -5.1962    0.0000 C   0  0  0  0  0  0  0  0  0  0  0  0
  1  2  1  0
  2  3  1  0
  3  4  2  0
  4  5  1  0
  5  6  2  0
  6  7  1  0
  7  8  2  0
  8  9  1  0
  9 10  1  0
 10 11  1  0
 11 12  2  0
 12 13  1  0
 13 14  2  0
 14 15  1  0
 15 16  1  0
 16 17  2  0
 16 18  1  0
 18 19  1  0
 19 20  2  0
 20 21  1  0
 21 22  1  0
 22 23  2  0
 23 24  1  0
 24 25  2  0
 25 26  1  0
 26 27  2  0
 21 28  1  0
 28 29  1  0
 29 30  1  0
 29 31  1  0
 29 32  1  0
 14 33  1  0
 33 34  2  0
 34 35  1  0
  9 36  2  0
 36 37  1  0
 37 38  2  0
 38 39  1  0
 39 40  1  0
 38  3  1  0
 36  5  1  0
 34 11  1  0
 28 18  2  0
 27 22  1  0
M  END
>  <Compound_ID>  (130) 
CHEMBL1087984

>  <Active>  (130) 
1.0

>  <Smiles>  (130) 
COc1cc2nccc(Oc3ccc(NC(=O)c4cnn(-c5ccccc5)c4C(F)(F)F)cc3F)c2cc1OC

>  <canonical_smi>  (130) 
COc1cc2nccc(Oc3ccc(NC(=O)c4cnn(-c5ccccc5)c4C(F)(F)F)cc3F)c2cc1OC

>  <Set>  (130) 
G2 active

>  <Set_type>  (130) 
Train

>  <MW>  (130) 
552.48

>  <HBD>  (130) 
1

>  <HBA>  (130) 
6

>  <NRB>  (130) 
7

>  <NR>  (130) 
5

>  <NAR>  (130) 
5

>  <PSA>  (130) 
87.5

>  <Standard Type>  (130) 
nan

>  <Standard Relation>  (130) 
nan

>  <Standard Units>  (130) 
nan

>  <Standard Value>  (130) 
nan

>  <Assay ChEMBL ID>  (130) 
nan

>  <Assay Description>  (130) 
nan

>  <BAO Label>  (130) 
nan

$$$$

     RDKit          2D

 37 41  0  0  0  0  0  0  0  0999 V2000
    9.7500   -6.4952    0.0000 O   0  0  0  0  0  0  0  0  0  0  0  0
   10.5000   -5.1962    0.0000 C   0  0  0  0  0  0  0  0  0  0  0  0
   12.0000   -5.1962    0.0000 C   0  0  0  0  0  0  0  0  0  0  0  0
   12.7500   -6.4952    0.0000 C   0  0  0  0  0  0  0  0  0  0  0  0
   12.0000   -7.7942    0.0000 C   0  0  0  0  0  0  0  0  0  0  0  0
   12.7500   -9.0933    0.0000 C   0  0  0  0  0  0  0  0  0  0  0  0
   14.2500   -9.0933    0.0000 C   0  0  0  0  0  0  0  0  0  0  0  0
   15.0000  -10.3923    0.0000 F   0  0  0  0  0  0  0  0  0  0  0  0
   15.0000   -7.7942    0.0000 C   0  0  0  0  0  0  0  0  0  0  0  0
   14.2500   -6.4952    0.0000 C   0  0  0  0  0  0  0  0  0  0  0  0
    9.7500   -3.8971    0.0000 N   0  0  0  0  0  0  0  0  0  0  0  0
    8.2500   -3.8971    0.0000 C   0  0  0  0  0  0  0  0  0  0  0  0
    7.5000   -5.1962    0.0000 O   0  0  0  0  0  0  0  0  0  0  0  0
    7.5000   -2.5981    0.0000 N   0  0  0  0  0  0  0  0  0  0  0  0
    6.0000   -2.5981    0.0000 C   0  0  0  0  0  0  0  0  0  0  0  0
    5.2500   -1.2990    0.0000 C   0  0  0  0  0  0  0  0  0  0  0  0
    3.7500   -1.2990    0.0000 C   0  0  0  0  0  0  0  0  0  0  0  0
    3.0000   -2.5981    0.0000 C   0  0  0  0  0  0  0  0  0  0  0  0
    1.5000   -2.5981    0.0000 O   0  0  0  0  0  0  0  0  0  0  0  0
    0.7500   -1.2990    0.0000 C   0  0  0  0  0  0  0  0  0  0  0  0
    1.5000    0.0000    0.0000 N   0  0  0  0  0  0  0  0  0  0  0  0
    0.7500    1.2990    0.0000 C   0  0  0  0  0  0  0  0  0  0  0  0
   -0.7500    1.2990    0.0000 N   0  0  0  0  0  0  0  0  0  0  0  0
   -1.5000    0.0000    0.0000 N   0  0  0  0  0  0  0  0  0  0  0  0
   -2.9672   -0.3119    0.0000 C   0  0  0  0  0  0  0  0  0  0  0  0
   -3.1240   -1.8037    0.0000 C   0  0  0  0  0  0  0  0  0  0  0  0
   -1.7537   -2.4138    0.0000 C   0  0  0  0  0  0  0  0  0  0  0  0
   -1.4418   -3.8810    0.0000 C   0  0  0  0  0  0  0  0  0  0  0  0
   -2.5565   -4.8847    0.0000 C   0  0  0  0  0  0  0  0  0  0  0  0
   -2.2447   -6.3519    0.0000 C   0  0  0  0  0  0  0  0  0  0  0  0
   -0.8181   -6.8154    0.0000 C   0  0  0  0  0  0  0  0  0  0  0  0
    0.2966   -5.8117    0.0000 C   0  0  0  0  0  0  0  0  0  0  0  0
   -0.0152   -4.3445    0.0000 C   0  0  0  0  0  0  0  0  0  0  0  0
   -0.7500   -1.2990    0.0000 C   0  0  0  0  0  0  0  0  0  0  0  0
    3.7500   -3.8971    0.0000 C   0  0  0  0  0  0  0  0  0  0  0  0
    3.0000   -5.1962    0.0000 F   0  0  0  0  0  0  0  0  0  0  0  0
    5.2500   -3.8971    0.0000 C   0  0  0  0  0  0  0  0  0  0  0  0
  1  2  2  0
  2  3  1  0
  3  4  1  0
  4  5  2  0
  5  6  1  0
  6  7  2  0
  7  8  1  0
  7  9  1  0
  9 10  2  0
  2 11  1  0
 11 12  1  0
 12 13  2  0
 12 14  1  0
 14 15  1  0
 15 16  2  0
 16 17  1  0
 17 18  2  0
 18 19  1  0
 19 20  1  0
 20 21  2  0
 21 22  1  0
 22 23  2  0
 23 24  1  0
 24 25  1  0
 25 26  2  0
 26 27  1  0
 27 28  1  0
 28 29  2  0
 29 30  1  0
 30 31  2  0
 31 32  1  0
 32 33  2  0
 27 34  2  0
 18 35  1  0
 35 36  1  0
 35 37  2  0
 10  4  1  0
 37 15  1  0
 34 20  1  0
 34 24  1  0
 33 28  1  0
M  END
>  <Compound_ID>  (131) 
CHEMBL252213

>  <Active>  (131) 
1.0

>  <Smiles>  (131) 
O=C(Cc1ccc(F)cc1)NC(=O)Nc1ccc(Oc2ncnn3ccc(-c4ccccc4)c23)c(F)c1

>  <canonical_smi>  (131) 
O=C(Cc1ccc(F)cc1)NC(=O)Nc1ccc(Oc2ncnn3ccc(-c4ccccc4)c23)c(F)c1

>  <Set>  (131) 
G2 active

>  <Set_type>  (131) 
Train

>  <MW>  (131) 
499.48

>  <HBD>  (131) 
2

>  <HBA>  (131) 
5

>  <NRB>  (131) 
6

>  <NR>  (131) 
5

>  <NAR>  (131) 
5

>  <PSA>  (131) 
97.62

>  <Standard Type>  (131) 
nan

>  <Standard Relation>  (131) 
nan

>  <Standard Units>  (131) 
nan

>  <Standard Value>  (131) 
nan

>  <Assay ChEMBL ID>  (131) 
nan

>  <Assay Description>  (131) 
nan

>  <BAO Label>  (131) 
nan

$$$$

     RDKit          2D

 30 33  0  0  0  0  0  0  0  0999 V2000
   -7.0969    9.7066    0.0000 O   0  0  0  0  0  0  0  0  0  0  0  0
   -8.5234    9.2431    0.0000 C   0  0  0  0  0  0  0  0  0  0  0  0
   -8.8353    7.7759    0.0000 C   0  0  0  0  0  0  0  0  0  0  0  0
   -7.7206    6.7722    0.0000 C   0  0  0  0  0  0  0  0  0  0  0  0
   -6.2940    7.2357    0.0000 O   0  0  0  0  0  0  0  0  0  0  0  0
   -8.0325    5.3050    0.0000 N   0  0  0  0  0  0  0  0  0  0  0  0
   -6.9177    4.3013    0.0000 C   0  0  0  0  0  0  0  0  0  0  0  0
   -7.2296    2.8340    0.0000 C   0  0  0  0  0  0  0  0  0  0  0  0
   -6.1149    1.8303    0.0000 C   0  0  0  0  0  0  0  0  0  0  0  0
   -4.6883    2.2939    0.0000 C   0  0  0  0  0  0  0  0  0  0  0  0
   -3.5736    1.2902    0.0000 O   0  0  0  0  0  0  0  0  0  0  0  0
   -2.1470    1.7537    0.0000 C   0  0  0  0  0  0  0  0  0  0  0  0
   -1.8351    3.2209    0.0000 C   0  0  0  0  0  0  0  0  0  0  0  0
   -0.4086    3.6844    0.0000 C   0  0  0  0  0  0  0  0  0  0  0  0
    0.7062    2.6807    0.0000 N   0  0  0  0  0  0  0  0  0  0  0  0
    0.3943    1.2135    0.0000 C   0  0  0  0  0  0  0  0  0  0  0  0
    1.2760    0.0000    0.0000 C   0  0  0  0  0  0  0  0  0  0  0  0
    0.3943   -1.2135    0.0000 C   0  0  0  0  0  0  0  0  0  0  0  0
   -1.0323   -0.7500    0.0000 S   0  0  0  0  0  0  0  0  0  0  0  0
   -1.0323    0.7500    0.0000 C   0  0  0  0  0  0  0  0  0  0  0  0
   -4.3764    3.7611    0.0000 C   0  0  0  0  0  0  0  0  0  0  0  0
   -2.9499    4.2246    0.0000 F   0  0  0  0  0  0  0  0  0  0  0  0
   -5.4912    4.7648    0.0000 C   0  0  0  0  0  0  0  0  0  0  0  0
   -9.6382   10.2468    0.0000 N   0  0  0  0  0  0  0  0  0  0  0  0
   -9.3263   11.7140    0.0000 C   0  0  0  0  0  0  0  0  0  0  0  0
   -7.8997   12.1775    0.0000 C   0  0  0  0  0  0  0  0  0  0  0  0
   -7.5878   13.6448    0.0000 C   0  0  0  0  0  0  0  0  0  0  0  0
   -8.7026   14.6485    0.0000 C   0  0  0  0  0  0  0  0  0  0  0  0
  -10.1291   14.1849    0.0000 C   0  0  0  0  0  0  0  0  0  0  0  0
  -10.4410   12.7177    0.0000 C   0  0  0  0  0  0  0  0  0  0  0  0
  1  2  2  0
  2  3  1  0
  3  4  1  0
  4  5  2  0
  4  6  1  0
  6  7  1  0
  7  8  2  0
  8  9  1  0
  9 10  2  0
 10 11  1  0
 11 12  1  0
 12 13  2  0
 13 14  1  0
 14 15  2  0
 15 16  1  0
 16 17  1  0
 17 18  2  0
 18 19  1  0
 19 20  1  0
 10 21  1  0
 21 22  1  0
 21 23  2  0
  2 24  1  0
 24 25  1  0
 25 26  2  0
 26 27  1  0
 27 28  2  0
 28 29  1  0
 29 30  2  0
 23  7  1  0
 30 25  1  0
 20 12  1  0
 20 16  2  0
M  END
>  <Compound_ID>  (132) 
CHEMBL566621

>  <Active>  (132) 
1.0

>  <Smiles>  (132) 
O=C(CC(=O)Nc1ccc(Oc2ccnc3ccsc23)c(F)c1)Nc1ccccc1

>  <canonical_smi>  (132) 
O=C(CC(=O)Nc1ccc(Oc2ccnc3ccsc23)c(F)c1)Nc1ccccc1

>  <Set>  (132) 
G2 active

>  <Set_type>  (132) 
Train

>  <MW>  (132) 
421.45

>  <HBD>  (132) 
2

>  <HBA>  (132) 
4

>  <NRB>  (132) 
6

>  <NR>  (132) 
4

>  <NAR>  (132) 
4

>  <PSA>  (132) 
80.32

>  <Standard Type>  (132) 
nan

>  <Standard Relation>  (132) 
nan

>  <Standard Units>  (132) 
nan

>  <Standard Value>  (132) 
nan

>  <Assay ChEMBL ID>  (132) 
nan

>  <Assay Description>  (132) 
nan

>  <BAO Label>  (132) 
nan

$$$$

     RDKit          2D

 35 39  0  0  0  0  0  0  0  0999 V2000
  -10.5738    5.8451    0.0000 O   0  0  0  0  0  0  0  0  0  0  0  0
  -10.2619    7.3123    0.0000 C   0  0  0  0  0  0  0  0  0  0  0  0
  -11.3766    8.3160    0.0000 N   0  0  0  0  0  0  0  0  0  0  0  0
  -12.8032    7.8525    0.0000 C   0  0  0  0  0  0  0  0  0  0  0  0
  -13.1151    6.3853    0.0000 C   0  0  0  0  0  0  0  0  0  0  0  0
  -14.5416    5.9218    0.0000 C   0  0  0  0  0  0  0  0  0  0  0  0
  -15.6564    6.9255    0.0000 C   0  0  0  0  0  0  0  0  0  0  0  0
  -17.0829    6.4619    0.0000 F   0  0  0  0  0  0  0  0  0  0  0  0
  -15.3445    8.3927    0.0000 C   0  0  0  0  0  0  0  0  0  0  0  0
  -13.9179    8.8562    0.0000 C   0  0  0  0  0  0  0  0  0  0  0  0
  -13.6060   10.3234    0.0000 F   0  0  0  0  0  0  0  0  0  0  0  0
   -8.8353    7.7759    0.0000 C   0  0  0  0  0  0  0  0  0  0  0  0
   -8.5234    9.2431    0.0000 C   0  0  0  0  0  0  0  0  0  0  0  0
   -7.0969    9.7066    0.0000 N   0  0  0  0  0  0  0  0  0  0  0  0
   -5.9821    8.7029    0.0000 C   0  0  0  0  0  0  0  0  0  0  0  0
   -6.2940    7.2357    0.0000 C   0  0  0  0  0  0  0  0  0  0  0  0
   -7.7206    6.7722    0.0000 C   0  0  0  0  0  0  0  0  0  0  0  0
   -8.0325    5.3050    0.0000 N   0  0  0  0  0  0  0  0  0  0  0  0
   -6.9177    4.3013    0.0000 C   0  0  0  0  0  0  0  0  0  0  0  0
   -7.2296    2.8340    0.0000 C   0  0  0  0  0  0  0  0  0  0  0  0
   -6.1149    1.8303    0.0000 C   0  0  0  0  0  0  0  0  0  0  0  0
   -4.6883    2.2939    0.0000 C   0  0  0  0  0  0  0  0  0  0  0  0
   -3.5736    1.2902    0.0000 O   0  0  0  0  0  0  0  0  0  0  0  0
   -3.8855   -0.1771    0.0000 C   0  0  0  0  0  0  0  0  0  0  0  0
   -5.3120   -0.6406    0.0000 C   0  0  0  0  0  0  0  0  0  0  0  0
   -5.6239   -2.1078    0.0000 C   0  0  0  0  0  0  0  0  0  0  0  0
   -4.5092   -3.1115    0.0000 N   0  0  0  0  0  0  0  0  0  0  0  0
   -3.0826   -2.6480    0.0000 C   0  0  0  0  0  0  0  0  0  0  0  0
   -1.7836   -3.3980    0.0000 N   0  0  0  0  0  0  0  0  0  0  0  0
   -0.6689   -2.3943    0.0000 C   0  0  0  0  0  0  0  0  0  0  0  0
   -1.2790   -1.0240    0.0000 C   0  0  0  0  0  0  0  0  0  0  0  0
   -2.7707   -1.1807    0.0000 C   0  0  0  0  0  0  0  0  0  0  0  0
   -4.3764    3.7611    0.0000 C   0  0  0  0  0  0  0  0  0  0  0  0
   -2.9499    4.2246    0.0000 F   0  0  0  0  0  0  0  0  0  0  0  0
   -5.4912    4.7648    0.0000 C   0  0  0  0  0  0  0  0  0  0  0  0
  1  2  2  0
  2  3  1  0
  3  4  1  0
  4  5  2  0
  5  6  1  0
  6  7  2  0
  7  8  1  0
  7  9  1  0
  9 10  2  0
 10 11  1  0
  2 12  1  0
 12 13  2  0
 13 14  1  0
 14 15  2  0
 15 16  1  0
 16 17  2  0
 17 18  1  0
 18 19  1  0
 19 20  2  0
 20 21  1  0
 21 22  2  0
 22 23  1  0
 23 24  1  0
 24 25  2  0
 25 26  1  0
 26 27  2  0
 27 28  1  0
 28 29  1  0
 29 30  1  0
 30 31  2  0
 31 32  1  0
 22 33  1  0
 33 34  1  0
 33 35  2  0
 10  4  1  0
 17 12  1  0
 35 19  1  0
 32 24  1  0
 32 28  2  0
M  END
>  <Compound_ID>  (133) 
CHEMBL1098213

>  <Active>  (133) 
1.0

>  <Smiles>  (133) 
O=C(Nc1ccc(F)cc1F)c1cnccc1Nc1ccc(Oc2ccnc3[nH]ccc23)c(F)c1

>  <canonical_smi>  (133) 
O=C(Nc1ccc(F)cc1F)c1cnccc1Nc1ccc(Oc2ccnc3[nH]ccc23)c(F)c1

>  <Set>  (133) 
G2 active

>  <Set_type>  (133) 
Train

>  <MW>  (133) 
475.43

>  <HBD>  (133) 
3

>  <HBA>  (133) 
5

>  <NRB>  (133) 
6

>  <NR>  (133) 
5

>  <NAR>  (133) 
5

>  <PSA>  (133) 
91.93

>  <Standard Type>  (133) 
nan

>  <Standard Relation>  (133) 
nan

>  <Standard Units>  (133) 
nan

>  <Standard Value>  (133) 
nan

>  <Assay ChEMBL ID>  (133) 
nan

>  <Assay Description>  (133) 
nan

>  <BAO Label>  (133) 
nan

$$$$

     RDKit          2D

 40 45  0  0  0  0  0  0  0  0999 V2000
   -3.1235   -8.4723    0.0000 C   0  0  0  0  0  0  0  0  0  0  0  0
   -1.6317   -8.6291    0.0000 C   0  0  0  0  0  0  0  0  0  0  0  0
   -1.0216   -9.9994    0.0000 C   0  0  0  0  0  0  0  0  0  0  0  0
   -0.7500   -7.4156    0.0000 N   0  0  0  0  0  0  0  0  0  0  0  0
    0.7500   -7.4156    0.0000 C   0  0  0  0  0  0  0  0  0  0  0  0
    1.2135   -5.9890    0.0000 N   0  0  0  0  0  0  0  0  0  0  0  0
   -0.0000   -5.1073    0.0000 C   0  0  0  0  0  0  0  0  0  0  0  0
   -0.0000   -3.6073    0.0000 C   0  0  0  0  0  0  0  0  0  0  0  0
    1.2135   -2.7256    0.0000 C   0  0  0  0  0  0  0  0  0  0  0  0
    0.7500   -1.2990    0.0000 C   0  0  0  0  0  0  0  0  0  0  0  0
    1.5000    0.0000    0.0000 N   0  0  0  0  0  0  0  0  0  0  0  0
    0.7500    1.2990    0.0000 C   0  0  0  0  0  0  0  0  0  0  0  0
   -0.7500    1.2990    0.0000 C   0  0  0  0  0  0  0  0  0  0  0  0
   -1.5000    0.0000    0.0000 C   0  0  0  0  0  0  0  0  0  0  0  0
   -3.0000    0.0000    0.0000 O   0  0  0  0  0  0  0  0  0  0  0  0
   -3.7500    1.2990    0.0000 C   0  0  0  0  0  0  0  0  0  0  0  0
   -3.0000    2.5981    0.0000 C   0  0  0  0  0  0  0  0  0  0  0  0
   -3.7500    3.8971    0.0000 C   0  0  0  0  0  0  0  0  0  0  0  0
   -5.2500    3.8971    0.0000 C   0  0  0  0  0  0  0  0  0  0  0  0
   -6.0000    5.1962    0.0000 N   0  0  0  0  0  0  0  0  0  0  0  0
   -5.2500    6.4952    0.0000 C   0  0  0  0  0  0  0  0  0  0  0  0
   -3.7500    6.4952    0.0000 O   0  0  0  0  0  0  0  0  0  0  0  0
   -6.0000    7.7942    0.0000 C   0  0  0  0  0  0  0  0  0  0  0  0
   -7.4918    7.9510    0.0000 C   0  0  0  0  0  0  0  0  0  0  0  0
   -7.8037    9.4182    0.0000 C   0  0  0  0  0  0  0  0  0  0  0  0
   -9.1740   10.0283    0.0000 O   0  0  0  0  0  0  0  0  0  0  0  0
   -6.5046   10.1682    0.0000 N   0  0  0  0  0  0  0  0  0  0  0  0
   -6.3478   11.6600    0.0000 C   0  0  0  0  0  0  0  0  0  0  0  0
   -4.9775   12.2701    0.0000 C   0  0  0  0  0  0  0  0  0  0  0  0
   -4.8207   13.7619    0.0000 C   0  0  0  0  0  0  0  0  0  0  0  0
   -6.0342   14.6436    0.0000 C   0  0  0  0  0  0  0  0  0  0  0  0
   -7.4046   14.0335    0.0000 C   0  0  0  0  0  0  0  0  0  0  0  0
   -7.5613   12.5417    0.0000 C   0  0  0  0  0  0  0  0  0  0  0  0
   -5.3899    9.1645    0.0000 C   0  0  0  0  0  0  0  0  0  0  0  0
   -6.0000    2.5981    0.0000 C   0  0  0  0  0  0  0  0  0  0  0  0
   -5.2500    1.2990    0.0000 C   0  0  0  0  0  0  0  0  0  0  0  0
   -6.0000    0.0000    0.0000 F   0  0  0  0  0  0  0  0  0  0  0  0
   -0.7500   -1.2990    0.0000 C   0  0  0  0  0  0  0  0  0  0  0  0
   -1.2135   -2.7256    0.0000 S   0  0  0  0  0  0  0  0  0  0  0  0
   -1.2135   -5.9890    0.0000 C   0  0  0  0  0  0  0  0  0  0  0  0
  1  2  1  0
  2  3  1  0
  2  4  1  0
  4  5  1  0
  5  6  2  0
  6  7  1  0
  7  8  1  0
  8  9  2  0
  9 10  1  0
 10 11  2  0
 11 12  1  0
 12 13  2  0
 13 14  1  0
 14 15  1  0
 15 16  1  0
 16 17  2  0
 17 18  1  0
 18 19  2  0
 19 20  1  0
 20 21  1  0
 21 22  2  0
 21 23  1  0
 23 24  1  0
 24 25  1  0
 25 26  2  0
 25 27  1  0
 27 28  1  0
 28 29  2  0
 29 30  1  0
 30 31  2  0
 31 32  1  0
 32 33  2  0
 27 34  1  0
 19 35  1  0
 35 36  2  0
 36 37  1  0
 14 38  2  0
 38 39  1  0
  7 40  2  0
 40  4  1  0
 39  8  1  0
 38 10  1  0
 36 16  1  0
 34 23  1  0
 33 28  1  0
M  END
>  <Compound_ID>  (134) 
CHEMBL462023

>  <Active>  (134) 
1.0

>  <Smiles>  (134) 
CC(C)n1cnc(-c2cc3nccc(Oc4ccc(NC(=O)C5CC(=O)N(c6ccccc6)C5)cc4F)c3s2)c1

>  <canonical_smi>  (134) 
CC(C)n1cnc(-c2cc3nccc(Oc4ccc(NC(=O)C5CC(=O)N(c6ccccc6)C5)cc4F)c3s2)c1

>  <Set>  (134) 
G2 active

>  <Set_type>  (134) 
Train

>  <MW>  (134) 
555.64

>  <HBD>  (134) 
1

>  <HBA>  (134) 
5

>  <NRB>  (134) 
7

>  <NR>  (134) 
6

>  <NAR>  (134) 
5

>  <PSA>  (134) 
89.35

>  <Standard Type>  (134) 
nan

>  <Standard Relation>  (134) 
nan

>  <Standard Units>  (134) 
nan

>  <Standard Value>  (134) 
nan

>  <Assay ChEMBL ID>  (134) 
nan

>  <Assay Description>  (134) 
nan

>  <BAO Label>  (134) 
nan

$$$$

     RDKit          2D

 32 35  0  0  0  0  0  0  0  0999 V2000
    3.7500   -6.4952    0.0000 C   0  0  0  0  0  0  0  0  0  0  0  0
    3.0000   -5.1962    0.0000 N   0  0  0  0  0  0  0  0  0  0  0  0
    1.5000   -5.1962    0.0000 C   0  0  0  0  0  0  0  0  0  0  0  0
    0.7500   -3.8971    0.0000 C   0  0  0  0  0  0  0  0  0  0  0  0
    1.5000   -2.5981    0.0000 N   0  0  0  0  0  0  0  0  0  0  0  0
    0.7500   -1.2990    0.0000 C   0  0  0  0  0  0  0  0  0  0  0  0
    1.5000    0.0000    0.0000 C   0  0  0  0  0  0  0  0  0  0  0  0
    0.7500    1.2990    0.0000 N   0  0  0  0  0  0  0  0  0  0  0  0
   -0.7500    1.2990    0.0000 C   0  0  0  0  0  0  0  0  0  0  0  0
   -1.5000    2.5981    0.0000 C   0  0  0  0  0  0  0  0  0  0  0  0
   -3.0000    2.5981    0.0000 C   0  0  0  0  0  0  0  0  0  0  0  0
   -3.7500    3.8971    0.0000 C   0  0  0  0  0  0  0  0  0  0  0  0
   -4.5000    5.1962    0.0000 F   0  0  0  0  0  0  0  0  0  0  0  0
   -2.4510    4.6471    0.0000 F   0  0  0  0  0  0  0  0  0  0  0  0
   -5.0490    3.1471    0.0000 F   0  0  0  0  0  0  0  0  0  0  0  0
   -3.7500    1.2990    0.0000 C   0  0  0  0  0  0  0  0  0  0  0  0
   -3.0000    0.0000    0.0000 C   0  0  0  0  0  0  0  0  0  0  0  0
   -3.7500   -1.2990    0.0000 O   0  0  0  0  0  0  0  0  0  0  0  0
   -5.2500   -1.2990    0.0000 C   0  0  0  0  0  0  0  0  0  0  0  0
   -6.0000   -2.5981    0.0000 C   0  0  0  0  0  0  0  0  0  0  0  0
   -7.5000   -2.5981    0.0000 C   0  0  0  0  0  0  0  0  0  0  0  0
   -8.2500   -3.8971    0.0000 C   0  0  0  0  0  0  0  0  0  0  0  0
   -7.5000   -5.1962    0.0000 C   0  0  0  0  0  0  0  0  0  0  0  0
   -6.0000   -5.1962    0.0000 C   0  0  0  0  0  0  0  0  0  0  0  0
   -5.2500   -6.4952    0.0000 N   0  0  0  0  0  4  0  0  0  0  0  0
   -3.7500   -6.4952    0.0000 O   0  0  0  0  0  0  0  0  0  0  0  0
   -6.0000   -7.7942    0.0000 O   0  0  0  0  0  1  0  0  0  0  0  0
   -5.2500   -3.8971    0.0000 C   0  0  0  0  0  0  0  0  0  0  0  0
   -1.5000    0.0000    0.0000 C   0  0  0  0  0  0  0  0  0  0  0  0
   -0.7500   -1.2990    0.0000 N   0  0  0  0  0  0  0  0  0  0  0  0
    3.0000   -2.5981    0.0000 C   0  0  0  0  0  0  0  0  0  0  0  0
    3.7500   -3.8971    0.0000 C   0  0  0  0  0  0  0  0  0  0  0  0
  1  2  1  0
  2  3  1  0
  3  4  1  0
  4  5  1  0
  5  6  1  0
  6  7  2  0
  7  8  1  0
  8  9  2  0
  9 10  1  0
 10 11  2  0
 11 12  1  0
 12 13  1  0
 12 14  1  0
 12 15  1  0
 11 16  1  0
 16 17  2  0
 17 18  1  0
 18 19  1  0
 19 20  1  0
 20 21  2  0
 21 22  1  0
 22 23  2  0
 23 24  1  0
 24 25  1  0
 25 26  2  0
 25 27  1  0
 24 28  2  0
 17 29  1  0
 29 30  2  0
  5 31  1  0
 31 32  1  0
 32  2  1  0
 30  6  1  0
 29  9  1  0
 28 20  1  0
M  CHG  2  25   1  27  -1
M  END
>  <Compound_ID>  (135) 
CHEMBL465791

>  <Active>  (135) 
1.0

>  <Smiles>  (135) 
CN1CCN(c2cnc3cc(C(F)(F)F)cc(OCc4cccc([N+](=O)[O-])c4)c3n2)CC1

>  <canonical_smi>  (135) 
CN1CCN(c2cnc3cc(C(F)(F)F)cc(OCc4cccc([N+](=O)[O-])c4)c3n2)CC1

>  <Set>  (135) 
G2 active

>  <Set_type>  (135) 
Train

>  <MW>  (135) 
447.42

>  <HBD>  (135) 
0

>  <HBA>  (135) 
7

>  <NRB>  (135) 
5

>  <NR>  (135) 
4

>  <NAR>  (135) 
3

>  <PSA>  (135) 
84.63

>  <Standard Type>  (135) 
nan

>  <Standard Relation>  (135) 
nan

>  <Standard Units>  (135) 
nan

>  <Standard Value>  (135) 
nan

>  <Assay ChEMBL ID>  (135) 
nan

>  <Assay Description>  (135) 
nan

>  <BAO Label>  (135) 
nan

$$$$

     RDKit          2D

 32 36  0  0  0  0  0  0  0  0999 V2000
    3.7500   -6.4952    0.0000 C   0  0  0  0  0  0  0  0  0  0  0  0
    3.0000   -5.1962    0.0000 N   0  0  0  0  0  0  0  0  0  0  0  0
    1.5000   -5.1962    0.0000 C   0  0  0  0  0  0  0  0  0  0  0  0
    0.7500   -3.8971    0.0000 C   0  0  0  0  0  0  0  0  0  0  0  0
    1.5000   -2.5981    0.0000 N   0  0  0  0  0  0  0  0  0  0  0  0
    0.7500   -1.2990    0.0000 C   0  0  0  0  0  0  0  0  0  0  0  0
    1.5000    0.0000    0.0000 C   0  0  0  0  0  0  0  0  0  0  0  0
    0.7500    1.2990    0.0000 N   0  0  0  0  0  0  0  0  0  0  0  0
   -0.7500    1.2990    0.0000 C   0  0  0  0  0  0  0  0  0  0  0  0
   -1.5000    2.5981    0.0000 C   0  0  0  0  0  0  0  0  0  0  0  0
   -3.0000    2.5981    0.0000 C   0  0  0  0  0  0  0  0  0  0  0  0
   -3.7500    3.8971    0.0000 C   0  0  0  0  0  0  0  0  0  0  0  0
   -4.5000    5.1962    0.0000 F   0  0  0  0  0  0  0  0  0  0  0  0
   -2.4510    4.6471    0.0000 F   0  0  0  0  0  0  0  0  0  0  0  0
   -5.0490    3.1471    0.0000 F   0  0  0  0  0  0  0  0  0  0  0  0
   -3.7500    1.2990    0.0000 C   0  0  0  0  0  0  0  0  0  0  0  0
   -3.0000    0.0000    0.0000 C   0  0  0  0  0  0  0  0  0  0  0  0
   -3.7500   -1.2990    0.0000 N   0  0  0  0  0  0  0  0  0  0  0  0
   -5.2500   -1.2990    0.0000 C   0  0  0  0  0  0  0  0  0  0  0  0
   -6.0000   -2.5981    0.0000 C   0  0  0  0  0  0  0  0  0  0  0  0
   -5.2500   -3.8971    0.0000 C   0  0  0  0  0  0  0  0  0  0  0  0
   -6.0000   -5.1962    0.0000 C   0  0  0  0  0  0  0  0  0  0  0  0
   -7.5000   -5.1962    0.0000 C   0  0  0  0  0  0  0  0  0  0  0  0
   -8.5037   -6.3109    0.0000 N   0  0  0  0  0  0  0  0  0  0  0  0
   -9.8740   -5.7008    0.0000 O   0  0  0  0  0  0  0  0  0  0  0  0
   -9.7172   -4.2090    0.0000 N   0  0  0  0  0  0  0  0  0  0  0  0
   -8.2500   -3.8971    0.0000 C   0  0  0  0  0  0  0  0  0  0  0  0
   -7.5000   -2.5981    0.0000 C   0  0  0  0  0  0  0  0  0  0  0  0
   -1.5000    0.0000    0.0000 C   0  0  0  0  0  0  0  0  0  0  0  0
   -0.7500   -1.2990    0.0000 N   0  0  0  0  0  0  0  0  0  0  0  0
    3.0000   -2.5981    0.0000 C   0  0  0  0  0  0  0  0  0  0  0  0
    3.7500   -3.8971    0.0000 C   0  0  0  0  0  0  0  0  0  0  0  0
  1  2  1  0
  2  3  1  0
  3  4  1  0
  4  5  1  0
  5  6  1  0
  6  7  2  0
  7  8  1  0
  8  9  2  0
  9 10  1  0
 10 11  2  0
 11 12  1  0
 12 13  1  0
 12 14  1  0
 12 15  1  0
 11 16  1  0
 16 17  2  0
 17 18  1  0
 18 19  1  0
 19 20  1  0
 20 21  1  0
 21 22  2  0
 22 23  1  0
 23 24  2  0
 24 25  1  0
 25 26  1  0
 26 27  2  0
 27 28  1  0
 17 29  1  0
 29 30  2  0
  5 31  1  0
 31 32  1  0
 32  2  1  0
 30  6  1  0
 29  9  1  0
 28 20  2  0
 27 23  1  0
M  END
>  <Compound_ID>  (136) 
CHEMBL456456

>  <Active>  (136) 
1.0

>  <Smiles>  (136) 
CN1CCN(c2cnc3cc(C(F)(F)F)cc(NCc4ccc5nonc5c4)c3n2)CC1

>  <canonical_smi>  (136) 
CN1CCN(c2cnc3cc(C(F)(F)F)cc(NCc4ccc5nonc5c4)c3n2)CC1

>  <Set>  (136) 
G2 active

>  <Set_type>  (136) 
Train

>  <MW>  (136) 
443.43

>  <HBD>  (136) 
1

>  <HBA>  (136) 
8

>  <NRB>  (136) 
4

>  <NR>  (136) 
5

>  <NAR>  (136) 
4

>  <PSA>  (136) 
83.21

>  <Standard Type>  (136) 
nan

>  <Standard Relation>  (136) 
nan

>  <Standard Units>  (136) 
nan

>  <Standard Value>  (136) 
nan

>  <Assay ChEMBL ID>  (136) 
nan

>  <Assay Description>  (136) 
nan

>  <BAO Label>  (136) 
nan

$$$$

     RDKit          2D

 31 35  0  0  0  0  0  0  0  0999 V2000
    3.7500   -6.4952    0.0000 C   0  0  0  0  0  0  0  0  0  0  0  0
    3.0000   -5.1962    0.0000 N   0  0  0  0  0  0  0  0  0  0  0  0
    1.5000   -5.1962    0.0000 C   0  0  0  0  0  0  0  0  0  0  0  0
    0.7500   -3.8971    0.0000 C   0  0  0  0  0  0  0  0  0  0  0  0
    1.5000   -2.5981    0.0000 N   0  0  0  0  0  0  0  0  0  0  0  0
    0.7500   -1.2990    0.0000 C   0  0  0  0  0  0  0  0  0  0  0  0
    1.5000    0.0000    0.0000 C   0  0  0  0  0  0  0  0  0  0  0  0
    0.7500    1.2990    0.0000 N   0  0  0  0  0  0  0  0  0  0  0  0
   -0.7500    1.2990    0.0000 C   0  0  0  0  0  0  0  0  0  0  0  0
   -1.5000    2.5981    0.0000 C   0  0  0  0  0  0  0  0  0  0  0  0
   -3.0000    2.5981    0.0000 C   0  0  0  0  0  0  0  0  0  0  0  0
   -3.7500    3.8971    0.0000 C   0  0  0  0  0  0  0  0  0  0  0  0
   -4.5000    5.1962    0.0000 F   0  0  0  0  0  0  0  0  0  0  0  0
   -2.4510    4.6471    0.0000 F   0  0  0  0  0  0  0  0  0  0  0  0
   -5.0490    3.1471    0.0000 F   0  0  0  0  0  0  0  0  0  0  0  0
   -3.7500    1.2990    0.0000 C   0  0  0  0  0  0  0  0  0  0  0  0
   -3.0000    0.0000    0.0000 C   0  0  0  0  0  0  0  0  0  0  0  0
   -3.7500   -1.2990    0.0000 C   0  0  0  0  0  0  0  0  0  0  0  0
   -3.0000   -2.5981    0.0000 C   0  0  0  0  0  0  0  0  0  0  0  0
   -3.7500   -3.8971    0.0000 C   0  0  0  0  0  0  0  0  0  0  0  0
   -5.2500   -3.8971    0.0000 C   0  0  0  0  0  0  0  0  0  0  0  0
   -6.2537   -5.0118    0.0000 N   0  0  0  0  0  0  0  0  0  0  0  0
   -7.6240   -4.4017    0.0000 C   0  0  0  0  0  0  0  0  0  0  0  0
   -8.9231   -5.1517    0.0000 O   0  0  0  0  0  0  0  0  0  0  0  0
   -7.4672   -2.9099    0.0000 N   0  0  0  0  0  0  0  0  0  0  0  0
   -6.0000   -2.5981    0.0000 C   0  0  0  0  0  0  0  0  0  0  0  0
   -5.2500   -1.2990    0.0000 C   0  0  0  0  0  0  0  0  0  0  0  0
   -1.5000    0.0000    0.0000 C   0  0  0  0  0  0  0  0  0  0  0  0
   -0.7500   -1.2990    0.0000 N   0  0  0  0  0  0  0  0  0  0  0  0
    3.0000   -2.5981    0.0000 C   0  0  0  0  0  0  0  0  0  0  0  0
    3.7500   -3.8971    0.0000 C   0  0  0  0  0  0  0  0  0  0  0  0
  1  2  1  0
  2  3  1  0
  3  4  1  0
  4  5  1  0
  5  6  1  0
  6  7  2  0
  7  8  1  0
  8  9  2  0
  9 10  1  0
 10 11  2  0
 11 12  1  0
 12 13  1  0
 12 14  1  0
 12 15  1  0
 11 16  1  0
 16 17  2  0
 17 18  1  0
 18 19  2  0
 19 20  1  0
 20 21  2  0
 21 22  1  0
 22 23  1  0
 23 24  2  0
 23 25  1  0
 25 26  1  0
 26 27  2  0
 17 28  1  0
 28 29  2  0
  5 30  1  0
 30 31  1  0
 31  2  1  0
 29  6  1  0
 28  9  1  0
 27 18  1  0
 26 21  1  0
M  END
>  <Compound_ID>  (137) 
CHEMBL511592

>  <Active>  (137) 
1.0

>  <Smiles>  (137) 
CN1CCN(c2cnc3cc(C(F)(F)F)cc(-c4ccc5[nH]c(=O)[nH]c5c4)c3n2)CC1

>  <canonical_smi>  (137) 
CN1CCN(c2cnc3cc(C(F)(F)F)cc(-c4ccc5[nH]c(=O)[nH]c5c4)c3n2)CC1

>  <Set>  (137) 
G2 active

>  <Set_type>  (137) 
Train

>  <MW>  (137) 
428.42

>  <HBD>  (137) 
2

>  <HBA>  (137) 
5

>  <NRB>  (137) 
2

>  <NR>  (137) 
5

>  <NAR>  (137) 
4

>  <PSA>  (137) 
80.91

>  <Standard Type>  (137) 
nan

>  <Standard Relation>  (137) 
nan

>  <Standard Units>  (137) 
nan

>  <Standard Value>  (137) 
nan

>  <Assay ChEMBL ID>  (137) 
nan

>  <Assay Description>  (137) 
nan

>  <BAO Label>  (137) 
nan

$$$$

     RDKit          2D

 32 36  0  0  0  0  0  0  0  0999 V2000
   -6.2940    7.2357    0.0000 O   0  0  0  0  0  0  0  0  0  0  0  0
   -7.7206    6.7722    0.0000 C   0  0  0  0  0  0  0  0  0  0  0  0
   -8.0325    5.3050    0.0000 N   0  0  0  0  0  0  0  0  0  0  0  0
   -6.9177    4.3013    0.0000 C   0  0  0  0  0  0  0  0  0  0  0  0
   -7.2296    2.8340    0.0000 C   0  0  0  0  0  0  0  0  0  0  0  0
   -6.1149    1.8303    0.0000 C   0  0  0  0  0  0  0  0  0  0  0  0
   -4.6883    2.2939    0.0000 C   0  0  0  0  0  0  0  0  0  0  0  0
   -3.5736    1.2902    0.0000 O   0  0  0  0  0  0  0  0  0  0  0  0
   -2.1470    1.7537    0.0000 C   0  0  0  0  0  0  0  0  0  0  0  0
   -1.8351    3.2209    0.0000 C   0  0  0  0  0  0  0  0  0  0  0  0
   -0.4086    3.6844    0.0000 C   0  0  0  0  0  0  0  0  0  0  0  0
    0.7062    2.6807    0.0000 N   0  0  0  0  0  0  0  0  0  0  0  0
    0.3943    1.2135    0.0000 C   0  0  0  0  0  0  0  0  0  0  0  0
    1.2760    0.0000    0.0000 N   0  0  0  0  0  0  0  0  0  0  0  0
    0.3943   -1.2135    0.0000 C   0  0  0  0  0  0  0  0  0  0  0  0
   -1.0323   -0.7500    0.0000 C   0  0  0  0  0  0  0  0  0  0  0  0
   -1.0323    0.7500    0.0000 C   0  0  0  0  0  0  0  0  0  0  0  0
   -4.3764    3.7611    0.0000 C   0  0  0  0  0  0  0  0  0  0  0  0
   -2.9499    4.2246    0.0000 F   0  0  0  0  0  0  0  0  0  0  0  0
   -5.4912    4.7648    0.0000 C   0  0  0  0  0  0  0  0  0  0  0  0
   -8.8353    7.7759    0.0000 C   0  0  0  0  0  0  0  0  0  0  0  0
   -8.5234    9.2431    0.0000 C   0  0  0  0  0  0  0  0  0  0  0  0
   -9.6382   10.2468    0.0000 C   0  0  0  0  0  0  0  0  0  0  0  0
  -11.0647    9.7833    0.0000 C   0  0  0  0  0  0  0  0  0  0  0  0
  -11.3766    8.3160    0.0000 C   0  0  0  0  0  0  0  0  0  0  0  0
  -12.8032    7.8525    0.0000 C   0  0  0  0  0  0  0  0  0  0  0  0
  -13.9179    8.8562    0.0000 C   0  0  0  0  0  0  0  0  0  0  0  0
  -15.3445    8.3927    0.0000 C   0  0  0  0  0  0  0  0  0  0  0  0
  -15.6564    6.9255    0.0000 C   0  0  0  0  0  0  0  0  0  0  0  0
  -14.5416    5.9218    0.0000 C   0  0  0  0  0  0  0  0  0  0  0  0
  -13.1151    6.3853    0.0000 C   0  0  0  0  0  0  0  0  0  0  0  0
  -10.2619    7.3123    0.0000 N   0  0  0  0  0  0  0  0  0  0  0  0
  1  2  2  0
  2  3  1  0
  3  4  1  0
  4  5  2  0
  5  6  1  0
  6  7  2  0
  7  8  1  0
  8  9  1  0
  9 10  2  0
 10 11  1  0
 11 12  2  0
 12 13  1  0
 13 14  1  0
 14 15  1  0
 15 16  2  0
 16 17  1  0
  7 18  1  0
 18 19  1  0
 18 20  2  0
  2 21  1  0
 21 22  2  0
 22 23  1  0
 23 24  2  0
 24 25  1  0
 25 26  1  0
 26 27  2  0
 27 28  1  0
 28 29  2  0
 29 30  1  0
 30 31  2  0
 25 32  2  0
 20  4  1  0
 32 21  1  0
 17  9  1  0
 31 26  1  0
 17 13  2  0
M  END
>  <Compound_ID>  (138) 
CHEMBL508403

>  <Active>  (138) 
1.0

>  <Smiles>  (138) 
O=C(Nc1ccc(Oc2ccnc3[nH]ccc23)c(F)c1)c1cccc(-c2ccccc2)n1

>  <canonical_smi>  (138) 
O=C(Nc1ccc(Oc2ccnc3[nH]ccc23)c(F)c1)c1cccc(-c2ccccc2)n1

>  <Set>  (138) 
G2 active

>  <Set_type>  (138) 
Train

>  <MW>  (138) 
424.44

>  <HBD>  (138) 
2

>  <HBA>  (138) 
4

>  <NRB>  (138) 
5

>  <NR>  (138) 
5

>  <NAR>  (138) 
5

>  <PSA>  (138) 
79.9

>  <Standard Type>  (138) 
nan

>  <Standard Relation>  (138) 
nan

>  <Standard Units>  (138) 
nan

>  <Standard Value>  (138) 
nan

>  <Assay ChEMBL ID>  (138) 
nan

>  <Assay Description>  (138) 
nan

>  <BAO Label>  (138) 
nan

$$$$

     RDKit          2D

 33 36  0  0  0  0  0  0  0  0999 V2000
    3.0000   -5.1962    0.0000 C   0  0  0  0  0  0  0  0  0  0  0  0
    1.5000   -5.1962    0.0000 O   0  0  0  0  0  0  0  0  0  0  0  0
    0.7500   -3.8971    0.0000 C   0  0  0  0  0  0  0  0  0  0  0  0
    1.5000   -2.5981    0.0000 C   0  0  0  0  0  0  0  0  0  0  0  0
    0.7500   -1.2990    0.0000 C   0  0  0  0  0  0  0  0  0  0  0  0
    1.5000    0.0000    0.0000 N   0  0  0  0  0  0  0  0  0  0  0  0
    0.7500    1.2990    0.0000 C   0  0  0  0  0  0  0  0  0  0  0  0
   -0.7500    1.2990    0.0000 C   0  0  0  0  0  0  0  0  0  0  0  0
   -1.5000    0.0000    0.0000 C   0  0  0  0  0  0  0  0  0  0  0  0
   -3.0000    0.0000    0.0000 O   0  0  0  0  0  0  0  0  0  0  0  0
   -3.7500    1.2990    0.0000 C   0  0  0  0  0  0  0  0  0  0  0  0
   -3.0000    2.5981    0.0000 C   0  0  0  0  0  0  0  0  0  0  0  0
   -3.7500    3.8971    0.0000 C   0  0  0  0  0  0  0  0  0  0  0  0
   -5.2500    3.8971    0.0000 C   0  0  0  0  0  0  0  0  0  0  0  0
   -6.0000    5.1962    0.0000 N   0  0  0  0  0  0  0  0  0  0  0  0
   -5.2500    6.4952    0.0000 C   0  0  0  0  0  0  0  0  0  0  0  0
   -3.7500    6.4952    0.0000 O   0  0  0  0  0  0  0  0  0  0  0  0
   -6.0000    7.7942    0.0000 N   0  0  0  0  0  0  0  0  0  0  0  0
   -5.2500    9.0933    0.0000 C   0  0  0  0  0  0  0  0  0  0  0  0
   -3.7500    9.0933    0.0000 O   0  0  0  0  0  0  0  0  0  0  0  0
   -6.0000   10.3923    0.0000 C   0  0  0  0  0  0  0  0  0  0  0  0
   -5.2500   11.6913    0.0000 N   0  0  0  0  0  0  0  0  0  0  0  0
   -5.8601   13.0617    0.0000 C   0  0  0  0  0  0  0  0  0  0  0  0
   -4.7454   14.0654    0.0000 C   0  0  0  0  0  0  0  0  0  0  0  0
   -3.4463   13.3154    0.0000 C   0  0  0  0  0  0  0  0  0  0  0  0
   -3.7582   11.8481    0.0000 C   0  0  0  0  0  0  0  0  0  0  0  0
   -6.0000    2.5981    0.0000 N   0  0  0  0  0  0  0  0  0  0  0  0
   -5.2500    1.2990    0.0000 C   0  0  0  0  0  0  0  0  0  0  0  0
   -0.7500   -1.2990    0.0000 C   0  0  0  0  0  0  0  0  0  0  0  0
   -1.5000   -2.5981    0.0000 C   0  0  0  0  0  0  0  0  0  0  0  0
   -0.7500   -3.8971    0.0000 C   0  0  0  0  0  0  0  0  0  0  0  0
   -1.5000   -5.1962    0.0000 O   0  0  0  0  0  0  0  0  0  0  0  0
   -3.0000   -5.1962    0.0000 C   0  0  0  0  0  0  0  0  0  0  0  0
  1  2  1  0
  2  3  1  0
  3  4  2  0
  4  5  1  0
  5  6  2  0
  6  7  1  0
  7  8  2  0
  8  9  1  0
  9 10  1  0
 10 11  1  0
 11 12  2  0
 12 13  1  0
 13 14  2  0
 14 15  1  0
 15 16  1  0
 16 17  2  0
 16 18  1  0
 18 19  1  0
 19 20  2  0
 19 21  1  0
 21 22  1  0
 22 23  1  0
 23 24  1  0
 24 25  1  0
 25 26  1  0
 14 27  1  0
 27 28  2  0
  9 29  2  0
 29 30  1  0
 30 31  2  0
 31 32  1  0
 32 33  1  0
 31  3  1  0
 29  5  1  0
 28 11  1  0
 26 22  1  0
M  END
>  <Compound_ID>  (139) 
CHEMBL461119

>  <Active>  (139) 
1.0

>  <Smiles>  (139) 
COc1cc2nccc(Oc3ccc(NC(=O)NC(=O)CN4CCCC4)nc3)c2cc1OC

>  <canonical_smi>  (139) 
COc1cc2nccc(Oc3ccc(NC(=O)NC(=O)CN4CCCC4)nc3)c2cc1OC

>  <Set>  (139) 
G2 active

>  <Set_type>  (139) 
Train

>  <MW>  (139) 
451.48

>  <HBD>  (139) 
2

>  <HBA>  (139) 
8

>  <NRB>  (139) 
7

>  <NR>  (139) 
4

>  <NAR>  (139) 
3

>  <PSA>  (139) 
114.91

>  <Standard Type>  (139) 
nan

>  <Standard Relation>  (139) 
nan

>  <Standard Units>  (139) 
nan

>  <Standard Value>  (139) 
nan

>  <Assay ChEMBL ID>  (139) 
nan

>  <Assay Description>  (139) 
nan

>  <BAO Label>  (139) 
nan

$$$$

     RDKit          2D

 38 42  0  0  0  0  0  0  0  0999 V2000
   12.7500   -1.2990    0.0000 C   0  0  0  0  0  0  0  0  0  0  0  0
   12.0000   -2.5981    0.0000 C   0  0  0  0  0  0  0  0  0  0  0  0
   12.7500   -3.8971    0.0000 C   0  0  0  0  0  0  0  0  0  0  0  0
   12.0000   -5.1962    0.0000 C   0  0  0  0  0  0  0  0  0  0  0  0
   10.5000   -5.1962    0.0000 C   0  0  0  0  0  0  0  0  0  0  0  0
    9.7500   -6.4952    0.0000 F   0  0  0  0  0  0  0  0  0  0  0  0
    9.7500   -3.8971    0.0000 C   0  0  0  0  0  0  0  0  0  0  0  0
    8.2500   -3.8971    0.0000 C   0  0  0  0  0  0  0  0  0  0  0  0
    7.5000   -5.1962    0.0000 O   0  0  0  0  0  0  0  0  0  0  0  0
    7.5000   -2.5981    0.0000 N   0  0  0  0  0  0  0  0  0  0  0  0
    6.0000   -2.5981    0.0000 C   0  0  0  0  0  0  0  0  0  0  0  0
    5.2500   -1.2990    0.0000 C   0  0  0  0  0  0  0  0  0  0  0  0
    3.7500   -1.2990    0.0000 C   0  0  0  0  0  0  0  0  0  0  0  0
    3.0000   -2.5981    0.0000 C   0  0  0  0  0  0  0  0  0  0  0  0
    1.5000   -2.5981    0.0000 O   0  0  0  0  0  0  0  0  0  0  0  0
    0.7500   -1.2990    0.0000 C   0  0  0  0  0  0  0  0  0  0  0  0
    1.5000    0.0000    0.0000 N   0  0  0  0  0  0  0  0  0  0  0  0
    0.7500    1.2990    0.0000 C   0  0  0  0  0  0  0  0  0  0  0  0
   -0.7500    1.2990    0.0000 N   0  0  0  0  0  0  0  0  0  0  0  0
   -1.5000    0.0000    0.0000 N   0  0  0  0  0  0  0  0  0  0  0  0
   -2.9672   -0.3119    0.0000 C   0  0  0  0  0  0  0  0  0  0  0  0
   -3.1240   -1.8037    0.0000 C   0  0  0  0  0  0  0  0  0  0  0  0
   -4.4231   -2.5537    0.0000 O   0  0  0  0  0  0  0  0  0  0  0  0
   -5.7221   -1.8037    0.0000 C   0  0  0  0  0  0  0  0  0  0  0  0
   -7.0211   -2.5537    0.0000 C   0  0  0  0  0  0  0  0  0  0  0  0
   -8.3202   -1.8037    0.0000 N   0  0  0  0  0  0  0  0  0  0  0  0
   -8.3202   -0.3037    0.0000 C   0  0  0  0  0  0  0  0  0  0  0  0
   -9.6192    0.4463    0.0000 C   0  0  0  0  0  0  0  0  0  0  0  0
  -10.9182   -0.3037    0.0000 O   0  0  0  0  0  0  0  0  0  0  0  0
  -10.9182   -1.8037    0.0000 C   0  0  0  0  0  0  0  0  0  0  0  0
   -9.6192   -2.5537    0.0000 C   0  0  0  0  0  0  0  0  0  0  0  0
   -1.7537   -2.4138    0.0000 C   0  0  0  0  0  0  0  0  0  0  0  0
   -1.4418   -3.8810    0.0000 C   0  0  0  0  0  0  0  0  0  0  0  0
   -0.7500   -1.2990    0.0000 C   0  0  0  0  0  0  0  0  0  0  0  0
    3.7500   -3.8971    0.0000 C   0  0  0  0  0  0  0  0  0  0  0  0
    3.0000   -5.1962    0.0000 F   0  0  0  0  0  0  0  0  0  0  0  0
    5.2500   -3.8971    0.0000 C   0  0  0  0  0  0  0  0  0  0  0  0
   10.5000   -2.5981    0.0000 C   0  0  0  0  0  0  0  0  0  0  0  0
  1  2  1  0
  2  3  2  0
  3  4  1  0
  4  5  2  0
  5  6  1  0
  5  7  1  0
  7  8  1  0
  8  9  2  0
  8 10  1  0
 10 11  1  0
 11 12  2  0
 12 13  1  0
 13 14  2  0
 14 15  1  0
 15 16  1  0
 16 17  2  0
 17 18  1  0
 18 19  2  0
 19 20  1  0
 20 21  1  0
 21 22  2  0
 22 23  1  0
 23 24  1  0
 24 25  1  0
 25 26  1  0
 26 27  1  0
 27 28  1  0
 28 29  1  0
 29 30  1  0
 30 31  1  0
 22 32  1  0
 32 33  1  0
 32 34  2  0
 14 35  1  0
 35 36  1  0
 35 37  2  0
  7 38  2  0
 38  2  1  0
 37 11  1  0
 34 16  1  0
 34 20  1  0
 31 26  1  0
M  END
>  <Compound_ID>  (140) 
CHEMBL430026

>  <Active>  (140) 
1.0

>  <Smiles>  (140) 
Cc1ccc(F)c(C(=O)Nc2ccc(Oc3ncnn4cc(OCCN5CCOCC5)c(C)c34)c(F)c2)c1

>  <canonical_smi>  (140) 
Cc1ccc(F)c(C(=O)Nc2ccc(Oc3ncnn4cc(OCCN5CCOCC5)c(C)c34)c(F)c2)c1

>  <Set>  (140) 
G2 active

>  <Set_type>  (140) 
Train

>  <MW>  (140) 
523.54

>  <HBD>  (140) 
1

>  <HBA>  (140) 
7

>  <NRB>  (140) 
8

>  <NR>  (140) 
5

>  <NAR>  (140) 
4

>  <PSA>  (140) 
90.22

>  <Standard Type>  (140) 
nan

>  <Standard Relation>  (140) 
nan

>  <Standard Units>  (140) 
nan

>  <Standard Value>  (140) 
nan

>  <Assay ChEMBL ID>  (140) 
nan

>  <Assay Description>  (140) 
nan

>  <BAO Label>  (140) 
nan

$$$$

     RDKit          2D

 38 41  0  0  0  0  0  0  0  0999 V2000
    3.0000   -5.1962    0.0000 C   0  0  0  0  0  0  0  0  0  0  0  0
    1.5000   -5.1962    0.0000 O   0  0  0  0  0  0  0  0  0  0  0  0
    0.7500   -3.8971    0.0000 C   0  0  0  0  0  0  0  0  0  0  0  0
    1.5000   -2.5981    0.0000 C   0  0  0  0  0  0  0  0  0  0  0  0
    0.7500   -1.2990    0.0000 C   0  0  0  0  0  0  0  0  0  0  0  0
    1.5000    0.0000    0.0000 N   0  0  0  0  0  0  0  0  0  0  0  0
    0.7500    1.2990    0.0000 C   0  0  0  0  0  0  0  0  0  0  0  0
   -0.7500    1.2990    0.0000 C   0  0  0  0  0  0  0  0  0  0  0  0
   -1.5000    0.0000    0.0000 C   0  0  0  0  0  0  0  0  0  0  0  0
   -3.0000    0.0000    0.0000 O   0  0  0  0  0  0  0  0  0  0  0  0
   -3.7500    1.2990    0.0000 C   0  0  0  0  0  0  0  0  0  0  0  0
   -3.0000    2.5981    0.0000 C   0  0  0  0  0  0  0  0  0  0  0  0
   -3.7500    3.8971    0.0000 C   0  0  0  0  0  0  0  0  0  0  0  0
   -5.2500    3.8971    0.0000 C   0  0  0  0  0  0  0  0  0  0  0  0
   -6.0000    5.1962    0.0000 N   0  0  0  0  0  0  0  0  0  0  0  0
   -5.2500    6.4952    0.0000 C   0  0  0  0  0  0  0  0  0  0  0  0
   -3.7500    6.4952    0.0000 O   0  0  0  0  0  0  0  0  0  0  0  0
   -6.0000    7.7942    0.0000 C   0  0  0  0  0  0  0  0  0  0  0  0
   -5.2500    9.0933    0.0000 C   0  0  0  0  0  0  0  0  0  0  0  0
   -3.7500    9.0933    0.0000 N   0  0  0  0  0  0  0  0  0  0  0  0
   -3.0000   10.3923    0.0000 C   0  0  0  0  0  0  0  0  0  0  0  0
   -1.5000   10.3923    0.0000 C   0  0  0  0  0  0  0  0  0  0  0  0
   -0.7500   11.6913    0.0000 C   0  0  0  0  0  0  0  0  0  0  0  0
   -1.5000   12.9904    0.0000 C   0  0  0  0  0  0  0  0  0  0  0  0
   -3.0000   12.9904    0.0000 C   0  0  0  0  0  0  0  0  0  0  0  0
   -3.7500   11.6913    0.0000 C   0  0  0  0  0  0  0  0  0  0  0  0
   -6.0000   10.3923    0.0000 C   0  0  0  0  0  0  0  0  0  0  0  0
   -6.7500   11.6913    0.0000 F   0  0  0  0  0  0  0  0  0  0  0  0
   -4.7010   11.1423    0.0000 F   0  0  0  0  0  0  0  0  0  0  0  0
   -7.2990    9.6423    0.0000 F   0  0  0  0  0  0  0  0  0  0  0  0
   -6.0000    2.5981    0.0000 C   0  0  0  0  0  0  0  0  0  0  0  0
   -5.2500    1.2990    0.0000 C   0  0  0  0  0  0  0  0  0  0  0  0
   -6.0000    0.0000    0.0000 F   0  0  0  0  0  0  0  0  0  0  0  0
   -0.7500   -1.2990    0.0000 C   0  0  0  0  0  0  0  0  0  0  0  0
   -1.5000   -2.5981    0.0000 C   0  0  0  0  0  0  0  0  0  0  0  0
   -0.7500   -3.8971    0.0000 C   0  0  0  0  0  0  0  0  0  0  0  0
   -1.5000   -5.1962    0.0000 O   0  0  0  0  0  0  0  0  0  0  0  0
   -3.0000   -5.1962    0.0000 C   0  0  0  0  0  0  0  0  0  0  0  0
  1  2  1  0
  2  3  1  0
  3  4  2  0
  4  5  1  0
  5  6  2  0
  6  7  1  0
  7  8  2  0
  8  9  1  0
  9 10  1  0
 10 11  1  0
 11 12  2  0
 12 13  1  0
 13 14  2  0
 14 15  1  0
 15 16  1  0
 16 17  2  0
 16 18  1  0
 18 19  1  0
 19 20  1  0
 20 21  1  0
 21 22  2  0
 22 23  1  0
 23 24  2  0
 24 25  1  0
 25 26  2  0
 19 27  1  0
 27 28  1  0
 27 29  1  0
 27 30  1  0
 14 31  1  0
 31 32  2  0
 32 33  1  0
  9 34  2  0
 34 35  1  0
 35 36  2  0
 36 37  1  0
 37 38  1  0
 36  3  1  0
 34  5  1  0
 32 11  1  0
 26 21  1  0
M  END
>  <Compound_ID>  (141) 
CHEMBL600603

>  <Active>  (141) 
1.0

>  <Smiles>  (141) 
COc1cc2nccc(Oc3ccc(NC(=O)CC(Nc4ccccc4)C(F)(F)F)cc3F)c2cc1OC

>  <canonical_smi>  (141) 
COc1cc2nccc(Oc3ccc(NC(=O)CC(Nc4ccccc4)C(F)(F)F)cc3F)c2cc1OC

>  <Set>  (141) 
G2 active

>  <Set_type>  (141) 
Train

>  <MW>  (141) 
529.49

>  <HBD>  (141) 
2

>  <HBA>  (141) 
6

>  <NRB>  (141) 
9

>  <NR>  (141) 
4

>  <NAR>  (141) 
4

>  <PSA>  (141) 
81.71

>  <Standard Type>  (141) 
nan

>  <Standard Relation>  (141) 
nan

>  <Standard Units>  (141) 
nan

>  <Standard Value>  (141) 
nan

>  <Assay ChEMBL ID>  (141) 
nan

>  <Assay Description>  (141) 
nan

>  <BAO Label>  (141) 
nan

$$$$

     RDKit          2D

 39 43  0  0  0  0  0  0  0  0999 V2000
   -1.6317   -8.6291    0.0000 C   0  0  0  0  0  0  0  0  0  0  0  0
   -0.7500   -7.4156    0.0000 N   0  0  0  0  0  0  0  0  0  0  0  0
    0.7500   -7.4156    0.0000 C   0  0  0  0  0  0  0  0  0  0  0  0
    1.2135   -5.9890    0.0000 N   0  0  0  0  0  0  0  0  0  0  0  0
   -0.0000   -5.1073    0.0000 C   0  0  0  0  0  0  0  0  0  0  0  0
   -0.0000   -3.6073    0.0000 C   0  0  0  0  0  0  0  0  0  0  0  0
    1.2135   -2.7256    0.0000 C   0  0  0  0  0  0  0  0  0  0  0  0
    0.7500   -1.2990    0.0000 C   0  0  0  0  0  0  0  0  0  0  0  0
    1.5000    0.0000    0.0000 N   0  0  0  0  0  0  0  0  0  0  0  0
    0.7500    1.2990    0.0000 C   0  0  0  0  0  0  0  0  0  0  0  0
   -0.7500    1.2990    0.0000 C   0  0  0  0  0  0  0  0  0  0  0  0
   -1.5000    0.0000    0.0000 C   0  0  0  0  0  0  0  0  0  0  0  0
   -3.0000    0.0000    0.0000 O   0  0  0  0  0  0  0  0  0  0  0  0
   -3.7500    1.2990    0.0000 C   0  0  0  0  0  0  0  0  0  0  0  0
   -3.0000    2.5981    0.0000 C   0  0  0  0  0  0  0  0  0  0  0  0
   -3.7500    3.8971    0.0000 C   0  0  0  0  0  0  0  0  0  0  0  0
   -5.2500    3.8971    0.0000 C   0  0  0  0  0  0  0  0  0  0  0  0
   -6.0000    5.1962    0.0000 N   0  0  0  0  0  0  0  0  0  0  0  0
   -5.2500    6.4952    0.0000 C   0  0  0  0  0  0  0  0  0  0  0  0
   -3.7500    6.4952    0.0000 O   0  0  0  0  0  0  0  0  0  0  0  0
   -6.0000    7.7942    0.0000 C   0  0  0  0  0  0  0  0  0  0  0  0
   -5.2500    9.0933    0.0000 C   0  0  0  0  0  0  0  0  0  0  0  0
   -3.7500    9.0933    0.0000 N   0  0  0  0  0  0  0  0  0  0  0  0
   -3.0000   10.3923    0.0000 C   0  0  0  0  0  0  0  0  0  0  0  0
   -1.5000   10.3923    0.0000 C   0  0  0  0  0  0  0  0  0  0  0  0
   -0.7500   11.6913    0.0000 C   0  0  0  0  0  0  0  0  0  0  0  0
   -1.5000   12.9904    0.0000 C   0  0  0  0  0  0  0  0  0  0  0  0
   -3.0000   12.9904    0.0000 C   0  0  0  0  0  0  0  0  0  0  0  0
   -3.7500   11.6913    0.0000 C   0  0  0  0  0  0  0  0  0  0  0  0
   -6.0000   10.3923    0.0000 C   0  0  0  0  0  0  0  0  0  0  0  0
   -6.7500   11.6913    0.0000 F   0  0  0  0  0  0  0  0  0  0  0  0
   -4.7010   11.1423    0.0000 F   0  0  0  0  0  0  0  0  0  0  0  0
   -7.2990    9.6423    0.0000 F   0  0  0  0  0  0  0  0  0  0  0  0
   -6.0000    2.5981    0.0000 C   0  0  0  0  0  0  0  0  0  0  0  0
   -5.2500    1.2990    0.0000 C   0  0  0  0  0  0  0  0  0  0  0  0
   -6.0000    0.0000    0.0000 F   0  0  0  0  0  0  0  0  0  0  0  0
   -0.7500   -1.2990    0.0000 C   0  0  0  0  0  0  0  0  0  0  0  0
   -1.2135   -2.7256    0.0000 S   0  0  0  0  0  0  0  0  0  0  0  0
   -1.2135   -5.9890    0.0000 C   0  0  0  0  0  0  0  0  0  0  0  0
  1  2  1  0
  2  3  1  0
  3  4  2  0
  4  5  1  0
  5  6  1  0
  6  7  2  0
  7  8  1  0
  8  9  2  0
  9 10  1  0
 10 11  2  0
 11 12  1  0
 12 13  1  0
 13 14  1  0
 14 15  2  0
 15 16  1  0
 16 17  2  0
 17 18  1  0
 18 19  1  0
 19 20  2  0
 19 21  1  0
 21 22  1  0
 22 23  1  0
 23 24  1  0
 24 25  2  0
 25 26  1  0
 26 27  2  0
 27 28  1  0
 28 29  2  0
 22 30  1  0
 30 31  1  0
 30 32  1  0
 30 33  1  0
 17 34  1  0
 34 35  2  0
 35 36  1  0
 12 37  2  0
 37 38  1  0
  5 39  2  0
 39  2  1  0
 38  6  1  0
 37  8  1  0
 35 14  1  0
 29 24  1  0
M  END
>  <Compound_ID>  (142) 
CHEMBL600632

>  <Active>  (142) 
1.0

>  <Smiles>  (142) 
Cn1cnc(-c2cc3nccc(Oc4ccc(NC(=O)CC(Nc5ccccc5)C(F)(F)F)cc4F)c3s2)c1

>  <canonical_smi>  (142) 
Cn1cnc(-c2cc3nccc(Oc4ccc(NC(=O)CC(Nc5ccccc5)C(F)(F)F)cc4F)c3s2)c1

>  <Set>  (142) 
G2 active

>  <Set_type>  (142) 
Train

>  <MW>  (142) 
555.56

>  <HBD>  (142) 
2

>  <HBA>  (142) 
5

>  <NRB>  (142) 
8

>  <NR>  (142) 
5

>  <NAR>  (142) 
5

>  <PSA>  (142) 
81.07

>  <Standard Type>  (142) 
nan

>  <Standard Relation>  (142) 
nan

>  <Standard Units>  (142) 
nan

>  <Standard Value>  (142) 
nan

>  <Assay ChEMBL ID>  (142) 
nan

>  <Assay Description>  (142) 
nan

>  <BAO Label>  (142) 
nan

$$$$

     RDKit          2D

 38 42  0  0  0  0  0  0  0  0999 V2000
    9.7500   -6.4952    0.0000 O   0  0  0  0  0  0  0  0  0  0  0  0
   10.5000   -5.1962    0.0000 C   0  0  0  0  0  0  0  0  0  0  0  0
   12.0000   -5.1962    0.0000 C   0  0  0  0  0  0  0  0  0  0  0  0
   12.7500   -6.4952    0.0000 C   0  0  0  0  0  0  0  0  0  0  0  0
   12.0000   -7.7942    0.0000 C   0  0  0  0  0  0  0  0  0  0  0  0
   12.7500   -9.0933    0.0000 C   0  0  0  0  0  0  0  0  0  0  0  0
   14.2500   -9.0933    0.0000 C   0  0  0  0  0  0  0  0  0  0  0  0
   15.0000  -10.3923    0.0000 F   0  0  0  0  0  0  0  0  0  0  0  0
   15.0000   -7.7942    0.0000 C   0  0  0  0  0  0  0  0  0  0  0  0
   14.2500   -6.4952    0.0000 C   0  0  0  0  0  0  0  0  0  0  0  0
    9.7500   -3.8971    0.0000 N   0  0  0  0  0  0  0  0  0  0  0  0
    8.2500   -3.8971    0.0000 C   0  0  0  0  0  0  0  0  0  0  0  0
    7.5000   -5.1962    0.0000 O   0  0  0  0  0  0  0  0  0  0  0  0
    7.5000   -2.5981    0.0000 N   0  0  0  0  0  0  0  0  0  0  0  0
    6.0000   -2.5981    0.0000 C   0  0  0  0  0  0  0  0  0  0  0  0
    5.2500   -1.2990    0.0000 C   0  0  0  0  0  0  0  0  0  0  0  0
    3.7500   -1.2990    0.0000 C   0  0  0  0  0  0  0  0  0  0  0  0
    3.0000   -2.5981    0.0000 C   0  0  0  0  0  0  0  0  0  0  0  0
    1.5000   -2.5981    0.0000 O   0  0  0  0  0  0  0  0  0  0  0  0
    0.7500   -1.2990    0.0000 C   0  0  0  0  0  0  0  0  0  0  0  0
    1.5000    0.0000    0.0000 N   0  0  0  0  0  0  0  0  0  0  0  0
    0.7500    1.2990    0.0000 C   0  0  0  0  0  0  0  0  0  0  0  0
   -0.7500    1.2990    0.0000 N   0  0  0  0  0  0  0  0  0  0  0  0
   -1.5000    0.0000    0.0000 N   0  0  0  0  0  0  0  0  0  0  0  0
   -2.9672   -0.3119    0.0000 C   0  0  0  0  0  0  0  0  0  0  0  0
   -3.1240   -1.8037    0.0000 C   0  0  0  0  0  0  0  0  0  0  0  0
   -1.7537   -2.4138    0.0000 C   0  0  0  0  0  0  0  0  0  0  0  0
   -1.4418   -3.8810    0.0000 C   0  0  0  0  0  0  0  0  0  0  0  0
   -2.5565   -4.8847    0.0000 N   0  0  0  0  0  0  0  0  0  0  0  0
   -3.9831   -4.4211    0.0000 C   0  0  0  0  0  0  0  0  0  0  0  0
   -5.0978   -5.4248    0.0000 C   0  0  0  0  0  0  0  0  0  0  0  0
   -4.7860   -6.8921    0.0000 O   0  0  0  0  0  0  0  0  0  0  0  0
   -3.3594   -7.3556    0.0000 C   0  0  0  0  0  0  0  0  0  0  0  0
   -2.2447   -6.3519    0.0000 C   0  0  0  0  0  0  0  0  0  0  0  0
   -0.7500   -1.2990    0.0000 C   0  0  0  0  0  0  0  0  0  0  0  0
    3.7500   -3.8971    0.0000 C   0  0  0  0  0  0  0  0  0  0  0  0
    3.0000   -5.1962    0.0000 F   0  0  0  0  0  0  0  0  0  0  0  0
    5.2500   -3.8971    0.0000 C   0  0  0  0  0  0  0  0  0  0  0  0
  1  2  2  0
  2  3  1  0
  3  4  1  0
  4  5  2  0
  5  6  1  0
  6  7  2  0
  7  8  1  0
  7  9  1  0
  9 10  2  0
  2 11  1  0
 11 12  1  0
 12 13  2  0
 12 14  1  0
 14 15  1  0
 15 16  2  0
 16 17  1  0
 17 18  2  0
 18 19  1  0
 19 20  1  0
 20 21  2  0
 21 22  1  0
 22 23  2  0
 23 24  1  0
 24 25  1  0
 25 26  2  0
 26 27  1  0
 27 28  1  0
 28 29  1  0
 29 30  1  0
 30 31  1  0
 31 32  1  0
 32 33  1  0
 33 34  1  0
 27 35  2  0
 18 36  1  0
 36 37  1  0
 36 38  2  0
 10  4  1  0
 38 15  1  0
 35 20  1  0
 35 24  1  0
 34 29  1  0
M  END
>  <Compound_ID>  (143) 
CHEMBL253656

>  <Active>  (143) 
1.0

>  <Smiles>  (143) 
O=C(Cc1ccc(F)cc1)NC(=O)Nc1ccc(Oc2ncnn3ccc(CN4CCOCC4)c23)c(F)c1

>  <canonical_smi>  (143) 
O=C(Cc1ccc(F)cc1)NC(=O)Nc1ccc(Oc2ncnn3ccc(CN4CCOCC4)c23)c(F)c1

>  <Set>  (143) 
G2 active

>  <Set_type>  (143) 
Train

>  <MW>  (143) 
522.51

>  <HBD>  (143) 
2

>  <HBA>  (143) 
7

>  <NRB>  (143) 
7

>  <NR>  (143) 
5

>  <NAR>  (143) 
4

>  <PSA>  (143) 
110.09

>  <Standard Type>  (143) 
nan

>  <Standard Relation>  (143) 
nan

>  <Standard Units>  (143) 
nan

>  <Standard Value>  (143) 
nan

>  <Assay ChEMBL ID>  (143) 
nan

>  <Assay Description>  (143) 
nan

>  <BAO Label>  (143) 
nan

$$$$

     RDKit          2D

 28 32  0  0  0  0  0  0  0  0999 V2000
    4.8403   -9.3111    0.0000 C   0  0  0  0  0  0  0  0  0  0  0  0
    6.1393   -8.5611    0.0000 C   0  0  0  0  0  0  0  0  0  0  0  0
    7.5097   -9.1712    0.0000 N   0  0  0  0  0  0  0  0  0  0  0  0
    8.5134   -8.0565    0.0000 N   0  0  0  0  0  0  0  0  0  0  0  0
   10.0051   -8.2133    0.0000 C   0  0  0  0  0  0  0  0  0  0  0  0
    7.7634   -6.7575    0.0000 C   0  0  0  0  0  0  0  0  0  0  0  0
    6.2961   -7.0693    0.0000 C   0  0  0  0  0  0  0  0  0  0  0  0
    5.1814   -6.0656    0.0000 C   0  0  0  0  0  0  0  0  0  0  0  0
    5.4933   -4.5984    0.0000 C   0  0  0  0  0  0  0  0  0  0  0  0
    4.3786   -3.5947    0.0000 C   0  0  0  0  0  0  0  0  0  0  0  0
    2.9520   -4.0582    0.0000 N   0  0  0  0  0  0  0  0  0  0  0  0
    2.6401   -5.5255    0.0000 C   0  0  0  0  0  0  0  0  0  0  0  0
    1.2135   -5.9890    0.0000 N   0  0  0  0  0  0  0  0  0  0  0  0
    0.7500   -7.4156    0.0000 C   0  0  0  0  0  0  0  0  0  0  0  0
   -0.7500   -7.4156    0.0000 C   0  0  0  0  0  0  0  0  0  0  0  0
   -1.2135   -5.9890    0.0000 C   0  0  0  0  0  0  0  0  0  0  0  0
   -0.0000   -5.1073    0.0000 C   0  0  0  0  0  0  0  0  0  0  0  0
   -0.0000   -3.6073    0.0000 C   0  0  0  0  0  0  0  0  0  0  0  0
    1.2135   -2.7256    0.0000 N   0  0  0  0  0  4  0  0  0  0  0  0
    0.7500   -1.2990    0.0000 C   0  0  0  0  0  0  0  0  0  0  0  0
    1.5000    0.0000    0.0000 C   0  0  0  0  0  0  0  0  0  0  0  0
    0.7500    1.2990    0.0000 C   0  0  0  0  0  0  0  0  0  0  0  0
   -0.7500    1.2990    0.0000 C   0  0  0  0  0  0  0  0  0  0  0  0
   -1.5000    0.0000    0.0000 C   0  0  0  0  0  0  0  0  0  0  0  0
   -3.0000    0.0000    0.0000 C   0  0  0  0  0  0  0  0  0  0  0  0
   -0.7500   -1.2990    0.0000 C   0  0  0  0  0  0  0  0  0  0  0  0
   -1.2135   -2.7256    0.0000 N   0  0  0  0  0  4  0  0  0  0  0  0
    3.7548   -6.5291    0.0000 N   0  0  0  0  0  0  0  0  0  0  0  0
  1  2  1  0
  2  3  2  0
  3  4  1  0
  4  5  1  0
  4  6  1  0
  6  7  2  0
  7  8  1  0
  8  9  2  0
  9 10  1  0
 10 11  2  0
 11 12  1  0
 12 13  1  0
 13 14  1  0
 14 15  1  0
 15 16  1  0
 17 16  1  6
 17 18  1  0
 18 19  1  6
 19 20  2  0
 20 21  1  0
 21 22  2  0
 22 23  1  0
 23 24  2  0
 24 25  1  0
 24 26  1  0
 26 27  2  0
 12 28  2  0
  7  2  1  0
 28  8  1  0
 17 13  1  0
 27 18  1  0
 26 20  1  0
M  CHG  2  19   1  27   1
M  END
>  <Compound_ID>  (144) 
C63885175

>  <Active>  (144) 
0.0

>  <Smiles>  (144) 
Cc1nn(C)cc1-c1ccnc(N2CCC[C@@H]2[C@H]2[NH+]=c3cccc(C)c3=[NH+]2)n1

>  <canonical_smi>  (144) 
Cc1nn(C)cc1-c1ccnc(N2CCC[C@@H]2[C@H]2[NH+]=c3cccc(C)c3=[NH+]2)n1

>  <Set>  (144) 
G2 inactive

>  <Set_type>  (144) 
Train

>  <MW>  (144) 
375.48

>  <HBD>  (144) 
2

>  <HBA>  (144) 
4

>  <NRB>  (144) 
3

>  <NR>  (144) 
5

>  <NAR>  (144) 
3

>  <PSA>  (144) 
74.78

>  <Standard Type>  (144) 
nan

>  <Standard Relation>  (144) 
nan

>  <Standard Units>  (144) 
nan

>  <Standard Value>  (144) 
nan

>  <Assay ChEMBL ID>  (144) 
nan

>  <Assay Description>  (144) 
nan

>  <BAO Label>  (144) 
nan

$$$$

     RDKit          2D

 18 18  0  0  0  0  0  0  0  0999 V2000
    3.7500   -6.4952    0.0000 C   0  0  0  0  0  0  0  0  0  0  0  0
    3.0000   -5.1962    0.0000 C   0  0  0  0  0  0  0  0  0  0  0  0
    3.7500   -3.8971    0.0000 O   0  0  0  0  0  0  0  0  0  0  0  0
    3.0000   -2.5981    0.0000 C   0  0  0  0  0  0  0  0  0  0  0  0
    1.5000   -2.5981    0.0000 O   0  0  0  0  0  0  0  0  0  0  0  0
    3.7500   -1.2990    0.0000 C   0  0  0  0  0  0  0  0  0  0  0  0
    5.2500   -1.2990    0.0000 C   0  0  0  0  0  0  0  0  0  0  0  0
    3.0000    0.0000    0.0000 C   0  0  0  0  0  0  0  0  0  0  0  0
    1.5000    0.0000    0.0000 N   0  0  0  0  0  0  0  0  0  0  0  0
    0.7500   -1.2990    0.0000 C   0  0  0  0  0  0  0  0  0  0  0  0
   -0.7500   -1.2990    0.0000 C   0  0  0  0  0  0  0  0  0  0  0  0
   -1.5000    0.0000    0.0000 N   0  0  0  0  0  4  0  0  0  0  0  0
   -3.0000    0.0000    0.0000 C   0  0  0  0  0  0  0  0  0  0  0  0
   -3.0000    1.5000    0.0000 C   0  0  0  0  0  0  0  0  0  0  0  0
   -3.0000   -1.5000    0.0000 C   0  0  0  0  0  0  0  0  0  0  0  0
   -4.5000    0.0000    0.0000 C   0  0  0  0  0  0  0  0  0  0  0  0
   -0.7500    1.2990    0.0000 C   0  0  0  0  0  0  0  0  0  0  0  0
    0.7500    1.2990    0.0000 C   0  0  0  0  0  0  0  0  0  0  0  0
  1  2  1  0
  2  3  1  0
  3  4  1  0
  4  5  2  0
  4  6  1  0
  6  7  1  6
  6  8  1  0
  8  9  1  0
  9 10  1  0
 10 11  1  0
 11 12  1  0
 12 13  1  0
 13 14  1  0
 13 15  1  0
 13 16  1  0
 12 17  1  0
 17 18  1  0
 18  9  1  0
M  CHG  1  12   1
M  END
>  <Compound_ID>  (145) 
C43615404

>  <Active>  (145) 
0.0

>  <Smiles>  (145) 
CCOC(=O)[C@@H](C)CN1CC[NH+](C(C)(C)C)CC1

>  <canonical_smi>  (145) 
CCOC(=O)[C@@H](C)CN1CC[NH+](C(C)(C)C)CC1

>  <Set>  (145) 
G2 inactive

>  <Set_type>  (145) 
Train

>  <MW>  (145) 
257.4

>  <HBD>  (145) 
1

>  <HBA>  (145) 
3

>  <NRB>  (145) 
4

>  <NR>  (145) 
1

>  <NAR>  (145) 
0

>  <PSA>  (145) 
33.98

>  <Standard Type>  (145) 
nan

>  <Standard Relation>  (145) 
nan

>  <Standard Units>  (145) 
nan

>  <Standard Value>  (145) 
nan

>  <Assay ChEMBL ID>  (145) 
nan

>  <Assay Description>  (145) 
nan

>  <BAO Label>  (145) 
nan

$$$$

     RDKit          2D

 20 21  0  0  0  0  0  0  0  0999 V2000
    3.7500   -1.2990    0.0000 C   0  0  0  0  0  0  0  0  0  0  0  0
    3.0000    0.0000    0.0000 O   0  0  0  0  0  0  0  0  0  0  0  0
    1.5000    0.0000    0.0000 C   0  0  0  0  0  0  0  0  0  0  0  0
    0.7500   -1.2990    0.0000 C   0  0  0  0  0  0  0  0  0  0  0  0
    1.5000   -2.5981    0.0000 C   0  0  0  0  0  0  0  0  0  0  0  0
   -0.7500   -1.2990    0.0000 C   0  0  0  0  0  0  0  0  0  0  0  0
   -1.5000    0.0000    0.0000 N   0  0  0  0  0  4  0  0  0  0  0  0
   -0.7500    1.2990    0.0000 C   0  0  0  0  0  0  0  0  0  0  0  0
   -1.5000    2.5981    0.0000 C   0  0  0  0  0  0  0  0  0  0  0  0
   -3.0000    2.5981    0.0000 N   0  0  0  0  0  0  0  0  0  0  0  0
   -3.7500    3.8971    0.0000 C   0  0  0  0  0  0  0  0  0  0  0  0
   -3.7500    1.2990    0.0000 C   0  0  0  0  0  0  0  0  0  0  0  0
   -5.2500    1.2990    0.0000 C   0  0  0  0  0  0  0  0  0  0  0  0
   -6.1317    0.0855    0.0000 S   0  0  0  0  0  0  0  0  0  0  0  0
   -7.5583    0.5490    0.0000 C   0  0  0  0  0  0  0  0  0  0  0  0
   -7.5583    2.0490    0.0000 N   0  0  0  0  0  0  0  0  0  0  0  0
   -6.1317    2.5126    0.0000 C   0  0  0  0  0  0  0  0  0  0  0  0
   -5.6682    3.9391    0.0000 C   0  0  0  0  0  0  0  0  0  0  0  0
    0.7500    1.2990    0.0000 C   0  0  0  0  0  0  0  0  0  0  0  0
    1.5000    2.5981    0.0000 C   0  0  0  0  0  0  0  0  0  0  0  0
  1  2  1  0
  2  3  1  0
  3  4  2  0
  4  5  1  0
  4  6  1  0
  6  7  2  0
  7  8  1  0
  8  9  1  0
  9 10  1  0
 10 11  1  0
 10 12  1  0
 12 13  1  0
 13 14  1  0
 14 15  1  0
 15 16  2  0
 16 17  1  0
 17 18  1  0
  8 19  2  0
 19 20  1  0
 19  3  1  0
 17 13  2  0
M  CHG  1   7   1
M  END
>  <Compound_ID>  (146) 
C66666681

>  <Active>  (146) 
0.0

>  <Smiles>  (146) 
COc1c(C)c[nH+]c(CN(C)Cc2scnc2C)c1C

>  <canonical_smi>  (146) 
COc1c(C)c[nH+]c(CN(C)Cc2scnc2C)c1C

>  <Set>  (146) 
G2 inactive

>  <Set_type>  (146) 
Train

>  <MW>  (146) 
292.43

>  <HBD>  (146) 
0

>  <HBA>  (146) 
3

>  <NRB>  (146) 
5

>  <NR>  (146) 
2

>  <NAR>  (146) 
2

>  <PSA>  (146) 
39.5

>  <Standard Type>  (146) 
nan

>  <Standard Relation>  (146) 
nan

>  <Standard Units>  (146) 
nan

>  <Standard Value>  (146) 
nan

>  <Assay ChEMBL ID>  (146) 
nan

>  <Assay Description>  (146) 
nan

>  <BAO Label>  (146) 
nan

$$$$

     RDKit          2D

 13 12  0  0  0  0  0  0  0  0999 V2000
    0.0000    0.0000    0.0000 C   0  0  0  0  0  0  0  0  0  0  0  0
    1.2990    0.7500    0.0000 N   0  0  0  0  0  4  0  0  0  0  0  0
    2.5981   -0.0000    0.0000 C   0  0  0  0  0  0  0  0  0  0  0  0
    1.2990    2.2500    0.0000 C   0  0  0  0  0  0  0  0  0  0  0  0
    2.5981    3.0000    0.0000 C   0  0  0  0  0  0  0  0  0  0  0  0
    2.5981    4.5000    0.0000 C   0  0  0  0  0  0  0  0  0  0  0  0
    2.5981    6.0000    0.0000 F   0  0  0  0  0  0  0  0  0  0  0  0
    4.0981    4.5000    0.0000 F   0  0  0  0  0  0  0  0  0  0  0  0
    1.0981    4.5000    0.0000 F   0  0  0  0  0  0  0  0  0  0  0  0
    3.8971    2.2500    0.0000 C   0  0  0  0  0  0  0  0  0  0  0  0
    5.1962    1.5000    0.0000 F   0  0  0  0  0  0  0  0  0  0  0  0
    4.6471    3.5490    0.0000 F   0  0  0  0  0  0  0  0  0  0  0  0
    3.1471    0.9510    0.0000 F   0  0  0  0  0  0  0  0  0  0  0  0
  1  2  1  0
  2  3  1  0
  2  4  1  0
  4  5  2  0
  5  6  1  0
  6  7  1  0
  6  8  1  0
  6  9  1  0
  5 10  1  0
 10 11  1  0
 10 12  1  0
 10 13  1  0
M  CHG  1   2   1
M  END
>  <Compound_ID>  (147) 
C03165128

>  <Active>  (147) 
0.0

>  <Smiles>  (147) 
C[NH+](C)C=C(C(F)(F)F)C(F)(F)F

>  <canonical_smi>  (147) 
C[NH+](C)C=C(C(F)(F)F)C(F)(F)F

>  <Set>  (147) 
G2 inactive

>  <Set_type>  (147) 
Train

>  <MW>  (147) 
208.12

>  <HBD>  (147) 
1

>  <HBA>  (147) 
0

>  <NRB>  (147) 
1

>  <NR>  (147) 
0

>  <NAR>  (147) 
0

>  <PSA>  (147) 
4.44

>  <Standard Type>  (147) 
nan

>  <Standard Relation>  (147) 
nan

>  <Standard Units>  (147) 
nan

>  <Standard Value>  (147) 
nan

>  <Assay ChEMBL ID>  (147) 
nan

>  <Assay Description>  (147) 
nan

>  <BAO Label>  (147) 
nan

$$$$

     RDKit          2D

 17 18  0  0  0  0  0  0  0  0999 V2000
    3.5260   -1.2990    0.0000 C   0  0  0  0  0  0  0  0  0  0  0  0
    2.7760    0.0000    0.0000 C   0  0  0  0  0  0  0  0  0  0  0  0
    1.2760    0.0000    0.0000 C   0  0  0  0  0  0  0  0  0  0  0  0
    0.3943    1.2135    0.0000 C   0  0  0  0  0  0  0  0  0  0  0  0
    0.8578    2.6401    0.0000 C   0  0  0  0  0  0  0  0  0  0  0  0
   -1.0323    0.7500    0.0000 C   0  0  0  0  0  0  0  0  0  0  0  0
   -2.2458    1.6317    0.0000 C   0  0  0  0  0  0  0  0  0  0  0  0
   -3.6161    1.0216    0.0000 C   0  0  0  0  0  0  0  0  0  0  0  0
   -3.9280   -0.4456    0.0000 C   0  0  0  0  0  0  0  0  0  0  0  0
   -5.4198   -0.6024    0.0000 C   0  0  0  0  0  0  0  0  0  0  0  0
   -6.1698   -1.9015    0.0000 C   0  0  0  0  0  0  0  0  0  0  0  0
   -6.0299    0.7679    0.0000 N   0  0  0  0  0  4  0  0  0  0  0  0
   -4.9152    1.7716    0.0000 C   0  0  0  0  0  0  0  0  0  0  0  0
   -5.0720    3.2634    0.0000 C   0  0  0  0  0  0  0  0  0  0  0  0
   -1.0323   -0.7500    0.0000 N   0  0  0  0  0  0  0  0  0  0  0  0
    0.3943   -1.2135    0.0000 C   0  0  0  0  0  0  0  0  0  0  0  0
    0.8578   -2.6401    0.0000 C   0  0  0  0  0  0  0  0  0  0  0  0
  1  2  1  0
  2  3  1  0
  3  4  2  0
  4  5  1  0
  4  6  1  0
  6  7  1  1
  7  8  2  0
  8  9  1  0
  9 10  2  0
 10 11  1  0
 10 12  1  0
 12 13  2  0
 13 14  1  0
  6 15  1  0
 15 16  2  0
 16 17  1  0
 16  3  1  0
 13  8  1  0
M  CHG  1  12   1
M  END
>  <Compound_ID>  (148) 
C38903785

>  <Active>  (148) 
0.0

>  <Smiles>  (148) 
CCC1=C(C)[C@H](/C=C2\C=C(C)[NH+]=C2C)N=C1C

>  <canonical_smi>  (148) 
CCC1=C(C)[C@H](/C=C2\C=C(C)[NH+]=C2C)N=C1C

>  <Set>  (148) 
G2 inactive

>  <Set_type>  (148) 
Train

>  <MW>  (148) 
229.35

>  <HBD>  (148) 
1

>  <HBA>  (148) 
0

>  <NRB>  (148) 
2

>  <NR>  (148) 
2

>  <NAR>  (148) 
0

>  <PSA>  (148) 
26.33

>  <Standard Type>  (148) 
nan

>  <Standard Relation>  (148) 
nan

>  <Standard Units>  (148) 
nan

>  <Standard Value>  (148) 
nan

>  <Assay ChEMBL ID>  (148) 
nan

>  <Assay Description>  (148) 
nan

>  <BAO Label>  (148) 
nan

$$$$

     RDKit          2D

  9  8  0  0  0  0  0  0  0  0999 V2000
    0.0000    0.0000    0.0000 C   0  0  0  0  0  0  0  0  0  0  0  0
    1.2990    0.7500    0.0000 C   0  0  0  0  0  0  0  0  0  0  0  0
    2.5981   -0.0000    0.0000 C   0  0  0  0  0  0  0  0  0  0  0  0
    3.8971    0.7500    0.0000 C   0  0  0  0  0  0  0  0  0  0  0  0
    2.5981   -1.5000    0.0000 N   0  0  0  0  0  4  0  0  0  0  0  0
    3.8971   -2.2500    0.0000 C   0  0  0  0  0  0  0  0  0  0  0  0
    1.2990   -2.2500    0.0000 C   0  0  0  0  0  0  0  0  0  0  0  0
    1.2990   -3.7500    0.0000 C   0  0  0  0  0  0  0  0  0  0  0  0
    0.0000   -4.5000    0.0000 Br  0  0  0  0  0  0  0  0  0  0  0  0
  1  2  1  0
  2  3  1  0
  3  4  1  6
  3  5  1  0
  5  6  1  0
  5  7  1  0
  7  8  1  0
  8  9  1  0
M  CHG  1   5   1
M  END
>  <Compound_ID>  (149) 
C40990703

>  <Active>  (149) 
0.0

>  <Smiles>  (149) 
CC[C@H](C)[NH+](C)CCBr

>  <canonical_smi>  (149) 
CC[C@H](C)[NH+](C)CCBr

>  <Set>  (149) 
G2 inactive

>  <Set_type>  (149) 
Train

>  <MW>  (149) 
195.12

>  <HBD>  (149) 
1

>  <HBA>  (149) 
0

>  <NRB>  (149) 
4

>  <NR>  (149) 
0

>  <NAR>  (149) 
0

>  <PSA>  (149) 
4.44

>  <Standard Type>  (149) 
nan

>  <Standard Relation>  (149) 
nan

>  <Standard Units>  (149) 
nan

>  <Standard Value>  (149) 
nan

>  <Assay ChEMBL ID>  (149) 
nan

>  <Assay Description>  (149) 
nan

>  <BAO Label>  (149) 
nan

$$$$

     RDKit          2D

 12 13  0  0  0  0  0  0  0  0999 V2000
   -7.9140    3.0616    0.0000 Br  0  0  0  0  0  0  0  0  0  0  0  0
   -6.4140    3.0616    0.0000 C   0  0  0  0  0  0  0  0  0  0  0  0
   -5.6640    1.7626    0.0000 C   0  0  0  0  0  0  0  0  0  0  0  0
   -4.1640    1.7626    0.0000 C   0  0  0  0  0  0  0  0  0  0  0  0
   -3.4140    0.4635    0.0000 C   0  0  0  0  0  0  0  0  0  0  0  0
   -1.9140    0.4635    0.0000 N   0  0  0  0  0  4  0  0  0  0  0  0
   -1.0323    1.6771    0.0000 C   0  0  0  0  0  0  0  0  0  0  0  0
    0.3943    1.2135    0.0000 C   0  0  0  0  0  0  0  0  0  0  0  0
    1.2760    0.0000    0.0000 C   0  0  0  0  0  0  0  0  0  0  0  0
    0.3943   -1.2135    0.0000 C   0  0  0  0  0  0  0  0  0  0  0  0
   -1.0323   -0.7500    0.0000 C   0  0  0  0  0  0  0  0  0  0  0  0
   -1.0323    0.7500    0.0000 C   0  0  0  0  0  0  0  0  0  0  0  0
  1  2  1  0
  2  3  1  0
  3  4  1  0
  4  5  1  0
  5  6  1  0
  6  7  1  0
  8  7  1  1
  8  9  1  0
  9 10  1  0
 11 10  1  1
 11 12  1  0
 11  6  1  0
 12  8  1  0
M  CHG  1   6   1
M  END
>  <Compound_ID>  (150) 
C49716581

>  <Active>  (150) 
0.0

>  <Smiles>  (150) 
BrCCCC[NH+]1C[C@H]2CC[C@@H]1C2

>  <canonical_smi>  (150) 
BrCCCC[NH+]1C[C@H]2CC[C@@H]1C2

>  <Set>  (150) 
G2 inactive

>  <Set_type>  (150) 
Train

>  <MW>  (150) 
233.17

>  <HBD>  (150) 
1

>  <HBA>  (150) 
0

>  <NRB>  (150) 
4

>  <NR>  (150) 
2

>  <NAR>  (150) 
0

>  <PSA>  (150) 
4.44

>  <Standard Type>  (150) 
nan

>  <Standard Relation>  (150) 
nan

>  <Standard Units>  (150) 
nan

>  <Standard Value>  (150) 
nan

>  <Assay ChEMBL ID>  (150) 
nan

>  <Assay Description>  (150) 
nan

>  <BAO Label>  (150) 
nan

$$$$

     RDKit          2D

 16 17  0  0  0  0  0  0  0  0999 V2000
    2.2269    2.0490    0.0000 C   0  0  0  0  0  0  0  0  0  0  0  0
    3.5260    1.2990    0.0000 C   0  0  0  0  0  0  0  0  0  0  0  0
    4.8250    0.5490    0.0000 C   0  0  0  0  0  0  0  0  0  0  0  0
    4.2760    2.5981    0.0000 C   0  0  0  0  0  0  0  0  0  0  0  0
    3.5260    3.8971    0.0000 O   0  0  0  0  0  0  0  0  0  0  0  0
    2.7760    0.0000    0.0000 C   0  0  0  0  0  0  0  0  0  0  0  0
    1.2760    0.0000    0.0000 N   0  0  0  0  0  4  0  0  0  0  0  0
    0.3943    1.2135    0.0000 C   0  0  0  0  0  0  0  0  0  0  0  0
   -1.0323    0.7500    0.0000 C   0  0  0  0  0  0  0  0  0  0  0  0
   -1.0323   -0.7500    0.0000 C   0  0  0  0  0  0  0  0  0  0  0  0
    0.3943   -1.2135    0.0000 C   0  0  0  0  0  0  0  0  0  0  0  0
    0.8578   -2.6401    0.0000 C   0  0  0  0  0  0  0  0  0  0  0  0
    2.2844   -3.1036    0.0000 C   0  0  0  0  0  0  0  0  0  0  0  0
    2.2844   -4.6036    0.0000 C   0  0  0  0  0  0  0  0  0  0  0  0
    0.8578   -5.0672    0.0000 C   0  0  0  0  0  0  0  0  0  0  0  0
   -0.0239   -3.8536    0.0000 C   0  0  0  0  0  0  0  0  0  0  0  0
  1  2  1  0
  2  3  1  0
  2  4  1  0
  4  5  2  0
  2  6  1  0
  6  7  1  0
  7  8  1  0
  8  9  1  0
  9 10  1  0
 10 11  1  0
 11 12  1  6
 12 13  1  0
 13 14  1  0
 14 15  1  0
 15 16  1  0
 11  7  1  0
 16 12  1  0
M  CHG  1   7   1
M  END
>  <Compound_ID>  (151) 
C51178326

>  <Active>  (151) 
0.0

>  <Smiles>  (151) 
CC(C)(C=O)C[NH+]1CCC[C@H]1C1CCCC1

>  <canonical_smi>  (151) 
CC(C)(C=O)C[NH+]1CCC[C@H]1C1CCCC1

>  <Set>  (151) 
G2 inactive

>  <Set_type>  (151) 
Train

>  <MW>  (151) 
224.37

>  <HBD>  (151) 
1

>  <HBA>  (151) 
1

>  <NRB>  (151) 
4

>  <NR>  (151) 
2

>  <NAR>  (151) 
0

>  <PSA>  (151) 
21.51

>  <Standard Type>  (151) 
nan

>  <Standard Relation>  (151) 
nan

>  <Standard Units>  (151) 
nan

>  <Standard Value>  (151) 
nan

>  <Assay ChEMBL ID>  (151) 
nan

>  <Assay Description>  (151) 
nan

>  <BAO Label>  (151) 
nan

$$$$

     RDKit          2D

 37 41  0  0  0  0  0  0  0  0999 V2000
    9.5620   -7.4654    0.0000 C   0  0  0  0  0  0  0  0  0  0  0  0
    8.1917   -6.8553    0.0000 C   0  0  0  0  0  0  0  0  0  0  0  0
    6.9782   -7.7369    0.0000 C   0  0  0  0  0  0  0  0  0  0  0  0
    5.6079   -7.1268    0.0000 C   0  0  0  0  0  0  0  0  0  0  0  0
    5.4511   -5.6350    0.0000 C   0  0  0  0  0  0  0  0  0  0  0  0
    4.0808   -5.0249    0.0000 C   0  0  0  0  0  0  0  0  0  0  0  0
    3.9240   -3.5332    0.0000 C   0  0  0  0  0  0  0  0  0  0  0  0
    5.1375   -2.6515    0.0000 O   0  0  0  0  0  0  0  0  0  0  0  0
    2.5537   -2.9231    0.0000 N   0  0  0  0  0  0  0  0  0  0  0  0
    1.2546   -3.6731    0.0000 C   0  0  0  0  0  0  0  0  0  0  0  0
    0.1399   -2.6694    0.0000 C   0  0  0  0  0  0  0  0  0  0  0  0
   -1.3273   -2.9812    0.0000 C   0  0  0  0  0  0  0  0  0  0  0  0
   -2.3310   -1.8665    0.0000 O   0  0  0  0  0  0  0  0  0  0  0  0
   -1.7909   -4.4078    0.0000 N   0  0  0  0  0  0  0  0  0  0  0  0
   -3.2581   -4.7197    0.0000 C   0  0  0  0  0  0  0  0  0  0  0  0
   -3.7216   -6.1463    0.0000 C   0  0  0  0  0  0  0  0  0  0  0  0
   -5.1888   -6.4581    0.0000 C   0  0  0  0  0  0  0  0  0  0  0  0
   -5.7989   -7.8284    0.0000 C   0  0  0  0  0  0  0  0  0  0  0  0
   -5.1888   -9.1988    0.0000 C   0  0  0  0  0  0  0  0  0  0  0  0
   -6.0705  -10.4123    0.0000 C   0  0  0  0  0  0  0  0  0  0  0  0
   -5.4604  -11.7826    0.0000 C   0  0  0  0  0  0  0  0  0  0  0  0
   -4.8503  -13.1529    0.0000 N   0  0  0  0  0  0  0  0  0  0  0  0
   -7.5623  -10.2555    0.0000 C   0  0  0  0  0  0  0  0  0  0  0  0
   -8.1724   -8.8852    0.0000 C   0  0  0  0  0  0  0  0  0  0  0  0
   -7.2907   -7.6717    0.0000 C   0  0  0  0  0  0  0  0  0  0  0  0
   -7.6026   -6.2044    0.0000 N   0  0  0  0  0  4  0  0  0  0  0  0
   -6.3035   -5.4544    0.0000 C   0  0  0  0  0  0  0  0  0  0  0  0
   -6.1467   -3.9626    0.0000 C   0  0  0  0  0  0  0  0  0  0  0  0
    0.7500   -1.2990    0.0000 C   0  0  0  0  0  0  0  0  0  0  0  0
    1.5000    0.0000    0.0000 C   0  0  0  0  0  0  0  0  0  0  0  0
    0.7500    1.2990    0.0000 C   0  0  0  0  0  0  0  0  0  0  0  0
   -0.7500    1.2990    0.0000 N   0  0  0  0  0  4  0  0  0  0  0  0
   -1.5000    0.0000    0.0000 C   0  0  0  0  0  0  0  0  0  0  0  0
   -0.7500   -1.2990    0.0000 C   0  0  0  0  0  0  0  0  0  0  0  0
    2.2418   -1.4558    0.0000 C   0  0  0  0  0  0  0  0  0  0  0  0
    6.6646   -4.7534    0.0000 C   0  0  0  0  0  0  0  0  0  0  0  0
    8.0349   -5.3635    0.0000 C   0  0  0  0  0  0  0  0  0  0  0  0
  1  2  1  0
  2  3  2  0
  3  4  1  0
  4  5  2  0
  5  6  1  0
  6  7  1  0
  7  8  2  0
  7  9  1  0
  9 10  1  0
 10 11  1  0
 11 12  1  6
 12 13  2  0
 12 14  1  0
 14 15  1  0
 15 16  1  0
 16 17  1  0
 17 18  2  0
 18 19  1  0
 19 20  2  0
 20 21  1  0
 21 22  3  0
 20 23  1  0
 23 24  2  0
 24 25  1  0
 25 26  2  0
 26 27  1  0
 27 28  1  1
 11 29  1  0
 29 30  1  0
 30 31  1  0
 31 32  1  0
 32 33  1  0
 33 34  1  0
 29 35  1  0
  5 36  1  0
 36 37  2  0
 37  2  1  0
 35  9  1  0
 27 17  1  0
 34 29  1  0
 25 18  1  0
M  CHG  2  26   1  32   1
M  END
>  <Compound_ID>  (152) 
C39674858

>  <Active>  (152) 
0.0

>  <Smiles>  (152) 
Cc1ccc(CC(=O)N2C[C@H](C(=O)NCCC3=c4cc(C#N)ccc4=[NH+][C@H]3C)C3(CC[NH2+]CC3)C2)cc1

>  <canonical_smi>  (152) 
Cc1ccc(CC(=O)N2C[C@H](C(=O)NCCC3=c4cc(C#N)ccc4=[NH+][C@H]3C)C3(CC[NH2+]CC3)C2)cc1

>  <Set>  (152) 
G2 inactive

>  <Set_type>  (152) 
Train

>  <MW>  (152) 
499.66

>  <HBD>  (152) 
3

>  <HBA>  (152) 
3

>  <NRB>  (152) 
6

>  <NR>  (152) 
5

>  <NAR>  (152) 
2

>  <PSA>  (152) 
103.78

>  <Standard Type>  (152) 
nan

>  <Standard Relation>  (152) 
nan

>  <Standard Units>  (152) 
nan

>  <Standard Value>  (152) 
nan

>  <Assay ChEMBL ID>  (152) 
nan

>  <Assay Description>  (152) 
nan

>  <BAO Label>  (152) 
nan

$$$$

     RDKit          2D

 32 35  0  0  0  0  0  0  0  0999 V2000
    6.5741  -14.1710    0.0000 C   0  0  0  0  0  0  0  0  0  0  0  0
    6.8859  -12.7038    0.0000 C   0  0  0  0  0  0  0  0  0  0  0  0
    8.3125  -12.2403    0.0000 C   0  0  0  0  0  0  0  0  0  0  0  0
    5.7712  -11.7001    0.0000 C   0  0  0  0  0  0  0  0  0  0  0  0
    6.0831  -10.2329    0.0000 N   0  0  0  0  0  0  0  0  0  0  0  0
    4.9684   -9.2292    0.0000 C   0  0  0  0  0  0  0  0  0  0  0  0
    3.5418   -9.6927    0.0000 O   0  0  0  0  0  0  0  0  0  0  0  0
    5.2802   -7.7620    0.0000 C   0  0  0  0  0  0  0  0  0  0  0  0
    4.1655   -6.7583    0.0000 N   0  0  0  0  0  0  0  0  0  0  0  0
    2.6983   -7.0701    0.0000 C   0  0  0  0  0  0  0  0  0  0  0  0
    2.0882   -8.4404    0.0000 O   0  0  0  0  0  0  0  0  0  0  0  0
    1.9483   -5.7711    0.0000 N   0  0  0  0  0  0  0  0  0  0  0  0
    2.9520   -4.6564    0.0000 C   0  0  0  0  0  0  0  0  0  0  0  0
    2.6401   -3.1891    0.0000 C   0  0  0  0  0  0  0  0  0  0  0  0
    1.2135   -2.7256    0.0000 C   0  0  0  0  0  0  0  0  0  0  0  0
    0.7500   -1.2990    0.0000 C   0  0  0  0  0  0  0  0  0  0  0  0
    1.5000    0.0000    0.0000 C   0  0  0  0  0  0  0  0  0  0  0  0
    0.7500    1.2990    0.0000 C   0  0  0  0  0  0  0  0  0  0  0  0
   -0.7500    1.2990    0.0000 C   0  0  0  0  0  0  0  0  0  0  0  0
   -1.5000    0.0000    0.0000 C   0  0  0  0  0  0  0  0  0  0  0  0
   -0.7500   -1.2990    0.0000 C   0  0  0  0  0  0  0  0  0  0  0  0
   -1.2135   -2.7256    0.0000 N   0  0  0  0  0  4  0  0  0  0  0  0
    0.0000   -3.6073    0.0000 C   0  0  0  0  0  0  0  0  0  0  0  0
    4.3223   -5.2665    0.0000 C   0  0  0  0  0  0  0  0  0  0  0  0
    5.6213   -4.5165    0.0000 O   0  0  0  0  0  0  0  0  0  0  0  0
    4.3446  -12.1636    0.0000 C   0  0  0  0  0  0  0  0  0  0  0  0
    3.2299  -11.1599    0.0000 C   0  0  0  0  0  0  0  0  0  0  0  0
    1.8033  -11.6234    0.0000 C   0  0  0  0  0  0  0  0  0  0  0  0
    1.4914  -13.0907    0.0000 C   0  0  0  0  0  0  0  0  0  0  0  0
    0.0649  -13.5542    0.0000 F   0  0  0  0  0  0  0  0  0  0  0  0
    2.6062  -14.0944    0.0000 C   0  0  0  0  0  0  0  0  0  0  0  0
    4.0328  -13.6308    0.0000 C   0  0  0  0  0  0  0  0  0  0  0  0
  1  2  1  0
  2  3  1  0
  2  4  1  0
  4  5  1  1
  5  6  1  0
  6  7  2  0
  6  8  1  0
  8  9  1  0
  9 10  1  0
 10 11  2  0
 10 12  1  0
 12 13  1  0
 13 14  1  1
 14 15  1  0
 15 16  2  0
 16 17  1  0
 17 18  2  0
 18 19  1  0
 19 20  2  0
 20 21  1  0
 21 22  2  0
 22 23  1  0
 13 24  1  0
 24 25  2  0
  4 26  1  0
 26 27  2  0
 27 28  1  0
 28 29  2  0
 29 30  1  0
 29 31  1  0
 31 32  2  0
 24  9  1  0
 32 26  1  0
 23 15  1  0
 21 16  1  0
M  CHG  1  22   1
M  END
>  <Compound_ID>  (153) 
C64353004

>  <Active>  (153) 
0.0

>  <Smiles>  (153) 
CC(C)[C@H](NC(=O)CN1C(=O)N[C@@H](CC2=c3ccccc3=[NH+]C2)C1=O)c1ccc(F)cc1

>  <canonical_smi>  (153) 
CC(C)[C@H](NC(=O)CN1C(=O)N[C@@H](CC2=c3ccccc3=[NH+]C2)C1=O)c1ccc(F)cc1

>  <Set>  (153) 
G2 inactive

>  <Set_type>  (153) 
Train

>  <MW>  (153) 
437.5

>  <HBD>  (153) 
3

>  <HBA>  (153) 
3

>  <NRB>  (153) 
7

>  <NR>  (153) 
4

>  <NAR>  (153) 
2

>  <PSA>  (153) 
92.48

>  <Standard Type>  (153) 
nan

>  <Standard Relation>  (153) 
nan

>  <Standard Units>  (153) 
nan

>  <Standard Value>  (153) 
nan

>  <Assay ChEMBL ID>  (153) 
nan

>  <Assay Description>  (153) 
nan

>  <BAO Label>  (153) 
nan

$$$$

     RDKit          2D

 36 40  0  0  0  0  0  0  0  0999 V2000
    5.2500   -9.0933    0.0000 C   0  0  0  0  0  0  0  0  0  0  0  0
    3.7500   -9.0933    0.0000 C   0  0  0  0  0  0  0  0  0  0  0  0
    3.0000   -7.7942    0.0000 N   0  0  0  0  0  4  0  0  0  0  0  0
    1.5000   -7.7942    0.0000 C   0  0  0  0  0  0  0  0  0  0  0  0
    0.7500   -6.4952    0.0000 C   0  0  0  0  0  0  0  0  0  0  0  0
    1.5000   -5.1962    0.0000 N   0  0  0  0  0  0  0  0  0  0  0  0
    0.7500   -3.8971    0.0000 C   0  0  0  0  0  0  0  0  0  0  0  0
    1.5000   -2.5981    0.0000 N   0  0  0  0  0  0  0  0  0  0  0  0
    0.7500   -1.2990    0.0000 C   0  0  0  0  0  0  0  0  0  0  0  0
    1.5000    0.0000    0.0000 C   0  0  0  0  0  0  0  0  0  0  0  0
    0.7500    1.2990    0.0000 C   0  0  0  0  0  0  0  0  0  0  0  0
   -0.7500    1.2990    0.0000 C   0  0  0  0  0  0  0  0  0  0  0  0
   -1.5000    2.5981    0.0000 C   0  0  0  0  0  0  0  0  0  0  0  0
   -1.5000    0.0000    0.0000 C   0  0  0  0  0  0  0  0  0  0  0  0
   -0.7500   -1.2990    0.0000 N   0  0  0  0  0  0  0  0  0  0  0  0
   -1.5000   -2.5981    0.0000 C   0  0  0  0  0  0  0  0  0  0  0  0
   -3.0000   -2.5981    0.0000 O   0  0  0  0  0  0  0  0  0  0  0  0
   -0.7500   -3.8971    0.0000 C   0  0  0  0  0  0  0  0  0  0  0  0
   -1.5000   -5.1962    0.0000 C   0  0  0  0  0  0  0  0  0  0  0  0
   -3.0000   -5.1962    0.0000 C   0  0  0  0  0  0  0  0  0  0  0  0
   -3.8817   -3.9826    0.0000 S   0  0  0  0  0  0  0  0  0  0  0  0
   -5.3083   -4.4462    0.0000 C   0  0  0  0  0  0  0  0  0  0  0  0
   -6.5218   -3.5645    0.0000 S   0  0  0  0  0  0  0  0  0  0  0  0
   -5.3083   -5.9462    0.0000 N   0  0  0  0  0  0  0  0  0  0  0  0
   -6.5218   -6.8278    0.0000 C   0  0  0  0  0  0  0  0  0  0  0  0
   -6.3650   -8.3196    0.0000 C   0  0  0  0  0  0  0  0  0  0  0  0
   -4.9947   -8.9297    0.0000 C   0  0  0  0  0  0  0  0  0  0  0  0
   -4.8379  -10.4215    0.0000 C   0  0  0  0  0  0  0  0  0  0  0  0
   -6.0514  -11.3032    0.0000 C   0  0  0  0  0  0  0  0  0  0  0  0
   -5.8946  -12.7950    0.0000 C   0  0  0  0  0  0  0  0  0  0  0  0
   -7.4217  -10.6931    0.0000 C   0  0  0  0  0  0  0  0  0  0  0  0
   -7.5785   -9.2013    0.0000 C   0  0  0  0  0  0  0  0  0  0  0  0
   -3.8817   -6.4097    0.0000 C   0  0  0  0  0  0  0  0  0  0  0  0
   -3.4182   -7.8363    0.0000 O   0  0  0  0  0  0  0  0  0  0  0  0
    3.0000   -5.1962    0.0000 C   0  0  0  0  0  0  0  0  0  0  0  0
    3.7500   -6.4952    0.0000 C   0  0  0  0  0  0  0  0  0  0  0  0
  1  2  1  0
  2  3  1  0
  3  4  1  0
  4  5  1  0
  5  6  1  0
  6  7  1  0
  7  8  1  0
  8  9  2  0
  9 10  1  0
 10 11  2  0
 11 12  1  0
 12 13  1  0
 12 14  2  0
 14 15  1  0
 15 16  1  0
 16 17  2  0
 16 18  1  0
 18 19  1  0
 19 20  2  0
 20 21  1  0
 21 22  1  0
 22 23  2  0
 22 24  1  0
 24 25  1  0
 25 26  1  0
 26 27  2  0
 27 28  1  0
 28 29  2  0
 29 30  1  0
 29 31  1  0
 31 32  2  0
 24 33  1  0
 33 34  2  0
  6 35  1  0
 35 36  1  0
 36  3  1  0
 18  7  2  0
 33 20  1  0
 15  9  1  0
 32 26  1  0
M  CHG  1   3   1
M  END
>  <Compound_ID>  (154) 
C08858076

>  <Active>  (154) 
0.0

>  <Smiles>  (154) 
CC[NH+]1CCN(c2nc3ccc(C)cn3c(=O)c2/C=C2\SC(=S)N(Cc3ccc(C)cc3)C2=O)CC1

>  <canonical_smi>  (154) 
CC[NH+]1CCN(c2nc3ccc(C)cn3c(=O)c2/C=C2\SC(=S)N(Cc3ccc(C)cc3)C2=O)CC1

>  <Set>  (154) 
G2 inactive

>  <Set_type>  (154) 
Train

>  <MW>  (154) 
520.7

>  <HBD>  (154) 
1

>  <HBA>  (154) 
6

>  <NRB>  (154) 
5

>  <NR>  (154) 
5

>  <NAR>  (154) 
3

>  <PSA>  (154) 
62.36

>  <Standard Type>  (154) 
nan

>  <Standard Relation>  (154) 
nan

>  <Standard Units>  (154) 
nan

>  <Standard Value>  (154) 
nan

>  <Assay ChEMBL ID>  (154) 
nan

>  <Assay Description>  (154) 
nan

>  <BAO Label>  (154) 
nan

$$$$

     RDKit          2D

 32 36  0  0  0  0  0  0  0  0999 V2000
    7.1213    3.7108    0.0000 Br  0  0  0  0  0  0  0  0  0  0  0  0
    7.2781    5.2026    0.0000 C   0  0  0  0  0  0  0  0  0  0  0  0
    8.6484    5.8127    0.0000 C   0  0  0  0  0  0  0  0  0  0  0  0
    8.8052    7.3045    0.0000 C   0  0  0  0  0  0  0  0  0  0  0  0
    7.5917    8.1862    0.0000 C   0  0  0  0  0  0  0  0  0  0  0  0
    6.2213    7.5761    0.0000 C   0  0  0  0  0  0  0  0  0  0  0  0
    5.0078    8.4577    0.0000 C   0  0  0  0  0  0  0  0  0  0  0  0
    3.6375    7.8476    0.0000 N   0  0  0  0  0  4  0  0  0  0  0  0
    2.4240    8.7293    0.0000 C   0  0  0  0  0  0  0  0  0  0  0  0
    1.0537    8.1192    0.0000 C   0  0  0  0  0  0  0  0  0  0  0  0
   -0.2454    8.8692    0.0000 C   0  0  0  0  0  0  0  0  0  0  0  0
   -1.3601    7.8655    0.0000 C   0  0  0  0  0  0  0  0  0  0  0  0
   -0.7500    6.4952    0.0000 C   0  0  0  0  0  0  0  0  0  0  0  0
    0.7418    6.6520    0.0000 N   0  0  0  0  0  0  0  0  0  0  0  0
    1.7455    5.5373    0.0000 C   0  0  0  0  0  0  0  0  0  0  0  0
    3.2373    5.6941    0.0000 N   0  0  0  0  0  0  0  0  0  0  0  0
    3.8474    4.3237    0.0000 N   0  0  0  0  0  0  0  0  0  0  0  0
    2.7326    3.3200    0.0000 C   0  0  0  0  0  0  0  0  0  0  0  0
    2.8894    1.8283    0.0000 N   0  0  0  0  0  0  0  0  0  0  0  0
    4.2598    1.2182    0.0000 C   0  0  0  0  0  0  0  0  0  0  0  0
    4.4166   -0.2736    0.0000 C   0  0  0  0  0  0  0  0  0  0  0  0
    3.2030   -1.1553    0.0000 N   0  0  0  0  0  0  0  0  0  0  0  0
    3.3598   -2.6471    0.0000 C   0  0  0  0  0  0  0  0  0  0  0  0
    4.7301   -3.2572    0.0000 C   0  0  0  0  0  0  0  0  0  0  0  0
    4.8869   -4.7490    0.0000 C   0  0  0  0  0  0  0  0  0  0  0  0
    3.6734   -5.6307    0.0000 C   0  0  0  0  0  0  0  0  0  0  0  0
    2.3031   -5.0205    0.0000 C   0  0  0  0  0  0  0  0  0  0  0  0
    2.1463   -3.5288    0.0000 C   0  0  0  0  0  0  0  0  0  0  0  0
    1.8327   -0.5452    0.0000 C   0  0  0  0  0  0  0  0  0  0  0  0
    1.6759    0.9466    0.0000 C   0  0  0  0  0  0  0  0  0  0  0  0
    1.4336    4.0700    0.0000 S   0  0  0  0  0  0  0  0  0  0  0  0
    6.0645    6.0843    0.0000 C   0  0  0  0  0  0  0  0  0  0  0  0
  1  2  1  0
  2  3  2  0
  3  4  1  0
  4  5  2  0
  5  6  1  0
  6  7  1  0
  7  8  1  0
  8  9  1  0
  9 10  1  0
 10 11  2  0
 11 12  1  0
 12 13  2  0
 13 14  1  0
 14 15  1  0
 15 16  2  0
 16 17  1  0
 17 18  2  0
 18 19  1  0
 19 20  1  0
 20 21  1  0
 21 22  1  0
 22 23  1  0
 23 24  2  0
 24 25  1  0
 25 26  2  0
 26 27  1  0
 27 28  2  0
 22 29  1  0
 29 30  1  0
 18 31  1  0
  6 32  2  0
 32  2  1  0
 14 10  1  0
 31 15  1  0
 30 19  1  0
 28 23  1  0
M  CHG  1   8   1
M  END
>  <Compound_ID>  (155) 
C09228479

>  <Active>  (155) 
0.0

>  <Smiles>  (155) 
Brc1cccc(C[NH2+]Cc2cccn2-c2nnc(N3CCN(c4ccccc4)CC3)s2)c1

>  <canonical_smi>  (155) 
Brc1cccc(C[NH2+]Cc2cccn2-c2nnc(N3CCN(c4ccccc4)CC3)s2)c1

>  <Set>  (155) 
G2 inactive

>  <Set_type>  (155) 
Train

>  <MW>  (155) 
510.49

>  <HBD>  (155) 
1

>  <HBA>  (155) 
4

>  <NRB>  (155) 
7

>  <NR>  (155) 
5

>  <NAR>  (155) 
4

>  <PSA>  (155) 
53.8

>  <Standard Type>  (155) 
nan

>  <Standard Relation>  (155) 
nan

>  <Standard Units>  (155) 
nan

>  <Standard Value>  (155) 
nan

>  <Assay ChEMBL ID>  (155) 
nan

>  <Assay Description>  (155) 
nan

>  <BAO Label>  (155) 
nan

$$$$

     RDKit          2D

 36 40  0  0  0  0  0  0  0  0999 V2000
   -5.4912    4.7648    0.0000 O   0  0  0  0  0  0  0  0  0  0  0  0
   -5.1793    6.2320    0.0000 C   0  0  0  0  0  0  0  0  0  0  0  0
   -6.2940    7.2357    0.0000 C   0  0  0  0  0  0  0  0  0  0  0  0
   -7.7612    6.9238    0.0000 C   0  0  0  0  0  0  0  0  0  0  0  0
   -8.5112    8.2229    0.0000 C   0  0  0  0  0  0  0  0  0  0  0  0
   -7.5075    9.3376    0.0000 C   0  0  0  0  0  0  0  0  0  0  0  0
   -6.1372    8.7275    0.0000 O   0  0  0  0  0  0  0  0  0  0  0  0
   -3.7527    6.6955    0.0000 N   0  0  0  0  0  0  0  0  0  0  0  0
   -3.4408    8.1628    0.0000 C   0  0  0  0  0  0  0  0  0  0  0  0
   -4.5556    9.1664    0.0000 C   0  0  0  0  0  0  0  0  0  0  0  0
   -4.2437   10.6337    0.0000 N   0  0  0  0  0  4  0  0  0  0  0  0
   -5.2474   11.7484    0.0000 C   0  0  0  0  0  0  0  0  0  0  0  0
   -4.4974   13.0474    0.0000 C   0  0  0  0  0  0  0  0  0  0  0  0
   -3.0302   12.7356    0.0000 C   0  0  0  0  0  0  0  0  0  0  0  0
   -2.8734   11.2438    0.0000 C   0  0  0  0  0  0  0  0  0  0  0  0
   -2.6380    5.6918    0.0000 C   0  0  0  0  0  0  0  0  0  0  0  0
   -2.9499    4.2246    0.0000 C   0  0  0  0  0  0  0  0  0  0  0  0
   -4.3764    3.7611    0.0000 O   0  0  0  0  0  0  0  0  0  0  0  0
   -1.8351    3.2209    0.0000 N   0  0  0  0  0  0  0  0  0  0  0  0
   -0.4086    3.6844    0.0000 C   0  0  0  0  0  0  0  0  0  0  0  0
    0.7062    2.6807    0.0000 C   0  0  0  0  0  0  0  0  0  0  0  0
    0.3943    1.2135    0.0000 C   0  0  0  0  0  0  0  0  0  0  0  0
    1.2760    0.0000    0.0000 S   0  0  0  0  0  0  0  0  0  0  0  0
    0.3943   -1.2135    0.0000 C   0  0  0  0  0  0  0  0  0  0  0  0
   -1.0323   -0.7500    0.0000 C   0  0  0  0  0  0  0  0  0  0  0  0
   -1.0323    0.7500    0.0000 C   0  0  0  0  0  0  0  0  0  0  0  0
   -2.1470    1.7537    0.0000 C   0  0  0  0  0  0  0  0  0  0  0  0
   -3.5736    1.2902    0.0000 C   0  0  0  0  0  0  0  0  0  0  0  0
   -4.6883    2.2939    0.0000 O   0  0  0  0  0  0  0  0  0  0  0  0
   -6.1149    1.8303    0.0000 C   0  0  0  0  0  0  0  0  0  0  0  0
   -7.2296    2.8340    0.0000 C   0  0  0  0  0  0  0  0  0  0  0  0
   -8.6562    2.3705    0.0000 C   0  0  0  0  0  0  0  0  0  0  0  0
   -8.9681    0.9033    0.0000 C   0  0  0  0  0  0  0  0  0  0  0  0
  -10.3946    0.4398    0.0000 F   0  0  0  0  0  0  0  0  0  0  0  0
   -7.8533   -0.1004    0.0000 C   0  0  0  0  0  0  0  0  0  0  0  0
   -6.4268    0.3631    0.0000 C   0  0  0  0  0  0  0  0  0  0  0  0
  1  2  2  0
  2  3  1  0
  3  4  2  0
  4  5  1  0
  5  6  2  0
  6  7  1  0
  2  8  1  0
  8  9  1  0
  9 10  1  0
 10 11  1  0
 11 12  1  0
 12 13  1  0
 13 14  1  0
 14 15  1  0
  8 16  1  0
 16 17  1  0
 17 18  2  0
 17 19  1  0
 19 20  1  0
 20 21  1  0
 21 22  1  0
 22 23  1  0
 23 24  1  0
 24 25  2  0
 25 26  1  0
 26 27  1  0
 27 28  1  6
 28 29  1  0
 29 30  1  0
 30 31  2  0
 31 32  1  0
 32 33  2  0
 33 34  1  0
 33 35  1  0
 35 36  2  0
  7  3  1  0
 15 11  1  0
 27 19  1  0
 36 30  1  0
 26 22  2  0
M  CHG  1  11   1
M  END
>  <Compound_ID>  (156) 
C35742248

>  <Active>  (156) 
0.0

>  <Smiles>  (156) 
O=C(c1ccco1)N(CC[NH+]1CCCC1)CC(=O)N1CCc2sccc2[C@@H]1COc1ccc(F)cc1

>  <canonical_smi>  (156) 
O=C(c1ccco1)N(CC[NH+]1CCCC1)CC(=O)N1CCc2sccc2[C@@H]1COc1ccc(F)cc1

>  <Set>  (156) 
G2 inactive

>  <Set_type>  (156) 
Train

>  <MW>  (156) 
512.63

>  <HBD>  (156) 
1

>  <HBA>  (156) 
4

>  <NRB>  (156) 
9

>  <NR>  (156) 
5

>  <NAR>  (156) 
3

>  <PSA>  (156) 
67.43

>  <Standard Type>  (156) 
nan

>  <Standard Relation>  (156) 
nan

>  <Standard Units>  (156) 
nan

>  <Standard Value>  (156) 
nan

>  <Assay ChEMBL ID>  (156) 
nan

>  <Assay Description>  (156) 
nan

>  <BAO Label>  (156) 
nan

$$$$

     RDKit          2D

 27 30  0  0  0  0  0  0  0  0999 V2000
   -6.0000   -7.7942    0.0000 O   0  0  0  0  0  0  0  0  0  0  0  0
   -5.2500   -6.4952    0.0000 C   0  0  0  0  0  0  0  0  0  0  0  0
   -6.0000   -5.1962    0.0000 C   0  0  0  0  0  0  0  0  0  0  0  0
   -5.2500   -3.8971    0.0000 C   0  0  0  0  0  0  0  0  0  0  0  0
   -3.7500   -3.8971    0.0000 C   0  0  0  0  0  0  0  0  0  0  0  0
   -3.0000   -2.5981    0.0000 Br  0  0  0  0  0  0  0  0  0  0  0  0
   -3.0000   -5.1962    0.0000 C   0  0  0  0  0  0  0  0  0  0  0  0
   -1.5000   -5.1962    0.0000 C   0  0  0  0  0  0  0  0  0  0  0  0
   -0.7500   -6.4952    0.0000 N   0  0  0  0  0  0  0  0  0  0  0  0
   -1.5000   -7.7942    0.0000 C   0  0  0  0  0  0  0  0  0  0  0  0
   -3.0000   -7.7942    0.0000 C   0  0  0  0  0  0  0  0  0  0  0  0
   -3.7500   -9.0933    0.0000 C   0  0  0  0  0  0  0  0  0  0  0  0
   -3.0000  -10.3923    0.0000 C   0  0  0  0  0  0  0  0  0  0  0  0
   -1.5000  -10.3923    0.0000 C   0  0  0  0  0  0  0  0  0  0  0  0
   -0.7500   -9.0933    0.0000 N   0  0  0  0  0  4  0  0  0  0  0  0
   -0.7500   -3.8971    0.0000 C   0  0  0  0  0  0  0  0  0  0  0  0
   -1.5000   -2.5981    0.0000 C   0  0  0  0  0  0  0  0  0  0  0  0
   -0.7500   -1.2990    0.0000 C   0  0  0  0  0  0  0  0  0  0  0  0
    0.7500   -1.2990    0.0000 C   0  0  0  0  0  0  0  0  0  0  0  0
    1.5000    0.0000    0.0000 C   0  0  0  0  0  0  0  0  0  0  0  0
    3.0000    0.0000    0.0000 C   0  0  0  0  0  0  0  0  0  0  0  0
    3.7500   -1.2990    0.0000 C   0  0  0  0  0  0  0  0  0  0  0  0
    3.0000   -2.5981    0.0000 N   0  0  0  0  0  0  0  0  0  0  0  0
    1.5000   -2.5981    0.0000 C   0  0  0  0  0  0  0  0  0  0  0  0
    0.7500   -3.8971    0.0000 C   0  0  0  0  0  0  0  0  0  0  0  0
    1.5000   -5.1962    0.0000 O   0  0  0  0  0  0  0  0  0  0  0  0
   -3.7500   -6.4952    0.0000 C   0  0  0  0  0  0  0  0  0  0  0  0
  1  2  1  0
  2  3  2  0
  3  4  1  0
  4  5  2  0
  5  6  1  0
  5  7  1  0
  7  8  1  0
  8  9  1  6
  9 10  1  0
 10 11  2  0
 11 12  1  0
 12 13  2  0
 13 14  1  0
 14 15  2  0
  8 16  1  0
 16 17  2  0
 17 18  1  0
 18 19  2  0
 19 20  1  0
 20 21  2  0
 21 22  1  0
 22 23  2  0
 23 24  1  0
 24 25  2  0
 25 26  1  0
  7 27  2  0
 27  2  1  0
 15 10  1  0
 25 16  1  0
 24 19  1  0
M  CHG  1  15   1
M  END
>  <Compound_ID>  (157) 
C15015559

>  <Active>  (157) 
0.0

>  <Smiles>  (157) 
Oc1ccc(Br)c([C@@H](Nc2cccc[nH+]2)c2ccc3cccnc3c2O)c1

>  <canonical_smi>  (157) 
Oc1ccc(Br)c([C@@H](Nc2cccc[nH+]2)c2ccc3cccnc3c2O)c1

>  <Set>  (157) 
G2 inactive

>  <Set_type>  (157) 
Train

>  <MW>  (157) 
423.29

>  <HBD>  (157) 
3

>  <HBA>  (157) 
4

>  <NRB>  (157) 
4

>  <NR>  (157) 
4

>  <NAR>  (157) 
4

>  <PSA>  (157) 
79.52

>  <Standard Type>  (157) 
nan

>  <Standard Relation>  (157) 
nan

>  <Standard Units>  (157) 
nan

>  <Standard Value>  (157) 
nan

>  <Assay ChEMBL ID>  (157) 
nan

>  <Assay Description>  (157) 
nan

>  <BAO Label>  (157) 
nan

$$$$

     RDKit          2D

 27 31  0  0  0  0  0  0  0  0999 V2000
    4.1019   12.3107    0.0000 O   0  0  0  0  0  0  0  0  0  0  0  0
    4.4138   10.8435    0.0000 C   0  0  0  0  0  0  0  0  0  0  0  0
    3.2990    9.8398    0.0000 C   0  0  0  0  0  0  0  0  0  0  0  0
    3.6109    8.3726    0.0000 C   0  0  0  0  0  0  0  0  0  0  0  0
    2.4962    7.3689    0.0000 N   0  0  0  0  0  0  0  0  0  0  0  0
    2.8081    5.9017    0.0000 C   0  0  0  0  0  0  0  0  0  0  0  0
    4.2346    5.4381    0.0000 N   0  0  0  0  0  0  0  0  0  0  0  0
    4.5465    3.9709    0.0000 C   0  0  0  0  0  0  0  0  0  0  0  0
    3.4318    2.9672    0.0000 N   0  0  0  0  0  0  0  0  0  0  0  0
    2.0052    3.4307    0.0000 C   0  0  0  0  0  0  0  0  0  0  0  0
    1.6933    4.8980    0.0000 C   0  0  0  0  0  0  0  0  0  0  0  0
    0.2016    5.0548    0.0000 S   0  0  0  0  0  0  0  0  0  0  0  0
   -0.4086    3.6844    0.0000 C   0  0  0  0  0  0  0  0  0  0  0  0
   -1.8351    3.2209    0.0000 N   0  0  0  0  0  4  0  0  0  0  0  0
   -2.1470    1.7537    0.0000 C   0  0  0  0  0  0  0  0  0  0  0  0
   -3.5736    1.2902    0.0000 N   0  0  0  0  0  0  0  0  0  0  0  0
   -4.6883    2.2939    0.0000 C   0  0  0  0  0  0  0  0  0  0  0  0
   -6.1149    1.8303    0.0000 C   0  0  0  0  0  0  0  0  0  0  0  0
   -6.4268    0.3631    0.0000 O   0  0  0  0  0  0  0  0  0  0  0  0
   -5.3120   -0.6406    0.0000 C   0  0  0  0  0  0  0  0  0  0  0  0
   -3.8855   -0.1771    0.0000 C   0  0  0  0  0  0  0  0  0  0  0  0
   -1.0323    0.7500    0.0000 C   0  0  0  0  0  0  0  0  0  0  0  0
    0.3943    1.2135    0.0000 C   0  0  0  0  0  0  0  0  0  0  0  0
    0.7062    2.6807    0.0000 C   0  0  0  0  0  0  0  0  0  0  0  0
    1.2760    0.0000    0.0000 C   0  0  0  0  0  0  0  0  0  0  0  0
    0.3943   -1.2135    0.0000 C   0  0  0  0  0  0  0  0  0  0  0  0
   -1.0323   -0.7500    0.0000 C   0  0  0  0  0  0  0  0  0  0  0  0
  1  2  1  0
  2  3  1  0
  3  4  1  0
  4  5  1  0
  5  6  1  0
  6  7  2  0
  7  8  1  0
  8  9  2  0
  9 10  1  0
 10 11  2  0
 11 12  1  0
 12 13  1  0
 13 14  2  0
 14 15  1  0
 15 16  1  0
 16 17  1  0
 17 18  1  0
 18 19  1  0
 19 20  1  0
 20 21  1  0
 15 22  2  0
 22 23  1  0
 23 24  2  0
 23 25  1  0
 25 26  1  0
 26 27  1  0
 11  6  1  0
 24 13  1  0
 24 10  1  0
 21 16  1  0
 27 22  1  0
M  CHG  1  14   1
M  END
>  <Compound_ID>  (158) 
C02372382

>  <Active>  (158) 
0.0

>  <Smiles>  (158) 
OCCCNc1ncnc2c1sc1[nH+]c(N3CCOCC3)c3c(c12)CCC3

>  <canonical_smi>  (158) 
OCCCNc1ncnc2c1sc1[nH+]c(N3CCOCC3)c3c(c12)CCC3

>  <Set>  (158) 
G2 inactive

>  <Set_type>  (158) 
Train

>  <MW>  (158) 
386.5

>  <HBD>  (158) 
2

>  <HBA>  (158) 
6

>  <NRB>  (158) 
5

>  <NR>  (158) 
5

>  <NAR>  (158) 
3

>  <PSA>  (158) 
84.65

>  <Standard Type>  (158) 
nan

>  <Standard Relation>  (158) 
nan

>  <Standard Units>  (158) 
nan

>  <Standard Value>  (158) 
nan

>  <Assay ChEMBL ID>  (158) 
nan

>  <Assay Description>  (158) 
nan

>  <BAO Label>  (158) 
nan

$$$$

     RDKit          2D

 28 31  0  0  0  0  0  0  0  0999 V2000
    1.2064  -13.2657    0.0000 C   0  0  0  0  0  0  0  0  0  0  0  0
    1.0496  -11.7739    0.0000 O   0  0  0  0  0  0  0  0  0  0  0  0
   -0.3207  -11.1638    0.0000 C   0  0  0  0  0  0  0  0  0  0  0  0
   -1.5342  -12.0455    0.0000 C   0  0  0  0  0  0  0  0  0  0  0  0
   -2.9046  -11.4354    0.0000 C   0  0  0  0  0  0  0  0  0  0  0  0
   -3.0613   -9.9436    0.0000 C   0  0  0  0  0  0  0  0  0  0  0  0
   -1.8478   -9.0619    0.0000 C   0  0  0  0  0  0  0  0  0  0  0  0
   -2.0046   -7.5702    0.0000 C   0  0  0  0  0  0  0  0  0  0  0  0
   -3.3037   -6.8202    0.0000 N   0  0  0  0  0  0  0  0  0  0  0  0
   -2.9918   -5.3529    0.0000 O   0  0  0  0  0  0  0  0  0  0  0  0
   -1.5000   -5.1962    0.0000 C   0  0  0  0  0  0  0  0  0  0  0  0
   -0.7500   -3.8971    0.0000 C   0  0  0  0  0  0  0  0  0  0  0  0
    0.7500   -3.8971    0.0000 C   0  0  0  0  0  0  0  0  0  0  0  0
    1.5000   -5.1962    0.0000 O   0  0  0  0  0  0  0  0  0  0  0  0
    1.5000   -2.5981    0.0000 N   0  0  0  0  0  4  0  0  0  0  0  0
    0.7500   -1.2990    0.0000 C   0  0  0  0  0  0  0  0  0  0  0  0
    1.5000    0.0000    0.0000 C   0  0  0  0  0  0  0  0  0  0  0  0
    0.7500    1.2990    0.0000 C   0  0  0  0  0  0  0  0  0  0  0  0
   -0.7500    1.2990    0.0000 C   0  0  0  0  0  0  0  0  0  0  0  0
   -1.5000    2.5981    0.0000 C   0  0  0  0  0  0  0  0  0  0  0  0
   -1.5000    0.0000    0.0000 C   0  0  0  0  0  0  0  0  0  0  0  0
   -0.7500   -1.2990    0.0000 C   0  0  0  0  0  0  0  0  0  0  0  0
   -1.5000   -2.5981    0.0000 C   0  0  0  0  0  0  0  0  0  0  0  0
   -3.0000   -2.5981    0.0000 O   0  0  0  0  0  0  0  0  0  0  0  0
   -0.8899   -6.5665    0.0000 N   0  0  0  0  0  0  0  0  0  0  0  0
   -0.4775   -9.6721    0.0000 C   0  0  0  0  0  0  0  0  0  0  0  0
    0.7360   -8.7904    0.0000 O   0  0  0  0  0  0  0  0  0  0  0  0
    2.1063   -9.4005    0.0000 C   0  0  0  0  0  0  0  0  0  0  0  0
  1  2  1  0
  2  3  1  0
  3  4  2  0
  4  5  1  0
  5  6  2  0
  6  7  1  0
  7  8  1  0
  8  9  2  0
  9 10  1  0
 10 11  1  0
 11 12  1  0
 12 13  1  6
 13 14  2  0
 13 15  1  0
 15 16  2  0
 16 17  1  0
 17 18  2  0
 18 19  1  0
 19 20  1  0
 19 21  2  0
 21 22  1  0
 22 23  2  0
 23 24  1  0
 11 25  1  1
  7 26  2  0
 26 27  1  0
 27 28  1  0
 26  3  1  0
 25  8  1  0
 23 12  1  0
 22 16  1  0
M  CHG  1  15   1
M  END
>  <Compound_ID>  (159) 
C65248649

>  <Active>  (159) 
0.0

>  <Smiles>  (159) 
COc1cccc(C2=NO[C@@H]([C@H]3C(=O)[NH+]=c4ccc(C)cc4=C3O)N2)c1OC

>  <canonical_smi>  (159) 
COc1cccc(C2=NO[C@@H]([C@H]3C(=O)[NH+]=c4ccc(C)cc4=C3O)N2)c1OC

>  <Set>  (159) 
G2 inactive

>  <Set_type>  (159) 
Train

>  <MW>  (159) 
382.4

>  <HBD>  (159) 
3

>  <HBA>  (159) 
6

>  <NRB>  (159) 
4

>  <NR>  (159) 
4

>  <NAR>  (159) 
2

>  <PSA>  (159) 
103.35

>  <Standard Type>  (159) 
nan

>  <Standard Relation>  (159) 
nan

>  <Standard Units>  (159) 
nan

>  <Standard Value>  (159) 
nan

>  <Assay ChEMBL ID>  (159) 
nan

>  <Assay Description>  (159) 
nan

>  <BAO Label>  (159) 
nan

$$$$

     RDKit          2D

 34 37  0  0  0  0  0  0  0  0999 V2000
   -4.3786   -5.1199    0.0000 C   0  0  0  0  0  0  0  0  0  0  0  0
   -2.9520   -4.6564    0.0000 C   0  0  0  0  0  0  0  0  0  0  0  0
   -2.6401   -3.1891    0.0000 C   0  0  0  0  0  0  0  0  0  0  0  0
   -1.2135   -2.7256    0.0000 N   0  0  0  0  0  0  0  0  0  0  0  0
   -0.0000   -3.6073    0.0000 C   0  0  0  0  0  0  0  0  0  0  0  0
   -0.0000   -5.1073    0.0000 N   0  0  0  0  0  0  0  0  0  0  0  0
    1.2990   -5.8573    0.0000 C   0  0  0  0  0  0  0  0  0  0  0  0
    2.5981   -5.1073    0.0000 O   0  0  0  0  0  0  0  0  0  0  0  0
    1.2990   -7.3573    0.0000 C   0  0  0  0  0  0  0  0  0  0  0  0
   -0.0000   -8.1073    0.0000 C   0  0  0  0  0  0  0  0  0  0  0  0
   -0.0000   -9.6073    0.0000 C   0  0  0  0  0  0  0  0  0  0  0  0
    1.2990  -10.3573    0.0000 C   0  0  0  0  0  0  0  0  0  0  0  0
    2.5981   -9.6073    0.0000 C   0  0  0  0  0  0  0  0  0  0  0  0
    2.5981   -8.1073    0.0000 C   0  0  0  0  0  0  0  0  0  0  0  0
    3.8971   -7.3573    0.0000 N   0  0  0  0  0  0  0  0  0  0  0  0
    5.1962   -8.1073    0.0000 S   0  0  0  0  0  0  0  0  0  0  0  0
    4.4462   -9.4063    0.0000 O   0  0  0  0  0  0  0  0  0  0  0  0
    5.9462   -6.8083    0.0000 O   0  0  0  0  0  0  0  0  0  0  0  0
    6.4952   -8.8573    0.0000 C   0  0  0  0  0  0  0  0  0  0  0  0
    6.4952  -10.3573    0.0000 C   0  0  0  0  0  0  0  0  0  0  0  0
    7.7942  -11.1073    0.0000 C   0  0  0  0  0  0  0  0  0  0  0  0
    9.0933  -10.3573    0.0000 C   0  0  0  0  0  0  0  0  0  0  0  0
    9.0933   -8.8573    0.0000 C   0  0  0  0  0  0  0  0  0  0  0  0
    7.7942   -8.1073    0.0000 C   0  0  0  0  0  0  0  0  0  0  0  0
    1.2135   -2.7256    0.0000 S   0  0  0  0  0  0  0  0  0  0  0  0
    0.7500   -1.2990    0.0000 C   0  0  0  0  0  0  0  0  0  0  0  0
    1.5000    0.0000    0.0000 C   0  0  0  0  0  0  0  0  0  0  0  0
    3.0000    0.0000    0.0000 Cl  0  0  0  0  0  0  0  0  0  0  0  0
    0.7500    1.2990    0.0000 C   0  0  0  0  0  0  0  0  0  0  0  0
   -0.7500    1.2990    0.0000 C   0  0  0  0  0  0  0  0  0  0  0  0
   -1.5000    0.0000    0.0000 C   0  0  0  0  0  0  0  0  0  0  0  0
   -3.0000    0.0000    0.0000 O   0  0  0  0  0  0  0  0  0  0  0  0
   -3.7500    1.2990    0.0000 C   0  0  0  0  0  0  0  0  0  0  0  0
   -0.7500   -1.2990    0.0000 C   0  0  0  0  0  0  0  0  0  0  0  0
  1  2  2  0
  2  3  1  0
  3  4  1  0
  4  5  1  0
  5  6  2  0
  6  7  1  0
  7  8  2  0
  7  9  1  0
  9 10  2  0
 10 11  1  0
 11 12  2  0
 12 13  1  0
 13 14  2  0
 14 15  1  0
 15 16  1  0
 16 17  2  0
 16 18  2  0
 16 19  1  0
 19 20  2  0
 20 21  1  0
 21 22  2  0
 22 23  1  0
 23 24  2  0
  5 25  1  0
 25 26  1  0
 26 27  2  0
 27 28  1  0
 27 29  1  0
 29 30  2  0
 30 31  1  0
 31 32  1  0
 32 33  1  0
 31 34  2  0
 34  4  1  0
 14  9  1  0
 24 19  1  0
 34 26  1  0
M  END
>  <Compound_ID>  (160) 
C09325754

>  <Active>  (160) 
0.0

>  <Smiles>  (160) 
C=CCn1/c(=N/C(=O)c2ccccc2NS(=O)(=O)c2ccccc2)sc2c(Cl)ccc(OC)c21

>  <canonical_smi>  (160) 
C=CCn1/c(=N/C(=O)c2ccccc2NS(=O)(=O)c2ccccc2)sc2c(Cl)ccc(OC)c21

>  <Set>  (160) 
G2 inactive

>  <Set_type>  (160) 
Train

>  <MW>  (160) 
514.03

>  <HBD>  (160) 
1

>  <HBA>  (160) 
4

>  <NRB>  (160) 
7

>  <NR>  (160) 
4

>  <NAR>  (160) 
4

>  <PSA>  (160) 
89.76

>  <Standard Type>  (160) 
nan

>  <Standard Relation>  (160) 
nan

>  <Standard Units>  (160) 
nan

>  <Standard Value>  (160) 
nan

>  <Assay ChEMBL ID>  (160) 
nan

>  <Assay Description>  (160) 
nan

>  <BAO Label>  (160) 
nan

$$$$

     RDKit          2D

 31 35  0  0  0  0  0  0  0  0999 V2000
   -1.1147    0.6598    0.0000 C   0  0  0  0  0  0  0  0  0  0  0  0
   -2.3282   -0.2219    0.0000 C   0  0  0  0  0  0  0  0  0  0  0  0
   -3.7548    0.2416    0.0000 N   0  0  0  0  0  0  0  0  0  0  0  0
   -4.6365   -0.9719    0.0000 N   0  0  0  0  0  0  0  0  0  0  0  0
   -3.7548   -2.1855    0.0000 C   0  0  0  0  0  0  0  0  0  0  0  0
   -4.0667   -3.6527    0.0000 O   0  0  0  0  0  0  0  0  0  0  0  0
   -2.9520   -4.6564    0.0000 C   0  0  0  0  0  0  0  0  0  0  0  0
   -3.2638   -6.1236    0.0000 N   0  0  0  0  0  0  0  0  0  0  0  0
   -1.5254   -4.1928    0.0000 C   0  0  0  0  0  0  0  0  0  0  0  0
   -0.4107   -5.1965    0.0000 C   0  0  0  0  0  0  0  0  0  0  0  0
    0.7040   -6.2002    0.0000 N   0  0  0  0  0  0  0  0  0  0  0  0
   -1.2135   -2.7256    0.0000 C   0  0  0  0  0  0  0  0  0  0  0  0
   -0.0000   -3.6073    0.0000 C   0  0  0  0  0  0  0  0  0  0  0  0
    0.2940   -4.7862    0.0000 O   0  0  0  0  0  0  0  0  0  0  0  0
    1.2135   -2.7256    0.0000 N   0  0  0  0  0  0  0  0  0  0  0  0
    2.6401   -3.1891    0.0000 C   0  0  0  0  0  0  0  0  0  0  0  0
    2.9520   -4.6564    0.0000 C   0  0  0  0  0  0  0  0  0  0  0  0
    4.3786   -5.1199    0.0000 C   0  0  0  0  0  0  0  0  0  0  0  0
    4.6904   -6.5871    0.0000 C   0  0  0  0  0  0  0  0  0  0  0  0
    3.5757   -7.5908    0.0000 C   0  0  0  0  0  0  0  0  0  0  0  0
    3.8876   -9.0580    0.0000 C   0  0  0  0  0  0  0  0  0  0  0  0
    5.3142   -9.5216    0.0000 C   0  0  0  0  0  0  0  0  0  0  0  0
    6.4289   -8.5179    0.0000 C   0  0  0  0  0  0  0  0  0  0  0  0
    6.1170   -7.0506    0.0000 C   0  0  0  0  0  0  0  0  0  0  0  0
    0.7500   -1.2990    0.0000 C   0  0  0  0  0  0  0  0  0  0  0  0
    1.5000    0.0000    0.0000 C   0  0  0  0  0  0  0  0  0  0  0  0
    0.7500    1.2990    0.0000 C   0  0  0  0  0  0  0  0  0  0  0  0
   -0.7500    1.2990    0.0000 C   0  0  0  0  0  0  0  0  0  0  0  0
   -1.5000    0.0000    0.0000 C   0  0  0  0  0  0  0  0  0  0  0  0
   -0.7500   -1.2990    0.0000 C   0  0  0  0  0  0  0  0  0  0  0  0
   -2.3282   -1.7219    0.0000 C   0  0  0  0  0  0  0  0  0  0  0  0
  1  2  1  0
  2  3  2  0
  3  4  1  0
  4  5  2  0
  5  6  1  0
  6  7  1  0
  7  8  1  0
  7  9  2  0
  9 10  1  0
 10 11  3  0
 12  9  1  6
 12 13  1  0
 13 14  2  0
 13 15  1  0
 15 16  1  0
 16 17  1  0
 17 18  1  0
 18 19  1  0
 19 20  2  0
 20 21  1  0
 21 22  2  0
 22 23  1  0
 23 24  2  0
 15 25  1  0
 25 26  2  0
 26 27  1  0
 27 28  2  0
 28 29  1  0
 29 30  2  0
 12 31  1  0
 31  2  1  6
 31  5  1  0
 30 12  1  0
 24 19  1  0
 30 25  1  0
M  END
>  <Compound_ID>  (161) 
C05164633

>  <Active>  (161) 
0.0

>  <Smiles>  (161) 
CC1=NN=C2OC(N)=C(C#N)[C@]3(C(=O)N(CCCc4ccccc4)c4ccccc43)[C@@H]12

>  <canonical_smi>  (161) 
CC1=NN=C2OC(N)=C(C#N)[C@]3(C(=O)N(CCCc4ccccc4)c4ccccc43)[C@@H]12

>  <Set>  (161) 
G2 inactive

>  <Set_type>  (161) 
Train

>  <MW>  (161) 
411.47

>  <HBD>  (161) 
1

>  <HBA>  (161) 
4

>  <NRB>  (161) 
4

>  <NR>  (161) 
5

>  <NAR>  (161) 
2

>  <PSA>  (161) 
104.07

>  <Standard Type>  (161) 
nan

>  <Standard Relation>  (161) 
nan

>  <Standard Units>  (161) 
nan

>  <Standard Value>  (161) 
nan

>  <Assay ChEMBL ID>  (161) 
nan

>  <Assay Description>  (161) 
nan

>  <BAO Label>  (161) 
nan

$$$$

     RDKit          2D

 26 29  0  0  0  0  0  0  0  0999 V2000
    7.1652   -9.6414    0.0000 C   0  0  0  0  0  0  0  0  0  0  0  0
    5.7949   -9.0313    0.0000 C   0  0  0  0  0  0  0  0  0  0  0  0
    4.5813   -9.9130    0.0000 C   0  0  0  0  0  0  0  0  0  0  0  0
    3.2110   -9.3029    0.0000 C   0  0  0  0  0  0  0  0  0  0  0  0
    1.9975  -10.1845    0.0000 C   0  0  0  0  0  0  0  0  0  0  0  0
    3.0542   -7.8111    0.0000 C   0  0  0  0  0  0  0  0  0  0  0  0
    4.2677   -6.9294    0.0000 C   0  0  0  0  0  0  0  0  0  0  0  0
    4.1110   -5.4376    0.0000 C   0  0  0  0  0  0  0  0  0  0  0  0
    2.7406   -4.8275    0.0000 N   0  0  0  0  0  0  0  0  0  0  0  0
    1.5271   -5.7092    0.0000 C   0  0  0  0  0  0  0  0  0  0  0  0
    1.6839   -7.2010    0.0000 O   0  0  0  0  0  0  0  0  0  0  0  0
    0.1568   -5.0991    0.0000 N   0  0  0  0  0  0  0  0  0  0  0  0
   -0.0000   -3.6073    0.0000 C   0  0  0  0  0  0  0  0  0  0  0  0
   -1.2135   -2.7256    0.0000 S   0  0  0  0  0  0  0  0  0  0  0  0
   -0.7500   -1.2990    0.0000 C   0  0  0  0  0  0  0  0  0  0  0  0
    0.7500   -1.2990    0.0000 C   0  0  0  0  0  0  0  0  0  0  0  0
    1.2135   -2.7256    0.0000 C   0  0  0  0  0  0  0  0  0  0  0  0
    2.5838   -3.3357    0.0000 C   0  0  0  0  0  0  0  0  0  0  0  0
    3.7974   -2.4540    0.0000 O   0  0  0  0  0  0  0  0  0  0  0  0
    1.5000    0.0000    0.0000 C   0  0  0  0  0  0  0  0  0  0  0  0
    0.7500    1.2990    0.0000 C   0  0  0  0  0  0  0  0  0  0  0  0
    0.4895    2.7762    0.0000 C   0  0  0  0  0  0  0  0  0  0  0  0
    2.1595    1.8121    0.0000 C   0  0  0  0  0  0  0  0  0  0  0  0
   -0.7500    1.2990    0.0000 O   0  0  0  0  0  0  0  0  0  0  0  0
   -1.5000    0.0000    0.0000 C   0  0  0  0  0  0  0  0  0  0  0  0
    5.6381   -7.5395    0.0000 C   0  0  0  0  0  0  0  0  0  0  0  0
  1  2  1  0
  2  3  2  0
  3  4  1  0
  4  5  1  0
  4  6  2  0
  6  7  1  0
  7  8  1  0
  8  9  1  0
  9 10  1  0
 10 11  2  0
 10 12  1  0
 12 13  1  0
 13 14  1  0
 14 15  1  0
 15 16  2  0
 16 17  1  0
 17 18  1  0
 18 19  2  0
 16 20  1  0
 20 21  1  0
 21 22  1  0
 21 23  1  0
 21 24  1  0
 24 25  1  0
  7 26  2  0
 26  2  1  0
 18  9  1  0
 17 13  2  0
 25 15  1  0
M  END
>  <Compound_ID>  (162) 
C34789385

>  <Active>  (162) 
0.0

>  <Smiles>  (162) 
Cc1cc(C)cc(Cn2c(=O)[nH]c3sc4c(c3c2=O)CC(C)(C)OC4)c1

>  <canonical_smi>  (162) 
Cc1cc(C)cc(Cn2c(=O)[nH]c3sc4c(c3c2=O)CC(C)(C)OC4)c1

>  <Set>  (162) 
G2 inactive

>  <Set_type>  (162) 
Train

>  <MW>  (162) 
370.47

>  <HBD>  (162) 
1

>  <HBA>  (162) 
3

>  <NRB>  (162) 
2

>  <NR>  (162) 
4

>  <NAR>  (162) 
3

>  <PSA>  (162) 
64.09

>  <Standard Type>  (162) 
nan

>  <Standard Relation>  (162) 
nan

>  <Standard Units>  (162) 
nan

>  <Standard Value>  (162) 
nan

>  <Assay ChEMBL ID>  (162) 
nan

>  <Assay Description>  (162) 
nan

>  <BAO Label>  (162) 
nan

$$$$

     RDKit          2D

 33 37  0  0  0  0  0  0  0  0999 V2000
   -5.4912    4.7648    0.0000 C   0  0  0  0  0  0  0  0  0  0  0  0
   -4.3764    3.7611    0.0000 C   0  0  0  0  0  0  0  0  0  0  0  0
   -2.9499    4.2246    0.0000 O   0  0  0  0  0  0  0  0  0  0  0  0
   -1.8351    3.2209    0.0000 C   0  0  0  0  0  0  0  0  0  0  0  0
   -2.1470    1.7537    0.0000 C   0  0  0  0  0  0  0  0  0  0  0  0
   -1.0323    0.7500    0.0000 C   0  0  0  0  0  0  0  0  0  0  0  0
    0.3943    1.2135    0.0000 C   0  0  0  0  0  0  0  0  0  0  0  0
    0.7062    2.6807    0.0000 C   0  0  0  0  0  0  0  0  0  0  0  0
   -0.4086    3.6844    0.0000 C   0  0  0  0  0  0  0  0  0  0  0  0
   -0.0967    5.1517    0.0000 N   0  0  0  0  0  0  0  0  0  0  0  0
    1.3299    5.6152    0.0000 C   0  0  0  0  0  0  0  0  0  0  0  0
    2.4446    4.6115    0.0000 O   0  0  0  0  0  0  0  0  0  0  0  0
    1.6418    7.0824    0.0000 C   0  0  0  0  0  0  0  0  0  0  0  0
    0.5271    8.0861    0.0000 C   0  0  0  0  0  0  0  0  0  0  0  0
    0.8389    9.5533    0.0000 C   0  0  0  0  0  0  0  0  0  0  0  0
   -0.2758   10.5570    0.0000 C   0  0  0  0  0  0  0  0  0  0  0  0
   -1.7430   10.2452    0.0000 C   0  0  0  0  0  0  0  0  0  0  0  0
   -2.4930   11.5442    0.0000 C   0  0  0  0  0  0  0  0  0  0  0  0
   -3.9848   11.7010    0.0000 C   0  0  0  0  0  0  0  0  0  0  0  0
   -1.4893   12.6589    0.0000 O   0  0  0  0  0  0  0  0  0  0  0  0
   -0.1190   12.0488    0.0000 C   0  0  0  0  0  0  0  0  0  0  0  0
    1.1800   12.7988    0.0000 C   0  0  0  0  0  0  0  0  0  0  0  0
    2.2655   10.0169    0.0000 N   0  0  0  0  0  0  0  0  0  0  0  0
    3.3802    9.0132    0.0000 C   0  0  0  0  0  0  0  0  0  0  0  0
    4.8720    9.1700    0.0000 O   0  0  0  0  0  0  0  0  0  0  0  0
    5.4821    7.7996    0.0000 N   0  0  0  0  0  0  0  0  0  0  0  0
    4.3674    6.7959    0.0000 C   0  0  0  0  0  0  0  0  0  0  0  0
    4.5242    5.3042    0.0000 C   0  0  0  0  0  0  0  0  0  0  0  0
    3.0684    7.5459    0.0000 C   0  0  0  0  0  0  0  0  0  0  0  0
    1.2760    0.0000    0.0000 O   0  0  0  0  0  0  0  0  0  0  0  0
    0.3943   -1.2135    0.0000 C   0  0  0  0  0  0  0  0  0  0  0  0
    0.8578   -2.6401    0.0000 C   0  0  0  0  0  0  0  0  0  0  0  0
   -1.0323   -0.7500    0.0000 C   0  0  0  0  0  0  0  0  0  0  0  0
  1  2  1  0
  2  3  1  0
  3  4  1  0
  4  5  2  0
  5  6  1  0
  6  7  2  0
  7  8  1  0
  8  9  2  0
  9 10  1  0
 10 11  1  0
 11 12  2  0
 11 13  1  0
 13 14  2  0
 14 15  1  0
 15 16  1  0
 16 17  1  0
 17 18  2  0
 18 19  1  0
 18 20  1  0
 20 21  1  0
 21 22  1  0
 15 23  2  0
 23 24  1  0
 24 25  1  0
 25 26  1  0
 26 27  2  0
 27 28  1  0
 27 29  1  0
  7 30  1  0
 30 31  1  0
 31 32  1  1
 31 33  1  0
  9  4  1  0
 29 13  1  0
 33  6  1  0
 21 16  2  0
 29 24  2  0
M  END
>  <Compound_ID>  (163) 
C22327448

>  <Active>  (163) 
0.0

>  <Smiles>  (163) 
CCOc1cc2c(cc1NC(=O)c1cc(-c3cc(C)oc3C)nc3onc(C)c13)O[C@@H](C)C2

>  <canonical_smi>  (163) 
CCOc1cc2c(cc1NC(=O)c1cc(-c3cc(C)oc3C)nc3onc(C)c13)O[C@@H](C)C2

>  <Set>  (163) 
G2 inactive

>  <Set_type>  (163) 
Train

>  <MW>  (163) 
447.49

>  <HBD>  (163) 
1

>  <HBA>  (163) 
7

>  <NRB>  (163) 
5

>  <NR>  (163) 
5

>  <NAR>  (163) 
4

>  <PSA>  (163) 
99.62

>  <Standard Type>  (163) 
nan

>  <Standard Relation>  (163) 
nan

>  <Standard Units>  (163) 
nan

>  <Standard Value>  (163) 
nan

>  <Assay ChEMBL ID>  (163) 
nan

>  <Assay Description>  (163) 
nan

>  <BAO Label>  (163) 
nan

$$$$

     RDKit          2D

 33 36  0  0  0  0  0  0  0  0999 V2000
   -3.0000   -7.7942    0.0000 O   0  0  0  0  0  0  0  0  0  0  0  0
   -3.7500   -6.4952    0.0000 C   0  0  0  0  0  0  0  0  0  0  0  0
   -5.2500   -6.4952    0.0000 O   0  0  0  0  0  1  0  0  0  0  0  0
   -3.0000   -5.1962    0.0000 C   0  0  0  0  0  0  0  0  0  0  0  0
   -1.5000   -5.1962    0.0000 C   0  0  0  0  0  0  0  0  0  0  0  0
   -0.7500   -3.8971    0.0000 N   0  0  0  0  0  0  0  0  0  0  0  0
    0.7500   -3.8971    0.0000 C   0  0  0  0  0  0  0  0  0  0  0  0
    1.5000   -5.1962    0.0000 O   0  0  0  0  0  0  0  0  0  0  0  0
    1.5000   -2.5981    0.0000 C   0  0  0  0  0  0  0  0  0  0  0  0
    3.0000   -2.5981    0.0000 C   0  0  0  0  0  0  0  0  0  0  0  0
    3.7500   -1.2990    0.0000 C   0  0  0  0  0  0  0  0  0  0  0  0
    3.1399    0.0713    0.0000 C   0  0  0  0  0  0  0  0  0  0  0  0
    4.2546    1.0750    0.0000 C   0  0  0  0  0  0  0  0  0  0  0  0
    5.5537    0.3250    0.0000 C   0  0  0  0  0  0  0  0  0  0  0  0
    6.9240    0.9351    0.0000 C   0  0  0  0  0  0  0  0  0  0  0  0
    8.1375    0.0534    0.0000 C   0  0  0  0  0  0  0  0  0  0  0  0
    9.5078    0.6635    0.0000 C   0  0  0  0  0  0  0  0  0  0  0  0
    9.6646    2.1553    0.0000 C   0  0  0  0  0  0  0  0  0  0  0  0
   11.0349    2.7654    0.0000 Cl  0  0  0  0  0  0  0  0  0  0  0  0
    8.4511    3.0370    0.0000 C   0  0  0  0  0  0  0  0  0  0  0  0
    7.0808    2.4269    0.0000 C   0  0  0  0  0  0  0  0  0  0  0  0
    5.8672    3.3085    0.0000 N   0  0  0  0  0  4  0  0  0  0  0  0
    4.4969    2.6984    0.0000 O   0  0  0  0  0  0  0  0  0  0  0  0
    6.0240    4.8003    0.0000 O   0  0  0  0  0  1  0  0  0  0  0  0
    5.2418   -1.1422    0.0000 O   0  0  0  0  0  0  0  0  0  0  0  0
    0.7500   -1.2990    0.0000 C   0  0  0  0  0  0  0  0  0  0  0  0
    1.5000    0.0000    0.0000 C   0  0  0  0  0  0  0  0  0  0  0  0
    0.7500    1.2990    0.0000 C   0  0  0  0  0  0  0  0  0  0  0  0
   -0.7500    1.2990    0.0000 C   0  0  0  0  0  0  0  0  0  0  0  0
   -1.5000    0.0000    0.0000 C   0  0  0  0  0  0  0  0  0  0  0  0
   -0.7500   -1.2990    0.0000 C   0  0  0  0  0  0  0  0  0  0  0  0
   -1.5000   -2.5981    0.0000 C   0  0  0  0  0  0  0  0  0  0  0  0
   -3.0000   -2.5981    0.0000 O   0  0  0  0  0  0  0  0  0  0  0  0
  1  2  2  0
  2  3  1  0
  2  4  1  0
  4  5  1  0
  5  6  1  0
  6  7  1  0
  7  8  2  0
  7  9  1  0
  9 10  2  0
 10 11  1  0
 11 12  2  0
 12 13  1  0
 13 14  2  0
 14 15  1  0
 15 16  2  0
 16 17  1  0
 17 18  2  0
 18 19  1  0
 18 20  1  0
 20 21  2  0
 21 22  1  0
 22 23  2  0
 22 24  1  0
 14 25  1  0
  9 26  1  0
 26 27  2  0
 27 28  1  0
 28 29  2  0
 29 30  1  0
 30 31  2  0
 31 32  1  0
 32 33  2  0
 32  6  1  0
 25 11  1  0
 31 26  1  0
 21 15  1  0
M  CHG  3   3  -1  22   1  24  -1
M  END
>  <Compound_ID>  (164) 
C39715264

>  <Active>  (164) 
0.0

>  <Smiles>  (164) 
O=C([O-])CCN1C(=O)/C(=C/c2ccc(-c3ccc(Cl)cc3[N+](=O)[O-])o2)c2ccccc2C1=O

>  <canonical_smi>  (164) 
O=C([O-])CCN1C(=O)/C(=C/c2ccc(-c3ccc(Cl)cc3[N+](=O)[O-])o2)c2ccccc2C1=O

>  <Set>  (164) 
G2 inactive

>  <Set_type>  (164) 
Train

>  <MW>  (164) 
465.83

>  <HBD>  (164) 
0

>  <HBA>  (164) 
7

>  <NRB>  (164) 
6

>  <NR>  (164) 
4

>  <NAR>  (164) 
3

>  <PSA>  (164) 
133.79

>  <Standard Type>  (164) 
nan

>  <Standard Relation>  (164) 
nan

>  <Standard Units>  (164) 
nan

>  <Standard Value>  (164) 
nan

>  <Assay ChEMBL ID>  (164) 
nan

>  <Assay Description>  (164) 
nan

>  <BAO Label>  (164) 
nan

$$$$

     RDKit          2D

 29 33  0  0  0  0  0  0  0  0999 V2000
    1.5000   -5.1962    0.0000 C   0  0  0  0  0  0  0  0  0  0  0  0
    0.7500   -3.8971    0.0000 C   0  0  0  0  0  0  0  0  0  0  0  0
   -0.7500   -3.8971    0.0000 N   0  0  0  0  0  0  0  0  0  0  0  0
   -1.5000   -2.5981    0.0000 C   0  0  0  0  0  0  0  0  0  0  0  0
   -0.7500   -1.2990    0.0000 C   0  0  0  0  0  0  0  0  0  0  0  0
    0.7500   -1.2990    0.0000 C   0  0  0  0  0  0  0  0  0  0  0  0
    1.5000   -2.5981    0.0000 C   0  0  0  0  0  0  0  0  0  0  0  0
    3.0000   -2.5981    0.0000 C   0  0  0  0  0  0  0  0  0  0  0  0
    3.8817   -1.3846    0.0000 N   0  0  0  0  0  0  0  0  0  0  0  0
    5.3083   -1.8481    0.0000 O   0  0  0  0  0  0  0  0  0  0  0  0
    5.3083   -3.3481    0.0000 C   0  0  0  0  0  0  0  0  0  0  0  0
    6.5218   -4.2298    0.0000 C   0  0  0  0  0  0  0  0  0  0  0  0
    6.3650   -5.7215    0.0000 C   0  0  0  0  0  0  0  0  0  0  0  0
    7.5785   -6.6032    0.0000 C   0  0  0  0  0  0  0  0  0  0  0  0
    8.9488   -5.9931    0.0000 C   0  0  0  0  0  0  0  0  0  0  0  0
   10.1624   -6.8748    0.0000 O   0  0  0  0  0  0  0  0  0  0  0  0
    9.1056   -4.5013    0.0000 N   0  0  0  0  0  0  0  0  0  0  0  0
    7.8921   -3.6196    0.0000 C   0  0  0  0  0  0  0  0  0  0  0  0
    3.8817   -3.8116    0.0000 N   0  0  0  0  0  0  0  0  0  0  0  0
    1.5000    0.0000    0.0000 C   0  0  0  0  0  0  0  0  0  0  0  0
    0.7500    1.2990    0.0000 C   0  0  0  0  0  0  0  0  0  0  0  0
   -0.7500    1.2990    0.0000 N   0  0  0  0  0  0  0  0  0  0  0  0
   -1.5000    2.5981    0.0000 C   0  0  0  0  0  0  0  0  0  0  0  0
   -0.7500    3.8971    0.0000 C   0  0  0  0  0  0  0  0  0  0  0  0
   -1.5000    5.1962    0.0000 C   0  0  0  0  0  0  0  0  0  0  0  0
   -3.0000    5.1962    0.0000 N   0  0  0  0  0  4  0  0  0  0  0  0
   -3.7500    3.8971    0.0000 C   0  0  0  0  0  0  0  0  0  0  0  0
   -3.0000    2.5981    0.0000 C   0  0  0  0  0  0  0  0  0  0  0  0
   -1.5000    0.0000    0.0000 C   0  0  0  0  0  0  0  0  0  0  0  0
  1  2  1  0
  2  3  2  0
  3  4  1  0
  4  5  2  0
  5  6  1  0
  6  7  2  0
  7  8  1  0
  8  9  2  0
  9 10  1  0
 10 11  1  0
 12 11  1  6
 12 13  1  0
 13 14  1  0
 14 15  1  0
 15 16  2  0
 15 17  1  0
 17 18  1  0
 11 19  2  0
  6 20  1  0
 20 21  1  0
 21 22  1  0
 22 23  1  0
 23 24  2  0
 24 25  1  0
 25 26  2  0
 26 27  1  0
 27 28  2  0
 22 29  1  0
  7  2  1  0
 19  8  1  0
 28 23  1  0
 29  5  1  0
 18 12  1  0
M  CHG  1  26   1
M  END
>  <Compound_ID>  (165) 
C19742373

>  <Active>  (165) 
0.0

>  <Smiles>  (165) 
Cc1ncc2c(c1-c1noc([C@H]3CCC(=O)NC3)n1)CCN(c1cc[nH+]cc1)C2

>  <canonical_smi>  (165) 
Cc1ncc2c(c1-c1noc([C@H]3CCC(=O)NC3)n1)CCN(c1cc[nH+]cc1)C2

>  <Set>  (165) 
G2 inactive

>  <Set_type>  (165) 
Train

>  <MW>  (165) 
391.46

>  <HBD>  (165) 
1

>  <HBA>  (165) 
6

>  <NRB>  (165) 
3

>  <NR>  (165) 
5

>  <NAR>  (165) 
3

>  <PSA>  (165) 
98.29

>  <Standard Type>  (165) 
nan

>  <Standard Relation>  (165) 
nan

>  <Standard Units>  (165) 
nan

>  <Standard Value>  (165) 
nan

>  <Assay ChEMBL ID>  (165) 
nan

>  <Assay Description>  (165) 
nan

>  <BAO Label>  (165) 
nan

$$$$

     RDKit          2D

 32 36  0  0  0  0  0  0  0  0999 V2000
   -2.0065    2.8845    0.0000 O   0  0  0  0  0  0  0  0  0  0  0  0
   -1.6727    4.3469    0.0000 N   0  0  0  0  0  4  0  0  0  0  0  0
   -2.7723    5.3671    0.0000 O   0  0  0  0  0  1  0  0  0  0  0  0
   -0.2394    4.7890    0.0000 C   0  0  0  0  0  0  0  0  0  0  0  0
    0.0944    6.2514    0.0000 C   0  0  0  0  0  0  0  0  0  0  0  0
    1.5278    6.6935    0.0000 C   0  0  0  0  0  0  0  0  0  0  0  0
    1.8615    8.1559    0.0000 N   0  0  0  0  0  4  0  0  0  0  0  0
    3.2949    8.5980    0.0000 O   0  0  0  0  0  1  0  0  0  0  0  0
    0.7620    9.1762    0.0000 O   0  0  0  0  0  0  0  0  0  0  0  0
    2.6273    5.6733    0.0000 C   0  0  0  0  0  0  0  0  0  0  0  0
    4.0607    6.1154    0.0000 C   0  0  0  0  0  0  0  0  0  0  0  0
    5.1603    5.0951    0.0000 C   0  0  0  0  0  0  0  0  0  0  0  0
    4.8265    3.6327    0.0000 C   0  0  0  0  0  0  0  0  0  0  0  0
    3.3931    3.1906    0.0000 N   0  0  0  0  0  0  0  0  0  0  0  0
    2.2935    4.2109    0.0000 C   0  0  0  0  0  0  0  0  0  0  0  0
    0.8602    3.7687    0.0000 C   0  0  0  0  0  0  0  0  0  0  0  0
    1.8471    2.6391    0.0000 S   0  0  0  0  0  0  0  0  0  0  0  0
    1.0777    1.3515    0.0000 C   0  0  0  0  0  0  0  0  0  0  0  0
    1.7286    0.0000    0.0000 C   0  0  0  0  0  0  0  0  0  0  0  0
    1.0777   -1.3515    0.0000 C   0  0  0  0  0  0  0  0  0  0  0  0
   -0.3846   -1.6852    0.0000 C   0  0  0  0  0  0  0  0  0  0  0  0
   -1.5574   -0.7500    0.0000 C   0  0  0  0  0  0  0  0  0  0  0  0
   -1.5574    0.7500    0.0000 C   0  0  0  0  0  0  0  0  0  0  0  0
   -0.3846    1.6852    0.0000 C   0  0  0  0  0  0  0  0  0  0  0  0
   -0.5191    3.1792    0.0000 N   0  0  0  0  0  4  0  0  0  0  0  0
   -1.8068    3.9485    0.0000 C   0  0  0  0  0  0  0  0  0  0  0  0
   -3.1169    3.2181    0.0000 C   0  0  0  0  0  0  0  0  0  0  0  0
   -4.4046    3.9874    0.0000 C   0  0  0  0  0  0  0  0  0  0  0  0
   -5.7147    3.2569    0.0000 C   0  0  0  0  0  0  0  0  0  0  0  0
   -5.7371    1.7571    0.0000 C   0  0  0  0  0  0  0  0  0  0  0  0
   -4.4494    0.9877    0.0000 C   0  0  0  0  0  0  0  0  0  0  0  0
   -3.1393    1.7182    0.0000 C   0  0  0  0  0  0  0  0  0  0  0  0
  1  2  2  0
  2  3  1  0
  2  4  1  0
  4  5  2  0
  5  6  1  0
  6  7  2  0
  7  8  1  0
  7  9  1  0
  6 10  1  0
 10 11  2  0
 11 12  1  0
 12 13  2  0
 13 14  1  0
 14 15  2  0
 15 16  1  0
 16 17  1  6
 17 18  1  0
 18 19  2  0
 19 20  1  0
 20 21  2  0
 21 22  1  0
 22 23  2  0
 23 24  1  0
 24 25  2  0
 25 26  1  0
 26 27  1  0
 27 28  2  0
 28 29  1  0
 29 30  2  0
 30 31  1  0
 31 32  2  0
 16  4  1  0
 24 18  1  0
 32 27  1  0
 15 10  1  0
 25 16  1  0
M  CHG  5   2   1   3  -1   7   1   8  -1  25   1
M  END
>  <Compound_ID>  (166) 
C13165916

>  <Active>  (166) 
0.0

>  <Smiles>  (166) 
O=[N+]([O-])C1=C/C(=[N+](/[O-])O)c2cccnc2[C@]12SC1=CC=CC=CC1=[N+]2Cc1ccccc1

>  <canonical_smi>  (166) 
O=[N+]([O-])C1=C/C(=[N+](/[O-])O)c2cccnc2[C@]12SC1=CC=CC=CC1=[N+]2Cc1ccccc1

>  <Set>  (166) 
G2 inactive

>  <Set_type>  (166) 
Train

>  <MW>  (166) 
445.48

>  <HBD>  (166) 
1

>  <HBA>  (166) 
6

>  <NRB>  (166) 
3

>  <NR>  (166) 
5

>  <NAR>  (166) 
2

>  <PSA>  (166) 
105.34

>  <Standard Type>  (166) 
nan

>  <Standard Relation>  (166) 
nan

>  <Standard Units>  (166) 
nan

>  <Standard Value>  (166) 
nan

>  <Assay ChEMBL ID>  (166) 
nan

>  <Assay Description>  (166) 
nan

>  <BAO Label>  (166) 
nan

$$$$

     RDKit          2D

 30 33  0  0  0  0  0  0  0  0999 V2000
   -8.2500  -11.6913    0.0000 O   0  0  0  0  0  0  0  0  0  0  0  0
   -9.0000  -10.3923    0.0000 N   0  0  0  0  0  4  0  0  0  0  0  0
  -10.5000  -10.3923    0.0000 O   0  0  0  0  0  1  0  0  0  0  0  0
   -8.2500   -9.0933    0.0000 C   0  0  0  0  0  0  0  0  0  0  0  0
   -9.0000   -7.7942    0.0000 C   0  0  0  0  0  0  0  0  0  0  0  0
   -8.2500   -6.4952    0.0000 C   0  0  0  0  0  0  0  0  0  0  0  0
   -6.7500   -6.4952    0.0000 C   0  0  0  0  0  0  0  0  0  0  0  0
   -6.0000   -5.1962    0.0000 S   0  0  0  0  0  0  0  0  0  0  0  0
   -4.7010   -5.9462    0.0000 O   0  0  0  0  0  0  0  0  0  0  0  0
   -7.2990   -4.4462    0.0000 O   0  0  0  0  0  0  0  0  0  0  0  0
   -5.2500   -3.8971    0.0000 N   0  0  0  0  0  0  0  0  0  0  0  0
   -3.7500   -3.8971    0.0000 C   0  0  0  0  0  0  0  0  0  0  0  0
   -3.0000   -2.5981    0.0000 C   0  0  0  0  0  0  0  0  0  0  0  0
   -1.5000   -2.5981    0.0000 C   0  0  0  0  0  0  0  0  0  0  0  0
   -0.7500   -3.8971    0.0000 C   0  0  0  0  0  0  0  0  0  0  0  0
    0.7500   -3.8971    0.0000 C   0  0  0  0  0  0  0  0  0  0  0  0
    1.5000   -2.5981    0.0000 C   0  0  0  0  0  0  0  0  0  0  0  0
    0.7500   -1.2990    0.0000 C   0  0  0  0  0  0  0  0  0  0  0  0
    1.5000    0.0000    0.0000 C   0  0  0  0  0  0  0  0  0  0  0  0
    0.7500    1.2990    0.0000 C   0  0  0  0  0  0  0  0  0  0  0  0
   -0.7500    1.2990    0.0000 C   0  0  0  0  0  0  0  0  0  0  0  0
   -1.5000    0.0000    0.0000 C   0  0  0  0  0  0  0  0  0  0  0  0
   -0.7500   -1.2990    0.0000 C   0  0  0  0  0  0  0  0  0  0  0  0
   -3.7500   -1.2990    0.0000 N   0  0  0  0  0  4  0  0  0  0  0  0
   -5.2418   -1.1422    0.0000 C   0  0  0  0  0  0  0  0  0  0  0  0
   -5.5537    0.3250    0.0000 C   0  0  0  0  0  0  0  0  0  0  0  0
   -4.2546    1.0750    0.0000 C   0  0  0  0  0  0  0  0  0  0  0  0
   -3.1399    0.0713    0.0000 C   0  0  0  0  0  0  0  0  0  0  0  0
   -6.0000   -7.7942    0.0000 C   0  0  0  0  0  0  0  0  0  0  0  0
   -6.7500   -9.0933    0.0000 C   0  0  0  0  0  0  0  0  0  0  0  0
  1  2  2  0
  2  3  1  0
  2  4  1  0
  4  5  2  0
  5  6  1  0
  6  7  2  0
  7  8  1  0
  8  9  2  0
  8 10  2  0
  8 11  1  0
 11 12  1  0
 13 12  1  1
 13 14  1  0
 14 15  2  0
 15 16  1  0
 16 17  2  0
 17 18  1  0
 18 19  2  0
 19 20  1  0
 20 21  2  0
 21 22  1  0
 22 23  2  0
 13 24  1  0
 24 25  1  0
 25 26  1  0
 26 27  1  0
 27 28  1  0
  7 29  1  0
 29 30  2  0
 30  4  1  0
 23 14  1  0
 28 24  1  0
 23 18  1  0
M  CHG  3   2   1   3  -1  24   1
M  END
>  <Compound_ID>  (167) 
C10508026

>  <Active>  (167) 
0.0

>  <Smiles>  (167) 
O=[N+]([O-])c1ccc(S(=O)(=O)NC[C@H](c2cccc3ccccc23)[NH+]2CCCC2)cc1

>  <canonical_smi>  (167) 
O=[N+]([O-])c1ccc(S(=O)(=O)NC[C@H](c2cccc3ccccc23)[NH+]2CCCC2)cc1

>  <Set>  (167) 
G2 inactive

>  <Set_type>  (167) 
Train

>  <MW>  (167) 
426.52

>  <HBD>  (167) 
2

>  <HBA>  (167) 
4

>  <NRB>  (167) 
7

>  <NR>  (167) 
4

>  <NAR>  (167) 
3

>  <PSA>  (167) 
93.75

>  <Standard Type>  (167) 
nan

>  <Standard Relation>  (167) 
nan

>  <Standard Units>  (167) 
nan

>  <Standard Value>  (167) 
nan

>  <Assay ChEMBL ID>  (167) 
nan

>  <Assay Description>  (167) 
nan

>  <BAO Label>  (167) 
nan

$$$$

     RDKit          2D

 33 37  0  0  0  0  0  0  0  0999 V2000
   -3.7548   -2.1855    0.0000 C   0  0  0  0  0  0  0  0  0  0  0  0
   -2.6401   -3.1891    0.0000 C   0  0  0  0  0  0  0  0  0  0  0  0
   -1.2135   -2.7256    0.0000 N   0  0  0  0  0  0  0  0  0  0  0  0
   -0.0000   -3.6073    0.0000 C   0  0  0  0  0  0  0  0  0  0  0  0
   -0.0000   -5.1073    0.0000 C   0  0  0  0  0  0  0  0  0  0  0  0
   -1.2990   -5.8573    0.0000 S   0  0  0  0  0  0  0  0  0  0  0  0
   -1.2990   -7.3573    0.0000 C   0  0  0  0  0  0  0  0  0  0  0  0
   -0.0855   -8.2390    0.0000 N   0  0  0  0  0  0  0  0  0  0  0  0
   -0.5490   -9.6656    0.0000 C   0  0  0  0  0  0  0  0  0  0  0  0
    0.2010  -10.9646    0.0000 N   0  0  0  0  0  0  0  0  0  0  0  0
   -0.5490  -12.2636    0.0000 C   0  0  0  0  0  0  0  0  0  0  0  0
    0.2010  -13.5627    0.0000 C   0  0  0  0  0  0  0  0  0  0  0  0
   -2.0490  -12.2636    0.0000 C   0  0  0  0  0  0  0  0  0  0  0  0
   -2.7990  -10.9646    0.0000 C   0  0  0  0  0  0  0  0  0  0  0  0
   -4.2990  -10.9646    0.0000 C   0  0  0  0  0  0  0  0  0  0  0  0
   -2.0490   -9.6656    0.0000 N   0  0  0  0  0  0  0  0  0  0  0  0
   -2.5126   -8.2390    0.0000 N   0  0  0  0  0  0  0  0  0  0  0  0
    1.2135   -2.7256    0.0000 N   0  0  0  0  0  0  0  0  0  0  0  0
    0.7500   -1.2990    0.0000 C   0  0  0  0  0  0  0  0  0  0  0  0
    1.5000    0.0000    0.0000 C   0  0  0  0  0  0  0  0  0  0  0  0
    0.7500    1.2990    0.0000 C   0  0  0  0  0  0  0  0  0  0  0  0
    1.5000    2.5981    0.0000 S   0  0  0  0  0  0  0  0  0  0  0  0
    2.7990    1.8481    0.0000 O   0  0  0  0  0  0  0  0  0  0  0  0
    0.2010    3.3481    0.0000 O   0  0  0  0  0  0  0  0  0  0  0  0
    2.2500    3.8971    0.0000 N   0  0  0  0  0  0  0  0  0  0  0  0
    3.7500    3.8971    0.0000 C   0  0  0  0  0  0  0  0  0  0  0  0
    4.5000    5.1962    0.0000 C   0  0  0  0  0  0  0  0  0  0  0  0
    3.7500    6.4952    0.0000 O   0  0  0  0  0  0  0  0  0  0  0  0
    2.2500    6.4952    0.0000 C   0  0  0  0  0  0  0  0  0  0  0  0
    1.5000    5.1962    0.0000 C   0  0  0  0  0  0  0  0  0  0  0  0
   -0.7500    1.2990    0.0000 C   0  0  0  0  0  0  0  0  0  0  0  0
   -1.5000    0.0000    0.0000 C   0  0  0  0  0  0  0  0  0  0  0  0
   -0.7500   -1.2990    0.0000 C   0  0  0  0  0  0  0  0  0  0  0  0
  1  2  1  0
  2  3  1  0
  3  4  1  0
  4  5  1  0
  5  6  1  0
  6  7  1  0
  7  8  1  0
  8  9  2  0
  9 10  1  0
 10 11  2  0
 11 12  1  0
 11 13  1  0
 13 14  2  0
 14 15  1  0
 14 16  1  0
 16 17  1  0
  4 18  2  0
 18 19  1  0
 19 20  2  0
 20 21  1  0
 21 22  1  0
 22 23  2  0
 22 24  2  0
 22 25  1  0
 25 26  1  0
 26 27  1  0
 27 28  1  0
 28 29  1  0
 29 30  1  0
 21 31  2  0
 31 32  1  0
 32 33  2  0
 33  3  1  0
 17  7  2  0
 33 19  1  0
 16  9  1  0
 30 25  1  0
M  END
>  <Compound_ID>  (168) 
C08862345

>  <Active>  (168) 
0.0

>  <Smiles>  (168) 
CCn1c(CSc2nc3nc(C)cc(C)n3n2)nc2cc(S(=O)(=O)N3CCOCC3)ccc21

>  <canonical_smi>  (168) 
CCn1c(CSc2nc3nc(C)cc(C)n3n2)nc2cc(S(=O)(=O)N3CCOCC3)ccc21

>  <Set>  (168) 
G2 inactive

>  <Set_type>  (168) 
Train

>  <MW>  (168) 
487.61

>  <HBD>  (168) 
0

>  <HBA>  (168) 
8

>  <NRB>  (168) 
6

>  <NR>  (168) 
5

>  <NAR>  (168) 
4

>  <PSA>  (168) 
107.51

>  <Standard Type>  (168) 
nan

>  <Standard Relation>  (168) 
nan

>  <Standard Units>  (168) 
nan

>  <Standard Value>  (168) 
nan

>  <Assay ChEMBL ID>  (168) 
nan

>  <Assay Description>  (168) 
nan

>  <BAO Label>  (168) 
nan

$$$$

     RDKit          2D

 35 40  0  0  0  0  0  0  0  0999 V2000
    0.7500   -3.8971    0.0000 C   0  0  0  0  0  0  0  0  0  0  0  0
   -0.0000   -2.5981    0.0000 C   0  0  0  0  0  0  0  0  0  0  0  0
    0.7500   -1.2990    0.0000 C   0  0  0  0  0  0  0  0  0  0  0  0
    1.5000   -0.0000    0.0000 C   0  0  0  0  0  0  0  0  0  0  0  0
    0.7500    1.2990    0.0000 O   0  0  0  0  0  0  0  0  0  0  0  0
   -0.7500    1.2990    0.0000 C   0  0  0  0  0  0  0  0  0  0  0  0
   -1.5000   -0.0000    0.0000 O   0  0  0  0  0  0  0  0  0  0  0  0
   -0.7500   -1.2990    0.0000 C   0  0  0  0  0  0  0  0  0  0  0  0
    2.2500   -1.2990    0.0000 C   0  0  0  0  0  0  0  0  0  0  0  0
    3.0000   -0.0000    0.0000 O   0  0  0  0  0  0  0  0  0  0  0  0
    4.5000   -0.0000    0.0000 C   0  0  0  0  0  0  0  0  0  0  0  0
    5.2500    1.2990    0.0000 O   0  0  0  0  0  0  0  0  0  0  0  0
    6.7500    1.2990    0.0000 C   0  0  0  0  0  0  0  0  0  0  0  0
    7.5000   -0.0000    0.0000 C   0  0  0  0  0  0  0  0  0  0  0  0
    9.0000   -0.0000    0.0000 C   0  0  0  0  0  0  0  0  0  0  0  0
    9.7500    1.2990    0.0000 C   0  0  0  0  0  0  0  0  0  0  0  0
    9.0000    2.5981    0.0000 C   0  0  0  0  0  0  0  0  0  0  0  0
    7.5000    2.5981    0.0000 C   0  0  0  0  0  0  0  0  0  0  0  0
    8.2500    3.8971    0.0000 C   0  0  0  0  0  0  0  0  0  0  0  0
    7.5000    5.1962    0.0000 O   0  0  0  0  0  0  0  0  0  0  0  0
    6.0000    5.1962    0.0000 C   0  0  0  0  0  0  0  0  0  0  0  0
    5.2500    3.8971    0.0000 O   0  0  0  0  0  0  0  0  0  0  0  0
    6.0000    2.5981    0.0000 C   0  0  0  0  0  0  0  0  0  0  0  0
    6.0000   -0.0000    0.0000 C   0  0  0  0  0  0  0  0  0  0  0  0
    5.2500   -1.2990    0.0000 O   0  0  0  0  0  0  0  0  0  0  0  0
    6.0000   -2.5981    0.0000 C   0  0  0  0  0  0  0  0  0  0  0  0
    7.5000   -2.5981    0.0000 O   0  0  0  0  0  0  0  0  0  0  0  0
    8.2500   -1.2990    0.0000 C   0  0  0  0  0  0  0  0  0  0  0  0
    3.0000   -2.5981    0.0000 C   0  0  0  0  0  0  0  0  0  0  0  0
    2.2500   -3.8971    0.0000 C   0  0  0  0  0  0  0  0  0  0  0  0
    3.7500   -3.8971    0.0000 C   0  0  0  0  0  0  0  0  0  0  0  0
    5.2500   -3.8971    0.0000 O   0  0  0  0  0  0  0  0  0  0  0  0
    6.0000   -2.5981    0.0000 C   0  0  0  0  0  0  0  0  0  0  0  0
    5.2500   -1.2990    0.0000 O   0  0  0  0  0  0  0  0  0  0  0  0
    3.7500   -1.2990    0.0000 C   0  0  0  0  0  0  0  0  0  0  0  0
  1  2  1  0
  2  3  1  0
  3  4  1  0
  4  5  1  0
  5  6  1  0
  6  7  1  0
  7  8  1  0
  3  9  1  0
  9 10  1  0
 10 11  1  0
 11 12  1  0
 12 13  1  0
 13 14  1  0
 14 15  1  0
 15 16  1  0
 16 17  1  0
 17 18  1  0
 18 19  1  0
 19 20  1  0
 20 21  1  0
 21 22  1  0
 22 23  1  0
 14 24  1  0
 24 25  1  0
 25 26  1  0
 26 27  1  0
 27 28  1  0
  9 29  1  0
 29 30  1  0
 29 31  1  0
 31 32  1  0
 32 33  1  0
 33 34  1  0
 34 35  1  0
 30  1  1  0
  8  3  1  0
 18 13  1  0
 35 29  1  0
 28 14  1  0
 23 18  1  0
M  END
>  <Compound_ID>  (169) 
C25490734

>  <Active>  (169) 
0.0

>  <Smiles>  (169) 
C1CC2(COCOC2)C(OCOC2C3(CCCC24COCOC4)COCOC3)C2(C1)COCOC2

>  <canonical_smi>  (169) 
C1CC2(COCOC2)C(OCOC2C3(CCCC24COCOC4)COCOC3)C2(C1)COCOC2

>  <Set>  (169) 
G2 inactive

>  <Set_type>  (169) 
Train

>  <MW>  (169) 
500.59

>  <HBD>  (169) 
0

>  <HBA>  (169) 
10

>  <NRB>  (169) 
4

>  <NR>  (169) 
6

>  <NAR>  (169) 
0

>  <PSA>  (169) 
92.3

>  <Standard Type>  (169) 
nan

>  <Standard Relation>  (169) 
nan

>  <Standard Units>  (169) 
nan

>  <Standard Value>  (169) 
nan

>  <Assay ChEMBL ID>  (169) 
nan

>  <Assay Description>  (169) 
nan

>  <BAO Label>  (169) 
nan

$$$$

     RDKit          2D

 32 35  0  0  0  0  0  0  0  0999 V2000
    2.9781    2.9851    0.0000 C   0  0  0  0  0  0  0  0  0  0  0  0
    1.6078    3.5952    0.0000 C   0  0  0  0  0  0  0  0  0  0  0  0
    1.4510    5.0870    0.0000 C   0  0  0  0  0  0  0  0  0  0  0  0
    0.3943    2.7135    0.0000 N   0  0  0  0  0  0  0  0  0  0  0  0
    0.3943    1.2135    0.0000 C   0  0  0  0  0  0  0  0  0  0  0  0
    1.2760    0.0000    0.0000 O   0  0  0  0  0  0  0  0  0  0  0  0
    0.3943   -1.2135    0.0000 C   0  0  0  0  0  0  0  0  0  0  0  0
    0.8578   -2.6401    0.0000 C   0  0  0  0  0  0  0  0  0  0  0  0
    2.2844   -3.1036    0.0000 O   0  0  0  0  0  0  0  0  0  0  0  0
    2.2844   -4.6036    0.0000 C   0  0  0  0  0  0  0  0  0  0  0  0
    0.8578   -5.0672    0.0000 C   0  0  0  0  0  0  0  0  0  0  0  0
   -0.0239   -3.8536    0.0000 O   0  0  0  0  0  0  0  0  0  0  0  0
    0.8578   -6.5672    0.0000 N   0  0  0  0  0  0  0  0  0  0  0  0
   -0.3557   -7.4488    0.0000 C   0  0  0  0  0  0  0  0  0  0  0  0
   -1.7260   -6.8387    0.0000 C   0  0  0  0  0  0  0  0  0  0  0  0
   -0.1989   -8.9406    0.0000 C   0  0  0  0  0  0  0  0  0  0  0  0
    2.2844   -7.0307    0.0000 S   0  0  0  0  0  0  0  0  0  0  0  0
    1.6743   -8.4010    0.0000 O   0  0  0  0  0  0  0  0  0  0  0  0
    3.5834   -7.7807    0.0000 O   0  0  0  0  0  0  0  0  0  0  0  0
    3.1661   -5.8172    0.0000 N   0  0  0  0  0  0  0  0  0  0  0  0
    4.6661   -5.8172    0.0000 C   0  0  0  0  0  0  0  0  0  0  0  0
    5.4161   -4.5181    0.0000 C   0  0  0  0  0  0  0  0  0  0  0  0
    5.4161   -7.1162    0.0000 C   0  0  0  0  0  0  0  0  0  0  0  0
   -1.0323   -0.7500    0.0000 O   0  0  0  0  0  0  0  0  0  0  0  0
   -1.0323    0.7500    0.0000 C   0  0  0  0  0  0  0  0  0  0  0  0
   -1.9140    1.9635    0.0000 N   0  0  0  0  0  0  0  0  0  0  0  0
   -3.4140    1.9635    0.0000 C   0  0  0  0  0  0  0  0  0  0  0  0
   -4.1640    3.2626    0.0000 C   0  0  0  0  0  0  0  0  0  0  0  0
   -4.1640    0.6645    0.0000 C   0  0  0  0  0  0  0  0  0  0  0  0
   -1.0323    3.1771    0.0000 S   0  0  0  0  0  0  0  0  0  0  0  0
   -0.4222    4.5474    0.0000 O   0  0  0  0  0  0  0  0  0  0  0  0
   -2.3313    3.9271    0.0000 O   0  0  0  0  0  0  0  0  0  0  0  0
  1  2  1  0
  2  3  1  0
  2  4  1  0
  4  5  1  0
  5  6  1  6
  6  7  1  0
  7  8  1  0
  8  9  1  0
 10  9  1  6
 10 11  1  0
 11 12  1  1
 11 13  1  0
 13 14  1  0
 14 15  1  0
 14 16  1  0
 13 17  1  0
 17 18  2  0
 17 19  2  0
 17 20  1  0
 20 21  1  0
 21 22  1  0
 21 23  1  0
  7 24  1  0
 25 24  1  1
 25 26  1  0
 26 27  1  0
 27 28  1  0
 27 29  1  0
 26 30  1  0
 30 31  2  0
 30 32  2  0
 30  4  1  0
 25  5  1  0
 12  8  1  0
 20 10  1  0
M  END
>  <Compound_ID>  (170) 
C18054751

>  <Active>  (170) 
0.0

>  <Smiles>  (170) 
CC(C)N1[C@@H]2OC(C3O[C@H]4[C@H](O3)N(C(C)C)S(=O)(=O)N4C(C)C)O[C@H]2N(C(C)C)S1(=O)=O

>  <canonical_smi>  (170) 
CC(C)N1[C@H]2OC(C3O[C@@H]4[C@@H](O3)N(C(C)C)S(=O)(=O)N4C(C)C)O[C@@H]2N(C(C)C)S1(=O)=O

>  <Set>  (170) 
G2 inactive

>  <Set_type>  (170) 
Train

>  <MW>  (170) 
498.62

>  <HBD>  (170) 
0

>  <HBA>  (170) 
8

>  <NRB>  (170) 
5

>  <NR>  (170) 
4

>  <NAR>  (170) 
0

>  <PSA>  (170) 
118.16

>  <Standard Type>  (170) 
nan

>  <Standard Relation>  (170) 
nan

>  <Standard Units>  (170) 
nan

>  <Standard Value>  (170) 
nan

>  <Assay ChEMBL ID>  (170) 
nan

>  <Assay Description>  (170) 
nan

>  <BAO Label>  (170) 
nan

$$$$

     RDKit          2D

 21 24  0  0  0  0  0  0  0  0999 V2000
    3.0000    0.0000    0.0000 Cl  0  0  0  0  0  0  0  0  0  0  0  0
    1.5000    0.0000    0.0000 C   0  0  0  0  0  0  0  0  0  0  0  0
    0.7500   -1.2990    0.0000 C   0  0  0  0  0  0  0  0  0  0  0  0
   -0.7500   -1.2990    0.0000 C   0  0  0  0  0  0  0  0  0  0  0  0
   -1.5000    0.0000    0.0000 C   0  0  0  0  0  0  0  0  0  0  0  0
   -0.7500    1.2990    0.0000 N   0  0  0  0  0  0  0  0  0  0  0  0
   -1.2135    2.7256    0.0000 C   0  0  0  0  0  0  0  0  0  0  0  0
   -2.6401    3.1891    0.0000 C   0  0  0  0  0  0  0  0  0  0  0  0
   -3.8536    2.3075    0.0000 C   0  0  0  0  0  0  0  0  0  0  0  0
   -5.0672    3.1891    0.0000 C   0  0  0  0  0  0  0  0  0  0  0  0
   -4.6036    4.6157    0.0000 C   0  0  0  0  0  0  0  0  0  0  0  0
   -5.4853    5.8293    0.0000 S   0  0  0  0  0  0  0  0  0  0  0  0
   -4.8752    7.1996    0.0000 C   0  0  0  0  0  0  0  0  0  0  0  0
   -5.6252    8.4986    0.0000 N   0  0  0  0  0  0  0  0  0  0  0  0
   -4.6215    9.6133    0.0000 C   0  0  0  0  0  0  0  0  0  0  0  0
   -3.2512    9.0032    0.0000 N   0  0  0  0  0  0  0  0  0  0  0  0
   -3.4080    7.5114    0.0000 N   0  0  0  0  0  0  0  0  0  0  0  0
   -3.1036    4.6157    0.0000 O   0  0  0  0  0  0  0  0  0  0  0  0
    0.0000    3.6073    0.0000 N   0  0  0  0  0  0  0  0  0  0  0  0
    1.2135    2.7256    0.0000 N   0  0  0  0  0  0  0  0  0  0  0  0
    0.7500    1.2990    0.0000 C   0  0  0  0  0  0  0  0  0  0  0  0
  1  2  1  0
  2  3  2  0
  3  4  1  0
  4  5  2  0
  5  6  1  0
  6  7  1  0
  7  8  1  0
  8  9  2  0
  9 10  1  0
 10 11  2  0
 11 12  1  0
 12 13  1  0
 13 14  2  0
 14 15  1  0
 15 16  2  0
 16 17  1  0
 11 18  1  0
  7 19  2  0
 19 20  1  0
 21 20  1  1
 21  2  1  0
 21  6  1  0
 18  8  1  0
 17 13  1  0
M  END
>  <Compound_ID>  (171) 
C39429907

>  <Active>  (171) 
0.0

>  <Smiles>  (171) 
ClC1=CC=CN2C(c3ccc(Sc4ncn[nH]4)o3)=NN[C@@H]12

>  <canonical_smi>  (171) 
ClC1=CC=CN2C(c3ccc(Sc4ncn[nH]4)o3)=NN[C@@H]12

>  <Set>  (171) 
G2 inactive

>  <Set_type>  (171) 
Train

>  <MW>  (171) 
320.77

>  <HBD>  (171) 
2

>  <HBA>  (171) 
6

>  <NRB>  (171) 
3

>  <NR>  (171) 
4

>  <NAR>  (171) 
2

>  <PSA>  (171) 
82.34

>  <Standard Type>  (171) 
nan

>  <Standard Relation>  (171) 
nan

>  <Standard Units>  (171) 
nan

>  <Standard Value>  (171) 
nan

>  <Assay ChEMBL ID>  (171) 
nan

>  <Assay Description>  (171) 
nan

>  <BAO Label>  (171) 
nan

$$$$

     RDKit          2D

 22 25  0  0  0  0  0  0  0  0999 V2000
   -2.6491   -1.6339    0.0000 O   0  0  0  0  0  0  0  0  0  0  0  0
   -1.5000   -2.5981    0.0000 C   0  0  0  0  0  0  0  0  0  0  0  0
   -2.6491   -3.5623    0.0000 C   0  0  0  0  0  0  0  0  0  0  0  0
   -4.0586   -3.0492    0.0000 N   0  0  0  0  0  0  0  0  0  0  0  0
   -5.2077   -4.0134    0.0000 C   0  0  0  0  0  0  0  0  0  0  0  0
   -4.9472   -5.4906    0.0000 C   0  0  0  0  0  0  0  0  0  0  0  0
   -6.0963   -6.4548    0.0000 C   0  0  0  0  0  0  0  0  0  0  0  0
   -7.5058   -5.9418    0.0000 C   0  0  0  0  0  0  0  0  0  0  0  0
   -8.8302   -6.6460    0.0000 N   0  0  0  0  0  0  0  0  0  0  0  0
   -9.9092   -5.6040    0.0000 N   0  0  0  0  0  0  0  0  0  0  0  0
   -9.2517   -4.2558    0.0000 N   0  0  0  0  0  0  0  0  0  0  0  0
   -7.7663   -4.4646    0.0000 N   0  0  0  0  0  0  0  0  0  0  0  0
   -6.6172   -3.5004    0.0000 N   0  0  0  0  0  0  0  0  0  0  0  0
   -0.7500   -3.8971    0.0000 C   0  0  0  0  0  0  0  0  0  0  0  0
    0.7500   -3.8971    0.0000 C   0  0  0  0  0  0  0  0  0  0  0  0
    1.5000   -2.5981    0.0000 C   0  0  0  0  0  0  0  0  0  0  0  0
    0.7500   -1.2990    0.0000 C   0  0  0  0  0  0  0  0  0  0  0  0
    1.5000    0.0000    0.0000 C   0  0  0  0  0  0  0  0  0  0  0  0
    0.7500    1.2990    0.0000 C   0  0  0  0  0  0  0  0  0  0  0  0
   -0.7500    1.2990    0.0000 C   0  0  0  0  0  0  0  0  0  0  0  0
   -1.5000    0.0000    0.0000 C   0  0  0  0  0  0  0  0  0  0  0  0
   -0.7500   -1.2990    0.0000 C   0  0  0  0  0  0  0  0  0  0  0  0
  2  1  1  6
  2  3  1  0
  3  4  1  0
  4  5  1  0
  5  6  1  0
  6  7  2  0
  7  8  1  0
  8  9  2  0
  9 10  1  0
 10 11  2  0
 11 12  1  0
 12 13  1  0
  2 14  1  0
 14 15  1  0
 15 16  1  0
 16 17  1  0
 17 18  2  0
 18 19  1  0
 19 20  2  0
 20 21  1  0
 21 22  2  0
 22  2  1  0
 13  5  2  0
 22 17  1  0
 12  8  1  0
M  END
>  <Compound_ID>  (172) 
C66859830

>  <Active>  (172) 
0.0

>  <Smiles>  (172) 
O[C@@]1(CNc2ccc3nnnn3n2)CCCc2ccccc21

>  <canonical_smi>  (172) 
O[C@@]1(CNc2ccc3nnnn3n2)CCCc2ccccc21

>  <Set>  (172) 
G2 inactive

>  <Set_type>  (172) 
Train

>  <MW>  (172) 
296.33

>  <HBD>  (172) 
2

>  <HBA>  (172) 
6

>  <NRB>  (172) 
3

>  <NR>  (172) 
4

>  <NAR>  (172) 
3

>  <PSA>  (172) 
88.23

>  <Standard Type>  (172) 
nan

>  <Standard Relation>  (172) 
nan

>  <Standard Units>  (172) 
nan

>  <Standard Value>  (172) 
nan

>  <Assay ChEMBL ID>  (172) 
nan

>  <Assay Description>  (172) 
nan

>  <BAO Label>  (172) 
nan

$$$$

     RDKit          2D

 26 29  0  0  0  0  0  0  0  0999 V2000
   -7.5000   -5.1962    0.0000 C   0  0  0  0  0  0  0  0  0  0  0  0
   -6.0000   -5.1962    0.0000 N   0  0  0  0  0  0  0  0  0  0  0  0
   -5.2500   -3.8971    0.0000 C   0  0  0  0  0  0  0  0  0  0  0  0
   -6.0000   -2.5981    0.0000 O   0  0  0  0  0  0  0  0  0  0  0  0
   -3.7500   -3.8971    0.0000 C   0  0  0  0  0  0  0  0  0  0  0  0
   -3.0000   -2.5981    0.0000 S   0  0  0  0  0  0  0  0  0  0  0  0
   -1.5000   -2.5981    0.0000 C   0  0  0  0  0  0  0  0  0  0  0  0
   -0.7500   -3.8971    0.0000 N   0  0  0  0  0  0  0  0  0  0  0  0
    0.7500   -3.8971    0.0000 C   0  0  0  0  0  0  0  0  0  0  0  0
    1.5000   -2.5981    0.0000 C   0  0  0  0  0  0  0  0  0  0  0  0
    2.9672   -2.9099    0.0000 C   0  0  0  0  0  0  0  0  0  0  0  0
    3.1240   -4.4017    0.0000 N   0  0  0  0  0  0  0  0  0  0  0  0
    1.7537   -5.0118    0.0000 N   0  0  0  0  0  0  0  0  0  0  0  0
    1.4418   -6.4791    0.0000 C   0  0  0  0  0  0  0  0  0  0  0  0
    0.0152   -6.9426    0.0000 C   0  0  0  0  0  0  0  0  0  0  0  0
   -0.2966   -8.4098    0.0000 C   0  0  0  0  0  0  0  0  0  0  0  0
    0.8181   -9.4135    0.0000 C   0  0  0  0  0  0  0  0  0  0  0  0
    0.5062  -10.8807    0.0000 C   0  0  0  0  0  0  0  0  0  0  0  0
    2.2447   -8.9500    0.0000 C   0  0  0  0  0  0  0  0  0  0  0  0
    2.5565   -7.4827    0.0000 C   0  0  0  0  0  0  0  0  0  0  0  0
    0.7500   -1.2990    0.0000 C   0  0  0  0  0  0  0  0  0  0  0  0
    1.5000    0.0000    0.0000 N   0  0  0  0  0  4  0  0  0  0  0  0
    0.7500    1.2990    0.0000 C   0  0  0  0  0  0  0  0  0  0  0  0
   -0.7500    1.2990    0.0000 C   0  0  0  0  0  0  0  0  0  0  0  0
   -1.5000    0.0000    0.0000 C   0  0  0  0  0  0  0  0  0  0  0  0
   -0.7500   -1.2990    0.0000 N   0  0  0  0  0  0  0  0  0  0  0  0
  1  2  1  0
  2  3  1  0
  3  4  2  0
  3  5  1  0
  5  6  1  0
  6  7  1  0
  7  8  2  0
  8  9  1  0
  9 10  2  0
 10 11  1  0
 11 12  2  0
 12 13  1  0
 13 14  1  0
 14 15  2  0
 15 16  1  0
 16 17  2  0
 17 18  1  0
 17 19  1  0
 19 20  2  0
 10 21  1  0
 21 22  2  0
 22 23  1  0
 23 24  1  0
 24 25  1  0
 25 26  1  0
 26  7  1  0
 13  9  1  0
 20 14  1  0
 26 21  1  0
M  CHG  1  22   1
M  END
>  <Compound_ID>  (173) 
C12389424

>  <Active>  (173) 
0.0

>  <Smiles>  (173) 
CNC(=O)CSC1=Nc2c(cnn2-c2ccc(C)cc2)C2=[NH+]CCCN12

>  <canonical_smi>  (173) 
CNC(=O)CSC1=Nc2c(cnn2-c2ccc(C)cc2)C2=[NH+]CCCN12

>  <Set>  (173) 
G2 inactive

>  <Set_type>  (173) 
Train

>  <MW>  (173) 
369.47

>  <HBD>  (173) 
2

>  <HBA>  (173) 
4

>  <NRB>  (173) 
3

>  <NR>  (173) 
4

>  <NAR>  (173) 
2

>  <PSA>  (173) 
76.49

>  <Standard Type>  (173) 
nan

>  <Standard Relation>  (173) 
nan

>  <Standard Units>  (173) 
nan

>  <Standard Value>  (173) 
nan

>  <Assay ChEMBL ID>  (173) 
nan

>  <Assay Description>  (173) 
nan

>  <BAO Label>  (173) 
nan

$$$$

     RDKit          2D

 24 28  0  0  0  0  0  0  0  0999 V2000
    0.5864  -10.4561    0.0000 C   0  0  0  0  0  0  0  0  0  0  0  0
   -0.6272   -9.5744    0.0000 C   0  0  0  0  0  0  0  0  0  0  0  0
   -0.4704   -8.0826    0.0000 C   0  0  0  0  0  0  0  0  0  0  0  0
   -1.6839   -7.2010    0.0000 C   0  0  0  0  0  0  0  0  0  0  0  0
   -1.5271   -5.7092    0.0000 N   0  0  0  0  0  0  0  0  0  0  0  0
   -2.7406   -4.8275    0.0000 C   0  0  0  0  0  0  0  0  0  0  0  0
   -2.5838   -3.3357    0.0000 C   0  0  0  0  0  0  0  0  0  0  0  0
   -1.2135   -2.7256    0.0000 C   0  0  0  0  0  0  0  0  0  0  0  0
   -0.0000   -3.6073    0.0000 C   0  0  0  0  0  0  0  0  0  0  0  0
    1.2135   -2.7256    0.0000 N   0  0  0  0  0  0  0  0  0  0  0  0
    0.7500   -1.2990    0.0000 C   0  0  0  0  0  0  0  0  0  0  0  0
    1.5000    0.0000    0.0000 C   0  0  0  0  0  0  0  0  0  0  0  0
    0.7500    1.2990    0.0000 C   0  0  0  0  0  0  0  0  0  0  0  0
   -0.7500    1.2990    0.0000 C   0  0  0  0  0  0  0  0  0  0  0  0
   -1.5000    2.5981    0.0000 O   0  0  0  0  0  0  0  0  0  0  0  0
   -1.5000    0.0000    0.0000 C   0  0  0  0  0  0  0  0  0  0  0  0
   -0.7500   -1.2990    0.0000 C   0  0  0  0  0  0  0  0  0  0  0  0
   -0.1568   -5.0991    0.0000 C   0  0  0  0  0  0  0  0  0  0  0  0
    1.2135   -4.4890    0.0000 O   0  0  0  0  0  0  0  0  0  0  0  0
    1.0567   -5.9808    0.0000 C   0  0  0  0  0  0  0  0  0  0  0  0
    0.8999   -7.4725    0.0000 C   0  0  0  0  0  0  0  0  0  0  0  0
   -0.7316   -6.1426    0.0000 C   0  0  0  0  0  0  0  0  0  0  0  0
   -3.0122   -7.4114    0.0000 C   0  0  0  0  0  0  0  0  0  0  0  0
   -4.5040   -7.2546    0.0000 O   0  0  0  0  0  0  0  0  0  0  0  0
  1  2  1  0
  2  3  2  0
  3  4  1  0
  4  5  1  0
  5  6  1  0
  6  7  1  6
  7  8  1  0
  8  9  2  0
  9 10  1  0
 10 11  1  0
 11 12  2  0
 12 13  1  0
 13 14  2  0
 14 15  1  0
 14 16  1  0
 16 17  2  0
  9 18  1  0
 18 19  1  1
 18 20  1  0
 21 20  1  1
 21 22  1  0
 22 23  1  1
 23 24  1  0
 21  3  1  0
 18  5  1  0
 22  6  1  0
 17  8  1  0
 17 11  1  0
M  END
>  <Compound_ID>  (174) 
C13304253

>  <Active>  (174) 
0.0

>  <Smiles>  (174) 
C/C=C1/CN2[C@@H]3Cc4c([nH]c5ccc(O)cc45)[C@]2(O)C[C@@H]1[C@@H]3CO

>  <canonical_smi>  (174) 
C/C=C1/CN2[C@@H]3Cc4c([nH]c5ccc(O)cc45)[C@]2(O)C[C@@H]1[C@@H]3CO

>  <Set>  (174) 
G2 inactive

>  <Set_type>  (174) 
Train

>  <MW>  (174) 
326.4

>  <HBD>  (174) 
4

>  <HBA>  (174) 
4

>  <NRB>  (174) 
1

>  <NR>  (174) 
6

>  <NAR>  (174) 
2

>  <PSA>  (174) 
79.72

>  <Standard Type>  (174) 
nan

>  <Standard Relation>  (174) 
nan

>  <Standard Units>  (174) 
nan

>  <Standard Value>  (174) 
nan

>  <Assay ChEMBL ID>  (174) 
nan

>  <Assay Description>  (174) 
nan

>  <BAO Label>  (174) 
nan

$$$$

     RDKit          2D

 24 26  0  0  0  0  0  0  0  0999 V2000
    3.0000    0.0000    0.0000 C   0  0  0  0  0  0  0  0  0  0  0  0
    1.5000    0.0000    0.0000 C   0  0  0  0  0  0  0  0  0  0  0  0
    0.7500   -1.2990    0.0000 C   0  0  0  0  0  0  0  0  0  0  0  0
    1.5000   -2.5981    0.0000 O   0  0  0  0  0  0  0  0  0  0  0  0
   -0.7500   -1.2990    0.0000 C   0  0  0  0  0  0  0  0  0  0  0  0
   -1.5000    0.0000    0.0000 C   0  0  0  0  0  0  0  0  0  0  0  0
   -0.7500    1.2990    0.0000 C   0  0  0  0  0  0  0  0  0  0  0  0
    0.7500    1.2990    0.0000 C   0  0  0  0  0  0  0  0  0  0  0  0
    1.5000    2.5981    0.0000 O   0  0  0  0  0  0  0  0  0  0  0  0
   -1.5000    2.5981    0.0000 C   0  0  0  0  0  0  0  0  0  0  0  0
   -0.7500    3.8971    0.0000 O   0  0  0  0  0  0  0  0  0  0  0  0
   -3.0000    2.5981    0.0000 C   0  0  0  0  0  0  0  0  0  0  0  0
   -3.7500    3.8971    0.0000 O   0  0  0  0  0  0  0  0  0  0  0  0
   -3.7500    1.2990    0.0000 C   0  0  0  0  0  0  0  0  0  0  0  0
   -5.2500    1.2990    0.0000 C   0  0  0  0  0  0  0  0  0  0  0  0
   -6.0000    2.5981    0.0000 C   0  0  0  0  0  0  0  0  0  0  0  0
   -7.5000    2.5981    0.0000 C   0  0  0  0  0  0  0  0  0  0  0  0
   -8.2500    3.8971    0.0000 O   0  0  0  0  0  0  0  0  0  0  0  0
   -8.2500    1.2990    0.0000 C   0  0  0  0  0  0  0  0  0  0  0  0
   -9.7500    1.2990    0.0000 O   0  0  0  0  0  0  0  0  0  0  0  0
   -7.5000    0.0000    0.0000 C   0  0  0  0  0  0  0  0  0  0  0  0
   -8.2500   -1.2990    0.0000 O   0  0  0  0  0  0  0  0  0  0  0  0
   -6.0000    0.0000    0.0000 C   0  0  0  0  0  0  0  0  0  0  0  0
   -3.0000    0.0000    0.0000 O   0  0  0  0  0  0  0  0  0  0  0  0
  1  2  1  0
  2  3  2  0
  3  4  1  0
  3  5  1  0
  5  6  2  0
  6  7  1  0
  7  8  2  0
  8  9  1  0
  7 10  1  0
 10 11  2  0
 10 12  1  0
 12 13  1  6
 12 14  1  0
 14 15  1  1
 15 16  2  0
 16 17  1  0
 17 18  1  0
 17 19  2  0
 19 20  1  0
 19 21  1  0
 21 22  1  0
 21 23  2  0
 14 24  1  0
  8  2  1  0
 23 15  1  0
 24  6  1  0
M  END
>  <Compound_ID>  (175) 
C14437962

>  <Active>  (175) 
0.0

>  <Smiles>  (175) 
Cc1c(O)cc2c(c1O)C(=O)[C@@H](O)[C@H](c1cc(O)c(O)c(O)c1)O2

>  <canonical_smi>  (175) 
Cc1c(O)cc2c(c1O)C(=O)[C@@H](O)[C@H](c1cc(O)c(O)c(O)c1)O2

>  <Set>  (175) 
G2 inactive

>  <Set_type>  (175) 
Train

>  <MW>  (175) 
334.28

>  <HBD>  (175) 
6

>  <HBA>  (175) 
8

>  <NRB>  (175) 
1

>  <NR>  (175) 
3

>  <NAR>  (175) 
2

>  <PSA>  (175) 
147.68

>  <Standard Type>  (175) 
nan

>  <Standard Relation>  (175) 
nan

>  <Standard Units>  (175) 
nan

>  <Standard Value>  (175) 
nan

>  <Assay ChEMBL ID>  (175) 
nan

>  <Assay Description>  (175) 
nan

>  <BAO Label>  (175) 
nan

$$$$

     RDKit          2D

 23 26  0  0  0  0  0  0  0  0999 V2000
    3.7500   -1.2990    0.0000 O   0  0  0  0  0  0  0  0  0  0  0  0
    3.0000   -2.5981    0.0000 C   0  0  0  0  0  0  0  0  0  0  0  0
    3.7500   -3.8971    0.0000 N   0  0  0  0  0  0  0  0  0  0  0  0
    3.0000   -5.1962    0.0000 C   0  0  0  0  0  0  0  0  0  0  0  0
    3.7500   -6.4952    0.0000 S   0  0  0  0  0  0  0  0  0  0  0  0
    1.5000   -5.1962    0.0000 N   0  0  0  0  0  0  0  0  0  0  0  0
    0.7500   -3.8971    0.0000 C   0  0  0  0  0  0  0  0  0  0  0  0
   -0.7500   -3.8971    0.0000 O   0  0  0  0  0  1  0  0  0  0  0  0
    1.5000   -2.5981    0.0000 C   0  0  0  0  0  0  0  0  0  0  0  0
    0.7500   -1.2990    0.0000 C   0  0  0  0  0  0  0  0  0  0  0  0
    1.5000    0.0000    0.0000 N   0  0  0  0  0  4  0  0  0  0  0  0
    0.7500    1.2990    0.0000 C   0  0  0  0  0  0  0  0  0  0  0  0
   -0.7500    1.2990    0.0000 C   0  0  0  0  0  0  0  0  0  0  0  0
   -1.5000    0.0000    0.0000 C   0  0  0  0  0  0  0  0  0  0  0  0
   -0.7500   -1.2990    0.0000 C   0  0  0  0  0  0  0  0  0  0  0  0
   -1.7537   -2.4138    0.0000 N   0  0  0  0  0  0  0  0  0  0  0  0
   -3.1240   -1.8037    0.0000 C   0  0  0  0  0  0  0  0  0  0  0  0
   -4.4943   -2.4138    0.0000 C   0  0  0  0  0  0  0  0  0  0  0  0
   -5.7079   -1.5321    0.0000 C   0  0  0  0  0  0  0  0  0  0  0  0
   -5.5511   -0.0403    0.0000 C   0  0  0  0  0  0  0  0  0  0  0  0
   -6.7646    0.8414    0.0000 Cl  0  0  0  0  0  0  0  0  0  0  0  0
   -4.1807    0.5698    0.0000 C   0  0  0  0  0  0  0  0  0  0  0  0
   -2.9672   -0.3119    0.0000 C   0  0  0  0  0  0  0  0  0  0  0  0
  1  2  2  0
  2  3  1  0
  3  4  1  0
  4  5  2  0
  4  6  1  0
  6  7  1  0
  7  8  1  0
  7  9  2  0
 10  9  1  6
 10 11  1  0
 11 12  1  0
 12 13  1  0
 13 14  1  0
 14 15  2  0
 15 16  1  0
 16 17  1  0
 17 18  2  0
 18 19  1  0
 19 20  2  0
 20 21  1  0
 20 22  1  0
 22 23  2  0
  9  2  1  0
 15 10  1  0
 23 17  1  0
 23 14  1  0
M  CHG  2   8  -1  11   1
M  END
>  <Compound_ID>  (176) 
C20759757

>  <Active>  (176) 
0.0

>  <Smiles>  (176) 
O=c1[nH]c(=S)[nH]c([O-])c1[C@H]1[NH2+]CCc2c1[nH]c1ccc(Cl)cc21

>  <canonical_smi>  (176) 
O=c1[nH]c(=S)[nH]c([O-])c1[C@H]1[NH2+]CCc2c1[nH]c1ccc(Cl)cc21

>  <Set>  (176) 
G2 inactive

>  <Set_type>  (176) 
Train

>  <MW>  (176) 
348.82

>  <HBD>  (176) 
4

>  <HBA>  (176) 
3

>  <NRB>  (176) 
1

>  <NR>  (176) 
4

>  <NAR>  (176) 
3

>  <PSA>  (176) 
104.11

>  <Standard Type>  (176) 
nan

>  <Standard Relation>  (176) 
nan

>  <Standard Units>  (176) 
nan

>  <Standard Value>  (176) 
nan

>  <Assay ChEMBL ID>  (176) 
nan

>  <Assay Description>  (176) 
nan

>  <BAO Label>  (176) 
nan

$$$$

     RDKit          2D

 18 20  0  0  0  0  0  0  0  0999 V2000
    5.1517   -5.9231    0.0000 O   0  0  0  0  0  0  0  0  0  0  0  0
    3.8527   -5.1731    0.0000 C   0  0  0  0  0  0  0  0  0  0  0  0
    2.5537   -5.9231    0.0000 C   0  0  0  0  0  0  0  0  0  0  0  0
    2.5537   -7.4231    0.0000 O   0  0  0  0  0  0  0  0  0  0  0  0
    1.2546   -5.1731    0.0000 C   0  0  0  0  0  0  0  0  0  0  0  0
   -0.0444   -5.9231    0.0000 O   0  0  0  0  0  0  0  0  0  0  0  0
    1.2546   -3.6731    0.0000 C   0  0  0  0  0  0  0  0  0  0  0  0
    0.1399   -2.6694    0.0000 O   0  0  0  0  0  0  0  0  0  0  0  0
    0.7500   -1.2990    0.0000 C   0  0  0  0  0  0  0  0  0  0  0  0
    1.5000    0.0000    0.0000 C   0  0  0  0  0  0  0  0  0  0  0  0
    0.7500    1.2990    0.0000 C   0  0  0  0  0  0  0  0  0  0  0  0
   -0.7500    1.2990    0.0000 C   0  0  0  0  0  0  0  0  0  0  0  0
   -1.5000    0.0000    0.0000 C   0  0  0  0  0  0  0  0  0  0  0  0
   -0.7500   -1.2990    0.0000 C   0  0  0  0  0  0  0  0  0  0  0  0
    2.2418   -1.4558    0.0000 O   0  0  0  0  0  0  0  0  0  0  0  0
    2.5537   -2.9231    0.0000 C   0  0  0  0  0  0  0  0  0  0  0  0
    3.8527   -3.6731    0.0000 C   0  0  0  0  0  0  0  0  0  0  0  0
    5.1517   -2.9231    0.0000 O   0  0  0  0  0  0  0  0  0  0  0  0
  2  1  1  6
  2  3  1  0
  3  4  1  6
  3  5  1  0
  5  6  1  6
  5  7  1  0
  7  8  1  6
  8  9  1  0
  9 10  1  0
 10 11  1  0
 11 12  1  0
 12 13  1  0
 13 14  1  0
  9 15  1  0
 16 15  1  1
 16 17  1  0
 17 18  1  6
 17  2  1  0
 16  7  1  0
 14  9  1  0
M  END
>  <Compound_ID>  (177) 
C04100787

>  <Active>  (177) 
0.0

>  <Smiles>  (177) 
O[C@@H]1[C@H](O)[C@H](O)[C@@H]2OC3(CCCCC3)O[C@H]2[C@@H]1O

>  <canonical_smi>  (177) 
O[C@@H]1[C@@H]2OC3(CCCCC3)O[C@H]2[C@H](O)[C@H](O)[C@@H]1O

>  <Set>  (177) 
G2 inactive

>  <Set_type>  (177) 
Train

>  <MW>  (177) 
260.29

>  <HBD>  (177) 
4

>  <HBA>  (177) 
6

>  <NRB>  (177) 
0

>  <NR>  (177) 
3

>  <NAR>  (177) 
0

>  <PSA>  (177) 
99.38

>  <Standard Type>  (177) 
nan

>  <Standard Relation>  (177) 
nan

>  <Standard Units>  (177) 
nan

>  <Standard Value>  (177) 
nan

>  <Assay ChEMBL ID>  (177) 
nan

>  <Assay Description>  (177) 
nan

>  <BAO Label>  (177) 
nan

$$$$

     RDKit          2D

 16 17  0  0  0  0  0  0  0  0999 V2000
    3.0000    0.0000    0.0000 N   0  0  0  0  0  0  0  0  0  0  0  0
    1.5000    0.0000    0.0000 C   0  0  0  0  0  0  0  0  0  0  0  0
    0.7500   -1.2990    0.0000 N   0  0  0  0  0  0  0  0  0  0  0  0
   -0.7500   -1.2990    0.0000 C   0  0  0  0  0  0  0  0  0  0  0  0
   -1.5000    0.0000    0.0000 N   0  0  0  0  0  0  0  0  0  0  0  0
   -0.7500    1.2990    0.0000 C   0  0  0  0  0  0  0  0  0  0  0  0
   -1.5000    2.5981    0.0000 S   0  0  0  0  0  0  0  0  0  0  0  0
   -3.0000    2.5981    0.0000 C   0  0  0  0  0  0  0  0  0  0  0  0
   -3.7500    3.8971    0.0000 C   0  0  0  0  0  0  0  0  0  0  0  0
   -5.2500    3.8971    0.0000 C   0  0  0  0  0  0  0  0  0  0  0  0
   -6.0000    2.5981    0.0000 C   0  0  0  0  0  0  0  0  0  0  0  0
   -7.5000    2.5981    0.0000 Cl  0  0  0  0  0  0  0  0  0  0  0  0
   -5.2500    1.2990    0.0000 C   0  0  0  0  0  0  0  0  0  0  0  0
   -3.7500    1.2990    0.0000 C   0  0  0  0  0  0  0  0  0  0  0  0
    0.7500    1.2990    0.0000 C   0  0  0  0  0  0  0  0  0  0  0  0
    1.5000    2.5981    0.0000 N   0  0  0  0  0  0  0  0  0  0  0  0
  1  2  1  0
  2  3  2  0
  3  4  1  0
  4  5  2  0
  5  6  1  0
  6  7  1  0
  7  8  1  0
  8  9  2  0
  9 10  1  0
 10 11  2  0
 11 12  1  0
 11 13  1  0
 13 14  2  0
  6 15  2  0
 15 16  1  0
 15  2  1  0
 14  8  1  0
M  END
>  <Compound_ID>  (178) 
C40709739

>  <Active>  (178) 
0.0

>  <Smiles>  (178) 
Nc1ncnc(Sc2ccc(Cl)cc2)c1N

>  <canonical_smi>  (178) 
Nc1ncnc(Sc2ccc(Cl)cc2)c1N

>  <Set>  (178) 
G2 inactive

>  <Set_type>  (178) 
Train

>  <MW>  (178) 
252.73

>  <HBD>  (178) 
2

>  <HBA>  (178) 
5

>  <NRB>  (178) 
2

>  <NR>  (178) 
2

>  <NAR>  (178) 
2

>  <PSA>  (178) 
77.82

>  <Standard Type>  (178) 
nan

>  <Standard Relation>  (178) 
nan

>  <Standard Units>  (178) 
nan

>  <Standard Value>  (178) 
nan

>  <Assay ChEMBL ID>  (178) 
nan

>  <Assay Description>  (178) 
nan

>  <BAO Label>  (178) 
nan

$$$$

     RDKit          2D

 20 22  0  0  0  0  0  0  0  0999 V2000
    3.0000    0.0000    0.0000 N   0  0  0  0  0  0  0  0  0  0  0  0
    1.5000    0.0000    0.0000 C   0  0  0  0  0  0  0  0  0  0  0  0
    0.7500   -1.2990    0.0000 C   0  0  0  0  0  0  0  0  0  0  0  0
   -0.7500   -1.2990    0.0000 C   0  0  0  0  0  0  0  0  0  0  0  0
   -1.5000   -2.5981    0.0000 O   0  0  0  0  0  0  0  0  0  0  0  0
   -1.5000    0.0000    0.0000 C   0  0  0  0  0  0  0  0  0  0  0  0
   -3.0000    0.0000    0.0000 C   0  0  0  0  0  0  0  0  0  0  0  0
   -3.8817    1.2135    0.0000 N   0  0  0  0  0  0  0  0  0  0  0  0
   -5.3083    0.7500    0.0000 C   0  0  0  0  0  0  0  0  0  0  0  0
   -6.5218    1.6317    0.0000 C   0  0  0  0  0  0  0  0  0  0  0  0
   -6.3650    3.1235    0.0000 C   0  0  0  0  0  0  0  0  0  0  0  0
   -7.5785    4.0051    0.0000 C   0  0  0  0  0  0  0  0  0  0  0  0
   -8.9488    3.3950    0.0000 C   0  0  0  0  0  0  0  0  0  0  0  0
  -10.1624    4.2767    0.0000 O   0  0  0  0  0  0  0  0  0  0  0  0
   -9.1056    1.9033    0.0000 C   0  0  0  0  0  0  0  0  0  0  0  0
   -7.8921    1.0216    0.0000 C   0  0  0  0  0  0  0  0  0  0  0  0
   -5.3083   -0.7500    0.0000 N   0  0  0  0  0  0  0  0  0  0  0  0
   -3.8817   -1.2135    0.0000 O   0  0  0  0  0  0  0  0  0  0  0  0
   -0.7500    1.2990    0.0000 C   0  0  0  0  0  0  0  0  0  0  0  0
    0.7500    1.2990    0.0000 C   0  0  0  0  0  0  0  0  0  0  0  0
  1  2  1  0
  2  3  2  0
  3  4  1  0
  4  5  2  0
  4  6  1  0
  6  7  2  0
  7  8  1  0
  8  9  1  0
  9 10  2  0
 10 11  1  0
 11 12  2  0
 12 13  1  0
 13 14  2  0
 13 15  1  0
 15 16  2  0
  9 17  1  0
 17 18  1  0
  6 19  1  0
 19 20  2  0
 20  2  1  0
 18  7  1  0
 16 10  1  0
M  END
>  <Compound_ID>  (179) 
C19997381

>  <Active>  (179) 
0.0

>  <Smiles>  (179) 
NC1=CC(=O)/C(=C2/NC(=C3C=CC(=O)C=C3)NO2)C=C1

>  <canonical_smi>  (179) 
NC1=CC(=O)/C(=C2/NC(=C3C=CC(=O)C=C3)NO2)C=C1

>  <Set>  (179) 
G2 inactive

>  <Set_type>  (179) 
Train

>  <MW>  (179) 
269.26

>  <HBD>  (179) 
3

>  <HBA>  (179) 
6

>  <NRB>  (179) 
0

>  <NR>  (179) 
3

>  <NAR>  (179) 
0

>  <PSA>  (179) 
93.45

>  <Standard Type>  (179) 
nan

>  <Standard Relation>  (179) 
nan

>  <Standard Units>  (179) 
nan

>  <Standard Value>  (179) 
nan

>  <Assay ChEMBL ID>  (179) 
nan

>  <Assay Description>  (179) 
nan

>  <BAO Label>  (179) 
nan

$$$$

     RDKit          2D

 24 28  0  0  0  0  0  0  0  0999 V2000
   -3.2110   -9.3029    0.0000 C   0  0  0  0  0  0  0  0  0  0  0  0
   -3.0542   -7.8111    0.0000 C   0  0  0  0  0  0  0  0  0  0  0  0
   -4.2677   -6.9294    0.0000 C   0  0  0  0  0  0  0  0  0  0  0  0
   -4.1110   -5.4376    0.0000 C   0  0  0  0  0  0  0  0  0  0  0  0
   -5.3245   -4.5559    0.0000 O   0  0  0  0  0  0  0  0  0  0  0  0
   -2.7406   -4.8275    0.0000 C   0  0  0  0  0  0  0  0  0  0  0  0
   -1.5271   -5.7092    0.0000 C   0  0  0  0  0  0  0  0  0  0  0  0
   -1.6839   -7.2010    0.0000 C   0  0  0  0  0  0  0  0  0  0  0  0
   -0.1568   -5.0991    0.0000 N   0  0  0  0  0  0  0  0  0  0  0  0
   -0.0000   -3.6073    0.0000 C   0  0  0  0  0  0  0  0  0  0  0  0
    1.2135   -2.7256    0.0000 N   0  0  0  0  0  0  0  0  0  0  0  0
    0.7500   -1.2990    0.0000 C   0  0  0  0  0  0  0  0  0  0  0  0
    1.5000    0.0000    0.0000 C   0  0  0  0  0  0  0  0  0  0  0  0
    0.7500    1.2990    0.0000 C   0  0  0  0  0  0  0  0  0  0  0  0
   -0.7500    1.2990    0.0000 C   0  0  0  0  0  0  0  0  0  0  0  0
   -1.5000    0.0000    0.0000 C   0  0  0  0  0  0  0  0  0  0  0  0
   -0.7500   -1.2990    0.0000 C   0  0  0  0  0  0  0  0  0  0  0  0
   -1.2135   -2.7256    0.0000 N   0  0  0  0  0  0  0  0  0  0  0  0
   -2.5838   -3.3357    0.0000 C   0  0  0  0  0  0  0  0  0  0  0  0
   -3.7974   -2.4540    0.0000 C   0  0  0  0  0  0  0  0  0  0  0  0
   -5.2240   -2.9176    0.0000 C   0  0  0  0  0  0  0  0  0  0  0  0
   -6.1056   -1.7040    0.0000 C   0  0  0  0  0  0  0  0  0  0  0  0
   -5.2240   -0.4905    0.0000 C   0  0  0  0  0  0  0  0  0  0  0  0
   -3.7974   -0.9540    0.0000 O   0  0  0  0  0  0  0  0  0  0  0  0
  2  1  1  6
  2  3  1  0
  3  4  1  0
  4  5  2  0
  4  6  1  0
  6  7  2  0
  7  8  1  0
  7  9  1  0
  9 10  1  0
 10 11  2  0
 11 12  1  0
 12 13  2  0
 13 14  1  0
 14 15  2  0
 15 16  1  0
 16 17  2  0
 17 18  1  0
 18 19  1  0
 19 20  1  1
 20 21  2  0
 21 22  1  0
 22 23  2  0
 23 24  1  0
  8  2  1  0
 18 10  1  0
 24 20  1  0
 19  6  1  0
 17 12  1  0
M  END
>  <Compound_ID>  (180) 
C06908590

>  <Active>  (180) 
0.0

>  <Smiles>  (180) 
C[C@@H]1CC(=O)C2=C(C1)Nc1nc3ccccc3n1[C@@H]2c1ccco1

>  <canonical_smi>  (180) 
C[C@@H]1CC(=O)C2=C(C1)Nc1nc3ccccc3n1[C@@H]2c1ccco1

>  <Set>  (180) 
G2 inactive

>  <Set_type>  (180) 
Train

>  <MW>  (180) 
319.36

>  <HBD>  (180) 
1

>  <HBA>  (180) 
4

>  <NRB>  (180) 
1

>  <NR>  (180) 
5

>  <NAR>  (180) 
3

>  <PSA>  (180) 
60.06

>  <Standard Type>  (180) 
nan

>  <Standard Relation>  (180) 
nan

>  <Standard Units>  (180) 
nan

>  <Standard Value>  (180) 
nan

>  <Assay ChEMBL ID>  (180) 
nan

>  <Assay Description>  (180) 
nan

>  <BAO Label>  (180) 
nan

$$$$

     RDKit          2D

 19 21  0  0  0  0  0  0  0  0999 V2000
    5.2500   -1.2990    0.0000 C   0  0  0  0  0  0  0  0  0  0  0  0
    3.7500   -1.2990    0.0000 C   0  0  0  0  0  0  0  0  0  0  0  0
    3.0000   -2.5981    0.0000 O   0  0  0  0  0  0  0  0  0  0  0  0
    3.0000    0.0000    0.0000 N   0  0  0  0  0  4  0  0  0  0  0  0
    1.5000    0.0000    0.0000 C   0  0  0  0  0  0  0  0  0  0  0  0
    0.7500   -1.2990    0.0000 C   0  0  0  0  0  0  0  0  0  0  0  0
   -0.7500   -1.2990    0.0000 C   0  0  0  0  0  0  0  0  0  0  0  0
   -1.5000    0.0000    0.0000 C   0  0  0  0  0  0  0  0  0  0  0  0
   -2.9672    0.3119    0.0000 N   0  0  0  0  0  0  0  0  0  0  0  0
   -3.1240    1.8037    0.0000 C   0  0  0  0  0  0  0  0  0  0  0  0
   -4.4231    2.5537    0.0000 C   0  0  0  0  0  0  0  0  0  0  0  0
   -5.7934    1.9435    0.0000 C   0  0  0  0  0  0  0  0  0  0  0  0
   -6.7971    3.0583    0.0000 C   0  0  0  0  0  0  0  0  0  0  0  0
   -6.0471    4.3573    0.0000 C   0  0  0  0  0  0  0  0  0  0  0  0
   -6.6572    5.7276    0.0000 Br  0  0  0  0  0  0  0  0  0  0  0  0
   -4.5798    4.0454    0.0000 O   0  0  0  0  0  0  0  0  0  0  0  0
   -1.7537    2.4138    0.0000 N   0  0  0  0  0  2  0  0  0  0  0  0
   -0.7500    1.2990    0.0000 C   0  0  0  0  0  0  0  0  0  0  0  0
    0.7500    1.2990    0.0000 C   0  0  0  0  0  0  0  0  0  0  0  0
  1  2  1  0
  2  3  2  0
  2  4  1  0
  4  5  2  0
  5  6  1  0
  6  7  2  0
  7  8  1  0
  8  9  2  0
  9 10  1  0
 10 11  1  1
 11 12  2  0
 12 13  1  0
 13 14  2  0
 14 15  1  0
 14 16  1  0
 10 17  1  0
 17 18  1  0
 18 19  2  0
 19  5  1  0
 18  8  1  0
 16 11  1  0
M  CHG  2   4   1  17  -1
M  END
>  <Compound_ID>  (181) 
C38966285

>  <Active>  (181) 
0.0

>  <Smiles>  (181) 
CC(=O)/[NH+]=C1\C=CC2=N[C@@H](c3ccc(Br)o3)[N-]C2=C1

>  <canonical_smi>  (181) 
CC(=O)/[NH+]=C1\C=CC2=N[C@@H](c3ccc(Br)o3)[N-]C2=C1

>  <Set>  (181) 
G2 inactive

>  <Set_type>  (181) 
Train

>  <MW>  (181) 
320.15

>  <HBD>  (181) 
1

>  <HBA>  (181) 
2

>  <NRB>  (181) 
1

>  <NR>  (181) 
3

>  <NAR>  (181) 
1

>  <PSA>  (181) 
70.64

>  <Standard Type>  (181) 
nan

>  <Standard Relation>  (181) 
nan

>  <Standard Units>  (181) 
nan

>  <Standard Value>  (181) 
nan

>  <Assay ChEMBL ID>  (181) 
nan

>  <Assay Description>  (181) 
nan

>  <BAO Label>  (181) 
nan

$$$$

     RDKit          2D

 33 37  0  0  0  0  0  0  0  0999 V2000
    3.7156    7.2317    0.0000 C   0  0  0  0  0  0  0  0  0  0  0  0
    2.2484    6.9199    0.0000 O   0  0  0  0  0  0  0  0  0  0  0  0
    1.7849    5.4933    0.0000 C   0  0  0  0  0  0  0  0  0  0  0  0
    2.7886    4.3786    0.0000 C   0  0  0  0  0  0  0  0  0  0  0  0
    2.3250    2.9520    0.0000 C   0  0  0  0  0  0  0  0  0  0  0  0
    0.8578    2.6401    0.0000 C   0  0  0  0  0  0  0  0  0  0  0  0
    0.3943    1.2135    0.0000 C   0  0  0  0  0  0  0  0  0  0  0  0
    1.2760    0.0000    0.0000 N   0  0  0  0  0  0  0  0  0  0  0  0
    0.3943   -1.2135    0.0000 N   0  0  0  0  0  0  0  0  0  0  0  0
   -1.0323   -0.7500    0.0000 C   0  0  0  0  0  0  0  0  0  0  0  0
   -1.0323    0.7500    0.0000 C   0  0  0  0  0  0  0  0  0  0  0  0
   -2.3313    1.5000    0.0000 C   0  0  0  0  0  0  0  0  0  0  0  0
   -2.3313    3.0000    0.0000 C   0  0  0  0  0  0  0  0  0  0  0  0
   -1.0323    3.7500    0.0000 C   0  0  0  0  0  0  0  0  0  0  0  0
   -1.0323    5.2500    0.0000 C   0  0  0  0  0  0  0  0  0  0  0  0
   -2.3313    6.0000    0.0000 C   0  0  0  0  0  0  0  0  0  0  0  0
   -2.3313    7.5000    0.0000 N   0  0  0  0  0  0  0  0  0  0  0  0
   -1.0323    8.2500    0.0000 C   0  0  0  0  0  0  0  0  0  0  0  0
   -3.6304    8.2500    0.0000 C   0  0  0  0  0  0  0  0  0  0  0  0
   -3.6304    5.2500    0.0000 C   0  0  0  0  0  0  0  0  0  0  0  0
   -3.6304    3.7500    0.0000 C   0  0  0  0  0  0  0  0  0  0  0  0
   -3.6304    0.7500    0.0000 C   0  0  0  0  0  0  0  0  0  0  0  0
   -3.6304   -0.7500    0.0000 C   0  0  0  0  0  0  0  0  0  0  0  0
   -4.9294   -1.5000    0.0000 C   0  0  0  0  0  0  0  0  0  0  0  0
   -6.2284   -0.7500    0.0000 C   0  0  0  0  0  0  0  0  0  0  0  0
   -7.7057   -0.4895    0.0000 C   0  0  0  0  0  0  0  0  0  0  0  0
   -6.7415   -2.1595    0.0000 C   0  0  0  0  0  0  0  0  0  0  0  0
   -6.2284    0.7500    0.0000 C   0  0  0  0  0  0  0  0  0  0  0  0
   -4.9294    1.5000    0.0000 C   0  0  0  0  0  0  0  0  0  0  0  0
   -4.9294    3.0000    0.0000 O   0  0  0  0  0  0  0  0  0  0  0  0
   -2.3313   -1.5000    0.0000 N   0  0  0  0  0  0  0  0  0  0  0  0
   -0.1459    3.7548    0.0000 C   0  0  0  0  0  0  0  0  0  0  0  0
    0.3177    5.1814    0.0000 C   0  0  0  0  0  0  0  0  0  0  0  0
  1  2  1  0
  2  3  1  0
  3  4  2  0
  4  5  1  0
  5  6  2  0
  6  7  1  0
  7  8  2  0
  8  9  1  0
  9 10  1  0
 10 11  2  0
 11 12  1  0
 12 13  1  6
 13 14  2  0
 14 15  1  0
 15 16  2  0
 16 17  1  0
 17 18  1  0
 17 19  1  0
 16 20  1  0
 20 21  2  0
 12 22  1  0
 22 23  2  0
 23 24  1  0
 24 25  1  0
 25 26  1  0
 25 27  1  0
 25 28  1  0
 28 29  1  0
 29 30  2  0
 23 31  1  0
  6 32  1  0
 32 33  2  0
 33  3  1  0
 11  7  1  0
 21 13  1  0
 29 22  1  0
 31 10  1  0
M  END
>  <Compound_ID>  (182) 
C09597276

>  <Active>  (182) 
0.0

>  <Smiles>  (182) 
COc1ccc(-c2n[nH]c3c2[C@@H](c2ccc(N(C)C)cc2)C2=C(CC(C)(C)CC2=O)N3)cc1

>  <canonical_smi>  (182) 
COc1ccc(-c2n[nH]c3c2[C@@H](c2ccc(N(C)C)cc2)C2=C(CC(C)(C)CC2=O)N3)cc1

>  <Set>  (182) 
G2 inactive

>  <Set_type>  (182) 
Train

>  <MW>  (182) 
442.56

>  <HBD>  (182) 
2

>  <HBA>  (182) 
5

>  <NRB>  (182) 
4

>  <NR>  (182) 
5

>  <NAR>  (182) 
3

>  <PSA>  (182) 
70.25

>  <Standard Type>  (182) 
nan

>  <Standard Relation>  (182) 
nan

>  <Standard Units>  (182) 
nan

>  <Standard Value>  (182) 
nan

>  <Assay ChEMBL ID>  (182) 
nan

>  <Assay Description>  (182) 
nan

>  <BAO Label>  (182) 
nan

$$$$

     RDKit          2D

 21 22  0  0  0  0  0  0  0  0999 V2000
   -1.3858   -2.5339    0.0000 N   0  0  0  0  0  0  0  0  0  0  0  0
   -0.0000   -1.9598    0.0000 C   0  0  0  0  0  0  0  0  0  0  0  0
    1.3858   -1.3858    0.0000 C   0  0  0  0  0  0  0  0  0  0  0  0
    1.5816   -2.8730    0.0000 N   0  0  0  0  0  0  0  0  0  0  0  0
    2.9674   -3.4470    0.0000 S   0  0  0  0  0  0  0  0  0  0  0  0
    2.3934   -4.8328    0.0000 O   0  0  0  0  0  0  0  0  0  0  0  0
    3.5415   -2.0612    0.0000 O   0  0  0  0  0  0  0  0  0  0  0  0
    4.3532   -4.0210    0.0000 N   0  0  0  0  0  0  0  0  0  0  0  0
    5.4717   -3.0215    0.0000 C   0  0  0  0  0  0  0  0  0  0  0  0
    6.9505   -3.2728    0.0000 C   0  0  0  0  0  0  0  0  0  0  0  0
    7.6761   -4.5856    0.0000 C   0  0  0  0  0  0  0  0  0  0  0  0
    7.1021   -5.9714    0.0000 C   0  0  0  0  0  0  0  0  0  0  0  0
    5.6607   -6.3867    0.0000 C   0  0  0  0  0  0  0  0  0  0  0  0
    4.4374   -5.5187    0.0000 C   0  0  0  0  0  0  0  0  0  0  0  0
    0.4727   -0.1958    0.0000 C   0  0  0  0  0  0  0  0  0  0  0  0
    0.6685    1.2914    0.0000 C   0  0  0  0  0  0  0  0  0  0  0  0
    1.8585    2.2045    0.0000 C   0  0  0  0  0  0  0  0  0  0  0  0
    3.3457    2.0087    0.0000 C   0  0  0  0  0  0  0  0  0  0  0  0
    4.2588    0.8187    0.0000 C   0  0  0  0  0  0  0  0  0  0  0  0
    4.0630   -0.6685    0.0000 C   0  0  0  0  0  0  0  0  0  0  0  0
    2.8730   -1.5816    0.0000 C   0  0  0  0  0  0  0  0  0  0  0  0
  1  2  3  0
  2  3  1  0
  3  4  1  0
  4  5  1  0
  5  6  2  0
  5  7  2  0
  5  8  1  0
  8  9  1  0
  9 10  1  0
 10 11  1  0
 11 12  1  0
 12 13  1  0
 13 14  1  0
  3 15  1  0
 15 16  1  0
 16 17  1  0
 17 18  1  0
 18 19  1  0
 19 20  1  0
 20 21  1  0
 21  3  1  0
 14  8  1  0
M  END
>  <Compound_ID>  (183) 
C40367141

>  <Active>  (183) 
0.0

>  <Smiles>  (183) 
N#CC1(NS(=O)(=O)N2CCCCCC2)CCCCCCC1

>  <canonical_smi>  (183) 
N#CC1(NS(=O)(=O)N2CCCCCC2)CCCCCCC1

>  <Set>  (183) 
G2 inactive

>  <Set_type>  (183) 
Train

>  <MW>  (183) 
313.47

>  <HBD>  (183) 
1

>  <HBA>  (183) 
3

>  <NRB>  (183) 
3

>  <NR>  (183) 
2

>  <NAR>  (183) 
0

>  <PSA>  (183) 
73.2

>  <Standard Type>  (183) 
nan

>  <Standard Relation>  (183) 
nan

>  <Standard Units>  (183) 
nan

>  <Standard Value>  (183) 
nan

>  <Assay ChEMBL ID>  (183) 
nan

>  <Assay Description>  (183) 
nan

>  <BAO Label>  (183) 
nan

$$$$

     RDKit          2D

 22 25  0  0  0  0  0  0  0  0999 V2000
    2.7760    0.0000    0.0000 C   0  0  0  0  0  0  0  0  0  0  0  0
    1.2760    0.0000    0.0000 C   0  0  0  0  0  0  0  0  0  0  0  0
    0.3943    1.2135    0.0000 C   0  0  0  0  0  0  0  0  0  0  0  0
    0.8578    2.6401    0.0000 C   0  0  0  0  0  0  0  0  0  0  0  0
   -0.0239    3.8536    0.0000 C   0  0  0  0  0  0  0  0  0  0  0  0
    0.8578    5.0672    0.0000 S   0  0  0  0  0  0  0  0  0  0  0  0
    2.2844    4.6036    0.0000 C   0  0  0  0  0  0  0  0  0  0  0  0
    3.4979    5.4853    0.0000 N   0  0  0  0  0  0  0  0  0  0  0  0
    3.4979    6.9853    0.0000 C   0  0  0  0  0  0  0  0  0  0  0  0
    4.9245    7.4488    0.0000 C   0  0  0  0  0  0  0  0  0  0  0  0
    5.8062    6.2353    0.0000 C   0  0  0  0  0  0  0  0  0  0  0  0
    4.9245    5.0218    0.0000 C   0  0  0  0  0  0  0  0  0  0  0  0
    2.2844    3.1036    0.0000 N   0  0  0  0  0  0  0  0  0  0  0  0
   -1.0323    0.7500    0.0000 C   0  0  0  0  0  0  0  0  0  0  0  0
   -1.0323   -0.7500    0.0000 C   0  0  0  0  0  0  0  0  0  0  0  0
   -2.2458   -1.6317    0.0000 C   0  0  0  0  0  0  0  0  0  0  0  0
    0.3943   -1.2135    0.0000 N   0  0  0  0  0  0  0  0  0  0  0  0
    0.8578   -2.6401    0.0000 C   0  0  0  0  0  0  0  0  0  0  0  0
    2.2844   -3.1036    0.0000 N   0  0  0  0  0  0  0  0  0  0  0  0
    2.2844   -4.6036    0.0000 C   0  0  0  0  0  0  0  0  0  0  0  0
    0.8578   -5.0672    0.0000 N   0  0  0  0  0  0  0  0  0  0  0  0
   -0.0239   -3.8536    0.0000 N   0  0  0  0  0  0  0  0  0  0  0  0
  1  2  1  0
  2  3  2  0
  3  4  1  0
  4  5  2  0
  5  6  1  0
  6  7  1  0
  7  8  1  0
  8  9  1  0
  9 10  1  0
 10 11  1  0
 11 12  1  0
  7 13  2  0
  3 14  1  0
 14 15  1  0
 15 16  1  1
 15 17  1  0
 17 18  1  0
 18 19  1  0
 19 20  2  0
 20 21  1  0
 21 22  1  0
 17  2  1  0
 22 18  2  0
 13  4  1  0
 12  8  1  0
M  END
>  <Compound_ID>  (184) 
C40000751

>  <Active>  (184) 
0.0

>  <Smiles>  (184) 
CC1=C(c2csc(N3CCCC3)n2)C[C@H](C)N1c1nc[nH]n1

>  <canonical_smi>  (184) 
CC1=C(c2csc(N3CCCC3)n2)C[C@H](C)N1c1nc[nH]n1

>  <Set>  (184) 
G2 inactive

>  <Set_type>  (184) 
Train

>  <MW>  (184) 
316.43

>  <HBD>  (184) 
1

>  <HBA>  (184) 
5

>  <NRB>  (184) 
3

>  <NR>  (184) 
4

>  <NAR>  (184) 
2

>  <PSA>  (184) 
60.94

>  <Standard Type>  (184) 
nan

>  <Standard Relation>  (184) 
nan

>  <Standard Units>  (184) 
nan

>  <Standard Value>  (184) 
nan

>  <Assay ChEMBL ID>  (184) 
nan

>  <Assay Description>  (184) 
nan

>  <BAO Label>  (184) 
nan

$$$$

     RDKit          2D

 20 22  0  0  0  0  0  0  0  0999 V2000
    3.0000    0.0000    0.0000 C   0  0  0  0  0  0  0  0  0  0  0  0
    1.5000    0.0000    0.0000 C   0  0  0  0  0  0  0  0  0  0  0  0
    0.7500   -1.2990    0.0000 C   0  0  0  0  0  0  0  0  0  0  0  0
   -0.7500   -1.2990    0.0000 C   0  0  0  0  0  0  0  0  0  0  0  0
   -1.5000   -2.5981    0.0000 C   0  0  0  0  0  0  0  0  0  0  0  0
   -2.2500   -3.8971    0.0000 F   0  0  0  0  0  0  0  0  0  0  0  0
   -0.2010   -3.3481    0.0000 F   0  0  0  0  0  0  0  0  0  0  0  0
   -2.7990   -1.8481    0.0000 F   0  0  0  0  0  0  0  0  0  0  0  0
   -1.5000    0.0000    0.0000 C   0  0  0  0  0  0  0  0  0  0  0  0
   -0.7500    1.2990    0.0000 C   0  0  0  0  0  0  0  0  0  0  0  0
    0.7500    1.2990    0.0000 N   0  0  0  0  0  0  0  0  0  0  0  0
   -1.7537    2.4138    0.0000 S   0  0  0  0  0  0  0  0  0  0  0  0
   -3.1240    1.8037    0.0000 C   0  0  0  0  0  0  0  0  0  0  0  0
   -4.4943    2.4138    0.0000 C   0  0  0  0  0  0  0  0  0  0  0  0
   -4.6511    3.9055    0.0000 N   0  0  0  0  0  0  0  0  0  0  0  0
   -5.7079    1.5321    0.0000 N   0  0  0  0  0  0  0  0  0  0  0  0
   -5.5511    0.0403    0.0000 C   0  0  0  0  0  0  0  0  0  0  0  0
   -6.7646   -0.8414    0.0000 N   0  0  0  0  0  0  0  0  0  0  0  0
   -4.1807   -0.5698    0.0000 N   0  0  0  0  0  0  0  0  0  0  0  0
   -2.9672    0.3119    0.0000 C   0  0  0  0  0  0  0  0  0  0  0  0
  1  2  1  0
  2  3  2  0
  3  4  1  0
  4  5  1  0
  5  6  1  0
  5  7  1  0
  5  8  1  0
  4  9  2  0
  9 10  1  0
 10 11  2  0
 10 12  1  0
 12 13  1  0
 13 14  2  0
 14 15  1  0
 14 16  1  0
 16 17  2  0
 17 18  1  0
 17 19  1  0
 19 20  2  0
 11  2  1  0
 20 13  1  0
 20  9  1  0
M  END
>  <Compound_ID>  (185) 
C03088083

>  <Active>  (185) 
0.0

>  <Smiles>  (185) 
Cc1cc(C(F)(F)F)c2c(n1)sc1c(N)nc(N)nc12

>  <canonical_smi>  (185) 
Cc1cc(C(F)(F)F)c2c(n1)sc1c(N)nc(N)nc12

>  <Set>  (185) 
G2 inactive

>  <Set_type>  (185) 
Train

>  <MW>  (185) 
299.28

>  <HBD>  (185) 
2

>  <HBA>  (185) 
5

>  <NRB>  (185) 
0

>  <NR>  (185) 
3

>  <NAR>  (185) 
3

>  <PSA>  (185) 
90.71

>  <Standard Type>  (185) 
nan

>  <Standard Relation>  (185) 
nan

>  <Standard Units>  (185) 
nan

>  <Standard Value>  (185) 
nan

>  <Assay ChEMBL ID>  (185) 
nan

>  <Assay Description>  (185) 
nan

>  <BAO Label>  (185) 
nan

$$$$

     RDKit          2D

 19 20  0  0  0  0  0  0  0  0999 V2000
    3.7500   -1.2990    0.0000 C   0  0  0  0  0  0  0  0  0  0  0  0
    3.0000    0.0000    0.0000 N   0  0  0  0  0  4  0  0  0  0  0  0
    3.7500    1.2990    0.0000 C   0  0  0  0  0  0  0  0  0  0  0  0
    1.5000    0.0000    0.0000 C   0  0  0  0  0  0  0  0  0  0  0  0
    0.7500   -1.2990    0.0000 C   0  0  0  0  0  0  0  0  0  0  0  0
   -0.7500   -1.2990    0.0000 C   0  0  0  0  0  0  0  0  0  0  0  0
   -1.5000    0.0000    0.0000 C   0  0  0  0  0  0  0  0  0  0  0  0
   -3.0000    0.0000    0.0000 N   0  0  0  0  0  0  0  0  0  0  0  0
   -3.7500    1.2990    0.0000 C   0  0  0  0  0  0  0  0  0  0  0  0
   -5.2500    1.2990    0.0000 C   0  0  0  0  0  0  0  0  0  0  0  0
   -6.0000    2.5981    0.0000 C   0  0  0  0  0  0  0  0  0  0  0  0
   -7.5000    2.5981    0.0000 C   0  0  0  0  0  0  0  0  0  0  0  0
   -8.2500    1.2990    0.0000 C   0  0  0  0  0  0  0  0  0  0  0  0
   -7.5000    0.0000    0.0000 C   0  0  0  0  0  0  0  0  0  0  0  0
   -8.2500   -1.2990    0.0000 O   0  0  0  0  0  0  0  0  0  0  0  0
   -6.0000    0.0000    0.0000 C   0  0  0  0  0  0  0  0  0  0  0  0
   -5.2500   -1.2990    0.0000 O   0  0  0  0  0  0  0  0  0  0  0  0
   -0.7500    1.2990    0.0000 C   0  0  0  0  0  0  0  0  0  0  0  0
    0.7500    1.2990    0.0000 C   0  0  0  0  0  0  0  0  0  0  0  0
  1  2  1  0
  2  3  1  0
  2  4  1  0
  4  5  2  0
  5  6  1  0
  6  7  2  0
  7  8  1  0
  8  9  1  0
  9 10  1  0
 10 11  2  0
 11 12  1  0
 12 13  2  0
 13 14  1  0
 14 15  1  0
 14 16  2  0
 16 17  1  0
  7 18  1  0
 18 19  2  0
 19  4  1  0
 16 10  1  0
M  CHG  1   2   1
M  END
>  <Compound_ID>  (186) 
C58491987

>  <Active>  (186) 
0.0

>  <Smiles>  (186) 
C[NH+](C)c1ccc(NCc2cccc(O)c2O)cc1

>  <canonical_smi>  (186) 
C[NH+](C)c1ccc(NCc2cccc(O)c2O)cc1

>  <Set>  (186) 
G2 inactive

>  <Set_type>  (186) 
Train

>  <MW>  (186) 
259.33

>  <HBD>  (186) 
4

>  <HBA>  (186) 
3

>  <NRB>  (186) 
4

>  <NR>  (186) 
2

>  <NAR>  (186) 
2

>  <PSA>  (186) 
56.93

>  <Standard Type>  (186) 
nan

>  <Standard Relation>  (186) 
nan

>  <Standard Units>  (186) 
nan

>  <Standard Value>  (186) 
nan

>  <Assay ChEMBL ID>  (186) 
nan

>  <Assay Description>  (186) 
nan

>  <BAO Label>  (186) 
nan

$$$$

     RDKit          2D

 21 22  0  0  0  0  0  0  0  0999 V2000
    3.0000    0.0000    0.0000 C   0  0  0  0  0  0  0  0  0  0  0  0
    1.5000    0.0000    0.0000 C   0  0  0  0  0  0  0  0  0  0  0  0
    0.7500   -1.2990    0.0000 C   0  0  0  0  0  0  0  0  0  0  0  0
   -0.7500   -1.2990    0.0000 C   0  0  0  0  0  0  0  0  0  0  0  0
   -1.5000    0.0000    0.0000 C   0  0  0  0  0  0  0  0  0  0  0  0
   -3.0000    0.0000    0.0000 C   0  0  0  0  0  0  0  0  0  0  0  0
   -3.7500    1.2990    0.0000 N   0  0  0  0  0  0  0  0  0  0  0  0
   -3.7500   -1.2990    0.0000 O   0  0  0  0  0  0  0  0  0  0  0  0
   -0.7500    1.2990    0.0000 C   0  0  0  0  0  0  0  0  0  0  0  0
    0.7500    1.2990    0.0000 N   0  0  0  0  0  0  0  0  0  0  0  0
    1.5000    2.5981    0.0000 C   0  0  0  0  0  0  0  0  0  0  0  0
    3.0000    2.5981    0.0000 O   0  0  0  0  0  0  0  0  0  0  0  0
    0.7500    3.8971    0.0000 C   0  0  0  0  0  0  0  0  0  0  0  0
    1.5000    5.1962    0.0000 C   0  0  0  0  0  0  0  0  0  0  0  0
    0.7500    6.4952    0.0000 C   0  0  0  0  0  0  0  0  0  0  0  0
    1.5000    7.7942    0.0000 F   0  0  0  0  0  0  0  0  0  0  0  0
   -0.7500    6.4952    0.0000 C   0  0  0  0  0  0  0  0  0  0  0  0
   -1.5000    7.7942    0.0000 F   0  0  0  0  0  0  0  0  0  0  0  0
   -1.5000    5.1962    0.0000 C   0  0  0  0  0  0  0  0  0  0  0  0
   -0.7500    3.8971    0.0000 C   0  0  0  0  0  0  0  0  0  0  0  0
   -1.5000    2.5981    0.0000 N   0  0  0  0  0  0  0  0  0  0  0  0
  2  1  1  6
  2  3  1  0
  3  4  1  0
  4  5  1  0
  5  6  1  6
  6  7  1  0
  6  8  2  0
  5  9  1  0
  9 10  1  0
 10 11  1  0
 11 12  2  0
 11 13  1  0
 13 14  2  0
 14 15  1  0
 15 16  1  0
 15 17  2  0
 17 18  1  0
 17 19  1  0
 19 20  2  0
 20 21  1  0
 10  2  1  0
 20 13  1  0
M  END
>  <Compound_ID>  (187) 
C50017563

>  <Active>  (187) 
0.0

>  <Smiles>  (187) 
C[C@@H]1CC[C@H](C(N)=O)CN1C(=O)c1cc(F)c(F)cc1N

>  <canonical_smi>  (187) 
C[C@@H]1CC[C@H](C(N)=O)CN1C(=O)c1cc(F)c(F)cc1N

>  <Set>  (187) 
G2 inactive

>  <Set_type>  (187) 
Train

>  <MW>  (187) 
297.31

>  <HBD>  (187) 
2

>  <HBA>  (187) 
3

>  <NRB>  (187) 
2

>  <NR>  (187) 
2

>  <NAR>  (187) 
1

>  <PSA>  (187) 
89.42

>  <Standard Type>  (187) 
nan

>  <Standard Relation>  (187) 
nan

>  <Standard Units>  (187) 
nan

>  <Standard Value>  (187) 
nan

>  <Assay ChEMBL ID>  (187) 
nan

>  <Assay Description>  (187) 
nan

>  <BAO Label>  (187) 
nan

$$$$

     RDKit          2D

 21 21  0  0  0  0  0  0  0  0999 V2000
    7.5000   -2.5981    0.0000 C   0  0  0  0  0  0  0  0  0  0  0  0
    6.0000   -2.5981    0.0000 C   0  0  0  0  0  0  0  0  0  0  0  0
    5.2500   -1.2990    0.0000 C   0  0  0  0  0  0  0  0  0  0  0  0
    3.7500   -1.2990    0.0000 N   0  0  0  0  0  0  0  0  0  0  0  0
    3.0000    0.0000    0.0000 C   0  0  0  0  0  0  0  0  0  0  0  0
    3.7500    1.2990    0.0000 O   0  0  0  0  0  0  0  0  0  0  0  0
    1.5000    0.0000    0.0000 C   0  0  0  0  0  0  0  0  0  0  0  0
    0.7500   -1.2990    0.0000 C   0  0  0  0  0  0  0  0  0  0  0  0
    1.5000   -2.5981    0.0000 F   0  0  0  0  0  0  0  0  0  0  0  0
   -0.7500   -1.2990    0.0000 C   0  0  0  0  0  0  0  0  0  0  0  0
   -1.5000   -2.5981    0.0000 F   0  0  0  0  0  0  0  0  0  0  0  0
   -1.5000    0.0000    0.0000 C   0  0  0  0  0  0  0  0  0  0  0  0
   -3.0000    0.0000    0.0000 F   0  0  0  0  0  0  0  0  0  0  0  0
   -0.7500    1.2990    0.0000 C   0  0  0  0  0  0  0  0  0  0  0  0
   -1.5000    2.5981    0.0000 F   0  0  0  0  0  0  0  0  0  0  0  0
    0.7500    1.2990    0.0000 C   0  0  0  0  0  0  0  0  0  0  0  0
    1.5000    2.5981    0.0000 F   0  0  0  0  0  0  0  0  0  0  0  0
    5.2500   -3.8971    0.0000 C   0  0  0  0  0  0  0  0  0  0  0  0
    3.7500   -3.8971    0.0000 N   0  0  0  0  0  0  0  0  0  0  0  0
    6.0000   -5.1962    0.0000 N   0  0  0  0  0  0  0  0  0  0  0  0
    5.2500   -6.4952    0.0000 O   0  0  0  0  0  0  0  0  0  0  0  0
  2  1  1  1
  2  3  1  0
  3  4  1  0
  4  5  1  0
  5  6  2  0
  5  7  1  0
  7  8  2  0
  8  9  1  0
  8 10  1  0
 10 11  1  0
 10 12  2  0
 12 13  1  0
 12 14  1  0
 14 15  1  0
 14 16  2  0
 16 17  1  0
  2 18  1  0
 18 19  1  0
 18 20  2  0
 20 21  1  0
 16  7  1  0
M  END
>  <Compound_ID>  (188) 
C54154880

>  <Active>  (188) 
0.0

>  <Smiles>  (188) 
C[C@H](CNC(=O)c1c(F)c(F)c(F)c(F)c1F)/C(N)=N/O

>  <canonical_smi>  (188) 
C[C@H](CNC(=O)c1c(F)c(F)c(F)c(F)c1F)/C(N)=N/O

>  <Set>  (188) 
G2 inactive

>  <Set_type>  (188) 
Train

>  <MW>  (188) 
311.21

>  <HBD>  (188) 
3

>  <HBA>  (188) 
3

>  <NRB>  (188) 
4

>  <NR>  (188) 
1

>  <NAR>  (188) 
1

>  <PSA>  (188) 
87.71

>  <Standard Type>  (188) 
nan

>  <Standard Relation>  (188) 
nan

>  <Standard Units>  (188) 
nan

>  <Standard Value>  (188) 
nan

>  <Assay ChEMBL ID>  (188) 
nan

>  <Assay Description>  (188) 
nan

>  <BAO Label>  (188) 
nan

$$$$

     RDKit          2D

 19 20  0  0  0  0  0  0  0  0999 V2000
    6.0000    2.5981    0.0000 N   0  0  0  0  0  0  0  0  0  0  0  0
    5.2500    1.2990    0.0000 C   0  0  0  0  0  0  0  0  0  0  0  0
    6.0000   -0.0000    0.0000 S   0  0  0  0  0  0  0  0  0  0  0  0
    3.7500    1.2990    0.0000 N   0  0  0  0  0  0  0  0  0  0  0  0
    3.0000    0.0000    0.0000 N   0  0  0  0  0  0  0  0  0  0  0  0
    1.5000    0.0000    0.0000 C   0  0  0  0  0  0  0  0  0  0  0  0
    0.7500   -1.2990    0.0000 C   0  0  0  0  0  0  0  0  0  0  0  0
   -0.7500   -1.2990    0.0000 C   0  0  0  0  0  0  0  0  0  0  0  0
   -1.5000    0.0000    0.0000 C   0  0  0  0  0  0  0  0  0  0  0  0
   -0.7500    1.2990    0.0000 C   0  0  0  0  0  0  0  0  0  0  0  0
    0.7500    1.2990    0.0000 C   0  0  0  0  0  0  0  0  0  0  0  0
    0.0000    2.5981    0.0000 C   0  0  0  0  0  0  0  0  0  0  0  0
   -1.5000    2.5981    0.0000 C   0  0  0  0  0  0  0  0  0  0  0  0
   -2.2500    1.2990    0.0000 C   0  0  0  0  0  0  0  0  0  0  0  0
   -3.7500    1.2990    0.0000 N   0  0  0  0  0  0  0  0  0  0  0  0
   -4.5000    0.0000    0.0000 N   0  0  0  0  0  0  0  0  0  0  0  0
   -6.0000    0.0000    0.0000 C   0  0  0  0  0  0  0  0  0  0  0  0
   -6.7500   -1.2990    0.0000 N   0  0  0  0  0  0  0  0  0  0  0  0
   -6.7500    1.2990    0.0000 S   0  0  0  0  0  0  0  0  0  0  0  0
  1  2  1  0
  2  3  2  0
  2  4  1  0
  4  5  1  0
  5  6  2  0
  6  7  1  0
  7  8  1  0
  9  8  1  1
  9 10  1  0
 10 11  1  0
 11 12  1  1
 12 13  1  0
 13 14  1  0
 14 15  2  0
 15 16  1  0
 16 17  1  0
 17 18  1  0
 17 19  2  0
 11  6  1  0
 14  9  1  0
M  END
>  <Compound_ID>  (189) 
C44356379

>  <Active>  (189) 
0.0

>  <Smiles>  (189) 
NC(=S)N/N=C1/CC[C@@H]2C[C@H]1CC/C2=N/NC(N)=S

>  <canonical_smi>  (189) 
NC(=S)N/N=C1/CC[C@@H]2C[C@H]1CC/C2=N/NC(N)=S

>  <Set>  (189) 
G2 inactive

>  <Set_type>  (189) 
Train

>  <MW>  (189) 
298.44

>  <HBD>  (189) 
4

>  <HBA>  (189) 
6

>  <NRB>  (189) 
2

>  <NR>  (189) 
2

>  <NAR>  (189) 
0

>  <PSA>  (189) 
100.82

>  <Standard Type>  (189) 
nan

>  <Standard Relation>  (189) 
nan

>  <Standard Units>  (189) 
nan

>  <Standard Value>  (189) 
nan

>  <Assay ChEMBL ID>  (189) 
nan

>  <Assay Description>  (189) 
nan

>  <BAO Label>  (189) 
nan

$$$$

     RDKit          2D

 21 23  0  0  0  0  0  0  0  0999 V2000
   -0.5773   -4.2803    0.0000 O   0  0  0  0  0  0  0  0  0  0  0  0
    0.8899   -3.9684    0.0000 C   0  0  0  0  0  0  0  0  0  0  0  0
    2.0046   -4.9721    0.0000 C   0  0  0  0  0  0  0  0  0  0  0  0
    3.3037   -4.2221    0.0000 C   0  0  0  0  0  0  0  0  0  0  0  0
    2.9918   -2.7549    0.0000 C   0  0  0  0  0  0  0  0  0  0  0  0
    3.9955   -1.6402    0.0000 O   0  0  0  0  0  0  0  0  0  0  0  0
    1.5000   -2.5981    0.0000 N   0  0  0  0  0  0  0  0  0  0  0  0
    0.7500   -1.2990    0.0000 C   0  0  0  0  0  0  0  0  0  0  0  0
    1.5000    0.0000    0.0000 C   0  0  0  0  0  0  0  0  0  0  0  0
    0.7500    1.2990    0.0000 C   0  0  0  0  0  0  0  0  0  0  0  0
   -0.7500    1.2990    0.0000 C   0  0  0  0  0  0  0  0  0  0  0  0
   -1.5000    2.5981    0.0000 N   0  0  0  0  0  0  0  0  0  0  0  0
   -0.7500    3.8971    0.0000 N   0  0  0  0  0  0  0  0  0  0  0  0
   -1.5000    5.1962    0.0000 C   0  0  0  0  0  0  0  0  0  0  0  0
   -0.7500    6.4952    0.0000 C   0  0  0  0  0  0  0  0  0  0  0  0
   -1.5000    7.7942    0.0000 C   0  0  0  0  0  0  0  0  0  0  0  0
   -3.0000    7.7942    0.0000 C   0  0  0  0  0  0  0  0  0  0  0  0
   -3.7500    6.4952    0.0000 C   0  0  0  0  0  0  0  0  0  0  0  0
   -3.0000    5.1962    0.0000 C   0  0  0  0  0  0  0  0  0  0  0  0
   -1.5000    0.0000    0.0000 C   0  0  0  0  0  0  0  0  0  0  0  0
   -0.7500   -1.2990    0.0000 C   0  0  0  0  0  0  0  0  0  0  0  0
  1  2  2  0
  2  3  1  0
  3  4  2  0
  4  5  1  0
  5  6  2  0
  5  7  1  0
  7  8  1  0
  8  9  2  0
  9 10  1  0
 10 11  2  0
 11 12  1  0
 12 13  2  0
 13 14  1  0
 14 15  2  0
 15 16  1  0
 16 17  2  0
 17 18  1  0
 18 19  2  0
 11 20  1  0
 20 21  2  0
  7  2  1  0
 21  8  1  0
 19 14  1  0
M  END
>  <Compound_ID>  (190) 
C04410213

>  <Active>  (190) 
0.0

>  <Smiles>  (190) 
O=C1C=CC(=O)N1c1ccc(/N=N/c2ccccc2)cc1

>  <canonical_smi>  (190) 
O=C1C=CC(=O)N1c1ccc(/N=N/c2ccccc2)cc1

>  <Set>  (190) 
G2 inactive

>  <Set_type>  (190) 
Train

>  <MW>  (190) 
277.28

>  <HBD>  (190) 
0

>  <HBA>  (190) 
2

>  <NRB>  (190) 
3

>  <NR>  (190) 
3

>  <NAR>  (190) 
2

>  <PSA>  (190) 
62.1

>  <Standard Type>  (190) 
nan

>  <Standard Relation>  (190) 
nan

>  <Standard Units>  (190) 
nan

>  <Standard Value>  (190) 
nan

>  <Assay ChEMBL ID>  (190) 
nan

>  <Assay Description>  (190) 
nan

>  <BAO Label>  (190) 
nan

$$$$

     RDKit          2D

 19 20  0  0  0  0  0  0  0  0999 V2000
   -7.7206    6.7722    0.0000 C   0  0  0  0  0  0  0  0  0  0  0  0
   -6.2940    7.2357    0.0000 C   0  0  0  0  0  0  0  0  0  0  0  0
   -5.9821    8.7029    0.0000 C   0  0  0  0  0  0  0  0  0  0  0  0
   -5.1793    6.2320    0.0000 C   0  0  0  0  0  0  0  0  0  0  0  0
   -3.7527    6.6955    0.0000 C   0  0  0  0  0  0  0  0  0  0  0  0
   -3.4408    8.1628    0.0000 C   0  0  0  0  0  0  0  0  0  0  0  0
   -2.6380    5.6918    0.0000 O   0  0  0  0  0  0  0  0  0  0  0  0
   -2.9499    4.2246    0.0000 C   0  0  0  0  0  0  0  0  0  0  0  0
   -1.8351    3.2209    0.0000 C   0  0  0  0  0  0  0  0  0  0  0  0
   -0.4086    3.6844    0.0000 N   0  0  0  0  0  0  0  0  0  0  0  0
    0.7062    2.6807    0.0000 C   0  0  0  0  0  0  0  0  0  0  0  0
    2.1328    3.1443    0.0000 Cl  0  0  0  0  0  0  0  0  0  0  0  0
    0.3943    1.2135    0.0000 C   0  0  0  0  0  0  0  0  0  0  0  0
    1.2760    0.0000    0.0000 C   0  0  0  0  0  0  0  0  0  0  0  0
    0.3943   -1.2135    0.0000 N   0  0  0  0  0  0  0  0  0  0  0  0
   -1.0323   -0.7500    0.0000 N   0  0  0  0  0  0  0  0  0  0  0  0
   -2.2458   -1.6317    0.0000 C   0  0  0  0  0  0  0  0  0  0  0  0
   -1.0323    0.7500    0.0000 C   0  0  0  0  0  0  0  0  0  0  0  0
   -2.1470    1.7537    0.0000 N   0  0  0  0  0  0  0  0  0  0  0  0
  1  2  1  0
  2  3  1  0
  2  4  1  0
  4  5  1  0
  5  6  1  6
  5  7  1  0
  7  8  1  0
  8  9  1  0
  9 10  2  0
 10 11  1  0
 11 12  1  0
 11 13  2  0
 13 14  1  0
 14 15  2  0
 15 16  1  0
 16 17  1  0
 16 18  1  0
 18 19  2  0
 19  9  1  0
 18 13  1  0
M  END
>  <Compound_ID>  (191) 
C63078612

>  <Active>  (191) 
0.0

>  <Smiles>  (191) 
CC(C)C[C@H](C)OCc1nc(Cl)c2cnn(C)c2n1

>  <canonical_smi>  (191) 
CC(C)C[C@H](C)OCc1nc(Cl)c2cnn(C)c2n1

>  <Set>  (191) 
G2 inactive

>  <Set_type>  (191) 
Train

>  <MW>  (191) 
282.77

>  <HBD>  (191) 
0

>  <HBA>  (191) 
4

>  <NRB>  (191) 
5

>  <NR>  (191) 
2

>  <NAR>  (191) 
2

>  <PSA>  (191) 
52.83

>  <Standard Type>  (191) 
nan

>  <Standard Relation>  (191) 
nan

>  <Standard Units>  (191) 
nan

>  <Standard Value>  (191) 
nan

>  <Assay ChEMBL ID>  (191) 
nan

>  <Assay Description>  (191) 
nan

>  <BAO Label>  (191) 
nan

$$$$

     RDKit          2D

 36 40  0  0  0  0  0  0  0  0999 V2000
   -4.9294   -1.5000    0.0000 C   0  0  0  0  0  0  0  0  0  0  0  0
   -3.6304   -0.7500    0.0000 C   0  0  0  0  0  0  0  0  0  0  0  0
   -3.6304    0.7500    0.0000 C   0  0  0  0  0  0  0  0  0  0  0  0
   -2.3313    1.5000    0.0000 C   0  0  0  0  0  0  0  0  0  0  0  0
   -1.0323    0.7500    0.0000 C   0  0  0  0  0  0  0  0  0  0  0  0
    0.3943    1.2135    0.0000 C   0  0  0  0  0  0  0  0  0  0  0  0
    0.8578    2.6401    0.0000 C   0  0  0  0  0  0  0  0  0  0  0  0
    2.3250    2.9520    0.0000 C   0  0  0  0  0  0  0  0  0  0  0  0
    3.3287    1.8373    0.0000 O   0  0  0  0  0  0  0  0  0  0  0  0
    2.7886    4.3786    0.0000 N   0  0  0  0  0  0  0  0  0  0  0  0
    4.2558    4.6904    0.0000 N   0  0  0  0  0  0  0  0  0  0  0  0
    4.7193    6.1170    0.0000 C   0  0  0  0  0  0  0  0  0  0  0  0
    3.7156    7.2317    0.0000 C   0  0  0  0  0  0  0  0  0  0  0  0
    4.1791    8.6583    0.0000 C   0  0  0  0  0  0  0  0  0  0  0  0
    5.6464    8.9702    0.0000 C   0  0  0  0  0  0  0  0  0  0  0  0
    6.6501    7.8555    0.0000 C   0  0  0  0  0  0  0  0  0  0  0  0
    8.1501    7.8555    0.0000 O   0  0  0  0  0  0  0  0  0  0  0  0
    8.6136    6.4289    0.0000 C   0  0  0  0  0  0  0  0  0  0  0  0
   10.0402    5.9654    0.0000 C   0  0  0  0  0  0  0  0  0  0  0  0
   11.1549    6.9691    0.0000 O   0  0  0  0  0  0  0  0  0  0  0  0
   10.3520    4.4981    0.0000 N   0  0  0  0  0  0  0  0  0  0  0  0
   11.7786    4.0346    0.0000 N   0  0  0  0  0  0  0  0  0  0  0  0
   12.0905    2.5674    0.0000 C   0  0  0  0  0  0  0  0  0  0  0  0
   13.5171    2.1039    0.0000 C   0  0  0  0  0  0  0  0  0  0  0  0
   14.6318    3.1076    0.0000 N   0  0  0  0  0  4  0  0  0  0  0  0
   16.0584    2.6440    0.0000 C   0  0  0  0  0  0  0  0  0  0  0  0
   14.3199    4.5748    0.0000 C   0  0  0  0  0  0  0  0  0  0  0  0
   12.8933    5.0383    0.0000 C   0  0  0  0  0  0  0  0  0  0  0  0
    7.4001    5.5472    0.0000 C   0  0  0  0  0  0  0  0  0  0  0  0
    7.4001    4.0472    0.0000 C   0  0  0  0  0  0  0  0  0  0  0  0
    6.1865    6.4289    0.0000 C   0  0  0  0  0  0  0  0  0  0  0  0
    1.2760    0.0000    0.0000 C   0  0  0  0  0  0  0  0  0  0  0  0
    0.3943   -1.2135    0.0000 O   0  0  0  0  0  0  0  0  0  0  0  0
   -1.0323   -0.7500    0.0000 C   0  0  0  0  0  0  0  0  0  0  0  0
   -2.3313   -1.5000    0.0000 C   0  0  0  0  0  0  0  0  0  0  0  0
   -2.3313   -3.0000    0.0000 C   0  0  0  0  0  0  0  0  0  0  0  0
  1  2  1  0
  2  3  2  0
  3  4  1  0
  4  5  2  0
  5  6  1  0
  6  7  1  0
  7  8  1  0
  8  9  2  0
  8 10  1  0
 10 11  1  0
 11 12  2  0
 12 13  1  0
 13 14  1  0
 14 15  1  0
 15 16  1  0
 16 17  1  0
 17 18  1  0
 18 19  1  0
 19 20  2  0
 19 21  1  0
 21 22  1  0
 22 23  1  0
 23 24  1  0
 24 25  1  0
 25 26  1  0
 25 27  1  0
 27 28  1  0
 18 29  2  0
 29 30  1  0
 29 31  1  0
  6 32  2  0
 32 33  1  0
 33 34  1  0
 34 35  2  0
 35 36  1  0
 35  2  1  0
 34  5  1  0
 31 12  1  0
 31 16  2  0
 28 22  1  0
M  CHG  1  25   1
M  END
>  <Compound_ID>  (192) 
C40826590

>  <Active>  (192) 
0.0

>  <Smiles>  (192) 
Cc1ccc2c(CC(=O)N/N=C3\CCCc4oc(C(=O)NN5CC[NH+](C)CC5)c(C)c43)coc2c1C

>  <canonical_smi>  (192) 
Cc1ccc2c(CC(=O)N/N=C3\CCCc4oc(C(=O)NN5CC[NH+](C)CC5)c(C)c43)coc2c1C

>  <Set>  (192) 
G2 inactive

>  <Set_type>  (192) 
Train

>  <MW>  (192) 
492.6

>  <HBD>  (192) 
3

>  <HBA>  (192) 
5

>  <NRB>  (192) 
5

>  <NR>  (192) 
5

>  <NAR>  (192) 
3

>  <PSA>  (192) 
104.52

>  <Standard Type>  (192) 
nan

>  <Standard Relation>  (192) 
nan

>  <Standard Units>  (192) 
nan

>  <Standard Value>  (192) 
nan

>  <Assay ChEMBL ID>  (192) 
nan

>  <Assay Description>  (192) 
nan

>  <BAO Label>  (192) 
nan

$$$$

     RDKit          2D

 37 42  0  0  0  0  0  0  0  0999 V2000
    5.7091   -7.0059    0.0000 C   0  0  0  0  0  0  0  0  0  0  0  0
    6.1727   -5.5793    0.0000 C   0  0  0  0  0  0  0  0  0  0  0  0
    7.6399   -5.2674    0.0000 C   0  0  0  0  0  0  0  0  0  0  0  0
    8.7546   -6.2711    0.0000 N   0  0  0  0  0  0  0  0  0  0  0  0
   10.0537   -5.5211    0.0000 C   0  0  0  0  0  0  0  0  0  0  0  0
   11.4802   -5.9847    0.0000 C   0  0  0  0  0  0  0  0  0  0  0  0
   11.7921   -7.4519    0.0000 C   0  0  0  0  0  0  0  0  0  0  0  0
   12.5950   -4.9810    0.0000 C   0  0  0  0  0  0  0  0  0  0  0  0
   12.2831   -3.5137    0.0000 C   0  0  0  0  0  0  0  0  0  0  0  0
   13.3978   -2.5100    0.0000 C   0  0  0  0  0  0  0  0  0  0  0  0
   10.8565   -3.0502    0.0000 N   0  0  0  0  0  4  0  0  0  0  0  0
    9.7418   -4.0539    0.0000 C   0  0  0  0  0  0  0  0  0  0  0  0
    8.2500   -3.8971    0.0000 N   0  0  0  0  0  0  0  0  0  0  0  0
    7.5000   -2.5981    0.0000 C   0  0  0  0  0  0  0  0  0  0  0  0
    6.0000   -2.5981    0.0000 C   0  0  0  0  0  0  0  0  0  0  0  0
    5.2500   -1.2990    0.0000 C   0  0  0  0  0  0  0  0  0  0  0  0
    3.7500   -1.2990    0.0000 C   0  0  0  0  0  0  0  0  0  0  0  0
    3.0000   -2.5981    0.0000 C   0  0  0  0  0  0  0  0  0  0  0  0
    1.5000   -2.5981    0.0000 C   0  0  0  0  0  0  0  0  0  0  0  0
    0.7500   -1.2990    0.0000 C   0  0  0  0  0  0  0  0  0  0  0  0
    1.5000    0.0000    0.0000 C   0  0  0  0  0  0  0  0  0  0  0  0
    0.7500    1.2990    0.0000 C   0  0  0  0  0  0  0  0  0  0  0  0
   -0.7500    1.2990    0.0000 C   0  0  0  0  0  0  0  0  0  0  0  0
   -1.5000    0.0000    0.0000 C   0  0  0  0  0  0  0  0  0  0  0  0
   -0.7500   -1.2990    0.0000 C   0  0  0  0  0  0  0  0  0  0  0  0
   -1.5000   -2.5981    0.0000 N   0  0  0  0  0  0  0  0  0  0  0  0
   -3.0000   -2.5981    0.0000 C   0  0  0  0  0  0  0  0  0  0  0  0
   -0.7500   -3.8971    0.0000 C   0  0  0  0  0  0  0  0  0  0  0  0
   -1.5000   -5.1962    0.0000 O   0  0  0  0  0  0  0  0  0  0  0  0
    0.7500   -3.8971    0.0000 C   0  0  0  0  0  0  0  0  0  0  0  0
    1.5000   -5.1962    0.0000 C   0  0  0  0  0  0  0  0  0  0  0  0
    2.9918   -5.3529    0.0000 N   0  0  0  0  0  0  0  0  0  0  0  0
    3.3037   -6.8202    0.0000 N   0  0  0  0  0  0  0  0  0  0  0  0
    2.0046   -7.5702    0.0000 N   0  0  0  0  0  0  0  0  0  0  0  0
    0.8899   -6.5665    0.0000 N   0  0  0  0  0  2  0  0  0  0  0  0
    3.7500   -3.8971    0.0000 C   0  0  0  0  0  0  0  0  0  0  0  0
    5.2500   -3.8971    0.0000 C   0  0  0  0  0  0  0  0  0  0  0  0
  1  2  1  0
  3  2  1  1
  3  4  1  0
  4  5  1  0
  5  6  2  0
  6  7  1  0
  6  8  1  0
  8  9  2  0
  9 10  1  0
  9 11  1  0
 11 12  2  0
 12 13  1  0
 13 14  1  0
 14 15  1  0
 15 16  2  0
 16 17  1  0
 17 18  2  0
 18 19  1  0
 19 20  2  0
 20 21  1  0
 21 22  2  0
 22 23  1  0
 23 24  2  0
 24 25  1  0
 25 26  1  1
 26 27  1  0
 26 28  1  0
 28 29  2  0
 28 30  1  0
 30 31  1  1
 31 32  2  0
 32 33  1  0
 33 34  2  0
 34 35  1  0
 18 36  1  0
 36 37  2  0
 13  3  1  0
 37 15  1  0
 12  5  1  0
 30 19  1  0
 35 31  1  0
 25 20  1  0
M  CHG  2  11   1  35  -1
M  END
>  <Compound_ID>  (193) 
C52595533

>  <Active>  (193) 
0.0

>  <Smiles>  (193) 
CC[C@@H]1Nc2c(C)cc(C)[nH+]c2N1Cc1ccc(C2=C3C=CC=C[C@@H]3N(C)C(=O)[C@@H]2c2nnn[n-]2)cc1

>  <canonical_smi>  (193) 
CC[C@@H]1Nc2c(C)cc(C)[nH+]c2N1Cc1ccc(C2=C3C=CC=C[C@@H]3N(C)C(=O)[C@@H]2c2nnn[n-]2)cc1

>  <Set>  (193) 
G2 inactive

>  <Set_type>  (193) 
Train

>  <MW>  (193) 
494.6

>  <HBD>  (193) 
1

>  <HBA>  (193) 
7

>  <NRB>  (193) 
5

>  <NR>  (193) 
6

>  <NAR>  (193) 
3

>  <PSA>  (193) 
102.49

>  <Standard Type>  (193) 
nan

>  <Standard Relation>  (193) 
nan

>  <Standard Units>  (193) 
nan

>  <Standard Value>  (193) 
nan

>  <Assay ChEMBL ID>  (193) 
nan

>  <Assay Description>  (193) 
nan

>  <BAO Label>  (193) 
nan

$$$$

     RDKit          2D

 35 37  0  0  0  0  0  0  0  0999 V2000
    3.7500   -1.2990    0.0000 C   0  0  0  0  0  0  0  0  0  0  0  0
    3.0000    0.0000    0.0000 C   0  0  0  0  0  0  0  0  0  0  0  0
    3.7500    1.2990    0.0000 C   0  0  0  0  0  0  0  0  0  0  0  0
    1.5000    0.0000    0.0000 C   0  0  0  0  0  0  0  0  0  0  0  0
    0.7500   -1.2990    0.0000 C   0  0  0  0  0  0  0  0  0  0  0  0
   -0.7500   -1.2990    0.0000 C   0  0  0  0  0  0  0  0  0  0  0  0
   -1.5000    0.0000    0.0000 C   0  0  0  0  0  0  0  0  0  0  0  0
   -3.0000    0.0000    0.0000 N   0  0  0  0  0  0  0  0  0  0  0  0
   -3.7500   -1.2990    0.0000 C   0  0  0  0  0  0  0  0  0  0  0  0
   -5.2500   -1.2990    0.0000 O   0  0  0  0  0  0  0  0  0  0  0  0
   -3.0000   -2.5981    0.0000 C   0  0  0  0  0  0  0  0  0  0  0  0
   -1.5082   -2.7549    0.0000 S   0  0  0  0  0  0  0  0  0  0  0  0
   -1.1963   -4.2221    0.0000 N   0  0  0  0  0  0  0  0  0  0  0  0
   -2.4954   -4.9721    0.0000 C   0  0  0  0  0  0  0  0  0  0  0  0
   -2.6522   -6.4639    0.0000 C   0  0  0  0  0  0  0  0  0  0  0  0
   -1.4387   -7.3456    0.0000 N   0  0  0  0  0  0  0  0  0  0  0  0
   -4.0225   -7.0740    0.0000 O   0  0  0  0  0  0  0  0  0  0  0  0
   -3.6101   -3.9684    0.0000 C   0  0  0  0  0  0  0  0  0  0  0  0
   -5.0773   -4.2803    0.0000 N   0  0  0  0  0  0  0  0  0  0  0  0
   -3.7500    1.2990    0.0000 C   0  0  0  0  0  0  0  0  0  0  0  0
   -5.2500    1.2990    0.0000 C   0  0  0  0  0  0  0  0  0  0  0  0
   -6.0000   -0.0000    0.0000 O   0  0  0  0  0  0  0  0  0  0  0  0
   -6.0000    2.5981    0.0000 N   0  0  0  0  0  0  0  0  0  0  0  0
   -7.5000    2.5981    0.0000 C   0  0  0  0  0  0  0  0  0  0  0  0
   -7.5000    4.0981    0.0000 C   0  0  0  0  0  0  0  0  0  0  0  0
   -7.5000    1.0981    0.0000 C   0  0  0  0  0  0  0  0  0  0  0  0
   -9.0000    2.5981    0.0000 C   0  0  0  0  0  0  0  0  0  0  0  0
   -3.0000    2.5981    0.0000 C   0  0  0  0  0  0  0  0  0  0  0  0
   -3.7500    3.8971    0.0000 C   0  0  0  0  0  0  0  0  0  0  0  0
   -3.0000    5.1962    0.0000 C   0  0  0  0  0  0  0  0  0  0  0  0
   -1.5000    5.1962    0.0000 N   0  0  0  0  0  0  0  0  0  0  0  0
   -0.7500    3.8971    0.0000 C   0  0  0  0  0  0  0  0  0  0  0  0
   -1.5000    2.5981    0.0000 C   0  0  0  0  0  0  0  0  0  0  0  0
   -0.7500    1.2990    0.0000 C   0  0  0  0  0  0  0  0  0  0  0  0
    0.7500    1.2990    0.0000 C   0  0  0  0  0  0  0  0  0  0  0  0
  1  2  1  0
  2  3  1  0
  2  4  1  0
  4  5  2  0
  5  6  1  0
  6  7  2  0
  7  8  1  0
  8  9  1  0
  9 10  2  0
  9 11  1  0
 11 12  1  0
 12 13  1  0
 13 14  2  0
 14 15  1  0
 15 16  1  0
 15 17  2  0
 14 18  1  0
 18 19  1  0
 20  8  1  1
 20 21  1  0
 21 22  2  0
 21 23  1  0
 23 24  1  0
 24 25  1  0
 24 26  1  0
 24 27  1  0
 20 28  1  0
 28 29  2  0
 29 30  1  0
 30 31  2  0
 31 32  1  0
 32 33  2  0
  7 34  1  0
 34 35  2  0
 35  4  1  0
 18 11  2  0
 33 28  1  0
M  END
>  <Compound_ID>  (194) 
C06077045

>  <Active>  (194) 
0.0

>  <Smiles>  (194) 
CC(C)c1ccc(N(C(=O)c2snc(C(N)=O)c2N)[C@@H](C(=O)NC(C)(C)C)c2ccncc2)cc1

>  <canonical_smi>  (194) 
CC(C)c1ccc(N(C(=O)c2snc(C(N)=O)c2N)[C@@H](C(=O)NC(C)(C)C)c2ccncc2)cc1

>  <Set>  (194) 
G2 inactive

>  <Set_type>  (194) 
Train

>  <MW>  (194) 
494.62

>  <HBD>  (194) 
3

>  <HBA>  (194) 
6

>  <NRB>  (194) 
7

>  <NR>  (194) 
3

>  <NAR>  (194) 
3

>  <PSA>  (194) 
144.3

>  <Standard Type>  (194) 
nan

>  <Standard Relation>  (194) 
nan

>  <Standard Units>  (194) 
nan

>  <Standard Value>  (194) 
nan

>  <Assay ChEMBL ID>  (194) 
nan

>  <Assay Description>  (194) 
nan

>  <BAO Label>  (194) 
nan

$$$$

     RDKit          2D

 34 35  0  0  0  0  0  0  0  0999 V2000
   -7.5000   -7.7942    0.0000 C   0  0  0  0  0  0  0  0  0  0  0  0
   -6.0000   -7.7942    0.0000 C   0  0  0  0  0  0  0  0  0  0  0  0
   -5.2500   -6.4952    0.0000 C   0  0  0  0  0  0  0  0  0  0  0  0
   -3.7500   -6.4952    0.0000 C   0  0  0  0  0  0  0  0  0  0  0  0
   -3.0000   -5.1962    0.0000 N   0  0  0  0  0  0  0  0  0  0  0  0
   -1.5000   -5.1962    0.0000 C   0  0  0  0  0  0  0  0  0  0  0  0
   -0.7500   -3.8971    0.0000 O   0  0  0  0  0  0  0  0  0  0  0  0
   -0.7500   -6.4952    0.0000 C   0  0  0  0  0  0  0  0  0  0  0  0
    0.7500   -6.4952    0.0000 N   0  0  0  0  0  4  0  0  0  0  0  0
    1.5000   -5.1962    0.0000 C   0  0  0  0  0  0  0  0  0  0  0  0
    1.5000   -7.7942    0.0000 C   0  0  0  0  0  0  0  0  0  0  0  0
    0.7500   -9.0933    0.0000 C   0  0  0  0  0  0  0  0  0  0  0  0
    1.5000  -10.3923    0.0000 C   0  0  0  0  0  0  0  0  0  0  0  0
    0.7500  -11.6913    0.0000 C   0  0  0  0  0  0  0  0  0  0  0  0
    1.5000  -12.9904    0.0000 N   0  0  0  0  0  4  0  0  0  0  0  0
    0.7500  -14.2894    0.0000 O   0  0  0  0  0  0  0  0  0  0  0  0
    3.0000  -12.9904    0.0000 O   0  0  0  0  0  1  0  0  0  0  0  0
   -0.7500  -11.6913    0.0000 C   0  0  0  0  0  0  0  0  0  0  0  0
   -1.5000  -10.3923    0.0000 C   0  0  0  0  0  0  0  0  0  0  0  0
   -0.7500   -9.0933    0.0000 C   0  0  0  0  0  0  0  0  0  0  0  0
   -1.5000   -7.7942    0.0000 Cl  0  0  0  0  0  0  0  0  0  0  0  0
   -3.7500   -3.8971    0.0000 C   0  0  0  0  0  0  0  0  0  0  0  0
   -5.2500   -3.8971    0.0000 C   0  0  0  0  0  0  0  0  0  0  0  0
   -6.0000   -5.1962    0.0000 N   0  0  0  0  0  0  0  0  0  0  0  0
   -6.0000   -2.5981    0.0000 N   0  0  0  0  0  0  0  0  0  0  0  0
   -7.5000   -2.5981    0.0000 C   0  0  0  0  0  0  0  0  0  0  0  0
   -8.2500   -1.2990    0.0000 C   0  0  0  0  0  0  0  0  0  0  0  0
   -9.7500   -1.2990    0.0000 C   0  0  0  0  0  0  0  0  0  0  0  0
   -7.5000    0.0000    0.0000 C   0  0  0  0  0  0  0  0  0  0  0  0
   -5.2500   -1.2990    0.0000 C   0  0  0  0  0  0  0  0  0  0  0  0
   -6.0000    0.0000    0.0000 O   0  0  0  0  0  0  0  0  0  0  0  0
   -3.7500   -1.2990    0.0000 N   0  0  0  0  0  0  0  0  0  0  0  0
   -3.0000   -2.5981    0.0000 C   0  0  0  0  0  0  0  0  0  0  0  0
   -1.5000   -2.5981    0.0000 O   0  0  0  0  0  0  0  0  0  0  0  0
  1  2  1  0
  2  3  1  0
  3  4  1  0
  4  5  1  0
  5  6  1  0
  6  7  2  0
  6  8  1  0
  8  9  1  0
  9 10  1  0
  9 11  1  0
 11 12  1  0
 12 13  2  0
 13 14  1  0
 14 15  1  0
 15 16  2  0
 15 17  1  0
 14 18  2  0
 18 19  1  0
 19 20  2  0
 20 21  1  0
  5 22  1  0
 22 23  2  0
 23 24  1  0
 23 25  1  0
 25 26  1  0
 26 27  1  0
 27 28  1  0
 27 29  1  0
 25 30  1  0
 30 31  2  0
 30 32  1  0
 32 33  1  0
 33 34  2  0
 20 12  1  0
 33 22  1  0
M  CHG  3   9   1  15   1  17  -1
M  END
>  <Compound_ID>  (195) 
C16312933

>  <Active>  (195) 
0.0

>  <Smiles>  (195) 
CCCCN(C(=O)C[NH+](C)Cc1cc([N+](=O)[O-])ccc1Cl)c1c(N)n(CC(C)C)c(=O)[nH]c1=O

>  <canonical_smi>  (195) 
CCCCN(C(=O)C[NH+](C)Cc1cc([N+](=O)[O-])ccc1Cl)c1c(N)n(CC(C)C)c(=O)[nH]c1=O

>  <Set>  (195) 
G2 inactive

>  <Set_type>  (195) 
Train

>  <MW>  (195) 
495.99

>  <HBD>  (195) 
3

>  <HBA>  (195) 
6

>  <NRB>  (195) 
11

>  <NR>  (195) 
2

>  <NAR>  (195) 
2

>  <PSA>  (195) 
148.77

>  <Standard Type>  (195) 
nan

>  <Standard Relation>  (195) 
nan

>  <Standard Units>  (195) 
nan

>  <Standard Value>  (195) 
nan

>  <Assay ChEMBL ID>  (195) 
nan

>  <Assay Description>  (195) 
nan

>  <BAO Label>  (195) 
nan

$$$$

     RDKit          2D

 36 38  0  0  0  0  0  0  0  0999 V2000
    5.2500   -1.2990    0.0000 C   0  0  0  0  0  0  0  0  0  0  0  0
    3.7500   -1.2990    0.0000 C   0  0  0  0  0  0  0  0  0  0  0  0
    3.0000   -2.5981    0.0000 C   0  0  0  0  0  0  0  0  0  0  0  0
    3.0000    0.0000    0.0000 O   0  0  0  0  0  0  0  0  0  0  0  0
    1.5000    0.0000    0.0000 C   0  0  0  0  0  0  0  0  0  0  0  0
    0.7500   -1.2990    0.0000 C   0  0  0  0  0  0  0  0  0  0  0  0
   -0.7500   -1.2990    0.0000 C   0  0  0  0  0  0  0  0  0  0  0  0
   -1.5000   -2.5981    0.0000 C   0  0  0  0  0  0  0  0  0  0  0  0
   -3.0000   -2.5981    0.0000 C   0  0  0  0  0  0  0  0  0  0  0  0
   -3.7500   -3.8971    0.0000 C   0  0  0  0  0  0  0  0  0  0  0  0
   -3.0000   -5.1962    0.0000 C   0  0  0  0  0  0  0  0  0  0  0  0
   -3.7500   -6.4952    0.0000 C   0  0  0  0  0  0  0  0  0  0  0  0
   -5.2500   -6.4952    0.0000 C   0  0  0  0  0  0  0  0  0  0  0  0
   -6.0000   -7.7942    0.0000 N   0  0  0  0  0  4  0  0  0  0  0  0
   -7.5000   -7.7942    0.0000 C   0  0  0  0  0  0  0  0  0  0  0  0
   -8.2500   -9.0933    0.0000 C   0  0  0  0  0  0  0  0  0  0  0  0
   -7.5000  -10.3923    0.0000 O   0  0  0  0  0  0  0  0  0  0  0  0
   -9.7500   -9.0933    0.0000 C   0  0  0  0  0  0  0  0  0  0  0  0
  -10.5000   -7.7942    0.0000 C   0  0  0  0  0  0  0  0  0  0  0  0
  -12.0000   -7.7942    0.0000 N   0  0  0  0  0  4  0  0  0  0  0  0
  -12.7500   -9.0933    0.0000 C   0  0  0  0  0  0  0  0  0  0  0  0
  -12.0000  -10.3923    0.0000 C   0  0  0  0  0  0  0  0  0  0  0  0
  -10.5000  -10.3923    0.0000 C   0  0  0  0  0  0  0  0  0  0  0  0
   -9.7500  -11.6913    0.0000 N   0  0  0  0  0  0  0  0  0  0  0  0
   -1.5000   -5.1962    0.0000 C   0  0  0  0  0  0  0  0  0  0  0  0
   -0.7500   -3.8971    0.0000 C   0  0  0  0  0  0  0  0  0  0  0  0
   -1.5000    0.0000    0.0000 C   0  0  0  0  0  0  0  0  0  0  0  0
   -0.7500    1.2990    0.0000 C   0  0  0  0  0  0  0  0  0  0  0  0
    0.7500    1.2990    0.0000 C   0  0  0  0  0  0  0  0  0  0  0  0
    1.5000    2.5981    0.0000 C   0  0  0  0  0  0  0  0  0  0  0  0
    3.0000    2.5981    0.0000 O   0  0  0  0  0  1  0  0  0  0  0  0
    0.7500    3.8971    0.0000 N   0  0  0  0  0  0  0  0  0  0  0  0
    1.5000    5.1962    0.0000 S   0  0  0  0  0  0  0  0  0  0  0  0
    2.2500    6.4952    0.0000 C   0  0  0  0  0  0  0  0  0  0  0  0
    2.7990    4.4462    0.0000 O   0  0  0  0  0  0  0  0  0  0  0  0
    0.2010    5.9462    0.0000 O   0  0  0  0  0  0  0  0  0  0  0  0
  1  2  1  0
  2  3  1  0
  2  4  1  0
  4  5  1  0
  5  6  2  0
  6  7  1  0
  7  8  1  0
  8  9  2  0
  9 10  1  0
 10 11  2  0
 11 12  1  0
 12 13  1  0
 13 14  1  0
 14 15  1  0
 15 16  1  0
 16 17  1  6
 16 18  1  0
 18 19  2  0
 19 20  1  0
 20 21  2  0
 21 22  1  0
 22 23  2  0
 23 24  1  0
 11 25  1  0
 25 26  2  0
  7 27  2  0
 27 28  1  0
 28 29  2  0
 29 30  1  0
 30 31  1  0
 30 32  2  0
 32 33  1  0
 33 34  1  0
 33 35  2  0
 33 36  2  0
 29  5  1  0
 26  8  1  0
 23 18  1  0
M  CHG  3  14   1  20   1  31  -1
M  END
>  <Compound_ID>  (196) 
C45498864

>  <Active>  (196) 
0.0

>  <Smiles>  (196) 
CC(C)Oc1cc(-c2ccc(CC[NH2+]C[C@H](O)c3c[nH+]ccc3N)cc2)ccc1/C([O-])=N/S(C)(=O)=O

>  <canonical_smi>  (196) 
CC(C)Oc1cc(-c2ccc(CC[NH2+]C[C@H](O)c3c[nH+]ccc3N)cc2)ccc1/C([O-])=N/S(C)(=O)=O

>  <Set>  (196) 
G2 inactive

>  <Set_type>  (196) 
Train

>  <MW>  (196) 
513.64

>  <HBD>  (196) 
3

>  <HBA>  (196) 
6

>  <NRB>  (196) 
11

>  <NR>  (196) 
3

>  <NAR>  (196) 
3

>  <PSA>  (196) 
155.79

>  <Standard Type>  (196) 
nan

>  <Standard Relation>  (196) 
nan

>  <Standard Units>  (196) 
nan

>  <Standard Value>  (196) 
nan

>  <Assay ChEMBL ID>  (196) 
nan

>  <Assay Description>  (196) 
nan

>  <BAO Label>  (196) 
nan

$$$$

     RDKit          2D

 32 34  0  0  0  0  0  0  0  0999 V2000
    8.6419    2.5275    0.0000 C   0  0  0  0  0  0  0  0  0  0  0  0
    7.2154    2.0639    0.0000 C   0  0  0  0  0  0  0  0  0  0  0  0
    5.7888    1.6004    0.0000 C   0  0  0  0  0  0  0  0  0  0  0  0
    4.6741    2.6041    0.0000 N   0  0  0  0  0  0  0  0  0  0  0  0
    3.2475    2.1406    0.0000 C   0  0  0  0  0  0  0  0  0  0  0  0
    2.9356    0.6734    0.0000 O   0  0  0  0  0  0  0  0  0  0  0  0
    2.1328    3.1443    0.0000 C   0  0  0  0  0  0  0  0  0  0  0  0
    0.7062    2.6807    0.0000 C   0  0  0  0  0  0  0  0  0  0  0  0
    0.3943    1.2135    0.0000 C   0  0  0  0  0  0  0  0  0  0  0  0
    1.2760    0.0000    0.0000 N   0  0  0  0  0  0  0  0  0  0  0  0
    0.3943   -1.2135    0.0000 C   0  0  0  0  0  0  0  0  0  0  0  0
    0.8578   -2.6401    0.0000 N   0  0  0  0  0  0  0  0  0  0  0  0
   -0.1459   -3.7548    0.0000 C   0  0  0  0  0  0  0  0  0  0  0  0
   -1.6131   -3.4430    0.0000 O   0  0  0  0  0  0  0  0  0  0  0  0
    0.3177   -5.1814    0.0000 O   0  0  0  0  0  0  0  0  0  0  0  0
   -0.6860   -6.2961    0.0000 C   0  0  0  0  0  0  0  0  0  0  0  0
   -0.2225   -7.7227    0.0000 C   0  0  0  0  0  0  0  0  0  0  0  0
   -1.2262   -8.8374    0.0000 C   0  0  0  0  0  0  0  0  0  0  0  0
   -1.0323   -0.7500    0.0000 S   0  0  0  0  0  0  0  0  0  0  0  0
   -1.0323    0.7500    0.0000 C   0  0  0  0  0  0  0  0  0  0  0  0
   -2.1470    1.7537    0.0000 C   0  0  0  0  0  0  0  0  0  0  0  0
   -1.8351    3.2209    0.0000 C   0  0  0  0  0  0  0  0  0  0  0  0
   -2.9499    4.2246    0.0000 C   0  0  0  0  0  0  0  0  0  0  0  0
   -4.3406    4.7865    0.0000 C   0  0  0  0  0  0  0  0  0  0  0  0
   -3.7447    2.9525    0.0000 C   0  0  0  0  0  0  0  0  0  0  0  0
   -5.2438    3.0049    0.0000 O   0  0  0  0  0  0  0  0  0  0  0  0
   -2.6380    5.6918    0.0000 C   0  0  0  0  0  0  0  0  0  0  0  0
   -3.7527    6.6955    0.0000 O   0  0  0  0  0  0  0  0  0  0  0  0
   -1.2114    6.1554    0.0000 C   0  0  0  0  0  0  0  0  0  0  0  0
   -0.0967    5.1517    0.0000 C   0  0  0  0  0  0  0  0  0  0  0  0
   -0.4086    3.6844    0.0000 C   0  0  0  0  0  0  0  0  0  0  0  0
    1.0180    4.1480    0.0000 C   0  0  0  0  0  0  0  0  0  0  0  0
  1  2  3  0
  2  3  1  0
  3  4  1  0
  4  5  1  0
  5  6  2  0
  5  7  1  0
  8  7  1  6
  8  9  1  0
  9 10  1  0
 10 11  2  0
 11 12  1  0
 12 13  1  0
 13 14  2  0
 13 15  1  0
 15 16  1  0
 16 17  1  0
 17 18  2  0
 11 19  1  0
 19 20  1  0
 20 21  1  0
 22 21  1  6
 22 23  1  0
 23 24  1  1
 23 25  1  0
 25 26  1  0
 23 27  1  0
 27 28  1  6
 27 29  1  0
 29 30  1  0
 30 31  1  0
 31 32  1  6
 31  8  1  0
 20  9  2  0
 31 22  1  0
M  END
>  <Compound_ID>  (197) 
C04237023

>  <Active>  (197) 
0.0

>  <Smiles>  (197) 
C#CCNC(=O)C[C@@H]1c2nc(NC(=O)OCC=C)sc2C[C@@H]2[C@](C)(CO)[C@H](O)CC[C@]21C

>  <canonical_smi>  (197) 
C#CCNC(=O)C[C@@H]1c2nc(NC(=O)OCC=C)sc2C[C@H]2[C@@]1(C)CC[C@@H](O)[C@@]2(C)CO

>  <Set>  (197) 
G2 inactive

>  <Set_type>  (197) 
Train

>  <MW>  (197) 
461.58

>  <HBD>  (197) 
4

>  <HBA>  (197) 
6

>  <NRB>  (197) 
7

>  <NR>  (197) 
3

>  <NAR>  (197) 
1

>  <PSA>  (197) 
120.78

>  <Standard Type>  (197) 
nan

>  <Standard Relation>  (197) 
nan

>  <Standard Units>  (197) 
nan

>  <Standard Value>  (197) 
nan

>  <Assay ChEMBL ID>  (197) 
nan

>  <Assay Description>  (197) 
nan

>  <BAO Label>  (197) 
nan

$$$$

     RDKit          2D

 32 36  0  0  0  0  0  0  0  0999 V2000
    2.9520   -7.2544    0.0000 C   0  0  0  0  0  0  0  0  0  0  0  0
    2.6401   -5.7872    0.0000 O   0  0  0  0  0  0  0  0  0  0  0  0
    1.2135   -5.3237    0.0000 C   0  0  0  0  0  0  0  0  0  0  0  0
    0.7500   -3.8971    0.0000 C   0  0  0  0  0  0  0  0  0  0  0  0
    1.5000   -2.5981    0.0000 N   0  0  0  0  0  0  0  0  0  0  0  0
    0.7500   -1.2990    0.0000 C   0  0  0  0  0  0  0  0  0  0  0  0
    1.5000    0.0000    0.0000 C   0  0  0  0  0  0  0  0  0  0  0  0
    0.7500    1.2990    0.0000 C   0  0  0  0  0  0  0  0  0  0  0  0
   -0.7500    1.2990    0.0000 C   0  0  0  0  0  0  0  0  0  0  0  0
   -1.5000    0.0000    0.0000 C   0  0  0  0  0  0  0  0  0  0  0  0
   -0.7500   -1.2990    0.0000 C   0  0  0  0  0  0  0  0  0  0  0  0
   -1.5000   -2.5981    0.0000 C   0  0  0  0  0  0  0  0  0  0  0  0
   -0.7500   -3.8971    0.0000 N   0  0  0  0  0  4  0  0  0  0  0  0
   -1.2135   -5.3237    0.0000 C   0  0  0  0  0  0  0  0  0  0  0  0
   -2.6401   -5.7872    0.0000 C   0  0  0  0  0  0  0  0  0  0  0  0
   -3.7548   -4.7835    0.0000 O   0  0  0  0  0  0  0  0  0  0  0  0
   -2.9520   -7.2544    0.0000 N   0  0  0  0  0  0  0  0  0  0  0  0
   -1.8373   -8.2581    0.0000 C   0  0  0  0  0  0  0  0  0  0  0  0
   -0.4107   -7.7946    0.0000 C   0  0  0  0  0  0  0  0  0  0  0  0
    0.7040   -8.7983    0.0000 C   0  0  0  0  0  0  0  0  0  0  0  0
    0.3922  -10.2655    0.0000 C   0  0  0  0  0  0  0  0  0  0  0  0
   -1.0344  -10.7291    0.0000 C   0  0  0  0  0  0  0  0  0  0  0  0
   -2.1491   -9.7254    0.0000 C   0  0  0  0  0  0  0  0  0  0  0  0
   -3.5757  -10.1889    0.0000 O   0  0  0  0  0  0  0  0  0  0  0  0
   -4.3786   -7.7180    0.0000 C   0  0  0  0  0  0  0  0  0  0  0  0
   -4.6904   -9.1852    0.0000 C   0  0  0  0  0  0  0  0  0  0  0  0
   -6.1170   -9.6487    0.0000 C   0  0  0  0  0  0  0  0  0  0  0  0
   -7.2317   -8.6450    0.0000 C   0  0  0  0  0  0  0  0  0  0  0  0
   -6.9199   -7.1778    0.0000 C   0  0  0  0  0  0  0  0  0  0  0  0
   -5.4933   -6.7143    0.0000 C   0  0  0  0  0  0  0  0  0  0  0  0
   -5.1814   -5.2471    0.0000 O   0  0  0  0  0  0  0  0  0  0  0  0
   -0.0000   -6.2054    0.0000 C   0  0  0  0  0  0  0  0  0  0  0  0
  1  2  1  0
  2  3  1  0
  3  4  2  0
  4  5  1  0
  5  6  1  0
  6  7  2  0
  7  8  1  0
  8  9  2  0
  9 10  1  0
 10 11  2  0
 11 12  1  0
 12 13  1  0
 13 14  1  0
 14 15  1  1
 15 16  2  0
 15 17  1  0
 17 18  1  0
 18 19  2  0
 19 20  1  0
 20 21  2  0
 21 22  1  0
 22 23  2  0
 23 24  1  0
 17 25  1  0
 25 26  2  0
 26 27  1  0
 27 28  2  0
 28 29  1  0
 29 30  2  0
 30 31  1  0
 14 32  1  0
 32  3  1  0
 13  4  1  0
 23 18  1  0
 30 25  1  0
 11  6  1  0
M  CHG  1  13   1
M  END
>  <Compound_ID>  (198) 
C39545406

>  <Active>  (198) 
0.0

>  <Smiles>  (198) 
COC1=C2Nc3ccccc3C[NH+]2[C@H](C(=O)N(c2ccccc2O)c2ccccc2O)C1

>  <canonical_smi>  (198) 
COC1=C2Nc3ccccc3C[NH+]2[C@H](C(=O)N(c2ccccc2O)c2ccccc2O)C1

>  <Set>  (198) 
G2 inactive

>  <Set_type>  (198) 
Train

>  <MW>  (198) 
430.48

>  <HBD>  (198) 
4

>  <HBA>  (198) 
5

>  <NRB>  (198) 
4

>  <NR>  (198) 
5

>  <NAR>  (198) 
3

>  <PSA>  (198) 
86.47

>  <Standard Type>  (198) 
nan

>  <Standard Relation>  (198) 
nan

>  <Standard Units>  (198) 
nan

>  <Standard Value>  (198) 
nan

>  <Assay ChEMBL ID>  (198) 
nan

>  <Assay Description>  (198) 
nan

>  <BAO Label>  (198) 
nan

$$$$

     RDKit          2D

 32 35  0  0  0  0  0  0  0  0999 V2000
    2.6004    0.7041    0.0000 C   0  0  0  0  0  0  0  0  0  0  0  0
    1.2760    0.0000    0.0000 C   0  0  0  0  0  0  0  0  0  0  0  0
    2.6004   -0.7041    0.0000 C   0  0  0  0  0  0  0  0  0  0  0  0
    0.3943    1.2135    0.0000 C   0  0  0  0  0  0  0  0  0  0  0  0
   -1.0323    0.7500    0.0000 C   0  0  0  0  0  0  0  0  0  0  0  0
   -1.0323   -0.7500    0.0000 C   0  0  0  0  0  0  0  0  0  0  0  0
    0.3943   -1.2135    0.0000 C   0  0  0  0  0  0  0  0  0  0  0  0
    0.8578   -2.6401    0.0000 C   0  0  0  0  0  0  0  0  0  0  0  0
    1.8209   -0.7500    0.0000 C   0  0  0  0  0  0  0  0  0  0  0  0
    3.0344   -1.6317    0.0000 N   0  0  0  0  0  0  0  0  0  0  0  0
    2.8776   -3.1235    0.0000 C   0  0  0  0  0  0  0  0  0  0  0  0
    1.5073   -3.7336    0.0000 N   0  0  0  0  0  0  0  0  0  0  0  0
    1.3505   -5.2253    0.0000 C   0  0  0  0  0  0  0  0  0  0  0  0
    2.4652   -6.2290    0.0000 C   0  0  0  0  0  0  0  0  0  0  0  0
    1.8551   -7.5994    0.0000 C   0  0  0  0  0  0  0  0  0  0  0  0
    0.5561   -8.3494    0.0000 C   0  0  0  0  0  0  0  0  0  0  0  0
   -0.5586   -7.3457    0.0000 C   0  0  0  0  0  0  0  0  0  0  0  0
    0.0515   -5.9753    0.0000 C   0  0  0  0  0  0  0  0  0  0  0  0
   -0.6985   -4.6763    0.0000 C   0  0  0  0  0  0  0  0  0  0  0  0
    1.5432   -6.1321    0.0000 C   0  0  0  0  0  0  0  0  0  0  0  0
    1.9062   -4.6767    0.0000 C   0  0  0  0  0  0  0  0  0  0  0  0
    2.3200   -5.9528    0.0000 C   0  0  0  0  0  0  0  0  0  0  0  0
    4.0911   -4.0051    0.0000 C   0  0  0  0  0  0  0  0  0  0  0  0
    3.9343   -5.4969    0.0000 C   0  0  0  0  0  0  0  0  0  0  0  0
    2.8738   -6.5577    0.0000 Cl  0  0  0  0  0  0  0  0  0  0  0  0
    5.1479   -6.3786    0.0000 C   0  0  0  0  0  0  0  0  0  0  0  0
    4.9911   -7.8704    0.0000 Cl  0  0  0  0  0  0  0  0  0  0  0  0
    6.5182   -5.7685    0.0000 Cl  0  0  0  0  0  0  0  0  0  0  0  0
    5.4615   -3.3950    0.0000 N   0  0  0  0  0  4  0  0  0  0  0  0
    5.6183   -1.9033    0.0000 O   0  0  0  0  0  0  0  0  0  0  0  0
    6.6750   -4.2767    0.0000 O   0  0  0  0  0  1  0  0  0  0  0  0
    1.8209    0.7500    0.0000 C   0  0  0  0  0  0  0  0  0  0  0  0
  1  2  1  0
  2  3  1  0
  2  4  1  0
  4  5  1  1
  5  6  1  0
  6  7  1  0
  7  8  1  6
  7  9  1  0
  9 10  1  6
 10 11  1  0
 11 12  1  0
 13 12  1  6
 13 14  1  0
 15 14  1  6
 15 16  1  0
 16 17  1  0
 17 18  1  0
 18 19  1  1
 18 20  1  0
 20 21  1  0
 20 22  1  0
 11 23  2  3
 23 24  1  0
 24 25  1  0
 24 26  2  0
 26 27  1  0
 26 28  1  0
 23 29  1  0
 29 30  2  0
 29 31  1  0
  9 32  1  0
  7  2  1  0
 18 13  1  0
 32  4  1  0
 20 15  1  0
M  CHG  2  29   1  31  -1
M  END
>  <Compound_ID>  (199) 
C20551697

>  <Active>  (199) 
0.0

>  <Smiles>  (199) 
CC1(C)[C@H]2CC[C@]1(C)[C@@H](NC(N[C@@H]1C[C@@H]3CC[C@@]1(C)C3(C)C)=C(C(Cl)=C(Cl)Cl)[N+](=O)[O-])C2

>  <canonical_smi>  (199) 
CC1(C)[C@H]2CC[C@]1(C)[C@@H](NC(N[C@@H]1C[C@@H]3CC[C@@]1(C)C3(C)C)=C(C(Cl)=C(Cl)Cl)[N+](=O)[O-])C2

>  <Set>  (199) 
G2 inactive

>  <Set_type>  (199) 
Train

>  <MW>  (199) 
504.93

>  <HBD>  (199) 
2

>  <HBA>  (199) 
4

>  <NRB>  (199) 
6

>  <NR>  (199) 
4

>  <NAR>  (199) 
0

>  <PSA>  (199) 
67.2

>  <Standard Type>  (199) 
nan

>  <Standard Relation>  (199) 
nan

>  <Standard Units>  (199) 
nan

>  <Standard Value>  (199) 
nan

>  <Assay ChEMBL ID>  (199) 
nan

>  <Assay Description>  (199) 
nan

>  <BAO Label>  (199) 
nan

$$$$

     RDKit          2D

 32 34  0  0  0  0  0  0  0  0999 V2000
    0.0803   -9.1347    0.0000 C   0  0  0  0  0  0  0  0  0  0  0  0
   -1.3463   -9.5982    0.0000 C   0  0  0  0  0  0  0  0  0  0  0  0
   -2.4610   -8.5945    0.0000 O   0  0  0  0  0  0  0  0  0  0  0  0
   -3.8876   -9.0580    0.0000 C   0  0  0  0  0  0  0  0  0  0  0  0
   -4.1994  -10.5253    0.0000 C   0  0  0  0  0  0  0  0  0  0  0  0
   -5.6260  -10.9888    0.0000 C   0  0  0  0  0  0  0  0  0  0  0  0
   -5.9379  -12.4560    0.0000 C   0  0  0  0  0  0  0  0  0  0  0  0
   -6.7407   -9.9851    0.0000 C   0  0  0  0  0  0  0  0  0  0  0  0
   -8.1673  -10.4486    0.0000 Cl  0  0  0  0  0  0  0  0  0  0  0  0
   -6.4289   -8.5179    0.0000 C   0  0  0  0  0  0  0  0  0  0  0  0
   -5.0023   -8.0543    0.0000 C   0  0  0  0  0  0  0  0  0  0  0  0
   -4.6904   -6.5871    0.0000 S   0  0  0  0  0  0  0  0  0  0  0  0
   -3.2232   -6.8990    0.0000 O   0  0  0  0  0  0  0  0  0  0  0  0
   -6.1577   -6.2752    0.0000 O   0  0  0  0  0  0  0  0  0  0  0  0
   -4.3786   -5.1199    0.0000 N   0  0  0  0  0  0  0  0  0  0  0  0
   -2.9520   -4.6564    0.0000 C   0  0  0  0  0  0  0  0  0  0  0  0
   -2.6401   -3.1891    0.0000 C   0  0  0  0  0  0  0  0  0  0  0  0
   -1.2135   -2.7256    0.0000 C   0  0  0  0  0  0  0  0  0  0  0  0
   -0.0000   -3.6073    0.0000 C   0  0  0  0  0  0  0  0  0  0  0  0
    0.0000   -5.1073    0.0000 C   0  0  0  0  0  0  0  0  0  0  0  0
    1.2135   -2.7256    0.0000 N   0  0  0  0  0  0  0  0  0  0  0  0
    0.7500   -1.2990    0.0000 C   0  0  0  0  0  0  0  0  0  0  0  0
    1.5000    0.0000    0.0000 C   0  0  0  0  0  0  0  0  0  0  0  0
    0.7500    1.2990    0.0000 C   0  0  0  0  0  0  0  0  0  0  0  0
   -0.7500    1.2990    0.0000 C   0  0  0  0  0  0  0  0  0  0  0  0
   -1.5000    2.5981    0.0000 O   0  0  0  0  0  0  0  0  0  0  0  0
   -0.7500    3.8971    0.0000 C   0  0  0  0  0  0  0  0  0  0  0  0
    0.0000    5.1962    0.0000 F   0  0  0  0  0  0  0  0  0  0  0  0
   -2.0490    4.6471    0.0000 F   0  0  0  0  0  0  0  0  0  0  0  0
    0.5490    3.1471    0.0000 F   0  0  0  0  0  0  0  0  0  0  0  0
   -1.5000    0.0000    0.0000 C   0  0  0  0  0  0  0  0  0  0  0  0
   -0.7500   -1.2990    0.0000 C   0  0  0  0  0  0  0  0  0  0  0  0
  1  2  1  0
  2  3  1  0
  3  4  1  0
  4  5  2  0
  5  6  1  0
  6  7  1  0
  6  8  2  0
  8  9  1  0
  8 10  1  0
 10 11  2  0
 11 12  1  0
 12 13  2  0
 12 14  2  0
 12 15  1  0
 15 16  1  0
 16 17  1  0
 17 18  1  0
 18 19  2  0
 19 20  1  0
 19 21  1  0
 21 22  1  0
 22 23  2  0
 23 24  1  0
 24 25  2  0
 25 26  1  0
 26 27  1  0
 27 28  1  0
 27 29  1  0
 27 30  1  0
 25 31  1  0
 31 32  2  0
 11  4  1  0
 32 18  1  0
 32 22  1  0
M  END
>  <Compound_ID>  (200) 
C01424204

>  <Active>  (200) 
0.0

>  <Smiles>  (200) 
CCOc1cc(C)c(Cl)cc1S(=O)(=O)NCCc1c(C)[nH]c2ccc(OC(F)(F)F)cc12

>  <canonical_smi>  (200) 
CCOc1cc(C)c(Cl)cc1S(=O)(=O)NCCc1c(C)[nH]c2ccc(OC(F)(F)F)cc12

>  <Set>  (200) 
G2 inactive

>  <Set_type>  (200) 
Train

>  <MW>  (200) 
490.93

>  <HBD>  (200) 
2

>  <HBA>  (200) 
4

>  <NRB>  (200) 
8

>  <NR>  (200) 
3

>  <NAR>  (200) 
3

>  <PSA>  (200) 
80.42

>  <Standard Type>  (200) 
nan

>  <Standard Relation>  (200) 
nan

>  <Standard Units>  (200) 
nan

>  <Standard Value>  (200) 
nan

>  <Assay ChEMBL ID>  (200) 
nan

>  <Assay Description>  (200) 
nan

>  <BAO Label>  (200) 
nan

$$$$

     RDKit          2D

 31 34  0  0  0  0  0  0  0  0999 V2000
    7.3481    8.9365    0.0000 C   0  0  0  0  0  0  0  0  0  0  0  0
    7.0362    7.4693    0.0000 C   0  0  0  0  0  0  0  0  0  0  0  0
    5.6097    7.0058    0.0000 C   0  0  0  0  0  0  0  0  0  0  0  0
    5.2978    5.5385    0.0000 N   0  0  0  0  0  0  0  0  0  0  0  0
    6.4125    4.5348    0.0000 C   0  0  0  0  0  0  0  0  0  0  0  0
    7.8391    4.9984    0.0000 C   0  0  0  0  0  0  0  0  0  0  0  0
    8.9538    3.9947    0.0000 C   0  0  0  0  0  0  0  0  0  0  0  0
    3.8712    5.0750    0.0000 S   0  0  0  0  0  0  0  0  0  0  0  0
    4.3347    3.6484    0.0000 O   0  0  0  0  0  0  0  0  0  0  0  0
    3.4077    6.5016    0.0000 O   0  0  0  0  0  0  0  0  0  0  0  0
    2.4446    4.6115    0.0000 C   0  0  0  0  0  0  0  0  0  0  0  0
    1.3299    5.6152    0.0000 C   0  0  0  0  0  0  0  0  0  0  0  0
   -0.0967    5.1517    0.0000 C   0  0  0  0  0  0  0  0  0  0  0  0
   -0.4086    3.6844    0.0000 C   0  0  0  0  0  0  0  0  0  0  0  0
    0.7062    2.6807    0.0000 C   0  0  0  0  0  0  0  0  0  0  0  0
    2.1328    3.1443    0.0000 C   0  0  0  0  0  0  0  0  0  0  0  0
    0.3943    1.2135    0.0000 C   0  0  0  0  0  0  0  0  0  0  0  0
    1.2760    0.0000    0.0000 C   0  0  0  0  0  0  0  0  0  0  0  0
    0.3943   -1.2135    0.0000 C   0  0  0  0  0  0  0  0  0  0  0  0
   -1.0323   -0.7500    0.0000 C   0  0  0  0  0  0  0  0  0  0  0  0
   -1.0323    0.7500    0.0000 C   0  0  0  0  0  0  0  0  0  0  0  0
   -2.1470    1.7537    0.0000 C   0  0  0  0  0  0  0  0  0  0  0  0
   -3.5736    1.2902    0.0000 C   0  0  0  0  0  0  0  0  0  0  0  0
   -4.6883    2.2939    0.0000 C   0  0  0  0  0  0  0  0  0  0  0  0
   -6.1149    1.8303    0.0000 C   0  0  0  0  0  0  0  0  0  0  0  0
   -7.2296    2.8340    0.0000 Br  0  0  0  0  0  0  0  0  0  0  0  0
   -6.4268    0.3631    0.0000 C   0  0  0  0  0  0  0  0  0  0  0  0
   -5.3120   -0.6406    0.0000 C   0  0  0  0  0  0  0  0  0  0  0  0
   -3.8855   -0.1771    0.0000 C   0  0  0  0  0  0  0  0  0  0  0  0
   -2.7707   -1.1807    0.0000 O   0  0  0  0  0  0  0  0  0  0  0  0
   -1.8351    3.2209    0.0000 N   0  0  0  0  0  0  0  0  0  0  0  0
  1  2  2  0
  2  3  1  0
  3  4  1  0
  4  5  1  0
  5  6  1  0
  6  7  2  0
  4  8  1  0
  8  9  2  0
  8 10  2  0
  8 11  1  0
 11 12  2  0
 12 13  1  0
 13 14  2  0
 14 15  1  0
 15 16  2  0
 15 17  1  0
 17 18  1  6
 18 19  2  0
 19 20  1  0
 21 20  1  1
 21 22  1  0
 22 23  1  1
 23 24  2  0
 24 25  1  0
 25 26  1  0
 25 27  2  0
 27 28  1  0
 28 29  2  0
 29 30  1  0
 22 31  1  0
 16 11  1  0
 21 17  1  0
 29 23  1  0
 31 14  1  0
M  END
>  <Compound_ID>  (201) 
C20696045

>  <Active>  (201) 
0.0

>  <Smiles>  (201) 
C=CCN(CC=C)S(=O)(=O)c1ccc2c(c1)[C@@H]1C=CC[C@H]1[C@@H](c1cc(Br)ccc1O)N2

>  <canonical_smi>  (201) 
C=CCN(CC=C)S(=O)(=O)c1ccc2c(c1)[C@@H]1C=CC[C@H]1[C@@H](c1cc(Br)ccc1O)N2

>  <Set>  (201) 
G2 inactive

>  <Set_type>  (201) 
Train

>  <MW>  (201) 
501.45

>  <HBD>  (201) 
2

>  <HBA>  (201) 
4

>  <NRB>  (201) 
7

>  <NR>  (201) 
4

>  <NAR>  (201) 
2

>  <PSA>  (201) 
69.64

>  <Standard Type>  (201) 
nan

>  <Standard Relation>  (201) 
nan

>  <Standard Units>  (201) 
nan

>  <Standard Value>  (201) 
nan

>  <Assay ChEMBL ID>  (201) 
nan

>  <Assay Description>  (201) 
nan

>  <BAO Label>  (201) 
nan

$$$$

     RDKit          2D

 36 38  0  0  0  0  0  0  0  0999 V2000
    5.2500   -1.2990    0.0000 C   0  0  0  0  0  0  0  0  0  0  0  0
    3.7500   -1.2990    0.0000 C   0  0  0  0  0  0  0  0  0  0  0  0
    3.0000    0.0000    0.0000 C   0  0  0  0  0  0  0  0  0  0  0  0
    1.5000    0.0000    0.0000 C   0  0  0  0  0  0  0  0  0  0  0  0
    0.7500   -1.2990    0.0000 C   0  0  0  0  0  0  0  0  0  0  0  0
    1.5000   -2.5981    0.0000 C   0  0  0  0  0  0  0  0  0  0  0  0
   -0.7500   -1.2990    0.0000 N   0  0  0  0  0  0  0  0  0  0  0  0
   -1.5000    0.0000    0.0000 C   0  0  0  0  0  0  0  0  0  0  0  0
   -3.0000    0.0000    0.0000 S   0  0  0  0  0  0  0  0  0  0  0  0
   -3.7500   -1.2990    0.0000 C   0  0  0  0  0  0  0  0  0  0  0  0
   -5.2500   -1.2990    0.0000 C   0  0  0  0  0  0  0  0  0  0  0  0
   -6.1317   -2.5126    0.0000 N   0  0  0  0  0  0  0  0  0  0  0  0
   -7.5583   -2.0490    0.0000 N   0  0  0  0  0  0  0  0  0  0  0  0
   -7.5583   -0.5490    0.0000 C   0  0  0  0  0  0  0  0  0  0  0  0
   -8.7718    0.3326    0.0000 C   0  0  0  0  0  0  0  0  0  0  0  0
   -8.6150    1.8244    0.0000 S   0  0  0  0  0  0  0  0  0  0  0  0
   -9.8285    2.7061    0.0000 C   0  0  0  0  0  0  0  0  0  0  0  0
   -9.6717    4.1979    0.0000 N   0  0  0  0  0  0  0  0  0  0  0  0
  -10.8853    5.0796    0.0000 C   0  0  0  0  0  0  0  0  0  0  0  0
  -10.7285    6.5713    0.0000 C   0  0  0  0  0  0  0  0  0  0  0  0
  -12.2556    4.4695    0.0000 C   0  0  0  0  0  0  0  0  0  0  0  0
  -13.4691    5.3511    0.0000 C   0  0  0  0  0  0  0  0  0  0  0  0
  -14.8394    4.7410    0.0000 C   0  0  0  0  0  0  0  0  0  0  0  0
  -16.0529    5.6227    0.0000 C   0  0  0  0  0  0  0  0  0  0  0  0
  -12.4124    2.9777    0.0000 C   0  0  0  0  0  0  0  0  0  0  0  0
  -13.7827    2.3676    0.0000 C   0  0  0  0  0  0  0  0  0  0  0  0
  -11.1988    2.0960    0.0000 C   0  0  0  0  0  0  0  0  0  0  0  0
  -11.3556    0.6042    0.0000 C   0  0  0  0  0  0  0  0  0  0  0  0
  -11.5124   -0.8876    0.0000 N   0  0  0  0  0  0  0  0  0  0  0  0
   -6.1317   -0.0855    0.0000 N   0  0  0  0  0  0  0  0  0  0  0  0
   -5.6682    1.3411    0.0000 N   0  0  0  0  0  0  0  0  0  0  0  0
   -0.7500    1.2990    0.0000 C   0  0  0  0  0  0  0  0  0  0  0  0
   -1.5000    2.5981    0.0000 C   0  0  0  0  0  0  0  0  0  0  0  0
   -2.2500    3.8971    0.0000 N   0  0  0  0  0  0  0  0  0  0  0  0
    0.7500    1.2990    0.0000 C   0  0  0  0  0  0  0  0  0  0  0  0
    1.5000    2.5981    0.0000 C   0  0  0  0  0  0  0  0  0  0  0  0
  1  2  2  0
  2  3  1  0
  3  4  1  0
  4  5  2  0
  5  6  1  0
  5  7  1  0
  7  8  2  0
  8  9  1  0
  9 10  1  0
 10 11  1  0
 11 12  2  0
 12 13  1  0
 13 14  2  0
 14 15  1  0
 15 16  1  0
 16 17  1  0
 17 18  2  0
 18 19  1  0
 19 20  1  0
 19 21  2  0
 21 22  1  0
 22 23  1  0
 23 24  2  0
 21 25  1  0
 25 26  1  0
 25 27  2  0
 27 28  1  0
 28 29  3  0
 14 30  1  0
 30 31  1  0
  8 32  1  0
 32 33  1  0
 33 34  3  0
 32 35  2  0
 35 36  1  0
 35  4  1  0
 30 11  1  0
 27 17  1  0
M  END
>  <Compound_ID>  (202) 
C58834877

>  <Active>  (202) 
0.0

>  <Smiles>  (202) 
C=CCc1c(C)nc(SCc2nnc(CSc3nc(C)c(CC=C)c(C)c3C#N)n2N)c(C#N)c1C

>  <canonical_smi>  (202) 
C=CCc1c(C)nc(SCc2nnc(CSc3nc(C)c(CC=C)c(C)c3C#N)n2N)c(C#N)c1C

>  <Set>  (202) 
G2 inactive

>  <Set_type>  (202) 
Train

>  <MW>  (202) 
516.7

>  <HBD>  (202) 
1

>  <HBA>  (202) 
9

>  <NRB>  (202) 
10

>  <NR>  (202) 
3

>  <NAR>  (202) 
3

>  <PSA>  (202) 
130.09

>  <Standard Type>  (202) 
nan

>  <Standard Relation>  (202) 
nan

>  <Standard Units>  (202) 
nan

>  <Standard Value>  (202) 
nan

>  <Assay ChEMBL ID>  (202) 
nan

>  <Assay Description>  (202) 
nan

>  <BAO Label>  (202) 
nan

$$$$

     RDKit          2D

 21 23  0  0  0  0  0  0  0  0999 V2000
   -8.2500   -9.0933    0.0000 Cl  0  0  0  0  0  0  0  0  0  0  0  0
   -7.5000   -7.7942    0.0000 C   0  0  0  0  0  0  0  0  0  0  0  0
   -8.2500   -6.4952    0.0000 C   0  0  0  0  0  0  0  0  0  0  0  0
   -7.5000   -5.1962    0.0000 C   0  0  0  0  0  0  0  0  0  0  0  0
   -6.0000   -5.1962    0.0000 C   0  0  0  0  0  0  0  0  0  0  0  0
   -5.2500   -3.8971    0.0000 C   0  0  0  0  0  0  0  0  0  0  0  0
   -3.7500   -3.8971    0.0000 N   0  0  0  0  0  0  0  0  0  0  0  0
   -3.0000   -2.5981    0.0000 N   0  0  0  0  0  0  0  0  0  0  0  0
   -1.5000   -2.5981    0.0000 C   0  0  0  0  0  0  0  0  0  0  0  0
   -0.7500   -3.8971    0.0000 N   0  0  0  0  0  0  0  0  0  0  0  0
    0.7500   -3.8971    0.0000 C   0  0  0  0  0  0  0  0  0  0  0  0
    1.5000   -2.5981    0.0000 N   0  0  0  0  0  0  0  0  0  0  0  0
    0.7500   -1.2990    0.0000 C   0  0  0  0  0  0  0  0  0  0  0  0
    1.5000    0.0000    0.0000 C   0  0  0  0  0  0  0  0  0  0  0  0
    0.7500    1.2990    0.0000 C   0  0  0  0  0  0  0  0  0  0  0  0
   -0.7500    1.2990    0.0000 C   0  0  0  0  0  0  0  0  0  0  0  0
   -1.5000    0.0000    0.0000 C   0  0  0  0  0  0  0  0  0  0  0  0
   -0.7500   -1.2990    0.0000 C   0  0  0  0  0  0  0  0  0  0  0  0
   -5.2500   -6.4952    0.0000 C   0  0  0  0  0  0  0  0  0  0  0  0
   -6.0000   -7.7942    0.0000 C   0  0  0  0  0  0  0  0  0  0  0  0
   -5.2500   -9.0933    0.0000 Cl  0  0  0  0  0  0  0  0  0  0  0  0
  1  2  1  0
  2  3  2  0
  3  4  1  0
  4  5  2  0
  5  6  1  0
  6  7  2  0
  7  8  1  0
  8  9  1  0
  9 10  2  0
 10 11  1  0
 11 12  2  0
 12 13  1  0
 13 14  2  0
 14 15  1  0
 15 16  2  0
 16 17  1  0
 17 18  2  0
  5 19  1  0
 19 20  2  0
 20 21  1  0
 20  2  1  0
 18  9  1  0
 18 13  1  0
M  END
>  <Compound_ID>  (203) 
C05280411

>  <Active>  (203) 
0.0

>  <Smiles>  (203) 
Clc1ccc(/C=N/Nc2ncnc3ccccc23)cc1Cl

>  <canonical_smi>  (203) 
Clc1ccc(/C=N/Nc2ncnc3ccccc23)cc1Cl

>  <Set>  (203) 
G2 inactive

>  <Set_type>  (203) 
Train

>  <MW>  (203) 
317.18

>  <HBD>  (203) 
1

>  <HBA>  (203) 
3

>  <NRB>  (203) 
3

>  <NR>  (203) 
3

>  <NAR>  (203) 
3

>  <PSA>  (203) 
50.17

>  <Standard Type>  (203) 
nan

>  <Standard Relation>  (203) 
nan

>  <Standard Units>  (203) 
nan

>  <Standard Value>  (203) 
nan

>  <Assay ChEMBL ID>  (203) 
nan

>  <Assay Description>  (203) 
nan

>  <BAO Label>  (203) 
nan

$$$$

     RDKit          2D

 22 24  0  0  0  0  0  0  0  0999 V2000
   -0.5490   -0.5490    0.0000 C   0  0  0  0  0  0  0  0  0  0  0  0
    0.7500   -1.2990    0.0000 C   0  0  0  0  0  0  0  0  0  0  0  0
    1.5000    0.0000    0.0000 C   0  0  0  0  0  0  0  0  0  0  0  0
    0.7500    1.2990    0.0000 C   0  0  0  0  0  0  0  0  0  0  0  0
   -0.7500    1.2990    0.0000 C   0  0  0  0  0  0  0  0  0  0  0  0
   -1.5000    0.0000    0.0000 C   0  0  0  0  0  0  0  0  0  0  0  0
   -0.7500   -1.2990    0.0000 C   0  0  0  0  0  0  0  0  0  0  0  0
   -0.0000   -2.5981    0.0000 C   0  0  0  0  0  0  0  0  0  0  0  0
   -0.0000   -4.0981    0.0000 C   0  0  0  0  0  0  0  0  0  0  0  0
    1.2990   -4.8481    0.0000 O   0  0  0  0  0  0  0  0  0  0  0  0
   -1.2990   -4.8481    0.0000 N   0  0  0  0  0  0  0  0  0  0  0  0
   -1.2990   -6.3481    0.0000 N   0  0  0  0  0  0  0  0  0  0  0  0
   -2.5981   -7.0981    0.0000 C   0  0  0  0  0  0  0  0  0  0  0  0
   -3.8971   -6.3481    0.0000 C   0  0  0  0  0  0  0  0  0  0  0  0
   -3.8971   -4.8481    0.0000 C   0  0  0  0  0  0  0  0  0  0  0  0
   -5.1962   -4.0981    0.0000 C   0  0  0  0  0  0  0  0  0  0  0  0
   -5.1962   -2.5981    0.0000 Br  0  0  0  0  0  0  0  0  0  0  0  0
   -6.4952   -4.8481    0.0000 C   0  0  0  0  0  0  0  0  0  0  0  0
   -7.7942   -4.0981    0.0000 O   0  0  0  0  0  0  0  0  0  0  0  0
   -6.4952   -6.3481    0.0000 C   0  0  0  0  0  0  0  0  0  0  0  0
   -5.1962   -7.0981    0.0000 C   0  0  0  0  0  0  0  0  0  0  0  0
   -5.1962   -8.5981    0.0000 O   0  0  0  0  0  0  0  0  0  0  0  0
  2  1  1  1
  2  3  1  0
  3  4  1  0
  4  5  1  0
  5  6  1  0
  7  6  1  6
  7  8  1  0
  8  9  1  1
  9 10  2  0
  9 11  1  0
 11 12  1  0
 12 13  2  0
 13 14  1  0
 14 15  2  0
 15 16  1  0
 16 17  1  0
 16 18  2  0
 18 19  1  0
 18 20  1  0
 20 21  2  0
 21 22  1  0
  7  2  1  0
 21 14  1  0
  8  2  1  0
M  END
>  <Compound_ID>  (204) 
C36490170

>  <Active>  (204) 
0.0

>  <Smiles>  (204) 
C[C@]12CCCC[C@H]1[C@@H]2C(=O)N/N=C\c1cc(Br)c(O)cc1O

>  <canonical_smi>  (204) 
C[C@]12CCCC[C@H]1[C@@H]2C(=O)N/N=C\c1cc(Br)c(O)cc1O

>  <Set>  (204) 
G2 inactive

>  <Set_type>  (204) 
Train

>  <MW>  (204) 
367.24

>  <HBD>  (204) 
3

>  <HBA>  (204) 
3

>  <NRB>  (204) 
3

>  <NR>  (204) 
3

>  <NAR>  (204) 
1

>  <PSA>  (204) 
81.92

>  <Standard Type>  (204) 
nan

>  <Standard Relation>  (204) 
nan

>  <Standard Units>  (204) 
nan

>  <Standard Value>  (204) 
nan

>  <Assay ChEMBL ID>  (204) 
nan

>  <Assay Description>  (204) 
nan

>  <BAO Label>  (204) 
nan

$$$$

     RDKit          2D

 20 21  0  0  0  0  0  0  0  0999 V2000
    3.0000    0.0000    0.0000 C   0  0  0  0  0  0  0  0  0  0  0  0
    1.5000    0.0000    0.0000 C   0  0  0  0  0  0  0  0  0  0  0  0
    0.7500   -1.2990    0.0000 C   0  0  0  0  0  0  0  0  0  0  0  0
   -0.7500   -1.2990    0.0000 C   0  0  0  0  0  0  0  0  0  0  0  0
   -1.5000    0.0000    0.0000 C   0  0  0  0  0  0  0  0  0  0  0  0
   -3.0000    0.0000    0.0000 S   0  0  0  0  0  0  0  0  0  0  0  0
   -3.0000   -1.5000    0.0000 O   0  0  0  0  0  0  0  0  0  0  0  0
   -3.0000    1.5000    0.0000 O   0  0  0  0  0  0  0  0  0  0  0  0
   -4.5000    0.0000    0.0000 N   0  0  0  0  0  0  0  0  0  0  0  0
   -5.2500    1.2990    0.0000 C   0  0  0  0  0  0  0  0  0  0  0  0
   -4.5000    2.5981    0.0000 C   0  0  0  0  0  0  0  0  0  0  0  0
   -5.2500    3.8971    0.0000 C   0  0  0  0  0  0  0  0  0  0  0  0
   -6.7500    3.8971    0.0000 C   0  0  0  0  0  0  0  0  0  0  0  0
   -7.5000    5.1962    0.0000 C   0  0  0  0  0  0  0  0  0  0  0  0
   -7.5000    2.5981    0.0000 C   0  0  0  0  0  0  0  0  0  0  0  0
   -6.7500    1.2990    0.0000 C   0  0  0  0  0  0  0  0  0  0  0  0
   -7.5000    0.0000    0.0000 Br  0  0  0  0  0  0  0  0  0  0  0  0
   -0.7500    1.2990    0.0000 C   0  0  0  0  0  0  0  0  0  0  0  0
   -1.5000    2.5981    0.0000 N   0  0  0  0  0  0  0  0  0  0  0  0
    0.7500    1.2990    0.0000 C   0  0  0  0  0  0  0  0  0  0  0  0
  1  2  1  0
  2  3  2  0
  3  4  1  0
  4  5  2  0
  5  6  1  0
  6  7  2  0
  6  8  2  0
  6  9  1  0
  9 10  1  0
 10 11  2  0
 11 12  1  0
 12 13  2  0
 13 14  1  0
 13 15  1  0
 15 16  2  0
 16 17  1  0
  5 18  1  0
 18 19  1  0
 18 20  2  0
 20  2  1  0
 16 10  1  0
M  END
>  <Compound_ID>  (205) 
C37063630

>  <Active>  (205) 
0.0

>  <Smiles>  (205) 
Cc1ccc(S(=O)(=O)Nc2ccc(C)cc2Br)c(N)c1

>  <canonical_smi>  (205) 
Cc1ccc(S(=O)(=O)Nc2ccc(C)cc2Br)c(N)c1

>  <Set>  (205) 
G2 inactive

>  <Set_type>  (205) 
Train

>  <MW>  (205) 
355.26

>  <HBD>  (205) 
2

>  <HBA>  (205) 
3

>  <NRB>  (205) 
3

>  <NR>  (205) 
2

>  <NAR>  (205) 
2

>  <PSA>  (205) 
72.19

>  <Standard Type>  (205) 
nan

>  <Standard Relation>  (205) 
nan

>  <Standard Units>  (205) 
nan

>  <Standard Value>  (205) 
nan

>  <Assay ChEMBL ID>  (205) 
nan

>  <Assay Description>  (205) 
nan

>  <BAO Label>  (205) 
nan

$$$$

     RDKit          2D

 21 23  0  0  0  0  0  0  0  0999 V2000
   -4.9704    2.6861    0.0000 N   0  0  0  0  0  0  0  0  0  0  0  0
   -5.4340    4.1127    0.0000 C   0  0  0  0  0  0  0  0  0  0  0  0
   -6.9012    4.4245    0.0000 C   0  0  0  0  0  0  0  0  0  0  0  0
   -7.3647    5.8511    0.0000 C   0  0  0  0  0  0  0  0  0  0  0  0
   -8.8319    6.1630    0.0000 Cl  0  0  0  0  0  0  0  0  0  0  0  0
   -6.3610    6.9658    0.0000 C   0  0  0  0  0  0  0  0  0  0  0  0
   -4.8938    6.6540    0.0000 C   0  0  0  0  0  0  0  0  0  0  0  0
   -3.8901    7.7687    0.0000 Cl  0  0  0  0  0  0  0  0  0  0  0  0
   -4.4303    5.2274    0.0000 C   0  0  0  0  0  0  0  0  0  0  0  0
   -2.9630    4.9155    0.0000 S   0  0  0  0  0  0  0  0  0  0  0  0
   -3.2749    3.4483    0.0000 O   0  0  0  0  0  0  0  0  0  0  0  0
   -2.6512    6.3827    0.0000 O   0  0  0  0  0  0  0  0  0  0  0  0
   -1.4958    4.6036    0.0000 N   0  0  0  0  0  0  0  0  0  0  0  0
   -1.0323    3.1771    0.0000 C   0  0  0  0  0  0  0  0  0  0  0  0
   -1.9140    1.9635    0.0000 N   0  0  0  0  0  0  0  0  0  0  0  0
   -1.0323    0.7500    0.0000 C   0  0  0  0  0  0  0  0  0  0  0  0
    0.3943    1.2135    0.0000 C   0  0  0  0  0  0  0  0  0  0  0  0
    0.3943    2.7135    0.0000 S   0  0  0  0  0  0  0  0  0  0  0  0
    1.2760    0.0000    0.0000 C   0  0  0  0  0  0  0  0  0  0  0  0
    0.3943   -1.2135    0.0000 C   0  0  0  0  0  0  0  0  0  0  0  0
   -1.0323   -0.7500    0.0000 C   0  0  0  0  0  0  0  0  0  0  0  0
  1  2  1  0
  2  3  2  0
  3  4  1  0
  4  5  1  0
  4  6  2  0
  6  7  1  0
  7  8  1  0
  7  9  2  0
  9 10  1  0
 10 11  2  0
 10 12  2  0
 10 13  1  0
 13 14  2  0
 14 15  1  0
 15 16  1  0
 16 17  2  0
 17 18  1  0
 17 19  1  0
 19 20  1  0
 20 21  1  0
  9  2  1  0
 18 14  1  0
 21 16  1  0
M  END
>  <Compound_ID>  (206) 
C49541731

>  <Active>  (206) 
0.0

>  <Smiles>  (206) 
Nc1cc(Cl)cc(Cl)c1S(=O)(=O)/N=c1\[nH]c2c(s1)CCC2

>  <canonical_smi>  (206) 
Nc1cc(Cl)cc(Cl)c1S(=O)(=O)/N=c1\[nH]c2c(s1)CCC2

>  <Set>  (206) 
G2 inactive

>  <Set_type>  (206) 
Train

>  <MW>  (206) 
364.28

>  <HBD>  (206) 
2

>  <HBA>  (206) 
3

>  <NRB>  (206) 
2

>  <NR>  (206) 
3

>  <NAR>  (206) 
2

>  <PSA>  (206) 
88.31

>  <Standard Type>  (206) 
nan

>  <Standard Relation>  (206) 
nan

>  <Standard Units>  (206) 
nan

>  <Standard Value>  (206) 
nan

>  <Assay ChEMBL ID>  (206) 
nan

>  <Assay Description>  (206) 
nan

>  <BAO Label>  (206) 
nan

$$$$

     RDKit          2D

 27 30  0  0  0  0  0  0  0  0999 V2000
   -3.8971  -11.8573    0.0000 N   0  0  0  0  0  0  0  0  0  0  0  0
   -3.8971  -10.3573    0.0000 C   0  0  0  0  0  0  0  0  0  0  0  0
   -5.1962   -9.6073    0.0000 C   0  0  0  0  0  0  0  0  0  0  0  0
   -6.4952  -10.3573    0.0000 Cl  0  0  0  0  0  0  0  0  0  0  0  0
   -5.1962   -8.1073    0.0000 C   0  0  0  0  0  0  0  0  0  0  0  0
   -6.4952   -7.3573    0.0000 Cl  0  0  0  0  0  0  0  0  0  0  0  0
   -3.8971   -7.3573    0.0000 N   0  0  0  0  0  0  0  0  0  0  0  0
   -2.5981   -8.1073    0.0000 C   0  0  0  0  0  0  0  0  0  0  0  0
   -1.2990   -7.3573    0.0000 C   0  0  0  0  0  0  0  0  0  0  0  0
    0.0000   -8.1073    0.0000 O   0  0  0  0  0  0  0  0  0  0  0  0
   -1.2990   -5.8573    0.0000 N   0  0  0  0  0  0  0  0  0  0  0  0
   -0.0000   -5.1073    0.0000 N   0  0  0  0  0  0  0  0  0  0  0  0
   -0.0000   -3.6073    0.0000 C   0  0  0  0  0  0  0  0  0  0  0  0
    1.2135   -2.7256    0.0000 C   0  0  0  0  0  0  0  0  0  0  0  0
    2.6401   -3.1891    0.0000 O   0  0  0  0  0  0  0  0  0  0  0  0
    0.7500   -1.2990    0.0000 C   0  0  0  0  0  0  0  0  0  0  0  0
    1.5000    0.0000    0.0000 C   0  0  0  0  0  0  0  0  0  0  0  0
    0.7500    1.2990    0.0000 C   0  0  0  0  0  0  0  0  0  0  0  0
   -0.7500    1.2990    0.0000 C   0  0  0  0  0  0  0  0  0  0  0  0
   -1.5000    0.0000    0.0000 C   0  0  0  0  0  0  0  0  0  0  0  0
   -2.9769   -0.2986    0.0000 C   0  0  0  0  0  0  0  0  0  0  0  0
   -3.5870   -1.6689    0.0000 C   0  0  0  0  0  0  0  0  0  0  0  0
   -2.7053   -2.8824    0.0000 C   0  0  0  0  0  0  0  0  0  0  0  0
   -1.2135   -2.7256    0.0000 C   0  0  0  0  0  0  0  0  0  0  0  0
   -0.7500   -1.2990    0.0000 C   0  0  0  0  0  0  0  0  0  0  0  0
   -2.5981   -9.6073    0.0000 C   0  0  0  0  0  0  0  0  0  0  0  0
   -1.2990  -10.3573    0.0000 Cl  0  0  0  0  0  0  0  0  0  0  0  0
  1  2  1  0
  2  3  2  0
  3  4  1  0
  3  5  1  0
  5  6  1  0
  5  7  2  0
  7  8  1  0
  8  9  1  0
  9 10  2  0
  9 11  1  0
 11 12  1  0
 12 13  2  0
 13 14  1  0
 14 15  2  0
 14 16  1  0
 16 17  1  0
 17 18  2  0
 18 19  1  0
 19 20  2  0
 20 21  1  0
 21 22  2  0
 22 23  1  0
 23 24  2  0
 24 25  1  0
  8 26  2  0
 26 27  1  0
 26  2  1  0
 24 13  1  0
 25 16  2  0
 25 20  1  0
M  END
>  <Compound_ID>  (207) 
C13102347

>  <Active>  (207) 
0.0

>  <Smiles>  (207) 
Nc1c(Cl)c(Cl)nc(C(=O)N/N=C2/C(=O)c3cccc4cccc2c34)c1Cl

>  <canonical_smi>  (207) 
Nc1c(Cl)c(Cl)nc(C(=O)N/N=C2/C(=O)c3cccc4cccc2c34)c1Cl

>  <Set>  (207) 
G2 inactive

>  <Set_type>  (207) 
Train

>  <MW>  (207) 
419.65

>  <HBD>  (207) 
2

>  <HBA>  (207) 
4

>  <NRB>  (207) 
2

>  <NR>  (207) 
4

>  <NAR>  (207) 
3

>  <PSA>  (207) 
97.44

>  <Standard Type>  (207) 
nan

>  <Standard Relation>  (207) 
nan

>  <Standard Units>  (207) 
nan

>  <Standard Value>  (207) 
nan

>  <Assay ChEMBL ID>  (207) 
nan

>  <Assay Description>  (207) 
nan

>  <BAO Label>  (207) 
nan

$$$$

     RDKit          2D

 14 14  0  0  0  0  0  0  0  0999 V2000
    5.2500   -1.2990    0.0000 C   0  0  0  0  0  0  0  0  0  0  0  0
    3.7500   -1.2990    0.0000 C   0  0  0  0  0  0  0  0  0  0  0  0
    3.0000    0.0000    0.0000 C   0  0  0  0  0  0  0  0  0  0  0  0
    1.5000    0.0000    0.0000 C   0  0  0  0  0  0  0  0  0  0  0  0
    0.7500   -1.2990    0.0000 O   0  0  0  0  0  0  0  0  0  0  0  0
   -0.7500   -1.2990    0.0000 C   0  0  0  0  0  0  0  0  0  0  0  0
   -1.5000    0.0000    0.0000 C   0  0  0  0  0  0  0  0  0  0  0  0
   -2.6491   -0.9642    0.0000 C   0  0  0  0  0  0  0  0  0  0  0  0
   -2.6491    0.9642    0.0000 C   0  0  0  0  0  0  0  0  0  0  0  0
   -0.7500    1.2990    0.0000 C   0  0  0  0  0  0  0  0  0  0  0  0
   -1.5000    2.5981    0.0000 C   0  0  0  0  0  0  0  0  0  0  0  0
   -0.7500    3.8971    0.0000 C   0  0  0  0  0  0  0  0  0  0  0  0
   -3.0000    2.5981    0.0000 C   0  0  0  0  0  0  0  0  0  0  0  0
    0.7500    1.2990    0.0000 O   0  0  0  0  0  0  0  0  0  0  0  0
  1  2  1  0
  2  3  2  0
  4  3  1  6
  4  5  1  0
  5  6  1  0
  6  7  1  0
  7  8  1  0
  7  9  1  0
  7 10  1  0
 10 11  1  1
 11 12  1  0
 11 13  1  0
 10 14  1  0
 14  4  1  0
M  END
>  <Compound_ID>  (208) 
C04804268

>  <Active>  (208) 
0.0

>  <Smiles>  (208) 
C/C=C/[C@@H]1OCC(C)(C)[C@@H](C(C)C)O1

>  <canonical_smi>  (208) 
C/C=C/[C@@H]1OCC(C)(C)[C@@H](C(C)C)O1

>  <Set>  (208) 
G2 inactive

>  <Set_type>  (208) 
Train

>  <MW>  (208) 
198.31

>  <HBD>  (208) 
0

>  <HBA>  (208) 
2

>  <NRB>  (208) 
2

>  <NR>  (208) 
1

>  <NAR>  (208) 
0

>  <PSA>  (208) 
18.46

>  <Standard Type>  (208) 
nan

>  <Standard Relation>  (208) 
nan

>  <Standard Units>  (208) 
nan

>  <Standard Value>  (208) 
nan

>  <Assay ChEMBL ID>  (208) 
nan

>  <Assay Description>  (208) 
nan

>  <BAO Label>  (208) 
nan

$$$$

     RDKit          2D

 11 11  0  0  0  0  0  0  0  0999 V2000
    2.7760    0.0000    0.0000 C   0  0  0  0  0  0  0  0  0  0  0  0
    1.2760    0.0000    0.0000 C   0  0  0  0  0  0  0  0  0  0  0  0
    0.3943    1.2135    0.0000 O   0  0  0  0  0  0  0  0  0  0  0  0
   -1.0323    0.7500    0.0000 C   0  0  0  0  0  0  0  0  0  0  0  0
   -2.2458    1.6317    0.0000 C   0  0  0  0  0  0  0  0  0  0  0  0
   -3.4593    2.5134    0.0000 Cl  0  0  0  0  0  0  0  0  0  0  0  0
   -1.3641    2.8452    0.0000 Cl  0  0  0  0  0  0  0  0  0  0  0  0
   -3.1275    0.4182    0.0000 Cl  0  0  0  0  0  0  0  0  0  0  0  0
   -1.0323   -0.7500    0.0000 O   0  0  0  0  0  0  0  0  0  0  0  0
    0.3943   -1.2135    0.0000 C   0  0  0  0  0  0  0  0  0  0  0  0
    0.8578   -2.6401    0.0000 C   0  0  0  0  0  0  0  0  0  0  0  0
  2  1  1  1
  2  3  1  0
  3  4  1  0
  4  5  1  0
  5  6  1  0
  5  7  1  0
  5  8  1  0
  4  9  1  0
  9 10  1  0
 10 11  1  6
 10  2  1  0
M  END
>  <Compound_ID>  (209) 
C01656288

>  <Active>  (209) 
0.0

>  <Smiles>  (209) 
C[C@@H]1OC(C(Cl)(Cl)Cl)O[C@H]1C

>  <canonical_smi>  (209) 
C[C@@H]1OC(C(Cl)(Cl)Cl)O[C@H]1C

>  <Set>  (209) 
G2 inactive

>  <Set_type>  (209) 
Train

>  <MW>  (209) 
219.49

>  <HBD>  (209) 
0

>  <HBA>  (209) 
2

>  <NRB>  (209) 
0

>  <NR>  (209) 
1

>  <NAR>  (209) 
0

>  <PSA>  (209) 
18.46

>  <Standard Type>  (209) 
nan

>  <Standard Relation>  (209) 
nan

>  <Standard Units>  (209) 
nan

>  <Standard Value>  (209) 
nan

>  <Assay ChEMBL ID>  (209) 
nan

>  <Assay Description>  (209) 
nan

>  <BAO Label>  (209) 
nan

$$$$

     RDKit          2D

 13 14  0  0  0  0  0  0  0  0999 V2000
   -2.9520   -4.6564    0.0000 C   0  0  0  0  0  0  0  0  0  0  0  0
   -2.6401   -3.1891    0.0000 C   0  0  0  0  0  0  0  0  0  0  0  0
   -1.2135   -2.7256    0.0000 C   0  0  0  0  0  0  0  0  0  0  0  0
   -0.0000   -3.6073    0.0000 C   0  0  0  0  0  0  0  0  0  0  0  0
   -0.0000   -5.1073    0.0000 C   0  0  0  0  0  0  0  0  0  0  0  0
    1.2135   -2.7256    0.0000 S   0  0  0  0  0  0  0  0  0  0  0  0
    0.7500   -1.2990    0.0000 C   0  0  0  0  0  0  0  0  0  0  0  0
    1.5000    0.0000    0.0000 N   0  0  0  0  0  0  0  0  0  0  0  0
    0.7500    1.2990    0.0000 C   0  0  0  0  0  0  0  0  0  0  0  0
   -0.7500    1.2990    0.0000 N   0  0  0  0  0  0  0  0  0  0  0  0
   -1.5000    0.0000    0.0000 C   0  0  0  0  0  0  0  0  0  0  0  0
   -3.0000    0.0000    0.0000 Cl  0  0  0  0  0  0  0  0  0  0  0  0
   -0.7500   -1.2990    0.0000 C   0  0  0  0  0  0  0  0  0  0  0  0
  1  2  1  0
  2  3  1  0
  3  4  2  0
  4  5  1  0
  4  6  1  0
  6  7  1  0
  7  8  2  0
  8  9  1  0
  9 10  2  0
 10 11  1  0
 11 12  1  0
 11 13  2  0
 13  3  1  0
 13  7  1  0
M  END
>  <Compound_ID>  (210) 
C19092621

>  <Active>  (210) 
0.0

>  <Smiles>  (210) 
CCc1c(C)sc2ncnc(Cl)c12

>  <canonical_smi>  (210) 
CCc1c(C)sc2ncnc(Cl)c12

>  <Set>  (210) 
G2 inactive

>  <Set_type>  (210) 
Train

>  <MW>  (210) 
212.7

>  <HBD>  (210) 
0

>  <HBA>  (210) 
2

>  <NRB>  (210) 
1

>  <NR>  (210) 
2

>  <NAR>  (210) 
2

>  <PSA>  (210) 
25.78

>  <Standard Type>  (210) 
nan

>  <Standard Relation>  (210) 
nan

>  <Standard Units>  (210) 
nan

>  <Standard Value>  (210) 
nan

>  <Assay ChEMBL ID>  (210) 
nan

>  <Assay Description>  (210) 
nan

>  <BAO Label>  (210) 
nan

$$$$

     RDKit          2D

 14 14  0  0  0  0  0  0  0  0999 V2000
    3.0000    0.0000    0.0000 C   0  0  0  0  0  0  0  0  0  0  0  0
    1.5000    0.0000    0.0000 C   0  0  0  0  0  0  0  0  0  0  0  0
    0.7500   -1.2990    0.0000 C   0  0  0  0  0  0  0  0  0  0  0  0
   -0.7500   -1.2990    0.0000 C   0  0  0  0  0  0  0  0  0  0  0  0
   -1.5000   -2.5981    0.0000 C   0  0  0  0  0  0  0  0  0  0  0  0
   -3.0000   -2.5981    0.0000 Cl  0  0  0  0  0  0  0  0  0  0  0  0
   -1.5000    0.0000    0.0000 C   0  0  0  0  0  0  0  0  0  0  0  0
   -0.7500    1.2990    0.0000 C   0  0  0  0  0  0  0  0  0  0  0  0
   -1.5000    2.5981    0.0000 C   0  0  0  0  0  0  0  0  0  0  0  0
    0.7500    1.2990    0.0000 C   0  0  0  0  0  0  0  0  0  0  0  0
    1.5000    2.5981    0.0000 O   0  0  0  0  0  0  0  0  0  0  0  0
    3.0000    2.5981    0.0000 C   0  0  0  0  0  0  0  0  0  0  0  0
    3.7500    3.8971    0.0000 C   0  0  0  0  0  0  0  0  0  0  0  0
    4.5000    5.1962    0.0000 N   0  0  0  0  0  0  0  0  0  0  0  0
  1  2  1  0
  2  3  2  0
  3  4  1  0
  4  5  1  0
  5  6  1  0
  4  7  2  0
  7  8  1  0
  8  9  1  0
  8 10  2  0
 10 11  1  0
 11 12  1  0
 12 13  1  0
 13 14  3  0
 10  2  1  0
M  END
>  <Compound_ID>  (211) 
C20425204

>  <Active>  (211) 
0.0

>  <Smiles>  (211) 
Cc1cc(CCl)cc(C)c1OCC#N

>  <canonical_smi>  (211) 
Cc1cc(CCl)cc(C)c1OCC#N

>  <Set>  (211) 
G2 inactive

>  <Set_type>  (211) 
Train

>  <MW>  (211) 
209.68

>  <HBD>  (211) 
0

>  <HBA>  (211) 
2

>  <NRB>  (211) 
3

>  <NR>  (211) 
1

>  <NAR>  (211) 
1

>  <PSA>  (211) 
33.02

>  <Standard Type>  (211) 
nan

>  <Standard Relation>  (211) 
nan

>  <Standard Units>  (211) 
nan

>  <Standard Value>  (211) 
nan

>  <Assay ChEMBL ID>  (211) 
nan

>  <Assay Description>  (211) 
nan

>  <BAO Label>  (211) 
nan

$$$$

     RDKit          2D

 11 11  0  0  0  0  0  0  0  0999 V2000
    4.5000   -2.5981    0.0000 O   0  0  0  0  0  0  0  0  0  0  0  0
    3.7500   -1.2990    0.0000 C   0  0  0  0  0  0  0  0  0  0  0  0
    3.0000    0.0000    0.0000 N   0  0  0  0  0  0  0  0  0  0  0  0
    1.5000    0.0000    0.0000 C   0  0  0  0  0  0  0  0  0  0  0  0
    0.7500   -1.2990    0.0000 C   0  0  0  0  0  0  0  0  0  0  0  0
   -0.7500   -1.2990    0.0000 C   0  0  0  0  0  0  0  0  0  0  0  0
   -1.5000   -2.5981    0.0000 F   0  0  0  0  0  0  0  0  0  0  0  0
   -1.5000    0.0000    0.0000 C   0  0  0  0  0  0  0  0  0  0  0  0
   -0.7500    1.2990    0.0000 C   0  0  0  0  0  0  0  0  0  0  0  0
   -1.5000    2.5981    0.0000 Br  0  0  0  0  0  0  0  0  0  0  0  0
    0.7500    1.2990    0.0000 C   0  0  0  0  0  0  0  0  0  0  0  0
  1  2  2  0
  2  3  2  0
  3  4  1  0
  4  5  2  0
  5  6  1  0
  6  7  1  0
  6  8  2  0
  8  9  1  0
  9 10  1  0
  9 11  2  0
 11  4  1  0
M  END
>  <Compound_ID>  (212) 
C37034407

>  <Active>  (212) 
0.0

>  <Smiles>  (212) 
O=C=Nc1cc(F)cc(Br)c1

>  <canonical_smi>  (212) 
O=C=Nc1cc(F)cc(Br)c1

>  <Set>  (212) 
G2 inactive

>  <Set_type>  (212) 
Train

>  <MW>  (212) 
216.01

>  <HBD>  (212) 
0

>  <HBA>  (212) 
1

>  <NRB>  (212) 
1

>  <NR>  (212) 
1

>  <NAR>  (212) 
1

>  <PSA>  (212) 
29.43

>  <Standard Type>  (212) 
nan

>  <Standard Relation>  (212) 
nan

>  <Standard Units>  (212) 
nan

>  <Standard Value>  (212) 
nan

>  <Assay ChEMBL ID>  (212) 
nan

>  <Assay Description>  (212) 
nan

>  <BAO Label>  (212) 
nan

$$$$

     RDKit          2D

 12 13  0  0  0  0  0  0  0  0999 V2000
    3.9786   -1.2990    0.0000 C   0  0  0  0  0  0  0  0  0  0  0  0
    3.2286   -0.0000    0.0000 C   0  0  0  0  0  0  0  0  0  0  0  0
    1.7286    0.0000    0.0000 C   0  0  0  0  0  0  0  0  0  0  0  0
    1.0777    1.3515    0.0000 O   0  0  0  0  0  0  0  0  0  0  0  0
   -0.3846    1.6852    0.0000 C   0  0  0  0  0  0  0  0  0  0  0  0
   -1.5574    0.7500    0.0000 C   0  0  0  0  0  0  0  0  0  0  0  0
   -1.5574   -0.7500    0.0000 C   0  0  0  0  0  0  0  0  0  0  0  0
   -0.3846   -1.6852    0.0000 C   0  0  0  0  0  0  0  0  0  0  0  0
    1.0777   -1.3515    0.0000 O   0  0  0  0  0  0  0  0  0  0  0  0
   -2.8564    0.0000    0.0000 C   0  0  0  0  0  0  0  0  0  0  0  0
   -3.8206   -1.1491    0.0000 Cl  0  0  0  0  0  0  0  0  0  0  0  0
   -3.8206    1.1491    0.0000 Cl  0  0  0  0  0  0  0  0  0  0  0  0
  1  2  1  0
  2  3  1  0
  3  4  1  0
  4  5  1  0
  6  5  1  6
  6  7  1  0
  7  8  1  6
  8  9  1  0
  7 10  1  0
 10 11  1  0
 10 12  1  0
  9  3  1  0
 10  6  1  0
M  END
>  <Compound_ID>  (213) 
C39101520

>  <Active>  (213) 
0.0

>  <Smiles>  (213) 
CCC1OC[C@@H]2[C@H](CO1)C2(Cl)Cl

>  <canonical_smi>  (213) 
CCC1OC[C@@H]2[C@H](CO1)C2(Cl)Cl

>  <Set>  (213) 
G2 inactive

>  <Set_type>  (213) 
Train

>  <MW>  (213) 
211.09

>  <HBD>  (213) 
0

>  <HBA>  (213) 
2

>  <NRB>  (213) 
1

>  <NR>  (213) 
2

>  <NAR>  (213) 
0

>  <PSA>  (213) 
18.46

>  <Standard Type>  (213) 
nan

>  <Standard Relation>  (213) 
nan

>  <Standard Units>  (213) 
nan

>  <Standard Value>  (213) 
nan

>  <Assay ChEMBL ID>  (213) 
nan

>  <Assay Description>  (213) 
nan

>  <BAO Label>  (213) 
nan

$$$$

     RDKit          2D

 15 16  0  0  0  0  0  0  0  0999 V2000
    1.6910   -7.9557    0.0000 N   0  0  0  0  0  0  0  0  0  0  0  0
    1.8478   -6.4639    0.0000 C   0  0  0  0  0  0  0  0  0  0  0  0
    2.0046   -4.9721    0.0000 C   0  0  0  0  0  0  0  0  0  0  0  0
    3.3037   -4.2221    0.0000 C   0  0  0  0  0  0  0  0  0  0  0  0
    2.9918   -2.7549    0.0000 C   0  0  0  0  0  0  0  0  0  0  0  0
    1.5000   -2.5981    0.0000 C   0  0  0  0  0  0  0  0  0  0  0  0
    0.7500   -1.2990    0.0000 C   0  0  0  0  0  0  0  0  0  0  0  0
    1.5000    0.0000    0.0000 C   0  0  0  0  0  0  0  0  0  0  0  0
    0.7500    1.2990    0.0000 C   0  0  0  0  0  0  0  0  0  0  0  0
   -0.7500    1.2990    0.0000 C   0  0  0  0  0  0  0  0  0  0  0  0
   -1.5000    0.0000    0.0000 C   0  0  0  0  0  0  0  0  0  0  0  0
   -0.7500   -1.2990    0.0000 C   0  0  0  0  0  0  0  0  0  0  0  0
   -1.5000   -2.5981    0.0000 C   0  0  0  0  0  0  0  0  0  0  0  0
   -3.0000   -2.5981    0.0000 O   0  0  0  0  0  0  0  0  0  0  0  0
    0.8899   -3.9684    0.0000 S   0  0  0  0  0  0  0  0  0  0  0  0
  1  2  3  0
  2  3  1  0
  3  4  2  0
  4  5  1  0
  5  6  2  0
  6  7  1  0
  7  8  2  0
  8  9  1  0
  9 10  2  0
 10 11  1  0
 11 12  2  0
 12 13  1  0
 13 14  2  0
  6 15  1  0
 15  3  1  0
 12  7  1  0
M  END
>  <Compound_ID>  (214) 
C50266946

>  <Active>  (214) 
0.0

>  <Smiles>  (214) 
N#Cc1ccc(-c2ccccc2C=O)s1

>  <canonical_smi>  (214) 
N#Cc1ccc(-c2ccccc2C=O)s1

>  <Set>  (214) 
G2 inactive

>  <Set_type>  (214) 
Train

>  <MW>  (214) 
213.26

>  <HBD>  (214) 
0

>  <HBA>  (214) 
2

>  <NRB>  (214) 
2

>  <NR>  (214) 
2

>  <NAR>  (214) 
2

>  <PSA>  (214) 
40.86

>  <Standard Type>  (214) 
nan

>  <Standard Relation>  (214) 
nan

>  <Standard Units>  (214) 
nan

>  <Standard Value>  (214) 
nan

>  <Assay ChEMBL ID>  (214) 
nan

>  <Assay Description>  (214) 
nan

>  <BAO Label>  (214) 
nan

$$$$

     RDKit          2D

 15 16  0  0  0  0  0  0  0  0999 V2000
    5.2500   -1.2990    0.0000 C   0  0  0  0  0  0  0  0  0  0  0  0
    3.7500   -1.2990    0.0000 C   0  0  0  0  0  0  0  0  0  0  0  0
    3.0000    0.0000    0.0000 O   0  0  0  0  0  0  0  0  0  0  0  0
    1.5000    0.0000    0.0000 C   0  0  0  0  0  0  0  0  0  0  0  0
    0.7500   -1.2990    0.0000 C   0  0  0  0  0  0  0  0  0  0  0  0
   -0.7500   -1.2990    0.0000 C   0  0  0  0  0  0  0  0  0  0  0  0
   -1.5000   -2.5981    0.0000 C   0  0  0  0  0  0  0  0  0  0  0  0
   -3.0000   -2.5981    0.0000 C   0  0  0  0  0  0  0  0  0  0  0  0
   -3.7500   -1.2990    0.0000 C   0  0  0  0  0  0  0  0  0  0  0  0
   -3.0000    0.0000    0.0000 C   0  0  0  0  0  0  0  0  0  0  0  0
   -3.7500    1.2990    0.0000 O   0  0  0  0  0  0  0  0  0  0  0  0
   -1.5000    0.0000    0.0000 C   0  0  0  0  0  0  0  0  0  0  0  0
   -2.2500    1.2990    0.0000 C   0  0  0  0  0  0  0  0  0  0  0  0
   -0.7500    1.2990    0.0000 C   0  0  0  0  0  0  0  0  0  0  0  0
    0.7500    1.2990    0.0000 C   0  0  0  0  0  0  0  0  0  0  0  0
  1  2  1  0
  2  3  1  0
  3  4  1  0
  4  5  2  0
  5  6  1  0
  6  7  2  0
  7  8  1  0
  8  9  1  0
  9 10  1  0
 10 11  2  0
 10 12  1  0
 12 13  1  6
 12 14  1  0
 14 15  1  0
 15  4  1  0
 12  6  1  0
M  END
>  <Compound_ID>  (215) 
C62721010

>  <Active>  (215) 
0.0

>  <Smiles>  (215) 
CCOC1=CC2=CCCC(=O)[C@@]2(C)CC1

>  <canonical_smi>  (215) 
CCOC1=CC2=CCCC(=O)[C@@]2(C)CC1

>  <Set>  (215) 
G2 inactive

>  <Set_type>  (215) 
Train

>  <MW>  (215) 
206.28

>  <HBD>  (215) 
0

>  <HBA>  (215) 
2

>  <NRB>  (215) 
2

>  <NR>  (215) 
2

>  <NAR>  (215) 
0

>  <PSA>  (215) 
26.3

>  <Standard Type>  (215) 
nan

>  <Standard Relation>  (215) 
nan

>  <Standard Units>  (215) 
nan

>  <Standard Value>  (215) 
nan

>  <Assay ChEMBL ID>  (215) 
nan

>  <Assay Description>  (215) 
nan

>  <BAO Label>  (215) 
nan

$$$$

     RDKit          2D

 26 28  0  0  0  0  0  0  0  0999 V2000
    3.3802    9.0132    0.0000 C   0  0  0  0  0  0  0  0  0  0  0  0
    3.0684    7.5459    0.0000 C   0  0  0  0  0  0  0  0  0  0  0  0
    4.1831    6.5422    0.0000 C   0  0  0  0  0  0  0  0  0  0  0  0
    1.6418    7.0824    0.0000 C   0  0  0  0  0  0  0  0  0  0  0  0
    1.3299    5.6152    0.0000 N   0  0  0  0  0  0  0  0  0  0  0  0
   -0.0967    5.1517    0.0000 C   0  0  0  0  0  0  0  0  0  0  0  0
   -1.2114    6.1554    0.0000 O   0  0  0  0  0  0  0  0  0  0  0  0
   -0.4086    3.6844    0.0000 C   0  0  0  0  0  0  0  0  0  0  0  0
    0.7062    2.6807    0.0000 O   0  0  0  0  0  0  0  0  0  0  0  0
    0.3943    1.2135    0.0000 C   0  0  0  0  0  0  0  0  0  0  0  0
    1.2760    0.0000    0.0000 O   0  0  0  0  0  0  0  0  0  0  0  0
    0.3943   -1.2135    0.0000 C   0  0  0  0  0  0  0  0  0  0  0  0
    1.6933   -1.9635    0.0000 C   0  0  0  0  0  0  0  0  0  0  0  0
   -0.2158   -2.5838    0.0000 C   0  0  0  0  0  0  0  0  0  0  0  0
   -1.0323   -0.7500    0.0000 O   0  0  0  0  0  0  0  0  0  0  0  0
   -1.0323    0.7500    0.0000 C   0  0  0  0  0  0  0  0  0  0  0  0
   -2.1470    1.7537    0.0000 C   0  0  0  0  0  0  0  0  0  0  0  0
   -3.6388    1.5969    0.0000 O   0  0  0  0  0  0  0  0  0  0  0  0
   -4.2489    2.9672    0.0000 C   0  0  0  0  0  0  0  0  0  0  0  0
   -5.5479    2.2172    0.0000 C   0  0  0  0  0  0  0  0  0  0  0  0
   -5.1306    4.1807    0.0000 C   0  0  0  0  0  0  0  0  0  0  0  0
   -3.1342    3.9709    0.0000 O   0  0  0  0  0  0  0  0  0  0  0  0
   -1.8351    3.2209    0.0000 C   0  0  0  0  0  0  0  0  0  0  0  0
    0.5271    8.0861    0.0000 C   0  0  0  0  0  0  0  0  0  0  0  0
   -0.8995    7.6226    0.0000 O   0  0  0  0  0  0  0  0  0  0  0  0
    0.8389    9.5533    0.0000 O   0  0  0  0  0  1  0  0  0  0  0  0
  1  2  1  0
  2  3  1  0
  2  4  1  0
  4  5  1  6
  5  6  1  0
  6  7  2  0
  8  6  1  6
  8  9  1  0
 10  9  1  1
 10 11  1  0
 11 12  1  0
 12 13  1  0
 12 14  1  0
 12 15  1  0
 16 15  1  6
 16 17  1  0
 17 18  1  1
 18 19  1  0
 19 20  1  0
 19 21  1  0
 19 22  1  0
 23 22  1  6
  4 24  1  0
 24 25  2  0
 24 26  1  0
 23  8  1  0
 16 10  1  0
 23 17  1  0
M  CHG  1  26  -1
M  END
>  <Compound_ID>  (216) 
C04264725

>  <Active>  (216) 
0.0

>  <Smiles>  (216) 
CC(C)[C@H](NC(=O)[C@@H]1O[C@H]2OC(C)(C)O[C@@H]2[C@H]2OC(C)(C)O[C@@H]21)C(=O)[O-]

>  <canonical_smi>  (216) 
CC(C)[C@H](NC(=O)[C@@H]1O[C@H]2OC(C)(C)O[C@@H]2[C@H]2OC(C)(C)O[C@@H]21)C(=O)[O-]

>  <Set>  (216) 
G2 inactive

>  <Set_type>  (216) 
Train

>  <MW>  (216) 
372.39

>  <HBD>  (216) 
1

>  <HBA>  (216) 
8

>  <NRB>  (216) 
4

>  <NR>  (216) 
3

>  <NAR>  (216) 
0

>  <PSA>  (216) 
115.38

>  <Standard Type>  (216) 
nan

>  <Standard Relation>  (216) 
nan

>  <Standard Units>  (216) 
nan

>  <Standard Value>  (216) 
nan

>  <Assay ChEMBL ID>  (216) 
nan

>  <Assay Description>  (216) 
nan

>  <BAO Label>  (216) 
nan

$$$$

     RDKit          2D

 23 24  0  0  0  0  0  0  0  0999 V2000
    3.7500   -1.2990    0.0000 C   0  0  0  0  0  0  0  0  0  0  0  0
    3.0000    0.0000    0.0000 S   0  0  0  0  0  0  0  0  0  0  0  0
    1.5000    0.0000    0.0000 C   0  0  0  0  0  0  0  0  0  0  0  0
    0.7500   -1.2990    0.0000 C   0  0  0  0  0  0  0  0  0  0  0  0
   -0.7500   -1.2990    0.0000 C   0  0  0  0  0  0  0  0  0  0  0  0
   -1.5000    0.0000    0.0000 C   0  0  0  0  0  0  0  0  0  0  0  0
   -3.0000    0.0000    0.0000 C   0  0  0  0  0  0  0  0  0  0  0  0
   -3.7500    1.2990    0.0000 N   0  0  0  0  0  0  0  0  0  0  0  0
   -5.2500    1.2990    0.0000 C   0  0  0  0  0  0  0  0  0  0  0  0
   -3.0000    2.5981    0.0000 C   0  0  0  0  0  0  0  0  0  0  0  0
   -1.5000    2.5981    0.0000 O   0  0  0  0  0  0  0  0  0  0  0  0
   -3.7500    3.8971    0.0000 C   0  0  0  0  0  0  0  0  0  0  0  0
   -3.0000    5.1962    0.0000 S   0  0  0  0  0  0  0  0  0  0  0  0
   -3.7500    6.4952    0.0000 C   0  0  0  0  0  0  0  0  0  0  0  0
   -3.0000    7.7942    0.0000 N   0  0  0  0  0  0  0  0  0  0  0  0
   -3.7500    9.0933    0.0000 C   0  0  0  0  0  0  0  0  0  0  0  0
   -3.0000   10.3923    0.0000 N   0  0  0  0  0  0  0  0  0  0  0  0
   -5.2500    9.0933    0.0000 N   0  0  0  0  0  0  0  0  0  0  0  0
   -6.0000    7.7942    0.0000 C   0  0  0  0  0  0  0  0  0  0  0  0
   -7.5000    7.7942    0.0000 N   0  0  0  0  0  0  0  0  0  0  0  0
   -5.2500    6.4952    0.0000 N   0  0  0  0  0  0  0  0  0  0  0  0
   -0.7500    1.2990    0.0000 C   0  0  0  0  0  0  0  0  0  0  0  0
    0.7500    1.2990    0.0000 C   0  0  0  0  0  0  0  0  0  0  0  0
  1  2  1  0
  2  3  1  0
  3  4  2  0
  4  5  1  0
  5  6  2  0
  6  7  1  0
  7  8  1  0
  8  9  1  0
  8 10  1  0
 10 11  2  0
 10 12  1  0
 12 13  1  0
 13 14  1  0
 14 15  2  0
 15 16  1  0
 16 17  1  0
 16 18  2  0
 18 19  1  0
 19 20  1  0
 19 21  2  0
  6 22  1  0
 22 23  2  0
 23  3  1  0
 21 14  1  0
M  END
>  <Compound_ID>  (217) 
C07020693

>  <Active>  (217) 
0.0

>  <Smiles>  (217) 
CSc1ccc(CN(C)C(=O)CSc2nc(N)nc(N)n2)cc1

>  <canonical_smi>  (217) 
CSc1ccc(CN(C)C(=O)CSc2nc(N)nc(N)n2)cc1

>  <Set>  (217) 
G2 inactive

>  <Set_type>  (217) 
Train

>  <MW>  (217) 
350.47

>  <HBD>  (217) 
2

>  <HBA>  (217) 
8

>  <NRB>  (217) 
6

>  <NR>  (217) 
2

>  <NAR>  (217) 
2

>  <PSA>  (217) 
111.02

>  <Standard Type>  (217) 
nan

>  <Standard Relation>  (217) 
nan

>  <Standard Units>  (217) 
nan

>  <Standard Value>  (217) 
nan

>  <Assay ChEMBL ID>  (217) 
nan

>  <Assay Description>  (217) 
nan

>  <BAO Label>  (217) 
nan

$$$$

     RDKit          2D

 26 28  0  0  0  0  0  0  0  0999 V2000
    3.7500    1.2990    0.0000 O   0  0  0  0  0  0  0  0  0  0  0  0
    3.0000    0.0000    0.0000 C   0  0  0  0  0  0  0  0  0  0  0  0
    3.7500   -1.2990    0.0000 O   0  0  0  0  0  1  0  0  0  0  0  0
    1.5000    0.0000    0.0000 C   0  0  0  0  0  0  0  0  0  0  0  0
    0.7500   -1.2990    0.0000 C   0  0  0  0  0  0  0  0  0  0  0  0
    1.5000   -2.5981    0.0000 C   0  0  0  0  0  0  0  0  0  0  0  0
    0.7500   -3.8971    0.0000 N   0  0  0  0  0  4  0  0  0  0  0  0
   -0.7500   -3.8971    0.0000 C   0  0  0  0  0  0  0  0  0  0  0  0
   -1.5000   -5.1962    0.0000 C   0  0  0  0  0  0  0  0  0  0  0  0
   -0.7500   -6.4952    0.0000 C   0  0  0  0  0  0  0  0  0  0  0  0
    0.7500   -6.4952    0.0000 C   0  0  0  0  0  0  0  0  0  0  0  0
    1.5000   -5.1962    0.0000 C   0  0  0  0  0  0  0  0  0  0  0  0
   -0.7500   -1.2990    0.0000 C   0  0  0  0  0  0  0  0  0  0  0  0
   -1.5000   -2.5981    0.0000 O   0  0  0  0  0  0  0  0  0  0  0  0
   -1.5000    0.0000    0.0000 C   0  0  0  0  0  0  0  0  0  0  0  0
   -3.0000    0.0000    0.0000 O   0  0  0  0  0  0  0  0  0  0  0  0
   -0.7500    1.2990    0.0000 C   0  0  0  0  0  0  0  0  0  0  0  0
   -1.5000    2.5981    0.0000 O   0  0  0  0  0  0  0  0  0  0  0  0
    0.7500    1.2990    0.0000 C   0  0  0  0  0  0  0  0  0  0  0  0
    1.5000    2.5981    0.0000 C   0  0  0  0  0  0  0  0  0  0  0  0
    0.7500    3.8971    0.0000 N   0  0  0  0  0  4  0  0  0  0  0  0
   -0.7500    3.8971    0.0000 C   0  0  0  0  0  0  0  0  0  0  0  0
   -1.5000    5.1962    0.0000 C   0  0  0  0  0  0  0  0  0  0  0  0
   -0.7500    6.4952    0.0000 C   0  0  0  0  0  0  0  0  0  0  0  0
    0.7500    6.4952    0.0000 C   0  0  0  0  0  0  0  0  0  0  0  0
    1.5000    5.1962    0.0000 C   0  0  0  0  0  0  0  0  0  0  0  0
  1  2  2  0
  2  3  1  0
  2  4  1  0
  4  5  2  0
  5  6  1  0
  6  7  1  0
  7  8  1  0
  8  9  1  0
  9 10  1  0
 10 11  1  0
 11 12  1  0
  5 13  1  0
 13 14  1  0
 13 15  2  0
 15 16  1  0
 15 17  1  0
 17 18  1  0
 17 19  2  0
 19 20  1  0
 20 21  1  0
 21 22  1  0
 22 23  1  0
 23 24  1  0
 24 25  1  0
 25 26  1  0
 19  4  1  0
 26 21  1  0
 12  7  1  0
M  CHG  3   3  -1   7   1  21   1
M  END
>  <Compound_ID>  (218) 
C01603622

>  <Active>  (218) 
0.0

>  <Smiles>  (218) 
O=C([O-])c1c(C[NH+]2CCCCC2)c(O)c(O)c(O)c1C[NH+]1CCCCC1

>  <canonical_smi>  (218) 
O=C([O-])c1c(C[NH+]2CCCCC2)c(O)c(O)c(O)c1C[NH+]1CCCCC1

>  <Set>  (218) 
G2 inactive

>  <Set_type>  (218) 
Train

>  <MW>  (218) 
365.45

>  <HBD>  (218) 
5

>  <HBA>  (218) 
5

>  <NRB>  (218) 
5

>  <NR>  (218) 
3

>  <NAR>  (218) 
1

>  <PSA>  (218) 
109.7

>  <Standard Type>  (218) 
nan

>  <Standard Relation>  (218) 
nan

>  <Standard Units>  (218) 
nan

>  <Standard Value>  (218) 
nan

>  <Assay ChEMBL ID>  (218) 
nan

>  <Assay Description>  (218) 
nan

>  <BAO Label>  (218) 
nan

$$$$

     RDKit          2D

 21 24  0  0  0  0  0  0  0  0999 V2000
    3.7500   -1.2990    0.0000 C   0  0  0  0  0  0  0  0  0  0  0  0
    3.0000    0.0000    0.0000 C   0  0  0  0  0  0  0  0  0  0  0  0
    1.5000    0.0000    0.0000 N   0  0  0  0  0  0  0  0  0  0  0  0
    0.7500   -1.2990    0.0000 C   0  0  0  0  0  0  0  0  0  0  0  0
   -0.7500   -1.2990    0.0000 N   0  0  0  0  0  0  0  0  0  0  0  0
   -1.7537   -2.4138    0.0000 C   0  0  0  0  0  0  0  0  0  0  0  0
   -1.4418   -3.8810    0.0000 O   0  0  0  0  0  0  0  0  0  0  0  0
   -3.1240   -1.8037    0.0000 N   0  0  0  0  0  0  0  0  0  0  0  0
   -2.9672   -0.3119    0.0000 C   0  0  0  0  0  0  0  0  0  0  0  0
   -1.5000    0.0000    0.0000 C   0  0  0  0  0  0  0  0  0  0  0  0
   -0.7500    1.2990    0.0000 N   0  0  0  0  0  0  0  0  0  0  0  0
    0.7500    1.2990    0.0000 C   0  0  0  0  0  0  0  0  0  0  0  0
   -1.9635    2.1807    0.0000 C   0  0  0  0  0  0  0  0  0  0  0  0
   -1.9635    3.6807    0.0000 O   0  0  0  0  0  0  0  0  0  0  0  0
   -3.1771    1.2990    0.0000 N   0  0  0  0  0  0  0  0  0  0  0  0
   -4.6036    1.7626    0.0000 C   0  0  0  0  0  0  0  0  0  0  0  0
   -4.9155    3.2298    0.0000 C   0  0  0  0  0  0  0  0  0  0  0  0
   -6.3421    3.6933    0.0000 C   0  0  0  0  0  0  0  0  0  0  0  0
   -7.4568    2.6896    0.0000 C   0  0  0  0  0  0  0  0  0  0  0  0
   -7.1449    1.2224    0.0000 C   0  0  0  0  0  0  0  0  0  0  0  0
   -5.7184    0.7589    0.0000 C   0  0  0  0  0  0  0  0  0  0  0  0
  1  2  1  0
  2  3  1  0
  3  4  1  0
  4  5  1  0
  5  6  1  0
  6  7  2  0
  6  8  1  0
  9  8  1  1
  9 10  1  0
 10 11  1  6
 11 12  1  0
 11 13  1  0
 13 14  2  0
 13 15  1  0
 15 16  1  0
 16 17  1  0
 17 18  1  0
 18 19  1  0
 19 20  1  0
 20 21  1  0
 12  3  1  0
 21 16  1  0
 10  5  1  0
 15  9  1  0
M  END
>  <Compound_ID>  (219) 
C12411966

>  <Active>  (219) 
0.0

>  <Smiles>  (219) 
CCN1CN2C(=O)N[C@@H]3[C@@H]2N(C1)C(=O)N3C1CCCCC1

>  <canonical_smi>  (219) 
CCN1CN2C(=O)N[C@@H]3[C@@H]2N(C1)C(=O)N3C1CCCCC1

>  <Set>  (219) 
G2 inactive

>  <Set_type>  (219) 
Train

>  <MW>  (219) 
293.37

>  <HBD>  (219) 
1

>  <HBA>  (219) 
3

>  <NRB>  (219) 
2

>  <NR>  (219) 
4

>  <NAR>  (219) 
0

>  <PSA>  (219) 
59.13

>  <Standard Type>  (219) 
nan

>  <Standard Relation>  (219) 
nan

>  <Standard Units>  (219) 
nan

>  <Standard Value>  (219) 
nan

>  <Assay ChEMBL ID>  (219) 
nan

>  <Assay Description>  (219) 
nan

>  <BAO Label>  (219) 
nan

$$$$

     RDKit          2D

 21 22  0  0  0  0  0  0  0  0999 V2000
    3.0000    0.0000    0.0000 C   0  0  0  0  0  0  0  0  0  0  0  0
    1.5000    0.0000    0.0000 C   0  0  0  0  0  0  0  0  0  0  0  0
    0.7500   -1.2990    0.0000 C   0  0  0  0  0  0  0  0  0  0  0  0
   -0.7500   -1.2990    0.0000 C   0  0  0  0  0  0  0  0  0  0  0  0
   -1.5000   -2.5981    0.0000 C   0  0  0  0  0  0  0  0  0  0  0  0
   -1.5000    0.0000    0.0000 C   0  0  0  0  0  0  0  0  0  0  0  0
   -3.0000    0.0000    0.0000 S   0  0  0  0  0  0  0  0  0  0  0  0
   -3.0000    1.5000    0.0000 O   0  0  0  0  0  0  0  0  0  0  0  0
   -3.0000   -1.5000    0.0000 O   0  0  0  0  0  0  0  0  0  0  0  0
   -4.5000    0.0000    0.0000 N   0  0  0  0  0  0  0  0  0  0  0  0
   -5.3817   -1.2135    0.0000 C   0  0  0  0  0  0  0  0  0  0  0  0
   -4.9182   -2.6401    0.0000 N   0  0  0  0  0  4  0  0  0  0  0  0
   -3.4509   -2.9520    0.0000 O   0  0  0  0  0  0  0  0  0  0  0  0
   -5.9218   -3.7548    0.0000 O   0  0  0  0  0  1  0  0  0  0  0  0
   -6.8083   -0.7500    0.0000 C   0  0  0  0  0  0  0  0  0  0  0  0
   -6.8083    0.7500    0.0000 N   0  0  0  0  0  0  0  0  0  0  0  0
   -5.3817    1.2135    0.0000 C   0  0  0  0  0  0  0  0  0  0  0  0
   -4.9182    2.6401    0.0000 C   0  0  0  0  0  0  0  0  0  0  0  0
   -0.7500    1.2990    0.0000 C   0  0  0  0  0  0  0  0  0  0  0  0
    0.7500    1.2990    0.0000 C   0  0  0  0  0  0  0  0  0  0  0  0
    1.5000    2.5981    0.0000 C   0  0  0  0  0  0  0  0  0  0  0  0
  1  2  1  0
  2  3  2  0
  3  4  1  0
  4  5  1  0
  4  6  2  0
  6  7  1  0
  7  8  2  0
  7  9  2  0
  7 10  1  0
 10 11  1  0
 11 12  1  0
 12 13  2  0
 12 14  1  0
 11 15  2  0
 15 16  1  0
 16 17  2  0
 17 18  1  0
  6 19  1  0
 19 20  2  0
 20 21  1  0
 20  2  1  0
 17 10  1  0
M  CHG  2  12   1  14  -1
M  END
>  <Compound_ID>  (220) 
C00795293

>  <Active>  (220) 
0.0

>  <Smiles>  (220) 
Cc1cc(C)c(S(=O)(=O)n2c([N+](=O)[O-])cnc2C)cc1C

>  <canonical_smi>  (220) 
Cc1cc(C)c(S(=O)(=O)n2c([N+](=O)[O-])cnc2C)cc1C

>  <Set>  (220) 
G2 inactive

>  <Set_type>  (220) 
Train

>  <MW>  (220) 
309.35

>  <HBD>  (220) 
0

>  <HBA>  (220) 
5

>  <NRB>  (220) 
3

>  <NR>  (220) 
2

>  <NAR>  (220) 
2

>  <PSA>  (220) 
95.1

>  <Standard Type>  (220) 
nan

>  <Standard Relation>  (220) 
nan

>  <Standard Units>  (220) 
nan

>  <Standard Value>  (220) 
nan

>  <Assay ChEMBL ID>  (220) 
nan

>  <Assay Description>  (220) 
nan

>  <BAO Label>  (220) 
nan

$$$$

     RDKit          2D

 20 22  0  0  0  0  0  0  0  0999 V2000
    3.0000    0.0000    0.0000 C   0  0  0  0  0  0  0  0  0  0  0  0
    1.5000    0.0000    0.0000 C   0  0  0  0  0  0  0  0  0  0  0  0
    0.7500   -1.2990    0.0000 C   0  0  0  0  0  0  0  0  0  0  0  0
   -0.7500   -1.2990    0.0000 C   0  0  0  0  0  0  0  0  0  0  0  0
   -1.5000    0.0000    0.0000 C   0  0  0  0  0  0  0  0  0  0  0  0
   -3.0000    0.0000    0.0000 O   0  0  0  0  0  0  0  0  0  0  0  0
   -3.7500    1.2990    0.0000 C   0  0  0  0  0  0  0  0  0  0  0  0
   -3.0000    2.5981    0.0000 N   0  0  0  0  0  0  0  0  0  0  0  0
   -3.7500    3.8971    0.0000 C   0  0  0  0  0  0  0  0  0  0  0  0
   -3.0000    5.1962    0.0000 Cl  0  0  0  0  0  0  0  0  0  0  0  0
   -5.2500    3.8971    0.0000 N   0  0  0  0  0  0  0  0  0  0  0  0
   -6.0000    2.5981    0.0000 C   0  0  0  0  0  0  0  0  0  0  0  0
   -7.5000    2.5981    0.0000 N   0  0  0  0  0  0  0  0  0  0  0  0
   -8.3817    1.3846    0.0000 C   0  0  0  0  0  0  0  0  0  0  0  0
   -9.8083    1.8481    0.0000 N   0  0  0  0  0  0  0  0  0  0  0  0
   -9.8083    3.3481    0.0000 C   0  0  0  0  0  0  0  0  0  0  0  0
   -8.3817    3.8116    0.0000 N   0  0  0  0  0  0  0  0  0  0  0  0
   -5.2500    1.2990    0.0000 N   0  0  0  0  0  0  0  0  0  0  0  0
   -0.7500    1.2990    0.0000 C   0  0  0  0  0  0  0  0  0  0  0  0
    0.7500    1.2990    0.0000 C   0  0  0  0  0  0  0  0  0  0  0  0
  1  2  1  0
  2  3  2  0
  3  4  1  0
  4  5  2  0
  5  6  1  0
  6  7  1  0
  7  8  2  0
  8  9  1  0
  9 10  1  0
  9 11  2  0
 11 12  1  0
 12 13  1  0
 13 14  1  0
 14 15  2  0
 15 16  1  0
 16 17  2  0
 12 18  2  0
  5 19  1  0
 19 20  2  0
 20  2  1  0
 18  7  1  0
 17 13  1  0
M  END
>  <Compound_ID>  (221) 
C61520755

>  <Active>  (221) 
0.0

>  <Smiles>  (221) 
Cc1ccc(Oc2nc(Cl)nc(-n3cncn3)n2)cc1

>  <canonical_smi>  (221) 
Cc1ccc(Oc2nc(Cl)nc(-n3cncn3)n2)cc1

>  <Set>  (221) 
G2 inactive

>  <Set_type>  (221) 
Train

>  <MW>  (221) 
288.7

>  <HBD>  (221) 
0

>  <HBA>  (221) 
6

>  <NRB>  (221) 
3

>  <NR>  (221) 
3

>  <NAR>  (221) 
3

>  <PSA>  (221) 
78.61

>  <Standard Type>  (221) 
nan

>  <Standard Relation>  (221) 
nan

>  <Standard Units>  (221) 
nan

>  <Standard Value>  (221) 
nan

>  <Assay ChEMBL ID>  (221) 
nan

>  <Assay Description>  (221) 
nan

>  <BAO Label>  (221) 
nan

$$$$

     RDKit          2D

 33 36  0  0  0  0  0  0  0  0999 V2000
    3.7500   -1.2990    0.0000 C   0  0  0  0  0  0  0  0  0  0  0  0
    3.0000    0.0000    0.0000 C   0  0  0  0  0  0  0  0  0  0  0  0
    3.7500    1.2990    0.0000 O   0  0  0  0  0  0  0  0  0  0  0  0
    1.5000    0.0000    0.0000 C   0  0  0  0  0  0  0  0  0  0  0  0
    0.7500   -1.2990    0.0000 C   0  0  0  0  0  0  0  0  0  0  0  0
   -0.7500   -1.2990    0.0000 C   0  0  0  0  0  0  0  0  0  0  0  0
   -1.5000    0.0000    0.0000 C   0  0  0  0  0  0  0  0  0  0  0  0
   -3.0000    0.0000    0.0000 C   0  0  0  0  0  0  0  0  0  0  0  0
   -3.8817   -1.2135    0.0000 C   0  0  0  0  0  0  0  0  0  0  0  0
   -5.3083   -0.7500    0.0000 C   0  0  0  0  0  0  0  0  0  0  0  0
   -5.3083    0.7500    0.0000 C   0  0  0  0  0  0  0  0  0  0  0  0
   -6.5218    1.6317    0.0000 C   0  0  0  0  0  0  0  0  0  0  0  0
   -6.3650    3.1235    0.0000 N   0  0  0  0  0  0  0  0  0  0  0  0
   -7.5785    4.0051    0.0000 C   0  0  0  0  0  0  0  0  0  0  0  0
   -7.4217    5.4969    0.0000 O   0  0  0  0  0  0  0  0  0  0  0  0
   -8.9488    3.3950    0.0000 N   0  0  0  0  0  0  0  0  0  0  0  0
   -9.1056    1.9033    0.0000 C   0  0  0  0  0  0  0  0  0  0  0  0
  -10.5475    2.3167    0.0000 O   0  0  0  0  0  0  0  0  0  0  0  0
   -9.7632    0.5551    0.0000 C   0  0  0  0  0  0  0  0  0  0  0  0
  -10.2756   -0.0556    0.0000 F   0  0  0  0  0  0  0  0  0  0  0  0
   -8.8325   -0.2260    0.0000 F   0  0  0  0  0  0  0  0  0  0  0  0
  -11.1114    1.2126    0.0000 F   0  0  0  0  0  0  0  0  0  0  0  0
   -7.8921    1.0216    0.0000 C   0  0  0  0  0  0  0  0  0  0  0  0
   -8.0489   -0.4702    0.0000 C   0  0  0  0  0  0  0  0  0  0  0  0
   -6.8354   -1.3519    0.0000 O   0  0  0  0  0  0  0  0  0  0  0  0
   -9.4192   -1.0803    0.0000 C   0  0  0  0  0  0  0  0  0  0  0  0
   -9.7311   -2.5475    0.0000 C   0  0  0  0  0  0  0  0  0  0  0  0
  -11.2229   -2.7043    0.0000 C   0  0  0  0  0  0  0  0  0  0  0  0
  -11.8330   -1.3340    0.0000 C   0  0  0  0  0  0  0  0  0  0  0  0
  -10.7183   -0.3303    0.0000 S   0  0  0  0  0  0  0  0  0  0  0  0
   -3.8817    1.2135    0.0000 O   0  0  0  0  0  0  0  0  0  0  0  0
   -0.7500    1.2990    0.0000 C   0  0  0  0  0  0  0  0  0  0  0  0
    0.7500    1.2990    0.0000 C   0  0  0  0  0  0  0  0  0  0  0  0
  1  2  1  0
  2  3  2  0
  2  4  1  0
  4  5  2  0
  5  6  1  0
  6  7  2  0
  7  8  1  0
  8  9  2  0
  9 10  1  0
 10 11  2  0
 12 11  1  1
 12 13  1  0
 13 14  1  0
 14 15  2  0
 14 16  1  0
 16 17  1  0
 17 18  1  1
 17 19  1  0
 19 20  1  0
 19 21  1  0
 19 22  1  0
 17 23  1  0
 23 24  1  1
 24 25  2  0
 24 26  1  0
 26 27  2  0
 27 28  1  0
 28 29  2  0
 29 30  1  0
 11 31  1  0
  7 32  1  0
 32 33  2  0
 33  4  1  0
 31  8  1  0
 23 12  1  0
 30 26  1  0
M  END
>  <Compound_ID>  (222) 
C27664421

>  <Active>  (222) 
0.0

>  <Smiles>  (222) 
CC(=O)c1ccc(-c2ccc([C@@H]3NC(=O)N[C@@](O)(C(F)(F)F)[C@@H]3C(=O)c3cccs3)o2)cc1

>  <canonical_smi>  (222) 
CC(=O)c1ccc(-c2ccc([C@@H]3NC(=O)N[C@@](O)(C(F)(F)F)[C@@H]3C(=O)c3cccs3)o2)cc1

>  <Set>  (222) 
G2 inactive

>  <Set_type>  (222) 
Train

>  <MW>  (222) 
478.45

>  <HBD>  (222) 
3

>  <HBA>  (222) 
5

>  <NRB>  (222) 
5

>  <NR>  (222) 
4

>  <NAR>  (222) 
3

>  <PSA>  (222) 
108.64

>  <Standard Type>  (222) 
nan

>  <Standard Relation>  (222) 
nan

>  <Standard Units>  (222) 
nan

>  <Standard Value>  (222) 
nan

>  <Assay ChEMBL ID>  (222) 
nan

>  <Assay Description>  (222) 
nan

>  <BAO Label>  (222) 
nan

$$$$

     RDKit          2D

 37 40  0  0  0  0  0  0  0  0999 V2000
   -8.2500   -9.0933    0.0000 C   0  0  0  0  0  0  0  0  0  0  0  0
   -7.5000   -7.7942    0.0000 C   0  0  0  0  0  0  0  0  0  0  0  0
   -8.2500   -6.4952    0.0000 O   0  0  0  0  0  0  0  0  0  0  0  0
   -6.0000   -7.7942    0.0000 O   0  0  0  0  0  0  0  0  0  0  0  0
   -5.2500   -6.4952    0.0000 C   0  0  0  0  0  0  0  0  0  0  0  0
   -3.7500   -6.4952    0.0000 C   0  0  0  0  0  0  0  0  0  0  0  0
   -3.0000   -7.7942    0.0000 O   0  0  0  0  0  0  0  0  0  0  0  0
   -3.0000   -5.1962    0.0000 C   0  0  0  0  0  0  0  0  0  0  0  0
   -1.5000   -5.1962    0.0000 O   0  0  0  0  0  0  0  0  0  0  0  0
   -0.7500   -3.8971    0.0000 C   0  0  0  0  0  0  0  0  0  0  0  0
    0.7500   -3.8971    0.0000 C   0  0  0  0  0  0  0  0  0  0  0  0
    1.5000   -5.1962    0.0000 C   0  0  0  0  0  0  0  0  0  0  0  0
    0.7500   -6.4952    0.0000 C   0  0  0  0  0  0  0  0  0  0  0  0
    1.5000   -7.7942    0.0000 C   0  0  0  0  0  0  0  0  0  0  0  0
    3.0000   -7.7942    0.0000 C   0  0  0  0  0  0  0  0  0  0  0  0
    3.7500   -9.0933    0.0000 O   0  0  0  0  0  0  0  0  0  0  0  0
    3.7500   -6.4952    0.0000 C   0  0  0  0  0  0  0  0  0  0  0  0
    3.0000   -5.1962    0.0000 C   0  0  0  0  0  0  0  0  0  0  0  0
    1.5000   -2.5981    0.0000 O   0  0  0  0  0  0  0  0  0  0  0  0
    0.7500   -1.2990    0.0000 C   0  0  0  0  0  0  0  0  0  0  0  0
    1.5000    0.0000    0.0000 C   0  0  0  0  0  0  0  0  0  0  0  0
    0.7500    1.2990    0.0000 C   0  0  0  0  0  0  0  0  0  0  0  0
    1.5000    2.5981    0.0000 O   0  0  0  0  0  0  0  0  0  0  0  0
   -0.7500    1.2990    0.0000 C   0  0  0  0  0  0  0  0  0  0  0  0
   -1.5000    0.0000    0.0000 C   0  0  0  0  0  0  0  0  0  0  0  0
   -3.0000    0.0000    0.0000 O   0  0  0  0  0  0  0  0  0  0  0  0
   -0.7500   -1.2990    0.0000 C   0  0  0  0  0  0  0  0  0  0  0  0
   -1.5000   -2.5981    0.0000 C   0  0  0  0  0  0  0  0  0  0  0  0
   -3.0000   -2.5981    0.0000 O   0  0  0  0  0  0  0  0  0  0  0  0
   -3.7500   -3.8971    0.0000 O   0  0  0  0  0  0  0  0  0  0  0  0
   -5.2500   -3.8971    0.0000 C   0  0  0  0  0  0  0  0  0  0  0  0
   -6.0000   -2.5981    0.0000 C   0  0  0  0  0  0  0  0  0  0  0  0
   -6.0000   -5.1962    0.0000 C   0  0  0  0  0  0  0  0  0  0  0  0
   -7.5000   -5.1962    0.0000 O   0  0  0  0  0  0  0  0  0  0  0  0
   -8.2500   -3.8971    0.0000 C   0  0  0  0  0  0  0  0  0  0  0  0
   -9.7500   -3.8971    0.0000 C   0  0  0  0  0  0  0  0  0  0  0  0
   -7.5000   -2.5981    0.0000 O   0  0  0  0  0  0  0  0  0  0  0  0
  1  2  1  0
  2  3  2  0
  2  4  1  0
  5  4  1  1
  5  6  1  0
  6  7  1  1
  6  8  1  0
  8  9  1  1
  9 10  1  0
 10 11  2  0
 11 12  1  0
 12 13  2  0
 13 14  1  0
 14 15  2  0
 15 16  1  0
 15 17  1  0
 17 18  2  0
 11 19  1  0
 19 20  1  0
 20 21  2  0
 21 22  1  0
 22 23  1  0
 22 24  2  0
 24 25  1  0
 25 26  1  0
 25 27  2  0
 27 28  1  0
 28 29  2  0
  8 30  1  0
 30 31  1  0
 31 32  1  1
 31 33  1  0
 33 34  1  1
 34 35  1  0
 35 36  1  0
 35 37  2  0
 33  5  1  0
 28 10  1  0
 18 12  1  0
 27 20  1  0
M  END
>  <Compound_ID>  (223) 
C34374843

>  <Active>  (223) 
0.0

>  <Smiles>  (223) 
CC(=O)O[C@@H]1[C@H](O)[C@H](Oc2c(-c3ccc(O)cc3)oc3cc(O)cc(O)c3c2=O)O[C@H](C)[C@@H]1OC(C)=O

>  <canonical_smi>  (223) 
CC(=O)O[C@H]1[C@@H](C)O[C@@H](Oc2c(-c3ccc(O)cc3)oc3cc(O)cc(O)c3c2=O)[C@@H](O)[C@H]1OC(C)=O

>  <Set>  (223) 
G2 inactive

>  <Set_type>  (223) 
Train

>  <MW>  (223) 
516.46

>  <HBD>  (223) 
4

>  <HBA>  (223) 
12

>  <NRB>  (223) 
5

>  <NR>  (223) 
4

>  <NAR>  (223) 
3

>  <PSA>  (223) 
182.19

>  <Standard Type>  (223) 
nan

>  <Standard Relation>  (223) 
nan

>  <Standard Units>  (223) 
nan

>  <Standard Value>  (223) 
nan

>  <Assay ChEMBL ID>  (223) 
nan

>  <Assay Description>  (223) 
nan

>  <BAO Label>  (223) 
nan

$$$$

     RDKit          2D

 29 31  0  0  0  0  0  0  0  0999 V2000
    8.7368   -0.2065    0.0000 C   0  0  0  0  0  0  0  0  0  0  0  0
    8.5800    1.2853    0.0000 C   0  0  0  0  0  0  0  0  0  0  0  0
    9.7936    2.1670    0.0000 O   0  0  0  0  0  0  0  0  0  0  0  0
    7.2097    1.8954    0.0000 C   0  0  0  0  0  0  0  0  0  0  0  0
    6.8979    3.3627    0.0000 C   0  0  0  0  0  0  0  0  0  0  0  0
    7.9015    4.4774    0.0000 C   0  0  0  0  0  0  0  0  0  0  0  0
    5.4061    3.5194    0.0000 N   0  0  0  0  0  0  0  0  0  0  0  0
    4.7960    2.1491    0.0000 C   0  0  0  0  0  0  0  0  0  0  0  0
    3.3287    1.8373    0.0000 C   0  0  0  0  0  0  0  0  0  0  0  0
    2.8652    0.4107    0.0000 O   0  0  0  0  0  0  0  0  0  0  0  0
    2.3250    2.9520    0.0000 C   0  0  0  0  0  0  0  0  0  0  0  0
    2.7886    4.3786    0.0000 C   0  0  0  0  0  0  0  0  0  0  0  0
    0.8578    2.6401    0.0000 S   0  0  0  0  0  0  0  0  0  0  0  0
    0.3943    1.2135    0.0000 C   0  0  0  0  0  0  0  0  0  0  0  0
    1.2760    0.0000    0.0000 N   0  0  0  0  0  0  0  0  0  0  0  0
    0.3943   -1.2135    0.0000 N   0  0  0  0  0  0  0  0  0  0  0  0
   -1.0323   -0.7500    0.0000 C   0  0  0  0  0  0  0  0  0  0  0  0
   -2.1470   -1.7537    0.0000 N   0  0  0  0  0  0  0  0  0  0  0  0
   -1.8351   -3.2209    0.0000 N   0  0  0  0  0  0  0  0  0  0  0  0
   -0.4086   -3.6844    0.0000 C   0  0  0  0  0  0  0  0  0  0  0  0
   -0.0967   -5.1517    0.0000 C   0  0  0  0  0  0  0  0  0  0  0  0
   -1.5639   -5.4635    0.0000 C   0  0  0  0  0  0  0  0  0  0  0  0
    1.3705   -4.8398    0.0000 C   0  0  0  0  0  0  0  0  0  0  0  0
    0.2152   -6.6189    0.0000 C   0  0  0  0  0  0  0  0  0  0  0  0
    0.7062   -2.6807    0.0000 C   0  0  0  0  0  0  0  0  0  0  0  0
    2.1328   -3.1443    0.0000 O   0  0  0  0  0  0  0  0  0  0  0  0
   -1.0323    0.7500    0.0000 S   0  0  0  0  0  0  0  0  0  0  0  0
    5.9107    1.1454    0.0000 C   0  0  0  0  0  0  0  0  0  0  0  0
    5.7539   -0.3464    0.0000 C   0  0  0  0  0  0  0  0  0  0  0  0
  1  2  1  0
  2  3  2  0
  2  4  1  0
  4  5  2  0
  5  6  1  0
  5  7  1  0
  7  8  1  0
  8  9  1  0
  9 10  2  0
  9 11  1  0
 11 12  1  1
 11 13  1  0
 14 13  1  1
 14 15  1  0
 15 16  1  0
 16 17  1  0
 17 18  2  0
 18 19  1  0
 19 20  2  0
 20 21  1  0
 21 22  1  0
 21 23  1  0
 21 24  1  0
 20 25  1  0
 25 26  2  0
 17 27  1  0
  8 28  2  0
 28 29  1  0
 28  4  1  0
 27 14  1  0
 25 16  1  0
M  END
>  <Compound_ID>  (224) 
C39738846

>  <Active>  (224) 
0.0

>  <Smiles>  (224) 
CC(=O)c1c(C)[nH]c(C(=O)[C@H](C)S[C@H]2Nn3c(nnc(C(C)(C)C)c3=O)S2)c1C

>  <canonical_smi>  (224) 
CC(=O)c1c(C)[nH]c(C(=O)[C@H](C)S[C@H]2Nn3c(nnc(C(C)(C)C)c3=O)S2)c1C

>  <Set>  (224) 
G2 inactive

>  <Set_type>  (224) 
Train

>  <MW>  (224) 
435.58

>  <HBD>  (224) 
2

>  <HBA>  (224) 
8

>  <NRB>  (224) 
5

>  <NR>  (224) 
3

>  <NAR>  (224) 
2

>  <PSA>  (224) 
109.74

>  <Standard Type>  (224) 
nan

>  <Standard Relation>  (224) 
nan

>  <Standard Units>  (224) 
nan

>  <Standard Value>  (224) 
nan

>  <Assay ChEMBL ID>  (224) 
nan

>  <Assay Description>  (224) 
nan

>  <BAO Label>  (224) 
nan

$$$$

     RDKit          2D

 21 23  0  0  0  0  0  0  0  0999 V2000
    5.2500   -1.2990    0.0000 C   0  0  0  0  0  0  0  0  0  0  0  0
    3.7500   -1.2990    0.0000 C   0  0  0  0  0  0  0  0  0  0  0  0
    3.0000    0.0000    0.0000 C   0  0  0  0  0  0  0  0  0  0  0  0
    1.5000    0.0000    0.0000 C   0  0  0  0  0  0  0  0  0  0  0  0
    0.7500   -1.2990    0.0000 C   0  0  0  0  0  0  0  0  0  0  0  0
   -0.7500   -1.2990    0.0000 C   0  0  0  0  0  0  0  0  0  0  0  0
   -1.5000   -2.5981    0.0000 C   0  0  0  0  0  0  0  0  0  0  0  0
   -3.0000   -2.5981    0.0000 C   0  0  0  0  0  0  0  0  0  0  0  0
   -3.7500   -1.2990    0.0000 C   0  0  0  0  0  0  0  0  0  0  0  0
   -5.2500   -1.2990    0.0000 N   0  0  0  0  0  0  0  0  0  0  0  0
   -6.1317   -2.5126    0.0000 C   0  0  0  0  0  0  0  0  0  0  0  0
   -7.5583   -2.0490    0.0000 N   0  0  0  0  0  0  0  0  0  0  0  0
   -7.5583   -0.5490    0.0000 N   0  0  0  0  0  0  0  0  0  0  0  0
   -6.1317   -0.0855    0.0000 N   0  0  0  0  0  0  0  0  0  0  0  0
   -3.0000    0.0000    0.0000 C   0  0  0  0  0  0  0  0  0  0  0  0
   -3.7500    1.2990    0.0000 C   0  0  0  0  0  0  0  0  0  0  0  0
   -1.5000    0.0000    0.0000 C   0  0  0  0  0  0  0  0  0  0  0  0
   -0.7500    1.2990    0.0000 N   0  0  0  0  0  0  0  0  0  0  0  0
    0.7500    1.2990    0.0000 C   0  0  0  0  0  0  0  0  0  0  0  0
    1.5000    2.5981    0.0000 N   0  0  0  0  0  0  0  0  0  0  0  0
    0.7500    3.8971    0.0000 C   0  0  0  0  0  0  0  0  0  0  0  0
  1  2  1  0
  2  3  1  0
  3  4  1  0
  4  5  2  0
  5  6  1  0
  6  7  2  0
  7  8  1  0
  8  9  2  0
  9 10  1  0
 10 11  1  0
 11 12  2  0
 12 13  1  0
 13 14  2  0
  9 15  1  0
 15 16  1  0
 15 17  2  0
 17 18  1  0
 18 19  2  0
 19 20  1  0
 20 21  1  0
 19  4  1  0
 17  6  1  0
 14 10  1  0
M  END
>  <Compound_ID>  (225) 
C63117648

>  <Active>  (225) 
0.0

>  <Smiles>  (225) 
CCCc1cc2ccc(-n3cnnn3)c(C)c2nc1NC

>  <canonical_smi>  (225) 
CCCc1cc2ccc(-n3cnnn3)c(C)c2nc1NC

>  <Set>  (225) 
G2 inactive

>  <Set_type>  (225) 
Train

>  <MW>  (225) 
282.35

>  <HBD>  (225) 
1

>  <HBA>  (225) 
5

>  <NRB>  (225) 
4

>  <NR>  (225) 
3

>  <NAR>  (225) 
3

>  <PSA>  (225) 
68.52

>  <Standard Type>  (225) 
nan

>  <Standard Relation>  (225) 
nan

>  <Standard Units>  (225) 
nan

>  <Standard Value>  (225) 
nan

>  <Assay ChEMBL ID>  (225) 
nan

>  <Assay Description>  (225) 
nan

>  <BAO Label>  (225) 
nan

$$$$

     RDKit          2D

 31 34  0  0  0  0  0  0  0  0999 V2000
    3.0000    0.0000    0.0000 C   0  0  0  0  0  0  0  0  0  0  0  0
    1.5000    0.0000    0.0000 C   0  0  0  0  0  0  0  0  0  0  0  0
    0.7500   -1.2990    0.0000 C   0  0  0  0  0  0  0  0  0  0  0  0
   -0.7500   -1.2990    0.0000 C   0  0  0  0  0  0  0  0  0  0  0  0
   -1.5000    0.0000    0.0000 C   0  0  0  0  0  0  0  0  0  0  0  0
   -3.0000    0.0000    0.0000 C   0  0  0  0  0  0  0  0  0  0  0  0
   -3.8817   -1.2135    0.0000 N   0  0  0  0  0  0  0  0  0  0  0  0
   -5.3083   -0.7500    0.0000 N   0  0  0  0  0  0  0  0  0  0  0  0
   -6.5218   -1.6317    0.0000 C   0  0  0  0  0  0  0  0  0  0  0  0
   -7.8921   -1.0216    0.0000 N   0  0  0  0  0  4  0  0  0  0  0  0
   -9.1056   -1.9033    0.0000 C   0  0  0  0  0  0  0  0  0  0  0  0
   -8.0489    0.4702    0.0000 C   0  0  0  0  0  0  0  0  0  0  0  0
   -9.4192    1.0803    0.0000 C   0  0  0  0  0  0  0  0  0  0  0  0
  -10.7183    0.3303    0.0000 C   0  0  0  0  0  0  0  0  0  0  0  0
  -10.8750   -1.1615    0.0000 C   0  0  0  0  0  0  0  0  0  0  0  0
  -11.8330    1.3340    0.0000 N   0  0  0  0  0  0  0  0  0  0  0  0
  -11.2229    2.7043    0.0000 N   0  0  0  0  0  0  0  0  0  0  0  0
  -11.9729    4.0034    0.0000 C   0  0  0  0  0  0  0  0  0  0  0  0
  -13.4647    4.1602    0.0000 C   0  0  0  0  0  0  0  0  0  0  0  0
  -13.7765    5.6274    0.0000 C   0  0  0  0  0  0  0  0  0  0  0  0
  -12.4775    6.3774    0.0000 S   0  0  0  0  0  0  0  0  0  0  0  0
  -13.3592    7.5909    0.0000 O   0  0  0  0  0  0  0  0  0  0  0  0
  -11.3628    7.3811    0.0000 O   0  0  0  0  0  0  0  0  0  0  0  0
  -11.3628    5.3737    0.0000 C   0  0  0  0  0  0  0  0  0  0  0  0
   -9.7311    2.5475    0.0000 C   0  0  0  0  0  0  0  0  0  0  0  0
   -8.7274    3.6623    0.0000 C   0  0  0  0  0  0  0  0  0  0  0  0
   -5.3083    0.7500    0.0000 C   0  0  0  0  0  0  0  0  0  0  0  0
   -6.5218    1.6317    0.0000 S   0  0  0  0  0  0  0  0  0  0  0  0
   -3.8817    1.2135    0.0000 N   0  0  0  0  0  0  0  0  0  0  0  0
   -0.7500    1.2990    0.0000 C   0  0  0  0  0  0  0  0  0  0  0  0
    0.7500    1.2990    0.0000 C   0  0  0  0  0  0  0  0  0  0  0  0
  1  2  1  0
  2  3  2  0
  3  4  1  0
  4  5  2  0
  5  6  1  0
  6  7  2  0
  7  8  1  0
  8  9  1  0
  9 10  1  0
 10 11  1  0
 10 12  1  0
 12 13  1  0
 13 14  1  0
 14 15  1  0
 14 16  2  0
 16 17  1  0
 18 17  1  1
 18 19  1  0
 19 20  1  0
 20 21  1  0
 21 22  2  0
 21 23  2  0
 21 24  1  0
 17 25  1  0
 25 26  1  0
  8 27  1  0
 27 28  2  0
 27 29  1  0
  5 30  1  0
 30 31  2  0
 31  2  1  0
 29  6  1  0
 25 13  2  0
 24 18  1  0
M  CHG  1  10   1
M  END
>  <Compound_ID>  (226) 
C16875344

>  <Active>  (226) 
0.0

>  <Smiles>  (226) 
Cc1ccc(-c2nn(C[NH+](C)Cc3c(C)nn([C@H]4CCS(=O)(=O)C4)c3C)c(=S)[nH]2)cc1

>  <canonical_smi>  (226) 
Cc1ccc(-c2nn(C[NH+](C)Cc3c(C)nn([C@H]4CCS(=O)(=O)C4)c3C)c(=S)[nH]2)cc1

>  <Set>  (226) 
G2 inactive

>  <Set_type>  (226) 
Train

>  <MW>  (226) 
461.64

>  <HBD>  (226) 
2

>  <HBA>  (226) 
5

>  <NRB>  (226) 
6

>  <NR>  (226) 
4

>  <NAR>  (226) 
3

>  <PSA>  (226) 
90.01

>  <Standard Type>  (226) 
nan

>  <Standard Relation>  (226) 
nan

>  <Standard Units>  (226) 
nan

>  <Standard Value>  (226) 
nan

>  <Assay ChEMBL ID>  (226) 
nan

>  <Assay Description>  (226) 
nan

>  <BAO Label>  (226) 
nan

$$$$

     RDKit          2D

 31 36  0  0  0  0  0  0  0  0999 V2000
   -7.8782   -0.3303    0.0000 C   0  0  0  0  0  0  0  0  0  0  0  0
   -6.7635    0.6734    0.0000 C   0  0  0  0  0  0  0  0  0  0  0  0
   -5.3369    0.2098    0.0000 C   0  0  0  0  0  0  0  0  0  0  0  0
   -5.0251   -1.2574    0.0000 C   0  0  0  0  0  0  0  0  0  0  0  0
   -3.5985   -1.7209    0.0000 C   0  0  0  0  0  0  0  0  0  0  0  0
   -2.4838   -0.7172    0.0000 C   0  0  0  0  0  0  0  0  0  0  0  0
   -2.7956    0.7500    0.0000 C   0  0  0  0  0  0  0  0  0  0  0  0
   -4.2222    1.2135    0.0000 C   0  0  0  0  0  0  0  0  0  0  0  0
   -4.2222    2.7135    0.0000 N   0  0  0  0  0  0  0  0  0  0  0  0
   -2.7956    3.1771    0.0000 C   0  0  0  0  0  0  0  0  0  0  0  0
   -2.3321    4.6036    0.0000 O   0  0  0  0  0  0  0  0  0  0  0  0
   -1.9140    1.9635    0.0000 C   0  0  0  0  0  0  0  0  0  0  0  0
   -1.0323    3.1771    0.0000 C   0  0  0  0  0  0  0  0  0  0  0  0
   -1.0323    4.6771    0.0000 C   0  0  0  0  0  0  0  0  0  0  0  0
   -2.2458    5.5587    0.0000 O   0  0  0  0  0  0  0  0  0  0  0  0
    0.3943    5.1406    0.0000 N   0  0  0  0  0  0  0  0  0  0  0  0
    0.8578    6.5672    0.0000 C   0  0  0  0  0  0  0  0  0  0  0  0
    2.3250    6.8790    0.0000 C   0  0  0  0  0  0  0  0  0  0  0  0
    2.7886    8.3056    0.0000 C   0  0  0  0  0  0  0  0  0  0  0  0
    1.7849    9.4203    0.0000 C   0  0  0  0  0  0  0  0  0  0  0  0
    2.2484   10.8469    0.0000 Br  0  0  0  0  0  0  0  0  0  0  0  0
    0.3177    9.1085    0.0000 C   0  0  0  0  0  0  0  0  0  0  0  0
   -0.1459    7.6819    0.0000 C   0  0  0  0  0  0  0  0  0  0  0  0
    1.2760    3.9271    0.0000 C   0  0  0  0  0  0  0  0  0  0  0  0
    2.7760    3.9271    0.0000 O   0  0  0  0  0  0  0  0  0  0  0  0
    0.3943    2.7135    0.0000 C   0  0  0  0  0  0  0  0  0  0  0  0
    0.3943    1.2135    0.0000 C   0  0  0  0  0  0  0  0  0  0  0  0
    1.2760    0.0000    0.0000 C   0  0  0  0  0  0  0  0  0  0  0  0
    0.3943   -1.2135    0.0000 C   0  0  0  0  0  0  0  0  0  0  0  0
   -1.0323   -0.7500    0.0000 C   0  0  0  0  0  0  0  0  0  0  0  0
   -1.0323    0.7500    0.0000 N   0  0  0  0  0  4  0  0  0  0  0  0
  1  2  1  0
  2  3  1  0
  3  4  2  0
  4  5  1  0
  5  6  2  0
  6  7  1  0
  7  8  2  0
  8  9  1  0
  9 10  1  0
 10 11  2  0
 10 12  1  0
 12 13  1  0
 13 14  1  6
 14 15  2  0
 14 16  1  0
 16 17  1  0
 17 18  2  0
 18 19  1  0
 19 20  2  0
 20 21  1  0
 20 22  1  0
 22 23  2  0
 16 24  1  0
 24 25  2  0
 26 24  1  6
 26 27  1  0
 27 28  1  6
 28 29  1  0
 29 30  1  0
 30 31  1  0
  8  3  1  0
 12 31  1  1
 12  7  1  0
 26 13  1  0
 31 27  1  0
 23 17  1  0
M  CHG  1  31   1
M  END
>  <Compound_ID>  (227) 
C09236719

>  <Active>  (227) 
0.0

>  <Smiles>  (227) 
CCc1cccc2c1NC(=O)[C@]21[C@@H]2C(=O)N(c3ccc(Br)cc3)C(=O)[C@@H]2[C@@H]2CCC[NH+]21

>  <canonical_smi>  (227) 
CCc1cccc2c1NC(=O)[C@]21[C@@H]2C(=O)N(c3ccc(Br)cc3)C(=O)[C@@H]2[C@@H]2CCC[NH+]21

>  <Set>  (227) 
G2 inactive

>  <Set_type>  (227) 
Train

>  <MW>  (227) 
481.37

>  <HBD>  (227) 
2

>  <HBA>  (227) 
3

>  <NRB>  (227) 
2

>  <NR>  (227) 
6

>  <NAR>  (227) 
2

>  <PSA>  (227) 
70.92

>  <Standard Type>  (227) 
nan

>  <Standard Relation>  (227) 
nan

>  <Standard Units>  (227) 
nan

>  <Standard Value>  (227) 
nan

>  <Assay ChEMBL ID>  (227) 
nan

>  <Assay Description>  (227) 
nan

>  <BAO Label>  (227) 
nan

$$$$

     RDKit          2D

 38 43  0  0  0  0  0  0  0  0999 V2000
    3.0000    0.0000    0.0000 C   0  0  0  0  0  0  0  0  0  0  0  0
    1.5000    0.0000    0.0000 C   0  0  0  0  0  0  0  0  0  0  0  0
    0.7500   -1.2990    0.0000 C   0  0  0  0  0  0  0  0  0  0  0  0
   -0.7500   -1.2990    0.0000 C   0  0  0  0  0  0  0  0  0  0  0  0
   -1.5000    0.0000    0.0000 C   0  0  0  0  0  0  0  0  0  0  0  0
   -3.0000    0.0000    0.0000 C   0  0  0  0  0  0  0  0  0  0  0  0
   -0.7500    1.2990    0.0000 C   0  0  0  0  0  0  0  0  0  0  0  0
   -1.5000    2.5981    0.0000 N   0  0  0  0  0  0  0  0  0  0  0  0
   -0.7500    3.8971    0.0000 C   0  0  0  0  0  0  0  0  0  0  0  0
   -1.5000    5.1962    0.0000 O   0  0  0  0  0  0  0  0  0  0  0  0
    0.7500    3.8971    0.0000 C   0  0  0  0  0  0  0  0  0  0  0  0
    1.5000    5.1962    0.0000 C   0  0  0  0  0  0  0  0  0  0  0  0
    3.0000    5.1962    0.0000 C   0  0  0  0  0  0  0  0  0  0  0  0
    3.8817    6.4097    0.0000 N   0  0  0  0  0  0  0  0  0  0  0  0
    5.3083    5.9462    0.0000 N   0  0  0  0  0  0  0  0  0  0  0  0
    5.3083    4.4462    0.0000 N   0  0  0  0  0  0  0  0  0  0  0  0
    3.8817    3.9826    0.0000 N   0  0  0  0  0  0  0  0  0  0  0  0
    3.4182    2.5560    0.0000 C   0  0  0  0  0  0  0  0  0  0  0  0
    4.4218    1.4413    0.0000 C   0  0  0  0  0  0  0  0  0  0  0  0
    5.9136    1.5981    0.0000 C   0  0  0  0  0  0  0  0  0  0  0  0
    6.5237    0.2278    0.0000 C   0  0  0  0  0  0  0  0  0  0  0  0
    5.4090   -0.7759    0.0000 C   0  0  0  0  0  0  0  0  0  0  0  0
    4.1100   -0.0259    0.0000 O   0  0  0  0  0  0  0  0  0  0  0  0
    0.7500    6.4952    0.0000 N   0  0  0  0  0  4  0  0  0  0  0  0
    1.5000    7.7942    0.0000 C   0  0  0  0  0  0  0  0  0  0  0  0
    0.7500    9.0933    0.0000 C   0  0  0  0  0  0  0  0  0  0  0  0
   -0.7500    9.0933    0.0000 N   0  0  0  0  0  0  0  0  0  0  0  0
   -1.5000   10.3923    0.0000 C   0  0  0  0  0  0  0  0  0  0  0  0
   -0.7500   11.6913    0.0000 C   0  0  0  0  0  0  0  0  0  0  0  0
   -1.5000   12.9904    0.0000 C   0  0  0  0  0  0  0  0  0  0  0  0
   -3.0000   12.9904    0.0000 C   0  0  0  0  0  0  0  0  0  0  0  0
   -3.7500   11.6913    0.0000 C   0  0  0  0  0  0  0  0  0  0  0  0
   -3.0000   10.3923    0.0000 C   0  0  0  0  0  0  0  0  0  0  0  0
   -3.7500    9.0933    0.0000 F   0  0  0  0  0  0  0  0  0  0  0  0
   -1.5000    7.7942    0.0000 C   0  0  0  0  0  0  0  0  0  0  0  0
   -0.7500    6.4952    0.0000 C   0  0  0  0  0  0  0  0  0  0  0  0
    1.5000    2.5981    0.0000 C   0  0  0  0  0  0  0  0  0  0  0  0
    0.7500    1.2990    0.0000 C   0  0  0  0  0  0  0  0  0  0  0  0
  1  2  1  0
  2  3  2  0
  3  4  1  0
  4  5  2  0
  5  6  1  0
  5  7  1  0
  7  8  1  0
  8  9  1  0
  9 10  2  0
  9 11  1  0
 11 12  1  0
 12 13  1  0
 13 14  2  0
 14 15  1  0
 15 16  2  0
 16 17  1  0
 17 18  1  0
 19 18  1  6
 19 20  1  0
 20 21  1  0
 21 22  1  0
 22 23  1  0
 12 24  1  1
 24 25  1  0
 25 26  1  0
 26 27  1  0
 27 28  1  0
 28 29  2  0
 29 30  1  0
 30 31  2  0
 31 32  1  0
 32 33  2  0
 33 34  1  0
 27 35  1  0
 35 36  1  0
 11 37  2  0
 37 38  1  0
 38  2  1  0
 38  7  2  0
 17 13  1  0
 23 19  1  0
 36 24  1  0
 33 28  1  0
M  CHG  1  24   1
M  END
>  <Compound_ID>  (228) 
C06244925

>  <Active>  (228) 
0.0

>  <Smiles>  (228) 
Cc1ccc(C)c2[nH]c(=O)c([C@H](c3nnnn3C[C@@H]3CCCO3)[NH+]3CCN(c4ccccc4F)CC3)cc12

>  <canonical_smi>  (228) 
Cc1ccc(C)c2[nH]c(=O)c([C@H](c3nnnn3C[C@@H]3CCCO3)[NH+]3CCN(c4ccccc4F)CC3)cc12

>  <Set>  (228) 
G2 inactive

>  <Set_type>  (228) 
Train

>  <MW>  (228) 
518.62

>  <HBD>  (228) 
2

>  <HBA>  (228) 
6

>  <NRB>  (228) 
6

>  <NR>  (228) 
6

>  <NAR>  (228) 
4

>  <PSA>  (228) 
93.37

>  <Standard Type>  (228) 
nan

>  <Standard Relation>  (228) 
nan

>  <Standard Units>  (228) 
nan

>  <Standard Value>  (228) 
nan

>  <Assay ChEMBL ID>  (228) 
nan

>  <Assay Description>  (228) 
nan

>  <BAO Label>  (228) 
nan

$$$$

     RDKit          2D

 34 38  0  0  0  0  0  0  0  0999 V2000
    3.0000   -2.5981    0.0000 O   0  0  0  0  0  0  0  0  0  0  0  0
    1.5000   -2.5981    0.0000 C   0  0  0  0  0  0  0  0  0  0  0  0
    0.7500   -3.8971    0.0000 C   0  0  0  0  0  0  0  0  0  0  0  0
    1.5000   -5.1962    0.0000 C   0  0  0  0  0  0  0  0  0  0  0  0
    0.7500   -6.4952    0.0000 C   0  0  0  0  0  0  0  0  0  0  0  0
    1.3601   -7.8655    0.0000 C   0  0  0  0  0  0  0  0  0  0  0  0
    0.2454   -8.8692    0.0000 C   0  0  0  0  0  0  0  0  0  0  0  0
   -1.0537   -8.1192    0.0000 C   0  0  0  0  0  0  0  0  0  0  0  0
   -0.7418   -6.6520    0.0000 C   0  0  0  0  0  0  0  0  0  0  0  0
    0.7500   -1.2990    0.0000 N   0  0  0  0  0  0  0  0  0  0  0  0
    1.5000    0.0000    0.0000 C   0  0  0  0  0  0  0  0  0  0  0  0
    0.7500    1.2990    0.0000 C   0  0  0  0  0  0  0  0  0  0  0  0
   -0.7500    1.2990    0.0000 N   0  0  0  0  0  0  0  0  0  0  0  0
   -1.5000    2.5981    0.0000 C   0  0  0  0  0  0  0  0  0  0  0  0
   -0.7500    3.8971    0.0000 N   0  0  0  0  0  0  0  0  0  0  0  0
   -1.5000    5.1962    0.0000 C   0  0  0  0  0  0  0  0  0  0  0  0
   -0.7500    6.4952    0.0000 C   0  0  0  0  0  0  0  0  0  0  0  0
    0.7500    6.4952    0.0000 N   0  0  0  0  0  0  0  0  0  0  0  0
    1.5000    5.1962    0.0000 C   0  0  0  0  0  0  0  0  0  0  0  0
    3.0000    5.1962    0.0000 C   0  0  0  0  0  0  0  0  0  0  0  0
    3.7500    6.4952    0.0000 N   0  0  0  0  0  4  0  0  0  0  0  0
    5.2500    6.4952    0.0000 C   0  0  0  0  0  0  0  0  0  0  0  0
    6.1317    7.7087    0.0000 C   0  0  0  0  0  0  0  0  0  0  0  0
    7.5583    7.2452    0.0000 C   0  0  0  0  0  0  0  0  0  0  0  0
    7.5583    5.7452    0.0000 C   0  0  0  0  0  0  0  0  0  0  0  0
    6.1317    5.2817    0.0000 C   0  0  0  0  0  0  0  0  0  0  0  0
    3.0000    7.7942    0.0000 C   0  0  0  0  0  0  0  0  0  0  0  0
    1.5000    7.7942    0.0000 C   0  0  0  0  0  0  0  0  0  0  0  0
   -3.0000    5.1962    0.0000 C   0  0  0  0  0  0  0  0  0  0  0  0
   -3.7500    3.8971    0.0000 C   0  0  0  0  0  0  0  0  0  0  0  0
   -5.2500    3.8971    0.0000 O   0  0  0  0  0  0  0  0  0  0  0  0
   -3.0000    2.5981    0.0000 N   0  0  0  0  0  0  0  0  0  0  0  0
   -1.5000    0.0000    0.0000 C   0  0  0  0  0  0  0  0  0  0  0  0
   -0.7500   -1.2990    0.0000 C   0  0  0  0  0  0  0  0  0  0  0  0
  1  2  2  0
  2  3  1  0
  3  4  1  0
  4  5  1  0
  5  6  1  0
  6  7  1  0
  7  8  1  0
  8  9  1  0
  2 10  1  0
 10 11  1  0
 11 12  1  0
 12 13  1  0
 13 14  1  0
 14 15  2  0
 15 16  1  0
 16 17  1  0
 17 18  1  0
 18 19  1  0
 19 20  1  0
 20 21  1  0
 21 22  1  0
 22 23  1  0
 23 24  1  0
 24 25  1  0
 25 26  1  0
 21 27  1  0
 27 28  1  0
 16 29  2  0
 29 30  1  0
 30 31  2  0
 30 32  1  0
 13 33  1  0
 33 34  1  0
  9  5  1  0
 34 10  1  0
 32 14  1  0
 28 18  1  0
 26 22  1  0
M  CHG  1  21   1
M  END
>  <Compound_ID>  (229) 
C35574507

>  <Active>  (229) 
0.0

>  <Smiles>  (229) 
O=C(CCC1CCCC1)N1CCN(c2nc(CN3CC[NH+](C4CCCC4)CC3)cc(=O)[nH]2)CC1

>  <canonical_smi>  (229) 
O=C(CCC1CCCC1)N1CCN(c2nc(CN3CC[NH+](C4CCCC4)CC3)cc(=O)[nH]2)CC1

>  <Set>  (229) 
G2 inactive

>  <Set_type>  (229) 
Train

>  <MW>  (229) 
471.67

>  <HBD>  (229) 
2

>  <HBA>  (229) 
5

>  <NRB>  (229) 
7

>  <NR>  (229) 
5

>  <NAR>  (229) 
1

>  <PSA>  (229) 
76.98

>  <Standard Type>  (229) 
nan

>  <Standard Relation>  (229) 
nan

>  <Standard Units>  (229) 
nan

>  <Standard Value>  (229) 
nan

>  <Assay ChEMBL ID>  (229) 
nan

>  <Assay Description>  (229) 
nan

>  <BAO Label>  (229) 
nan

$$$$

     RDKit          2D

 31 34  0  0  0  0  0  0  0  0999 V2000
    8.5808    9.5939    0.0000 C   0  0  0  0  0  0  0  0  0  0  0  0
    8.1173    8.1673    0.0000 O   0  0  0  0  0  0  0  0  0  0  0  0
    6.6501    7.8555    0.0000 C   0  0  0  0  0  0  0  0  0  0  0  0
    6.1865    6.4289    0.0000 C   0  0  0  0  0  0  0  0  0  0  0  0
    4.7193    6.1170    0.0000 O   0  0  0  0  0  0  0  0  0  0  0  0
    4.2558    4.6904    0.0000 C   0  0  0  0  0  0  0  0  0  0  0  0
    5.2595    3.5757    0.0000 C   0  0  0  0  0  0  0  0  0  0  0  0
    4.7960    2.1491    0.0000 C   0  0  0  0  0  0  0  0  0  0  0  0
    3.3287    1.8373    0.0000 C   0  0  0  0  0  0  0  0  0  0  0  0
    2.3250    2.9520    0.0000 C   0  0  0  0  0  0  0  0  0  0  0  0
    0.8578    2.6401    0.0000 C   0  0  0  0  0  0  0  0  0  0  0  0
    0.3943    1.2135    0.0000 N   0  0  0  0  0  4  0  0  0  0  0  0
    1.2760    0.0000    0.0000 C   0  0  0  0  0  0  0  0  0  0  0  0
    0.3943   -1.2135    0.0000 C   0  0  0  0  0  0  0  0  0  0  0  0
    0.3943   -2.7135    0.0000 C   0  0  0  0  0  0  0  0  0  0  0  0
   -1.0323   -3.1771    0.0000 C   0  0  0  0  0  0  0  0  0  0  0  0
   -1.9140   -1.9635    0.0000 C   0  0  0  0  0  0  0  0  0  0  0  0
   -3.0287   -0.9598    0.0000 O   0  0  0  0  0  0  0  0  0  0  0  0
   -3.0287   -2.9672    0.0000 C   0  0  0  0  0  0  0  0  0  0  0  0
   -4.4553   -2.5037    0.0000 C   0  0  0  0  0  0  0  0  0  0  0  0
   -5.5700   -3.5074    0.0000 N   0  0  0  0  0  0  0  0  0  0  0  0
   -5.2581   -4.9746    0.0000 C   0  0  0  0  0  0  0  0  0  0  0  0
   -6.3728   -5.9783    0.0000 O   0  0  0  0  0  0  0  0  0  0  0  0
   -7.7994   -5.5148    0.0000 C   0  0  0  0  0  0  0  0  0  0  0  0
   -3.8315   -5.4381    0.0000 N   0  0  0  0  0  0  0  0  0  0  0  0
   -2.7168   -4.4344    0.0000 C   0  0  0  0  0  0  0  0  0  0  0  0
   -1.2902   -4.8980    0.0000 O   0  0  0  0  0  0  0  0  0  0  0  0
   -0.9784   -6.3652    0.0000 C   0  0  0  0  0  0  0  0  0  0  0  0
   -1.0323   -0.7500    0.0000 C   0  0  0  0  0  0  0  0  0  0  0  0
   -1.0323    0.7500    0.0000 C   0  0  0  0  0  0  0  0  0  0  0  0
    2.7886    4.3786    0.0000 C   0  0  0  0  0  0  0  0  0  0  0  0
  1  2  1  0
  2  3  1  0
  3  4  1  0
  4  5  1  0
  5  6  1  0
  6  7  2  0
  7  8  1  0
  8  9  2  0
  9 10  1  0
 10 11  1  0
 11 12  1  0
 12 13  1  0
 14 13  1  6
 14 15  1  0
 15 16  1  0
 16 17  1  0
 17 18  1  1
 17 19  1  0
 19 20  2  0
 20 21  1  0
 21 22  2  0
 22 23  1  0
 23 24  1  0
 22 25  1  0
 25 26  2  0
 26 27  1  0
 27 28  1  0
 17 29  1  0
 29 30  1  6
 10 31  2  0
 31  6  1  0
 30 12  1  0
 29 14  1  0
 26 19  1  0
M  CHG  1  12   1
M  END
>  <Compound_ID>  (230) 
C57773879

>  <Active>  (230) 
0.0

>  <Smiles>  (230) 
COCCOc1cccc(C[NH+]2C[C@@H]3CC[C@](O)(c4cnc(OC)nc4OC)[C@@H]3C2)c1

>  <canonical_smi>  (230) 
COCCOc1cccc(C[NH+]2C[C@@H]3[C@@H](CC[C@]3(O)c3cnc(OC)nc3OC)C2)c1

>  <Set>  (230) 
G2 inactive

>  <Set_type>  (230) 
Train

>  <MW>  (230) 
430.53

>  <HBD>  (230) 
2

>  <HBA>  (230) 
7

>  <NRB>  (230) 
9

>  <NR>  (230) 
4

>  <NAR>  (230) 
2

>  <PSA>  (230) 
87.37

>  <Standard Type>  (230) 
nan

>  <Standard Relation>  (230) 
nan

>  <Standard Units>  (230) 
nan

>  <Standard Value>  (230) 
nan

>  <Assay ChEMBL ID>  (230) 
nan

>  <Assay Description>  (230) 
nan

>  <BAO Label>  (230) 
nan

$$$$

     RDKit          2D

 35 39  0  0  0  0  0  0  0  0999 V2000
    1.5000   -7.7942    0.0000 C   0  0  0  0  0  0  0  0  0  0  0  0
    0.7500   -6.4952    0.0000 O   0  0  0  0  0  0  0  0  0  0  0  0
    1.5000   -5.1962    0.0000 C   0  0  0  0  0  0  0  0  0  0  0  0
    0.7500   -3.8971    0.0000 C   0  0  0  0  0  0  0  0  0  0  0  0
    1.5000   -2.5981    0.0000 C   0  0  0  0  0  0  0  0  0  0  0  0
    0.7500   -1.2990    0.0000 C   0  0  0  0  0  0  0  0  0  0  0  0
    1.5000    0.0000    0.0000 C   0  0  0  0  0  0  0  0  0  0  0  0
    0.7500    1.2990    0.0000 C   0  0  0  0  0  0  0  0  0  0  0  0
    1.5000    2.5981    0.0000 O   0  0  0  0  0  0  0  0  0  0  0  0
   -0.7500    1.2990    0.0000 N   0  0  0  0  0  0  0  0  0  0  0  0
   -1.5000    0.0000    0.0000 C   0  0  0  0  0  0  0  0  0  0  0  0
   -0.7500   -1.2990    0.0000 C   0  0  0  0  0  0  0  0  0  0  0  0
   -1.7537   -2.4138    0.0000 C   0  0  0  0  0  0  0  0  0  0  0  0
   -1.4418   -3.8810    0.0000 C   0  0  0  0  0  0  0  0  0  0  0  0
   -3.1240   -1.8037    0.0000 N   0  0  0  0  0  0  0  0  0  0  0  0
   -2.9672   -0.3119    0.0000 N   0  0  0  0  0  0  0  0  0  0  0  0
   -4.0819    0.6918    0.0000 C   0  0  0  0  0  0  0  0  0  0  0  0
   -3.7701    2.1590    0.0000 C   0  0  0  0  0  0  0  0  0  0  0  0
   -4.8848    3.1627    0.0000 C   0  0  0  0  0  0  0  0  0  0  0  0
   -6.3114    2.6992    0.0000 C   0  0  0  0  0  0  0  0  0  0  0  0
   -7.4261    3.7029    0.0000 Cl  0  0  0  0  0  0  0  0  0  0  0  0
   -6.6232    1.2320    0.0000 N   0  0  0  0  0  0  0  0  0  0  0  0
   -5.5085    0.2283    0.0000 N   0  0  0  0  0  0  0  0  0  0  0  0
    3.0000   -2.5981    0.0000 C   0  0  0  0  0  0  0  0  0  0  0  0
    3.7500   -3.8971    0.0000 C   0  0  0  0  0  0  0  0  0  0  0  0
    3.0000   -5.1962    0.0000 C   0  0  0  0  0  0  0  0  0  0  0  0
    3.7500   -6.4952    0.0000 O   0  0  0  0  0  0  0  0  0  0  0  0
    5.2500   -6.4952    0.0000 C   0  0  0  0  0  0  0  0  0  0  0  0
    6.0000   -7.7942    0.0000 C   0  0  0  0  0  0  0  0  0  0  0  0
    5.2500   -9.0933    0.0000 C   0  0  0  0  0  0  0  0  0  0  0  0
    6.0000  -10.3923    0.0000 C   0  0  0  0  0  0  0  0  0  0  0  0
    7.5000  -10.3923    0.0000 C   0  0  0  0  0  0  0  0  0  0  0  0
    8.2500  -11.6913    0.0000 Cl  0  0  0  0  0  0  0  0  0  0  0  0
    8.2500   -9.0933    0.0000 C   0  0  0  0  0  0  0  0  0  0  0  0
    7.5000   -7.7942    0.0000 C   0  0  0  0  0  0  0  0  0  0  0  0
  1  2  1  0
  2  3  1  0
  3  4  2  0
  4  5  1  0
  6  5  1  6
  6  7  1  0
  7  8  1  0
  8  9  2  0
  8 10  1  0
 10 11  1  0
 11 12  2  0
 12 13  1  0
 13 14  1  0
 13 15  2  0
 15 16  1  0
 16 17  1  0
 17 18  2  0
 18 19  1  0
 19 20  2  0
 20 21  1  0
 20 22  1  0
 22 23  2  0
  5 24  2  0
 24 25  1  0
 25 26  2  0
 26 27  1  0
 27 28  1  0
 28 29  1  0
 29 30  2  0
 30 31  1  0
 31 32  2  0
 32 33  1  0
 32 34  1  0
 34 35  2  0
 26  3  1  0
 35 29  1  0
 12  6  1  0
 23 17  1  0
 16 11  1  0
M  END
>  <Compound_ID>  (231) 
C15083393

>  <Active>  (231) 
0.0

>  <Smiles>  (231) 
COc1cc([C@H]2CC(=O)Nc3c2c(C)nn3-c2ccc(Cl)nn2)ccc1OCc1ccc(Cl)cc1

>  <canonical_smi>  (231) 
COc1cc([C@H]2CC(=O)Nc3c2c(C)nn3-c2ccc(Cl)nn2)ccc1OCc1ccc(Cl)cc1

>  <Set>  (231) 
G2 inactive

>  <Set_type>  (231) 
Train

>  <MW>  (231) 
510.38

>  <HBD>  (231) 
1

>  <HBA>  (231) 
6

>  <NRB>  (231) 
6

>  <NR>  (231) 
5

>  <NAR>  (231) 
4

>  <PSA>  (231) 
91.16

>  <Standard Type>  (231) 
nan

>  <Standard Relation>  (231) 
nan

>  <Standard Units>  (231) 
nan

>  <Standard Value>  (231) 
nan

>  <Assay ChEMBL ID>  (231) 
nan

>  <Assay Description>  (231) 
nan

>  <BAO Label>  (231) 
nan

$$$$

     RDKit          2D

 23 25  0  0  0  0  0  0  0  0999 V2000
   -0.0000   -5.1962    0.0000 N   0  0  0  0  0  0  0  0  0  0  0  0
    0.7500   -3.8971    0.0000 C   0  0  0  0  0  0  0  0  0  0  0  0
    1.5000   -2.5981    0.0000 C   0  0  0  0  0  0  0  0  0  0  0  0
    3.0000   -2.5981    0.0000 C   0  0  0  0  0  0  0  0  0  0  0  0
    3.8817   -1.3846    0.0000 C   0  0  0  0  0  0  0  0  0  0  0  0
    5.3083   -1.8481    0.0000 C   0  0  0  0  0  0  0  0  0  0  0  0
    5.3083   -3.3481    0.0000 C   0  0  0  0  0  0  0  0  0  0  0  0
    3.8817   -3.8116    0.0000 S   0  0  0  0  0  0  0  0  0  0  0  0
    0.7500   -1.2990    0.0000 N   0  0  0  0  0  0  0  0  0  0  0  0
    1.5000    0.0000    0.0000 C   0  0  0  0  0  0  0  0  0  0  0  0
    0.7500    1.2990    0.0000 C   0  0  0  0  0  0  0  0  0  0  0  0
   -0.7500    1.2990    0.0000 N   0  0  0  0  0  0  0  0  0  0  0  0
   -1.5000    2.5981    0.0000 C   0  0  0  0  0  0  0  0  0  0  0  0
   -3.0000    2.5981    0.0000 O   0  0  0  0  0  0  0  0  0  0  0  0
   -0.7500    3.8971    0.0000 N   0  0  0  0  0  0  0  0  0  0  0  0
   -1.5000    5.1962    0.0000 C   0  0  0  0  0  0  0  0  0  0  0  0
   -0.7500    6.4952    0.0000 C   0  0  0  0  0  0  0  0  0  0  0  0
   -1.5000    7.7942    0.0000 C   0  0  0  0  0  0  0  0  0  0  0  0
   -3.0000    7.7942    0.0000 C   0  0  0  0  0  0  0  0  0  0  0  0
   -3.7500    6.4952    0.0000 C   0  0  0  0  0  0  0  0  0  0  0  0
   -3.0000    5.1962    0.0000 C   0  0  0  0  0  0  0  0  0  0  0  0
   -1.5000    0.0000    0.0000 C   0  0  0  0  0  0  0  0  0  0  0  0
   -0.7500   -1.2990    0.0000 C   0  0  0  0  0  0  0  0  0  0  0  0
  1  2  3  0
  3  2  1  6
  3  4  1  0
  4  5  2  0
  5  6  1  0
  6  7  2  0
  7  8  1  0
  3  9  1  0
  9 10  1  0
 10 11  1  0
 11 12  1  0
 12 13  1  0
 13 14  2  0
 13 15  1  0
 15 16  1  0
 16 17  1  0
 17 18  1  0
 18 19  1  0
 19 20  1  0
 20 21  1  0
 12 22  1  0
 22 23  1  0
  8  4  1  0
 23  9  1  0
 21 16  1  0
M  END
>  <Compound_ID>  (232) 
C41257345

>  <Active>  (232) 
0.0

>  <Smiles>  (232) 
N#C[C@@H](c1cccs1)N1CCN(C(=O)NC2CCCCC2)CC1

>  <canonical_smi>  (232) 
N#C[C@@H](c1cccs1)N1CCN(C(=O)NC2CCCCC2)CC1

>  <Set>  (232) 
G2 inactive

>  <Set_type>  (232) 
Train

>  <MW>  (232) 
332.47

>  <HBD>  (232) 
1

>  <HBA>  (232) 
3

>  <NRB>  (232) 
3

>  <NR>  (232) 
3

>  <NAR>  (232) 
1

>  <PSA>  (232) 
59.37

>  <Standard Type>  (232) 
nan

>  <Standard Relation>  (232) 
nan

>  <Standard Units>  (232) 
nan

>  <Standard Value>  (232) 
nan

>  <Assay ChEMBL ID>  (232) 
nan

>  <Assay Description>  (232) 
nan

>  <BAO Label>  (232) 
nan

$$$$

     RDKit          2D

 25 29  0  0  0  0  0  0  0  0999 V2000
    3.7548   -2.1855    0.0000 O   0  0  0  0  0  0  0  0  0  0  0  0
    2.6401   -3.1891    0.0000 C   0  0  0  0  0  0  0  0  0  0  0  0
    1.2135   -2.7256    0.0000 C   0  0  0  0  0  0  0  0  0  0  0  0
   -0.0000   -3.6073    0.0000 N   0  0  0  0  0  0  0  0  0  0  0  0
   -1.2135   -2.7256    0.0000 N   0  0  0  0  0  0  0  0  0  0  0  0
   -0.7500   -1.2990    0.0000 C   0  0  0  0  0  0  0  0  0  0  0  0
    0.7500   -1.2990    0.0000 C   0  0  0  0  0  0  0  0  0  0  0  0
    1.5000    0.0000    0.0000 C   0  0  0  0  0  0  0  0  0  0  0  0
    0.7500    1.2990    0.0000 C   0  0  0  0  0  0  0  0  0  0  0  0
   -0.7500    1.2990    0.0000 C   0  0  0  0  0  0  0  0  0  0  0  0
   -1.5000    0.0000    0.0000 C   0  0  0  0  0  0  0  0  0  0  0  0
    2.9520   -4.6564    0.0000 N   0  0  0  0  0  0  0  0  0  0  0  0
    1.8373   -5.6601    0.0000 C   0  0  0  0  0  0  0  0  0  0  0  0
    2.1491   -7.1273    0.0000 C   0  0  0  0  0  0  0  0  0  0  0  0
    3.5757   -7.5908    0.0000 C   0  0  0  0  0  0  0  0  0  0  0  0
    4.6904   -6.5871    0.0000 C   0  0  0  0  0  0  0  0  0  0  0  0
    4.3786   -5.1199    0.0000 C   0  0  0  0  0  0  0  0  0  0  0  0
    5.9895   -7.3371    0.0000 C   0  0  0  0  0  0  0  0  0  0  0  0
    7.3598   -6.7270    0.0000 C   0  0  0  0  0  0  0  0  0  0  0  0
    7.6717   -5.2598    0.0000 C   0  0  0  0  0  0  0  0  0  0  0  0
    9.1634   -5.1030    0.0000 C   0  0  0  0  0  0  0  0  0  0  0  0
    9.7735   -6.4733    0.0000 C   0  0  0  0  0  0  0  0  0  0  0  0
    8.6588   -7.4770    0.0000 C   0  0  0  0  0  0  0  0  0  0  0  0
    5.6776   -8.8043    0.0000 N   0  0  0  0  0  0  0  0  0  0  0  0
    4.1858   -8.9611    0.0000 N   0  0  0  0  0  0  0  0  0  0  0  0
  1  2  2  0
  2  3  1  0
  3  4  1  0
  4  5  1  0
  5  6  2  0
  6  7  1  0
  7  8  1  0
  8  9  1  0
  9 10  1  0
 10 11  1  0
  2 12  1  0
 12 13  1  0
 13 14  1  0
 14 15  1  0
 15 16  2  0
 16 17  1  0
 16 18  1  0
 18 19  1  1
 19 20  1  0
 20 21  1  0
 21 22  1  0
 22 23  1  0
 18 24  1  0
 24 25  2  0
  7  3  2  0
 17 12  1  0
 23 19  1  0
 11  6  1  0
 25 15  1  0
M  END
>  <Compound_ID>  (233) 
C39359946

>  <Active>  (233) 
0.0

>  <Smiles>  (233) 
O=C(c1[nH]nc2c1CCCC2)N1CCC2=C(C1)[C@@H](C1CCCC1)N=N2

>  <canonical_smi>  (233) 
O=C(c1[nH]nc2c1CCCC2)N1CCC2=C(C1)[C@@H](C1CCCC1)N=N2

>  <Set>  (233) 
G2 inactive

>  <Set_type>  (233) 
Train

>  <MW>  (233) 
339.44

>  <HBD>  (233) 
1

>  <HBA>  (233) 
2

>  <NRB>  (233) 
2

>  <NR>  (233) 
5

>  <NAR>  (233) 
1

>  <PSA>  (233) 
73.71

>  <Standard Type>  (233) 
nan

>  <Standard Relation>  (233) 
nan

>  <Standard Units>  (233) 
nan

>  <Standard Value>  (233) 
nan

>  <Assay ChEMBL ID>  (233) 
nan

>  <Assay Description>  (233) 
nan

>  <BAO Label>  (233) 
nan

$$$$

     RDKit          2D

 27 30  0  0  0  0  0  0  0  0999 V2000
    3.0000    0.0000    0.0000 C   0  0  0  0  0  0  0  0  0  0  0  0
    1.5000    0.0000    0.0000 C   0  0  0  0  0  0  0  0  0  0  0  0
    0.7500   -1.2990    0.0000 C   0  0  0  0  0  0  0  0  0  0  0  0
   -0.7500   -1.2990    0.0000 C   0  0  0  0  0  0  0  0  0  0  0  0
   -1.5000    0.0000    0.0000 C   0  0  0  0  0  0  0  0  0  0  0  0
   -2.9672    0.3119    0.0000 C   0  0  0  0  0  0  0  0  0  0  0  0
   -4.1807   -0.5698    0.0000 C   0  0  0  0  0  0  0  0  0  0  0  0
   -4.0240   -2.0616    0.0000 O   0  0  0  0  0  0  0  0  0  0  0  0
   -5.5511    0.0403    0.0000 N   0  0  0  0  0  0  0  0  0  0  0  0
   -5.7079    1.5321    0.0000 C   0  0  0  0  0  0  0  0  0  0  0  0
   -7.0782    2.1422    0.0000 C   0  0  0  0  0  0  0  0  0  0  0  0
   -7.2350    3.6340    0.0000 O   0  0  0  0  0  0  0  0  0  0  0  0
   -8.6053    4.2441    0.0000 C   0  0  0  0  0  0  0  0  0  0  0  0
   -9.8188    3.3624    0.0000 O   0  0  0  0  0  0  0  0  0  0  0  0
   -8.7621    5.7359    0.0000 C   0  0  0  0  0  0  0  0  0  0  0  0
  -10.0611    6.4859    0.0000 C   0  0  0  0  0  0  0  0  0  0  0  0
   -9.7493    7.9531    0.0000 C   0  0  0  0  0  0  0  0  0  0  0  0
   -8.2575    8.1099    0.0000 C   0  0  0  0  0  0  0  0  0  0  0  0
   -7.5075    9.4089    0.0000 N   0  0  0  0  0  4  0  0  0  0  0  0
   -8.2575   10.7079    0.0000 O   0  0  0  0  0  0  0  0  0  0  0  0
   -6.0075    9.4089    0.0000 O   0  0  0  0  0  1  0  0  0  0  0  0
   -7.6474    6.7395    0.0000 S   0  0  0  0  0  0  0  0  0  0  0  0
   -4.4943    2.4138    0.0000 N   0  0  0  0  0  0  0  0  0  0  0  0
   -3.1240    1.8037    0.0000 C   0  0  0  0  0  0  0  0  0  0  0  0
   -1.7537    2.4138    0.0000 S   0  0  0  0  0  0  0  0  0  0  0  0
   -0.7500    1.2990    0.0000 C   0  0  0  0  0  0  0  0  0  0  0  0
    0.7500    1.2990    0.0000 C   0  0  0  0  0  0  0  0  0  0  0  0
  2  1  1  6
  2  3  1  0
  3  4  1  0
  4  5  1  0
  5  6  2  0
  6  7  1  0
  7  8  2  0
  7  9  1  0
  9 10  2  0
 10 11  1  0
 11 12  1  0
 12 13  1  0
 13 14  2  0
 13 15  1  0
 15 16  2  0
 16 17  1  0
 17 18  2  0
 18 19  1  0
 19 20  2  0
 19 21  1  0
 18 22  1  0
 10 23  1  0
 23 24  2  0
 24 25  1  0
 25 26  1  0
 26 27  1  6
 27  2  1  0
 26  5  1  0
 24  6  1  0
 22 15  1  0
M  CHG  2  19   1  21  -1
M  END
>  <Compound_ID>  (234) 
C40010451

>  <Active>  (234) 
0.0

>  <Smiles>  (234) 
C[C@@H]1CCC2=C3C(=O)N=C(COC(=O)c4ccc([N+](=O)[O-])s4)N=C3S[C@@H]2C1

>  <canonical_smi>  (234) 
C[C@@H]1CCC2=C3C(=O)N=C(COC(=O)c4ccc([N+](=O)[O-])s4)N=C3S[C@@H]2C1

>  <Set>  (234) 
G2 inactive

>  <Set_type>  (234) 
Train

>  <MW>  (234) 
405.46

>  <HBD>  (234) 
0

>  <HBA>  (234) 
6

>  <NRB>  (234) 
4

>  <NR>  (234) 
4

>  <NAR>  (234) 
1

>  <PSA>  (234) 
111.23

>  <Standard Type>  (234) 
nan

>  <Standard Relation>  (234) 
nan

>  <Standard Units>  (234) 
nan

>  <Standard Value>  (234) 
nan

>  <Assay ChEMBL ID>  (234) 
nan

>  <Assay Description>  (234) 
nan

>  <BAO Label>  (234) 
nan

$$$$

     RDKit          2D

 37 41  0  0  0  0  0  0  0  0999 V2000
   -3.8855   -0.1771    0.0000 H   0  0  0  0  0  0  0  0  0  0  0  0
   -3.5736    1.2902    0.0000 N   0  0  0  0  0  0  0  0  0  0  0  0
   -2.1470    1.7537    0.0000 C   0  0  0  0  0  0  0  0  0  0  0  0
   -1.8351    3.2209    0.0000 C   0  0  0  0  0  0  0  0  0  0  0  0
   -2.9499    4.2246    0.0000 C   0  0  0  0  0  0  0  0  0  0  0  0
   -4.3764    3.7611    0.0000 C   0  0  0  0  0  0  0  0  0  0  0  0
   -4.8400    2.3345    0.0000 C   0  0  0  0  0  0  0  0  0  0  0  0
   -6.3400    2.3345    0.0000 N   0  0  0  0  0  0  0  0  0  0  0  0
   -7.2216    1.1210    0.0000 C   0  0  0  0  0  0  0  0  0  0  0  0
   -8.7134    1.2778    0.0000 C   0  0  0  0  0  0  0  0  0  0  0  0
   -9.5951    0.0642    0.0000 O   0  0  0  0  0  0  0  0  0  0  0  0
  -11.0869    0.2210    0.0000 C   0  0  0  0  0  0  0  0  0  0  0  0
  -11.6970    1.5914    0.0000 C   0  0  0  0  0  0  0  0  0  0  0  0
  -10.8153    2.8049    0.0000 C   0  0  0  0  0  0  0  0  0  0  0  0
  -13.1888    1.7481    0.0000 C   0  0  0  0  0  0  0  0  0  0  0  0
  -14.0705    0.5346    0.0000 C   0  0  0  0  0  0  0  0  0  0  0  0
  -13.4603   -0.8357    0.0000 C   0  0  0  0  0  0  0  0  0  0  0  0
  -11.9686   -0.9925    0.0000 C   0  0  0  0  0  0  0  0  0  0  0  0
  -11.3585   -2.3628    0.0000 C   0  0  0  0  0  0  0  0  0  0  0  0
   -6.8035    3.7611    0.0000 C   0  0  0  0  0  0  0  0  0  0  0  0
   -8.1738    4.3712    0.0000 C   0  0  0  0  0  0  0  0  0  0  0  0
   -8.3306    5.8630    0.0000 C   0  0  0  0  0  0  0  0  0  0  0  0
   -7.1171    6.7447    0.0000 C   0  0  0  0  0  0  0  0  0  0  0  0
   -5.7468    6.1345    0.0000 C   0  0  0  0  0  0  0  0  0  0  0  0
   -5.5900    4.6428    0.0000 C   0  0  0  0  0  0  0  0  0  0  0  0
   -0.4086    3.6844    0.0000 C   0  0  0  0  0  0  0  0  0  0  0  0
   -0.0967    5.1517    0.0000 O   0  0  0  0  0  0  0  0  0  0  0  0
    0.7062    2.6807    0.0000 N   0  0  0  0  0  0  0  0  0  0  0  0
    0.3943    1.2135    0.0000 C   0  0  0  0  0  0  0  0  0  0  0  0
    1.2760    0.0000    0.0000 S   0  0  0  0  0  0  0  0  0  0  0  0
    0.3943   -1.2135    0.0000 C   0  0  0  0  0  0  0  0  0  0  0  0
    0.8578   -2.6401    0.0000 S   0  0  0  0  0  0  0  0  0  0  0  0
    1.3213   -4.0667    0.0000 C   0  0  0  0  0  0  0  0  0  0  0  0
    2.2844   -2.1766    0.0000 O   0  0  0  0  0  0  0  0  0  0  0  0
   -0.5688   -3.1036    0.0000 O   0  0  0  0  0  0  0  0  0  0  0  0
   -1.0323   -0.7500    0.0000 N   0  0  0  0  0  0  0  0  0  0  0  0
   -1.0323    0.7500    0.0000 N   0  0  0  0  0  0  0  0  0  0  0  0
  1  2  1  0
  2  3  2  0
  3  4  1  0
  4  5  2  0
  5  6  1  0
  6  7  2  0
  7  8  1  0
  8  9  1  0
  9 10  1  0
 10 11  1  0
 11 12  1  0
 12 13  2  0
 13 14  1  0
 13 15  1  0
 15 16  2  0
 16 17  1  0
 17 18  2  0
 18 19  1  0
  8 20  1  0
 20 21  2  0
 21 22  1  0
 22 23  2  0
 23 24  1  0
 24 25  2  0
  4 26  1  0
 26 27  2  0
 26 28  1  0
 28 29  2  0
 29 30  1  0
 30 31  1  0
 31 32  1  0
 32 33  1  0
 32 34  2  0
 32 35  2  0
 31 36  2  0
 36 37  1  0
 37  3  1  0
 25  6  1  0
 37 29  1  0
 18 12  1  0
 25 20  1  0
M  END
>  <Compound_ID>  (235) 
C20207700

>  <Active>  (235) 
0.0

>  <Smiles>  (235) 
[H]/N=C1C(=C\c2cn(CCOc3c(C)cccc3C)c3ccccc23)/C(=O)N=C2SC(S(C)(=O)=O)=NN2/1

>  <canonical_smi>  (235) 
[H]/N=C1C(=C\c2cn(CCOc3c(C)cccc3C)c3ccccc23)/C(=O)N=C2SC(S(C)(=O)=O)=NN2/1

>  <Set>  (235) 
G2 inactive

>  <Set_type>  (235) 
Train

>  <MW>  (235) 
521.62

>  <HBD>  (235) 
1

>  <HBA>  (235) 
6

>  <NRB>  (235) 
5

>  <NR>  (235) 
5

>  <NAR>  (235) 
3

>  <PSA>  (235) 
117.18

>  <Standard Type>  (235) 
nan

>  <Standard Relation>  (235) 
nan

>  <Standard Units>  (235) 
nan

>  <Standard Value>  (235) 
nan

>  <Assay ChEMBL ID>  (235) 
nan

>  <Assay Description>  (235) 
nan

>  <BAO Label>  (235) 
nan

$$$$

     RDKit          2D

 32 35  0  0  0  0  0  0  0  0999 V2000
    3.7500   -1.2990    0.0000 C   0  0  0  0  0  0  0  0  0  0  0  0
    3.0000    0.0000    0.0000 O   0  0  0  0  0  0  0  0  0  0  0  0
    1.5000    0.0000    0.0000 C   0  0  0  0  0  0  0  0  0  0  0  0
    0.7500   -1.2990    0.0000 O   0  0  0  0  0  0  0  0  0  0  0  0
   -0.7500   -1.2990    0.0000 C   0  0  0  0  0  0  0  0  0  0  0  0
   -1.5000   -2.5981    0.0000 C   0  0  0  0  0  0  0  0  0  0  0  0
   -0.7500   -3.8971    0.0000 O   0  0  0  0  0  0  0  0  0  0  0  0
   -1.5000   -5.1962    0.0000 C   0  0  0  0  0  0  0  0  0  0  0  0
   -0.2010   -5.9462    0.0000 C   0  0  0  0  0  0  0  0  0  0  0  0
   -0.2010   -7.4462    0.0000 C   0  0  0  0  0  0  0  0  0  0  0  0
    1.0981   -8.1962    0.0000 C   0  0  0  0  0  0  0  0  0  0  0  0
    2.3971   -7.4462    0.0000 C   0  0  0  0  0  0  0  0  0  0  0  0
    2.3971   -5.9462    0.0000 C   0  0  0  0  0  0  0  0  0  0  0  0
    1.0981   -5.1962    0.0000 C   0  0  0  0  0  0  0  0  0  0  0  0
   -2.7990   -4.4462    0.0000 C   0  0  0  0  0  0  0  0  0  0  0  0
   -2.7990   -2.9462    0.0000 C   0  0  0  0  0  0  0  0  0  0  0  0
   -4.0981   -2.1962    0.0000 C   0  0  0  0  0  0  0  0  0  0  0  0
   -5.3971   -2.9462    0.0000 C   0  0  0  0  0  0  0  0  0  0  0  0
   -5.3971   -4.4462    0.0000 C   0  0  0  0  0  0  0  0  0  0  0  0
   -4.0981   -5.1962    0.0000 C   0  0  0  0  0  0  0  0  0  0  0  0
   -2.2500   -6.4952    0.0000 C   0  0  0  0  0  0  0  0  0  0  0  0
   -3.7500   -6.4952    0.0000 C   0  0  0  0  0  0  0  0  0  0  0  0
   -4.5000   -7.7942    0.0000 C   0  0  0  0  0  0  0  0  0  0  0  0
   -3.7500   -9.0933    0.0000 C   0  0  0  0  0  0  0  0  0  0  0  0
   -2.2500   -9.0933    0.0000 C   0  0  0  0  0  0  0  0  0  0  0  0
   -1.5000   -7.7942    0.0000 C   0  0  0  0  0  0  0  0  0  0  0  0
   -1.5000    0.0000    0.0000 C   0  0  0  0  0  0  0  0  0  0  0  0
   -3.0000    0.0000    0.0000 O   0  0  0  0  0  0  0  0  0  0  0  0
   -0.7500    1.2990    0.0000 C   0  0  0  0  0  0  0  0  0  0  0  0
   -1.5000    2.5981    0.0000 O   0  0  0  0  0  0  0  0  0  0  0  0
    0.7500    1.2990    0.0000 C   0  0  0  0  0  0  0  0  0  0  0  0
    1.5000    2.5981    0.0000 O   0  0  0  0  0  0  0  0  0  0  0  0
  1  2  1  0
  3  2  1  6
  3  4  1  0
  4  5  1  0
  5  6  1  6
  6  7  1  0
  7  8  1  0
  8  9  1  0
  9 10  2  0
 10 11  1  0
 11 12  2  0
 12 13  1  0
 13 14  2  0
  8 15  1  0
 15 16  2  0
 16 17  1  0
 17 18  2  0
 18 19  1  0
 19 20  2  0
  8 21  1  0
 21 22  2  0
 22 23  1  0
 23 24  2  0
 24 25  1  0
 25 26  2  0
  5 27  1  0
 27 28  1  6
 27 29  1  0
 29 30  1  6
 29 31  1  0
 31 32  1  6
 31  3  1  0
 14  9  1  0
 20 15  1  0
 26 21  1  0
M  END
>  <Compound_ID>  (236) 
C22063904

>  <Active>  (236) 
0.0

>  <Smiles>  (236) 
CO[C@@H]1O[C@H](COC(c2ccccc2)(c2ccccc2)c2ccccc2)[C@H](O)[C@H](O)[C@@H]1O

>  <canonical_smi>  (236) 
CO[C@@H]1O[C@H](COC(c2ccccc2)(c2ccccc2)c2ccccc2)[C@H](O)[C@H](O)[C@@H]1O

>  <Set>  (236) 
G2 inactive

>  <Set_type>  (236) 
Train

>  <MW>  (236) 
436.5

>  <HBD>  (236) 
3

>  <HBA>  (236) 
6

>  <NRB>  (236) 
7

>  <NR>  (236) 
4

>  <NAR>  (236) 
3

>  <PSA>  (236) 
88.38

>  <Standard Type>  (236) 
nan

>  <Standard Relation>  (236) 
nan

>  <Standard Units>  (236) 
nan

>  <Standard Value>  (236) 
nan

>  <Assay ChEMBL ID>  (236) 
nan

>  <Assay Description>  (236) 
nan

>  <BAO Label>  (236) 
nan

$$$$

     RDKit          2D

 32 36  0  0  0  0  0  0  0  0999 V2000
   -7.4687  -11.2013    0.0000 C   0  0  0  0  0  0  0  0  0  0  0  0
   -6.5870   -9.9877    0.0000 C   0  0  0  0  0  0  0  0  0  0  0  0
   -5.0952  -10.1445    0.0000 C   0  0  0  0  0  0  0  0  0  0  0  0
   -4.2135   -8.9310    0.0000 C   0  0  0  0  0  0  0  0  0  0  0  0
   -2.7135   -8.9310    0.0000 O   0  0  0  0  0  0  0  0  0  0  0  0
   -2.2500   -7.5044    0.0000 C   0  0  0  0  0  0  0  0  0  0  0  0
   -1.0365   -6.6227    0.0000 C   0  0  0  0  0  0  0  0  0  0  0  0
   -1.5000   -5.1962    0.0000 C   0  0  0  0  0  0  0  0  0  0  0  0
   -0.7500   -3.8971    0.0000 C   0  0  0  0  0  0  0  0  0  0  0  0
    0.7500   -3.8971    0.0000 C   0  0  0  0  0  0  0  0  0  0  0  0
    1.5000   -2.5981    0.0000 C   0  0  0  0  0  0  0  0  0  0  0  0
    3.0000   -2.5981    0.0000 O   0  0  0  0  0  0  0  0  0  0  0  0
    0.7500   -1.2990    0.0000 C   0  0  0  0  0  0  0  0  0  0  0  0
    1.5000    0.0000    0.0000 C   0  0  0  0  0  0  0  0  0  0  0  0
    0.7500    1.2990    0.0000 C   0  0  0  0  0  0  0  0  0  0  0  0
    1.5000    2.5981    0.0000 O   0  0  0  0  0  0  0  0  0  0  0  0
   -0.7500    1.2990    0.0000 C   0  0  0  0  0  0  0  0  0  0  0  0
   -1.5000    0.0000    0.0000 C   0  0  0  0  0  0  0  0  0  0  0  0
   -0.7500   -1.2990    0.0000 C   0  0  0  0  0  0  0  0  0  0  0  0
   -2.2500   -1.2990    0.0000 C   0  0  0  0  0  0  0  0  0  0  0  0
   -1.5000   -2.5981    0.0000 C   0  0  0  0  0  0  0  0  0  0  0  0
   -3.0000   -2.5981    0.0000 C   0  0  0  0  0  0  0  0  0  0  0  0
   -3.7500   -1.2990    0.0000 O   0  0  0  0  0  0  0  0  0  0  0  0
   -3.7500   -3.8971    0.0000 C   0  0  0  0  0  0  0  0  0  0  0  0
   -3.0000   -5.1962    0.0000 C   0  0  0  0  0  0  0  0  0  0  0  0
   -4.4918   -5.3529    0.0000 C   0  0  0  0  0  0  0  0  0  0  0  0
   -3.4635   -6.6227    0.0000 C   0  0  0  0  0  0  0  0  0  0  0  0
   -1.9635   -6.6227    0.0000 C   0  0  0  0  0  0  0  0  0  0  0  0
   -1.4097   -6.0493    0.0000 O   0  0  0  0  0  0  0  0  0  0  0  0
   -1.2135   -7.9218    0.0000 C   0  0  0  0  0  0  0  0  0  0  0  0
    0.2865   -7.9218    0.0000 O   0  0  0  0  0  0  0  0  0  0  0  0
   -4.6771   -7.5044    0.0000 O   0  0  0  0  0  0  0  0  0  0  0  0
  1  2  1  0
  2  3  1  0
  4  3  1  1
  4  5  1  0
  5  6  1  0
  6  7  1  1
  8  7  1  1
  8  9  1  0
  9 10  1  1
 10 11  1  0
 11 12  1  1
 11 13  1  0
 13 14  2  0
 14 15  1  0
 15 16  2  0
 15 17  1  0
 17 18  2  0
 18 19  1  0
 19 20  1  6
 19 21  1  0
 21 22  1  1
 22 23  1  6
 22 24  1  0
 24 25  1  0
 25 26  1  6
 25 27  1  0
 27 28  1  6
 28 29  2  0
 28 30  1  0
 30 31  1  0
 27 32  1  0
 32  4  1  0
 27  6  1  0
 25  8  1  0
 21  9  1  0
 19 13  1  0
M  END
>  <Compound_ID>  (237) 
C44963427

>  <Active>  (237) 
0.0

>  <Smiles>  (237) 
CCC[C@@H]1O[C@@H]2C[C@@H]3[C@@H]4C[C@H](O)C5=CC(=O)C=C[C@]5(C)[C@@H]4[C@@H](O)C[C@]3(C)[C@]2(C(=O)CO)O1

>  <canonical_smi>  (237) 
CCC[C@@H]1O[C@@H]2C[C@@H]3[C@@H]4C[C@H](O)C5=CC(=O)C=C[C@]5(C)[C@@H]4[C@@H](O)C[C@]3(C)[C@]2(C(=O)CO)O1

>  <Set>  (237) 
G2 inactive

>  <Set_type>  (237) 
Train

>  <MW>  (237) 
446.54

>  <HBD>  (237) 
3

>  <HBA>  (237) 
7

>  <NRB>  (237) 
4

>  <NR>  (237) 
5

>  <NAR>  (237) 
0

>  <PSA>  (237) 
113.29

>  <Standard Type>  (237) 
nan

>  <Standard Relation>  (237) 
nan

>  <Standard Units>  (237) 
nan

>  <Standard Value>  (237) 
nan

>  <Assay ChEMBL ID>  (237) 
nan

>  <Assay Description>  (237) 
nan

>  <BAO Label>  (237) 
nan

$$$$

     RDKit          2D

 19 18  0  0  0  0  0  0  0  0999 V2000
    0.0000    3.0000    0.0000 O   0  0  0  0  0  0  0  0  0  0  0  0
   -1.2990    2.2500    0.0000 C   0  0  0  0  0  0  0  0  0  0  0  0
   -2.5981    3.0000    0.0000 N   0  0  0  0  0  0  0  0  0  0  0  0
   -2.5981    4.5000    0.0000 C   0  0  0  0  0  0  0  0  0  0  0  0
   -1.2990    5.2500    0.0000 O   0  0  0  0  0  0  0  0  0  0  0  0
   -3.8971    5.2500    0.0000 C   0  0  0  0  0  0  0  0  0  0  0  0
   -5.1962    6.0000    0.0000 Cl  0  0  0  0  0  0  0  0  0  0  0  0
   -3.1471    6.5490    0.0000 Cl  0  0  0  0  0  0  0  0  0  0  0  0
   -4.6471    3.9510    0.0000 Cl  0  0  0  0  0  0  0  0  0  0  0  0
   -1.2990    0.7500    0.0000 N   0  0  0  0  0  0  0  0  0  0  0  0
    0.0000    0.0000    0.0000 C   0  0  0  0  0  0  0  0  0  0  0  0
    1.2990    0.7500    0.0000 C   0  0  0  0  0  0  0  0  0  0  0  0
    2.5981   -0.0000    0.0000 O   0  0  0  0  0  0  0  0  0  0  0  0
   -2.5981    0.0000    0.0000 C   0  0  0  0  0  0  0  0  0  0  0  0
   -2.5981   -1.5000    0.0000 O   0  0  0  0  0  0  0  0  0  0  0  0
   -3.8971    0.7500    0.0000 C   0  0  0  0  0  0  0  0  0  0  0  0
   -5.1962    1.5000    0.0000 Cl  0  0  0  0  0  0  0  0  0  0  0  0
   -4.6471   -0.5490    0.0000 Cl  0  0  0  0  0  0  0  0  0  0  0  0
   -3.1471    2.0490    0.0000 Cl  0  0  0  0  0  0  0  0  0  0  0  0
  1  2  2  0
  2  3  1  0
  3  4  1  0
  4  5  1  6
  4  6  1  0
  6  7  1  0
  6  8  1  0
  6  9  1  0
  2 10  1  0
 10 11  1  0
 11 12  1  0
 12 13  1  0
 10 14  1  0
 14 15  1  1
 14 16  1  0
 16 17  1  0
 16 18  1  0
 16 19  1  0
M  END
>  <Compound_ID>  (238) 
C01675715

>  <Active>  (238) 
0.0

>  <Smiles>  (238) 
O=C(N[C@@H](O)C(Cl)(Cl)Cl)N(CCO)[C@@H](O)C(Cl)(Cl)Cl

>  <canonical_smi>  (238) 
O=C(N[C@@H](O)C(Cl)(Cl)Cl)N(CCO)[C@@H](O)C(Cl)(Cl)Cl

>  <Set>  (238) 
G2 inactive

>  <Set_type>  (238) 
Train

>  <MW>  (238) 
398.88

>  <HBD>  (238) 
4

>  <HBA>  (238) 
4

>  <NRB>  (238) 
4

>  <NR>  (238) 
0

>  <NAR>  (238) 
0

>  <PSA>  (238) 
93.03

>  <Standard Type>  (238) 
nan

>  <Standard Relation>  (238) 
nan

>  <Standard Units>  (238) 
nan

>  <Standard Value>  (238) 
nan

>  <Assay ChEMBL ID>  (238) 
nan

>  <Assay Description>  (238) 
nan

>  <BAO Label>  (238) 
nan

$$$$

     RDKit          2D

 26 27  0  0  0  0  0  0  0  0999 V2000
    5.2500   -1.2990    0.0000 C   0  0  0  0  0  0  0  0  0  0  0  0
    3.7500   -1.2990    0.0000 N   0  0  0  0  0  0  0  0  0  0  0  0
    3.0000    0.0000    0.0000 C   0  0  0  0  0  0  0  0  0  0  0  0
    3.7500    1.2990    0.0000 O   0  0  0  0  0  0  0  0  0  0  0  0
    1.5000    0.0000    0.0000 C   0  0  0  0  0  0  0  0  0  0  0  0
    0.7500   -1.2990    0.0000 C   0  0  0  0  0  0  0  0  0  0  0  0
   -0.7500   -1.2990    0.0000 C   0  0  0  0  0  0  0  0  0  0  0  0
   -1.5000    0.0000    0.0000 C   0  0  0  0  0  0  0  0  0  0  0  0
   -3.0000    0.0000    0.0000 N   0  0  0  0  0  0  0  0  0  0  0  0
   -3.7500   -1.2990    0.0000 C   0  0  0  0  0  0  0  0  0  0  0  0
   -3.0000   -2.5981    0.0000 O   0  0  0  0  0  0  0  0  0  0  0  0
   -5.2500   -1.2990    0.0000 C   0  0  0  0  0  0  0  0  0  0  0  0
   -6.0000    0.0000    0.0000 O   0  0  0  0  0  0  0  0  0  0  0  0
   -6.0000   -2.5981    0.0000 N   0  0  0  0  0  0  0  0  0  0  0  0
   -7.5000   -2.5981    0.0000 N   0  0  0  0  0  0  0  0  0  0  0  0
   -8.2500   -3.8971    0.0000 C   0  0  0  0  0  0  0  0  0  0  0  0
   -9.7500   -3.8971    0.0000 C   0  0  0  0  0  0  0  0  0  0  0  0
  -10.5000   -5.1962    0.0000 C   0  0  0  0  0  0  0  0  0  0  0  0
   -9.7500   -6.4952    0.0000 C   0  0  0  0  0  0  0  0  0  0  0  0
  -10.5000   -7.7942    0.0000 Cl  0  0  0  0  0  0  0  0  0  0  0  0
   -8.2500   -6.4952    0.0000 C   0  0  0  0  0  0  0  0  0  0  0  0
   -7.5000   -5.1962    0.0000 C   0  0  0  0  0  0  0  0  0  0  0  0
   -6.0000   -5.1962    0.0000 Cl  0  0  0  0  0  0  0  0  0  0  0  0
   -0.7500    1.2990    0.0000 C   0  0  0  0  0  0  0  0  0  0  0  0
   -1.5000    2.5981    0.0000 C   0  0  0  0  0  0  0  0  0  0  0  0
    0.7500    1.2990    0.0000 C   0  0  0  0  0  0  0  0  0  0  0  0
  1  2  1  0
  2  3  1  0
  3  4  2  0
  3  5  1  0
  5  6  2  0
  6  7  1  0
  7  8  2  0
  8  9  1  0
  9 10  1  0
 10 11  2  0
 10 12  1  0
 12 13  2  0
 12 14  1  0
 14 15  1  0
 15 16  1  0
 16 17  2  0
 17 18  1  0
 18 19  2  0
 19 20  1  0
 19 21  1  0
 21 22  2  0
 22 23  1  0
  8 24  1  0
 24 25  1  0
 24 26  2  0
 26  5  1  0
 22 16  1  0
M  END
>  <Compound_ID>  (239) 
C50577822

>  <Active>  (239) 
0.0

>  <Smiles>  (239) 
CNC(=O)c1ccc(NC(=O)C(=O)NNc2ccc(Cl)cc2Cl)c(C)c1

>  <canonical_smi>  (239) 
CNC(=O)c1ccc(NC(=O)C(=O)NNc2ccc(Cl)cc2Cl)c(C)c1

>  <Set>  (239) 
G2 inactive

>  <Set_type>  (239) 
Train

>  <MW>  (239) 
395.25

>  <HBD>  (239) 
4

>  <HBA>  (239) 
4

>  <NRB>  (239) 
4

>  <NR>  (239) 
2

>  <NAR>  (239) 
2

>  <PSA>  (239) 
99.33

>  <Standard Type>  (239) 
nan

>  <Standard Relation>  (239) 
nan

>  <Standard Units>  (239) 
nan

>  <Standard Value>  (239) 
nan

>  <Assay ChEMBL ID>  (239) 
nan

>  <Assay Description>  (239) 
nan

>  <BAO Label>  (239) 
nan

$$$$

     RDKit          2D

 30 34  0  0  0  0  0  0  0  0999 V2000
    0.3326  -10.8791    0.0000 N   0  0  0  0  0  0  0  0  0  0  0  0
   -0.5490   -9.6656    0.0000 C   0  0  0  0  0  0  0  0  0  0  0  0
   -0.0855   -8.2390    0.0000 C   0  0  0  0  0  0  0  0  0  0  0  0
    1.3411   -7.7755    0.0000 C   0  0  0  0  0  0  0  0  0  0  0  0
    2.4558   -8.7791    0.0000 C   0  0  0  0  0  0  0  0  0  0  0  0
    3.8824   -8.3156    0.0000 C   0  0  0  0  0  0  0  0  0  0  0  0
    4.1942   -6.8484    0.0000 C   0  0  0  0  0  0  0  0  0  0  0  0
    3.0795   -5.8447    0.0000 C   0  0  0  0  0  0  0  0  0  0  0  0
    1.6529   -6.3082    0.0000 C   0  0  0  0  0  0  0  0  0  0  0  0
   -1.2990   -7.3573    0.0000 C   0  0  0  0  0  0  0  0  0  0  0  0
   -1.2990   -5.8573    0.0000 C   0  0  0  0  0  0  0  0  0  0  0  0
   -0.0000   -5.1073    0.0000 S   0  0  0  0  0  0  0  0  0  0  0  0
   -0.0000   -3.6073    0.0000 C   0  0  0  0  0  0  0  0  0  0  0  0
    1.2135   -2.7256    0.0000 N   0  0  0  0  0  4  0  0  0  0  0  0
    0.7500   -1.2990    0.0000 C   0  0  0  0  0  0  0  0  0  0  0  0
    1.5000    0.0000    0.0000 C   0  0  0  0  0  0  0  0  0  0  0  0
    0.7500    1.2990    0.0000 C   0  0  0  0  0  0  0  0  0  0  0  0
   -0.7500    1.2990    0.0000 C   0  0  0  0  0  0  0  0  0  0  0  0
   -1.5000    0.0000    0.0000 C   0  0  0  0  0  0  0  0  0  0  0  0
   -0.7500   -1.2990    0.0000 C   0  0  0  0  0  0  0  0  0  0  0  0
   -1.2135   -2.7256    0.0000 N   0  0  0  0  0  4  0  0  0  0  0  0
   -2.5126   -8.2390    0.0000 N   0  0  0  0  0  0  0  0  0  0  0  0
   -2.0490   -9.6656    0.0000 N   0  0  0  0  0  0  0  0  0  0  0  0
   -2.9307  -10.8791    0.0000 C   0  0  0  0  0  0  0  0  0  0  0  0
   -4.4225  -10.7223    0.0000 C   0  0  0  0  0  0  0  0  0  0  0  0
   -5.3042  -11.9358    0.0000 C   0  0  0  0  0  0  0  0  0  0  0  0
   -4.6941  -13.3061    0.0000 C   0  0  0  0  0  0  0  0  0  0  0  0
   -3.2023  -13.4629    0.0000 C   0  0  0  0  0  0  0  0  0  0  0  0
   -2.5922  -14.8333    0.0000 Cl  0  0  0  0  0  0  0  0  0  0  0  0
   -2.3206  -12.2494    0.0000 C   0  0  0  0  0  0  0  0  0  0  0  0
  2  1  1  6
  2  3  1  0
  3  4  1  0
  4  5  2  0
  5  6  1  0
  6  7  2  0
  7  8  1  0
  8  9  2  0
  3 10  2  0
 10 11  1  0
 11 12  1  0
 12 13  1  0
 13 14  1  0
 14 15  2  0
 15 16  1  0
 16 17  2  0
 17 18  1  0
 18 19  2  0
 19 20  1  0
 20 21  2  0
 10 22  1  0
 22 23  1  0
 23 24  1  0
 24 25  2  0
 25 26  1  0
 26 27  2  0
 27 28  1  0
 28 29  1  0
 28 30  2  0
 23  2  1  0
 30 24  1  0
  9  4  1  0
 21 13  1  0
 20 15  1  0
M  CHG  2  14   1  21   1
M  END
>  <Compound_ID>  (240) 
C63938142

>  <Active>  (240) 
0.0

>  <Smiles>  (240) 
N[C@H]1C(c2ccccc2)=C(CSC2[NH+]=c3ccccc3=[NH+]2)NN1c1cccc(Cl)c1

>  <canonical_smi>  (240) 
N[C@H]1C(c2ccccc2)=C(CSC2[NH+]=c3ccccc3=[NH+]2)NN1c1cccc(Cl)c1

>  <Set>  (240) 
G2 inactive

>  <Set_type>  (240) 
Train

>  <MW>  (240) 
435.98

>  <HBD>  (240) 
4

>  <HBA>  (240) 
4

>  <NRB>  (240) 
5

>  <NR>  (240) 
5

>  <NAR>  (240) 
3

>  <PSA>  (240) 
69.23

>  <Standard Type>  (240) 
nan

>  <Standard Relation>  (240) 
nan

>  <Standard Units>  (240) 
nan

>  <Standard Value>  (240) 
nan

>  <Assay ChEMBL ID>  (240) 
nan

>  <Assay Description>  (240) 
nan

>  <BAO Label>  (240) 
nan

$$$$

     RDKit          2D

 33 35  0  0  0  0  0  0  0  0999 V2000
    3.7500   -1.2990    0.0000 C   0  0  0  0  0  0  0  0  0  0  0  0
    3.0000    0.0000    0.0000 O   0  0  0  0  0  0  0  0  0  0  0  0
    1.5000    0.0000    0.0000 C   0  0  0  0  0  0  0  0  0  0  0  0
    0.7500   -1.2990    0.0000 C   0  0  0  0  0  0  0  0  0  0  0  0
   -0.7500   -1.2990    0.0000 C   0  0  0  0  0  0  0  0  0  0  0  0
   -1.5000    0.0000    0.0000 C   0  0  0  0  0  0  0  0  0  0  0  0
   -3.0000    0.0000    0.0000 C   0  0  0  0  0  0  0  0  0  0  0  0
   -3.7500   -1.2990    0.0000 O   0  0  0  0  0  0  0  0  0  0  0  0
   -3.7500    1.2990    0.0000 O   0  0  0  0  0  0  0  0  0  0  0  0
   -5.2500    1.2990    0.0000 C   0  0  0  0  0  0  0  0  0  0  0  0
   -6.0000    2.5981    0.0000 C   0  0  0  0  0  0  0  0  0  0  0  0
   -7.5000    2.5981    0.0000 C   0  0  0  0  0  0  0  0  0  0  0  0
   -8.2500    1.2990    0.0000 C   0  0  0  0  0  0  0  0  0  0  0  0
   -9.7500    1.2990    0.0000 C   0  0  0  0  0  0  0  0  0  0  0  0
  -10.5000    2.5981    0.0000 N   0  0  0  0  0  0  0  0  0  0  0  0
  -12.0000    2.5981    0.0000 N   0  0  0  0  0  0  0  0  0  0  0  0
  -12.7500    3.8971    0.0000 C   0  0  0  0  0  0  0  0  0  0  0  0
  -12.0000    5.1962    0.0000 O   0  0  0  0  0  0  0  0  0  0  0  0
  -14.2500    3.8971    0.0000 C   0  0  0  0  0  0  0  0  0  0  0  0
  -15.0000    5.1962    0.0000 N   0  0  0  0  0  0  0  0  0  0  0  0
  -16.5000    5.1962    0.0000 C   0  0  0  0  0  0  0  0  0  0  0  0
  -17.2500    3.8971    0.0000 O   0  0  0  0  0  0  0  0  0  0  0  0
  -17.2500    6.4952    0.0000 C   0  0  0  0  0  0  0  0  0  0  0  0
  -16.5000    7.7942    0.0000 C   0  0  0  0  0  0  0  0  0  0  0  0
  -17.2500    9.0933    0.0000 C   0  0  0  0  0  0  0  0  0  0  0  0
  -18.7500    9.0933    0.0000 C   0  0  0  0  0  0  0  0  0  0  0  0
  -19.5000    7.7942    0.0000 C   0  0  0  0  0  0  0  0  0  0  0  0
  -21.0000    7.7942    0.0000 Br  0  0  0  0  0  0  0  0  0  0  0  0
  -18.7500    6.4952    0.0000 C   0  0  0  0  0  0  0  0  0  0  0  0
   -7.5000    0.0000    0.0000 C   0  0  0  0  0  0  0  0  0  0  0  0
   -6.0000    0.0000    0.0000 C   0  0  0  0  0  0  0  0  0  0  0  0
   -0.7500    1.2990    0.0000 C   0  0  0  0  0  0  0  0  0  0  0  0
    0.7500    1.2990    0.0000 C   0  0  0  0  0  0  0  0  0  0  0  0
  1  2  1  0
  2  3  1  0
  3  4  2  0
  4  5  1  0
  5  6  2  0
  6  7  1  0
  7  8  2  0
  7  9  1  0
  9 10  1  0
 10 11  2  0
 11 12  1  0
 12 13  2  0
 13 14  1  0
 14 15  2  0
 15 16  1  0
 16 17  1  0
 17 18  2  0
 17 19  1  0
 19 20  1  0
 20 21  1  0
 21 22  2  0
 21 23  1  0
 23 24  2  0
 24 25  1  0
 25 26  2  0
 26 27  1  0
 27 28  1  0
 27 29  2  0
 13 30  1  0
 30 31  2  0
  6 32  1  0
 32 33  2  0
 33  3  1  0
 31 10  1  0
 29 23  1  0
M  END
>  <Compound_ID>  (241) 
C02532037

>  <Active>  (241) 
0.0

>  <Smiles>  (241) 
COc1ccc(C(=O)Oc2ccc(/C=N/NC(=O)CNC(=O)c3cccc(Br)c3)cc2)cc1

>  <canonical_smi>  (241) 
COc1ccc(C(=O)Oc2ccc(/C=N/NC(=O)CNC(=O)c3cccc(Br)c3)cc2)cc1

>  <Set>  (241) 
G2 inactive

>  <Set_type>  (241) 
Train

>  <MW>  (241) 
510.34

>  <HBD>  (241) 
2

>  <HBA>  (241) 
5

>  <NRB>  (241) 
8

>  <NR>  (241) 
3

>  <NAR>  (241) 
3

>  <PSA>  (241) 
106.09

>  <Standard Type>  (241) 
nan

>  <Standard Relation>  (241) 
nan

>  <Standard Units>  (241) 
nan

>  <Standard Value>  (241) 
nan

>  <Assay ChEMBL ID>  (241) 
nan

>  <Assay Description>  (241) 
nan

>  <BAO Label>  (241) 
nan

$$$$

     RDKit          2D

 28 32  0  0  0  0  0  0  0  0999 V2000
   -1.6230   -3.9081    0.0000 C   0  0  0  0  0  0  0  0  0  0  0  0
   -1.7537   -2.4138    0.0000 C   0  0  0  0  0  0  0  0  0  0  0  0
   -0.7500   -1.2990    0.0000 C   0  0  0  0  0  0  0  0  0  0  0  0
    0.7500   -1.2990    0.0000 C   0  0  0  0  0  0  0  0  0  0  0  0
    1.5000   -2.5981    0.0000 C   0  0  0  0  0  0  0  0  0  0  0  0
    3.0000   -2.5981    0.0000 C   0  0  0  0  0  0  0  0  0  0  0  0
    3.7500   -1.2990    0.0000 Cl  0  0  0  0  0  0  0  0  0  0  0  0
    3.7500   -3.8971    0.0000 C   0  0  0  0  0  0  0  0  0  0  0  0
    3.0000   -5.1962    0.0000 C   0  0  0  0  0  0  0  0  0  0  0  0
    1.5000   -5.1962    0.0000 C   0  0  0  0  0  0  0  0  0  0  0  0
    0.7500   -3.8971    0.0000 C   0  0  0  0  0  0  0  0  0  0  0  0
   -0.7388   -4.0800    0.0000 Cl  0  0  0  0  0  0  0  0  0  0  0  0
    1.5000    0.0000    0.0000 C   0  0  0  0  0  0  0  0  0  0  0  0
    0.7500    1.2990    0.0000 C   0  0  0  0  0  0  0  0  0  0  0  0
    1.5000    2.5981    0.0000 O   0  0  0  0  0  0  0  0  0  0  0  0
   -0.7500    1.2990    0.0000 N   0  0  0  0  0  0  0  0  0  0  0  0
   -1.5000    0.0000    0.0000 C   0  0  0  0  0  0  0  0  0  0  0  0
   -2.9672   -0.3119    0.0000 N   0  0  0  0  0  0  0  0  0  0  0  0
   -4.0819    0.6918    0.0000 C   0  0  0  0  0  0  0  0  0  0  0  0
   -3.7701    2.1590    0.0000 N   0  0  0  0  0  0  0  0  0  0  0  0
   -4.8848    3.1627    0.0000 C   0  0  0  0  0  0  0  0  0  0  0  0
   -6.3114    2.6992    0.0000 N   0  0  0  0  0  0  0  0  0  0  0  0
   -6.6232    1.2320    0.0000 C   0  0  0  0  0  0  0  0  0  0  0  0
   -7.9223    0.4820    0.0000 N   0  0  0  0  0  0  0  0  0  0  0  0
   -7.6104   -0.9852    0.0000 C   0  0  0  0  0  0  0  0  0  0  0  0
   -6.1186   -1.1420    0.0000 N   0  0  0  0  0  0  0  0  0  0  0  0
   -5.5085    0.2283    0.0000 C   0  0  0  0  0  0  0  0  0  0  0  0
   -3.1240   -1.8037    0.0000 N   0  0  0  0  0  0  0  0  0  0  0  0
  1  2  1  0
  2  3  2  0
  3  4  1  0
  4  5  1  1
  5  6  2  0
  6  7  1  0
  6  8  1  0
  8  9  2  0
  9 10  1  0
 10 11  2  0
 11 12  1  0
  4 13  1  0
 13 14  1  0
 14 15  1  0
 14 16  2  0
 16 17  1  0
 17 18  1  1
 18 19  1  0
 19 20  2  0
 20 21  1  0
 21 22  2  0
 22 23  1  0
 23 24  2  0
 24 25  1  0
 25 26  2  0
 27 26  1  1
 18 28  1  0
 28  2  1  0
 17  3  1  0
 27 19  1  0
 11  5  1  0
 27 23  1  0
M  END
>  <Compound_ID>  (242) 
C38586321

>  <Active>  (242) 
0.0

>  <Smiles>  (242) 
CC1=C2[C@H](c3c(Cl)cccc3Cl)CC(O)=N[C@@H]2N(C2=NC=NC3=NC=N[C@@H]32)N1

>  <canonical_smi>  (242) 
CC1=C2[C@H](c3c(Cl)cccc3Cl)CC(O)=N[C@@H]2N(C2=NC=NC3=NC=N[C@@H]32)N1

>  <Set>  (242) 
G2 inactive

>  <Set_type>  (242) 
Train

>  <MW>  (242) 
416.27

>  <HBD>  (242) 
2

>  <HBA>  (242) 
3

>  <NRB>  (242) 
1

>  <NR>  (242) 
5

>  <NAR>  (242) 
1

>  <PSA>  (242) 
97.3

>  <Standard Type>  (242) 
nan

>  <Standard Relation>  (242) 
nan

>  <Standard Units>  (242) 
nan

>  <Standard Value>  (242) 
nan

>  <Assay ChEMBL ID>  (242) 
nan

>  <Assay Description>  (242) 
nan

>  <BAO Label>  (242) 
nan

$$$$

     RDKit          2D

 39 40  0  0  0  0  0  0  0  0999 V2000
   -2.0977   -7.4685    0.0000 C   0  0  0  0  0  0  0  0  0  0  0  0
   -0.8689   -6.6081    0.0000 C   0  0  0  0  0  0  0  0  0  0  0  0
    0.4905   -7.2420    0.0000 C   0  0  0  0  0  0  0  0  0  0  0  0
   -0.9997   -5.1138    0.0000 N   0  0  0  0  0  0  0  0  0  0  0  0
    0.2291   -4.2535    0.0000 C   0  0  0  0  0  0  0  0  0  0  0  0
    1.7063   -4.5139    0.0000 N   0  0  0  0  0  0  0  0  0  0  0  0
    2.5666   -5.7427    0.0000 C   0  0  0  0  0  0  0  0  0  0  0  0
    1.9327   -7.1021    0.0000 C   0  0  0  0  0  0  0  0  0  0  0  0
    4.0609   -5.6119    0.0000 C   0  0  0  0  0  0  0  0  0  0  0  0
    1.9667   -3.0367    0.0000 C   0  0  0  0  0  0  0  0  0  0  0  0
    3.2912   -2.3326    0.0000 O   0  0  0  0  0  0  0  0  0  0  0  0
    0.4895   -2.7762    0.0000 C   0  0  0  0  0  0  0  0  0  0  0  0
   -0.9877   -2.5158    0.0000 C   0  0  0  0  0  0  0  0  0  0  0  0
   -1.8265   -1.2723    0.0000 O   0  0  0  0  0  0  0  0  0  0  0  0
   -1.9519   -3.6648    0.0000 C   0  0  0  0  0  0  0  0  0  0  0  0
   -1.4313   -4.3814    0.0000 C   0  0  0  0  0  0  0  0  0  0  0  0
   -3.1009   -2.7007    0.0000 C   0  0  0  0  0  0  0  0  0  0  0  0
   -2.9160   -4.8139    0.0000 C   0  0  0  0  0  0  0  0  0  0  0  0
    0.7500   -1.2990    0.0000 C   0  0  0  0  0  0  0  0  0  0  0  0
    2.1595   -1.8121    0.0000 C   0  0  0  0  0  0  0  0  0  0  0  0
    2.0763   -2.6049    0.0000 C   0  0  0  0  0  0  0  0  0  0  0  0
    2.6726   -0.4025    0.0000 C   0  0  0  0  0  0  0  0  0  0  0  0
    3.6211   -2.1495    0.0000 C   0  0  0  0  0  0  0  0  0  0  0  0
    1.5000    0.0000    0.0000 O   0  0  0  0  0  0  0  0  0  0  0  0
    0.7500    1.2990    0.0000 C   0  0  0  0  0  0  0  0  0  0  0  0
    1.5000    2.5981    0.0000 O   0  0  0  0  0  0  0  0  0  0  0  0
   -0.7500    1.2990    0.0000 C   0  0  0  0  0  0  0  0  0  0  0  0
   -1.5000    2.5981    0.0000 C   0  0  0  0  0  0  0  0  0  0  0  0
   -3.0000    2.5981    0.0000 O   0  0  0  0  0  0  0  0  0  0  0  0
   -0.7500    3.8971    0.0000 C   0  0  0  0  0  0  0  0  0  0  0  0
   -2.0490    4.6471    0.0000 C   0  0  0  0  0  0  0  0  0  0  0  0
    0.5490    3.1471    0.0000 C   0  0  0  0  0  0  0  0  0  0  0  0
    0.0000    5.1962    0.0000 C   0  0  0  0  0  0  0  0  0  0  0  0
   -1.5000    0.0000    0.0000 C   0  0  0  0  0  0  0  0  0  0  0  0
   -3.0000    0.0000    0.0000 C   0  0  0  0  0  0  0  0  0  0  0  0
   -3.0000   -1.5000    0.0000 C   0  0  0  0  0  0  0  0  0  0  0  0
   -3.0000    1.5000    0.0000 C   0  0  0  0  0  0  0  0  0  0  0  0
   -4.5000    0.0000    0.0000 C   0  0  0  0  0  0  0  0  0  0  0  0
   -0.7500   -1.2990    0.0000 O   0  0  0  0  0  0  0  0  0  0  0  0
  1  2  1  0
  2  3  1  0
  2  4  1  0
  4  5  2  0
  5  6  1  0
  6  7  1  0
  7  8  1  0
  7  9  1  0
  6 10  1  0
 10 11  2  0
 10 12  1  0
 12 13  1  6
 13 14  2  0
 13 15  1  0
 15 16  1  0
 15 17  1  0
 15 18  1  0
 12 19  1  0
 19 20  1  1
 20 21  1  0
 20 22  1  0
 20 23  1  0
 19 24  1  0
 24 25  1  0
 25 26  2  0
 25 27  1  0
 27 28  1  0
 28 29  2  0
 28 30  1  0
 30 31  1  0
 30 32  1  0
 30 33  1  0
 27 34  2  0
 34 35  1  0
 35 36  1  0
 35 37  1  0
 35 38  1  0
 34 39  1  0
 12  5  1  0
 39 19  1  0
M  END
>  <Compound_ID>  (243) 
C08384156

>  <Active>  (243) 
0.0

>  <Smiles>  (243) 
CC(C)/N=C1\N(C(C)C)C(=O)[C@]1(C(=O)C(C)(C)C)[C@@]1(C(C)(C)C)OC(=O)C(C(=O)C(C)(C)C)=C(C(C)(C)C)O1

>  <canonical_smi>  (243) 
CC(C)/N=C1\N(C(C)C)C(=O)[C@]1(C(=O)C(C)(C)C)[C@@]1(C(C)(C)C)OC(=O)C(C(=O)C(C)(C)C)=C(C(C)(C)C)O1

>  <Set>  (243) 
G2 inactive

>  <Set_type>  (243) 
Train

>  <MW>  (243) 
546.75

>  <HBD>  (243) 
0

>  <HBA>  (243) 
6

>  <NRB>  (243) 
5

>  <NR>  (243) 
2

>  <NAR>  (243) 
0

>  <PSA>  (243) 
102.34

>  <Standard Type>  (243) 
nan

>  <Standard Relation>  (243) 
nan

>  <Standard Units>  (243) 
nan

>  <Standard Value>  (243) 
nan

>  <Assay ChEMBL ID>  (243) 
nan

>  <Assay Description>  (243) 
nan

>  <BAO Label>  (243) 
nan

$$$$

     RDKit          2D

 28 32  0  0  0  0  0  0  0  0999 V2000
   -0.2176   10.9286    0.0000 C   0  0  0  0  0  0  0  0  0  0  0  0
   -1.0992    9.7151    0.0000 C   0  0  0  0  0  0  0  0  0  0  0  0
   -0.4891    8.3447    0.0000 C   0  0  0  0  0  0  0  0  0  0  0  0
   -1.3708    7.1312    0.0000 C   0  0  0  0  0  0  0  0  0  0  0  0
   -2.8626    7.2880    0.0000 N   0  0  0  0  0  4  0  0  0  0  0  0
   -3.7443    6.0745    0.0000 C   0  0  0  0  0  0  0  0  0  0  0  0
   -3.1342    4.7042    0.0000 C   0  0  0  0  0  0  0  0  0  0  0  0
   -4.0159    3.4906    0.0000 N   0  0  0  0  0  0  0  0  0  0  0  0
   -3.4057    2.1203    0.0000 C   0  0  0  0  0  0  0  0  0  0  0  0
   -4.2874    0.9068    0.0000 N   0  0  0  0  0  0  0  0  0  0  0  0
   -5.7792    1.0636    0.0000 C   0  0  0  0  0  0  0  0  0  0  0  0
   -6.6609   -0.1499    0.0000 C   0  0  0  0  0  0  0  0  0  0  0  0
   -8.1527    0.0069    0.0000 C   0  0  0  0  0  0  0  0  0  0  0  0
   -6.0508   -1.5203    0.0000 C   0  0  0  0  0  0  0  0  0  0  0  0
   -4.5590   -1.6771    0.0000 C   0  0  0  0  0  0  0  0  0  0  0  0
   -3.9489   -3.0474    0.0000 C   0  0  0  0  0  0  0  0  0  0  0  0
   -3.6773   -0.4635    0.0000 C   0  0  0  0  0  0  0  0  0  0  0  0
   -1.9140    1.9635    0.0000 C   0  0  0  0  0  0  0  0  0  0  0  0
   -1.0323    0.7500    0.0000 C   0  0  0  0  0  0  0  0  0  0  0  0
    0.3943    1.2135    0.0000 C   0  0  0  0  0  0  0  0  0  0  0  0
    0.3943    2.7135    0.0000 S   0  0  0  0  0  0  0  0  0  0  0  0
   -1.0323    3.1771    0.0000 C   0  0  0  0  0  0  0  0  0  0  0  0
   -1.6424    4.5474    0.0000 N   0  0  0  0  0  0  0  0  0  0  0  0
    1.2760    0.0000    0.0000 C   0  0  0  0  0  0  0  0  0  0  0  0
    0.3943   -1.2135    0.0000 C   0  0  0  0  0  0  0  0  0  0  0  0
   -1.0323   -0.7500    0.0000 C   0  0  0  0  0  0  0  0  0  0  0  0
   -3.4727    8.6583    0.0000 C   0  0  0  0  0  0  0  0  0  0  0  0
   -2.5910    9.8718    0.0000 C   0  0  0  0  0  0  0  0  0  0  0  0
  1  2  1  0
  2  3  1  0
  3  4  1  0
  4  5  1  0
  5  6  1  0
  6  7  1  0
  7  8  2  0
  8  9  1  0
  9 10  1  0
 10 11  1  0
 11 12  1  0
 12 13  1  1
 12 14  1  0
 14 15  1  0
 15 16  1  6
 15 17  1  0
  9 18  2  0
 18 19  1  0
 19 20  2  0
 20 21  1  0
 21 22  1  0
 22 23  2  0
 20 24  1  0
 24 25  1  0
 25 26  1  0
  5 27  1  0
 27 28  1  0
 28  2  1  0
 23  7  1  0
 17 10  1  0
 22 18  1  0
 26 19  1  0
M  CHG  1   5   1
M  END
>  <Compound_ID>  (244) 
C03504503

>  <Active>  (244) 
0.0

>  <Smiles>  (244) 
CC1CC[NH+](Cc2nc(N3C[C@H](C)C[C@@H](C)C3)c3c4c(sc3n2)CCC4)CC1

>  <canonical_smi>  (244) 
CC1CC[NH+](Cc2nc(N3C[C@H](C)C[C@@H](C)C3)c3c4c(sc3n2)CCC4)CC1

>  <Set>  (244) 
G2 inactive

>  <Set_type>  (244) 
Train

>  <MW>  (244) 
399.63

>  <HBD>  (244) 
1

>  <HBA>  (244) 
3

>  <NRB>  (244) 
3

>  <NR>  (244) 
5

>  <NAR>  (244) 
2

>  <PSA>  (244) 
33.46

>  <Standard Type>  (244) 
nan

>  <Standard Relation>  (244) 
nan

>  <Standard Units>  (244) 
nan

>  <Standard Value>  (244) 
nan

>  <Assay ChEMBL ID>  (244) 
nan

>  <Assay Description>  (244) 
nan

>  <BAO Label>  (244) 
nan

$$$$

     RDKit          2D

 27 31  0  0  0  0  0  0  0  0999 V2000
    8.2402   -9.1506    0.0000 C   0  0  0  0  0  0  0  0  0  0  0  0
    9.1218   -7.9371    0.0000 C   0  0  0  0  0  0  0  0  0  0  0  0
   10.6218   -7.9371    0.0000 C   0  0  0  0  0  0  0  0  0  0  0  0
   11.0854   -6.5105    0.0000 C   0  0  0  0  0  0  0  0  0  0  0  0
    9.8718   -5.6288    0.0000 S   0  0  0  0  0  0  0  0  0  0  0  0
    8.6583   -6.5105    0.0000 C   0  0  0  0  0  0  0  0  0  0  0  0
    7.2317   -6.0469    0.0000 C   0  0  0  0  0  0  0  0  0  0  0  0
    6.9199   -4.5797    0.0000 N   0  0  0  0  0  0  0  0  0  0  0  0
    5.4933   -4.1162    0.0000 N   0  0  0  0  0  0  0  0  0  0  0  0
    5.1814   -2.6490    0.0000 C   0  0  0  0  0  0  0  0  0  0  0  0
    3.7548   -2.1855    0.0000 C   0  0  0  0  0  0  0  0  0  0  0  0
    2.6401   -3.1891    0.0000 N   0  0  0  0  0  4  0  0  0  0  0  0
    1.2135   -2.7256    0.0000 C   0  0  0  0  0  0  0  0  0  0  0  0
    0.7500   -1.2990    0.0000 C   0  0  0  0  0  0  0  0  0  0  0  0
    1.5000    0.0000    0.0000 C   0  0  0  0  0  0  0  0  0  0  0  0
    0.7500    1.2990    0.0000 C   0  0  0  0  0  0  0  0  0  0  0  0
   -0.7500    1.2990    0.0000 C   0  0  0  0  0  0  0  0  0  0  0  0
   -1.5000    0.0000    0.0000 C   0  0  0  0  0  0  0  0  0  0  0  0
   -0.7500   -1.2990    0.0000 C   0  0  0  0  0  0  0  0  0  0  0  0
   -1.2135   -2.7256    0.0000 C   0  0  0  0  0  0  0  0  0  0  0  0
   -2.5838   -3.3357    0.0000 C   0  0  0  0  0  0  0  0  0  0  0  0
   -2.7406   -4.8275    0.0000 C   0  0  0  0  0  0  0  0  0  0  0  0
   -1.5271   -5.7092    0.0000 C   0  0  0  0  0  0  0  0  0  0  0  0
   -0.1568   -5.0991    0.0000 C   0  0  0  0  0  0  0  0  0  0  0  0
   -0.0000   -3.6073    0.0000 C   0  0  0  0  0  0  0  0  0  0  0  0
    2.9520   -4.6564    0.0000 C   0  0  0  0  0  0  0  0  0  0  0  0
    4.3786   -5.1199    0.0000 C   0  0  0  0  0  0  0  0  0  0  0  0
  1  2  1  0
  2  3  1  0
  3  4  2  0
  4  5  1  0
  5  6  1  0
  6  7  1  0
  7  8  2  0
  8  9  1  0
  9 10  1  0
 10 11  1  0
 11 12  1  0
 12 13  1  0
 13 14  1  0
 14 15  2  0
 15 16  1  0
 16 17  2  0
 17 18  1  0
 18 19  2  0
 19 20  1  0
 20 21  2  0
 21 22  1  0
 22 23  2  0
 23 24  1  0
 24 25  2  0
 12 26  1  0
 26 27  1  0
  6  2  2  0
 27  9  1  0
 25 13  1  0
 19 14  1  0
 25 20  1  0
M  CHG  1  12   1
M  END
>  <Compound_ID>  (245) 
C01814782

>  <Active>  (245) 
0.0

>  <Smiles>  (245) 
Cc1ccsc1/C=N/N1CC[NH+](C2c3ccccc3-c3ccccc32)CC1

>  <canonical_smi>  (245) 
Cc1ccsc1/C=N/N1CC[NH+](C2c3ccccc3-c3ccccc32)CC1

>  <Set>  (245) 
G2 inactive

>  <Set_type>  (245) 
Train

>  <MW>  (245) 
374.53

>  <HBD>  (245) 
1

>  <HBA>  (245) 
1

>  <NRB>  (245) 
3

>  <NR>  (245) 
5

>  <NAR>  (245) 
3

>  <PSA>  (245) 
20.04

>  <Standard Type>  (245) 
nan

>  <Standard Relation>  (245) 
nan

>  <Standard Units>  (245) 
nan

>  <Standard Value>  (245) 
nan

>  <Assay ChEMBL ID>  (245) 
nan

>  <Assay Description>  (245) 
nan

>  <BAO Label>  (245) 
nan

$$$$

     RDKit          2D

 25 27  0  0  0  0  0  0  0  0999 V2000
    1.7062    3.4407    0.0000 O   0  0  0  0  0  0  0  0  0  0  0  0
    0.3943    2.7135    0.0000 C   0  0  0  0  0  0  0  0  0  0  0  0
    0.3943    1.2135    0.0000 N   0  0  0  0  0  0  0  0  0  0  0  0
    1.2760    0.0000    0.0000 C   0  0  0  0  0  0  0  0  0  0  0  0
    0.3943   -1.2135    0.0000 C   0  0  0  0  0  0  0  0  0  0  0  0
   -1.0323   -0.7500    0.0000 S   0  0  0  0  0  0  0  0  0  0  0  0
   -1.0323    0.7500    0.0000 C   0  0  0  0  0  0  0  0  0  0  0  0
   -1.9140    1.9635    0.0000 N   0  0  0  0  0  0  0  0  0  0  0  0
   -1.0323    3.1771    0.0000 C   0  0  0  0  0  0  0  0  0  0  0  0
   -2.3313    3.9271    0.0000 N   0  0  0  0  0  0  0  0  0  0  0  0
   -2.3313    5.4271    0.0000 C   0  0  0  0  0  0  0  0  0  0  0  0
   -1.0323    6.1771    0.0000 N   0  0  0  0  0  4  0  0  0  0  0  0
   -1.0323    7.6771    0.0000 C   0  0  0  0  0  0  0  0  0  0  0  0
   -2.3313    8.4271    0.0000 C   0  0  0  0  0  0  0  0  0  0  0  0
   -2.3313    9.9271    0.0000 C   0  0  0  0  0  0  0  0  0  0  0  0
   -2.3313   11.4271    0.0000 F   0  0  0  0  0  0  0  0  0  0  0  0
   -0.8313    9.9271    0.0000 F   0  0  0  0  0  0  0  0  0  0  0  0
   -3.8313    9.9271    0.0000 F   0  0  0  0  0  0  0  0  0  0  0  0
   -3.6304    7.6771    0.0000 C   0  0  0  0  0  0  0  0  0  0  0  0
   -3.6304    6.1771    0.0000 C   0  0  0  0  0  0  0  0  0  0  0  0
   -4.9294    5.4271    0.0000 Cl  0  0  0  0  0  0  0  0  0  0  0  0
   -0.4222    4.5474    0.0000 C   0  0  0  0  0  0  0  0  0  0  0  0
    0.1879    5.9177    0.0000 F   0  0  0  0  0  0  0  0  0  0  0  0
    1.0123    4.1089    0.0000 F   0  0  0  0  0  0  0  0  0  0  0  0
   -1.4860    5.3786    0.0000 F   0  0  0  0  0  0  0  0  0  0  0  0
  1  2  2  0
  2  3  1  0
  3  4  1  0
  4  5  1  0
  5  6  1  0
  6  7  1  0
  7  8  2  0
  8  9  1  0
  9 10  1  1
 10 11  1  0
 11 12  2  0
 12 13  1  0
 13 14  2  0
 14 15  1  0
 15 16  1  0
 15 17  1  0
 15 18  1  0
 14 19  1  0
 19 20  2  0
 20 21  1  0
  9 22  1  0
 22 23  1  0
 22 24  1  0
 22 25  1  0
  9  2  1  0
 20 11  1  0
  7  3  1  0
M  CHG  1  12   1
M  END
>  <Compound_ID>  (246) 
C04690220

>  <Active>  (246) 
0.0

>  <Smiles>  (246) 
O=C1N2CCSC2=N[C@]1(Nc1[nH+]cc(C(F)(F)F)cc1Cl)C(F)(F)F

>  <canonical_smi>  (246) 
O=C1N2CCSC2=N[C@]1(Nc1[nH+]cc(C(F)(F)F)cc1Cl)C(F)(F)F

>  <Set>  (246) 
G2 inactive

>  <Set_type>  (246) 
Train

>  <MW>  (246) 
405.73

>  <HBD>  (246) 
1

>  <HBA>  (246) 
3

>  <NRB>  (246) 
2

>  <NR>  (246) 
3

>  <NAR>  (246) 
1

>  <PSA>  (246) 
58.84

>  <Standard Type>  (246) 
nan

>  <Standard Relation>  (246) 
nan

>  <Standard Units>  (246) 
nan

>  <Standard Value>  (246) 
nan

>  <Assay ChEMBL ID>  (246) 
nan

>  <Assay Description>  (246) 
nan

>  <BAO Label>  (246) 
nan

$$$$

     RDKit          2D

 20 21  0  0  0  0  0  0  0  0999 V2000
    3.0000    0.0000    0.0000 C   0  0  0  0  0  0  0  0  0  0  0  0
    1.5000    0.0000    0.0000 C   0  0  0  0  0  0  0  0  0  0  0  0
    0.7500   -1.2990    0.0000 C   0  0  0  0  0  0  0  0  0  0  0  0
   -0.7500   -1.2990    0.0000 C   0  0  0  0  0  0  0  0  0  0  0  0
   -1.5000   -2.5981    0.0000 Br  0  0  0  0  0  0  0  0  0  0  0  0
   -1.5000    0.0000    0.0000 C   0  0  0  0  0  0  0  0  0  0  0  0
   -3.0000    0.0000    0.0000 N   0  0  0  0  0  0  0  0  0  0  0  0
   -3.8817   -1.2135    0.0000 N   0  0  0  0  0  0  0  0  0  0  0  0
   -5.3083   -0.7500    0.0000 N   0  0  0  0  0  0  0  0  0  0  0  0
   -5.3083    0.7500    0.0000 N   0  0  0  0  0  0  0  0  0  0  0  0
   -3.8817    1.2135    0.0000 C   0  0  0  0  0  0  0  0  0  0  0  0
   -3.4182    2.6401    0.0000 C   0  0  0  0  0  0  0  0  0  0  0  0
   -4.4218    3.7548    0.0000 N   0  0  0  0  0  4  0  0  0  0  0  0
   -3.9583    5.1814    0.0000 C   0  0  0  0  0  0  0  0  0  0  0  0
   -4.9620    6.2961    0.0000 C   0  0  0  0  0  0  0  0  0  0  0  0
   -4.4985    7.7227    0.0000 C   0  0  0  0  0  0  0  0  0  0  0  0
   -6.4292    5.9843    0.0000 C   0  0  0  0  0  0  0  0  0  0  0  0
   -0.7500    1.2990    0.0000 C   0  0  0  0  0  0  0  0  0  0  0  0
   -1.5000    2.5981    0.0000 Br  0  0  0  0  0  0  0  0  0  0  0  0
    0.7500    1.2990    0.0000 C   0  0  0  0  0  0  0  0  0  0  0  0
  1  2  1  0
  2  3  2  0
  3  4  1  0
  4  5  1  0
  4  6  2  0
  6  7  1  0
  7  8  1  0
  8  9  2  0
  9 10  1  0
 10 11  2  0
 11 12  1  0
 12 13  1  0
 13 14  1  0
 14 15  1  0
 15 16  1  0
 15 17  1  0
  6 18  1  0
 18 19  1  0
 18 20  2  0
 20  2  1  0
 11  7  1  0
M  CHG  1  13   1
M  END
>  <Compound_ID>  (247) 
C54744561

>  <Active>  (247) 
0.0

>  <Smiles>  (247) 
Cc1cc(Br)c(-n2nnnc2C[NH2+]CC(C)C)c(Br)c1

>  <canonical_smi>  (247) 
Cc1cc(Br)c(-n2nnnc2C[NH2+]CC(C)C)c(Br)c1

>  <Set>  (247) 
G2 inactive

>  <Set_type>  (247) 
Train

>  <MW>  (247) 
404.13

>  <HBD>  (247) 
1

>  <HBA>  (247) 
3

>  <NRB>  (247) 
5

>  <NR>  (247) 
2

>  <NAR>  (247) 
2

>  <PSA>  (247) 
60.21

>  <Standard Type>  (247) 
nan

>  <Standard Relation>  (247) 
nan

>  <Standard Units>  (247) 
nan

>  <Standard Value>  (247) 
nan

>  <Assay ChEMBL ID>  (247) 
nan

>  <Assay Description>  (247) 
nan

>  <BAO Label>  (247) 
nan

$$$$

     RDKit          2D

 23 26  0  0  0  0  0  0  0  0999 V2000
   -1.5000   -5.1962    0.0000 C   0  0  0  0  0  0  0  0  0  0  0  0
   -0.7500   -3.8971    0.0000 N   0  0  0  0  0  4  0  0  0  0  0  0
    0.7500   -3.8971    0.0000 C   0  0  0  0  0  0  0  0  0  0  0  0
    1.5000   -2.5981    0.0000 C   0  0  0  0  0  0  0  0  0  0  0  0
    0.7500   -1.2990    0.0000 C   0  0  0  0  0  0  0  0  0  0  0  0
    1.5000    0.0000    0.0000 C   0  0  0  0  0  0  0  0  0  0  0  0
    0.7500    1.2990    0.0000 C   0  0  0  0  0  0  0  0  0  0  0  0
   -0.7500    1.2990    0.0000 C   0  0  0  0  0  0  0  0  0  0  0  0
   -1.5000    0.0000    0.0000 C   0  0  0  0  0  0  0  0  0  0  0  0
   -0.7500   -1.2990    0.0000 C   0  0  0  0  0  0  0  0  0  0  0  0
   -1.5000   -2.5981    0.0000 C   0  0  0  0  0  0  0  0  0  0  0  0
   -2.9266   -2.1346    0.0000 C   0  0  0  0  0  0  0  0  0  0  0  0
   -2.9266   -0.6346    0.0000 C   0  0  0  0  0  0  0  0  0  0  0  0
   -4.1401    0.2471    0.0000 N   0  0  0  0  0  0  0  0  0  0  0  0
   -3.9833    1.7389    0.0000 S   0  0  0  0  0  0  0  0  0  0  0  0
   -2.4915    1.5821    0.0000 O   0  0  0  0  0  0  0  0  0  0  0  0
   -5.4751    1.8957    0.0000 O   0  0  0  0  0  0  0  0  0  0  0  0
   -3.8265    3.2307    0.0000 C   0  0  0  0  0  0  0  0  0  0  0  0
   -4.9412    4.2344    0.0000 C   0  0  0  0  0  0  0  0  0  0  0  0
   -4.3311    5.6047    0.0000 C   0  0  0  0  0  0  0  0  0  0  0  0
   -2.8394    5.4479    0.0000 C   0  0  0  0  0  0  0  0  0  0  0  0
   -1.8357    6.5626    0.0000 Cl  0  0  0  0  0  0  0  0  0  0  0  0
   -2.5275    3.9807    0.0000 S   0  0  0  0  0  0  0  0  0  0  0  0
  1  2  1  0
  2  3  1  0
  3  4  1  0
  4  5  1  0
  5  6  2  0
  6  7  1  0
  7  8  2  0
  8  9  1  0
  9 10  2  0
 10 11  1  0
 11 12  1  6
 12 13  1  0
 13 14  1  6
 14 15  1  0
 15 16  2  0
 15 17  2  0
 15 18  1  0
 18 19  2  0
 19 20  1  0
 20 21  2  0
 21 22  1  0
 21 23  1  0
 11  2  1  0
 23 18  1  0
 10  5  1  0
 13  9  1  0
M  CHG  1   2   1
M  END
>  <Compound_ID>  (248) 
C33811830

>  <Active>  (248) 
0.0

>  <Smiles>  (248) 
C[NH+]1CCc2cccc3c2[C@H]1C[C@@H]3NS(=O)(=O)c1ccc(Cl)s1

>  <canonical_smi>  (248) 
C[NH+]1CCc2cccc3c2[C@H]1C[C@@H]3NS(=O)(=O)c1ccc(Cl)s1

>  <Set>  (248) 
G2 inactive

>  <Set_type>  (248) 
Train

>  <MW>  (248) 
369.92

>  <HBD>  (248) 
2

>  <HBA>  (248) 
2

>  <NRB>  (248) 
3

>  <NR>  (248) 
4

>  <NAR>  (248) 
2

>  <PSA>  (248) 
50.61

>  <Standard Type>  (248) 
nan

>  <Standard Relation>  (248) 
nan

>  <Standard Units>  (248) 
nan

>  <Standard Value>  (248) 
nan

>  <Assay ChEMBL ID>  (248) 
nan

>  <Assay Description>  (248) 
nan

>  <BAO Label>  (248) 
nan

$$$$

     RDKit          2D

 20 22  0  0  0  0  0  0  0  0999 V2000
   -5.4912    4.7648    0.0000 C   0  0  0  0  0  0  0  0  0  0  0  0
   -5.1793    6.2320    0.0000 C   0  0  0  0  0  0  0  0  0  0  0  0
   -6.2940    7.2357    0.0000 C   0  0  0  0  0  0  0  0  0  0  0  0
   -5.9821    8.7029    0.0000 C   0  0  0  0  0  0  0  0  0  0  0  0
   -7.0969    9.7066    0.0000 I   0  0  0  0  0  0  0  0  0  0  0  0
   -4.5556    9.1664    0.0000 C   0  0  0  0  0  0  0  0  0  0  0  0
   -3.4408    8.1628    0.0000 C   0  0  0  0  0  0  0  0  0  0  0  0
   -3.7527    6.6955    0.0000 C   0  0  0  0  0  0  0  0  0  0  0  0
   -2.6380    5.6918    0.0000 N   0  0  0  0  0  0  0  0  0  0  0  0
   -2.9499    4.2246    0.0000 C   0  0  0  0  0  0  0  0  0  0  0  0
   -1.8351    3.2209    0.0000 C   0  0  0  0  0  0  0  0  0  0  0  0
   -0.4086    3.6844    0.0000 C   0  0  0  0  0  0  0  0  0  0  0  0
    0.7062    2.6807    0.0000 C   0  0  0  0  0  0  0  0  0  0  0  0
    2.1328    3.1443    0.0000 O   0  0  0  0  0  0  0  0  0  0  0  0
    0.3943    1.2135    0.0000 N   0  0  0  0  0  0  0  0  0  0  0  0
    1.2760    0.0000    0.0000 C   0  0  0  0  0  0  0  0  0  0  0  0
    0.3943   -1.2135    0.0000 C   0  0  0  0  0  0  0  0  0  0  0  0
   -1.0323   -0.7500    0.0000 S   0  0  0  0  0  0  0  0  0  0  0  0
   -1.0323    0.7500    0.0000 C   0  0  0  0  0  0  0  0  0  0  0  0
   -2.1470    1.7537    0.0000 N   0  0  0  0  0  4  0  0  0  0  0  0
  1  2  1  0
  2  3  2  0
  3  4  1  0
  4  5  1  0
  4  6  2  0
  6  7  1  0
  7  8  2  0
  8  9  1  0
  9 10  1  0
 10 11  1  0
 11 12  2  0
 12 13  1  0
 13 14  2  0
 13 15  1  0
 15 16  1  0
 16 17  2  0
 17 18  1  0
 18 19  1  0
 19 20  2  0
  8  2  1  0
 20 11  1  0
 19 15  1  0
M  CHG  1  20   1
M  END
>  <Compound_ID>  (249) 
C60556185

>  <Active>  (249) 
0.0

>  <Smiles>  (249) 
Cc1cc(I)ccc1NCc1cc(=O)n2ccsc2[nH+]1

>  <canonical_smi>  (249) 
Cc1cc(I)ccc1NCc1cc(=O)n2ccsc2[nH+]1

>  <Set>  (249) 
G2 inactive

>  <Set_type>  (249) 
Train

>  <MW>  (249) 
398.25

>  <HBD>  (249) 
1

>  <HBA>  (249) 
2

>  <NRB>  (249) 
3

>  <NR>  (249) 
3

>  <NAR>  (249) 
3

>  <PSA>  (249) 
47.65

>  <Standard Type>  (249) 
nan

>  <Standard Relation>  (249) 
nan

>  <Standard Units>  (249) 
nan

>  <Standard Value>  (249) 
nan

>  <Assay ChEMBL ID>  (249) 
nan

>  <Assay Description>  (249) 
nan

>  <BAO Label>  (249) 
nan

$$$$

     RDKit          2D

 32 37  0  0  0  0  0  0  0  0999 V2000
    3.0000  -10.3923    0.0000 C   0  0  0  0  0  0  0  0  0  0  0  0
    3.7500   -9.0933    0.0000 C   0  0  0  0  0  0  0  0  0  0  0  0
    5.2500   -9.0933    0.0000 C   0  0  0  0  0  0  0  0  0  0  0  0
    3.0000   -7.7942    0.0000 C   0  0  0  0  0  0  0  0  0  0  0  0
    3.7500   -6.4952    0.0000 C   0  0  0  0  0  0  0  0  0  0  0  0
    3.0000   -5.1962    0.0000 C   0  0  0  0  0  0  0  0  0  0  0  0
    1.5000   -5.1962    0.0000 C   0  0  0  0  0  0  0  0  0  0  0  0
    0.7500   -3.8971    0.0000 C   0  0  0  0  0  0  0  0  0  0  0  0
    1.5000   -2.5981    0.0000 O   0  0  0  0  0  0  0  0  0  0  0  0
    0.7500   -1.2990    0.0000 C   0  0  0  0  0  0  0  0  0  0  0  0
    1.5000    0.0000    0.0000 C   0  0  0  0  0  0  0  0  0  0  0  0
    0.7500    1.2990    0.0000 C   0  0  0  0  0  0  0  0  0  0  0  0
   -0.7500    1.2990    0.0000 C   0  0  0  0  0  0  0  0  0  0  0  0
   -1.5000    0.0000    0.0000 C   0  0  0  0  0  0  0  0  0  0  0  0
   -0.7500   -1.2990    0.0000 C   0  0  0  0  0  0  0  0  0  0  0  0
   -1.5000   -2.5981    0.0000 C   0  0  0  0  0  0  0  0  0  0  0  0
   -0.7500   -3.8971    0.0000 C   0  0  0  0  0  0  0  0  0  0  0  0
   -1.5000   -5.1962    0.0000 C   0  0  0  0  0  0  0  0  0  0  0  0
   -0.7500   -6.4952    0.0000 C   0  0  0  0  0  0  0  0  0  0  0  0
   -1.5000   -7.7942    0.0000 C   0  0  0  0  0  0  0  0  0  0  0  0
   -0.7500   -9.0933    0.0000 C   0  0  0  0  0  0  0  0  0  0  0  0
    0.7500   -9.0933    0.0000 C   0  0  0  0  0  0  0  0  0  0  0  0
    1.5000   -7.7942    0.0000 N   0  0  0  0  0  0  0  0  0  0  0  0
    0.7500   -6.4952    0.0000 C   0  0  0  0  0  0  0  0  0  0  0  0
   -3.0000   -5.1962    0.0000 N   0  0  0  0  0  0  0  0  0  0  0  0
   -4.0037   -6.3109    0.0000 N   0  0  0  0  0  0  0  0  0  0  0  0
   -5.3740   -5.7008    0.0000 N   0  0  0  0  0  0  0  0  0  0  0  0
   -5.2172   -4.2090    0.0000 N   0  0  0  0  0  4  0  0  0  0  0  0
   -3.7500   -3.8971    0.0000 C   0  0  0  0  0  0  0  0  0  0  0  0
   -3.0000   -2.5981    0.0000 N   0  0  0  0  0  0  0  0  0  0  0  0
    0.7500   -6.4952    0.0000 C   0  0  0  0  0  0  0  0  0  0  0  0
    1.5000   -7.7942    0.0000 C   0  0  0  0  0  0  0  0  0  0  0  0
  1  2  1  0
  2  3  1  0
  2  4  1  0
  4  5  2  0
  5  6  1  0
  6  7  2  0
  8  7  1  1
  8  9  1  0
  9 10  1  0
 10 11  2  0
 11 12  1  0
 12 13  2  0
 13 14  1  0
 14 15  2  0
 15 16  1  0
 16 17  2  0
 17 18  1  0
 18 19  1  1
 19 20  2  0
 20 21  1  0
 21 22  2  0
 22 23  1  0
 23 24  2  0
 18 25  1  0
 25 26  1  0
 26 27  1  0
 27 28  2  0
 28 29  1  0
 29 30  2  0
  7 31  1  0
 31 32  2  0
 32  4  1  0
 17  8  1  0
 24 19  1  0
 29 25  1  0
 15 10  1  0
 30 16  1  0
M  CHG  1  28   1
M  END
>  <Compound_ID>  (250) 
C10337008

>  <Active>  (250) 
0.0

>  <Smiles>  (250) 
CC(C)c1ccc([C@@H]2Oc3ccccc3C3=C2[C@@H](c2cccnc2)N2NN=[NH+]C2=N3)cc1

>  <canonical_smi>  (250) 
CC(C)c1ccc([C@@H]2Oc3ccccc3C3=C2[C@@H](c2cccnc2)N2NN=[NH+]C2=N3)cc1

>  <Set>  (250) 
G2 inactive

>  <Set_type>  (250) 
Train

>  <MW>  (250) 
423.5

>  <HBD>  (250) 
2

>  <HBA>  (250) 
4

>  <NRB>  (250) 
3

>  <NR>  (250) 
6

>  <NAR>  (250) 
3

>  <PSA>  (250) 
76.08

>  <Standard Type>  (250) 
nan

>  <Standard Relation>  (250) 
nan

>  <Standard Units>  (250) 
nan

>  <Standard Value>  (250) 
nan

>  <Assay ChEMBL ID>  (250) 
nan

>  <Assay Description>  (250) 
nan

>  <BAO Label>  (250) 
nan

$$$$

     RDKit          2D

 36 39  0  0  0  0  0  0  0  0999 V2000
   -3.2855    4.3357    0.0000 C   0  0  0  0  0  0  0  0  0  0  0  0
   -2.5355    3.0367    0.0000 N   0  0  0  0  0  4  0  0  0  0  0  0
   -1.0355    3.0367    0.0000 C   0  0  0  0  0  0  0  0  0  0  0  0
   -0.3846    4.3881    0.0000 C   0  0  0  0  0  0  0  0  0  0  0  0
    1.0777    4.7219    0.0000 C   0  0  0  0  0  0  0  0  0  0  0  0
    2.2505    3.7867    0.0000 C   0  0  0  0  0  0  0  0  0  0  0  0
    3.5495    4.5367    0.0000 C   0  0  0  0  0  0  0  0  0  0  0  0
    4.8486    3.7867    0.0000 C   0  0  0  0  0  0  0  0  0  0  0  0
    6.1476    4.5367    0.0000 O   0  0  0  0  0  0  0  0  0  0  0  0
    7.4466    3.7867    0.0000 C   0  0  0  0  0  0  0  0  0  0  0  0
    4.8486    2.2867    0.0000 C   0  0  0  0  0  0  0  0  0  0  0  0
    6.1476    1.5367    0.0000 O   0  0  0  0  0  0  0  0  0  0  0  0
    6.1476    0.0367    0.0000 C   0  0  0  0  0  0  0  0  0  0  0  0
    3.5495    1.5367    0.0000 C   0  0  0  0  0  0  0  0  0  0  0  0
    3.5495    0.0367    0.0000 O   0  0  0  0  0  0  0  0  0  0  0  0
    4.8486   -0.7133    0.0000 C   0  0  0  0  0  0  0  0  0  0  0  0
    2.2505    2.2867    0.0000 C   0  0  0  0  0  0  0  0  0  0  0  0
    1.0777    1.3515    0.0000 C   0  0  0  0  0  0  0  0  0  0  0  0
    1.7286    0.0000    0.0000 C   0  0  0  0  0  0  0  0  0  0  0  0
    1.0777   -1.3515    0.0000 C   0  0  0  0  0  0  0  0  0  0  0  0
   -0.3846   -1.6852    0.0000 C   0  0  0  0  0  0  0  0  0  0  0  0
   -0.7184   -3.1476    0.0000 N   0  0  0  0  0  0  0  0  0  0  0  0
    0.3812   -4.1679    0.0000 C   0  0  0  0  0  0  0  0  0  0  0  0
    0.0474   -5.6303    0.0000 C   0  0  0  0  0  0  0  0  0  0  0  0
    1.1469   -6.6505    0.0000 C   0  0  0  0  0  0  0  0  0  0  0  0
    0.8132   -8.1129    0.0000 N   0  0  0  0  0  4  0  0  0  0  0  0
   -0.6202   -8.5551    0.0000 C   0  0  0  0  0  0  0  0  0  0  0  0
   -0.9540  -10.0175    0.0000 C   0  0  0  0  0  0  0  0  0  0  0  0
    0.1456  -11.0377    0.0000 N   0  0  0  0  0  0  0  0  0  0  0  0
   -0.1882  -12.5001    0.0000 C   0  0  0  0  0  0  0  0  0  0  0  0
    1.5790  -10.5956    0.0000 C   0  0  0  0  0  0  0  0  0  0  0  0
    1.9127   -9.1332    0.0000 C   0  0  0  0  0  0  0  0  0  0  0  0
   -1.5574   -0.7500    0.0000 C   0  0  0  0  0  0  0  0  0  0  0  0
   -2.9088   -1.4008    0.0000 O   0  0  0  0  0  1  0  0  0  0  0  0
   -1.5574    0.7500    0.0000 C   0  0  0  0  0  0  0  0  0  0  0  0
   -0.3846    1.6852    0.0000 C   0  0  0  0  0  0  0  0  0  0  0  0
  1  2  1  0
  3  2  1  1
  3  4  1  0
  4  5  1  0
  5  6  1  0
  6  7  2  0
  7  8  1  0
  8  9  1  0
  9 10  1  0
  8 11  2  0
 11 12  1  0
 12 13  1  0
 11 14  1  0
 14 15  1  0
 15 16  1  0
 14 17  2  0
 17 18  1  0
 18 19  1  0
 19 20  2  0
 20 21  1  0
 21 22  2  0
 22 23  1  0
 23 24  1  0
 24 25  1  0
 25 26  1  0
 26 27  1  0
 27 28  1  0
 28 29  1  0
 29 30  1  0
 29 31  1  0
 31 32  1  0
 21 33  1  0
 33 34  1  0
 33 35  2  0
 35 36  1  0
 36  3  1  0
 17  6  1  0
 36 18  2  0
 32 26  1  0
M  CHG  3   2   1  26   1  34  -1
M  END
>  <Compound_ID>  (251) 
C22781536

>  <Active>  (251) 
0.0

>  <Smiles>  (251) 
C[NH2+][C@H]1CCc2cc(OC)c(OC)c(OC)c2-c2cc/c(=N\CCC[NH+]3CCN(C)CC3)c([O-])cc21

>  <canonical_smi>  (251) 
C[NH2+][C@H]1CCc2cc(OC)c(OC)c(OC)c2-c2cc/c(=N\CCC[NH+]3CCN(C)CC3)c([O-])cc21

>  <Set>  (251) 
G2 inactive

>  <Set_type>  (251) 
Train

>  <MW>  (251) 
497.66

>  <HBD>  (251) 
2

>  <HBA>  (251) 
5

>  <NRB>  (251) 
8

>  <NR>  (251) 
4

>  <NAR>  (251) 
2

>  <PSA>  (251) 
87.4

>  <Standard Type>  (251) 
nan

>  <Standard Relation>  (251) 
nan

>  <Standard Units>  (251) 
nan

>  <Standard Value>  (251) 
nan

>  <Assay ChEMBL ID>  (251) 
nan

>  <Assay Description>  (251) 
nan

>  <BAO Label>  (251) 
nan

$$$$

     RDKit          2D

 36 39  0  0  0  0  0  0  0  0999 V2000
   -0.7500   -3.8971    0.0000 O   0  0  0  0  0  0  0  0  0  0  0  0
    0.7500   -3.8971    0.0000 C   0  0  0  0  0  0  0  0  0  0  0  0
    1.5000   -2.5981    0.0000 C   0  0  0  0  0  0  0  0  0  0  0  0
    0.7500   -1.2990    0.0000 N   0  0  0  0  0  0  0  0  0  0  0  0
    1.5000    0.0000    0.0000 C   0  0  0  0  0  0  0  0  0  0  0  0
    0.7500    1.2990    0.0000 C   0  0  0  0  0  0  0  0  0  0  0  0
    1.5000    2.5981    0.0000 C   0  0  0  0  0  0  0  0  0  0  0  0
    3.0000    2.5981    0.0000 N   0  0  0  0  0  0  0  0  0  0  0  0
    3.7500    3.8971    0.0000 O   0  0  0  0  0  0  0  0  0  0  0  0
   -0.7500    1.2990    0.0000 C   0  0  0  0  0  0  0  0  0  0  0  0
   -1.5000    0.0000    0.0000 C   0  0  0  0  0  0  0  0  0  0  0  0
   -0.7500   -1.2990    0.0000 C   0  0  0  0  0  0  0  0  0  0  0  0
    1.5000   -5.1962    0.0000 C   0  0  0  0  0  0  0  0  0  0  0  0
    0.7500   -6.4952    0.0000 C   0  0  0  0  0  0  0  0  0  0  0  0
    1.5000   -7.7942    0.0000 C   0  0  0  0  0  0  0  0  0  0  0  0
    3.0000   -7.7942    0.0000 C   0  0  0  0  0  0  0  0  0  0  0  0
    3.7500   -9.0933    0.0000 C   0  0  0  0  0  0  0  0  0  0  0  0
    3.0000  -10.3923    0.0000 C   0  0  0  0  0  0  0  0  0  0  0  0
    3.7500  -11.6913    0.0000 C   0  0  0  0  0  0  0  0  0  0  0  0
    5.2500  -11.6913    0.0000 C   0  0  0  0  0  0  0  0  0  0  0  0
    6.0000  -12.9904    0.0000 C   0  0  0  0  0  0  0  0  0  0  0  0
    7.5000  -12.9904    0.0000 O   0  0  0  0  0  0  0  0  0  0  0  0
    5.2500  -14.2894    0.0000 C   0  0  0  0  0  0  0  0  0  0  0  0
    6.0000  -15.5885    0.0000 N   0  0  0  0  0  4  0  0  0  0  0  0
    5.2500  -16.8875    0.0000 C   0  0  0  0  0  0  0  0  0  0  0  0
    6.0000  -18.1865    0.0000 C   0  0  0  0  0  0  0  0  0  0  0  0
    7.5000  -18.1865    0.0000 C   0  0  0  0  0  0  0  0  0  0  0  0
    8.2500  -16.8875    0.0000 C   0  0  0  0  0  0  0  0  0  0  0  0
    9.7500  -16.8875    0.0000 C   0  0  0  0  0  0  0  0  0  0  0  0
   10.5000  -18.1865    0.0000 N   0  0  0  0  0  0  0  0  0  0  0  0
   12.0000  -18.1865    0.0000 O   0  0  0  0  0  0  0  0  0  0  0  0
    7.5000  -15.5885    0.0000 C   0  0  0  0  0  0  0  0  0  0  0  0
    6.0000  -10.3923    0.0000 C   0  0  0  0  0  0  0  0  0  0  0  0
    5.2500   -9.0933    0.0000 C   0  0  0  0  0  0  0  0  0  0  0  0
    3.7500   -6.4952    0.0000 C   0  0  0  0  0  0  0  0  0  0  0  0
    3.0000   -5.1962    0.0000 C   0  0  0  0  0  0  0  0  0  0  0  0
  1  2  2  0
  2  3  1  0
  3  4  1  0
  4  5  1  0
  5  6  2  0
  6  7  1  0
  7  8  2  0
  8  9  1  0
  6 10  1  0
 10 11  2  0
 11 12  1  0
  2 13  1  0
 13 14  1  0
 14 15  1  0
 15 16  1  0
 16 17  1  0
 17 18  1  0
 18 19  1  0
 19 20  1  0
 20 21  1  0
 21 22  2  0
 21 23  1  0
 23 24  1  0
 24 25  1  0
 25 26  1  0
 26 27  1  0
 27 28  1  0
 28 29  1  6
 29 30  2  0
 30 31  1  0
 28 32  1  0
 20 33  1  0
 33 34  1  0
 16 35  1  0
 35 36  1  0
 12  4  1  0
 36 13  1  0
 34 17  1  0
 32 24  1  0
M  CHG  1  24   1
M  END
>  <Compound_ID>  (252) 
C38807866

>  <Active>  (252) 
0.0

>  <Smiles>  (252) 
O=C(CN1C=C(/C=N/O)C=CC1)C1CCC(C2CCC(C(=O)C[NH+]3CCC[C@@H](/C=N/O)C3)CC2)CC1

>  <canonical_smi>  (252) 
O=C(CN1C=C(/C=N/O)C=CC1)C1CCC(C2CCC(C(=O)C[NH+]3CCC[C@@H](/C=N/O)C3)CC2)CC1

>  <Set>  (252) 
G2 inactive

>  <Set_type>  (252) 
Train

>  <MW>  (252) 
499.68

>  <HBD>  (252) 
3

>  <HBA>  (252) 
5

>  <NRB>  (252) 
9

>  <NR>  (252) 
4

>  <NAR>  (252) 
0

>  <PSA>  (252) 
107.0

>  <Standard Type>  (252) 
nan

>  <Standard Relation>  (252) 
nan

>  <Standard Units>  (252) 
nan

>  <Standard Value>  (252) 
nan

>  <Assay ChEMBL ID>  (252) 
nan

>  <Assay Description>  (252) 
nan

>  <BAO Label>  (252) 
nan

$$$$

     RDKit          2D

 37 40  0  0  0  0  0  0  0  0999 V2000
  -13.4496   -9.8674    0.0000 C   0  0  0  0  0  0  0  0  0  0  0  0
  -12.0230   -9.4039    0.0000 C   0  0  0  0  0  0  0  0  0  0  0  0
  -10.9083  -10.4076    0.0000 O   0  0  0  0  0  0  0  0  0  0  0  0
  -11.7112   -7.9367    0.0000 N   0  0  0  0  0  0  0  0  0  0  0  0
  -10.2846   -7.4731    0.0000 C   0  0  0  0  0  0  0  0  0  0  0  0
   -9.9727   -6.0059    0.0000 C   0  0  0  0  0  0  0  0  0  0  0  0
  -11.0874   -5.0022    0.0000 C   0  0  0  0  0  0  0  0  0  0  0  0
   -8.5461   -5.5424    0.0000 C   0  0  0  0  0  0  0  0  0  0  0  0
   -7.4314   -6.5461    0.0000 C   0  0  0  0  0  0  0  0  0  0  0  0
   -6.0048   -6.0826    0.0000 C   0  0  0  0  0  0  0  0  0  0  0  0
   -5.6930   -4.6153    0.0000 O   0  0  0  0  0  0  0  0  0  0  0  0
   -4.8901   -7.0863    0.0000 C   0  0  0  0  0  0  0  0  0  0  0  0
   -5.2020   -8.5535    0.0000 C   0  0  0  0  0  0  0  0  0  0  0  0
   -3.4635   -6.6227    0.0000 C   0  0  0  0  0  0  0  0  0  0  0  0
   -2.2500   -7.5044    0.0000 C   0  0  0  0  0  0  0  0  0  0  0  0
   -2.2500   -9.0044    0.0000 O   0  0  0  0  0  0  0  0  0  0  0  0
   -1.0365   -6.6227    0.0000 C   0  0  0  0  0  0  0  0  0  0  0  0
   -1.5000   -5.1962    0.0000 C   0  0  0  0  0  0  0  0  0  0  0  0
   -0.7500   -3.8971    0.0000 C   0  0  0  0  0  0  0  0  0  0  0  0
    0.7500   -3.8971    0.0000 C   0  0  0  0  0  0  0  0  0  0  0  0
    1.5000   -2.5981    0.0000 C   0  0  0  0  0  0  0  0  0  0  0  0
    0.7500   -1.2990    0.0000 C   0  0  0  0  0  0  0  0  0  0  0  0
    1.5000    0.0000    0.0000 C   0  0  0  0  0  0  0  0  0  0  0  0
    0.7500    1.2990    0.0000 C   0  0  0  0  0  0  0  0  0  0  0  0
    1.5000    2.5981    0.0000 O   0  0  0  0  0  0  0  0  0  0  0  0
    3.0000    2.5981    0.0000 C   0  0  0  0  0  0  0  0  0  0  0  0
    3.7500    3.8971    0.0000 C   0  0  0  0  0  0  0  0  0  0  0  0
    3.7500    1.2990    0.0000 O   0  0  0  0  0  0  0  0  0  0  0  0
   -0.7500    1.2990    0.0000 C   0  0  0  0  0  0  0  0  0  0  0  0
   -1.5000    0.0000    0.0000 C   0  0  0  0  0  0  0  0  0  0  0  0
   -0.7500   -1.2990    0.0000 C   0  0  0  0  0  0  0  0  0  0  0  0
   -2.2500   -1.2990    0.0000 C   0  0  0  0  0  0  0  0  0  0  0  0
   -1.5000   -2.5981    0.0000 C   0  0  0  0  0  0  0  0  0  0  0  0
   -3.0000   -2.5981    0.0000 C   0  0  0  0  0  0  0  0  0  0  0  0
   -3.7500   -3.8971    0.0000 C   0  0  0  0  0  0  0  0  0  0  0  0
   -3.0000   -5.1962    0.0000 C   0  0  0  0  0  0  0  0  0  0  0  0
   -4.4918   -5.3529    0.0000 C   0  0  0  0  0  0  0  0  0  0  0  0
  1  2  1  0
  2  3  2  0
  2  4  1  0
  4  5  1  0
  5  6  1  0
  6  7  1  1
  6  8  1  0
  8  9  1  0
  9 10  1  0
 10 11  2  0
 10 12  1  0
 12 13  1  6
 12 14  1  0
 14 15  1  1
 15 16  2  0
 15 17  1  0
 18 17  1  1
 18 19  1  0
 19 20  1  1
 20 21  1  0
 21 22  2  0
 22 23  1  0
 23 24  1  0
 24 25  1  6
 25 26  1  0
 26 27  1  0
 26 28  2  0
 24 29  1  0
 29 30  1  0
 30 31  1  0
 31 32  1  1
 31 33  1  0
 33 34  1  1
 34 35  1  0
 35 36  1  0
 36 37  1  6
 36 14  1  0
 36 18  1  0
 33 19  1  0
 31 22  1  0
M  END
>  <Compound_ID>  (253) 
C15956105

>  <Active>  (253) 
0.0

>  <Smiles>  (253) 
CC(=O)NC[C@@H](C)CCC(=O)[C@@H](C)[C@@H]1C(=O)C[C@@H]2[C@@H]3CC=C4C[C@@H](OC(C)=O)CC[C@@]4(C)[C@@H]3CC[C@@]21C

>  <canonical_smi>  (253) 
CC(=O)NC[C@@H](C)CCC(=O)[C@@H](C)[C@@H]1C(=O)C[C@@H]2[C@@H]3CC=C4C[C@@H](OC(C)=O)CC[C@@]4(C)[C@@H]3CC[C@]12C

>  <Set>  (253) 
G2 inactive

>  <Set_type>  (253) 
Train

>  <MW>  (253) 
513.72

>  <HBD>  (253) 
1

>  <HBA>  (253) 
5

>  <NRB>  (253) 
8

>  <NR>  (253) 
4

>  <NAR>  (253) 
0

>  <PSA>  (253) 
89.54

>  <Standard Type>  (253) 
nan

>  <Standard Relation>  (253) 
nan

>  <Standard Units>  (253) 
nan

>  <Standard Value>  (253) 
nan

>  <Assay ChEMBL ID>  (253) 
nan

>  <Assay Description>  (253) 
nan

>  <BAO Label>  (253) 
nan

$$$$

     RDKit          2D

 30 33  0  0  0  0  0  0  0  0999 V2000
    3.0000    0.0000    0.0000 C   0  0  0  0  0  0  0  0  0  0  0  0
    1.5000    0.0000    0.0000 C   0  0  0  0  0  0  0  0  0  0  0  0
    0.7500   -1.2990    0.0000 C   0  0  0  0  0  0  0  0  0  0  0  0
   -0.7500   -1.2990    0.0000 C   0  0  0  0  0  0  0  0  0  0  0  0
   -1.5000    0.0000    0.0000 C   0  0  0  0  0  0  0  0  0  0  0  0
   -0.7500    1.2990    0.0000 C   0  0  0  0  0  0  0  0  0  0  0  0
    0.7500    1.2990    0.0000 C   0  0  0  0  0  0  0  0  0  0  0  0
    1.5000    2.5981    0.0000 N   0  0  0  0  0  0  0  0  0  0  0  0
    0.7500    3.8971    0.0000 C   0  0  0  0  0  0  0  0  0  0  0  0
   -0.7500    3.8971    0.0000 O   0  0  0  0  0  0  0  0  0  0  0  0
    1.5000    5.1962    0.0000 C   0  0  0  0  0  0  0  0  0  0  0  0
    3.0000    5.1962    0.0000 C   0  0  0  0  0  0  0  0  0  0  0  0
    3.7500    6.4952    0.0000 C   0  0  0  0  0  0  0  0  0  0  0  0
    3.0000    7.7942    0.0000 C   0  0  0  0  0  0  0  0  0  0  0  0
    3.7500    9.0933    0.0000 C   0  0  0  0  0  0  0  0  0  0  0  0
    5.2500    9.0933    0.0000 N   0  0  0  0  0  0  0  0  0  0  0  0
    6.0000   10.3923    0.0000 C   0  0  0  0  0  0  0  0  0  0  0  0
    7.4489   10.7805    0.0000 C   0  0  0  0  0  0  0  0  0  0  0  0
    8.7479   10.0305    0.0000 O   0  0  0  0  0  0  0  0  0  0  0  0
    7.0607   12.2294    0.0000 C   0  0  0  0  0  0  0  0  0  0  0  0
    7.8107   13.5285    0.0000 O   0  0  0  0  0  0  0  0  0  0  0  0
    5.6118   11.8412    0.0000 C   0  0  0  0  0  0  0  0  0  0  0  0
    4.3127   12.5912    0.0000 N   0  0  0  0  0  4  0  0  0  0  0  0
    4.3127   14.0912    0.0000 C   0  0  0  0  0  0  0  0  0  0  0  0
    3.0137   14.8412    0.0000 C   0  0  0  0  0  0  0  0  0  0  0  0
    1.7147   14.0912    0.0000 C   0  0  0  0  0  0  0  0  0  0  0  0
    1.7147   12.5912    0.0000 C   0  0  0  0  0  0  0  0  0  0  0  0
    3.0137   11.8412    0.0000 C   0  0  0  0  0  0  0  0  0  0  0  0
    1.5000    7.7942    0.0000 C   0  0  0  0  0  0  0  0  0  0  0  0
    0.7500    6.4952    0.0000 C   0  0  0  0  0  0  0  0  0  0  0  0
  2  1  1  1
  2  3  1  0
  3  4  1  0
  4  5  1  0
  5  6  1  0
  6  7  1  0
  7  8  1  1
  8  9  1  0
  9 10  2  0
  9 11  1  0
 11 12  1  0
 12 13  1  0
 13 14  1  0
 14 15  1  0
 15 16  1  0
 16 17  1  0
 17 18  2  0
 18 19  1  0
 18 20  1  0
 20 21  2  0
 20 22  1  0
 22 23  2  0
 23 24  1  0
 24 25  1  0
 25 26  1  0
 26 27  1  0
 27 28  1  0
 14 29  1  0
 29 30  1  0
  7  2  1  0
 30 11  1  0
 22 17  1  0
 28 23  1  0
M  CHG  1  23   1
M  END
>  <Compound_ID>  (254) 
C36119369

>  <Active>  (254) 
0.0

>  <Smiles>  (254) 
C[C@H]1CCCC[C@H]1NC(=O)C1CCC(CNc2c(O)c(=O)c2=[N+]2CCCCC2)CC1

>  <canonical_smi>  (254) 
C[C@H]1CCCC[C@H]1NC(=O)C1CCC(CNc2c(O)c(=O)c2=[N+]2CCCCC2)CC1

>  <Set>  (254) 
G2 inactive

>  <Set_type>  (254) 
Train

>  <MW>  (254) 
416.59

>  <HBD>  (254) 
3

>  <HBA>  (254) 
4

>  <NRB>  (254) 
5

>  <NR>  (254) 
4

>  <NAR>  (254) 
1

>  <PSA>  (254) 
81.44

>  <Standard Type>  (254) 
nan

>  <Standard Relation>  (254) 
nan

>  <Standard Units>  (254) 
nan

>  <Standard Value>  (254) 
nan

>  <Assay ChEMBL ID>  (254) 
nan

>  <Assay Description>  (254) 
nan

>  <BAO Label>  (254) 
nan

$$$$

     RDKit          2D

 33 35  0  0  0  0  0  0  0  0999 V2000
   -3.8971  -10.3573    0.0000 C   0  0  0  0  0  0  0  0  0  0  0  0
   -2.5981   -9.6073    0.0000 C   0  0  0  0  0  0  0  0  0  0  0  0
   -2.5981   -8.1073    0.0000 N   0  0  0  0  0  4  0  0  0  0  0  0
   -3.8971   -7.3573    0.0000 C   0  0  0  0  0  0  0  0  0  0  0  0
   -5.1962   -8.1073    0.0000 C   0  0  0  0  0  0  0  0  0  0  0  0
   -1.2990   -7.3573    0.0000 C   0  0  0  0  0  0  0  0  0  0  0  0
   -1.2990   -5.8573    0.0000 C   0  0  0  0  0  0  0  0  0  0  0  0
   -0.0000   -5.1073    0.0000 N   0  0  0  0  0  0  0  0  0  0  0  0
    1.2990   -5.8573    0.0000 C   0  0  0  0  0  0  0  0  0  0  0  0
    2.5981   -5.1073    0.0000 O   0  0  0  0  0  0  0  0  0  0  0  0
    1.2990   -7.3573    0.0000 C   0  0  0  0  0  0  0  0  0  0  0  0
   -0.0000   -8.1073    0.0000 C   0  0  0  0  0  0  0  0  0  0  0  0
    0.0000   -9.6073    0.0000 C   0  0  0  0  0  0  0  0  0  0  0  0
    1.2990  -10.3573    0.0000 C   0  0  0  0  0  0  0  0  0  0  0  0
    2.5981   -9.6073    0.0000 C   0  0  0  0  0  0  0  0  0  0  0  0
    3.8971  -10.3573    0.0000 S   0  0  0  0  0  0  0  0  0  0  0  0
    5.1962  -11.1073    0.0000 C   0  0  0  0  0  0  0  0  0  0  0  0
    4.6471   -9.0583    0.0000 O   0  0  0  0  0  0  0  0  0  0  0  0
    3.1471  -11.6563    0.0000 O   0  0  0  0  0  0  0  0  0  0  0  0
    2.5981   -8.1073    0.0000 C   0  0  0  0  0  0  0  0  0  0  0  0
   -0.0000   -3.6073    0.0000 C   0  0  0  0  0  0  0  0  0  0  0  0
    1.2135   -2.7256    0.0000 N   0  0  0  0  0  0  0  0  0  0  0  0
    0.7500   -1.2990    0.0000 C   0  0  0  0  0  0  0  0  0  0  0  0
    1.5000    0.0000    0.0000 C   0  0  0  0  0  0  0  0  0  0  0  0
    3.0000    0.0000    0.0000 S   0  0  0  0  0  0  0  0  0  0  0  0
    4.5000    0.0000    0.0000 C   0  0  0  0  0  0  0  0  0  0  0  0
    3.0000   -1.5000    0.0000 O   0  0  0  0  0  0  0  0  0  0  0  0
    3.0000    1.5000    0.0000 O   0  0  0  0  0  0  0  0  0  0  0  0
    0.7500    1.2990    0.0000 C   0  0  0  0  0  0  0  0  0  0  0  0
   -0.7500    1.2990    0.0000 C   0  0  0  0  0  0  0  0  0  0  0  0
   -1.5000    0.0000    0.0000 C   0  0  0  0  0  0  0  0  0  0  0  0
   -0.7500   -1.2990    0.0000 C   0  0  0  0  0  0  0  0  0  0  0  0
   -1.2135   -2.7256    0.0000 S   0  0  0  0  0  0  0  0  0  0  0  0
  1  2  1  0
  2  3  1  0
  3  4  1  0
  4  5  1  0
  3  6  1  0
  6  7  1  0
  7  8  1  0
  8  9  1  0
  9 10  2  0
  9 11  1  0
 11 12  2  0
 12 13  1  0
 13 14  2  0
 14 15  1  0
 15 16  1  0
 16 17  1  0
 16 18  2  0
 16 19  2  0
 15 20  2  0
  8 21  1  0
 21 22  2  0
 22 23  1  0
 23 24  2  0
 24 25  1  0
 25 26  1  0
 25 27  2  0
 25 28  2  0
 24 29  1  0
 29 30  2  0
 30 31  1  0
 31 32  2  0
 32 33  1  0
 20 11  1  0
 33 21  1  0
 32 23  1  0
M  CHG  1   3   1
M  END
>  <Compound_ID>  (255) 
C10815480

>  <Active>  (255) 
0.0

>  <Smiles>  (255) 
CC[NH+](CC)CCN(C(=O)c1cccc(S(C)(=O)=O)c1)c1nc2c(S(C)(=O)=O)cccc2s1

>  <canonical_smi>  (255) 
CC[NH+](CC)CCN(C(=O)c1cccc(S(C)(=O)=O)c1)c1nc2c(S(C)(=O)=O)cccc2s1

>  <Set>  (255) 
G2 inactive

>  <Set_type>  (255) 
Train

>  <MW>  (255) 
510.68

>  <HBD>  (255) 
1

>  <HBA>  (255) 
6

>  <NRB>  (255) 
9

>  <NR>  (255) 
3

>  <NAR>  (255) 
3

>  <PSA>  (255) 
105.92

>  <Standard Type>  (255) 
nan

>  <Standard Relation>  (255) 
nan

>  <Standard Units>  (255) 
nan

>  <Standard Value>  (255) 
nan

>  <Assay ChEMBL ID>  (255) 
nan

>  <Assay Description>  (255) 
nan

>  <BAO Label>  (255) 
nan

$$$$

     RDKit          2D

 30 33  0  0  0  0  0  0  0  0999 V2000
   -4.9048  -10.2712    0.0000 C   0  0  0  0  0  0  0  0  0  0  0  0
   -6.3314   -9.8076    0.0000 O   0  0  0  0  0  0  0  0  0  0  0  0
   -6.6432   -8.3404    0.0000 C   0  0  0  0  0  0  0  0  0  0  0  0
   -5.5285   -7.3367    0.0000 O   0  0  0  0  0  0  0  0  0  0  0  0
   -8.0698   -7.8769    0.0000 C   0  0  0  0  0  0  0  0  0  0  0  0
   -9.1845   -8.8806    0.0000 C   0  0  0  0  0  0  0  0  0  0  0  0
  -10.6111   -8.4171    0.0000 C   0  0  0  0  0  0  0  0  0  0  0  0
  -10.9230   -6.9498    0.0000 C   0  0  0  0  0  0  0  0  0  0  0  0
   -9.8083   -5.9462    0.0000 C   0  0  0  0  0  0  0  0  0  0  0  0
   -9.8083   -4.4462    0.0000 N   0  0  0  0  0  0  0  0  0  0  0  0
   -8.3817   -3.9826    0.0000 C   0  0  0  0  0  0  0  0  0  0  0  0
   -7.5000   -5.1962    0.0000 C   0  0  0  0  0  0  0  0  0  0  0  0
   -6.0000   -5.1962    0.0000 C   0  0  0  0  0  0  0  0  0  0  0  0
   -5.2500   -3.8971    0.0000 C   0  0  0  0  0  0  0  0  0  0  0  0
   -6.0000   -2.5981    0.0000 C   0  0  0  0  0  0  0  0  0  0  0  0
   -6.7500   -1.2990    0.0000 N   0  0  0  0  0  0  0  0  0  0  0  0
   -3.7500   -3.8971    0.0000 C   0  0  0  0  0  0  0  0  0  0  0  0
   -3.0000   -5.1962    0.0000 O   0  0  0  0  0  0  0  0  0  0  0  0
   -3.0000   -2.5981    0.0000 N   0  0  0  0  0  4  0  0  0  0  0  0
   -1.5000   -2.5981    0.0000 C   0  0  0  0  0  0  0  0  0  0  0  0
   -0.7500   -3.8971    0.0000 C   0  0  0  0  0  0  0  0  0  0  0  0
    0.7500   -3.8971    0.0000 C   0  0  0  0  0  0  0  0  0  0  0  0
    1.5000   -2.5981    0.0000 C   0  0  0  0  0  0  0  0  0  0  0  0
    0.7500   -1.2990    0.0000 C   0  0  0  0  0  0  0  0  0  0  0  0
    1.5000    0.0000    0.0000 N   0  0  0  0  0  2  0  0  0  0  0  0
    0.7500    1.2990    0.0000 C   0  0  0  0  0  0  0  0  0  0  0  0
   -0.7500    1.2990    0.0000 C   0  0  0  0  0  0  0  0  0  0  0  0
   -1.5000    0.0000    0.0000 C   0  0  0  0  0  0  0  0  0  0  0  0
   -0.7500   -1.2990    0.0000 C   0  0  0  0  0  0  0  0  0  0  0  0
   -8.3817   -6.4097    0.0000 C   0  0  0  0  0  0  0  0  0  0  0  0
  1  2  1  0
  2  3  1  0
  3  4  2  0
  3  5  1  0
  5  6  2  0
  6  7  1  0
  7  8  2  0
  8  9  1  0
  9 10  1  0
 10 11  1  0
 11 12  2  0
 12 13  1  0
 13 14  2  0
 14 15  1  0
 15 16  3  0
 14 17  1  0
 17 18  2  0
 17 19  1  0
 19 20  2  0
 20 21  1  0
 21 22  2  0
 22 23  1  0
 23 24  2  0
 24 25  1  0
 25 26  1  0
 26 27  2  0
 27 28  1  0
 28 29  2  0
 12 30  1  0
 30  5  1  0
 30  9  2  0
 29 20  1  0
 29 24  1  0
M  CHG  2  19   1  25  -1
M  END
>  <Compound_ID>  (256) 
C61717600

>  <Active>  (256) 
0.0

>  <Smiles>  (256) 
COC(=O)c1cccc2[nH]cc(/C=C(\C#N)C(=O)/[NH+]=c3\cccc4[n-]cccc3-4)c12

>  <canonical_smi>  (256) 
COC(=O)c1cccc2[nH]cc(/C=C(\C#N)C(=O)/[NH+]=c3\cccc4[n-]cccc3-4)c12

>  <Set>  (256) 
G2 inactive

>  <Set_type>  (256) 
Train

>  <MW>  (256) 
396.41

>  <HBD>  (256) 
2

>  <HBA>  (256) 
5

>  <NRB>  (256) 
3

>  <NR>  (256) 
4

>  <NAR>  (256) 
4

>  <PSA>  (256) 
111.02

>  <Standard Type>  (256) 
nan

>  <Standard Relation>  (256) 
nan

>  <Standard Units>  (256) 
nan

>  <Standard Value>  (256) 
nan

>  <Assay ChEMBL ID>  (256) 
nan

>  <Assay Description>  (256) 
nan

>  <BAO Label>  (256) 
nan

$$$$

     RDKit          2D

 33 37  0  0  0  0  0  0  0  0999 V2000
    2.6491    0.9642    0.0000 C   0  0  0  0  0  0  0  0  0  0  0  0
    1.5000    0.0000    0.0000 C   0  0  0  0  0  0  0  0  0  0  0  0
    2.6491   -0.9642    0.0000 C   0  0  0  0  0  0  0  0  0  0  0  0
    0.7500   -1.2990    0.0000 C   0  0  0  0  0  0  0  0  0  0  0  0
   -0.7500   -1.2990    0.0000 C   0  0  0  0  0  0  0  0  0  0  0  0
   -1.7537   -2.4138    0.0000 N   0  0  0  0  0  0  0  0  0  0  0  0
   -3.1240   -1.8037    0.0000 N   0  0  0  0  0  0  0  0  0  0  0  0
   -4.4231   -2.5537    0.0000 C   0  0  0  0  0  0  0  0  0  0  0  0
   -5.7221   -1.8037    0.0000 C   0  0  0  0  0  0  0  0  0  0  0  0
   -7.0211   -2.5537    0.0000 C   0  0  0  0  0  0  0  0  0  0  0  0
   -7.0211   -4.0537    0.0000 C   0  0  0  0  0  0  0  0  0  0  0  0
   -5.7221   -4.8037    0.0000 C   0  0  0  0  0  0  0  0  0  0  0  0
   -4.4231   -4.0537    0.0000 C   0  0  0  0  0  0  0  0  0  0  0  0
   -2.9672   -0.3119    0.0000 P   0  0  0  0  0  5  0  0  0  0  0  0
   -3.1240    1.1799    0.0000 S   0  0  0  0  0  0  0  0  0  0  0  0
   -4.4672   -0.3119    0.0000 O   0  0  0  0  0  0  0  0  0  0  0  0
   -5.2172    0.9872    0.0000 C   0  0  0  0  0  0  0  0  0  0  0  0
   -6.7172    0.9872    0.0000 C   0  0  0  0  0  0  0  0  0  0  0  0
   -7.4672    2.2862    0.0000 C   0  0  0  0  0  0  0  0  0  0  0  0
   -6.7172    3.5852    0.0000 C   0  0  0  0  0  0  0  0  0  0  0  0
   -7.4672    4.8843    0.0000 C   0  0  0  0  0  0  0  0  0  0  0  0
   -8.9672    4.8843    0.0000 C   0  0  0  0  0  0  0  0  0  0  0  0
   -9.7172    3.5852    0.0000 C   0  0  0  0  0  0  0  0  0  0  0  0
   -8.9672    2.2862    0.0000 N   0  0  0  0  0  0  0  0  0  0  0  0
   -1.5000    0.0000    0.0000 C   0  0  0  0  0  0  0  0  0  0  0  0
   -0.7500    1.2990    0.0000 C   0  0  0  0  0  0  0  0  0  0  0  0
   -1.5000    2.5981    0.0000 N   0  0  0  0  0  4  0  0  0  0  0  0
   -0.7500    3.8971    0.0000 C   0  0  0  0  0  0  0  0  0  0  0  0
   -1.5000    5.1962    0.0000 C   0  0  0  0  0  0  0  0  0  0  0  0
   -3.0000    5.1962    0.0000 C   0  0  0  0  0  0  0  0  0  0  0  0
   -3.7500    3.8971    0.0000 C   0  0  0  0  0  0  0  0  0  0  0  0
   -3.0000    2.5981    0.0000 C   0  0  0  0  0  0  0  0  0  0  0  0
    0.7500    1.2990    0.0000 C   0  0  0  0  0  0  0  0  0  0  0  0
  1  2  1  0
  2  3  1  0
  2  4  1  0
  4  5  2  0
  5  6  1  0
  6  7  1  0
  7  8  1  0
  8  9  2  0
  9 10  1  0
 10 11  2  0
 11 12  1  0
 12 13  2  0
  7 14  1  0
 14 15  2  0
 14 16  1  6
 16 17  1  0
 17 18  1  0
 18 19  1  0
 19 20  2  0
 20 21  1  0
 21 22  2  0
 22 23  1  0
 23 24  2  0
 14 25  1  0
 25 26  2  0
 26 27  1  0
 27 28  1  0
 28 29  1  0
 29 30  1  0
 30 31  1  0
 31 32  1  0
 26 33  1  0
 33  2  1  0
 25  5  1  0
 32 27  1  0
 13  8  1  0
 24 19  1  0
M  CHG  1  27   1
M  END
>  <Compound_ID>  (257) 
C03175646

>  <Active>  (257) 
0.0

>  <Smiles>  (257) 
CC1(C)C=C2NN(c3ccccc3)[P@](=S)(OCCc3ccccn3)C2=C([NH+]2CCCCC2)C1

>  <canonical_smi>  (257) 
CC1(C)C=C2NN(c3ccccc3)[P@](=S)(OCCc3ccccn3)C2=C([NH+]2CCCCC2)C1

>  <Set>  (257) 
G2 inactive

>  <Set_type>  (257) 
Train

>  <MW>  (257) 
481.63

>  <HBD>  (257) 
2

>  <HBA>  (257) 
5

>  <NRB>  (257) 
6

>  <NR>  (257) 
5

>  <NAR>  (257) 
2

>  <PSA>  (257) 
41.83

>  <Standard Type>  (257) 
nan

>  <Standard Relation>  (257) 
nan

>  <Standard Units>  (257) 
nan

>  <Standard Value>  (257) 
nan

>  <Assay ChEMBL ID>  (257) 
nan

>  <Assay Description>  (257) 
nan

>  <BAO Label>  (257) 
nan

$$$$

     RDKit          2D

 31 34  0  0  0  0  0  0  0  0999 V2000
    1.5000   -7.7942    0.0000 C   0  0  0  0  0  0  0  0  0  0  0  0
    0.7500   -6.4952    0.0000 C   0  0  0  0  0  0  0  0  0  0  0  0
    1.5000   -5.1962    0.0000 C   0  0  0  0  0  0  0  0  0  0  0  0
    0.7500   -3.8971    0.0000 N   0  0  0  0  0  0  0  0  0  0  0  0
    1.5000   -2.5981    0.0000 C   0  0  0  0  0  0  0  0  0  0  0  0
    3.0000   -2.5981    0.0000 O   0  0  0  0  0  0  0  0  0  0  0  0
    0.7500   -1.2990    0.0000 C   0  0  0  0  0  0  0  0  0  0  0  0
    1.5000    0.0000    0.0000 C   0  0  0  0  0  0  0  0  0  0  0  0
    0.7500    1.2990    0.0000 C   0  0  0  0  0  0  0  0  0  0  0  0
   -0.7500    1.2990    0.0000 N   0  0  0  0  0  4  0  0  0  0  0  0
   -1.5000    2.5981    0.0000 C   0  0  0  0  0  0  0  0  0  0  0  0
   -0.7500    3.8971    0.0000 C   0  0  0  0  0  0  0  0  0  0  0  0
   -1.3601    5.2674    0.0000 N   0  0  0  0  0  0  0  0  0  0  0  0
   -0.2454    6.2711    0.0000 N   0  0  0  0  0  0  0  0  0  0  0  0
    1.0537    5.5211    0.0000 C   0  0  0  0  0  0  0  0  0  0  0  0
    2.4240    6.1312    0.0000 C   0  0  0  0  0  0  0  0  0  0  0  0
    3.6375    5.2496    0.0000 C   0  0  0  0  0  0  0  0  0  0  0  0
    5.0078    5.8597    0.0000 C   0  0  0  0  0  0  0  0  0  0  0  0
    5.1646    7.3514    0.0000 C   0  0  0  0  0  0  0  0  0  0  0  0
    6.5349    7.9615    0.0000 Cl  0  0  0  0  0  0  0  0  0  0  0  0
    3.9511    8.2331    0.0000 C   0  0  0  0  0  0  0  0  0  0  0  0
    2.5808    7.6230    0.0000 C   0  0  0  0  0  0  0  0  0  0  0  0
    0.7418    4.0539    0.0000 O   0  0  0  0  0  0  0  0  0  0  0  0
   -1.5000    0.0000    0.0000 C   0  0  0  0  0  0  0  0  0  0  0  0
   -0.7500   -1.2990    0.0000 C   0  0  0  0  0  0  0  0  0  0  0  0
   -0.7500   -6.4952    0.0000 C   0  0  0  0  0  0  0  0  0  0  0  0
   -1.5000   -5.1962    0.0000 C   0  0  0  0  0  0  0  0  0  0  0  0
   -3.0000   -5.1962    0.0000 C   0  0  0  0  0  0  0  0  0  0  0  0
   -3.7500   -6.4952    0.0000 C   0  0  0  0  0  0  0  0  0  0  0  0
   -3.0000   -7.7942    0.0000 C   0  0  0  0  0  0  0  0  0  0  0  0
   -1.5000   -7.7942    0.0000 C   0  0  0  0  0  0  0  0  0  0  0  0
  2  1  1  1
  2  3  1  0
  3  4  1  0
  4  5  1  0
  5  6  2  0
  5  7  1  0
  7  8  1  0
  8  9  1  0
  9 10  1  0
 10 11  1  0
 11 12  1  0
 12 13  2  0
 13 14  1  0
 14 15  2  0
 15 16  1  0
 16 17  2  0
 17 18  1  0
 18 19  2  0
 19 20  1  0
 19 21  1  0
 21 22  2  0
 15 23  1  0
 10 24  1  0
 24 25  1  0
  2 26  1  0
 26 27  2  0
 27 28  1  0
 28 29  2  0
 29 30  1  0
 30 31  2  0
 25  7  1  0
 31 26  1  0
 23 12  1  0
 22 16  1  0
M  CHG  1  10   1
M  END
>  <Compound_ID>  (258) 
C41273818

>  <Active>  (258) 
0.0

>  <Smiles>  (258) 
C[C@H](CNC(=O)C1CC[NH+](Cc2nnc(-c3ccc(Cl)cc3)o2)CC1)c1ccccc1

>  <canonical_smi>  (258) 
C[C@H](CNC(=O)C1CC[NH+](Cc2nnc(-c3ccc(Cl)cc3)o2)CC1)c1ccccc1

>  <Set>  (258) 
G2 inactive

>  <Set_type>  (258) 
Train

>  <MW>  (258) 
439.97

>  <HBD>  (258) 
2

>  <HBA>  (258) 
4

>  <NRB>  (258) 
7

>  <NR>  (258) 
4

>  <NAR>  (258) 
3

>  <PSA>  (258) 
72.46

>  <Standard Type>  (258) 
nan

>  <Standard Relation>  (258) 
nan

>  <Standard Units>  (258) 
nan

>  <Standard Value>  (258) 
nan

>  <Assay ChEMBL ID>  (258) 
nan

>  <Assay Description>  (258) 
nan

>  <BAO Label>  (258) 
nan

$$$$

     RDKit          2D

 32 37  0  0  0  0  0  0  0  0999 V2000
   -7.0819   -4.5043    0.0000 C   0  0  0  0  0  0  0  0  0  0  0  0
   -5.9672   -5.5080    0.0000 N   0  0  0  0  0  0  0  0  0  0  0  0
   -6.1240   -6.9998    0.0000 N   0  0  0  0  0  0  0  0  0  0  0  0
   -4.7537   -7.6099    0.0000 C   0  0  0  0  0  0  0  0  0  0  0  0
   -4.4418   -9.0771    0.0000 C   0  0  0  0  0  0  0  0  0  0  0  0
   -3.0152   -9.5407    0.0000 O   0  0  0  0  0  0  0  0  0  0  0  0
   -5.5565  -10.0808    0.0000 N   0  0  0  0  0  0  0  0  0  0  0  0
   -5.3998  -11.5726    0.0000 C   0  0  0  0  0  0  0  0  0  0  0  0
   -6.7701  -12.1827    0.0000 C   0  0  0  0  0  0  0  0  0  0  0  0
   -7.7738  -11.0680    0.0000 C   0  0  0  0  0  0  0  0  0  0  0  0
   -7.0238   -9.7690    0.0000 C   0  0  0  0  0  0  0  0  0  0  0  0
   -3.7500   -6.4952    0.0000 C   0  0  0  0  0  0  0  0  0  0  0  0
   -4.5000   -5.1962    0.0000 C   0  0  0  0  0  0  0  0  0  0  0  0
   -3.7500   -3.8971    0.0000 C   0  0  0  0  0  0  0  0  0  0  0  0
   -2.2500   -3.8971    0.0000 C   0  0  0  0  0  0  0  0  0  0  0  0
   -1.5000   -5.1962    0.0000 C   0  0  0  0  0  0  0  0  0  0  0  0
   -0.0000   -5.1962    0.0000 N   0  0  0  0  0  4  0  0  0  0  0  0
    0.7500   -3.8971    0.0000 C   0  0  0  0  0  0  0  0  0  0  0  0
   -0.5490   -3.1471    0.0000 C   0  0  0  0  0  0  0  0  0  0  0  0
    2.0490   -4.6471    0.0000 C   0  0  0  0  0  0  0  0  0  0  0  0
    1.5000   -2.5981    0.0000 C   0  0  0  0  0  0  0  0  0  0  0  0
    0.7500   -1.2990    0.0000 C   0  0  0  0  0  0  0  0  0  0  0  0
    1.5000    0.0000    0.0000 C   0  0  0  0  0  0  0  0  0  0  0  0
    0.7500    1.2990    0.0000 C   0  0  0  0  0  0  0  0  0  0  0  0
   -0.7500    1.2990    0.0000 C   0  0  0  0  0  0  0  0  0  0  0  0
   -1.5000    0.0000    0.0000 C   0  0  0  0  0  0  0  0  0  0  0  0
    1.7010   -0.7500    0.0000 C   0  0  0  0  0  0  0  0  0  0  0  0
    3.0000   -0.0000    0.0000 C   0  0  0  0  0  0  0  0  0  0  0  0
    2.2500    1.2990    0.0000 C   0  0  0  0  0  0  0  0  0  0  0  0
    2.2500   -1.2990    0.0000 C   0  0  0  0  0  0  0  0  0  0  0  0
   -0.7500   -1.2990    0.0000 C   0  0  0  0  0  0  0  0  0  0  0  0
   -2.2500   -6.4952    0.0000 C   0  0  0  0  0  0  0  0  0  0  0  0
  1  2  1  0
  2  3  1  0
  3  4  2  0
  4  5  1  0
  5  6  2  0
  5  7  1  0
  7  8  1  0
  8  9  1  0
  9 10  1  0
 10 11  1  0
  4 12  1  0
 12 13  2  0
 13 14  1  0
 14 15  1  0
 15 16  1  0
 16 17  1  1
 17 18  1  0
 18 19  1  0
 18 20  1  0
 18 21  1  0
 21 22  1  0
 22 23  1  0
 23 24  1  0
 24 25  1  0
 25 26  1  0
 26 27  1  0
 27 28  1  0
 28 29  1  0
 28 30  1  0
 26 31  1  0
 16 32  1  0
 13  2  1  0
 30 22  1  0
 11  7  1  0
 32 12  1  0
 31 22  1  0
 29 24  1  0
M  CHG  1  17   1
M  END
>  <Compound_ID>  (259) 
C14745241

>  <Active>  (259) 
0.0

>  <Smiles>  (259) 
Cn1nc(C(=O)N2CCCC2)c2c1CC[C@@H]([NH2+]C(C)(C)CC13CC4CC(CC(C4)C1)C3)C2

>  <canonical_smi>  (259) 
Cn1nc(C(=O)N2CCCC2)c2c1CC[C@@H]([NH2+]C(C)(C)CC13CC4CC(CC(C4)C1)C3)C2

>  <Set>  (259) 
G2 inactive

>  <Set_type>  (259) 
Train

>  <MW>  (259) 
439.67

>  <HBD>  (259) 
1

>  <HBA>  (259) 
2

>  <NRB>  (259) 
5

>  <NR>  (259) 
7

>  <NAR>  (259) 
1

>  <PSA>  (259) 
54.74

>  <Standard Type>  (259) 
nan

>  <Standard Relation>  (259) 
nan

>  <Standard Units>  (259) 
nan

>  <Standard Value>  (259) 
nan

>  <Assay ChEMBL ID>  (259) 
nan

>  <Assay Description>  (259) 
nan

>  <BAO Label>  (259) 
nan

$$$$

     RDKit          2D

 38 41  0  0  0  0  0  0  0  0999 V2000
   -1.7024   10.0935    0.0000 C   0  0  0  0  0  0  0  0  0  0  0  0
   -0.2758   10.5570    0.0000 C   0  0  0  0  0  0  0  0  0  0  0  0
    0.0361   12.0242    0.0000 C   0  0  0  0  0  0  0  0  0  0  0  0
    1.4627   12.4878    0.0000 C   0  0  0  0  0  0  0  0  0  0  0  0
    2.5774   11.4841    0.0000 C   0  0  0  0  0  0  0  0  0  0  0  0
    2.2655   10.0169    0.0000 C   0  0  0  0  0  0  0  0  0  0  0  0
    0.8389    9.5533    0.0000 C   0  0  0  0  0  0  0  0  0  0  0  0
    0.5271    8.0861    0.0000 C   0  0  0  0  0  0  0  0  0  0  0  0
   -0.8995    7.6226    0.0000 C   0  0  0  0  0  0  0  0  0  0  0  0
   -1.2114    6.1554    0.0000 O   0  0  0  0  0  0  0  0  0  0  0  0
   -2.0143    8.6263    0.0000 N   0  0  0  0  0  0  0  0  0  0  0  0
   -3.4408    8.1628    0.0000 C   0  0  0  0  0  0  0  0  0  0  0  0
   -3.9044    9.5893    0.0000 C   0  0  0  0  0  0  0  0  0  0  0  0
   -2.9773    6.7362    0.0000 C   0  0  0  0  0  0  0  0  0  0  0  0
   -4.8674    7.6992    0.0000 C   0  0  0  0  0  0  0  0  0  0  0  0
   -5.1793    6.2320    0.0000 C   0  0  0  0  0  0  0  0  0  0  0  0
   -6.6465    6.5439    0.0000 C   0  0  0  0  0  0  0  0  0  0  0  0
   -3.7121    5.9201    0.0000 C   0  0  0  0  0  0  0  0  0  0  0  0
   -5.4912    4.7648    0.0000 C   0  0  0  0  0  0  0  0  0  0  0  0
    1.6418    7.0824    0.0000 N   0  0  0  0  0  0  0  0  0  0  0  0
    3.0684    7.5459    0.0000 C   0  0  0  0  0  0  0  0  0  0  0  0
    4.1831    6.5422    0.0000 C   0  0  0  0  0  0  0  0  0  0  0  0
    4.0263    5.0505    0.0000 C   0  0  0  0  0  0  0  0  0  0  0  0
    5.3966    4.4404    0.0000 C   0  0  0  0  0  0  0  0  0  0  0  0
    6.4003    5.5551    0.0000 C   0  0  0  0  0  0  0  0  0  0  0  0
    5.6503    6.8541    0.0000 O   0  0  0  0  0  0  0  0  0  0  0  0
    1.3299    5.6152    0.0000 C   0  0  0  0  0  0  0  0  0  0  0  0
    2.4446    4.6115    0.0000 O   0  0  0  0  0  0  0  0  0  0  0  0
   -0.0967    5.1517    0.0000 C   0  0  0  0  0  0  0  0  0  0  0  0
   -0.4086    3.6844    0.0000 C   0  0  0  0  0  0  0  0  0  0  0  0
   -1.8351    3.2209    0.0000 C   0  0  0  0  0  0  0  0  0  0  0  0
   -2.1470    1.7537    0.0000 C   0  0  0  0  0  0  0  0  0  0  0  0
   -1.0323    0.7500    0.0000 C   0  0  0  0  0  0  0  0  0  0  0  0
    0.3943    1.2135    0.0000 C   0  0  0  0  0  0  0  0  0  0  0  0
    0.7062    2.6807    0.0000 C   0  0  0  0  0  0  0  0  0  0  0  0
    1.2760    0.0000    0.0000 O   0  0  0  0  0  0  0  0  0  0  0  0
    0.3943   -1.2135    0.0000 C   0  0  0  0  0  0  0  0  0  0  0  0
   -1.0323   -0.7500    0.0000 O   0  0  0  0  0  0  0  0  0  0  0  0
  1  2  1  0
  2  3  2  0
  3  4  1  0
  4  5  2  0
  5  6  1  0
  6  7  2  0
  7  8  1  0
  8  9  1  0
  9 10  2  0
  9 11  1  0
 11 12  1  0
 12 13  1  0
 12 14  1  0
 12 15  1  0
 15 16  1  0
 16 17  1  0
 16 18  1  0
 16 19  1  0
  8 20  1  1
 20 21  1  0
 21 22  1  0
 22 23  2  0
 23 24  1  0
 24 25  2  0
 25 26  1  0
 20 27  1  0
 27 28  2  0
 27 29  1  0
 29 30  1  0
 30 31  2  0
 31 32  1  0
 32 33  2  0
 33 34  1  0
 34 35  2  0
 34 36  1  0
 36 37  1  0
 37 38  1  0
  7  2  1  0
 26 22  1  0
 35 30  1  0
 38 33  1  0
M  END
>  <Compound_ID>  (260) 
C36502049

>  <Active>  (260) 
0.0

>  <Smiles>  (260) 
Cc1ccccc1[C@H](C(=O)NC(C)(C)CC(C)(C)C)N(Cc1ccco1)C(=O)Cc1ccc2c(c1)OCO2

>  <canonical_smi>  (260) 
Cc1ccccc1[C@H](C(=O)NC(C)(C)CC(C)(C)C)N(Cc1ccco1)C(=O)Cc1ccc2c(c1)OCO2

>  <Set>  (260) 
G2 inactive

>  <Set_type>  (260) 
Train

>  <MW>  (260) 
518.65

>  <HBD>  (260) 
1

>  <HBA>  (260) 
5

>  <NRB>  (260) 
9

>  <NR>  (260) 
4

>  <NAR>  (260) 
3

>  <PSA>  (260) 
81.01

>  <Standard Type>  (260) 
nan

>  <Standard Relation>  (260) 
nan

>  <Standard Units>  (260) 
nan

>  <Standard Value>  (260) 
nan

>  <Assay ChEMBL ID>  (260) 
nan

>  <Assay Description>  (260) 
nan

>  <BAO Label>  (260) 
nan

$$$$

     RDKit          2D

 34 36  0  0  0  0  0  0  0  0999 V2000
    3.7500   -1.2990    0.0000 C   0  0  0  0  0  0  0  0  0  0  0  0
    3.0000    0.0000    0.0000 N   0  0  0  0  0  0  0  0  0  0  0  0
    1.5000    0.0000    0.0000 C   0  0  0  0  0  0  0  0  0  0  0  0
    0.7500   -1.2990    0.0000 N   0  0  0  0  0  0  0  0  0  0  0  0
   -0.7500   -1.2990    0.0000 C   0  0  0  0  0  0  0  0  0  0  0  0
   -1.5000   -2.5981    0.0000 N   0  0  0  0  0  0  0  0  0  0  0  0
   -3.0000   -2.5981    0.0000 C   0  0  0  0  0  0  0  0  0  0  0  0
   -3.7500   -1.2990    0.0000 C   0  0  0  0  0  0  0  0  0  0  0  0
   -5.2500   -1.2990    0.0000 C   0  0  0  0  0  0  0  0  0  0  0  0
   -6.0000   -2.5981    0.0000 C   0  0  0  0  0  0  0  0  0  0  0  0
   -5.2500   -3.8971    0.0000 C   0  0  0  0  0  0  0  0  0  0  0  0
   -3.7500   -3.8971    0.0000 C   0  0  0  0  0  0  0  0  0  0  0  0
   -3.0000   -5.1962    0.0000 S   0  0  0  0  0  0  0  0  0  0  0  0
   -3.7500   -6.4952    0.0000 C   0  0  0  0  0  0  0  0  0  0  0  0
   -5.0490   -5.7452    0.0000 F   0  0  0  0  0  0  0  0  0  0  0  0
   -4.5000   -7.7942    0.0000 F   0  0  0  0  0  0  0  0  0  0  0  0
   -2.4510   -7.2452    0.0000 C   0  0  0  0  0  0  0  0  0  0  0  0
   -1.7010   -5.9462    0.0000 F   0  0  0  0  0  0  0  0  0  0  0  0
   -3.2010   -8.5442    0.0000 F   0  0  0  0  0  0  0  0  0  0  0  0
   -1.1519   -7.9952    0.0000 C   0  0  0  0  0  0  0  0  0  0  0  0
    0.1471   -8.7452    0.0000 F   0  0  0  0  0  0  0  0  0  0  0  0
   -0.4019   -6.6962    0.0000 F   0  0  0  0  0  0  0  0  0  0  0  0
   -1.9019   -9.2942    0.0000 F   0  0  0  0  0  0  0  0  0  0  0  0
   -1.5000    0.0000    0.0000 N   0  0  0  0  0  0  0  0  0  0  0  0
   -0.7500    1.2990    0.0000 C   0  0  0  0  0  0  0  0  0  0  0  0
   -1.5000    2.5981    0.0000 O   0  0  0  0  0  0  0  0  0  0  0  0
   -0.7500    3.8971    0.0000 N   0  0  0  0  0  0  0  0  0  0  0  0
   -1.5000    5.1962    0.0000 C   0  0  0  0  0  0  0  0  0  0  0  0
   -0.7500    6.4952    0.0000 C   0  0  0  0  0  0  0  0  0  0  0  0
   -1.5000    7.7942    0.0000 C   0  0  0  0  0  0  0  0  0  0  0  0
   -3.0000    7.7942    0.0000 C   0  0  0  0  0  0  0  0  0  0  0  0
   -3.7500    6.4952    0.0000 C   0  0  0  0  0  0  0  0  0  0  0  0
   -3.0000    5.1962    0.0000 C   0  0  0  0  0  0  0  0  0  0  0  0
    0.7500    1.2990    0.0000 N   0  0  0  0  0  0  0  0  0  0  0  0
  1  2  1  0
  2  3  1  0
  3  4  2  0
  4  5  1  0
  5  6  1  0
  6  7  1  0
  7  8  2  0
  8  9  1  0
  9 10  2  0
 10 11  1  0
 11 12  2  0
 12 13  1  0
 13 14  1  0
 14 15  1  0
 14 16  1  0
 14 17  1  0
 17 18  1  0
 17 19  1  0
 17 20  1  0
 20 21  1  0
 20 22  1  0
 20 23  1  0
  5 24  2  0
 24 25  1  0
 25 26  1  0
 26 27  1  0
 27 28  2  0
 28 29  1  0
 29 30  1  0
 30 31  1  0
 31 32  1  0
 32 33  1  0
 25 34  2  0
 34  3  1  0
 12  7  1  0
 33 28  1  0
M  END
>  <Compound_ID>  (261) 
C15636084

>  <Active>  (261) 
0.0

>  <Smiles>  (261) 
CNc1nc(Nc2ccccc2SC(F)(F)C(F)(F)C(F)(F)F)nc(ON=C2CCCCC2)n1

>  <canonical_smi>  (261) 
CNc1nc(Nc2ccccc2SC(F)(F)C(F)(F)C(F)(F)F)nc(ON=C2CCCCC2)n1

>  <Set>  (261) 
G2 inactive

>  <Set_type>  (261) 
Train

>  <MW>  (261) 
512.46

>  <HBD>  (261) 
2

>  <HBA>  (261) 
7

>  <NRB>  (261) 
8

>  <NR>  (261) 
3

>  <NAR>  (261) 
2

>  <PSA>  (261) 
84.32

>  <Standard Type>  (261) 
nan

>  <Standard Relation>  (261) 
nan

>  <Standard Units>  (261) 
nan

>  <Standard Value>  (261) 
nan

>  <Assay ChEMBL ID>  (261) 
nan

>  <Assay Description>  (261) 
nan

>  <BAO Label>  (261) 
nan

$$$$

     RDKit          2D

 34 38  0  0  0  0  0  0  0  0999 V2000
   -6.2940    7.2357    0.0000 O   0  0  0  0  0  0  0  0  0  0  0  0
   -7.7206    6.7722    0.0000 C   0  0  0  0  0  0  0  0  0  0  0  0
   -8.0325    5.3050    0.0000 N   0  0  0  0  0  0  0  0  0  0  0  0
   -6.9177    4.3013    0.0000 C   0  0  0  0  0  0  0  0  0  0  0  0
   -7.2296    2.8340    0.0000 C   0  0  0  0  0  0  0  0  0  0  0  0
   -6.1149    1.8303    0.0000 C   0  0  0  0  0  0  0  0  0  0  0  0
   -4.6883    2.2939    0.0000 C   0  0  0  0  0  0  0  0  0  0  0  0
   -3.5736    1.2902    0.0000 O   0  0  0  0  0  0  0  0  0  0  0  0
   -2.1470    1.7537    0.0000 C   0  0  0  0  0  0  0  0  0  0  0  0
   -1.8351    3.2209    0.0000 C   0  0  0  0  0  0  0  0  0  0  0  0
   -0.4086    3.6844    0.0000 C   0  0  0  0  0  0  0  0  0  0  0  0
    0.7062    2.6807    0.0000 N   0  0  0  0  0  0  0  0  0  0  0  0
    0.3943    1.2135    0.0000 C   0  0  0  0  0  0  0  0  0  0  0  0
    1.2760    0.0000    0.0000 N   0  0  0  0  0  0  0  0  0  0  0  0
    0.3943   -1.2135    0.0000 C   0  0  0  0  0  0  0  0  0  0  0  0
   -1.0323   -0.7500    0.0000 C   0  0  0  0  0  0  0  0  0  0  0  0
   -1.0323    0.7500    0.0000 C   0  0  0  0  0  0  0  0  0  0  0  0
   -4.3764    3.7611    0.0000 C   0  0  0  0  0  0  0  0  0  0  0  0
   -2.9499    4.2246    0.0000 F   0  0  0  0  0  0  0  0  0  0  0  0
   -5.4912    4.7648    0.0000 C   0  0  0  0  0  0  0  0  0  0  0  0
   -8.8353    7.7759    0.0000 C   0  0  0  0  0  0  0  0  0  0  0  0
   -8.5234    9.2431    0.0000 C   0  0  0  0  0  0  0  0  0  0  0  0
   -9.6382   10.2468    0.0000 C   0  0  0  0  0  0  0  0  0  0  0  0
  -11.0647    9.7833    0.0000 C   0  0  0  0  0  0  0  0  0  0  0  0
  -11.3766    8.3160    0.0000 N   0  0  0  0  0  0  0  0  0  0  0  0
  -12.8032    7.8525    0.0000 C   0  0  0  0  0  0  0  0  0  0  0  0
  -13.9179    8.8562    0.0000 C   0  0  0  0  0  0  0  0  0  0  0  0
  -15.3445    8.3927    0.0000 C   0  0  0  0  0  0  0  0  0  0  0  0
  -15.6564    6.9255    0.0000 C   0  0  0  0  0  0  0  0  0  0  0  0
  -17.0829    6.4619    0.0000 F   0  0  0  0  0  0  0  0  0  0  0  0
  -14.5416    5.9218    0.0000 C   0  0  0  0  0  0  0  0  0  0  0  0
  -13.1151    6.3853    0.0000 C   0  0  0  0  0  0  0  0  0  0  0  0
  -10.2619    7.3123    0.0000 C   0  0  0  0  0  0  0  0  0  0  0  0
  -10.5738    5.8451    0.0000 O   0  0  0  0  0  0  0  0  0  0  0  0
  1  2  2  0
  2  3  1  0
  3  4  1  0
  4  5  2  0
  5  6  1  0
  6  7  2  0
  7  8  1  0
  8  9  1  0
  9 10  2  0
 10 11  1  0
 11 12  2  0
 12 13  1  0
 13 14  1  0
 14 15  1  0
 15 16  2  0
 16 17  1  0
  7 18  1  0
 18 19  1  0
 18 20  2  0
  2 21  1  0
 21 22  2  0
 22 23  1  0
 23 24  2  0
 24 25  1  0
 25 26  1  0
 26 27  2  0
 27 28  1  0
 28 29  2  0
 29 30  1  0
 29 31  1  0
 31 32  2  0
 25 33  1  0
 33 34  2  0
 20  4  1  0
 33 21  1  0
 17  9  1  0
 32 26  1  0
 17 13  2  0
M  END
>  <Compound_ID>  (262) 
CHEMBL509101

>  <Active>  (262) 
1.0

>  <Smiles>  (262) 
O=C(Nc1ccc(Oc2ccnc3[nH]ccc23)c(F)c1)c1cccn(-c2ccc(F)cc2)c1=O

>  <canonical_smi>  (262) 
O=C(Nc1ccc(Oc2ccnc3[nH]ccc23)c(F)c1)c1cccn(-c2ccc(F)cc2)c1=O

>  <Set>  (262) 
G2 active

>  <Set_type>  (262) 
Test

>  <MW>  (262) 
458.42

>  <HBD>  (262) 
2

>  <HBA>  (262) 
4

>  <NRB>  (262) 
5

>  <NR>  (262) 
5

>  <NAR>  (262) 
5

>  <PSA>  (262) 
89.01

>  <Standard Type>  (262) 
nan

>  <Standard Relation>  (262) 
nan

>  <Standard Units>  (262) 
nan

>  <Standard Value>  (262) 
nan

>  <Assay ChEMBL ID>  (262) 
nan

>  <Assay Description>  (262) 
nan

>  <BAO Label>  (262) 
nan

$$$$

     RDKit          2D

 30 34  0  0  0  0  0  0  0  0999 V2000
  -11.5493   -6.6144    0.0000 C   0  0  0  0  0  0  0  0  0  0  0  0
  -10.9392   -7.9847    0.0000 C   0  0  0  0  0  0  0  0  0  0  0  0
  -11.8209   -9.1983    0.0000 O   0  0  0  0  0  0  0  0  0  0  0  0
   -9.4474   -8.1415    0.0000 N   0  0  0  0  0  0  0  0  0  0  0  0
   -8.5658   -6.9280    0.0000 C   0  0  0  0  0  0  0  0  0  0  0  0
   -7.0740   -7.0848    0.0000 C   0  0  0  0  0  0  0  0  0  0  0  0
   -6.4639   -8.4551    0.0000 C   0  0  0  0  0  0  0  0  0  0  0  0
   -4.9721   -8.6119    0.0000 N   0  0  0  0  0  0  0  0  0  0  0  0
   -3.9684   -7.4972    0.0000 C   0  0  0  0  0  0  0  0  0  0  0  0
   -2.5981   -8.1073    0.0000 C   0  0  0  0  0  0  0  0  0  0  0  0
   -1.2990   -7.3573    0.0000 C   0  0  0  0  0  0  0  0  0  0  0  0
    0.0000   -8.1073    0.0000 C   0  0  0  0  0  0  0  0  0  0  0  0
    1.2990   -7.3573    0.0000 N   0  0  0  0  0  0  0  0  0  0  0  0
    1.2990   -5.8573    0.0000 C   0  0  0  0  0  0  0  0  0  0  0  0
    2.5981   -5.1073    0.0000 N   0  0  0  0  0  0  0  0  0  0  0  0
   -0.0000   -5.1073    0.0000 C   0  0  0  0  0  0  0  0  0  0  0  0
   -0.0000   -3.6073    0.0000 C   0  0  0  0  0  0  0  0  0  0  0  0
    1.2135   -2.7256    0.0000 N   0  0  0  0  0  0  0  0  0  0  0  0
    0.7500   -1.2990    0.0000 C   0  0  0  0  0  0  0  0  0  0  0  0
    1.5000    0.0000    0.0000 C   0  0  0  0  0  0  0  0  0  0  0  0
    0.7500    1.2990    0.0000 C   0  0  0  0  0  0  0  0  0  0  0  0
   -0.7500    1.2990    0.0000 C   0  0  0  0  0  0  0  0  0  0  0  0
   -1.5000    0.0000    0.0000 C   0  0  0  0  0  0  0  0  0  0  0  0
   -0.7500   -1.2990    0.0000 C   0  0  0  0  0  0  0  0  0  0  0  0
   -1.2135   -2.7256    0.0000 O   0  0  0  0  0  0  0  0  0  0  0  0
   -1.2990   -5.8573    0.0000 C   0  0  0  0  0  0  0  0  0  0  0  0
   -2.7549   -9.5991    0.0000 C   0  0  0  0  0  0  0  0  0  0  0  0
   -4.2221   -9.9110    0.0000 N   0  0  0  0  0  0  0  0  0  0  0  0
   -7.3456   -9.6686    0.0000 C   0  0  0  0  0  0  0  0  0  0  0  0
   -8.8373   -9.5119    0.0000 C   0  0  0  0  0  0  0  0  0  0  0  0
  1  2  1  0
  2  3  2  0
  2  4  1  0
  4  5  1  0
  5  6  1  0
  6  7  1  0
  7  8  1  0
  8  9  1  0
  9 10  2  0
 10 11  1  0
 11 12  2  0
 12 13  1  0
 13 14  2  0
 14 15  1  0
 14 16  1  0
 16 17  1  0
 17 18  2  0
 18 19  1  0
 19 20  2  0
 20 21  1  0
 21 22  2  0
 22 23  1  0
 23 24  2  0
 24 25  1  0
 16 26  2  0
 10 27  1  0
 27 28  2  0
  7 29  1  0
 29 30  1  0
 30  4  1  0
 28  8  1  0
 26 11  1  0
 25 17  1  0
 24 19  1  0
M  END
>  <Compound_ID>  (263) 
CHEMBL1171941

>  <Active>  (263) 
1.0

>  <Smiles>  (263) 
CC(=O)N1CCC(n2cc(-c3cnc(N)c(-c4nc5ccccc5o4)c3)cn2)CC1

>  <canonical_smi>  (263) 
CC(=O)N1CCC(n2cc(-c3cnc(N)c(-c4nc5ccccc5o4)c3)cn2)CC1

>  <Set>  (263) 
G2 active

>  <Set_type>  (263) 
Test

>  <MW>  (263) 
402.46

>  <HBD>  (263) 
1

>  <HBA>  (263) 
6

>  <NRB>  (263) 
3

>  <NR>  (263) 
5

>  <NAR>  (263) 
4

>  <PSA>  (263) 
103.07

>  <Standard Type>  (263) 
nan

>  <Standard Relation>  (263) 
nan

>  <Standard Units>  (263) 
nan

>  <Standard Value>  (263) 
nan

>  <Assay ChEMBL ID>  (263) 
nan

>  <Assay Description>  (263) 
nan

>  <BAO Label>  (263) 
nan

$$$$

     RDKit          2D

 41 45  0  0  0  0  0  0  0  0999 V2000
   -8.6583   -6.5105    0.0000 C   0  0  0  0  0  0  0  0  0  0  0  0
   -7.2317   -6.0469    0.0000 N   0  0  0  0  0  0  0  0  0  0  0  0
   -6.9199   -4.5797    0.0000 C   0  0  0  0  0  0  0  0  0  0  0  0
   -5.4933   -4.1162    0.0000 C   0  0  0  0  0  0  0  0  0  0  0  0
   -4.3786   -5.1199    0.0000 N   0  0  0  0  0  0  0  0  0  0  0  0
   -2.9520   -4.6564    0.0000 C   0  0  0  0  0  0  0  0  0  0  0  0
   -2.6401   -3.1891    0.0000 C   0  0  0  0  0  0  0  0  0  0  0  0
   -3.7548   -2.1855    0.0000 O   0  0  0  0  0  0  0  0  0  0  0  0
   -1.2135   -2.7256    0.0000 C   0  0  0  0  0  0  0  0  0  0  0  0
   -0.0000   -3.6073    0.0000 C   0  0  0  0  0  0  0  0  0  0  0  0
    1.2135   -2.7256    0.0000 N   0  0  0  0  0  0  0  0  0  0  0  0
    0.7500   -1.2990    0.0000 C   0  0  0  0  0  0  0  0  0  0  0  0
    1.5000    0.0000    0.0000 N   0  0  0  0  0  0  0  0  0  0  0  0
    0.7500    1.2990    0.0000 C   0  0  0  0  0  0  0  0  0  0  0  0
   -0.7500    1.2990    0.0000 C   0  0  0  0  0  0  0  0  0  0  0  0
   -1.5000    0.0000    0.0000 C   0  0  0  0  0  0  0  0  0  0  0  0
   -3.0000    0.0000    0.0000 O   0  0  0  0  0  0  0  0  0  0  0  0
   -3.7500    1.2990    0.0000 C   0  0  0  0  0  0  0  0  0  0  0  0
   -3.0000    2.5981    0.0000 C   0  0  0  0  0  0  0  0  0  0  0  0
   -3.7500    3.8971    0.0000 C   0  0  0  0  0  0  0  0  0  0  0  0
   -5.2500    3.8971    0.0000 C   0  0  0  0  0  0  0  0  0  0  0  0
   -6.0000    5.1962    0.0000 N   0  0  0  0  0  0  0  0  0  0  0  0
   -5.2500    6.4952    0.0000 C   0  0  0  0  0  0  0  0  0  0  0  0
   -3.7500    6.4952    0.0000 O   0  0  0  0  0  0  0  0  0  0  0  0
   -6.0000    7.7942    0.0000 N   0  0  0  0  0  0  0  0  0  0  0  0
   -5.2500    9.0933    0.0000 C   0  0  0  0  0  0  0  0  0  0  0  0
   -3.7500    9.0933    0.0000 O   0  0  0  0  0  0  0  0  0  0  0  0
   -6.0000   10.3923    0.0000 C   0  0  0  0  0  0  0  0  0  0  0  0
   -5.2500   11.6913    0.0000 C   0  0  0  0  0  0  0  0  0  0  0  0
   -3.7500   11.6913    0.0000 C   0  0  0  0  0  0  0  0  0  0  0  0
   -3.0000   12.9904    0.0000 C   0  0  0  0  0  0  0  0  0  0  0  0
   -3.7500   14.2894    0.0000 C   0  0  0  0  0  0  0  0  0  0  0  0
   -3.0000   15.5885    0.0000 F   0  0  0  0  0  0  0  0  0  0  0  0
   -5.2500   14.2894    0.0000 C   0  0  0  0  0  0  0  0  0  0  0  0
   -6.0000   12.9904    0.0000 C   0  0  0  0  0  0  0  0  0  0  0  0
   -6.0000    2.5981    0.0000 C   0  0  0  0  0  0  0  0  0  0  0  0
   -5.2500    1.2990    0.0000 C   0  0  0  0  0  0  0  0  0  0  0  0
   -6.0000    0.0000    0.0000 F   0  0  0  0  0  0  0  0  0  0  0  0
   -0.7500   -1.2990    0.0000 C   0  0  0  0  0  0  0  0  0  0  0  0
   -4.6904   -6.5871    0.0000 C   0  0  0  0  0  0  0  0  0  0  0  0
   -6.1170   -7.0506    0.0000 C   0  0  0  0  0  0  0  0  0  0  0  0
  1  2  1  0
  2  3  1  0
  3  4  1  0
  4  5  1  0
  5  6  1  0
  6  7  1  0
  7  8  2  0
  7  9  1  0
  9 10  2  0
 10 11  1  0
 11 12  1  0
 12 13  2  0
 13 14  1  0
 14 15  2  0
 15 16  1  0
 16 17  1  0
 17 18  1  0
 18 19  2  0
 19 20  1  0
 20 21  2  0
 21 22  1  0
 22 23  1  0
 23 24  2  0
 23 25  1  0
 25 26  1  0
 26 27  2  0
 26 28  1  0
 28 29  1  0
 29 30  2  0
 30 31  1  0
 31 32  2  0
 32 33  1  0
 32 34  1  0
 34 35  2  0
 21 36  1  0
 36 37  2  0
 37 38  1  0
 16 39  2  0
  5 40  1  0
 40 41  1  0
 41  2  1  0
 39  9  1  0
 39 12  1  0
 37 18  1  0
 35 29  1  0
M  END
>  <Compound_ID>  (264) 
CHEMBL508142

>  <Active>  (264) 
1.0

>  <Smiles>  (264) 
CN1CCN(CC(=O)c2c[nH]c3nccc(Oc4ccc(NC(=O)NC(=O)Cc5ccc(F)cc5)cc4F)c23)CC1

>  <canonical_smi>  (264) 
CN1CCN(CC(=O)c2c[nH]c3nccc(Oc4ccc(NC(=O)NC(=O)Cc5ccc(F)cc5)cc4F)c23)CC1

>  <Set>  (264) 
G2 active

>  <Set_type>  (264) 
Test

>  <MW>  (264) 
562.58

>  <HBD>  (264) 
3

>  <HBA>  (264) 
7

>  <NRB>  (264) 
8

>  <NR>  (264) 
5

>  <NAR>  (264) 
4

>  <PSA>  (264) 
119.66

>  <Standard Type>  (264) 
nan

>  <Standard Relation>  (264) 
nan

>  <Standard Units>  (264) 
nan

>  <Standard Value>  (264) 
nan

>  <Assay ChEMBL ID>  (264) 
nan

>  <Assay Description>  (264) 
nan

>  <BAO Label>  (264) 
nan

$$$$

     RDKit          2D

 44 49  0  0  0  0  0  0  0  0999 V2000
   -5.2500   -3.8971    0.0000 C   0  0  0  0  0  0  0  0  0  0  0  0
   -3.7500   -3.8971    0.0000 O   0  0  0  0  0  0  0  0  0  0  0  0
   -3.0000   -2.5981    0.0000 C   0  0  0  0  0  0  0  0  0  0  0  0
   -1.5000   -2.5981    0.0000 C   0  0  0  0  0  0  0  0  0  0  0  0
   -0.7500   -1.2990    0.0000 C   0  0  0  0  0  0  0  0  0  0  0  0
    0.7500   -1.2990    0.0000 C   0  0  0  0  0  0  0  0  0  0  0  0
    1.5000   -2.5981    0.0000 O   0  0  0  0  0  0  0  0  0  0  0  0
    3.0000   -2.5981    0.0000 C   0  0  0  0  0  0  0  0  0  0  0  0
    3.7500   -3.8971    0.0000 C   0  0  0  0  0  0  0  0  0  0  0  0
    5.2500   -3.8971    0.0000 C   0  0  0  0  0  0  0  0  0  0  0  0
    6.0000   -2.5981    0.0000 C   0  0  0  0  0  0  0  0  0  0  0  0
    7.5000   -2.5981    0.0000 C   0  0  0  0  0  0  0  0  0  0  0  0
    8.2500   -3.8971    0.0000 C   0  0  0  0  0  0  0  0  0  0  0  0
    9.7500   -3.8971    0.0000 N   0  0  0  0  0  0  0  0  0  0  0  0
   10.5000   -2.5981    0.0000 C   0  0  0  0  0  0  0  0  0  0  0  0
   12.0000   -2.5981    0.0000 C   0  0  0  0  0  0  0  0  0  0  0  0
   12.7500   -3.8971    0.0000 C   0  0  0  0  0  0  0  0  0  0  0  0
   12.0000   -5.1962    0.0000 C   0  0  0  0  0  0  0  0  0  0  0  0
   12.7500   -6.4952    0.0000 C   0  0  0  0  0  0  0  0  0  0  0  0
   14.2500   -6.4952    0.0000 C   0  0  0  0  0  0  0  0  0  0  0  0
   15.0000   -5.1962    0.0000 C   0  0  0  0  0  0  0  0  0  0  0  0
   14.2500   -3.8971    0.0000 C   0  0  0  0  0  0  0  0  0  0  0  0
    9.7500   -1.2990    0.0000 N   0  0  0  0  0  0  0  0  0  0  0  0
   10.5000   -0.0000    0.0000 C   0  0  0  0  0  0  0  0  0  0  0  0
    8.2500   -1.2990    0.0000 C   0  0  0  0  0  0  0  0  0  0  0  0
    7.5000   -0.0000    0.0000 O   0  0  0  0  0  0  0  0  0  0  0  0
    5.2500   -1.2990    0.0000 C   0  0  0  0  0  0  0  0  0  0  0  0
    3.7500   -1.2990    0.0000 C   0  0  0  0  0  0  0  0  0  0  0  0
    3.0000   -0.0000    0.0000 F   0  0  0  0  0  0  0  0  0  0  0  0
    1.5000    0.0000    0.0000 C   0  0  0  0  0  0  0  0  0  0  0  0
    0.7500    1.2990    0.0000 C   0  0  0  0  0  0  0  0  0  0  0  0
   -0.7500    1.2990    0.0000 N   0  0  0  0  0  0  0  0  0  0  0  0
   -1.5000    0.0000    0.0000 C   0  0  0  0  0  0  0  0  0  0  0  0
   -3.0000    0.0000    0.0000 C   0  0  0  0  0  0  0  0  0  0  0  0
   -3.7500   -1.2990    0.0000 C   0  0  0  0  0  0  0  0  0  0  0  0
   -5.2500   -1.2990    0.0000 O   0  0  0  0  0  0  0  0  0  0  0  0
   -6.0000    0.0000    0.0000 C   0  0  0  0  0  0  0  0  0  0  0  0
   -7.5000    0.0000    0.0000 C   0  0  0  0  0  0  0  0  0  0  0  0
   -8.2500    1.2990    0.0000 C   0  0  0  0  0  0  0  0  0  0  0  0
   -9.7500    1.2990    0.0000 N   0  0  0  0  0  0  0  0  0  0  0  0
  -10.6317    0.0855    0.0000 C   0  0  0  0  0  0  0  0  0  0  0  0
  -12.0583    0.5490    0.0000 C   0  0  0  0  0  0  0  0  0  0  0  0
  -12.0583    2.0490    0.0000 C   0  0  0  0  0  0  0  0  0  0  0  0
  -10.6317    2.5126    0.0000 C   0  0  0  0  0  0  0  0  0  0  0  0
  1  2  1  0
  2  3  1  0
  3  4  2  0
  4  5  1  0
  5  6  2  0
  6  7  1  0
  7  8  1  0
  8  9  2  0
  9 10  1  0
 10 11  2  0
 11 12  1  0
 12 13  2  0
 13 14  1  0
 14 15  2  0
 15 16  1  0
 16 17  1  0
 17 18  2  0
 18 19  1  0
 19 20  2  0
 20 21  1  0
 21 22  2  0
 15 23  1  0
 23 24  1  0
 23 25  1  0
 25 26  2  0
 11 27  1  0
 27 28  2  0
 28 29  1  0
  6 30  1  0
 30 31  2  0
 31 32  1  0
 32 33  2  0
 33 34  1  0
 34 35  2  0
 35 36  1  0
 36 37  1  0
 37 38  1  0
 38 39  1  0
 39 40  1  0
 40 41  1  0
 41 42  1  0
 42 43  1  0
 43 44  1  0
 35  3  1  0
 44 40  1  0
 33  5  1  0
 28  8  1  0
 25 12  1  0
 22 17  1  0
M  END
>  <Compound_ID>  (265) 
CHEMBL450209

>  <Active>  (265) 
1.0

>  <Smiles>  (265) 
COc1cc2c(Oc3ccc(-c4cnc(Cc5ccccc5)n(C)c4=O)cc3F)ccnc2cc1OCCCN1CCCC1

>  <canonical_smi>  (265) 
COc1cc2c(Oc3ccc(-c4cnc(Cc5ccccc5)n(C)c4=O)cc3F)ccnc2cc1OCCCN1CCCC1

>  <Set>  (265) 
G2 active

>  <Set_type>  (265) 
Test

>  <MW>  (265) 
594.69

>  <HBD>  (265) 
0

>  <HBA>  (265) 
7

>  <NRB>  (265) 
11

>  <NR>  (265) 
6

>  <NAR>  (265) 
5

>  <PSA>  (265) 
78.71

>  <Standard Type>  (265) 
nan

>  <Standard Relation>  (265) 
nan

>  <Standard Units>  (265) 
nan

>  <Standard Value>  (265) 
nan

>  <Assay ChEMBL ID>  (265) 
nan

>  <Assay Description>  (265) 
nan

>  <BAO Label>  (265) 
nan

$$$$

     RDKit          2D

 36 40  0  0  0  0  0  0  0  0999 V2000
    9.7500   -6.4952    0.0000 O   0  0  0  0  0  0  0  0  0  0  0  0
   10.5000   -5.1962    0.0000 C   0  0  0  0  0  0  0  0  0  0  0  0
   12.0000   -5.1962    0.0000 C   0  0  0  0  0  0  0  0  0  0  0  0
   12.7500   -6.4952    0.0000 C   0  0  0  0  0  0  0  0  0  0  0  0
   12.0000   -7.7942    0.0000 C   0  0  0  0  0  0  0  0  0  0  0  0
   12.7500   -9.0933    0.0000 C   0  0  0  0  0  0  0  0  0  0  0  0
   14.2500   -9.0933    0.0000 C   0  0  0  0  0  0  0  0  0  0  0  0
   15.0000   -7.7942    0.0000 C   0  0  0  0  0  0  0  0  0  0  0  0
   14.2500   -6.4952    0.0000 C   0  0  0  0  0  0  0  0  0  0  0  0
    9.7500   -3.8971    0.0000 N   0  0  0  0  0  0  0  0  0  0  0  0
    8.2500   -3.8971    0.0000 C   0  0  0  0  0  0  0  0  0  0  0  0
    7.5000   -5.1962    0.0000 S   0  0  0  0  0  0  0  0  0  0  0  0
    7.5000   -2.5981    0.0000 N   0  0  0  0  0  0  0  0  0  0  0  0
    6.0000   -2.5981    0.0000 C   0  0  0  0  0  0  0  0  0  0  0  0
    5.2500   -1.2990    0.0000 C   0  0  0  0  0  0  0  0  0  0  0  0
    3.7500   -1.2990    0.0000 C   0  0  0  0  0  0  0  0  0  0  0  0
    3.0000   -2.5981    0.0000 C   0  0  0  0  0  0  0  0  0  0  0  0
    1.5000   -2.5981    0.0000 O   0  0  0  0  0  0  0  0  0  0  0  0
    0.7500   -1.2990    0.0000 C   0  0  0  0  0  0  0  0  0  0  0  0
    1.5000    0.0000    0.0000 C   0  0  0  0  0  0  0  0  0  0  0  0
    0.7500    1.2990    0.0000 C   0  0  0  0  0  0  0  0  0  0  0  0
   -0.7500    1.2990    0.0000 N   0  0  0  0  0  0  0  0  0  0  0  0
   -1.5000    0.0000    0.0000 C   0  0  0  0  0  0  0  0  0  0  0  0
   -2.9672   -0.3119    0.0000 C   0  0  0  0  0  0  0  0  0  0  0  0
   -3.1240   -1.8037    0.0000 C   0  0  0  0  0  0  0  0  0  0  0  0
   -4.4231   -2.5537    0.0000 C   0  0  0  0  0  0  0  0  0  0  0  0
   -5.7221   -1.8037    0.0000 C   0  0  0  0  0  0  0  0  0  0  0  0
   -7.0211   -2.5537    0.0000 C   0  0  0  0  0  0  0  0  0  0  0  0
   -7.0211   -4.0537    0.0000 C   0  0  0  0  0  0  0  0  0  0  0  0
   -5.7221   -4.8037    0.0000 C   0  0  0  0  0  0  0  0  0  0  0  0
   -4.4231   -4.0537    0.0000 N   0  0  0  0  0  0  0  0  0  0  0  0
   -1.7537   -2.4138    0.0000 S   0  0  0  0  0  0  0  0  0  0  0  0
   -0.7500   -1.2990    0.0000 C   0  0  0  0  0  0  0  0  0  0  0  0
    3.7500   -3.8971    0.0000 C   0  0  0  0  0  0  0  0  0  0  0  0
    3.0000   -5.1962    0.0000 F   0  0  0  0  0  0  0  0  0  0  0  0
    5.2500   -3.8971    0.0000 C   0  0  0  0  0  0  0  0  0  0  0  0
  1  2  2  0
  2  3  1  0
  3  4  1  0
  4  5  2  0
  5  6  1  0
  6  7  2  0
  7  8  1  0
  8  9  2  0
  2 10  1  0
 10 11  1  0
 11 12  2  0
 11 13  1  0
 13 14  1  0
 14 15  2  0
 15 16  1  0
 16 17  2  0
 17 18  1  0
 18 19  1  0
 19 20  2  0
 20 21  1  0
 21 22  2  0
 22 23  1  0
 23 24  1  0
 24 25  2  0
 25 26  1  0
 26 27  2  0
 27 28  1  0
 28 29  2  0
 29 30  1  0
 30 31  2  0
 25 32  1  0
 32 33  1  0
 17 34  1  0
 34 35  1  0
 34 36  2  0
  9  4  1  0
 36 14  1  0
 33 19  1  0
 33 23  2  0
 31 26  1  0
M  END
>  <Compound_ID>  (266) 
CHEMBL404639

>  <Active>  (266) 
1.0

>  <Smiles>  (266) 
O=C(Cc1ccccc1)NC(=S)Nc1ccc(Oc2ccnc3cc(-c4ccccn4)sc23)c(F)c1

>  <canonical_smi>  (266) 
O=C(Cc1ccccc1)NC(=S)Nc1ccc(Oc2ccnc3cc(-c4ccccn4)sc23)c(F)c1

>  <Set>  (266) 
G2 active

>  <Set_type>  (266) 
Test

>  <MW>  (266) 
514.61

>  <HBD>  (266) 
2

>  <HBA>  (266) 
6

>  <NRB>  (266) 
6

>  <NR>  (266) 
5

>  <NAR>  (266) 
5

>  <PSA>  (266) 
76.14

>  <Standard Type>  (266) 
nan

>  <Standard Relation>  (266) 
nan

>  <Standard Units>  (266) 
nan

>  <Standard Value>  (266) 
nan

>  <Assay ChEMBL ID>  (266) 
nan

>  <Assay Description>  (266) 
nan

>  <BAO Label>  (266) 
nan

$$$$

     RDKit          2D

 36 40  0  0  0  0  0  0  0  0999 V2000
   -2.6401   -5.5255    0.0000 C   0  0  0  0  0  0  0  0  0  0  0  0
   -1.2135   -5.9890    0.0000 N   0  0  0  0  0  0  0  0  0  0  0  0
   -0.7500   -7.4156    0.0000 N   0  0  0  0  0  0  0  0  0  0  0  0
    0.7500   -7.4156    0.0000 C   0  0  0  0  0  0  0  0  0  0  0  0
    1.2135   -5.9890    0.0000 N   0  0  0  0  0  0  0  0  0  0  0  0
   -0.0000   -5.1073    0.0000 C   0  0  0  0  0  0  0  0  0  0  0  0
   -0.0000   -3.6073    0.0000 C   0  0  0  0  0  0  0  0  0  0  0  0
    1.2135   -2.7256    0.0000 C   0  0  0  0  0  0  0  0  0  0  0  0
    0.7500   -1.2990    0.0000 C   0  0  0  0  0  0  0  0  0  0  0  0
    1.5000    0.0000    0.0000 N   0  0  0  0  0  0  0  0  0  0  0  0
    0.7500    1.2990    0.0000 C   0  0  0  0  0  0  0  0  0  0  0  0
   -0.7500    1.2990    0.0000 C   0  0  0  0  0  0  0  0  0  0  0  0
   -1.5000    0.0000    0.0000 C   0  0  0  0  0  0  0  0  0  0  0  0
   -3.0000    0.0000    0.0000 O   0  0  0  0  0  0  0  0  0  0  0  0
   -3.7500    1.2990    0.0000 C   0  0  0  0  0  0  0  0  0  0  0  0
   -3.0000    2.5981    0.0000 C   0  0  0  0  0  0  0  0  0  0  0  0
   -3.7500    3.8971    0.0000 C   0  0  0  0  0  0  0  0  0  0  0  0
   -5.2500    3.8971    0.0000 C   0  0  0  0  0  0  0  0  0  0  0  0
   -6.0000    5.1962    0.0000 N   0  0  0  0  0  0  0  0  0  0  0  0
   -5.2500    6.4952    0.0000 C   0  0  0  0  0  0  0  0  0  0  0  0
   -3.7500    6.4952    0.0000 S   0  0  0  0  0  0  0  0  0  0  0  0
   -6.0000    7.7942    0.0000 N   0  0  0  0  0  0  0  0  0  0  0  0
   -5.2500    9.0933    0.0000 C   0  0  0  0  0  0  0  0  0  0  0  0
   -3.7500    9.0933    0.0000 O   0  0  0  0  0  0  0  0  0  0  0  0
   -6.0000   10.3923    0.0000 C   0  0  0  0  0  0  0  0  0  0  0  0
   -5.2500   11.6913    0.0000 C   0  0  0  0  0  0  0  0  0  0  0  0
   -3.7500   11.6913    0.0000 C   0  0  0  0  0  0  0  0  0  0  0  0
   -3.0000   12.9904    0.0000 C   0  0  0  0  0  0  0  0  0  0  0  0
   -3.7500   14.2894    0.0000 C   0  0  0  0  0  0  0  0  0  0  0  0
   -5.2500   14.2894    0.0000 C   0  0  0  0  0  0  0  0  0  0  0  0
   -6.0000   12.9904    0.0000 C   0  0  0  0  0  0  0  0  0  0  0  0
   -6.0000    2.5981    0.0000 C   0  0  0  0  0  0  0  0  0  0  0  0
   -5.2500    1.2990    0.0000 C   0  0  0  0  0  0  0  0  0  0  0  0
   -6.0000    0.0000    0.0000 F   0  0  0  0  0  0  0  0  0  0  0  0
   -0.7500   -1.2990    0.0000 C   0  0  0  0  0  0  0  0  0  0  0  0
   -1.2135   -2.7256    0.0000 S   0  0  0  0  0  0  0  0  0  0  0  0
  1  2  1  0
  2  3  1  0
  3  4  2  0
  4  5  1  0
  5  6  2  0
  6  7  1  0
  7  8  2  0
  8  9  1  0
  9 10  2  0
 10 11  1  0
 11 12  2  0
 12 13  1  0
 13 14  1  0
 14 15  1  0
 15 16  2  0
 16 17  1  0
 17 18  2  0
 18 19  1  0
 19 20  1  0
 20 21  2  0
 20 22  1  0
 22 23  1  0
 23 24  2  0
 23 25  1  0
 25 26  1  0
 26 27  2  0
 27 28  1  0
 28 29  2  0
 29 30  1  0
 30 31  2  0
 18 32  1  0
 32 33  2  0
 33 34  1  0
 13 35  2  0
 35 36  1  0
  6  2  1  0
 36  7  1  0
 35  9  1  0
 33 15  1  0
 31 26  1  0
M  END
>  <Compound_ID>  (267) 
CHEMBL258396

>  <Active>  (267) 
1.0

>  <Smiles>  (267) 
Cn1ncnc1-c1cc2nccc(Oc3ccc(NC(=S)NC(=O)Cc4ccccc4)cc3F)c2s1

>  <canonical_smi>  (267) 
Cn1ncnc1-c1cc2nccc(Oc3ccc(NC(=S)NC(=O)Cc4ccccc4)cc3F)c2s1

>  <Set>  (267) 
G2 active

>  <Set_type>  (267) 
Test

>  <MW>  (267) 
518.6

>  <HBD>  (267) 
2

>  <HBA>  (267) 
7

>  <NRB>  (267) 
6

>  <NR>  (267) 
5

>  <NAR>  (267) 
5

>  <PSA>  (267) 
93.96

>  <Standard Type>  (267) 
nan

>  <Standard Relation>  (267) 
nan

>  <Standard Units>  (267) 
nan

>  <Standard Value>  (267) 
nan

>  <Assay ChEMBL ID>  (267) 
nan

>  <Assay Description>  (267) 
nan

>  <BAO Label>  (267) 
nan

$$$$

     RDKit          2D

 38 43  0  0  0  0  0  0  0  0999 V2000
   -1.6317   -8.6291    0.0000 C   0  0  0  0  0  0  0  0  0  0  0  0
   -0.7500   -7.4156    0.0000 N   0  0  0  0  0  0  0  0  0  0  0  0
    0.7500   -7.4156    0.0000 C   0  0  0  0  0  0  0  0  0  0  0  0
    1.2135   -5.9890    0.0000 N   0  0  0  0  0  0  0  0  0  0  0  0
   -0.0000   -5.1073    0.0000 C   0  0  0  0  0  0  0  0  0  0  0  0
   -0.0000   -3.6073    0.0000 C   0  0  0  0  0  0  0  0  0  0  0  0
    1.2135   -2.7256    0.0000 C   0  0  0  0  0  0  0  0  0  0  0  0
    0.7500   -1.2990    0.0000 C   0  0  0  0  0  0  0  0  0  0  0  0
    1.5000    0.0000    0.0000 N   0  0  0  0  0  0  0  0  0  0  0  0
    0.7500    1.2990    0.0000 C   0  0  0  0  0  0  0  0  0  0  0  0
   -0.7500    1.2990    0.0000 C   0  0  0  0  0  0  0  0  0  0  0  0
   -1.5000    0.0000    0.0000 C   0  0  0  0  0  0  0  0  0  0  0  0
   -3.0000    0.0000    0.0000 O   0  0  0  0  0  0  0  0  0  0  0  0
   -3.7500    1.2990    0.0000 C   0  0  0  0  0  0  0  0  0  0  0  0
   -3.0000    2.5981    0.0000 C   0  0  0  0  0  0  0  0  0  0  0  0
   -3.7500    3.8971    0.0000 C   0  0  0  0  0  0  0  0  0  0  0  0
   -5.2500    3.8971    0.0000 C   0  0  0  0  0  0  0  0  0  0  0  0
   -6.0000    5.1962    0.0000 N   0  0  0  0  0  0  0  0  0  0  0  0
   -5.2500    6.4952    0.0000 C   0  0  0  0  0  0  0  0  0  0  0  0
   -3.7500    6.4952    0.0000 O   0  0  0  0  0  0  0  0  0  0  0  0
   -6.0000    7.7942    0.0000 N   0  0  0  0  0  0  0  0  0  0  0  0
   -7.4918    7.9510    0.0000 C   0  0  0  0  0  0  0  0  0  0  0  0
   -7.8037    9.4182    0.0000 C   0  0  0  0  0  0  0  0  0  0  0  0
   -6.5046   10.1682    0.0000 N   0  0  0  0  0  0  0  0  0  0  0  0
   -6.3478   11.6600    0.0000 C   0  0  0  0  0  0  0  0  0  0  0  0
   -4.9775   12.2701    0.0000 C   0  0  0  0  0  0  0  0  0  0  0  0
   -4.8207   13.7619    0.0000 C   0  0  0  0  0  0  0  0  0  0  0  0
   -6.0342   14.6436    0.0000 C   0  0  0  0  0  0  0  0  0  0  0  0
   -7.4046   14.0335    0.0000 C   0  0  0  0  0  0  0  0  0  0  0  0
   -7.5613   12.5417    0.0000 C   0  0  0  0  0  0  0  0  0  0  0  0
   -5.3899    9.1645    0.0000 C   0  0  0  0  0  0  0  0  0  0  0  0
   -3.9227    9.4764    0.0000 O   0  0  0  0  0  0  0  0  0  0  0  0
   -6.0000    2.5981    0.0000 C   0  0  0  0  0  0  0  0  0  0  0  0
   -5.2500    1.2990    0.0000 C   0  0  0  0  0  0  0  0  0  0  0  0
   -6.0000    0.0000    0.0000 F   0  0  0  0  0  0  0  0  0  0  0  0
   -0.7500   -1.2990    0.0000 C   0  0  0  0  0  0  0  0  0  0  0  0
   -1.2135   -2.7256    0.0000 S   0  0  0  0  0  0  0  0  0  0  0  0
   -1.2135   -5.9890    0.0000 C   0  0  0  0  0  0  0  0  0  0  0  0
  1  2  1  0
  2  3  1  0
  3  4  2  0
  4  5  1  0
  5  6  1  0
  6  7  2  0
  7  8  1  0
  8  9  2  0
  9 10  1  0
 10 11  2  0
 11 12  1  0
 12 13  1  0
 13 14  1  0
 14 15  2  0
 15 16  1  0
 16 17  2  0
 17 18  1  0
 18 19  1  0
 19 20  2  0
 19 21  1  0
 21 22  1  0
 22 23  1  0
 23 24  1  0
 24 25  1  0
 25 26  2  0
 26 27  1  0
 27 28  2  0
 28 29  1  0
 29 30  2  0
 24 31  1  0
 31 32  2  0
 17 33  1  0
 33 34  2  0
 34 35  1  0
 12 36  2  0
 36 37  1  0
  5 38  2  0
 38  2  1  0
 37  6  1  0
 36  8  1  0
 34 14  1  0
 31 21  1  0
 30 25  1  0
M  END
>  <Compound_ID>  (268) 
CHEMBL462232

>  <Active>  (268) 
1.0

>  <Smiles>  (268) 
Cn1cnc(-c2cc3nccc(Oc4ccc(NC(=O)N5CCN(c6ccccc6)C5=O)cc4F)c3s2)c1

>  <canonical_smi>  (268) 
Cn1cnc(-c2cc3nccc(Oc4ccc(NC(=O)N5CCN(c6ccccc6)C5=O)cc4F)c3s2)c1

>  <Set>  (268) 
G2 active

>  <Set_type>  (268) 
Test

>  <MW>  (268) 
528.57

>  <HBD>  (268) 
1

>  <HBA>  (268) 
5

>  <NRB>  (268) 
5

>  <NR>  (268) 
6

>  <NAR>  (268) 
5

>  <PSA>  (268) 
92.59

>  <Standard Type>  (268) 
nan

>  <Standard Relation>  (268) 
nan

>  <Standard Units>  (268) 
nan

>  <Standard Value>  (268) 
nan

>  <Assay ChEMBL ID>  (268) 
nan

>  <Assay Description>  (268) 
nan

>  <BAO Label>  (268) 
nan

$$$$

     RDKit          2D

 36 40  0  0  0  0  0  0  0  0999 V2000
    1.6317   -8.6291    0.0000 C   0  0  0  0  0  0  0  0  0  0  0  0
    0.7500   -7.4156    0.0000 N   0  0  0  0  0  0  0  0  0  0  0  0
    1.2135   -5.9890    0.0000 C   0  0  0  0  0  0  0  0  0  0  0  0
   -0.0000   -5.1073    0.0000 C   0  0  0  0  0  0  0  0  0  0  0  0
   -0.0000   -3.6073    0.0000 C   0  0  0  0  0  0  0  0  0  0  0  0
    1.2135   -2.7256    0.0000 C   0  0  0  0  0  0  0  0  0  0  0  0
    0.7500   -1.2990    0.0000 C   0  0  0  0  0  0  0  0  0  0  0  0
    1.5000    0.0000    0.0000 N   0  0  0  0  0  0  0  0  0  0  0  0
    0.7500    1.2990    0.0000 C   0  0  0  0  0  0  0  0  0  0  0  0
   -0.7500    1.2990    0.0000 C   0  0  0  0  0  0  0  0  0  0  0  0
   -1.5000    0.0000    0.0000 C   0  0  0  0  0  0  0  0  0  0  0  0
   -3.0000    0.0000    0.0000 O   0  0  0  0  0  0  0  0  0  0  0  0
   -3.7500    1.2990    0.0000 C   0  0  0  0  0  0  0  0  0  0  0  0
   -3.0000    2.5981    0.0000 C   0  0  0  0  0  0  0  0  0  0  0  0
   -3.7500    3.8971    0.0000 C   0  0  0  0  0  0  0  0  0  0  0  0
   -5.2500    3.8971    0.0000 C   0  0  0  0  0  0  0  0  0  0  0  0
   -6.0000    5.1962    0.0000 N   0  0  0  0  0  0  0  0  0  0  0  0
   -5.2500    6.4952    0.0000 C   0  0  0  0  0  0  0  0  0  0  0  0
   -3.7500    6.4952    0.0000 S   0  0  0  0  0  0  0  0  0  0  0  0
   -6.0000    7.7942    0.0000 N   0  0  0  0  0  0  0  0  0  0  0  0
   -5.2500    9.0933    0.0000 C   0  0  0  0  0  0  0  0  0  0  0  0
   -3.7500    9.0933    0.0000 O   0  0  0  0  0  0  0  0  0  0  0  0
   -6.0000   10.3923    0.0000 C   0  0  0  0  0  0  0  0  0  0  0  0
   -5.2500   11.6913    0.0000 C   0  0  0  0  0  0  0  0  0  0  0  0
   -3.7500   11.6913    0.0000 C   0  0  0  0  0  0  0  0  0  0  0  0
   -3.0000   12.9904    0.0000 C   0  0  0  0  0  0  0  0  0  0  0  0
   -3.7500   14.2894    0.0000 C   0  0  0  0  0  0  0  0  0  0  0  0
   -5.2500   14.2894    0.0000 C   0  0  0  0  0  0  0  0  0  0  0  0
   -6.0000   12.9904    0.0000 C   0  0  0  0  0  0  0  0  0  0  0  0
   -6.0000    2.5981    0.0000 C   0  0  0  0  0  0  0  0  0  0  0  0
   -5.2500    1.2990    0.0000 C   0  0  0  0  0  0  0  0  0  0  0  0
   -6.0000    0.0000    0.0000 F   0  0  0  0  0  0  0  0  0  0  0  0
   -0.7500   -1.2990    0.0000 C   0  0  0  0  0  0  0  0  0  0  0  0
   -1.2135   -2.7256    0.0000 S   0  0  0  0  0  0  0  0  0  0  0  0
   -1.2135   -5.9890    0.0000 C   0  0  0  0  0  0  0  0  0  0  0  0
   -0.7500   -7.4156    0.0000 N   0  0  0  0  0  0  0  0  0  0  0  0
  1  2  1  0
  2  3  1  0
  3  4  2  0
  4  5  1  0
  5  6  2  0
  6  7  1  0
  7  8  2  0
  8  9  1  0
  9 10  2  0
 10 11  1  0
 11 12  1  0
 12 13  1  0
 13 14  2  0
 14 15  1  0
 15 16  2  0
 16 17  1  0
 17 18  1  0
 18 19  2  0
 18 20  1  0
 20 21  1  0
 21 22  2  0
 21 23  1  0
 23 24  1  0
 24 25  2  0
 25 26  1  0
 26 27  2  0
 27 28  1  0
 28 29  2  0
 16 30  1  0
 30 31  2  0
 31 32  1  0
 11 33  2  0
 33 34  1  0
  4 35  1  0
 35 36  2  0
 36  2  1  0
 34  5  1  0
 33  7  1  0
 31 13  1  0
 29 24  1  0
M  END
>  <Compound_ID>  (269) 
CHEMBL402792

>  <Active>  (269) 
1.0

>  <Smiles>  (269) 
Cn1cc(-c2cc3nccc(Oc4ccc(NC(=S)NC(=O)Cc5ccccc5)cc4F)c3s2)cn1

>  <canonical_smi>  (269) 
Cn1cc(-c2cc3nccc(Oc4ccc(NC(=S)NC(=O)Cc5ccccc5)cc4F)c3s2)cn1

>  <Set>  (269) 
G2 active

>  <Set_type>  (269) 
Test

>  <MW>  (269) 
517.61

>  <HBD>  (269) 
2

>  <HBA>  (269) 
6

>  <NRB>  (269) 
6

>  <NR>  (269) 
5

>  <NAR>  (269) 
5

>  <PSA>  (269) 
81.07

>  <Standard Type>  (269) 
nan

>  <Standard Relation>  (269) 
nan

>  <Standard Units>  (269) 
nan

>  <Standard Value>  (269) 
nan

>  <Assay ChEMBL ID>  (269) 
nan

>  <Assay Description>  (269) 
nan

>  <BAO Label>  (269) 
nan

$$$$

     RDKit          2D

 35 39  0  0  0  0  0  0  0  0999 V2000
    9.7500   -6.4952    0.0000 O   0  0  0  0  0  0  0  0  0  0  0  0
   10.5000   -5.1962    0.0000 C   0  0  0  0  0  0  0  0  0  0  0  0
   12.0000   -5.1962    0.0000 C   0  0  0  0  0  0  0  0  0  0  0  0
   12.7500   -6.4952    0.0000 C   0  0  0  0  0  0  0  0  0  0  0  0
   12.0000   -7.7942    0.0000 C   0  0  0  0  0  0  0  0  0  0  0  0
   12.7500   -9.0933    0.0000 C   0  0  0  0  0  0  0  0  0  0  0  0
   14.2500   -9.0933    0.0000 C   0  0  0  0  0  0  0  0  0  0  0  0
   15.0000   -7.7942    0.0000 C   0  0  0  0  0  0  0  0  0  0  0  0
   14.2500   -6.4952    0.0000 C   0  0  0  0  0  0  0  0  0  0  0  0
    9.7500   -3.8971    0.0000 N   0  0  0  0  0  0  0  0  0  0  0  0
    8.2500   -3.8971    0.0000 C   0  0  0  0  0  0  0  0  0  0  0  0
    7.5000   -5.1962    0.0000 S   0  0  0  0  0  0  0  0  0  0  0  0
    7.5000   -2.5981    0.0000 N   0  0  0  0  0  0  0  0  0  0  0  0
    6.0000   -2.5981    0.0000 C   0  0  0  0  0  0  0  0  0  0  0  0
    5.2500   -1.2990    0.0000 C   0  0  0  0  0  0  0  0  0  0  0  0
    3.7500   -1.2990    0.0000 C   0  0  0  0  0  0  0  0  0  0  0  0
    3.0000   -2.5981    0.0000 C   0  0  0  0  0  0  0  0  0  0  0  0
    1.5000   -2.5981    0.0000 O   0  0  0  0  0  0  0  0  0  0  0  0
    0.7500   -1.2990    0.0000 C   0  0  0  0  0  0  0  0  0  0  0  0
    1.5000    0.0000    0.0000 C   0  0  0  0  0  0  0  0  0  0  0  0
    0.7500    1.2990    0.0000 C   0  0  0  0  0  0  0  0  0  0  0  0
   -0.7500    1.2990    0.0000 N   0  0  0  0  0  0  0  0  0  0  0  0
   -1.5000    0.0000    0.0000 C   0  0  0  0  0  0  0  0  0  0  0  0
   -2.9672   -0.3119    0.0000 C   0  0  0  0  0  0  0  0  0  0  0  0
   -3.1240   -1.8037    0.0000 C   0  0  0  0  0  0  0  0  0  0  0  0
   -4.4231   -2.5537    0.0000 C   0  0  0  0  0  0  0  0  0  0  0  0
   -4.5798   -4.0454    0.0000 N   0  0  0  0  0  0  0  0  0  0  0  0
   -6.0471   -4.3573    0.0000 C   0  0  0  0  0  0  0  0  0  0  0  0
   -6.7971   -3.0583    0.0000 C   0  0  0  0  0  0  0  0  0  0  0  0
   -5.7934   -1.9435    0.0000 S   0  0  0  0  0  0  0  0  0  0  0  0
   -1.7537   -2.4138    0.0000 S   0  0  0  0  0  0  0  0  0  0  0  0
   -0.7500   -1.2990    0.0000 C   0  0  0  0  0  0  0  0  0  0  0  0
    3.7500   -3.8971    0.0000 C   0  0  0  0  0  0  0  0  0  0  0  0
    3.0000   -5.1962    0.0000 F   0  0  0  0  0  0  0  0  0  0  0  0
    5.2500   -3.8971    0.0000 C   0  0  0  0  0  0  0  0  0  0  0  0
  1  2  2  0
  2  3  1  0
  3  4  1  0
  4  5  2  0
  5  6  1  0
  6  7  2  0
  7  8  1  0
  8  9  2  0
  2 10  1  0
 10 11  1  0
 11 12  2  0
 11 13  1  0
 13 14  1  0
 14 15  2  0
 15 16  1  0
 16 17  2  0
 17 18  1  0
 18 19  1  0
 19 20  2  0
 20 21  1  0
 21 22  2  0
 22 23  1  0
 23 24  1  0
 24 25  2  0
 25 26  1  0
 26 27  2  0
 27 28  1  0
 28 29  2  0
 29 30  1  0
 25 31  1  0
 31 32  1  0
 17 33  1  0
 33 34  1  0
 33 35  2  0
  9  4  1  0
 35 14  1  0
 32 19  1  0
 32 23  2  0
 30 26  1  0
M  END
>  <Compound_ID>  (270) 
CHEMBL402550

>  <Active>  (270) 
1.0

>  <Smiles>  (270) 
O=C(Cc1ccccc1)NC(=S)Nc1ccc(Oc2ccnc3cc(-c4nccs4)sc23)c(F)c1

>  <canonical_smi>  (270) 
O=C(Cc1ccccc1)NC(=S)Nc1ccc(Oc2ccnc3cc(-c4nccs4)sc23)c(F)c1

>  <Set>  (270) 
G2 active

>  <Set_type>  (270) 
Test

>  <MW>  (270) 
520.64

>  <HBD>  (270) 
2

>  <HBA>  (270) 
6

>  <NRB>  (270) 
6

>  <NR>  (270) 
5

>  <NAR>  (270) 
5

>  <PSA>  (270) 
76.14

>  <Standard Type>  (270) 
nan

>  <Standard Relation>  (270) 
nan

>  <Standard Units>  (270) 
nan

>  <Standard Value>  (270) 
nan

>  <Assay ChEMBL ID>  (270) 
nan

>  <Assay Description>  (270) 
nan

>  <BAO Label>  (270) 
nan

$$$$

     RDKit          2D

 39 43  0  0  0  0  0  0  0  0999 V2000
   -2.6401   -3.1891    0.0000 C   0  0  0  0  0  0  0  0  0  0  0  0
   -1.2135   -2.7256    0.0000 C   0  0  0  0  0  0  0  0  0  0  0  0
   -0.0000   -3.6073    0.0000 C   0  0  0  0  0  0  0  0  0  0  0  0
   -0.0000   -5.1073    0.0000 O   0  0  0  0  0  0  0  0  0  0  0  0
    1.2990   -5.8573    0.0000 C   0  0  0  0  0  0  0  0  0  0  0  0
    1.2990   -7.3573    0.0000 C   0  0  0  0  0  0  0  0  0  0  0  0
    2.5981   -8.1073    0.0000 N   0  0  0  0  0  0  0  0  0  0  0  0
    2.5981   -9.6073    0.0000 C   0  0  0  0  0  0  0  0  0  0  0  0
    3.8971  -10.3573    0.0000 C   0  0  0  0  0  0  0  0  0  0  0  0
    5.1962   -9.6073    0.0000 N   0  0  0  0  0  0  0  0  0  0  0  0
    6.4952  -10.3573    0.0000 C   0  0  0  0  0  0  0  0  0  0  0  0
    5.1962   -8.1073    0.0000 C   0  0  0  0  0  0  0  0  0  0  0  0
    3.8971   -7.3573    0.0000 C   0  0  0  0  0  0  0  0  0  0  0  0
    1.2135   -2.7256    0.0000 C   0  0  0  0  0  0  0  0  0  0  0  0
    0.7500   -1.2990    0.0000 N   0  0  0  0  0  0  0  0  0  0  0  0
    1.5000    0.0000    0.0000 N   0  0  0  0  0  0  0  0  0  0  0  0
    0.7500    1.2990    0.0000 C   0  0  0  0  0  0  0  0  0  0  0  0
   -0.7500    1.2990    0.0000 N   0  0  0  0  0  0  0  0  0  0  0  0
   -1.5000    0.0000    0.0000 C   0  0  0  0  0  0  0  0  0  0  0  0
   -3.0000    0.0000    0.0000 O   0  0  0  0  0  0  0  0  0  0  0  0
   -3.7500    1.2990    0.0000 C   0  0  0  0  0  0  0  0  0  0  0  0
   -3.0000    2.5981    0.0000 C   0  0  0  0  0  0  0  0  0  0  0  0
   -3.7500    3.8971    0.0000 C   0  0  0  0  0  0  0  0  0  0  0  0
   -5.2500    3.8971    0.0000 C   0  0  0  0  0  0  0  0  0  0  0  0
   -6.0000    5.1962    0.0000 N   0  0  0  0  0  0  0  0  0  0  0  0
   -5.2500    6.4952    0.0000 C   0  0  0  0  0  0  0  0  0  0  0  0
   -3.7500    6.4952    0.0000 O   0  0  0  0  0  0  0  0  0  0  0  0
   -6.0000    7.7942    0.0000 C   0  0  0  0  0  0  0  0  0  0  0  0
   -5.2500    9.0933    0.0000 C   0  0  0  0  0  0  0  0  0  0  0  0
   -3.7500    9.0933    0.0000 F   0  0  0  0  0  0  0  0  0  0  0  0
   -6.0000   10.3923    0.0000 C   0  0  0  0  0  0  0  0  0  0  0  0
   -7.5000   10.3923    0.0000 C   0  0  0  0  0  0  0  0  0  0  0  0
   -8.2500    9.0933    0.0000 C   0  0  0  0  0  0  0  0  0  0  0  0
   -7.5000    7.7942    0.0000 C   0  0  0  0  0  0  0  0  0  0  0  0
   -8.2500    6.4952    0.0000 F   0  0  0  0  0  0  0  0  0  0  0  0
   -6.0000    2.5981    0.0000 C   0  0  0  0  0  0  0  0  0  0  0  0
   -5.2500    1.2990    0.0000 C   0  0  0  0  0  0  0  0  0  0  0  0
   -6.0000    0.0000    0.0000 F   0  0  0  0  0  0  0  0  0  0  0  0
   -0.7500   -1.2990    0.0000 C   0  0  0  0  0  0  0  0  0  0  0  0
  1  2  1  0
  2  3  1  0
  3  4  1  0
  4  5  1  0
  5  6  1  0
  6  7  1  0
  7  8  1  0
  8  9  1  0
  9 10  1  0
 10 11  1  0
 10 12  1  0
 12 13  1  0
  3 14  2  0
 14 15  1  0
 15 16  1  0
 16 17  2  0
 17 18  1  0
 18 19  2  0
 19 20  1  0
 20 21  1  0
 21 22  2  0
 22 23  1  0
 23 24  2  0
 24 25  1  0
 25 26  1  0
 26 27  2  0
 26 28  1  0
 28 29  2  0
 29 30  1  0
 29 31  1  0
 31 32  2  0
 32 33  1  0
 33 34  2  0
 34 35  1  0
 24 36  1  0
 36 37  2  0
 37 38  1  0
 19 39  1  0
 39  2  2  0
 13  7  1  0
 39 15  1  0
 37 21  1  0
 34 28  1  0
M  END
>  <Compound_ID>  (271) 
CHEMBL255092

>  <Active>  (271) 
1.0

>  <Smiles>  (271) 
Cc1c(OCCN2CCN(C)CC2)cn2ncnc(Oc3ccc(NC(=O)c4c(F)cccc4F)cc3F)c12

>  <canonical_smi>  (271) 
Cc1c(OCCN2CCN(C)CC2)cn2ncnc(Oc3ccc(NC(=O)c4c(F)cccc4F)cc3F)c12

>  <Set>  (271) 
G2 active

>  <Set_type>  (271) 
Test

>  <MW>  (271) 
540.55

>  <HBD>  (271) 
1

>  <HBA>  (271) 
7

>  <NRB>  (271) 
8

>  <NR>  (271) 
5

>  <NAR>  (271) 
4

>  <PSA>  (271) 
84.23

>  <Standard Type>  (271) 
nan

>  <Standard Relation>  (271) 
nan

>  <Standard Units>  (271) 
nan

>  <Standard Value>  (271) 
nan

>  <Assay ChEMBL ID>  (271) 
nan

>  <Assay Description>  (271) 
nan

>  <BAO Label>  (271) 
nan

$$$$

     RDKit          2D

 40 44  0  0  0  0  0  0  0  0999 V2000
   -3.8876   -9.0580    0.0000 N   0  0  0  0  0  0  0  0  0  0  0  0
   -3.5757   -7.5908    0.0000 C   0  0  0  0  0  0  0  0  0  0  0  0
   -4.6904   -6.5871    0.0000 C   0  0  0  0  0  0  0  0  0  0  0  0
   -4.3786   -5.1199    0.0000 C   0  0  0  0  0  0  0  0  0  0  0  0
   -2.9520   -4.6564    0.0000 N   0  0  0  0  0  0  0  0  0  0  0  0
   -2.6401   -3.1891    0.0000 C   0  0  0  0  0  0  0  0  0  0  0  0
   -1.2135   -2.7256    0.0000 C   0  0  0  0  0  0  0  0  0  0  0  0
   -0.0000   -3.6073    0.0000 C   0  0  0  0  0  0  0  0  0  0  0  0
    1.2135   -2.7256    0.0000 C   0  0  0  0  0  0  0  0  0  0  0  0
    0.7500   -1.2990    0.0000 N   0  0  0  0  0  0  0  0  0  0  0  0
    1.5000    0.0000    0.0000 N   0  0  0  0  0  0  0  0  0  0  0  0
    0.7500    1.2990    0.0000 C   0  0  0  0  0  0  0  0  0  0  0  0
   -0.7500    1.2990    0.0000 N   0  0  0  0  0  0  0  0  0  0  0  0
   -1.5000    0.0000    0.0000 C   0  0  0  0  0  0  0  0  0  0  0  0
   -3.0000    0.0000    0.0000 O   0  0  0  0  0  0  0  0  0  0  0  0
   -3.7500    1.2990    0.0000 C   0  0  0  0  0  0  0  0  0  0  0  0
   -3.0000    2.5981    0.0000 C   0  0  0  0  0  0  0  0  0  0  0  0
   -3.7500    3.8971    0.0000 C   0  0  0  0  0  0  0  0  0  0  0  0
   -5.2500    3.8971    0.0000 C   0  0  0  0  0  0  0  0  0  0  0  0
   -6.0000    5.1962    0.0000 N   0  0  0  0  0  0  0  0  0  0  0  0
   -5.2500    6.4952    0.0000 C   0  0  0  0  0  0  0  0  0  0  0  0
   -3.7500    6.4952    0.0000 O   0  0  0  0  0  0  0  0  0  0  0  0
   -6.0000    7.7942    0.0000 N   0  0  0  0  0  0  0  0  0  0  0  0
   -5.2500    9.0933    0.0000 C   0  0  0  0  0  0  0  0  0  0  0  0
   -3.7500    9.0933    0.0000 O   0  0  0  0  0  0  0  0  0  0  0  0
   -6.0000   10.3923    0.0000 C   0  0  0  0  0  0  0  0  0  0  0  0
   -5.2500   11.6913    0.0000 C   0  0  0  0  0  0  0  0  0  0  0  0
   -3.7500   11.6913    0.0000 C   0  0  0  0  0  0  0  0  0  0  0  0
   -3.0000   12.9904    0.0000 C   0  0  0  0  0  0  0  0  0  0  0  0
   -3.7500   14.2894    0.0000 C   0  0  0  0  0  0  0  0  0  0  0  0
   -3.0000   15.5885    0.0000 F   0  0  0  0  0  0  0  0  0  0  0  0
   -5.2500   14.2894    0.0000 C   0  0  0  0  0  0  0  0  0  0  0  0
   -6.0000   12.9904    0.0000 C   0  0  0  0  0  0  0  0  0  0  0  0
   -6.0000    2.5981    0.0000 C   0  0  0  0  0  0  0  0  0  0  0  0
   -5.2500    1.2990    0.0000 C   0  0  0  0  0  0  0  0  0  0  0  0
   -6.0000    0.0000    0.0000 F   0  0  0  0  0  0  0  0  0  0  0  0
   -0.7500   -1.2990    0.0000 C   0  0  0  0  0  0  0  0  0  0  0  0
   -1.8373   -5.6601    0.0000 C   0  0  0  0  0  0  0  0  0  0  0  0
   -2.1491   -7.1273    0.0000 C   0  0  0  0  0  0  0  0  0  0  0  0
   -1.0344   -8.1310    0.0000 O   0  0  0  0  0  0  0  0  0  0  0  0
  2  1  1  6
  2  3  1  0
  3  4  1  0
  4  5  1  0
  5  6  1  0
  6  7  1  0
  7  8  1  0
  8  9  2  0
  9 10  1  0
 10 11  1  0
 11 12  2  0
 12 13  1  0
 13 14  2  0
 14 15  1  0
 15 16  1  0
 16 17  2  0
 17 18  1  0
 18 19  2  0
 19 20  1  0
 20 21  1  0
 21 22  2  0
 21 23  1  0
 23 24  1  0
 24 25  2  0
 24 26  1  0
 26 27  1  0
 27 28  2  0
 28 29  1  0
 29 30  2  0
 30 31  1  0
 30 32  1  0
 32 33  2  0
 19 34  1  0
 34 35  2  0
 35 36  1  0
 14 37  1  0
  5 38  1  0
 38 39  1  0
 39 40  1  1
 39  2  1  0
 37  7  2  0
 37 10  1  0
 35 16  1  0
 33 27  1  0
M  END
>  <Compound_ID>  (272) 
CHEMBL254085

>  <Active>  (272) 
1.0

>  <Smiles>  (272) 
N[C@@H]1CCN(Cc2ccn3ncnc(Oc4ccc(NC(=O)NC(=O)Cc5ccc(F)cc5)cc4F)c23)C[C@H]1O

>  <canonical_smi>  (272) 
N[C@@H]1CCN(Cc2ccn3ncnc(Oc4ccc(NC(=O)NC(=O)Cc5ccc(F)cc5)cc4F)c23)C[C@H]1O

>  <Set>  (272) 
G2 active

>  <Set_type>  (272) 
Test

>  <MW>  (272) 
551.55

>  <HBD>  (272) 
4

>  <HBA>  (272) 
8

>  <NRB>  (272) 
7

>  <NR>  (272) 
5

>  <NAR>  (272) 
4

>  <PSA>  (272) 
147.11

>  <Standard Type>  (272) 
nan

>  <Standard Relation>  (272) 
nan

>  <Standard Units>  (272) 
nan

>  <Standard Value>  (272) 
nan

>  <Assay ChEMBL ID>  (272) 
nan

>  <Assay Description>  (272) 
nan

>  <BAO Label>  (272) 
nan

$$$$

     RDKit          2D

 42 46  0  0  0  0  0  0  0  0999 V2000
   -2.6401   -3.1891    0.0000 C   0  0  0  0  0  0  0  0  0  0  0  0
   -1.2135   -2.7256    0.0000 C   0  0  0  0  0  0  0  0  0  0  0  0
   -0.0000   -3.6073    0.0000 C   0  0  0  0  0  0  0  0  0  0  0  0
   -0.0000   -5.1073    0.0000 O   0  0  0  0  0  0  0  0  0  0  0  0
    1.2990   -5.8573    0.0000 C   0  0  0  0  0  0  0  0  0  0  0  0
    1.2990   -7.3573    0.0000 C   0  0  0  0  0  0  0  0  0  0  0  0
    2.5981   -8.1073    0.0000 N   0  0  0  0  0  0  0  0  0  0  0  0
    2.5981   -9.6073    0.0000 C   0  0  0  0  0  0  0  0  0  0  0  0
    3.8971  -10.3573    0.0000 C   0  0  0  0  0  0  0  0  0  0  0  0
    5.1962   -9.6073    0.0000 N   0  0  0  0  0  0  0  0  0  0  0  0
    6.4952  -10.3573    0.0000 C   0  0  0  0  0  0  0  0  0  0  0  0
    5.1962   -8.1073    0.0000 C   0  0  0  0  0  0  0  0  0  0  0  0
    3.8971   -7.3573    0.0000 C   0  0  0  0  0  0  0  0  0  0  0  0
    1.2135   -2.7256    0.0000 C   0  0  0  0  0  0  0  0  0  0  0  0
    0.7500   -1.2990    0.0000 N   0  0  0  0  0  0  0  0  0  0  0  0
    1.5000    0.0000    0.0000 N   0  0  0  0  0  0  0  0  0  0  0  0
    0.7500    1.2990    0.0000 C   0  0  0  0  0  0  0  0  0  0  0  0
   -0.7500    1.2990    0.0000 N   0  0  0  0  0  0  0  0  0  0  0  0
   -1.5000    0.0000    0.0000 C   0  0  0  0  0  0  0  0  0  0  0  0
   -3.0000    0.0000    0.0000 O   0  0  0  0  0  0  0  0  0  0  0  0
   -3.7500    1.2990    0.0000 C   0  0  0  0  0  0  0  0  0  0  0  0
   -3.0000    2.5981    0.0000 C   0  0  0  0  0  0  0  0  0  0  0  0
   -3.7500    3.8971    0.0000 C   0  0  0  0  0  0  0  0  0  0  0  0
   -5.2500    3.8971    0.0000 C   0  0  0  0  0  0  0  0  0  0  0  0
   -6.0000    5.1962    0.0000 N   0  0  0  0  0  0  0  0  0  0  0  0
   -5.2500    6.4952    0.0000 C   0  0  0  0  0  0  0  0  0  0  0  0
   -3.7500    6.4952    0.0000 O   0  0  0  0  0  0  0  0  0  0  0  0
   -6.0000    7.7942    0.0000 C   0  0  0  0  0  0  0  0  0  0  0  0
   -5.2500    9.0933    0.0000 C   0  0  0  0  0  0  0  0  0  0  0  0
   -3.7500    9.0933    0.0000 O   0  0  0  0  0  0  0  0  0  0  0  0
   -6.0000   10.3923    0.0000 N   0  0  0  0  0  0  0  0  0  0  0  0
   -5.2500   11.6913    0.0000 C   0  0  0  0  0  0  0  0  0  0  0  0
   -3.7500   11.6913    0.0000 C   0  0  0  0  0  0  0  0  0  0  0  0
   -3.0000   12.9904    0.0000 C   0  0  0  0  0  0  0  0  0  0  0  0
   -3.7500   14.2894    0.0000 C   0  0  0  0  0  0  0  0  0  0  0  0
   -3.0000   15.5885    0.0000 F   0  0  0  0  0  0  0  0  0  0  0  0
   -5.2500   14.2894    0.0000 C   0  0  0  0  0  0  0  0  0  0  0  0
   -6.0000   12.9904    0.0000 C   0  0  0  0  0  0  0  0  0  0  0  0
   -6.0000    2.5981    0.0000 C   0  0  0  0  0  0  0  0  0  0  0  0
   -5.2500    1.2990    0.0000 C   0  0  0  0  0  0  0  0  0  0  0  0
   -6.0000    0.0000    0.0000 F   0  0  0  0  0  0  0  0  0  0  0  0
   -0.7500   -1.2990    0.0000 C   0  0  0  0  0  0  0  0  0  0  0  0
  1  2  1  0
  2  3  1  0
  3  4  1  0
  4  5  1  0
  5  6  1  0
  6  7  1  0
  7  8  1  0
  8  9  1  0
  9 10  1  0
 10 11  1  0
 10 12  1  0
 12 13  1  0
  3 14  2  0
 14 15  1  0
 15 16  1  0
 16 17  2  0
 17 18  1  0
 18 19  2  0
 19 20  1  0
 20 21  1  0
 21 22  2  0
 22 23  1  0
 23 24  2  0
 24 25  1  0
 25 26  1  0
 26 27  2  0
 26 28  1  0
 28 29  1  0
 29 30  2  0
 29 31  1  0
 31 32  1  0
 32 33  2  0
 33 34  1  0
 34 35  2  0
 35 36  1  0
 35 37  1  0
 37 38  2  0
 24 39  1  0
 39 40  2  0
 40 41  1  0
 19 42  1  0
 42  2  2  0
 13  7  1  0
 42 15  1  0
 40 21  1  0
 38 32  1  0
M  END
>  <Compound_ID>  (273) 
CHEMBL399698

>  <Active>  (273) 
1.0

>  <Smiles>  (273) 
Cc1c(OCCN2CCN(C)CC2)cn2ncnc(Oc3ccc(NC(=O)CC(=O)Nc4ccc(F)cc4)cc3F)c12

>  <canonical_smi>  (273) 
Cc1c(OCCN2CCN(C)CC2)cn2ncnc(Oc3ccc(NC(=O)CC(=O)Nc4ccc(F)cc4)cc3F)c12

>  <Set>  (273) 
G2 active

>  <Set_type>  (273) 
Test

>  <MW>  (273) 
579.61

>  <HBD>  (273) 
2

>  <HBA>  (273) 
8

>  <NRB>  (273) 
10

>  <NR>  (273) 
5

>  <NAR>  (273) 
4

>  <PSA>  (273) 
113.33

>  <Standard Type>  (273) 
nan

>  <Standard Relation>  (273) 
nan

>  <Standard Units>  (273) 
nan

>  <Standard Value>  (273) 
nan

>  <Assay ChEMBL ID>  (273) 
nan

>  <Assay Description>  (273) 
nan

>  <BAO Label>  (273) 
nan

$$$$

     RDKit          2D

 36 40  0  0  0  0  0  0  0  0999 V2000
   -2.6401   -5.5255    0.0000 C   0  0  0  0  0  0  0  0  0  0  0  0
   -1.2135   -5.9890    0.0000 N   0  0  0  0  0  0  0  0  0  0  0  0
   -0.7500   -7.4156    0.0000 C   0  0  0  0  0  0  0  0  0  0  0  0
    0.7500   -7.4156    0.0000 C   0  0  0  0  0  0  0  0  0  0  0  0
    1.2135   -5.9890    0.0000 C   0  0  0  0  0  0  0  0  0  0  0  0
   -0.0000   -5.1073    0.0000 C   0  0  0  0  0  0  0  0  0  0  0  0
   -0.0000   -3.6073    0.0000 C   0  0  0  0  0  0  0  0  0  0  0  0
    1.2135   -2.7256    0.0000 C   0  0  0  0  0  0  0  0  0  0  0  0
    0.7500   -1.2990    0.0000 C   0  0  0  0  0  0  0  0  0  0  0  0
    1.5000    0.0000    0.0000 N   0  0  0  0  0  0  0  0  0  0  0  0
    0.7500    1.2990    0.0000 C   0  0  0  0  0  0  0  0  0  0  0  0
   -0.7500    1.2990    0.0000 C   0  0  0  0  0  0  0  0  0  0  0  0
   -1.5000    0.0000    0.0000 C   0  0  0  0  0  0  0  0  0  0  0  0
   -3.0000    0.0000    0.0000 O   0  0  0  0  0  0  0  0  0  0  0  0
   -3.7500    1.2990    0.0000 C   0  0  0  0  0  0  0  0  0  0  0  0
   -3.0000    2.5981    0.0000 C   0  0  0  0  0  0  0  0  0  0  0  0
   -3.7500    3.8971    0.0000 C   0  0  0  0  0  0  0  0  0  0  0  0
   -5.2500    3.8971    0.0000 C   0  0  0  0  0  0  0  0  0  0  0  0
   -6.0000    5.1962    0.0000 N   0  0  0  0  0  0  0  0  0  0  0  0
   -5.2500    6.4952    0.0000 C   0  0  0  0  0  0  0  0  0  0  0  0
   -3.7500    6.4952    0.0000 S   0  0  0  0  0  0  0  0  0  0  0  0
   -6.0000    7.7942    0.0000 N   0  0  0  0  0  0  0  0  0  0  0  0
   -5.2500    9.0933    0.0000 C   0  0  0  0  0  0  0  0  0  0  0  0
   -3.7500    9.0933    0.0000 O   0  0  0  0  0  0  0  0  0  0  0  0
   -6.0000   10.3923    0.0000 C   0  0  0  0  0  0  0  0  0  0  0  0
   -5.2500   11.6913    0.0000 C   0  0  0  0  0  0  0  0  0  0  0  0
   -3.7500   11.6913    0.0000 C   0  0  0  0  0  0  0  0  0  0  0  0
   -3.0000   12.9904    0.0000 C   0  0  0  0  0  0  0  0  0  0  0  0
   -3.7500   14.2894    0.0000 C   0  0  0  0  0  0  0  0  0  0  0  0
   -5.2500   14.2894    0.0000 C   0  0  0  0  0  0  0  0  0  0  0  0
   -6.0000   12.9904    0.0000 C   0  0  0  0  0  0  0  0  0  0  0  0
   -6.0000    2.5981    0.0000 C   0  0  0  0  0  0  0  0  0  0  0  0
   -5.2500    1.2990    0.0000 C   0  0  0  0  0  0  0  0  0  0  0  0
   -6.0000    0.0000    0.0000 F   0  0  0  0  0  0  0  0  0  0  0  0
   -0.7500   -1.2990    0.0000 C   0  0  0  0  0  0  0  0  0  0  0  0
   -1.2135   -2.7256    0.0000 S   0  0  0  0  0  0  0  0  0  0  0  0
  1  2  1  0
  2  3  1  0
  3  4  2  0
  4  5  1  0
  5  6  2  0
  6  7  1  0
  7  8  2  0
  8  9  1  0
  9 10  2  0
 10 11  1  0
 11 12  2  0
 12 13  1  0
 13 14  1  0
 14 15  1  0
 15 16  2  0
 16 17  1  0
 17 18  2  0
 18 19  1  0
 19 20  1  0
 20 21  2  0
 20 22  1  0
 22 23  1  0
 23 24  2  0
 23 25  1  0
 25 26  1  0
 26 27  2  0
 27 28  1  0
 28 29  2  0
 29 30  1  0
 30 31  2  0
 18 32  1  0
 32 33  2  0
 33 34  1  0
 13 35  2  0
 35 36  1  0
  6  2  1  0
 36  7  1  0
 35  9  1  0
 33 15  1  0
 31 26  1  0
M  END
>  <Compound_ID>  (274) 
CHEMBL258185

>  <Active>  (274) 
1.0

>  <Smiles>  (274) 
Cn1cccc1-c1cc2nccc(Oc3ccc(NC(=S)NC(=O)Cc4ccccc4)cc3F)c2s1

>  <canonical_smi>  (274) 
Cn1cccc1-c1cc2nccc(Oc3ccc(NC(=S)NC(=O)Cc4ccccc4)cc3F)c2s1

>  <Set>  (274) 
G2 active

>  <Set_type>  (274) 
Test

>  <MW>  (274) 
516.62

>  <HBD>  (274) 
2

>  <HBA>  (274) 
5

>  <NRB>  (274) 
6

>  <NR>  (274) 
5

>  <NAR>  (274) 
5

>  <PSA>  (274) 
68.18

>  <Standard Type>  (274) 
nan

>  <Standard Relation>  (274) 
nan

>  <Standard Units>  (274) 
nan

>  <Standard Value>  (274) 
nan

>  <Assay ChEMBL ID>  (274) 
nan

>  <Assay Description>  (274) 
nan

>  <BAO Label>  (274) 
nan

$$$$

     RDKit          2D

 36 40  0  0  0  0  0  0  0  0999 V2000
    9.7500   -6.4952    0.0000 O   0  0  0  0  0  0  0  0  0  0  0  0
   10.5000   -5.1962    0.0000 C   0  0  0  0  0  0  0  0  0  0  0  0
   12.0000   -5.1962    0.0000 C   0  0  0  0  0  0  0  0  0  0  0  0
   12.7500   -6.4952    0.0000 C   0  0  0  0  0  0  0  0  0  0  0  0
   12.0000   -7.7942    0.0000 C   0  0  0  0  0  0  0  0  0  0  0  0
   12.7500   -9.0933    0.0000 C   0  0  0  0  0  0  0  0  0  0  0  0
   14.2500   -9.0933    0.0000 C   0  0  0  0  0  0  0  0  0  0  0  0
   15.0000   -7.7942    0.0000 C   0  0  0  0  0  0  0  0  0  0  0  0
   14.2500   -6.4952    0.0000 C   0  0  0  0  0  0  0  0  0  0  0  0
    9.7500   -3.8971    0.0000 N   0  0  0  0  0  0  0  0  0  0  0  0
    8.2500   -3.8971    0.0000 C   0  0  0  0  0  0  0  0  0  0  0  0
    7.5000   -5.1962    0.0000 S   0  0  0  0  0  0  0  0  0  0  0  0
    7.5000   -2.5981    0.0000 N   0  0  0  0  0  0  0  0  0  0  0  0
    6.0000   -2.5981    0.0000 C   0  0  0  0  0  0  0  0  0  0  0  0
    5.2500   -1.2990    0.0000 C   0  0  0  0  0  0  0  0  0  0  0  0
    3.7500   -1.2990    0.0000 C   0  0  0  0  0  0  0  0  0  0  0  0
    3.0000   -2.5981    0.0000 C   0  0  0  0  0  0  0  0  0  0  0  0
    1.5000   -2.5981    0.0000 O   0  0  0  0  0  0  0  0  0  0  0  0
    0.7500   -1.2990    0.0000 C   0  0  0  0  0  0  0  0  0  0  0  0
    1.5000    0.0000    0.0000 C   0  0  0  0  0  0  0  0  0  0  0  0
    0.7500    1.2990    0.0000 C   0  0  0  0  0  0  0  0  0  0  0  0
   -0.7500    1.2990    0.0000 N   0  0  0  0  0  0  0  0  0  0  0  0
   -1.5000    0.0000    0.0000 C   0  0  0  0  0  0  0  0  0  0  0  0
   -2.9672   -0.3119    0.0000 C   0  0  0  0  0  0  0  0  0  0  0  0
   -3.1240   -1.8037    0.0000 C   0  0  0  0  0  0  0  0  0  0  0  0
   -4.4231   -2.5537    0.0000 C   0  0  0  0  0  0  0  0  0  0  0  0
   -5.7221   -1.8037    0.0000 C   0  0  0  0  0  0  0  0  0  0  0  0
   -7.0211   -2.5537    0.0000 C   0  0  0  0  0  0  0  0  0  0  0  0
   -7.0211   -4.0537    0.0000 C   0  0  0  0  0  0  0  0  0  0  0  0
   -5.7221   -4.8037    0.0000 N   0  0  0  0  0  0  0  0  0  0  0  0
   -4.4231   -4.0537    0.0000 C   0  0  0  0  0  0  0  0  0  0  0  0
   -1.7537   -2.4138    0.0000 S   0  0  0  0  0  0  0  0  0  0  0  0
   -0.7500   -1.2990    0.0000 C   0  0  0  0  0  0  0  0  0  0  0  0
    3.7500   -3.8971    0.0000 C   0  0  0  0  0  0  0  0  0  0  0  0
    3.0000   -5.1962    0.0000 F   0  0  0  0  0  0  0  0  0  0  0  0
    5.2500   -3.8971    0.0000 C   0  0  0  0  0  0  0  0  0  0  0  0
  1  2  2  0
  2  3  1  0
  3  4  1  0
  4  5  2  0
  5  6  1  0
  6  7  2  0
  7  8  1  0
  8  9  2  0
  2 10  1  0
 10 11  1  0
 11 12  2  0
 11 13  1  0
 13 14  1  0
 14 15  2  0
 15 16  1  0
 16 17  2  0
 17 18  1  0
 18 19  1  0
 19 20  2  0
 20 21  1  0
 21 22  2  0
 22 23  1  0
 23 24  1  0
 24 25  2  0
 25 26  1  0
 26 27  2  0
 27 28  1  0
 28 29  2  0
 29 30  1  0
 30 31  2  0
 25 32  1  0
 32 33  1  0
 17 34  1  0
 34 35  1  0
 34 36  2  0
  9  4  1  0
 36 14  1  0
 33 19  1  0
 33 23  2  0
 31 26  1  0
M  END
>  <Compound_ID>  (275) 
CHEMBL402042

>  <Active>  (275) 
1.0

>  <Smiles>  (275) 
O=C(Cc1ccccc1)NC(=S)Nc1ccc(Oc2ccnc3cc(-c4cccnc4)sc23)c(F)c1

>  <canonical_smi>  (275) 
O=C(Cc1ccccc1)NC(=S)Nc1ccc(Oc2ccnc3cc(-c4cccnc4)sc23)c(F)c1

>  <Set>  (275) 
G2 active

>  <Set_type>  (275) 
Test

>  <MW>  (275) 
514.61

>  <HBD>  (275) 
2

>  <HBA>  (275) 
6

>  <NRB>  (275) 
6

>  <NR>  (275) 
5

>  <NAR>  (275) 
5

>  <PSA>  (275) 
76.14

>  <Standard Type>  (275) 
nan

>  <Standard Relation>  (275) 
nan

>  <Standard Units>  (275) 
nan

>  <Standard Value>  (275) 
nan

>  <Assay ChEMBL ID>  (275) 
nan

>  <Assay Description>  (275) 
nan

>  <BAO Label>  (275) 
nan

$$$$

     RDKit          2D

 37 41  0  0  0  0  0  0  0  0999 V2000
    9.7500   -6.4952    0.0000 O   0  0  0  0  0  0  0  0  0  0  0  0
   10.5000   -5.1962    0.0000 C   0  0  0  0  0  0  0  0  0  0  0  0
   12.0000   -5.1962    0.0000 C   0  0  0  0  0  0  0  0  0  0  0  0
   12.7500   -6.4952    0.0000 C   0  0  0  0  0  0  0  0  0  0  0  0
   12.0000   -7.7942    0.0000 C   0  0  0  0  0  0  0  0  0  0  0  0
   12.7500   -9.0933    0.0000 C   0  0  0  0  0  0  0  0  0  0  0  0
   14.2500   -9.0933    0.0000 C   0  0  0  0  0  0  0  0  0  0  0  0
   15.0000   -7.7942    0.0000 C   0  0  0  0  0  0  0  0  0  0  0  0
   14.2500   -6.4952    0.0000 C   0  0  0  0  0  0  0  0  0  0  0  0
    9.7500   -3.8971    0.0000 N   0  0  0  0  0  0  0  0  0  0  0  0
    8.2500   -3.8971    0.0000 C   0  0  0  0  0  0  0  0  0  0  0  0
    7.5000   -5.1962    0.0000 S   0  0  0  0  0  0  0  0  0  0  0  0
    7.5000   -2.5981    0.0000 N   0  0  0  0  0  0  0  0  0  0  0  0
    6.0000   -2.5981    0.0000 C   0  0  0  0  0  0  0  0  0  0  0  0
    5.2500   -1.2990    0.0000 C   0  0  0  0  0  0  0  0  0  0  0  0
    3.7500   -1.2990    0.0000 C   0  0  0  0  0  0  0  0  0  0  0  0
    3.0000   -2.5981    0.0000 C   0  0  0  0  0  0  0  0  0  0  0  0
    1.5000   -2.5981    0.0000 O   0  0  0  0  0  0  0  0  0  0  0  0
    0.7500   -1.2990    0.0000 C   0  0  0  0  0  0  0  0  0  0  0  0
    1.5000    0.0000    0.0000 C   0  0  0  0  0  0  0  0  0  0  0  0
    0.7500    1.2990    0.0000 C   0  0  0  0  0  0  0  0  0  0  0  0
   -0.7500    1.2990    0.0000 N   0  0  0  0  0  0  0  0  0  0  0  0
   -1.5000    0.0000    0.0000 C   0  0  0  0  0  0  0  0  0  0  0  0
   -2.9672   -0.3119    0.0000 C   0  0  0  0  0  0  0  0  0  0  0  0
   -3.1240   -1.8037    0.0000 C   0  0  0  0  0  0  0  0  0  0  0  0
   -4.4231   -2.5537    0.0000 C   0  0  0  0  0  0  0  0  0  0  0  0
   -4.4231   -4.0537    0.0000 O   0  0  0  0  0  0  0  0  0  0  0  0
   -5.7221   -1.8037    0.0000 N   0  0  0  0  0  0  0  0  0  0  0  0
   -7.0924   -2.4138    0.0000 C   0  0  0  0  0  0  0  0  0  0  0  0
   -8.0961   -1.2990    0.0000 C   0  0  0  0  0  0  0  0  0  0  0  0
   -7.3461    0.0000    0.0000 C   0  0  0  0  0  0  0  0  0  0  0  0
   -5.8789   -0.3119    0.0000 C   0  0  0  0  0  0  0  0  0  0  0  0
   -1.7537   -2.4138    0.0000 S   0  0  0  0  0  0  0  0  0  0  0  0
   -0.7500   -1.2990    0.0000 C   0  0  0  0  0  0  0  0  0  0  0  0
    3.7500   -3.8971    0.0000 C   0  0  0  0  0  0  0  0  0  0  0  0
    3.0000   -5.1962    0.0000 F   0  0  0  0  0  0  0  0  0  0  0  0
    5.2500   -3.8971    0.0000 C   0  0  0  0  0  0  0  0  0  0  0  0
  1  2  2  0
  2  3  1  0
  3  4  1  0
  4  5  2  0
  5  6  1  0
  6  7  2  0
  7  8  1  0
  8  9  2  0
  2 10  1  0
 10 11  1  0
 11 12  2  0
 11 13  1  0
 13 14  1  0
 14 15  2  0
 15 16  1  0
 16 17  2  0
 17 18  1  0
 18 19  1  0
 19 20  2  0
 20 21  1  0
 21 22  2  0
 22 23  1  0
 23 24  1  0
 24 25  2  0
 25 26  1  0
 26 27  2  0
 26 28  1  0
 28 29  1  0
 29 30  1  0
 30 31  1  0
 31 32  1  0
 25 33  1  0
 33 34  1  0
 17 35  1  0
 35 36  1  0
 35 37  2  0
  9  4  1  0
 37 14  1  0
 34 19  1  0
 34 23  2  0
 32 28  1  0
M  END
>  <Compound_ID>  (276) 
CHEMBL254964

>  <Active>  (276) 
1.0

>  <Smiles>  (276) 
O=C(Cc1ccccc1)NC(=S)Nc1ccc(Oc2ccnc3cc(C(=O)N4CCCC4)sc23)c(F)c1

>  <canonical_smi>  (276) 
O=C(Cc1ccccc1)NC(=S)Nc1ccc(Oc2ccnc3cc(C(=O)N4CCCC4)sc23)c(F)c1

>  <Set>  (276) 
G2 active

>  <Set_type>  (276) 
Test

>  <MW>  (276) 
534.64

>  <HBD>  (276) 
2

>  <HBA>  (276) 
6

>  <NRB>  (276) 
6

>  <NR>  (276) 
5

>  <NAR>  (276) 
4

>  <PSA>  (276) 
83.56

>  <Standard Type>  (276) 
nan

>  <Standard Relation>  (276) 
nan

>  <Standard Units>  (276) 
nan

>  <Standard Value>  (276) 
nan

>  <Assay ChEMBL ID>  (276) 
nan

>  <Assay Description>  (276) 
nan

>  <BAO Label>  (276) 
nan

$$$$

     RDKit          2D

 35 39  0  0  0  0  0  0  0  0999 V2000
    9.7500   -6.4952    0.0000 O   0  0  0  0  0  0  0  0  0  0  0  0
   10.5000   -5.1962    0.0000 C   0  0  0  0  0  0  0  0  0  0  0  0
   12.0000   -5.1962    0.0000 C   0  0  0  0  0  0  0  0  0  0  0  0
   12.7500   -6.4952    0.0000 C   0  0  0  0  0  0  0  0  0  0  0  0
   12.0000   -7.7942    0.0000 C   0  0  0  0  0  0  0  0  0  0  0  0
   12.7500   -9.0933    0.0000 C   0  0  0  0  0  0  0  0  0  0  0  0
   14.2500   -9.0933    0.0000 C   0  0  0  0  0  0  0  0  0  0  0  0
   15.0000   -7.7942    0.0000 C   0  0  0  0  0  0  0  0  0  0  0  0
   14.2500   -6.4952    0.0000 C   0  0  0  0  0  0  0  0  0  0  0  0
    9.7500   -3.8971    0.0000 N   0  0  0  0  0  0  0  0  0  0  0  0
    8.2500   -3.8971    0.0000 C   0  0  0  0  0  0  0  0  0  0  0  0
    7.5000   -5.1962    0.0000 S   0  0  0  0  0  0  0  0  0  0  0  0
    7.5000   -2.5981    0.0000 N   0  0  0  0  0  0  0  0  0  0  0  0
    6.0000   -2.5981    0.0000 C   0  0  0  0  0  0  0  0  0  0  0  0
    5.2500   -1.2990    0.0000 C   0  0  0  0  0  0  0  0  0  0  0  0
    3.7500   -1.2990    0.0000 C   0  0  0  0  0  0  0  0  0  0  0  0
    3.0000   -2.5981    0.0000 C   0  0  0  0  0  0  0  0  0  0  0  0
    1.5000   -2.5981    0.0000 O   0  0  0  0  0  0  0  0  0  0  0  0
    0.7500   -1.2990    0.0000 C   0  0  0  0  0  0  0  0  0  0  0  0
    1.5000    0.0000    0.0000 C   0  0  0  0  0  0  0  0  0  0  0  0
    0.7500    1.2990    0.0000 C   0  0  0  0  0  0  0  0  0  0  0  0
   -0.7500    1.2990    0.0000 N   0  0  0  0  0  0  0  0  0  0  0  0
   -1.5000    0.0000    0.0000 C   0  0  0  0  0  0  0  0  0  0  0  0
   -2.9672   -0.3119    0.0000 C   0  0  0  0  0  0  0  0  0  0  0  0
   -3.1240   -1.8037    0.0000 C   0  0  0  0  0  0  0  0  0  0  0  0
   -4.4231   -2.5537    0.0000 C   0  0  0  0  0  0  0  0  0  0  0  0
   -4.5798   -4.0454    0.0000 N   0  0  0  0  0  0  0  0  0  0  0  0
   -6.0471   -4.3573    0.0000 N   0  0  0  0  0  0  0  0  0  0  0  0
   -6.7971   -3.0583    0.0000 C   0  0  0  0  0  0  0  0  0  0  0  0
   -5.7934   -1.9435    0.0000 S   0  0  0  0  0  0  0  0  0  0  0  0
   -1.7537   -2.4138    0.0000 S   0  0  0  0  0  0  0  0  0  0  0  0
   -0.7500   -1.2990    0.0000 C   0  0  0  0  0  0  0  0  0  0  0  0
    3.7500   -3.8971    0.0000 C   0  0  0  0  0  0  0  0  0  0  0  0
    3.0000   -5.1962    0.0000 F   0  0  0  0  0  0  0  0  0  0  0  0
    5.2500   -3.8971    0.0000 C   0  0  0  0  0  0  0  0  0  0  0  0
  1  2  2  0
  2  3  1  0
  3  4  1  0
  4  5  2  0
  5  6  1  0
  6  7  2  0
  7  8  1  0
  8  9  2  0
  2 10  1  0
 10 11  1  0
 11 12  2  0
 11 13  1  0
 13 14  1  0
 14 15  2  0
 15 16  1  0
 16 17  2  0
 17 18  1  0
 18 19  1  0
 19 20  2  0
 20 21  1  0
 21 22  2  0
 22 23  1  0
 23 24  1  0
 24 25  2  0
 25 26  1  0
 26 27  2  0
 27 28  1  0
 28 29  2  0
 29 30  1  0
 25 31  1  0
 31 32  1  0
 17 33  1  0
 33 34  1  0
 33 35  2  0
  9  4  1  0
 35 14  1  0
 32 19  1  0
 32 23  2  0
 30 26  1  0
M  END
>  <Compound_ID>  (277) 
CHEMBL257987

>  <Active>  (277) 
1.0

>  <Smiles>  (277) 
O=C(Cc1ccccc1)NC(=S)Nc1ccc(Oc2ccnc3cc(-c4nncs4)sc23)c(F)c1

>  <canonical_smi>  (277) 
O=C(Cc1ccccc1)NC(=S)Nc1ccc(Oc2ccnc3cc(-c4nncs4)sc23)c(F)c1

>  <Set>  (277) 
G2 active

>  <Set_type>  (277) 
Test

>  <MW>  (277) 
521.62

>  <HBD>  (277) 
2

>  <HBA>  (277) 
7

>  <NRB>  (277) 
6

>  <NR>  (277) 
5

>  <NAR>  (277) 
5

>  <PSA>  (277) 
89.03

>  <Standard Type>  (277) 
nan

>  <Standard Relation>  (277) 
nan

>  <Standard Units>  (277) 
nan

>  <Standard Value>  (277) 
nan

>  <Assay ChEMBL ID>  (277) 
nan

>  <Assay Description>  (277) 
nan

>  <BAO Label>  (277) 
nan

$$$$

     RDKit          2D

 35 39  0  0  0  0  0  0  0  0999 V2000
    9.7500   -6.4952    0.0000 O   0  0  0  0  0  0  0  0  0  0  0  0
   10.5000   -5.1962    0.0000 C   0  0  0  0  0  0  0  0  0  0  0  0
   12.0000   -5.1962    0.0000 C   0  0  0  0  0  0  0  0  0  0  0  0
   12.7500   -6.4952    0.0000 C   0  0  0  0  0  0  0  0  0  0  0  0
   12.0000   -7.7942    0.0000 C   0  0  0  0  0  0  0  0  0  0  0  0
   12.7500   -9.0933    0.0000 C   0  0  0  0  0  0  0  0  0  0  0  0
   14.2500   -9.0933    0.0000 C   0  0  0  0  0  0  0  0  0  0  0  0
   15.0000   -7.7942    0.0000 C   0  0  0  0  0  0  0  0  0  0  0  0
   14.2500   -6.4952    0.0000 C   0  0  0  0  0  0  0  0  0  0  0  0
    9.7500   -3.8971    0.0000 N   0  0  0  0  0  0  0  0  0  0  0  0
    8.2500   -3.8971    0.0000 C   0  0  0  0  0  0  0  0  0  0  0  0
    7.5000   -5.1962    0.0000 S   0  0  0  0  0  0  0  0  0  0  0  0
    7.5000   -2.5981    0.0000 N   0  0  0  0  0  0  0  0  0  0  0  0
    6.0000   -2.5981    0.0000 C   0  0  0  0  0  0  0  0  0  0  0  0
    5.2500   -1.2990    0.0000 C   0  0  0  0  0  0  0  0  0  0  0  0
    3.7500   -1.2990    0.0000 C   0  0  0  0  0  0  0  0  0  0  0  0
    3.0000   -2.5981    0.0000 C   0  0  0  0  0  0  0  0  0  0  0  0
    1.5000   -2.5981    0.0000 O   0  0  0  0  0  0  0  0  0  0  0  0
    0.7500   -1.2990    0.0000 C   0  0  0  0  0  0  0  0  0  0  0  0
    1.5000    0.0000    0.0000 C   0  0  0  0  0  0  0  0  0  0  0  0
    0.7500    1.2990    0.0000 C   0  0  0  0  0  0  0  0  0  0  0  0
   -0.7500    1.2990    0.0000 N   0  0  0  0  0  0  0  0  0  0  0  0
   -1.5000    0.0000    0.0000 C   0  0  0  0  0  0  0  0  0  0  0  0
   -2.9672   -0.3119    0.0000 C   0  0  0  0  0  0  0  0  0  0  0  0
   -3.1240   -1.8037    0.0000 C   0  0  0  0  0  0  0  0  0  0  0  0
   -4.4231   -2.5537    0.0000 C   0  0  0  0  0  0  0  0  0  0  0  0
   -4.5798   -4.0454    0.0000 C   0  0  0  0  0  0  0  0  0  0  0  0
   -6.0471   -4.3573    0.0000 C   0  0  0  0  0  0  0  0  0  0  0  0
   -6.7971   -3.0583    0.0000 O   0  0  0  0  0  0  0  0  0  0  0  0
   -5.7934   -1.9435    0.0000 C   0  0  0  0  0  0  0  0  0  0  0  0
   -1.7537   -2.4138    0.0000 S   0  0  0  0  0  0  0  0  0  0  0  0
   -0.7500   -1.2990    0.0000 C   0  0  0  0  0  0  0  0  0  0  0  0
    3.7500   -3.8971    0.0000 C   0  0  0  0  0  0  0  0  0  0  0  0
    3.0000   -5.1962    0.0000 F   0  0  0  0  0  0  0  0  0  0  0  0
    5.2500   -3.8971    0.0000 C   0  0  0  0  0  0  0  0  0  0  0  0
  1  2  2  0
  2  3  1  0
  3  4  1  0
  4  5  2  0
  5  6  1  0
  6  7  2  0
  7  8  1  0
  8  9  2  0
  2 10  1  0
 10 11  1  0
 11 12  2  0
 11 13  1  0
 13 14  1  0
 14 15  2  0
 15 16  1  0
 16 17  2  0
 17 18  1  0
 18 19  1  0
 19 20  2  0
 20 21  1  0
 21 22  2  0
 22 23  1  0
 23 24  1  0
 24 25  2  0
 25 26  1  0
 26 27  1  0
 27 28  2  0
 28 29  1  0
 29 30  1  0
 25 31  1  0
 31 32  1  0
 17 33  1  0
 33 34  1  0
 33 35  2  0
  9  4  1  0
 35 14  1  0
 32 19  1  0
 32 23  2  0
 30 26  2  0
M  END
>  <Compound_ID>  (278) 
CHEMBL403747

>  <Active>  (278) 
1.0

>  <Smiles>  (278) 
O=C(Cc1ccccc1)NC(=S)Nc1ccc(Oc2ccnc3cc(-c4ccoc4)sc23)c(F)c1

>  <canonical_smi>  (278) 
O=C(Cc1ccccc1)NC(=S)Nc1ccc(Oc2ccnc3cc(-c4ccoc4)sc23)c(F)c1

>  <Set>  (278) 
G2 active

>  <Set_type>  (278) 
Test

>  <MW>  (278) 
503.58

>  <HBD>  (278) 
2

>  <HBA>  (278) 
6

>  <NRB>  (278) 
6

>  <NR>  (278) 
5

>  <NAR>  (278) 
5

>  <PSA>  (278) 
76.39

>  <Standard Type>  (278) 
nan

>  <Standard Relation>  (278) 
nan

>  <Standard Units>  (278) 
nan

>  <Standard Value>  (278) 
nan

>  <Assay ChEMBL ID>  (278) 
nan

>  <Assay Description>  (278) 
nan

>  <BAO Label>  (278) 
nan

$$$$

     RDKit          2D

 38 42  0  0  0  0  0  0  0  0999 V2000
    9.7500   -6.4952    0.0000 O   0  0  0  0  0  0  0  0  0  0  0  0
   10.5000   -5.1962    0.0000 C   0  0  0  0  0  0  0  0  0  0  0  0
   12.0000   -5.1962    0.0000 C   0  0  0  0  0  0  0  0  0  0  0  0
   12.7500   -6.4952    0.0000 C   0  0  0  0  0  0  0  0  0  0  0  0
   12.0000   -7.7942    0.0000 C   0  0  0  0  0  0  0  0  0  0  0  0
   12.7500   -9.0933    0.0000 C   0  0  0  0  0  0  0  0  0  0  0  0
   14.2500   -9.0933    0.0000 C   0  0  0  0  0  0  0  0  0  0  0  0
   15.0000   -7.7942    0.0000 C   0  0  0  0  0  0  0  0  0  0  0  0
   14.2500   -6.4952    0.0000 C   0  0  0  0  0  0  0  0  0  0  0  0
    9.7500   -3.8971    0.0000 N   0  0  0  0  0  0  0  0  0  0  0  0
    8.2500   -3.8971    0.0000 C   0  0  0  0  0  0  0  0  0  0  0  0
    7.5000   -5.1962    0.0000 S   0  0  0  0  0  0  0  0  0  0  0  0
    7.5000   -2.5981    0.0000 N   0  0  0  0  0  0  0  0  0  0  0  0
    6.0000   -2.5981    0.0000 C   0  0  0  0  0  0  0  0  0  0  0  0
    5.2500   -1.2990    0.0000 C   0  0  0  0  0  0  0  0  0  0  0  0
    3.7500   -1.2990    0.0000 C   0  0  0  0  0  0  0  0  0  0  0  0
    3.0000   -2.5981    0.0000 C   0  0  0  0  0  0  0  0  0  0  0  0
    1.5000   -2.5981    0.0000 O   0  0  0  0  0  0  0  0  0  0  0  0
    0.7500   -1.2990    0.0000 C   0  0  0  0  0  0  0  0  0  0  0  0
    1.5000    0.0000    0.0000 C   0  0  0  0  0  0  0  0  0  0  0  0
    0.7500    1.2990    0.0000 C   0  0  0  0  0  0  0  0  0  0  0  0
   -0.7500    1.2990    0.0000 N   0  0  0  0  0  0  0  0  0  0  0  0
   -1.5000    0.0000    0.0000 C   0  0  0  0  0  0  0  0  0  0  0  0
   -2.9672   -0.3119    0.0000 C   0  0  0  0  0  0  0  0  0  0  0  0
   -3.1240   -1.8037    0.0000 C   0  0  0  0  0  0  0  0  0  0  0  0
   -4.4231   -2.5537    0.0000 C   0  0  0  0  0  0  0  0  0  0  0  0
   -4.4231   -4.0537    0.0000 O   0  0  0  0  0  0  0  0  0  0  0  0
   -5.7221   -1.8037    0.0000 N   0  0  0  0  0  0  0  0  0  0  0  0
   -5.7221   -0.3037    0.0000 C   0  0  0  0  0  0  0  0  0  0  0  0
   -7.0211    0.4463    0.0000 C   0  0  0  0  0  0  0  0  0  0  0  0
   -8.3202   -0.3037    0.0000 O   0  0  0  0  0  0  0  0  0  0  0  0
   -8.3202   -1.8037    0.0000 C   0  0  0  0  0  0  0  0  0  0  0  0
   -7.0211   -2.5537    0.0000 C   0  0  0  0  0  0  0  0  0  0  0  0
   -1.7537   -2.4138    0.0000 S   0  0  0  0  0  0  0  0  0  0  0  0
   -0.7500   -1.2990    0.0000 C   0  0  0  0  0  0  0  0  0  0  0  0
    3.7500   -3.8971    0.0000 C   0  0  0  0  0  0  0  0  0  0  0  0
    3.0000   -5.1962    0.0000 F   0  0  0  0  0  0  0  0  0  0  0  0
    5.2500   -3.8971    0.0000 C   0  0  0  0  0  0  0  0  0  0  0  0
  1  2  2  0
  2  3  1  0
  3  4  1  0
  4  5  2  0
  5  6  1  0
  6  7  2  0
  7  8  1  0
  8  9  2  0
  2 10  1  0
 10 11  1  0
 11 12  2  0
 11 13  1  0
 13 14  1  0
 14 15  2  0
 15 16  1  0
 16 17  2  0
 17 18  1  0
 18 19  1  0
 19 20  2  0
 20 21  1  0
 21 22  2  0
 22 23  1  0
 23 24  1  0
 24 25  2  0
 25 26  1  0
 26 27  2  0
 26 28  1  0
 28 29  1  0
 29 30  1  0
 30 31  1  0
 31 32  1  0
 32 33  1  0
 25 34  1  0
 34 35  1  0
 17 36  1  0
 36 37  1  0
 36 38  2  0
  9  4  1  0
 38 14  1  0
 35 19  1  0
 35 23  2  0
 33 28  1  0
M  END
>  <Compound_ID>  (279) 
CHEMBL401838

>  <Active>  (279) 
1.0

>  <Smiles>  (279) 
O=C(Cc1ccccc1)NC(=S)Nc1ccc(Oc2ccnc3cc(C(=O)N4CCOCC4)sc23)c(F)c1

>  <canonical_smi>  (279) 
O=C(Cc1ccccc1)NC(=S)Nc1ccc(Oc2ccnc3cc(C(=O)N4CCOCC4)sc23)c(F)c1

>  <Set>  (279) 
G2 active

>  <Set_type>  (279) 
Test

>  <MW>  (279) 
550.64

>  <HBD>  (279) 
2

>  <HBA>  (279) 
7

>  <NRB>  (279) 
6

>  <NR>  (279) 
5

>  <NAR>  (279) 
4

>  <PSA>  (279) 
92.79

>  <Standard Type>  (279) 
nan

>  <Standard Relation>  (279) 
nan

>  <Standard Units>  (279) 
nan

>  <Standard Value>  (279) 
nan

>  <Assay ChEMBL ID>  (279) 
nan

>  <Assay Description>  (279) 
nan

>  <BAO Label>  (279) 
nan

$$$$

     RDKit          2D

 38 42  0  0  0  0  0  0  0  0999 V2000
   -5.1315   -8.6621    0.0000 N   0  0  0  0  0  0  0  0  0  0  0  0
   -3.7049   -8.1986    0.0000 C   0  0  0  0  0  0  0  0  0  0  0  0
   -3.3930   -6.7313    0.0000 C   0  0  0  0  0  0  0  0  0  0  0  0
   -4.2100   -5.4733    0.0000 C   0  0  0  0  0  0  0  0  0  0  0  0
   -2.9520   -4.6564    0.0000 N   0  0  0  0  0  0  0  0  0  0  0  0
   -2.6401   -3.1891    0.0000 C   0  0  0  0  0  0  0  0  0  0  0  0
   -1.2135   -2.7256    0.0000 C   0  0  0  0  0  0  0  0  0  0  0  0
   -0.0000   -3.6073    0.0000 C   0  0  0  0  0  0  0  0  0  0  0  0
    1.2135   -2.7256    0.0000 C   0  0  0  0  0  0  0  0  0  0  0  0
    0.7500   -1.2990    0.0000 N   0  0  0  0  0  0  0  0  0  0  0  0
    1.5000    0.0000    0.0000 N   0  0  0  0  0  0  0  0  0  0  0  0
    0.7500    1.2990    0.0000 C   0  0  0  0  0  0  0  0  0  0  0  0
   -0.7500    1.2990    0.0000 N   0  0  0  0  0  0  0  0  0  0  0  0
   -1.5000    0.0000    0.0000 C   0  0  0  0  0  0  0  0  0  0  0  0
   -3.0000    0.0000    0.0000 O   0  0  0  0  0  0  0  0  0  0  0  0
   -3.7500    1.2990    0.0000 C   0  0  0  0  0  0  0  0  0  0  0  0
   -3.0000    2.5981    0.0000 C   0  0  0  0  0  0  0  0  0  0  0  0
   -3.7500    3.8971    0.0000 C   0  0  0  0  0  0  0  0  0  0  0  0
   -5.2500    3.8971    0.0000 C   0  0  0  0  0  0  0  0  0  0  0  0
   -6.0000    5.1962    0.0000 N   0  0  0  0  0  0  0  0  0  0  0  0
   -5.2500    6.4952    0.0000 C   0  0  0  0  0  0  0  0  0  0  0  0
   -3.7500    6.4952    0.0000 O   0  0  0  0  0  0  0  0  0  0  0  0
   -6.0000    7.7942    0.0000 N   0  0  0  0  0  0  0  0  0  0  0  0
   -5.2500    9.0933    0.0000 C   0  0  0  0  0  0  0  0  0  0  0  0
   -3.7500    9.0933    0.0000 O   0  0  0  0  0  0  0  0  0  0  0  0
   -6.0000   10.3923    0.0000 C   0  0  0  0  0  0  0  0  0  0  0  0
   -5.2500   11.6913    0.0000 C   0  0  0  0  0  0  0  0  0  0  0  0
   -3.7500   11.6913    0.0000 C   0  0  0  0  0  0  0  0  0  0  0  0
   -3.0000   12.9904    0.0000 C   0  0  0  0  0  0  0  0  0  0  0  0
   -3.7500   14.2894    0.0000 C   0  0  0  0  0  0  0  0  0  0  0  0
   -3.0000   15.5885    0.0000 F   0  0  0  0  0  0  0  0  0  0  0  0
   -5.2500   14.2894    0.0000 C   0  0  0  0  0  0  0  0  0  0  0  0
   -6.0000   12.9904    0.0000 C   0  0  0  0  0  0  0  0  0  0  0  0
   -6.0000    2.5981    0.0000 C   0  0  0  0  0  0  0  0  0  0  0  0
   -5.2500    1.2990    0.0000 C   0  0  0  0  0  0  0  0  0  0  0  0
   -6.0000    0.0000    0.0000 F   0  0  0  0  0  0  0  0  0  0  0  0
   -0.7500   -1.2990    0.0000 C   0  0  0  0  0  0  0  0  0  0  0  0
   -2.1350   -5.9144    0.0000 C   0  0  0  0  0  0  0  0  0  0  0  0
  1  2  1  0
  2  3  1  0
  3  4  1  0
  4  5  1  0
  5  6  1  0
  6  7  1  0
  7  8  1  0
  8  9  2  0
  9 10  1  0
 10 11  1  0
 11 12  2  0
 12 13  1  0
 13 14  2  0
 14 15  1  0
 15 16  1  0
 16 17  2  0
 17 18  1  0
 18 19  2  0
 19 20  1  0
 20 21  1  0
 21 22  2  0
 21 23  1  0
 23 24  1  0
 24 25  2  0
 24 26  1  0
 26 27  1  0
 27 28  2  0
 28 29  1  0
 29 30  2  0
 30 31  1  0
 30 32  1  0
 32 33  2  0
 19 34  1  0
 34 35  2  0
 35 36  1  0
 14 37  1  0
  5 38  1  0
 38  3  1  0
 37  7  2  0
 37 10  1  0
 35 16  1  0
 33 27  1  0
M  END
>  <Compound_ID>  (280) 
CHEMBL400726

>  <Active>  (280) 
1.0

>  <Smiles>  (280) 
NCC1CN(Cc2ccn3ncnc(Oc4ccc(NC(=O)NC(=O)Cc5ccc(F)cc5)cc4F)c23)C1

>  <canonical_smi>  (280) 
NCC1CN(Cc2ccn3ncnc(Oc4ccc(NC(=O)NC(=O)Cc5ccc(F)cc5)cc4F)c23)C1

>  <Set>  (280) 
G2 active

>  <Set_type>  (280) 
Test

>  <MW>  (280) 
521.53

>  <HBD>  (280) 
3

>  <HBA>  (280) 
7

>  <NRB>  (280) 
8

>  <NR>  (280) 
5

>  <NAR>  (280) 
4

>  <PSA>  (280) 
126.88

>  <Standard Type>  (280) 
nan

>  <Standard Relation>  (280) 
nan

>  <Standard Units>  (280) 
nan

>  <Standard Value>  (280) 
nan

>  <Assay ChEMBL ID>  (280) 
nan

>  <Assay Description>  (280) 
nan

>  <BAO Label>  (280) 
nan

$$$$

     RDKit          2D

 36 40  0  0  0  0  0  0  0  0999 V2000
    9.7500   -6.4952    0.0000 O   0  0  0  0  0  0  0  0  0  0  0  0
   10.5000   -5.1962    0.0000 C   0  0  0  0  0  0  0  0  0  0  0  0
   12.0000   -5.1962    0.0000 C   0  0  0  0  0  0  0  0  0  0  0  0
   12.7500   -6.4952    0.0000 C   0  0  0  0  0  0  0  0  0  0  0  0
   12.0000   -7.7942    0.0000 C   0  0  0  0  0  0  0  0  0  0  0  0
   12.7500   -9.0933    0.0000 C   0  0  0  0  0  0  0  0  0  0  0  0
   14.2500   -9.0933    0.0000 C   0  0  0  0  0  0  0  0  0  0  0  0
   15.0000   -7.7942    0.0000 C   0  0  0  0  0  0  0  0  0  0  0  0
   14.2500   -6.4952    0.0000 C   0  0  0  0  0  0  0  0  0  0  0  0
    9.7500   -3.8971    0.0000 N   0  0  0  0  0  0  0  0  0  0  0  0
    8.2500   -3.8971    0.0000 C   0  0  0  0  0  0  0  0  0  0  0  0
    7.5000   -5.1962    0.0000 S   0  0  0  0  0  0  0  0  0  0  0  0
    7.5000   -2.5981    0.0000 N   0  0  0  0  0  0  0  0  0  0  0  0
    6.0000   -2.5981    0.0000 C   0  0  0  0  0  0  0  0  0  0  0  0
    5.2500   -1.2990    0.0000 C   0  0  0  0  0  0  0  0  0  0  0  0
    3.7500   -1.2990    0.0000 C   0  0  0  0  0  0  0  0  0  0  0  0
    3.0000   -2.5981    0.0000 C   0  0  0  0  0  0  0  0  0  0  0  0
    1.5000   -2.5981    0.0000 O   0  0  0  0  0  0  0  0  0  0  0  0
    0.7500   -1.2990    0.0000 C   0  0  0  0  0  0  0  0  0  0  0  0
    1.5000    0.0000    0.0000 C   0  0  0  0  0  0  0  0  0  0  0  0
    0.7500    1.2990    0.0000 C   0  0  0  0  0  0  0  0  0  0  0  0
   -0.7500    1.2990    0.0000 N   0  0  0  0  0  0  0  0  0  0  0  0
   -1.5000    0.0000    0.0000 C   0  0  0  0  0  0  0  0  0  0  0  0
   -2.9672   -0.3119    0.0000 C   0  0  0  0  0  0  0  0  0  0  0  0
   -3.1240   -1.8037    0.0000 C   0  0  0  0  0  0  0  0  0  0  0  0
   -4.4231   -2.5537    0.0000 C   0  0  0  0  0  0  0  0  0  0  0  0
   -5.7221   -1.8037    0.0000 N   0  0  0  0  0  0  0  0  0  0  0  0
   -7.0211   -2.5537    0.0000 C   0  0  0  0  0  0  0  0  0  0  0  0
   -7.0211   -4.0537    0.0000 C   0  0  0  0  0  0  0  0  0  0  0  0
   -5.7221   -4.8037    0.0000 C   0  0  0  0  0  0  0  0  0  0  0  0
   -4.4231   -4.0537    0.0000 N   0  0  0  0  0  0  0  0  0  0  0  0
   -1.7537   -2.4138    0.0000 S   0  0  0  0  0  0  0  0  0  0  0  0
   -0.7500   -1.2990    0.0000 C   0  0  0  0  0  0  0  0  0  0  0  0
    3.7500   -3.8971    0.0000 C   0  0  0  0  0  0  0  0  0  0  0  0
    3.0000   -5.1962    0.0000 F   0  0  0  0  0  0  0  0  0  0  0  0
    5.2500   -3.8971    0.0000 C   0  0  0  0  0  0  0  0  0  0  0  0
  1  2  2  0
  2  3  1  0
  3  4  1  0
  4  5  2  0
  5  6  1  0
  6  7  2  0
  7  8  1  0
  8  9  2  0
  2 10  1  0
 10 11  1  0
 11 12  2  0
 11 13  1  0
 13 14  1  0
 14 15  2  0
 15 16  1  0
 16 17  2  0
 17 18  1  0
 18 19  1  0
 19 20  2  0
 20 21  1  0
 21 22  2  0
 22 23  1  0
 23 24  1  0
 24 25  2  0
 25 26  1  0
 26 27  2  0
 27 28  1  0
 28 29  2  0
 29 30  1  0
 30 31  2  0
 25 32  1  0
 32 33  1  0
 17 34  1  0
 34 35  1  0
 34 36  2  0
  9  4  1  0
 36 14  1  0
 33 19  1  0
 33 23  2  0
 31 26  1  0
M  END
>  <Compound_ID>  (281) 
CHEMBL256767

>  <Active>  (281) 
1.0

>  <Smiles>  (281) 
O=C(Cc1ccccc1)NC(=S)Nc1ccc(Oc2ccnc3cc(-c4ncccn4)sc23)c(F)c1

>  <canonical_smi>  (281) 
O=C(Cc1ccccc1)NC(=S)Nc1ccc(Oc2ccnc3cc(-c4ncccn4)sc23)c(F)c1

>  <Set>  (281) 
G2 active

>  <Set_type>  (281) 
Test

>  <MW>  (281) 
515.6

>  <HBD>  (281) 
2

>  <HBA>  (281) 
7

>  <NRB>  (281) 
6

>  <NR>  (281) 
5

>  <NAR>  (281) 
5

>  <PSA>  (281) 
89.03

>  <Standard Type>  (281) 
nan

>  <Standard Relation>  (281) 
nan

>  <Standard Units>  (281) 
nan

>  <Standard Value>  (281) 
nan

>  <Assay ChEMBL ID>  (281) 
nan

>  <Assay Description>  (281) 
nan

>  <BAO Label>  (281) 
nan

$$$$

     RDKit          2D

 38 42  0  0  0  0  0  0  0  0999 V2000
   -5.2802   -7.7620    0.0000 N   0  0  0  0  0  0  0  0  0  0  0  0
   -4.1655   -6.7583    0.0000 C   0  0  0  0  0  0  0  0  0  0  0  0
   -2.6983   -7.0701    0.0000 C   0  0  0  0  0  0  0  0  0  0  0  0
   -1.9483   -5.7711    0.0000 C   0  0  0  0  0  0  0  0  0  0  0  0
   -2.9520   -4.6564    0.0000 N   0  0  0  0  0  0  0  0  0  0  0  0
   -2.6401   -3.1891    0.0000 C   0  0  0  0  0  0  0  0  0  0  0  0
   -1.2135   -2.7256    0.0000 C   0  0  0  0  0  0  0  0  0  0  0  0
   -0.0000   -3.6073    0.0000 C   0  0  0  0  0  0  0  0  0  0  0  0
    1.2135   -2.7256    0.0000 C   0  0  0  0  0  0  0  0  0  0  0  0
    0.7500   -1.2990    0.0000 N   0  0  0  0  0  0  0  0  0  0  0  0
    1.5000    0.0000    0.0000 N   0  0  0  0  0  0  0  0  0  0  0  0
    0.7500    1.2990    0.0000 C   0  0  0  0  0  0  0  0  0  0  0  0
   -0.7500    1.2990    0.0000 N   0  0  0  0  0  0  0  0  0  0  0  0
   -1.5000    0.0000    0.0000 C   0  0  0  0  0  0  0  0  0  0  0  0
   -3.0000    0.0000    0.0000 O   0  0  0  0  0  0  0  0  0  0  0  0
   -3.7500    1.2990    0.0000 C   0  0  0  0  0  0  0  0  0  0  0  0
   -3.0000    2.5981    0.0000 C   0  0  0  0  0  0  0  0  0  0  0  0
   -3.7500    3.8971    0.0000 C   0  0  0  0  0  0  0  0  0  0  0  0
   -5.2500    3.8971    0.0000 C   0  0  0  0  0  0  0  0  0  0  0  0
   -6.0000    5.1962    0.0000 N   0  0  0  0  0  0  0  0  0  0  0  0
   -5.2500    6.4952    0.0000 C   0  0  0  0  0  0  0  0  0  0  0  0
   -3.7500    6.4952    0.0000 O   0  0  0  0  0  0  0  0  0  0  0  0
   -6.0000    7.7942    0.0000 N   0  0  0  0  0  0  0  0  0  0  0  0
   -5.2500    9.0933    0.0000 C   0  0  0  0  0  0  0  0  0  0  0  0
   -3.7500    9.0933    0.0000 O   0  0  0  0  0  0  0  0  0  0  0  0
   -6.0000   10.3923    0.0000 C   0  0  0  0  0  0  0  0  0  0  0  0
   -5.2500   11.6913    0.0000 C   0  0  0  0  0  0  0  0  0  0  0  0
   -3.7500   11.6913    0.0000 C   0  0  0  0  0  0  0  0  0  0  0  0
   -3.0000   12.9904    0.0000 C   0  0  0  0  0  0  0  0  0  0  0  0
   -3.7500   14.2894    0.0000 C   0  0  0  0  0  0  0  0  0  0  0  0
   -3.0000   15.5885    0.0000 F   0  0  0  0  0  0  0  0  0  0  0  0
   -5.2500   14.2894    0.0000 C   0  0  0  0  0  0  0  0  0  0  0  0
   -6.0000   12.9904    0.0000 C   0  0  0  0  0  0  0  0  0  0  0  0
   -6.0000    2.5981    0.0000 C   0  0  0  0  0  0  0  0  0  0  0  0
   -5.2500    1.2990    0.0000 C   0  0  0  0  0  0  0  0  0  0  0  0
   -6.0000    0.0000    0.0000 F   0  0  0  0  0  0  0  0  0  0  0  0
   -0.7500   -1.2990    0.0000 C   0  0  0  0  0  0  0  0  0  0  0  0
   -4.3223   -5.2665    0.0000 C   0  0  0  0  0  0  0  0  0  0  0  0
  2  1  1  6
  2  3  1  0
  3  4  1  0
  4  5  1  0
  5  6  1  0
  6  7  1  0
  7  8  1  0
  8  9  2  0
  9 10  1  0
 10 11  1  0
 11 12  2  0
 12 13  1  0
 13 14  2  0
 14 15  1  0
 15 16  1  0
 16 17  2  0
 17 18  1  0
 18 19  2  0
 19 20  1  0
 20 21  1  0
 21 22  2  0
 21 23  1  0
 23 24  1  0
 24 25  2  0
 24 26  1  0
 26 27  1  0
 27 28  2  0
 28 29  1  0
 29 30  2  0
 30 31  1  0
 30 32  1  0
 32 33  2  0
 19 34  1  0
 34 35  2  0
 35 36  1  0
 14 37  1  0
  5 38  1  0
 38  2  1  0
 37  7  2  0
 37 10  1  0
 35 16  1  0
 33 27  1  0
M  END
>  <Compound_ID>  (282) 
CHEMBL428944

>  <Active>  (282) 
1.0

>  <Smiles>  (282) 
N[C@H]1CCN(Cc2ccn3ncnc(Oc4ccc(NC(=O)NC(=O)Cc5ccc(F)cc5)cc4F)c23)C1

>  <canonical_smi>  (282) 
N[C@H]1CCN(Cc2ccn3ncnc(Oc4ccc(NC(=O)NC(=O)Cc5ccc(F)cc5)cc4F)c23)C1

>  <Set>  (282) 
G2 active

>  <Set_type>  (282) 
Test

>  <MW>  (282) 
521.53

>  <HBD>  (282) 
3

>  <HBA>  (282) 
7

>  <NRB>  (282) 
7

>  <NR>  (282) 
5

>  <NAR>  (282) 
4

>  <PSA>  (282) 
126.88

>  <Standard Type>  (282) 
nan

>  <Standard Relation>  (282) 
nan

>  <Standard Units>  (282) 
nan

>  <Standard Value>  (282) 
nan

>  <Assay ChEMBL ID>  (282) 
nan

>  <Assay Description>  (282) 
nan

>  <BAO Label>  (282) 
nan

$$$$

     RDKit          2D

 38 42  0  0  0  0  0  0  0  0999 V2000
    9.7500   -6.4952    0.0000 O   0  0  0  0  0  0  0  0  0  0  0  0
   10.5000   -5.1962    0.0000 C   0  0  0  0  0  0  0  0  0  0  0  0
   12.0000   -5.1962    0.0000 C   0  0  0  0  0  0  0  0  0  0  0  0
   12.7500   -6.4952    0.0000 C   0  0  0  0  0  0  0  0  0  0  0  0
   12.0000   -7.7942    0.0000 C   0  0  0  0  0  0  0  0  0  0  0  0
   12.7500   -9.0933    0.0000 C   0  0  0  0  0  0  0  0  0  0  0  0
   14.2500   -9.0933    0.0000 C   0  0  0  0  0  0  0  0  0  0  0  0
   15.0000  -10.3923    0.0000 F   0  0  0  0  0  0  0  0  0  0  0  0
   15.0000   -7.7942    0.0000 C   0  0  0  0  0  0  0  0  0  0  0  0
   14.2500   -6.4952    0.0000 C   0  0  0  0  0  0  0  0  0  0  0  0
    9.7500   -3.8971    0.0000 N   0  0  0  0  0  0  0  0  0  0  0  0
    8.2500   -3.8971    0.0000 C   0  0  0  0  0  0  0  0  0  0  0  0
    7.5000   -5.1962    0.0000 O   0  0  0  0  0  0  0  0  0  0  0  0
    7.5000   -2.5981    0.0000 N   0  0  0  0  0  0  0  0  0  0  0  0
    6.0000   -2.5981    0.0000 C   0  0  0  0  0  0  0  0  0  0  0  0
    5.2500   -1.2990    0.0000 C   0  0  0  0  0  0  0  0  0  0  0  0
    3.7500   -1.2990    0.0000 C   0  0  0  0  0  0  0  0  0  0  0  0
    3.0000   -2.5981    0.0000 C   0  0  0  0  0  0  0  0  0  0  0  0
    1.5000   -2.5981    0.0000 O   0  0  0  0  0  0  0  0  0  0  0  0
    0.7500   -1.2990    0.0000 C   0  0  0  0  0  0  0  0  0  0  0  0
    1.5000    0.0000    0.0000 N   0  0  0  0  0  0  0  0  0  0  0  0
    0.7500    1.2990    0.0000 C   0  0  0  0  0  0  0  0  0  0  0  0
   -0.7500    1.2990    0.0000 N   0  0  0  0  0  0  0  0  0  0  0  0
   -1.5000    0.0000    0.0000 N   0  0  0  0  0  0  0  0  0  0  0  0
   -2.9672   -0.3119    0.0000 C   0  0  0  0  0  0  0  0  0  0  0  0
   -3.1240   -1.8037    0.0000 C   0  0  0  0  0  0  0  0  0  0  0  0
   -1.7537   -2.4138    0.0000 C   0  0  0  0  0  0  0  0  0  0  0  0
   -1.4418   -3.8810    0.0000 C   0  0  0  0  0  0  0  0  0  0  0  0
   -2.5565   -4.8847    0.0000 N   0  0  0  0  0  0  0  0  0  0  0  0
   -3.9831   -4.4211    0.0000 C   0  0  0  0  0  0  0  0  0  0  0  0
   -5.0978   -5.4248    0.0000 C   0  0  0  0  0  0  0  0  0  0  0  0
   -4.7860   -6.8921    0.0000 N   0  0  0  0  0  0  0  0  0  0  0  0
   -3.3594   -7.3556    0.0000 C   0  0  0  0  0  0  0  0  0  0  0  0
   -2.2447   -6.3519    0.0000 C   0  0  0  0  0  0  0  0  0  0  0  0
   -0.7500   -1.2990    0.0000 C   0  0  0  0  0  0  0  0  0  0  0  0
    3.7500   -3.8971    0.0000 C   0  0  0  0  0  0  0  0  0  0  0  0
    3.0000   -5.1962    0.0000 F   0  0  0  0  0  0  0  0  0  0  0  0
    5.2500   -3.8971    0.0000 C   0  0  0  0  0  0  0  0  0  0  0  0
  1  2  2  0
  2  3  1  0
  3  4  1  0
  4  5  2  0
  5  6  1  0
  6  7  2  0
  7  8  1  0
  7  9  1  0
  9 10  2  0
  2 11  1  0
 11 12  1  0
 12 13  2  0
 12 14  1  0
 14 15  1  0
 15 16  2  0
 16 17  1  0
 17 18  2  0
 18 19  1  0
 19 20  1  0
 20 21  2  0
 21 22  1  0
 22 23  2  0
 23 24  1  0
 24 25  1  0
 25 26  2  0
 26 27  1  0
 27 28  1  0
 28 29  1  0
 29 30  1  0
 30 31  1  0
 31 32  1  0
 32 33  1  0
 33 34  1  0
 27 35  2  0
 18 36  1  0
 36 37  1  0
 36 38  2  0
 10  4  1  0
 38 15  1  0
 35 20  1  0
 35 24  1  0
 34 29  1  0
M  END
>  <Compound_ID>  (283) 
CHEMBL252415

>  <Active>  (283) 
1.0

>  <Smiles>  (283) 
O=C(Cc1ccc(F)cc1)NC(=O)Nc1ccc(Oc2ncnn3ccc(CN4CCNCC4)c23)c(F)c1

>  <canonical_smi>  (283) 
O=C(Cc1ccc(F)cc1)NC(=O)Nc1ccc(Oc2ncnn3ccc(CN4CCNCC4)c23)c(F)c1

>  <Set>  (283) 
G2 active

>  <Set_type>  (283) 
Test

>  <MW>  (283) 
521.53

>  <HBD>  (283) 
3

>  <HBA>  (283) 
7

>  <NRB>  (283) 
7

>  <NR>  (283) 
5

>  <NAR>  (283) 
4

>  <PSA>  (283) 
112.89

>  <Standard Type>  (283) 
nan

>  <Standard Relation>  (283) 
nan

>  <Standard Units>  (283) 
nan

>  <Standard Value>  (283) 
nan

>  <Assay ChEMBL ID>  (283) 
nan

>  <Assay Description>  (283) 
nan

>  <BAO Label>  (283) 
nan

$$$$

     RDKit          2D

 34 37  0  0  0  0  0  0  0  0999 V2000
    3.0000   -5.1962    0.0000 C   0  0  0  0  0  0  0  0  0  0  0  0
    1.5000   -5.1962    0.0000 O   0  0  0  0  0  0  0  0  0  0  0  0
    0.7500   -3.8971    0.0000 C   0  0  0  0  0  0  0  0  0  0  0  0
    1.5000   -2.5981    0.0000 C   0  0  0  0  0  0  0  0  0  0  0  0
    0.7500   -1.2990    0.0000 C   0  0  0  0  0  0  0  0  0  0  0  0
    1.5000    0.0000    0.0000 N   0  0  0  0  0  0  0  0  0  0  0  0
    0.7500    1.2990    0.0000 C   0  0  0  0  0  0  0  0  0  0  0  0
   -0.7500    1.2990    0.0000 C   0  0  0  0  0  0  0  0  0  0  0  0
   -1.5000    0.0000    0.0000 C   0  0  0  0  0  0  0  0  0  0  0  0
   -3.0000    0.0000    0.0000 O   0  0  0  0  0  0  0  0  0  0  0  0
   -3.7500    1.2990    0.0000 C   0  0  0  0  0  0  0  0  0  0  0  0
   -3.0000    2.5981    0.0000 C   0  0  0  0  0  0  0  0  0  0  0  0
   -3.7500    3.8971    0.0000 C   0  0  0  0  0  0  0  0  0  0  0  0
   -5.2500    3.8971    0.0000 C   0  0  0  0  0  0  0  0  0  0  0  0
   -6.0000    5.1962    0.0000 N   0  0  0  0  0  0  0  0  0  0  0  0
   -5.2500    6.4952    0.0000 C   0  0  0  0  0  0  0  0  0  0  0  0
   -3.7500    6.4952    0.0000 O   0  0  0  0  0  0  0  0  0  0  0  0
   -6.0000    7.7942    0.0000 N   0  0  0  0  0  0  0  0  0  0  0  0
   -5.2500    9.0933    0.0000 C   0  0  0  0  0  0  0  0  0  0  0  0
   -3.7500    9.0933    0.0000 O   0  0  0  0  0  0  0  0  0  0  0  0
   -6.0000   10.3923    0.0000 C   0  0  0  0  0  0  0  0  0  0  0  0
   -5.2500   11.6913    0.0000 N   0  0  0  0  0  0  0  0  0  0  0  0
   -3.7500   11.6913    0.0000 C   0  0  0  0  0  0  0  0  0  0  0  0
   -3.0000   12.9904    0.0000 C   0  0  0  0  0  0  0  0  0  0  0  0
   -3.7500   14.2894    0.0000 C   0  0  0  0  0  0  0  0  0  0  0  0
   -5.2500   14.2894    0.0000 C   0  0  0  0  0  0  0  0  0  0  0  0
   -6.0000   12.9904    0.0000 C   0  0  0  0  0  0  0  0  0  0  0  0
   -6.0000    2.5981    0.0000 N   0  0  0  0  0  0  0  0  0  0  0  0
   -5.2500    1.2990    0.0000 C   0  0  0  0  0  0  0  0  0  0  0  0
   -0.7500   -1.2990    0.0000 C   0  0  0  0  0  0  0  0  0  0  0  0
   -1.5000   -2.5981    0.0000 C   0  0  0  0  0  0  0  0  0  0  0  0
   -0.7500   -3.8971    0.0000 C   0  0  0  0  0  0  0  0  0  0  0  0
   -1.5000   -5.1962    0.0000 O   0  0  0  0  0  0  0  0  0  0  0  0
   -3.0000   -5.1962    0.0000 C   0  0  0  0  0  0  0  0  0  0  0  0
  1  2  1  0
  2  3  1  0
  3  4  2  0
  4  5  1  0
  5  6  2  0
  6  7  1  0
  7  8  2  0
  8  9  1  0
  9 10  1  0
 10 11  1  0
 11 12  2  0
 12 13  1  0
 13 14  2  0
 14 15  1  0
 15 16  1  0
 16 17  2  0
 16 18  1  0
 18 19  1  0
 19 20  2  0
 19 21  1  0
 21 22  1  0
 22 23  1  0
 23 24  1  0
 24 25  1  0
 25 26  1  0
 26 27  1  0
 14 28  1  0
 28 29  2  0
  9 30  2  0
 30 31  1  0
 31 32  2  0
 32 33  1  0
 33 34  1  0
 32  3  1  0
 30  5  1  0
 29 11  1  0
 27 22  1  0
M  END
>  <Compound_ID>  (284) 
CHEMBL461120

>  <Active>  (284) 
1.0

>  <Smiles>  (284) 
COc1cc2nccc(Oc3ccc(NC(=O)NC(=O)CN4CCCCC4)nc3)c2cc1OC

>  <canonical_smi>  (284) 
COc1cc2nccc(Oc3ccc(NC(=O)NC(=O)CN4CCCCC4)nc3)c2cc1OC

>  <Set>  (284) 
G2 active

>  <Set_type>  (284) 
Test

>  <MW>  (284) 
465.51

>  <HBD>  (284) 
2

>  <HBA>  (284) 
8

>  <NRB>  (284) 
7

>  <NR>  (284) 
4

>  <NAR>  (284) 
3

>  <PSA>  (284) 
114.91

>  <Standard Type>  (284) 
nan

>  <Standard Relation>  (284) 
nan

>  <Standard Units>  (284) 
nan

>  <Standard Value>  (284) 
nan

>  <Assay ChEMBL ID>  (284) 
nan

>  <Assay Description>  (284) 
nan

>  <BAO Label>  (284) 
nan

$$$$

     RDKit          2D

 17 18  0  0  0  0  0  0  0  0999 V2000
    5.0260   -1.2990    0.0000 C   0  0  0  0  0  0  0  0  0  0  0  0
    3.5260   -1.2990    0.0000 C   0  0  0  0  0  0  0  0  0  0  0  0
    2.7760    0.0000    0.0000 C   0  0  0  0  0  0  0  0  0  0  0  0
    1.2760    0.0000    0.0000 C   0  0  0  0  0  0  0  0  0  0  0  0
    0.3943    1.2135    0.0000 N   0  0  0  0  0  0  0  0  0  0  0  0
   -1.0323    0.7500    0.0000 O   0  0  0  0  0  0  0  0  0  0  0  0
   -1.0323   -0.7500    0.0000 C   0  0  0  0  0  0  0  0  0  0  0  0
   -2.2458   -1.6317    0.0000 C   0  0  0  0  0  0  0  0  0  0  0  0
   -3.6161   -1.0216    0.0000 N   0  0  0  0  0  4  0  0  0  0  0  0
   -4.8297   -1.9033    0.0000 C   0  0  0  0  0  0  0  0  0  0  0  0
   -3.7729    0.4702    0.0000 C   0  0  0  0  0  0  0  0  0  0  0  0
   -5.1432    1.0803    0.0000 C   0  0  0  0  0  0  0  0  0  0  0  0
   -6.4423    0.3303    0.0000 C   0  0  0  0  0  0  0  0  0  0  0  0
   -7.5570    1.3340    0.0000 C   0  0  0  0  0  0  0  0  0  0  0  0
   -6.9469    2.7043    0.0000 C   0  0  0  0  0  0  0  0  0  0  0  0
   -5.4551    2.5475    0.0000 C   0  0  0  0  0  0  0  0  0  0  0  0
    0.3943   -1.2135    0.0000 N   0  0  0  0  0  0  0  0  0  0  0  0
  1  2  1  0
  2  3  1  0
  3  4  1  0
  4  5  2  0
  5  6  1  0
  6  7  1  0
  7  8  1  0
  8  9  1  0
  9 10  1  0
  9 11  1  0
 11 12  1  0
 12 13  1  0
 13 14  1  0
 14 15  1  0
 15 16  1  0
  7 17  2  0
 17  4  1  0
 16 12  1  0
M  CHG  1   9   1
M  END
>  <Compound_ID>  (285) 
C64020494

>  <Active>  (285) 
0.0

>  <Smiles>  (285) 
CCCc1noc(C[NH+](C)CC2CCCC2)n1

>  <canonical_smi>  (285) 
CCCc1noc(C[NH+](C)CC2CCCC2)n1

>  <Set>  (285) 
G2 inactive

>  <Set_type>  (285) 
Test

>  <MW>  (285) 
238.35

>  <HBD>  (285) 
1

>  <HBA>  (285) 
3

>  <NRB>  (285) 
6

>  <NR>  (285) 
2

>  <NAR>  (285) 
1

>  <PSA>  (285) 
43.36

>  <Standard Type>  (285) 
nan

>  <Standard Relation>  (285) 
nan

>  <Standard Units>  (285) 
nan

>  <Standard Value>  (285) 
nan

>  <Assay ChEMBL ID>  (285) 
nan

>  <Assay Description>  (285) 
nan

>  <BAO Label>  (285) 
nan

$$$$

     RDKit          2D

 12 13  0  0  0  0  0  0  0  0999 V2000
    3.0000    0.0000    0.0000 C   0  0  0  0  0  0  0  0  0  0  0  0
    1.5000    0.0000    0.0000 N   0  0  0  0  0  4  0  0  0  0  0  0
    0.7500   -1.2990    0.0000 C   0  0  0  0  0  0  0  0  0  0  0  0
   -0.7500   -1.2990    0.0000 C   0  0  0  0  0  0  0  0  0  0  0  0
   -1.5000    0.0000    0.0000 C   0  0  0  0  0  0  0  0  0  0  0  0
   -3.0000    0.0000    0.0000 C   0  0  0  0  0  0  0  0  0  0  0  0
   -3.7500    1.2990    0.0000 C   0  0  0  0  0  0  0  0  0  0  0  0
   -5.2500    1.2990    0.0000 Br  0  0  0  0  0  0  0  0  0  0  0  0
   -3.0000    2.5981    0.0000 C   0  0  0  0  0  0  0  0  0  0  0  0
   -1.5000    2.5981    0.0000 C   0  0  0  0  0  0  0  0  0  0  0  0
   -0.7500    1.2990    0.0000 C   0  0  0  0  0  0  0  0  0  0  0  0
    0.7500    1.2990    0.0000 C   0  0  0  0  0  0  0  0  0  0  0  0
  1  2  1  0
  2  3  1  0
  3  4  1  0
  5  4  1  1
  5  6  1  0
  6  7  1  0
  7  8  1  1
  7  9  1  0
  9 10  1  0
 11 10  1  6
 11 12  1  0
 12  2  1  0
 11  5  1  0
M  CHG  1   2   1
M  END
>  <Compound_ID>  (286) 
C04277034

>  <Active>  (286) 
0.0

>  <Smiles>  (286) 
C[NH+]1CC[C@H]2C[C@@H](Br)CC[C@@H]2C1

>  <canonical_smi>  (286) 
C[NH+]1CC[C@H]2C[C@@H](Br)CC[C@@H]2C1

>  <Set>  (286) 
G2 inactive

>  <Set_type>  (286) 
Test

>  <MW>  (286) 
233.17

>  <HBD>  (286) 
1

>  <HBA>  (286) 
0

>  <NRB>  (286) 
0

>  <NR>  (286) 
2

>  <NAR>  (286) 
0

>  <PSA>  (286) 
4.44

>  <Standard Type>  (286) 
nan

>  <Standard Relation>  (286) 
nan

>  <Standard Units>  (286) 
nan

>  <Standard Value>  (286) 
nan

>  <Assay ChEMBL ID>  (286) 
nan

>  <Assay Description>  (286) 
nan

>  <BAO Label>  (286) 
nan

$$$$

     RDKit          2D

 14 15  0  0  0  0  0  0  0  0999 V2000
    1.8478   -6.4639    0.0000 C   0  0  0  0  0  0  0  0  0  0  0  0
    2.0046   -4.9721    0.0000 C   0  0  0  0  0  0  0  0  0  0  0  0
    3.3037   -4.2221    0.0000 C   0  0  0  0  0  0  0  0  0  0  0  0
    2.9918   -2.7549    0.0000 C   0  0  0  0  0  0  0  0  0  0  0  0
    1.5000   -2.5981    0.0000 N   0  0  0  0  0  4  0  0  0  0  0  0
    0.7500   -1.2990    0.0000 C   0  0  0  0  0  0  0  0  0  0  0  0
    1.5000    0.0000    0.0000 C   0  0  0  0  0  0  0  0  0  0  0  0
    0.7500    1.2990    0.0000 C   0  0  0  0  0  0  0  0  0  0  0  0
   -0.7500    1.2990    0.0000 C   0  0  0  0  0  0  0  0  0  0  0  0
   -1.5000    0.0000    0.0000 C   0  0  0  0  0  0  0  0  0  0  0  0
   -0.7500   -1.2990    0.0000 C   0  0  0  0  0  0  0  0  0  0  0  0
   -1.5000   -2.5981    0.0000 C   0  0  0  0  0  0  0  0  0  0  0  0
   -2.2500   -3.8971    0.0000 N   0  0  0  0  0  0  0  0  0  0  0  0
    0.8899   -3.9684    0.0000 C   0  0  0  0  0  0  0  0  0  0  0  0
  2  1  1  6
  2  3  1  0
  3  4  1  0
  4  5  1  0
  6  5  1  1
  6  7  1  0
  7  8  1  0
  8  9  1  0
  9 10  1  0
 10 11  1  0
 11 12  1  1
 12 13  3  0
  5 14  1  0
 14  2  1  0
 11  6  1  0
M  CHG  1   5   1
M  END
>  <Compound_ID>  (287) 
C40718223

>  <Active>  (287) 
0.0

>  <Smiles>  (287) 
C[C@H]1CC[NH+]([C@@H]2CCCC[C@@H]2C#N)C1

>  <canonical_smi>  (287) 
C[C@H]1CC[NH+]([C@@H]2CCCC[C@@H]2C#N)C1

>  <Set>  (287) 
G2 inactive

>  <Set_type>  (287) 
Test

>  <MW>  (287) 
193.31

>  <HBD>  (287) 
1

>  <HBA>  (287) 
1

>  <NRB>  (287) 
1

>  <NR>  (287) 
2

>  <NAR>  (287) 
0

>  <PSA>  (287) 
28.23

>  <Standard Type>  (287) 
nan

>  <Standard Relation>  (287) 
nan

>  <Standard Units>  (287) 
nan

>  <Standard Value>  (287) 
nan

>  <Assay ChEMBL ID>  (287) 
nan

>  <Assay Description>  (287) 
nan

>  <BAO Label>  (287) 
nan

$$$$

     RDKit          2D

 31 34  0  0  0  0  0  0  0  0999 V2000
    9.7500   -9.0933    0.0000 C   0  0  0  0  0  0  0  0  0  0  0  0
    8.2500   -9.0933    0.0000 C   0  0  0  0  0  0  0  0  0  0  0  0
    7.5000   -7.7942    0.0000 O   0  0  0  0  0  0  0  0  0  0  0  0
    6.0000   -7.7942    0.0000 C   0  0  0  0  0  0  0  0  0  0  0  0
    5.2500   -9.0933    0.0000 O   0  0  0  0  0  0  0  0  0  0  0  0
    5.2500   -6.4952    0.0000 C   0  0  0  0  0  0  0  0  0  0  0  0
    3.7500   -6.4952    0.0000 C   0  0  0  0  0  0  0  0  0  0  0  0
    3.0000   -5.1962    0.0000 C   0  0  0  0  0  0  0  0  0  0  0  0
    1.5000   -5.1962    0.0000 C   0  0  0  0  0  0  0  0  0  0  0  0
    0.7500   -6.4952    0.0000 C   0  0  0  0  0  0  0  0  0  0  0  0
    0.7500   -3.8971    0.0000 C   0  0  0  0  0  0  0  0  0  0  0  0
   -0.7500   -3.8971    0.0000 C   0  0  0  0  0  0  0  0  0  0  0  0
   -1.5000   -2.5981    0.0000 C   0  0  0  0  0  0  0  0  0  0  0  0
   -0.7500   -1.2990    0.0000 C   0  0  0  0  0  0  0  0  0  0  0  0
    0.7500   -1.2990    0.0000 C   0  0  0  0  0  0  0  0  0  0  0  0
    1.5000   -2.5981    0.0000 C   0  0  0  0  0  0  0  0  0  0  0  0
    3.0000   -2.5981    0.0000 O   0  0  0  0  0  0  0  0  0  0  0  0
    3.7500   -3.8971    0.0000 C   0  0  0  0  0  0  0  0  0  0  0  0
    5.2500   -3.8971    0.0000 O   0  0  0  0  0  0  0  0  0  0  0  0
    1.5000    0.0000    0.0000 C   0  0  0  0  0  0  0  0  0  0  0  0
    0.7500    1.2990    0.0000 N   0  0  0  0  0  4  0  0  0  0  0  0
    1.5000    2.5981    0.0000 C   0  0  0  0  0  0  0  0  0  0  0  0
    2.7135    1.7164    0.0000 C   0  0  0  0  0  0  0  0  0  0  0  0
    2.5037    3.7128    0.0000 C   0  0  0  0  0  0  0  0  0  0  0  0
    1.7537    5.0118    0.0000 C   0  0  0  0  0  0  0  0  0  0  0  0
    0.2865    4.7000    0.0000 S   0  0  0  0  0  0  0  0  0  0  0  0
    0.1297    6.1917    0.0000 O   0  0  0  0  0  0  0  0  0  0  0  0
   -1.2135    4.7000    0.0000 O   0  0  0  0  0  0  0  0  0  0  0  0
    0.1297    3.2082    0.0000 C   0  0  0  0  0  0  0  0  0  0  0  0
   -0.7500    1.2990    0.0000 C   0  0  0  0  0  0  0  0  0  0  0  0
   -1.5000    0.0000    0.0000 O   0  0  0  0  0  0  0  0  0  0  0  0
  1  2  1  0
  2  3  1  0
  3  4  1  0
  4  5  2  0
  4  6  1  0
  6  7  1  0
  7  8  1  0
  8  9  2  0
  9 10  1  0
  9 11  1  0
 11 12  2  0
 12 13  1  0
 13 14  2  0
 14 15  1  0
 15 16  2  0
 16 17  1  0
 17 18  1  0
 18 19  2  0
 15 20  1  0
 20 21  1  0
 21 22  1  0
 22 23  1  1
 22 24  1  0
 24 25  1  0
 25 26  1  0
 26 27  2  0
 26 28  2  0
 26 29  1  0
 21 30  1  0
 30 31  1  0
 18  8  1  0
 29 22  1  0
 16 11  1  0
 31 14  1  0
M  CHG  1  21   1
M  END
>  <Compound_ID>  (288) 
C09306596

>  <Active>  (288) 
0.0

>  <Smiles>  (288) 
CCOC(=O)CCc1c(C)c2ccc3c(c2oc1=O)C[NH+]([C@@]1(C)CCS(=O)(=O)C1)CO3

>  <canonical_smi>  (288) 
CCOC(=O)CCc1c(C)c2ccc3c(c2oc1=O)C[NH+]([C@@]1(C)CCS(=O)(=O)C1)CO3

>  <Set>  (288) 
G2 inactive

>  <Set_type>  (288) 
Test

>  <MW>  (288) 
450.53

>  <HBD>  (288) 
1

>  <HBA>  (288) 
7

>  <NRB>  (288) 
5

>  <NR>  (288) 
4

>  <NAR>  (288) 
2

>  <PSA>  (288) 
104.32

>  <Standard Type>  (288) 
nan

>  <Standard Relation>  (288) 
nan

>  <Standard Units>  (288) 
nan

>  <Standard Value>  (288) 
nan

>  <Assay ChEMBL ID>  (288) 
nan

>  <Assay Description>  (288) 
nan

>  <BAO Label>  (288) 
nan

$$$$

     RDKit          2D

 26 29  0  0  0  0  0  0  0  0999 V2000
    4.4298   -7.1557    0.0000 N   0  0  0  0  0  0  0  0  0  0  0  0
    2.9625   -7.4676    0.0000 C   0  0  0  0  0  0  0  0  0  0  0  0
    1.8478   -6.4639    0.0000 C   0  0  0  0  0  0  0  0  0  0  0  0
    2.0046   -4.9721    0.0000 C   0  0  0  0  0  0  0  0  0  0  0  0
    0.8899   -3.9684    0.0000 N   0  0  0  0  0  0  0  0  0  0  0  0
    1.5000   -2.5981    0.0000 C   0  0  0  0  0  0  0  0  0  0  0  0
    0.7500   -1.2990    0.0000 C   0  0  0  0  0  0  0  0  0  0  0  0
    1.5000    0.0000    0.0000 C   0  0  0  0  0  0  0  0  0  0  0  0
    0.7500    1.2990    0.0000 C   0  0  0  0  0  0  0  0  0  0  0  0
   -0.7500    1.2990    0.0000 C   0  0  0  0  0  0  0  0  0  0  0  0
   -1.5000    0.0000    0.0000 C   0  0  0  0  0  0  0  0  0  0  0  0
   -0.7500   -1.2990    0.0000 C   0  0  0  0  0  0  0  0  0  0  0  0
   -1.5000   -2.5981    0.0000 F   0  0  0  0  0  0  0  0  0  0  0  0
    2.9918   -2.7549    0.0000 N   0  0  0  0  0  0  0  0  0  0  0  0
    3.3037   -4.2221    0.0000 O   0  0  0  0  0  0  0  0  0  0  0  0
    0.5488   -7.2139    0.0000 N   0  0  0  0  0  0  0  0  0  0  0  0
    0.8606   -8.6811    0.0000 N   0  0  0  0  0  0  0  0  0  0  0  0
    2.3524   -8.8379    0.0000 N   0  0  0  0  0  0  0  0  0  0  0  0
    3.1024  -10.1369    0.0000 C   0  0  0  0  0  0  0  0  0  0  0  0
    2.3524  -11.4360    0.0000 C   0  0  0  0  0  0  0  0  0  0  0  0
    3.1024  -12.7350    0.0000 C   0  0  0  0  0  0  0  0  0  0  0  0
    4.6024  -12.7350    0.0000 C   0  0  0  0  0  0  0  0  0  0  0  0
    5.3524  -14.0340    0.0000 Br  0  0  0  0  0  0  0  0  0  0  0  0
    5.3524  -11.4360    0.0000 C   0  0  0  0  0  0  0  0  0  0  0  0
    4.6024  -10.1369    0.0000 C   0  0  0  0  0  0  0  0  0  0  0  0
    5.3524   -8.8379    0.0000 F   0  0  0  0  0  0  0  0  0  0  0  0
  1  2  1  0
  2  3  2  0
  3  4  1  0
  4  5  2  0
  5  6  1  0
  6  7  1  0
  7  8  2  0
  8  9  1  0
  9 10  2  0
 10 11  1  0
 11 12  2  0
 12 13  1  0
  6 14  2  0
 14 15  1  0
  3 16  1  0
 16 17  2  0
 17 18  1  0
 18 19  1  0
 19 20  2  0
 20 21  1  0
 21 22  2  0
 22 23  1  0
 22 24  1  0
 24 25  2  0
 25 26  1  0
 18  2  1  0
 25 19  1  0
 15  4  1  0
 12  7  1  0
M  END
>  <Compound_ID>  (289) 
C09431251

>  <Active>  (289) 
0.0

>  <Smiles>  (289) 
Nc1c(-c2nc(-c3ccccc3F)no2)nnn1-c1ccc(Br)cc1F

>  <canonical_smi>  (289) 
Nc1c(-c2nc(-c3ccccc3F)no2)nnn1-c1ccc(Br)cc1F

>  <Set>  (289) 
G2 inactive

>  <Set_type>  (289) 
Test

>  <MW>  (289) 
419.19

>  <HBD>  (289) 
1

>  <HBA>  (289) 
6

>  <NRB>  (289) 
3

>  <NR>  (289) 
4

>  <NAR>  (289) 
4

>  <PSA>  (289) 
95.65

>  <Standard Type>  (289) 
nan

>  <Standard Relation>  (289) 
nan

>  <Standard Units>  (289) 
nan

>  <Standard Value>  (289) 
nan

>  <Assay ChEMBL ID>  (289) 
nan

>  <Assay Description>  (289) 
nan

>  <BAO Label>  (289) 
nan

$$$$

     RDKit          2D

 36 39  0  0  0  0  0  0  0  0999 V2000
   12.7500    1.2990    0.0000 C   0  0  0  0  0  0  0  0  0  0  0  0
   11.2500    1.2990    0.0000 C   0  0  0  0  0  0  0  0  0  0  0  0
   10.5000   -0.0000    0.0000 O   0  0  0  0  0  0  0  0  0  0  0  0
    9.0000   -0.0000    0.0000 C   0  0  0  0  0  0  0  0  0  0  0  0
    8.2500    1.2990    0.0000 O   0  0  0  0  0  0  0  0  0  0  0  0
    8.2500   -1.2990    0.0000 C   0  0  0  0  0  0  0  0  0  0  0  0
    9.0000   -2.5981    0.0000 C   0  0  0  0  0  0  0  0  0  0  0  0
    8.2500   -3.8971    0.0000 C   0  0  0  0  0  0  0  0  0  0  0  0
    6.7500   -3.8971    0.0000 C   0  0  0  0  0  0  0  0  0  0  0  0
    6.0000   -2.5981    0.0000 N   0  0  0  0  0  0  0  0  0  0  0  0
    4.5000   -2.5981    0.0000 C   0  0  0  0  0  0  0  0  0  0  0  0
    3.7500   -1.2990    0.0000 O   0  0  0  0  0  0  0  0  0  0  0  0
    3.7500   -3.8971    0.0000 C   0  0  0  0  0  0  0  0  0  0  0  0
    4.5000   -5.1962    0.0000 C   0  0  0  0  0  0  0  0  0  0  0  0
    3.7500   -6.4952    0.0000 C   0  0  0  0  0  0  0  0  0  0  0  0
    4.5000   -7.7942    0.0000 C   0  0  0  0  0  0  0  0  0  0  0  0
    3.7500   -9.0933    0.0000 C   0  0  0  0  0  0  0  0  0  0  0  0
    2.2500   -9.0933    0.0000 C   0  0  0  0  0  0  0  0  0  0  0  0
    1.5000   -7.7942    0.0000 C   0  0  0  0  0  0  0  0  0  0  0  0
    2.2500   -6.4952    0.0000 C   0  0  0  0  0  0  0  0  0  0  0  0
    2.2500   -3.8971    0.0000 N   0  0  0  0  0  0  0  0  0  0  0  0
    1.5000   -2.5981    0.0000 S   0  0  0  0  0  0  0  0  0  0  0  0
    0.2010   -3.3481    0.0000 O   0  0  0  0  0  0  0  0  0  0  0  0
    2.7990   -1.8481    0.0000 O   0  0  0  0  0  0  0  0  0  0  0  0
    0.7500   -1.2990    0.0000 C   0  0  0  0  0  0  0  0  0  0  0  0
    1.5000    0.0000    0.0000 C   0  0  0  0  0  0  0  0  0  0  0  0
    0.7500    1.2990    0.0000 C   0  0  0  0  0  0  0  0  0  0  0  0
   -0.7500    1.2990    0.0000 C   0  0  0  0  0  0  0  0  0  0  0  0
   -1.5000    0.0000    0.0000 C   0  0  0  0  0  0  0  0  0  0  0  0
   -0.7500   -1.2990    0.0000 C   0  0  0  0  0  0  0  0  0  0  0  0
   -3.0000    0.0000    0.0000 C   0  0  0  0  0  0  0  0  0  0  0  0
   -3.7500    1.2990    0.0000 C   0  0  0  0  0  0  0  0  0  0  0  0
   -3.0000    2.5981    0.0000 C   0  0  0  0  0  0  0  0  0  0  0  0
   -3.7500    3.8971    0.0000 O   0  0  0  0  0  0  0  0  0  0  0  0
   -1.5000    2.5981    0.0000 N   0  0  0  0  0  0  0  0  0  0  0  0
    6.7500   -1.2990    0.0000 C   0  0  0  0  0  0  0  0  0  0  0  0
  1  2  1  0
  2  3  1  0
  3  4  1  0
  4  5  2  0
  6  4  1  1
  6  7  1  0
  7  8  1  0
  8  9  1  0
  9 10  1  0
 10 11  1  0
 11 12  2  0
 11 13  1  0
 13 14  1  1
 14 15  1  0
 15 16  2  0
 16 17  1  0
 17 18  2  0
 18 19  1  0
 19 20  2  0
 13 21  1  0
 21 22  1  0
 22 23  2  0
 22 24  2  0
 22 25  1  0
 25 26  2  0
 26 27  1  0
 27 28  2  0
 28 29  1  0
 29 30  2  0
 29 31  1  0
 31 32  1  0
 32 33  1  0
 33 34  2  0
 33 35  1  0
 10 36  1  0
 36  6  1  0
 20 15  1  0
 30 25  1  0
 35 28  1  0
M  END
>  <Compound_ID>  (290) 
C09611429

>  <Active>  (290) 
0.0

>  <Smiles>  (290) 
CCOC(=O)[C@H]1CCCN(C(=O)[C@@H](Cc2ccccc2)NS(=O)(=O)c2ccc3c(c2)CCC(=O)N3)C1

>  <canonical_smi>  (290) 
CCOC(=O)[C@H]1CCCN(C(=O)[C@@H](Cc2ccccc2)NS(=O)(=O)c2ccc3c(c2)CCC(=O)N3)C1

>  <Set>  (290) 
G2 inactive

>  <Set_type>  (290) 
Test

>  <MW>  (290) 
513.62

>  <HBD>  (290) 
2

>  <HBA>  (290) 
6

>  <NRB>  (290) 
8

>  <NR>  (290) 
4

>  <NAR>  (290) 
2

>  <PSA>  (290) 
121.88

>  <Standard Type>  (290) 
nan

>  <Standard Relation>  (290) 
nan

>  <Standard Units>  (290) 
nan

>  <Standard Value>  (290) 
nan

>  <Assay ChEMBL ID>  (290) 
nan

>  <Assay Description>  (290) 
nan

>  <BAO Label>  (290) 
nan

$$$$

     RDKit          2D

 32 36  0  0  0  0  0  0  0  0999 V2000
   11.2133   -5.8624    0.0000 C   0  0  0  0  0  0  0  0  0  0  0  0
   10.3316   -4.6489    0.0000 N   0  0  0  0  0  0  0  0  0  0  0  0
    8.8399   -4.8057    0.0000 C   0  0  0  0  0  0  0  0  0  0  0  0
    8.2298   -6.1760    0.0000 O   0  0  0  0  0  0  0  0  0  0  0  0
    7.9582   -3.5922    0.0000 C   0  0  0  0  0  0  0  0  0  0  0  0
    8.5683   -2.2219    0.0000 C   0  0  0  0  0  0  0  0  0  0  0  0
    7.4536   -1.2182    0.0000 N   0  0  0  0  0  0  0  0  0  0  0  0
    6.1545   -1.9682    0.0000 C   0  0  0  0  0  0  0  0  0  0  0  0
    4.7842   -1.3581    0.0000 Cl  0  0  0  0  0  0  0  0  0  0  0  0
    6.4664   -3.4354    0.0000 N   0  0  0  0  0  0  0  0  0  0  0  0
    5.4627   -4.5501    0.0000 C   0  0  0  0  0  0  0  0  0  0  0  0
    3.9955   -4.2382    0.0000 C   0  0  0  0  0  0  0  0  0  0  0  0
    3.5320   -2.8116    0.0000 O   0  0  0  0  0  0  0  0  0  0  0  0
    2.9918   -5.3529    0.0000 N   0  0  0  0  0  0  0  0  0  0  0  0
    3.3037   -6.8202    0.0000 C   0  0  0  0  0  0  0  0  0  0  0  0
    2.0046   -7.5702    0.0000 C   0  0  0  0  0  0  0  0  0  0  0  0
    0.8899   -6.5665    0.0000 C   0  0  0  0  0  0  0  0  0  0  0  0
    1.5000   -5.1962    0.0000 C   0  0  0  0  0  0  0  0  0  0  0  0
    0.7500   -3.8971    0.0000 C   0  0  0  0  0  0  0  0  0  0  0  0
   -0.7500   -3.8971    0.0000 C   0  0  0  0  0  0  0  0  0  0  0  0
   -1.5000   -2.5981    0.0000 C   0  0  0  0  0  0  0  0  0  0  0  0
   -0.7500   -1.2990    0.0000 C   0  0  0  0  0  0  0  0  0  0  0  0
    0.7500   -1.2990    0.0000 C   0  0  0  0  0  0  0  0  0  0  0  0
    1.5000   -2.5981    0.0000 C   0  0  0  0  0  0  0  0  0  0  0  0
    1.5000    0.0000    0.0000 O   0  0  0  0  0  0  0  0  0  0  0  0
    0.7500    1.2990    0.0000 C   0  0  0  0  0  0  0  0  0  0  0  0
   -0.7500    1.2990    0.0000 C   0  0  0  0  0  0  0  0  0  0  0  0
   -1.5000    0.0000    0.0000 O   0  0  0  0  0  0  0  0  0  0  0  0
   10.0601   -2.0651    0.0000 N   0  0  0  0  0  0  0  0  0  0  0  0
   10.6702   -0.6947    0.0000 C   0  0  0  0  0  0  0  0  0  0  0  0
   10.9417   -3.2786    0.0000 C   0  0  0  0  0  0  0  0  0  0  0  0
   12.4335   -3.1218    0.0000 O   0  0  0  0  0  0  0  0  0  0  0  0
  1  2  1  0
  2  3  1  0
  3  4  2  0
  3  5  1  0
  5  6  2  0
  6  7  1  0
  7  8  2  0
  8  9  1  0
  8 10  1  0
 10 11  1  0
 11 12  1  0
 12 13  2  0
 12 14  1  0
 14 15  1  0
 15 16  1  0
 16 17  1  0
 17 18  1  0
 18 19  1  1
 19 20  2  0
 20 21  1  0
 21 22  2  0
 22 23  1  0
 23 24  2  0
 23 25  1  0
 25 26  1  0
 26 27  1  0
 27 28  1  0
  6 29  1  0
 29 30  1  0
 29 31  1  0
 31 32  2  0
 31  2  1  0
 10  5  1  0
 18 14  1  0
 24 19  1  0
 28 22  1  0
M  END
>  <Compound_ID>  (291) 
C25111348

>  <Active>  (291) 
0.0

>  <Smiles>  (291) 
Cn1c(=O)c2c(nc(Cl)n2CC(=O)N2CCC[C@H]2c2ccc3c(c2)OCCO3)n(C)c1=O

>  <canonical_smi>  (291) 
Cn1c(=O)c2c(nc(Cl)n2CC(=O)N2CCC[C@H]2c2ccc3c(c2)OCCO3)n(C)c1=O

>  <Set>  (291) 
G2 inactive

>  <Set_type>  (291) 
Test

>  <MW>  (291) 
459.89

>  <HBD>  (291) 
0

>  <HBA>  (291) 
6

>  <NRB>  (291) 
3

>  <NR>  (291) 
5

>  <NAR>  (291) 
3

>  <PSA>  (291) 
100.59

>  <Standard Type>  (291) 
nan

>  <Standard Relation>  (291) 
nan

>  <Standard Units>  (291) 
nan

>  <Standard Value>  (291) 
nan

>  <Assay ChEMBL ID>  (291) 
nan

>  <Assay Description>  (291) 
nan

>  <BAO Label>  (291) 
nan

$$$$

     RDKit          2D

 24 27  0  0  0  0  0  0  0  0999 V2000
    3.5260   -1.2990    0.0000 C   0  0  0  0  0  0  0  0  0  0  0  0
    2.7760    0.0000    0.0000 C   0  0  0  0  0  0  0  0  0  0  0  0
    1.2760    0.0000    0.0000 C   0  0  0  0  0  0  0  0  0  0  0  0
    0.3943    1.2135    0.0000 C   0  0  0  0  0  0  0  0  0  0  0  0
    0.7062    2.6807    0.0000 C   0  0  0  0  0  0  0  0  0  0  0  0
    2.1328    3.1443    0.0000 C   0  0  0  0  0  0  0  0  0  0  0  0
    3.2475    2.1406    0.0000 C   0  0  0  0  0  0  0  0  0  0  0  0
    4.6741    2.6041    0.0000 C   0  0  0  0  0  0  0  0  0  0  0  0
    4.9859    4.0713    0.0000 C   0  0  0  0  0  0  0  0  0  0  0  0
    3.8712    5.0750    0.0000 C   0  0  0  0  0  0  0  0  0  0  0  0
    2.4446    4.6115    0.0000 C   0  0  0  0  0  0  0  0  0  0  0  0
    1.3299    5.6152    0.0000 Cl  0  0  0  0  0  0  0  0  0  0  0  0
    6.4777    4.2281    0.0000 O   0  0  0  0  0  0  0  0  0  0  0  0
    7.0878    2.8578    0.0000 C   0  0  0  0  0  0  0  0  0  0  0  0
    5.9731    1.8541    0.0000 O   0  0  0  0  0  0  0  0  0  0  0  0
   -0.4086    3.6844    0.0000 C   0  0  0  0  0  0  0  0  0  0  0  0
   -0.0967    5.1517    0.0000 C   0  0  0  0  0  0  0  0  0  0  0  0
    0.2152    6.6189    0.0000 N   0  0  0  0  0  0  0  0  0  0  0  0
   -1.8351    3.2209    0.0000 C   0  0  0  0  0  0  0  0  0  0  0  0
   -2.9499    4.2246    0.0000 N   0  0  0  0  0  0  0  0  0  0  0  0
   -2.1470    1.7537    0.0000 O   0  0  0  0  0  0  0  0  0  0  0  0
   -1.0323    0.7500    0.0000 C   0  0  0  0  0  0  0  0  0  0  0  0
   -1.0323   -0.7500    0.0000 N   0  0  0  0  0  0  0  0  0  0  0  0
    0.3943   -1.2135    0.0000 N   0  0  0  0  0  0  0  0  0  0  0  0
  1  2  1  0
  2  3  1  0
  3  4  2  0
  4  5  1  0
  5  6  1  1
  6  7  2  0
  7  8  1  0
  8  9  2  0
  9 10  1  0
 10 11  2  0
 11 12  1  0
  9 13  1  0
 13 14  1  0
 14 15  1  0
  5 16  1  0
 16 17  1  0
 17 18  3  0
 16 19  2  0
 19 20  1  0
 19 21  1  0
 22 21  1  6
 22 23  1  0
 23 24  2  0
 24  3  1  0
 22  4  1  0
 11  6  1  0
 15  8  1  0
M  END
>  <Compound_ID>  (292) 
C39325819

>  <Active>  (292) 
0.0

>  <Smiles>  (292) 
CCC1=C2[C@H](c3cc4c(cc3Cl)OCO4)C(C#N)=C(N)O[C@H]2N=N1

>  <canonical_smi>  (292) 
CCC1=C2[C@H](c3cc4c(cc3Cl)OCO4)C(C#N)=C(N)O[C@H]2N=N1

>  <Set>  (292) 
G2 inactive

>  <Set_type>  (292) 
Test

>  <MW>  (292) 
344.76

>  <HBD>  (292) 
1

>  <HBA>  (292) 
5

>  <NRB>  (292) 
2

>  <NR>  (292) 
4

>  <NAR>  (292) 
1

>  <PSA>  (292) 
102.22

>  <Standard Type>  (292) 
nan

>  <Standard Relation>  (292) 
nan

>  <Standard Units>  (292) 
nan

>  <Standard Value>  (292) 
nan

>  <Assay ChEMBL ID>  (292) 
nan

>  <Assay Description>  (292) 
nan

>  <BAO Label>  (292) 
nan

$$$$

     RDKit          2D

 22 24  0  0  0  0  0  0  0  0999 V2000
    2.7760    0.0000    0.0000 C   0  0  0  0  0  0  0  0  0  0  0  0
    1.2760    0.0000    0.0000 C   0  0  0  0  0  0  0  0  0  0  0  0
    0.3943    1.2135    0.0000 C   0  0  0  0  0  0  0  0  0  0  0  0
   -1.0323    0.7500    0.0000 C   0  0  0  0  0  0  0  0  0  0  0  0
   -1.0323   -0.7500    0.0000 N   0  0  0  0  0  0  0  0  0  0  0  0
    0.3943   -1.2135    0.0000 N   0  0  0  0  0  0  0  0  0  0  0  0
   -2.2841    1.5763    0.0000 N   0  0  0  0  0  0  0  0  0  0  0  0
   -2.4186    3.0703    0.0000 C   0  0  0  0  0  0  0  0  0  0  0  0
   -3.8230    3.5974    0.0000 O   0  0  0  0  0  0  0  0  0  0  0  0
   -1.3344    4.1069    0.0000 C   0  0  0  0  0  0  0  0  0  0  0  0
    0.1520    3.9056    0.0000 S   0  0  0  0  0  0  0  0  0  0  0  0
    0.9214    2.6179    0.0000 C   0  0  0  0  0  0  0  0  0  0  0  0
    2.4153    2.7523    0.0000 C   0  0  0  0  0  0  0  0  0  0  0  0
    3.2787    1.5258    0.0000 C   0  0  0  0  0  0  0  0  0  0  0  0
    4.7727    1.6602    0.0000 C   0  0  0  0  0  0  0  0  0  0  0  0
    5.4032    3.0213    0.0000 C   0  0  0  0  0  0  0  0  0  0  0  0
    6.8972    3.1557    0.0000 O   0  0  0  0  0  0  0  0  0  0  0  0
    7.7606    1.9291    0.0000 C   0  0  0  0  0  0  0  0  0  0  0  0
    9.2546    2.0636    0.0000 C   0  0  0  0  0  0  0  0  0  0  0  0
    7.1301    0.5681    0.0000 C   0  0  0  0  0  0  0  0  0  0  0  0
    4.5398    4.2478    0.0000 C   0  0  0  0  0  0  0  0  0  0  0  0
    3.0459    4.1134    0.0000 C   0  0  0  0  0  0  0  0  0  0  0  0
  1  2  1  0
  2  3  2  0
  3  4  1  0
  4  5  1  6
  5  6  2  0
  4  7  1  0
  7  8  2  0
  8  9  1  0
  8 10  1  0
 10 11  1  0
 11 12  1  0
 12 13  1  6
 13 14  2  0
 14 15  1  0
 15 16  2  0
 16 17  1  0
 17 18  1  0
 18 19  1  0
 18 20  1  0
 16 21  1  0
 21 22  2  0
  6  2  1  0
 22 13  1  0
 12  3  1  0
M  END
>  <Compound_ID>  (293) 
C63526138

>  <Active>  (293) 
0.0

>  <Smiles>  (293) 
CC1=C2[C@H](N=N1)N=C(O)CS[C@@H]2c1ccc(OC(C)C)cc1

>  <canonical_smi>  (293) 
CC1=C2[C@H](N=N1)N=C(O)CS[C@@H]2c1ccc(OC(C)C)cc1

>  <Set>  (293) 
G2 inactive

>  <Set_type>  (293) 
Test

>  <MW>  (293) 
317.41

>  <HBD>  (293) 
1

>  <HBA>  (293) 
3

>  <NRB>  (293) 
3

>  <NR>  (293) 
3

>  <NAR>  (293) 
1

>  <PSA>  (293) 
66.54

>  <Standard Type>  (293) 
nan

>  <Standard Relation>  (293) 
nan

>  <Standard Units>  (293) 
nan

>  <Standard Value>  (293) 
nan

>  <Assay ChEMBL ID>  (293) 
nan

>  <Assay Description>  (293) 
nan

>  <BAO Label>  (293) 
nan

$$$$

     RDKit          2D

 23 26  0  0  0  0  0  0  0  0999 V2000
   -7.6323   -0.4683    0.0000 C   0  0  0  0  0  0  0  0  0  0  0  0
   -6.4188   -1.3499    0.0000 C   0  0  0  0  0  0  0  0  0  0  0  0
   -5.2053   -2.2316    0.0000 C   0  0  0  0  0  0  0  0  0  0  0  0
   -7.3005   -2.5635    0.0000 C   0  0  0  0  0  0  0  0  0  0  0  0
   -5.5371   -0.1364    0.0000 C   0  0  0  0  0  0  0  0  0  0  0  0
   -4.0371   -0.1364    0.0000 C   0  0  0  0  0  0  0  0  0  0  0  0
   -3.5736    1.2902    0.0000 C   0  0  0  0  0  0  0  0  0  0  0  0
   -2.1470    1.7537    0.0000 C   0  0  0  0  0  0  0  0  0  0  0  0
   -1.8351    3.2209    0.0000 C   0  0  0  0  0  0  0  0  0  0  0  0
   -0.4086    3.6844    0.0000 C   0  0  0  0  0  0  0  0  0  0  0  0
   -0.0967    5.1517    0.0000 O   0  0  0  0  0  0  0  0  0  0  0  0
    0.7062    2.6807    0.0000 N   0  0  0  0  0  0  0  0  0  0  0  0
    0.3943    1.2135    0.0000 C   0  0  0  0  0  0  0  0  0  0  0  0
    1.2760    0.0000    0.0000 N   0  0  0  0  0  0  0  0  0  0  0  0
    0.3943   -1.2135    0.0000 N   0  0  0  0  0  0  0  0  0  0  0  0
   -1.0323   -0.7500    0.0000 C   0  0  0  0  0  0  0  0  0  0  0  0
   -2.2458   -1.6317    0.0000 C   0  0  0  0  0  0  0  0  0  0  0  0
   -3.7273   -1.3970    0.0000 C   0  0  0  0  0  0  0  0  0  0  0  0
   -3.9620   -2.8786    0.0000 C   0  0  0  0  0  0  0  0  0  0  0  0
   -2.4805   -3.1132    0.0000 C   0  0  0  0  0  0  0  0  0  0  0  0
   -1.0323    0.7500    0.0000 C   0  0  0  0  0  0  0  0  0  0  0  0
   -4.7871    2.1718    0.0000 N   0  0  0  0  0  0  0  0  0  0  0  0
   -6.0006    1.2902    0.0000 N   0  0  0  0  0  0  0  0  0  0  0  0
  1  2  1  0
  2  3  1  0
  2  4  1  0
  2  5  1  0
  5  6  2  0
  7  6  1  1
  7  8  1  0
  8  9  1  1
  9 10  1  0
 10 11  2  0
 10 12  1  0
 12 13  1  0
 13 14  2  0
 14 15  1  0
 15 16  2  0
 16 17  1  0
 17 18  1  0
 18 19  1  0
 19 20  1  0
 21 16  1  1
  7 22  1  0
 22 23  2  0
 23  5  1  0
 21  8  1  0
 21 13  1  0
 20 17  1  0
M  END
>  <Compound_ID>  (294) 
C65461942

>  <Active>  (294) 
0.0

>  <Smiles>  (294) 
CC(C)(C)C1=C[C@H]([C@H]2CC(=O)NC3=NN=C(C4CCC4)[C@H]32)N=N1

>  <canonical_smi>  (294) 
CC(C)(C)C1=C[C@H]([C@H]2CC(=O)NC3=NN=C(C4CCC4)[C@H]32)N=N1

>  <Set>  (294) 
G2 inactive

>  <Set_type>  (294) 
Test

>  <MW>  (294) 
313.41

>  <HBD>  (294) 
1

>  <HBA>  (294) 
1

>  <NRB>  (294) 
2

>  <NR>  (294) 
4

>  <NAR>  (294) 
0

>  <PSA>  (294) 
78.54

>  <Standard Type>  (294) 
nan

>  <Standard Relation>  (294) 
nan

>  <Standard Units>  (294) 
nan

>  <Standard Value>  (294) 
nan

>  <Assay ChEMBL ID>  (294) 
nan

>  <Assay Description>  (294) 
nan

>  <BAO Label>  (294) 
nan

$$$$

     RDKit          2D

 38 42  0  0  0  0  0  0  0  0999 V2000
   -0.6044   -4.0991    0.0000 C   0  0  0  0  0  0  0  0  0  0  0  0
    0.8899   -3.9684    0.0000 C   0  0  0  0  0  0  0  0  0  0  0  0
    1.5000   -2.5981    0.0000 N   0  0  0  0  0  0  0  0  0  0  0  0
    2.9918   -2.7549    0.0000 N   0  0  0  0  0  0  0  0  0  0  0  0
    3.9955   -1.6402    0.0000 C   0  0  0  0  0  0  0  0  0  0  0  0
    3.5320   -0.2136    0.0000 C   0  0  0  0  0  0  0  0  0  0  0  0
    4.5356    0.9012    0.0000 C   0  0  0  0  0  0  0  0  0  0  0  0
    6.0029    0.5893    0.0000 C   0  0  0  0  0  0  0  0  0  0  0  0
    7.0066    1.7040    0.0000 C   0  0  0  0  0  0  0  0  0  0  0  0
    6.4664   -0.8373    0.0000 C   0  0  0  0  0  0  0  0  0  0  0  0
    7.9336   -1.1492    0.0000 C   0  0  0  0  0  0  0  0  0  0  0  0
    5.4627   -1.9520    0.0000 C   0  0  0  0  0  0  0  0  0  0  0  0
    3.3037   -4.2221    0.0000 C   0  0  0  0  0  0  0  0  0  0  0  0
    4.6740   -4.8322    0.0000 O   0  0  0  0  0  0  0  0  0  0  0  0
    2.0046   -4.9721    0.0000 C   0  0  0  0  0  0  0  0  0  0  0  0
    1.8478   -6.4639    0.0000 C   0  0  0  0  0  0  0  0  0  0  0  0
    3.0613   -7.3456    0.0000 C   0  0  0  0  0  0  0  0  0  0  0  0
    4.4317   -6.7354    0.0000 C   0  0  0  0  0  0  0  0  0  0  0  0
    5.6452   -7.6171    0.0000 C   0  0  0  0  0  0  0  0  0  0  0  0
    5.4884   -9.1089    0.0000 C   0  0  0  0  0  0  0  0  0  0  0  0
    4.1181   -9.7190    0.0000 C   0  0  0  0  0  0  0  0  0  0  0  0
    2.9046   -8.8373    0.0000 C   0  0  0  0  0  0  0  0  0  0  0  0
    1.8631   -9.4631    0.0000 Cl  0  0  0  0  0  0  0  0  0  0  0  0
    0.4775   -7.0740    0.0000 C   0  0  0  0  0  0  0  0  0  0  0  0
   -0.8215   -6.3240    0.0000 C   0  0  0  0  0  0  0  0  0  0  0  0
   -1.1590   -4.8624    0.0000 C   0  0  0  0  0  0  0  0  0  0  0  0
   -1.9363   -7.3277    0.0000 N   0  0  0  0  0  0  0  0  0  0  0  0
   -1.3261   -8.6980    0.0000 N   0  0  0  0  0  0  0  0  0  0  0  0
   -2.0761   -9.9970    0.0000 C   0  0  0  0  0  0  0  0  0  0  0  0
   -1.3261  -11.2961    0.0000 C   0  0  0  0  0  0  0  0  0  0  0  0
   -2.0761  -12.5951    0.0000 C   0  0  0  0  0  0  0  0  0  0  0  0
   -3.5761  -12.5951    0.0000 C   0  0  0  0  0  0  0  0  0  0  0  0
   -4.3261  -13.8941    0.0000 C   0  0  0  0  0  0  0  0  0  0  0  0
   -4.3261  -11.2961    0.0000 C   0  0  0  0  0  0  0  0  0  0  0  0
   -5.8261  -11.2961    0.0000 C   0  0  0  0  0  0  0  0  0  0  0  0
   -3.5761   -9.9970    0.0000 C   0  0  0  0  0  0  0  0  0  0  0  0
    0.1656   -8.5412    0.0000 C   0  0  0  0  0  0  0  0  0  0  0  0
    0.8625   -9.5365    0.0000 O   0  0  0  0  0  0  0  0  0  0  0  0
  1  2  1  0
  2  3  2  0
  3  4  1  0
  4  5  1  0
  5  6  2  0
  6  7  1  0
  7  8  2  0
  8  9  1  0
  8 10  1  0
 10 11  1  0
 10 12  2  0
  4 13  1  0
 13 14  2  0
 15 13  1  6
 15 16  1  0
 16 17  1  1
 17 18  2  0
 18 19  1  0
 19 20  2  0
 20 21  1  0
 21 22  2  0
 22 23  1  0
 16 24  1  0
 24 25  2  0
 25 26  1  0
 25 27  1  0
 27 28  1  0
 28 29  1  0
 29 30  2  0
 30 31  1  0
 31 32  2  0
 32 33  1  0
 32 34  1  0
 34 35  1  0
 34 36  2  0
 28 37  1  0
 37 38  2  0
 15  2  1  0
 22 17  1  0
 37 24  1  0
 12  5  1  0
 36 29  1  0
M  END
>  <Compound_ID>  (295) 
C18206468

>  <Active>  (295) 
0.0

>  <Smiles>  (295) 
CC1=NN(c2ccc(C)c(C)c2)C(=O)[C@@H]1[C@@H](c1ccccc1Cl)c1c(C)[nH]n(-c2ccc(C)c(C)c2)c1=O

>  <canonical_smi>  (295) 
CC1=NN(c2ccc(C)c(C)c2)C(=O)[C@@H]1[C@@H](c1ccccc1Cl)c1c(C)[nH]n(-c2ccc(C)c(C)c2)c1=O

>  <Set>  (295) 
G2 inactive

>  <Set_type>  (295) 
Test

>  <MW>  (295) 
527.07

>  <HBD>  (295) 
1

>  <HBA>  (295) 
2

>  <NRB>  (295) 
5

>  <NR>  (295) 
5

>  <NAR>  (295) 
4

>  <PSA>  (295) 
70.46

>  <Standard Type>  (295) 
nan

>  <Standard Relation>  (295) 
nan

>  <Standard Units>  (295) 
nan

>  <Standard Value>  (295) 
nan

>  <Assay ChEMBL ID>  (295) 
nan

>  <Assay Description>  (295) 
nan

>  <BAO Label>  (295) 
nan

$$$$

     RDKit          2D

 37 43  0  0  0  0  0  0  0  0999 V2000
    2.8928   10.5601    0.0000 H   0  0  0  0  0  0  0  0  0  0  0  0
    3.8797    9.4305    0.0000 N   0  0  0  0  0  0  0  0  0  0  0  0
    3.3949    8.0110    0.0000 C   0  0  0  0  0  0  0  0  0  0  0  0
    1.9231    7.7212    0.0000 N   0  0  0  0  0  0  0  0  0  0  0  0
    1.4383    6.3017    0.0000 C   0  0  0  0  0  0  0  0  0  0  0  0
    0.0590    5.7121    0.0000 N   0  0  0  0  0  4  0  0  0  0  0  0
    0.1935    4.2182    0.0000 C   0  0  0  0  0  0  0  0  0  0  0  0
   -0.8268    3.1186    0.0000 C   0  0  0  0  0  0  0  0  0  0  0  0
   -0.3846    1.6852    0.0000 C   0  0  0  0  0  0  0  0  0  0  0  0
    1.0777    1.3515    0.0000 C   0  0  0  0  0  0  0  0  0  0  0  0
    2.0980    2.4510    0.0000 C   0  0  0  0  0  0  0  0  0  0  0  0
    1.6559    3.8844    0.0000 C   0  0  0  0  0  0  0  0  0  0  0  0
    2.4252    5.1721    0.0000 N   0  0  0  0  0  0  0  0  0  0  0  0
    3.8969    5.4619    0.0000 C   0  0  0  0  0  0  0  0  0  0  0  0
    4.8839    4.3323    0.0000 C   0  0  0  0  0  0  0  0  0  0  0  0
    4.5501    2.8699    0.0000 C   0  0  0  0  0  0  0  0  0  0  0  0
    5.8377    2.1006    0.0000 N   0  0  0  0  0  0  0  0  0  0  0  0
    5.9722    0.6066    0.0000 C   0  0  0  0  0  0  0  0  0  0  0  0
    7.3332   -0.0239    0.0000 C   0  0  0  0  0  0  0  0  0  0  0  0
    7.4677   -1.5179    0.0000 C   0  0  0  0  0  0  0  0  0  0  0  0
    6.2411   -2.3813    0.0000 C   0  0  0  0  0  0  0  0  0  0  0  0
    4.8801   -1.7507    0.0000 C   0  0  0  0  0  0  0  0  0  0  0  0
    4.7456   -0.2568    0.0000 C   0  0  0  0  0  0  0  0  0  0  0  0
    6.9674    3.0875    0.0000 N   0  0  0  0  0  0  0  0  0  0  0  0
    6.3778    4.4668    0.0000 C   0  0  0  0  0  0  0  0  0  0  0  0
    7.1472    5.7545    0.0000 C   0  0  0  0  0  0  0  0  0  0  0  0
    6.4167    7.0646    0.0000 C   0  0  0  0  0  0  0  0  0  0  0  0
    7.1860    8.3523    0.0000 C   0  0  0  0  0  0  0  0  0  0  0  0
    8.6859    8.3298    0.0000 N   0  0  0  0  0  0  0  0  0  0  0  0
    9.4163    7.0197    0.0000 C   0  0  0  0  0  0  0  0  0  0  0  0
    8.6470    5.7320    0.0000 C   0  0  0  0  0  0  0  0  0  0  0  0
    4.3818    6.8814    0.0000 N   0  0  0  0  0  0  0  0  0  0  0  0
    1.7286    0.0000    0.0000 O   0  0  0  0  0  0  0  0  0  0  0  0
    1.0777   -1.3515    0.0000 C   0  0  0  0  0  0  0  0  0  0  0  0
   -0.3846   -1.6852    0.0000 C   0  0  0  0  0  0  0  0  0  0  0  0
   -1.5574   -0.7500    0.0000 C   0  0  0  0  0  0  0  0  0  0  0  0
   -1.5574    0.7500    0.0000 O   0  0  0  0  0  0  0  0  0  0  0  0
  1  2  1  0
  2  3  2  0
  3  4  1  0
  4  5  1  0
  5  6  2  0
  6  7  1  0
  7  8  2  0
  8  9  1  0
  9 10  2  0
 10 11  1  0
 11 12  2  0
 12 13  1  0
 13 14  1  0
 14 15  1  1
 15 16  2  0
 16 17  1  0
 17 18  1  0
 18 19  2  0
 19 20  1  0
 20 21  2  0
 21 22  1  0
 22 23  2  0
 17 24  1  0
 24 25  2  0
 25 26  1  0
 26 27  2  0
 27 28  1  0
 28 29  2  0
 29 30  1  0
 30 31  2  0
 14 32  1  0
 10 33  1  0
 33 34  1  0
 34 35  1  0
 35 36  1  0
 36 37  1  0
 32  3  1  0
 13  5  1  0
 25 15  1  0
 31 26  1  0
 12  7  1  0
 23 18  1  0
 37  9  1  0
M  CHG  1   6   1
M  END
>  <Compound_ID>  (296) 
C19354093

>  <Active>  (296) 
0.0

>  <Smiles>  (296) 
[H]/N=C1\Nc2[nH+]c3cc4c(cc3n2[C@H](c2cn(-c3ccccc3)nc2-c2ccncc2)N1)OCCCO4

>  <canonical_smi>  (296) 
[H]/N=C1\Nc2[nH+]c3cc4c(cc3n2[C@H](c2cn(-c3ccccc3)nc2-c2ccncc2)N1)OCCCO4

>  <Set>  (296) 
G2 inactive

>  <Set_type>  (296) 
Test

>  <MW>  (296) 
479.52

>  <HBD>  (296) 
3

>  <HBA>  (296) 
6

>  <NRB>  (296) 
3

>  <NR>  (296) 
7

>  <NAR>  (296) 
5

>  <PSA>  (296) 
116.15

>  <Standard Type>  (296) 
nan

>  <Standard Relation>  (296) 
nan

>  <Standard Units>  (296) 
nan

>  <Standard Value>  (296) 
nan

>  <Assay ChEMBL ID>  (296) 
nan

>  <Assay Description>  (296) 
nan

>  <BAO Label>  (296) 
nan

$$$$

     RDKit          2D

 36 38  0  0  0  0  0  0  0  0999 V2000
   14.4110    3.9134    0.0000 C   0  0  0  0  0  0  0  0  0  0  0  0
   12.9844    4.3769    0.0000 C   0  0  0  0  0  0  0  0  0  0  0  0
   11.8697    3.3732    0.0000 C   0  0  0  0  0  0  0  0  0  0  0  0
   10.4431    3.8367    0.0000 C   0  0  0  0  0  0  0  0  0  0  0  0
    9.3284    2.8330    0.0000 C   0  0  0  0  0  0  0  0  0  0  0  0
    7.9018    3.2966    0.0000 C   0  0  0  0  0  0  0  0  0  0  0  0
    6.7871    2.2929    0.0000 C   0  0  0  0  0  0  0  0  0  0  0  0
    7.0990    0.8256    0.0000 C   0  0  0  0  0  0  0  0  0  0  0  0
    8.5256    0.3621    0.0000 O   0  0  0  0  0  0  0  0  0  0  0  0
    5.9843   -0.1781    0.0000 N   0  0  0  0  0  0  0  0  0  0  0  0
    6.2961   -1.6453    0.0000 C   0  0  0  0  0  0  0  0  0  0  0  0
    5.1814   -2.6490    0.0000 C   0  0  0  0  0  0  0  0  0  0  0  0
    5.4933   -4.1162    0.0000 O   0  0  0  0  0  0  0  0  0  0  0  0
    3.7548   -2.1855    0.0000 O   0  0  0  0  0  0  0  0  0  0  0  0
    2.6401   -3.1891    0.0000 C   0  0  0  0  0  0  0  0  0  0  0  0
    1.2135   -2.7256    0.0000 C   0  0  0  0  0  0  0  0  0  0  0  0
    0.7500   -1.2990    0.0000 C   0  0  0  0  0  0  0  0  0  0  0  0
    1.5000    0.0000    0.0000 C   0  0  0  0  0  0  0  0  0  0  0  0
    0.7500    1.2990    0.0000 C   0  0  0  0  0  0  0  0  0  0  0  0
   -0.7500    1.2990    0.0000 C   0  0  0  0  0  0  0  0  0  0  0  0
   -1.5000    2.5981    0.0000 Cl  0  0  0  0  0  0  0  0  0  0  0  0
   -1.5000    0.0000    0.0000 C   0  0  0  0  0  0  0  0  0  0  0  0
   -0.7500   -1.2990    0.0000 C   0  0  0  0  0  0  0  0  0  0  0  0
   -1.2135   -2.7256    0.0000 N   0  0  0  0  0  0  0  0  0  0  0  0
    0.0000   -3.6073    0.0000 C   0  0  0  0  0  0  0  0  0  0  0  0
    2.9520   -4.6564    0.0000 C   0  0  0  0  0  0  0  0  0  0  0  0
    4.3786   -5.1199    0.0000 N   0  0  0  0  0  0  0  0  0  0  0  0
    4.6904   -6.5871    0.0000 C   0  0  0  0  0  0  0  0  0  0  0  0
    6.1170   -7.0506    0.0000 O   0  0  0  0  0  0  0  0  0  0  0  0
    3.5757   -7.5908    0.0000 C   0  0  0  0  0  0  0  0  0  0  0  0
    2.1491   -7.1273    0.0000 N   0  0  0  0  0  0  0  0  0  0  0  0
    1.8373   -5.6601    0.0000 C   0  0  0  0  0  0  0  0  0  0  0  0
    0.4107   -5.1965    0.0000 O   0  0  0  0  0  0  0  0  0  0  0  0
    7.7227   -2.1088    0.0000 C   0  0  0  0  0  0  0  0  0  0  0  0
    8.8374   -1.1051    0.0000 C   0  0  0  0  0  0  0  0  0  0  0  0
    8.0346   -3.5760    0.0000 N   0  0  0  0  0  4  0  0  0  0  0  0
  1  2  1  0
  2  3  2  0
  3  4  1  0
  4  5  2  0
  5  6  1  0
  6  7  2  0
  7  8  1  0
  8  9  2  0
  8 10  1  0
 11 10  1  1
 11 12  1  0
 12 13  2  0
 12 14  1  0
 15 14  1  1
 15 16  1  0
 16 17  2  0
 17 18  1  0
 18 19  2  0
 19 20  1  0
 20 21  1  0
 20 22  2  0
 23 22  1  1
 23 24  1  0
 24 25  2  0
 15 26  1  0
 26 27  1  1
 27 28  1  0
 28 29  2  0
 28 30  1  0
 30 31  1  0
 31 32  1  0
 32 33  2  0
 11 34  1  0
 34 35  1  6
 34 36  1  0
 25 16  1  0
 32 26  1  0
 23 17  1  0
M  CHG  1  36   1
M  END
>  <Compound_ID>  (297) 
C39559756

>  <Active>  (297) 
0.0

>  <Smiles>  (297) 
C/C=C/C=C/C=C\C(=O)N[C@H](C(=O)O[C@H](C1=C2C=CC(Cl)=C[C@@H]2N=C1)[C@H]1NC(=O)CNC1=O)[C@H](C)[NH3+]

>  <canonical_smi>  (297) 
C/C=C/C=C/C=C\C(=O)N[C@H](C(=O)O[C@H](C1=C2C=CC(Cl)=C[C@@H]2N=C1)[C@H]1NC(=O)CNC1=O)[C@H](C)[NH3+]

>  <Set>  (297) 
G2 inactive

>  <Set_type>  (297) 
Test

>  <MW>  (297) 
514.99

>  <HBD>  (297) 
4

>  <HBA>  (297) 
5

>  <NRB>  (297) 
9

>  <NR>  (297) 
3

>  <NAR>  (297) 
0

>  <PSA>  (297) 
153.6

>  <Standard Type>  (297) 
nan

>  <Standard Relation>  (297) 
nan

>  <Standard Units>  (297) 
nan

>  <Standard Value>  (297) 
nan

>  <Assay ChEMBL ID>  (297) 
nan

>  <Assay Description>  (297) 
nan

>  <BAO Label>  (297) 
nan

$$$$

     RDKit          2D

 34 37  0  0  0  0  0  0  0  0999 V2000
    3.0000   -1.5000    0.0000 C   0  0  0  0  0  0  0  0  0  0  0  0
    3.0000    0.0000    0.0000 C   0  0  0  0  0  0  0  0  0  0  0  0
    3.0000    1.5000    0.0000 C   0  0  0  0  0  0  0  0  0  0  0  0
    4.5000    0.0000    0.0000 C   0  0  0  0  0  0  0  0  0  0  0  0
    1.5000    0.0000    0.0000 C   0  0  0  0  0  0  0  0  0  0  0  0
    0.7500   -1.2990    0.0000 C   0  0  0  0  0  0  0  0  0  0  0  0
   -0.7500   -1.2990    0.0000 C   0  0  0  0  0  0  0  0  0  0  0  0
   -1.5000    0.0000    0.0000 C   0  0  0  0  0  0  0  0  0  0  0  0
   -0.7500    1.2990    0.0000 C   0  0  0  0  0  0  0  0  0  0  0  0
   -1.7537    2.4138    0.0000 S   0  0  0  0  0  0  0  0  0  0  0  0
   -3.1240    1.8037    0.0000 C   0  0  0  0  0  0  0  0  0  0  0  0
   -4.4231    2.5537    0.0000 N   0  0  0  0  0  0  0  0  0  0  0  0
   -4.4231    4.0537    0.0000 C   0  0  0  0  0  0  0  0  0  0  0  0
   -3.1240    4.8037    0.0000 O   0  0  0  0  0  0  0  0  0  0  0  0
   -5.7221    4.8037    0.0000 C   0  0  0  0  0  0  0  0  0  0  0  0
   -5.7221    6.3037    0.0000 C   0  0  0  0  0  0  0  0  0  0  0  0
   -7.0211    7.0537    0.0000 C   0  0  0  0  0  0  0  0  0  0  0  0
   -7.0211    8.5537    0.0000 C   0  0  0  0  0  0  0  0  0  0  0  0
   -8.3202    9.3037    0.0000 C   0  0  0  0  0  0  0  0  0  0  0  0
   -9.6192    8.5537    0.0000 C   0  0  0  0  0  0  0  0  0  0  0  0
   -9.6192    7.0537    0.0000 C   0  0  0  0  0  0  0  0  0  0  0  0
   -8.3202    6.3037    0.0000 C   0  0  0  0  0  0  0  0  0  0  0  0
   -2.9672    0.3119    0.0000 C   0  0  0  0  0  0  0  0  0  0  0  0
   -4.0819   -0.6918    0.0000 C   0  0  0  0  0  0  0  0  0  0  0  0
   -3.7701   -2.1590    0.0000 O   0  0  0  0  0  0  0  0  0  0  0  0
   -5.5085   -0.2283    0.0000 N   0  0  0  0  0  0  0  0  0  0  0  0
   -6.6232   -1.2320    0.0000 C   0  0  0  0  0  0  0  0  0  0  0  0
   -6.4664   -2.7238    0.0000 C   0  0  0  0  0  0  0  0  0  0  0  0
   -7.8368   -3.3339    0.0000 C   0  0  0  0  0  0  0  0  0  0  0  0
   -8.8405   -2.2192    0.0000 S   0  0  0  0  0  0  0  0  0  0  0  0
   -9.8442   -3.3339    0.0000 O   0  0  0  0  0  0  0  0  0  0  0  0
  -10.0540   -1.3375    0.0000 O   0  0  0  0  0  0  0  0  0  0  0  0
   -8.0905   -0.9201    0.0000 C   0  0  0  0  0  0  0  0  0  0  0  0
    0.7500    1.2990    0.0000 C   0  0  0  0  0  0  0  0  0  0  0  0
  1  2  1  0
  2  3  1  0
  2  4  1  0
  5  2  1  6
  5  6  1  0
  6  7  1  0
  7  8  1  0
  8  9  2  0
  9 10  1  0
 10 11  1  0
 11 12  1  0
 12 13  1  0
 13 14  2  0
 13 15  1  0
 15 16  2  0
 16 17  1  0
 17 18  2  0
 18 19  1  0
 19 20  2  0
 20 21  1  0
 21 22  2  0
 11 23  2  0
 23 24  1  0
 24 25  2  0
 24 26  1  0
 27 26  1  1
 27 28  1  0
 28 29  1  0
 29 30  1  0
 30 31  2  0
 30 32  2  0
 30 33  1  0
  9 34  1  0
 34  5  1  0
 23  8  1  0
 33 27  1  0
 22 17  1  0
M  END
>  <Compound_ID>  (298) 
C39836473

>  <Active>  (298) 
0.0

>  <Smiles>  (298) 
CC(C)(C)[C@@H]1CCc2c(sc(NC(=O)/C=C/c3ccccc3)c2C(=O)N[C@H]2CCS(=O)(=O)C2)C1

>  <canonical_smi>  (298) 
CC(C)(C)[C@@H]1CCc2c(sc(NC(=O)/C=C/c3ccccc3)c2C(=O)N[C@H]2CCS(=O)(=O)C2)C1

>  <Set>  (298) 
G2 inactive

>  <Set_type>  (298) 
Test

>  <MW>  (298) 
500.69

>  <HBD>  (298) 
2

>  <HBA>  (298) 
4

>  <NRB>  (298) 
5

>  <NR>  (298) 
4

>  <NAR>  (298) 
2

>  <PSA>  (298) 
92.34

>  <Standard Type>  (298) 
nan

>  <Standard Relation>  (298) 
nan

>  <Standard Units>  (298) 
nan

>  <Standard Value>  (298) 
nan

>  <Assay ChEMBL ID>  (298) 
nan

>  <Assay Description>  (298) 
nan

>  <BAO Label>  (298) 
nan

$$$$

     RDKit          2D

 21 22  0  0  0  0  0  0  0  0999 V2000
    3.0000   -1.5000    0.0000 C   0  0  0  0  0  0  0  0  0  0  0  0
    3.0000    0.0000    0.0000 C   0  0  0  0  0  0  0  0  0  0  0  0
    3.0000    1.5000    0.0000 C   0  0  0  0  0  0  0  0  0  0  0  0
    4.5000    0.0000    0.0000 C   0  0  0  0  0  0  0  0  0  0  0  0
    1.5000    0.0000    0.0000 C   0  0  0  0  0  0  0  0  0  0  0  0
    0.7500   -1.2990    0.0000 C   0  0  0  0  0  0  0  0  0  0  0  0
   -0.7500   -1.2990    0.0000 C   0  0  0  0  0  0  0  0  0  0  0  0
   -1.5000   -2.5981    0.0000 C   0  0  0  0  0  0  0  0  0  0  0  0
   -0.2010   -3.3481    0.0000 C   0  0  0  0  0  0  0  0  0  0  0  0
   -2.8808   -2.0120    0.0000 C   0  0  0  0  0  0  0  0  0  0  0  0
   -2.2500   -3.8971    0.0000 O   0  0  0  0  0  0  0  0  0  0  0  0
   -1.5000    0.0000    0.0000 C   0  0  0  0  0  0  0  0  0  0  0  0
   -0.7500    1.2990    0.0000 C   0  0  0  0  0  0  0  0  0  0  0  0
    0.7500    1.2990    0.0000 C   0  0  0  0  0  0  0  0  0  0  0  0
   -1.7537    2.4138    0.0000 C   0  0  0  0  0  0  0  0  0  0  0  0
   -0.5402    3.2954    0.0000 C   0  0  0  0  0  0  0  0  0  0  0  0
   -2.5037    3.7128    0.0000 C   0  0  0  0  0  0  0  0  0  0  0  0
   -3.1240    1.8037    0.0000 O   0  0  0  0  0  0  0  0  0  0  0  0
   -2.9672    0.3119    0.0000 S   0  0  0  0  0  0  0  0  0  0  0  0
   -4.4672    0.3119    0.0000 O   0  0  0  0  0  0  0  0  0  0  0  0
   -3.3047   -1.1497    0.0000 O   0  0  0  0  0  0  0  0  0  0  0  0
  1  2  1  0
  2  3  1  0
  2  4  1  0
  2  5  1  0
  5  6  2  0
  6  7  1  0
  7  8  1  0
  8  9  1  0
  8 10  1  0
  8 11  1  0
  7 12  2  0
 12 13  1  0
 13 14  2  0
 13 15  1  0
 15 16  1  0
 15 17  1  0
 15 18  1  0
 18 19  1  0
 19 20  2  0
 19 21  2  0
 14  5  1  0
 19 12  1  0
M  END
>  <Compound_ID>  (299) 
C01570560

>  <Active>  (299) 
0.0

>  <Smiles>  (299) 
CC(C)(C)c1cc(C(C)(C)O)c2c(c1)C(C)(C)OS2(=O)=O

>  <canonical_smi>  (299) 
CC(C)(C)c1cc(C(C)(C)O)c2c(c1)C(C)(C)OS2(=O)=O

>  <Set>  (299) 
G2 inactive

>  <Set_type>  (299) 
Test

>  <MW>  (299) 
312.43

>  <HBD>  (299) 
1

>  <HBA>  (299) 
4

>  <NRB>  (299) 
1

>  <NR>  (299) 
2

>  <NAR>  (299) 
1

>  <PSA>  (299) 
63.6

>  <Standard Type>  (299) 
nan

>  <Standard Relation>  (299) 
nan

>  <Standard Units>  (299) 
nan

>  <Standard Value>  (299) 
nan

>  <Assay ChEMBL ID>  (299) 
nan

>  <Assay Description>  (299) 
nan

>  <BAO Label>  (299) 
nan

$$$$

     RDKit          2D

 24 27  0  0  0  0  0  0  0  0999 V2000
   -5.6239   -2.1078    0.0000 C   0  0  0  0  0  0  0  0  0  0  0  0
   -5.3120   -0.6406    0.0000 C   0  0  0  0  0  0  0  0  0  0  0  0
   -6.4268    0.3631    0.0000 C   0  0  0  0  0  0  0  0  0  0  0  0
   -6.1149    1.8303    0.0000 C   0  0  0  0  0  0  0  0  0  0  0  0
   -4.6883    2.2939    0.0000 C   0  0  0  0  0  0  0  0  0  0  0  0
   -3.5736    1.2902    0.0000 C   0  0  0  0  0  0  0  0  0  0  0  0
   -2.1470    1.7537    0.0000 C   0  0  0  0  0  0  0  0  0  0  0  0
   -1.8351    3.2209    0.0000 N   0  0  0  0  0  0  0  0  0  0  0  0
   -0.4086    3.6844    0.0000 C   0  0  0  0  0  0  0  0  0  0  0  0
    0.7062    2.6807    0.0000 C   0  0  0  0  0  0  0  0  0  0  0  0
    2.1328    3.1443    0.0000 C   0  0  0  0  0  0  0  0  0  0  0  0
    2.4446    4.6115    0.0000 C   0  0  0  0  0  0  0  0  0  0  0  0
    1.3299    5.6152    0.0000 C   0  0  0  0  0  0  0  0  0  0  0  0
    1.6418    7.0824    0.0000 N   0  0  0  0  0  4  0  0  0  0  0  0
    0.5271    8.0861    0.0000 O   0  0  0  0  0  0  0  0  0  0  0  0
    3.0684    7.5459    0.0000 O   0  0  0  0  0  1  0  0  0  0  0  0
   -0.0967    5.1517    0.0000 C   0  0  0  0  0  0  0  0  0  0  0  0
   -1.2114    6.1554    0.0000 C   0  0  0  0  0  0  0  0  0  0  0  0
    0.3943    1.2135    0.0000 C   0  0  0  0  0  0  0  0  0  0  0  0
    1.2760    0.0000    0.0000 C   0  0  0  0  0  0  0  0  0  0  0  0
    0.3943   -1.2135    0.0000 C   0  0  0  0  0  0  0  0  0  0  0  0
   -1.0323   -0.7500    0.0000 C   0  0  0  0  0  0  0  0  0  0  0  0
   -1.0323    0.7500    0.0000 C   0  0  0  0  0  0  0  0  0  0  0  0
   -3.8855   -0.1771    0.0000 C   0  0  0  0  0  0  0  0  0  0  0  0
  1  2  1  0
  2  3  2  0
  3  4  1  0
  4  5  2  0
  5  6  1  0
  7  6  1  6
  7  8  1  0
  8  9  1  0
  9 10  2  0
 10 11  1  0
 11 12  2  0
 12 13  1  0
 13 14  1  0
 14 15  2  0
 14 16  1  0
 13 17  2  0
 17 18  1  0
 10 19  1  0
 19 20  1  1
 20 21  2  0
 21 22  1  0
 23 22  1  6
  6 24  2  0
 24  2  1  0
 23  7  1  0
 17  9  1  0
 23 19  1  0
M  CHG  2  14   1  16  -1
M  END
>  <Compound_ID>  (300) 
C14479898

>  <Active>  (300) 
0.0

>  <Smiles>  (300) 
Cc1cccc([C@@H]2Nc3c(ccc([N+](=O)[O-])c3C)[C@H]3C=CC[C@@H]32)c1

>  <canonical_smi>  (300) 
Cc1cccc([C@@H]2Nc3c(ccc([N+](=O)[O-])c3C)[C@H]3C=CC[C@@H]32)c1

>  <Set>  (300) 
G2 inactive

>  <Set_type>  (300) 
Test

>  <MW>  (300) 
320.39

>  <HBD>  (300) 
1

>  <HBA>  (300) 
3

>  <NRB>  (300) 
2

>  <NR>  (300) 
4

>  <NAR>  (300) 
2

>  <PSA>  (300) 
55.17

>  <Standard Type>  (300) 
nan

>  <Standard Relation>  (300) 
nan

>  <Standard Units>  (300) 
nan

>  <Standard Value>  (300) 
nan

>  <Assay ChEMBL ID>  (300) 
nan

>  <Assay Description>  (300) 
nan

>  <BAO Label>  (300) 
nan

$$$$

     RDKit          2D

 26 29  0  0  0  0  0  0  0  0999 V2000
   -7.6471   -6.1471    0.0000 C   0  0  0  0  0  0  0  0  0  0  0  0
   -6.3481   -5.3971    0.0000 C   0  0  0  0  0  0  0  0  0  0  0  0
   -6.3481   -3.8971    0.0000 C   0  0  0  0  0  0  0  0  0  0  0  0
   -7.6471   -3.1471    0.0000 O   0  0  0  0  0  0  0  0  0  0  0  0
   -5.0490   -3.1471    0.0000 C   0  0  0  0  0  0  0  0  0  0  0  0
   -5.0490   -1.6471    0.0000 O   0  0  0  0  0  0  0  0  0  0  0  0
   -3.7500   -3.8971    0.0000 C   0  0  0  0  0  0  0  0  0  0  0  0
   -3.0000   -2.5981    0.0000 C   0  0  0  0  0  0  0  0  0  0  0  0
   -1.5000   -2.5981    0.0000 C   0  0  0  0  0  0  0  0  0  0  0  0
   -0.7500   -3.8971    0.0000 C   0  0  0  0  0  0  0  0  0  0  0  0
   -1.5000   -5.1962    0.0000 C   0  0  0  0  0  0  0  0  0  0  0  0
    0.7500   -3.8971    0.0000 C   0  0  0  0  0  0  0  0  0  0  0  0
    1.5000   -2.5981    0.0000 C   0  0  0  0  0  0  0  0  0  0  0  0
    0.7500   -1.2990    0.0000 C   0  0  0  0  0  0  0  0  0  0  0  0
    1.5000    0.0000    0.0000 C   0  0  0  0  0  0  0  0  0  0  0  0
    2.6491    0.9642    0.0000 C   0  0  0  0  0  0  0  0  0  0  0  0
    2.6491   -0.9642    0.0000 C   0  0  0  0  0  0  0  0  0  0  0  0
    0.7500    1.2990    0.0000 C   0  0  0  0  0  0  0  0  0  0  0  0
   -0.7500    1.2990    0.0000 C   0  0  0  0  0  0  0  0  0  0  0  0
   -1.5000    0.0000    0.0000 C   0  0  0  0  0  0  0  0  0  0  0  0
   -0.7500   -1.2990    0.0000 C   0  0  0  0  0  0  0  0  0  0  0  0
   -2.2500   -1.2990    0.0000 C   0  0  0  0  0  0  0  0  0  0  0  0
   -2.4510   -4.6471    0.0000 O   0  0  0  0  0  0  0  0  0  0  0  0
   -3.7500   -5.3971    0.0000 C   0  0  0  0  0  0  0  0  0  0  0  0
   -5.0490   -6.1471    0.0000 C   0  0  0  0  0  0  0  0  0  0  0  0
   -5.0490   -7.6471    0.0000 O   0  0  0  0  0  0  0  0  0  0  0  0
  1  2  2  0
  2  3  1  0
  3  4  1  1
  3  5  1  0
  5  6  1  1
  5  7  1  0
  7  8  1  6
  9  8  1  1
  9 10  1  0
 10 11  1  0
 10 12  2  0
 12 13  1  0
 14 13  1  1
 14 15  1  0
 15 16  1  0
 15 17  1  0
 15 18  1  0
 18 19  1  0
 19 20  1  0
 20 21  1  0
 21 22  1  6
  7 23  1  0
 24 23  1  1
 24 25  1  0
 25 26  1  1
 25  2  1  0
 24  7  1  0
 21  9  1  0
 21 14  1  0
M  END
>  <Compound_ID>  (301) 
C37538300

>  <Active>  (301) 
0.0

>  <Smiles>  (301) 
C=C1[C@@H](O)[C@@H](O)[C@@]2(C[C@@H]3C(C)=CC[C@@H]4C(C)(C)CCC[C@]34C)O[C@H]2[C@H]1O

>  <canonical_smi>  (301) 
C=C1[C@H](O)[C@@H]2O[C@]2(C[C@@H]2C(C)=CC[C@@H]3C(C)(C)CCC[C@]23C)[C@H](O)[C@@H]1O

>  <Set>  (301) 
G2 inactive

>  <Set_type>  (301) 
Test

>  <MW>  (301) 
362.51

>  <HBD>  (301) 
3

>  <HBA>  (301) 
4

>  <NRB>  (301) 
2

>  <NR>  (301) 
4

>  <NAR>  (301) 
0

>  <PSA>  (301) 
73.22

>  <Standard Type>  (301) 
nan

>  <Standard Relation>  (301) 
nan

>  <Standard Units>  (301) 
nan

>  <Standard Value>  (301) 
nan

>  <Assay ChEMBL ID>  (301) 
nan

>  <Assay Description>  (301) 
nan

>  <BAO Label>  (301) 
nan

$$$$

     RDKit          2D

 32 35  0  0  0  0  0  0  0  0999 V2000
   -0.7500   -6.4952    0.0000 C   0  0  0  0  0  0  0  0  0  0  0  0
   -1.5000   -5.1962    0.0000 C   0  0  0  0  0  0  0  0  0  0  0  0
   -0.7500   -3.8971    0.0000 N   0  0  0  0  0  0  0  0  0  0  0  0
    0.7500   -3.8971    0.0000 N   0  0  0  0  0  0  0  0  0  0  0  0
    1.5000   -2.5981    0.0000 C   0  0  0  0  0  0  0  0  0  0  0  0
    3.0000   -2.5981    0.0000 C   0  0  0  0  0  0  0  0  0  0  0  0
    3.7500   -1.2990    0.0000 O   0  0  0  0  0  0  0  0  0  0  0  0
    3.7500   -3.8971    0.0000 N   0  0  0  0  0  0  0  0  0  0  0  0
    5.2500   -3.8971    0.0000 N   0  0  0  0  0  0  0  0  0  0  0  0
    6.0000   -5.1962    0.0000 C   0  0  0  0  0  0  0  0  0  0  0  0
    5.2500   -6.4952    0.0000 O   0  0  0  0  0  0  0  0  0  0  0  0
    7.5000   -5.1962    0.0000 C   0  0  0  0  0  0  0  0  0  0  0  0
    8.3817   -3.9826    0.0000 C   0  0  0  0  0  0  0  0  0  0  0  0
    9.8083   -4.4462    0.0000 S   0  0  0  0  0  0  0  0  0  0  0  0
    9.8083   -5.9462    0.0000 C   0  0  0  0  0  0  0  0  0  0  0  0
   11.0218   -6.8278    0.0000 C   0  0  0  0  0  0  0  0  0  0  0  0
   10.8650   -8.3196    0.0000 C   0  0  0  0  0  0  0  0  0  0  0  0
   12.0785   -9.2013    0.0000 C   0  0  0  0  0  0  0  0  0  0  0  0
   13.4488   -8.5912    0.0000 C   0  0  0  0  0  0  0  0  0  0  0  0
   14.6624   -9.4729    0.0000 C   0  0  0  0  0  0  0  0  0  0  0  0
   13.6056   -7.0994    0.0000 C   0  0  0  0  0  0  0  0  0  0  0  0
   12.3921   -6.2177    0.0000 C   0  0  0  0  0  0  0  0  0  0  0  0
   12.5489   -4.7259    0.0000 C   0  0  0  0  0  0  0  0  0  0  0  0
    8.3817   -6.4097    0.0000 N   0  0  0  0  0  0  0  0  0  0  0  0
    0.7500   -1.2990    0.0000 C   0  0  0  0  0  0  0  0  0  0  0  0
    1.5000    0.0000    0.0000 C   0  0  0  0  0  0  0  0  0  0  0  0
    0.7500    1.2990    0.0000 C   0  0  0  0  0  0  0  0  0  0  0  0
   -0.7500    1.2990    0.0000 C   0  0  0  0  0  0  0  0  0  0  0  0
   -1.5000    0.0000    0.0000 C   0  0  0  0  0  0  0  0  0  0  0  0
   -0.7500   -1.2990    0.0000 C   0  0  0  0  0  0  0  0  0  0  0  0
   -1.5000   -2.5981    0.0000 C   0  0  0  0  0  0  0  0  0  0  0  0
   -3.0000   -2.5981    0.0000 O   0  0  0  0  0  0  0  0  0  0  0  0
  1  2  1  0
  2  3  1  0
  3  4  1  0
  4  5  2  0
  5  6  1  0
  6  7  2  0
  6  8  1  0
  8  9  1  0
  9 10  1  0
 10 11  2  0
 10 12  1  0
 12 13  2  0
 13 14  1  0
 14 15  1  0
 15 16  1  0
 16 17  2  0
 17 18  1  0
 18 19  2  0
 19 20  1  0
 19 21  1  0
 21 22  2  0
 22 23  1  0
 15 24  2  0
  5 25  1  0
 25 26  2  0
 26 27  1  0
 27 28  2  0
 28 29  1  0
 29 30  2  0
 30 31  1  0
 31 32  2  0
 31  3  1  0
 24 12  1  0
 30 25  1  0
 22 16  1  0
M  END
>  <Compound_ID>  (302) 
C60211439

>  <Active>  (302) 
0.0

>  <Smiles>  (302) 
CCn1nc(C(=O)NNC(=O)c2csc(-c3ccc(C)cc3C)n2)c2ccccc2c1=O

>  <canonical_smi>  (302) 
CCn1nc(C(=O)NNC(=O)c2csc(-c3ccc(C)cc3C)n2)c2ccccc2c1=O

>  <Set>  (302) 
G2 inactive

>  <Set_type>  (302) 
Test

>  <MW>  (302) 
447.52

>  <HBD>  (302) 
2

>  <HBA>  (302) 
5

>  <NRB>  (302) 
4

>  <NR>  (302) 
4

>  <NAR>  (302) 
4

>  <PSA>  (302) 
105.98

>  <Standard Type>  (302) 
nan

>  <Standard Relation>  (302) 
nan

>  <Standard Units>  (302) 
nan

>  <Standard Value>  (302) 
nan

>  <Assay ChEMBL ID>  (302) 
nan

>  <Assay Description>  (302) 
nan

>  <BAO Label>  (302) 
nan

$$$$

     RDKit          2D

 28 32  0  0  0  0  0  0  0  0999 V2000
   -0.7500   -6.4952    0.0000 O   0  0  0  0  0  0  0  0  0  0  0  0
    0.7500   -6.4952    0.0000 C   0  0  0  0  0  0  0  0  0  0  0  0
    1.5000   -5.1962    0.0000 C   0  0  0  0  0  0  0  0  0  0  0  0
    0.7500   -3.8971    0.0000 O   0  0  0  0  0  0  0  0  0  0  0  0
    1.5000   -2.5981    0.0000 C   0  0  0  0  0  0  0  0  0  0  0  0
    3.0000   -2.5981    0.0000 O   0  0  0  0  0  0  0  0  0  0  0  0
    0.7500   -1.2990    0.0000 C   0  0  0  0  0  0  0  0  0  0  0  0
    1.5000    0.0000    0.0000 C   0  0  0  0  0  0  0  0  0  0  0  0
    0.7500    1.2990    0.0000 C   0  0  0  0  0  0  0  0  0  0  0  0
   -0.7500    1.2990    0.0000 C   0  0  0  0  0  0  0  0  0  0  0  0
   -1.5000    0.0000    0.0000 C   0  0  0  0  0  0  0  0  0  0  0  0
    1.7010   -0.7500    0.0000 C   0  0  0  0  0  0  0  0  0  0  0  0
    3.0000   -0.0000    0.0000 C   0  0  0  0  0  0  0  0  0  0  0  0
    4.5000   -0.0000    0.0000 Cl  0  0  0  0  0  0  0  0  0  0  0  0
    2.2500    1.2990    0.0000 C   0  0  0  0  0  0  0  0  0  0  0  0
    2.2500   -1.2990    0.0000 C   0  0  0  0  0  0  0  0  0  0  0  0
   -0.7500   -1.2990    0.0000 C   0  0  0  0  0  0  0  0  0  0  0  0
    1.5000   -7.7942    0.0000 N   0  0  0  0  0  0  0  0  0  0  0  0
    0.7500   -9.0933    0.0000 C   0  0  0  0  0  0  0  0  0  0  0  0
   -0.7500   -9.0933    0.0000 C   0  0  0  0  0  0  0  0  0  0  0  0
   -1.5000  -10.3923    0.0000 C   0  0  0  0  0  0  0  0  0  0  0  0
   -0.7500  -11.6913    0.0000 C   0  0  0  0  0  0  0  0  0  0  0  0
   -1.2135  -13.1179    0.0000 N   0  0  0  0  0  0  0  0  0  0  0  0
   -0.0000  -13.9996    0.0000 C   0  0  0  0  0  0  0  0  0  0  0  0
   -0.0000  -15.4996    0.0000 O   0  0  0  0  0  0  0  0  0  0  0  0
    1.2135  -13.1179    0.0000 N   0  0  0  0  0  0  0  0  0  0  0  0
    0.7500  -11.6913    0.0000 C   0  0  0  0  0  0  0  0  0  0  0  0
    1.5000  -10.3923    0.0000 C   0  0  0  0  0  0  0  0  0  0  0  0
  1  2  2  0
  2  3  1  0
  3  4  1  0
  4  5  1  0
  5  6  2  0
  5  7  1  0
  7  8  1  0
  9  8  1  1
  9 10  1  0
 11 10  1  1
 11 12  1  0
 12 13  1  0
 13 14  1  0
 13 15  1  0
 13 16  1  0
 11 17  1  0
  2 18  1  0
 18 19  1  0
 19 20  2  0
 20 21  1  0
 21 22  2  0
 22 23  1  0
 23 24  1  0
 24 25  2  0
 24 26  1  0
 26 27  1  0
 27 28  2  0
 16  7  1  0
 28 19  1  0
 17  7  1  0
 27 22  1  0
 15  9  1  0
M  END
>  <Compound_ID>  (303) 
C32910275

>  <Active>  (303) 
0.0

>  <Smiles>  (303) 
O=C(COC(=O)C12C[C@@H]3C[C@@H](CC(Cl)(C3)C1)C2)Nc1ccc2[nH]c(=O)[nH]c2c1

>  <canonical_smi>  (303) 
O=C(COC(=O)C12C[C@@H]3C[C@@H](CC(Cl)(C3)C1)C2)Nc1ccc2[nH]c(=O)[nH]c2c1

>  <Set>  (303) 
G2 inactive

>  <Set_type>  (303) 
Test

>  <MW>  (303) 
403.87

>  <HBD>  (303) 
3

>  <HBA>  (303) 
4

>  <NRB>  (303) 
4

>  <NR>  (303) 
6

>  <NAR>  (303) 
2

>  <PSA>  (303) 
104.05

>  <Standard Type>  (303) 
nan

>  <Standard Relation>  (303) 
nan

>  <Standard Units>  (303) 
nan

>  <Standard Value>  (303) 
nan

>  <Assay ChEMBL ID>  (303) 
nan

>  <Assay Description>  (303) 
nan

>  <BAO Label>  (303) 
nan

$$$$

     RDKit          2D

 24 27  0  0  0  0  0  0  0  0999 V2000
   -7.5169   -6.1107    0.0000 C   0  0  0  0  0  0  0  0  0  0  0  0
   -6.4173   -5.0904    0.0000 C   0  0  0  0  0  0  0  0  0  0  0  0
   -4.9840   -5.5326    0.0000 S   0  0  0  0  0  0  0  0  0  0  0  0
   -3.8844   -4.5123    0.0000 C   0  0  0  0  0  0  0  0  0  0  0  0
   -4.2182   -3.0499    0.0000 N   0  0  0  0  0  0  0  0  0  0  0  0
   -3.1186   -2.0297    0.0000 N   0  0  0  0  0  0  0  0  0  0  0  0
   -1.6852   -2.4718    0.0000 C   0  0  0  0  0  0  0  0  0  0  0  0
   -1.3515   -3.9342    0.0000 C   0  0  0  0  0  0  0  0  0  0  0  0
   -2.4510   -4.9544    0.0000 N   0  0  0  0  0  0  0  0  0  0  0  0
   -0.0000   -4.5850    0.0000 O   0  0  0  0  0  0  0  0  0  0  0  0
    1.3515   -3.9342    0.0000 C   0  0  0  0  0  0  0  0  0  0  0  0
    2.5242   -4.8694    0.0000 C   0  0  0  0  0  0  0  0  0  0  0  0
    3.9701   -4.4704    0.0000 C   0  0  0  0  0  0  0  0  0  0  0  0
    4.7965   -5.7222    0.0000 C   0  0  0  0  0  0  0  0  0  0  0  0
    3.8613   -6.8950    0.0000 C   0  0  0  0  0  0  0  0  0  0  0  0
    2.4569   -6.3679    0.0000 N   0  0  0  0  0  0  0  0  0  0  0  0
    1.2050   -7.1942    0.0000 C   0  0  0  0  0  0  0  0  0  0  0  0
    1.6852   -2.4718    0.0000 N   0  0  0  0  0  0  0  0  0  0  0  0
    0.7500   -1.2990    0.0000 C   0  0  0  0  0  0  0  0  0  0  0  0
    1.5000    0.0000    0.0000 C   0  0  0  0  0  0  0  0  0  0  0  0
    0.7500    1.2990    0.0000 C   0  0  0  0  0  0  0  0  0  0  0  0
   -0.7500    1.2990    0.0000 C   0  0  0  0  0  0  0  0  0  0  0  0
   -1.5000    0.0000    0.0000 C   0  0  0  0  0  0  0  0  0  0  0  0
   -0.7500   -1.2990    0.0000 C   0  0  0  0  0  0  0  0  0  0  0  0
  1  2  1  0
  2  3  1  0
  3  4  1  0
  4  5  2  0
  5  6  1  0
  6  7  2  0
  7  8  1  0
  8  9  2  0
  8 10  1  0
 10 11  1  0
 11 12  1  6
 12 13  2  0
 13 14  1  0
 14 15  2  0
 15 16  1  0
 16 17  1  0
 11 18  1  0
 18 19  1  0
 19 20  2  0
 20 21  1  0
 21 22  2  0
 22 23  1  0
 23 24  2  0
  9  4  1  0
 16 12  1  0
 24 19  1  0
 24  7  1  0
M  END
>  <Compound_ID>  (304) 
C05737165

>  <Active>  (304) 
0.0

>  <Smiles>  (304) 
CCSc1nnc2c(n1)O[C@@H](c1cccn1C)Nc1ccccc1-2

>  <canonical_smi>  (304) 
CCSc1nnc2c(n1)O[C@@H](c1cccn1C)Nc1ccccc1-2

>  <Set>  (304) 
G2 inactive

>  <Set_type>  (304) 
Test

>  <MW>  (304) 
339.42

>  <HBD>  (304) 
1

>  <HBA>  (304) 
6

>  <NRB>  (304) 
3

>  <NR>  (304) 
4

>  <NAR>  (304) 
3

>  <PSA>  (304) 
64.86

>  <Standard Type>  (304) 
nan

>  <Standard Relation>  (304) 
nan

>  <Standard Units>  (304) 
nan

>  <Standard Value>  (304) 
nan

>  <Assay ChEMBL ID>  (304) 
nan

>  <Assay Description>  (304) 
nan

>  <BAO Label>  (304) 
nan

$$$$

     RDKit          2D

 25 27  0  0  0  0  0  0  0  0999 V2000
    4.6740   -4.8322    0.0000 C   0  0  0  0  0  0  0  0  0  0  0  0
    3.3037   -4.2221    0.0000 C   0  0  0  0  0  0  0  0  0  0  0  0
    2.9918   -2.7549    0.0000 N   0  0  0  0  0  0  0  0  0  0  0  0
    1.5000   -2.5981    0.0000 C   0  0  0  0  0  0  0  0  0  0  0  0
    0.7500   -1.2990    0.0000 C   0  0  0  0  0  0  0  0  0  0  0  0
    1.5000    0.0000    0.0000 C   0  0  0  0  0  0  0  0  0  0  0  0
    0.7500    1.2990    0.0000 C   0  0  0  0  0  0  0  0  0  0  0  0
   -0.7500    1.2990    0.0000 C   0  0  0  0  0  0  0  0  0  0  0  0
   -1.5000    2.5981    0.0000 N   0  0  0  0  0  0  0  0  0  0  0  0
   -0.7500    3.8971    0.0000 C   0  0  0  0  0  0  0  0  0  0  0  0
   -1.5000    5.1962    0.0000 C   0  0  0  0  0  0  0  0  0  0  0  0
    0.7500    3.8971    0.0000 C   0  0  0  0  0  0  0  0  0  0  0  0
    1.5000    2.5981    0.0000 O   0  0  0  0  0  0  0  0  0  0  0  0
    1.5000    5.1962    0.0000 N   0  0  0  0  0  0  0  0  0  0  0  0
    3.0000    5.1962    0.0000 C   0  0  0  0  0  0  0  0  0  0  0  0
    3.7500    3.8971    0.0000 C   0  0  0  0  0  0  0  0  0  0  0  0
    5.2500    3.8971    0.0000 C   0  0  0  0  0  0  0  0  0  0  0  0
    6.0000    5.1962    0.0000 C   0  0  0  0  0  0  0  0  0  0  0  0
    7.5000    5.1962    0.0000 Br  0  0  0  0  0  0  0  0  0  0  0  0
    5.2500    6.4952    0.0000 C   0  0  0  0  0  0  0  0  0  0  0  0
    3.7500    6.4952    0.0000 C   0  0  0  0  0  0  0  0  0  0  0  0
   -1.5000    0.0000    0.0000 C   0  0  0  0  0  0  0  0  0  0  0  0
   -0.7500   -1.2990    0.0000 C   0  0  0  0  0  0  0  0  0  0  0  0
    0.8899   -3.9684    0.0000 C   0  0  0  0  0  0  0  0  0  0  0  0
    2.0046   -4.9721    0.0000 S   0  0  0  0  0  0  0  0  0  0  0  0
  1  2  1  0
  2  3  2  0
  3  4  1  0
  4  5  1  0
  5  6  2  0
  6  7  1  0
  7  8  2  0
  8  9  1  0
  9 10  1  0
 10 11  1  6
 10 12  1  0
 12 13  2  0
 12 14  1  0
 14 15  1  0
 15 16  2  0
 16 17  1  0
 17 18  2  0
 18 19  1  0
 18 20  1  0
 20 21  2  0
  8 22  1  0
 22 23  2  0
  4 24  2  0
 24 25  1  0
 25  2  1  0
 23  5  1  0
 21 15  1  0
M  END
>  <Compound_ID>  (305) 
C12765806

>  <Active>  (305) 
0.0

>  <Smiles>  (305) 
Cc1nc(-c2ccc(N[C@H](C)C(=O)Nc3ccc(Br)cc3)cc2)cs1

>  <canonical_smi>  (305) 
Cc1nc(-c2ccc(N[C@H](C)C(=O)Nc3ccc(Br)cc3)cc2)cs1

>  <Set>  (305) 
G2 inactive

>  <Set_type>  (305) 
Test

>  <MW>  (305) 
416.34

>  <HBD>  (305) 
2

>  <HBA>  (305) 
3

>  <NRB>  (305) 
5

>  <NR>  (305) 
3

>  <NAR>  (305) 
3

>  <PSA>  (305) 
54.02

>  <Standard Type>  (305) 
nan

>  <Standard Relation>  (305) 
nan

>  <Standard Units>  (305) 
nan

>  <Standard Value>  (305) 
nan

>  <Assay ChEMBL ID>  (305) 
nan

>  <Assay Description>  (305) 
nan

>  <BAO Label>  (305) 
nan

$$$$

     RDKit          2D

 29 30  0  0  0  0  0  0  0  0999 V2000
    1.5000  -10.3923    0.0000 C   0  0  0  0  0  0  0  0  0  0  0  0
    0.7500   -9.0933    0.0000 C   0  0  0  0  0  0  0  0  0  0  0  0
    1.5000   -7.7942    0.0000 C   0  0  0  0  0  0  0  0  0  0  0  0
    0.7500   -6.4952    0.0000 C   0  0  0  0  0  0  0  0  0  0  0  0
    1.5000   -5.1962    0.0000 N   0  0  0  0  0  0  0  0  0  0  0  0
    0.7500   -3.8971    0.0000 C   0  0  0  0  0  0  0  0  0  0  0  0
   -0.7500   -3.8971    0.0000 O   0  0  0  0  0  0  0  0  0  0  0  0
    1.5000   -2.5981    0.0000 C   0  0  0  0  0  0  0  0  0  0  0  0
    0.7500   -1.2990    0.0000 C   0  0  0  0  0  0  0  0  0  0  0  0
    1.5000    0.0000    0.0000 C   0  0  0  0  0  0  0  0  0  0  0  0
    3.0000    0.0000    0.0000 O   0  0  0  0  0  0  0  0  0  0  0  0
    0.7500    1.2990    0.0000 C   0  0  0  0  0  0  0  0  0  0  0  0
   -0.7500    1.2990    0.0000 C   0  0  0  0  0  0  0  0  0  0  0  0
   -1.5000    2.5981    0.0000 O   0  0  0  0  0  0  0  0  0  0  0  0
   -1.5000    0.0000    0.0000 C   0  0  0  0  0  0  0  0  0  0  0  0
   -0.7500   -1.2990    0.0000 C   0  0  0  0  0  0  0  0  0  0  0  0
   -1.5000   -2.5981    0.0000 O   0  0  0  0  0  0  0  0  0  0  0  0
    3.0000   -2.5981    0.0000 N   0  0  0  0  0  0  0  0  0  0  0  0
    3.7500   -1.2990    0.0000 C   0  0  0  0  0  0  0  0  0  0  0  0
    3.7500   -3.8971    0.0000 C   0  0  0  0  0  0  0  0  0  0  0  0
    3.0000   -5.1962    0.0000 O   0  0  0  0  0  0  0  0  0  0  0  0
    5.2500   -3.8971    0.0000 C   0  0  0  0  0  0  0  0  0  0  0  0
    6.7500   -3.8971    0.0000 C   0  0  0  0  0  0  0  0  0  0  0  0
    8.2500   -3.8971    0.0000 C   0  0  0  0  0  0  0  0  0  0  0  0
    9.0000   -2.5981    0.0000 C   0  0  0  0  0  0  0  0  0  0  0  0
   10.5000   -2.5981    0.0000 C   0  0  0  0  0  0  0  0  0  0  0  0
   11.2500   -3.8971    0.0000 C   0  0  0  0  0  0  0  0  0  0  0  0
   10.5000   -5.1962    0.0000 C   0  0  0  0  0  0  0  0  0  0  0  0
    9.0000   -5.1962    0.0000 C   0  0  0  0  0  0  0  0  0  0  0  0
  1  2  1  0
  2  3  1  0
  3  4  1  0
  4  5  1  0
  5  6  1  0
  6  7  2  0
  6  8  1  0
  8  9  1  0
  9 10  2  0
 10 11  1  0
 10 12  1  0
 12 13  2  0
 13 14  1  0
 13 15  1  0
 15 16  2  0
 16 17  1  0
  8 18  1  6
 18 19  1  0
 18 20  1  0
 20 21  2  0
 20 22  1  0
 22 23  3  0
 23 24  1  0
 24 25  2  0
 25 26  1  0
 26 27  2  0
 27 28  1  0
 28 29  2  0
 16  9  1  0
 29 24  1  0
M  END
>  <Compound_ID>  (306) 
C36530401

>  <Active>  (306) 
0.0

>  <Smiles>  (306) 
CCCCNC(=O)[C@H](c1c(O)cc(O)cc1O)N(C)C(=O)C#Cc1ccccc1

>  <canonical_smi>  (306) 
CCCCNC(=O)[C@H](c1c(O)cc(O)cc1O)N(C)C(=O)C#Cc1ccccc1

>  <Set>  (306) 
G2 inactive

>  <Set_type>  (306) 
Test

>  <MW>  (306) 
396.44

>  <HBD>  (306) 
4

>  <HBA>  (306) 
5

>  <NRB>  (306) 
6

>  <NR>  (306) 
2

>  <NAR>  (306) 
2

>  <PSA>  (306) 
110.1

>  <Standard Type>  (306) 
nan

>  <Standard Relation>  (306) 
nan

>  <Standard Units>  (306) 
nan

>  <Standard Value>  (306) 
nan

>  <Assay ChEMBL ID>  (306) 
nan

>  <Assay Description>  (306) 
nan

>  <BAO Label>  (306) 
nan

$$$$

     RDKit          2D

 38 43  0  0  0  0  0  0  0  0999 V2000
   -6.3114    0.1011    0.0000 O   0  0  0  0  0  0  0  0  0  0  0  0
   -6.6232   -1.3661    0.0000 C   0  0  0  0  0  0  0  0  0  0  0  0
   -5.5085   -2.3698    0.0000 C   0  0  0  0  0  0  0  0  0  0  0  0
   -4.0819   -1.9062    0.0000 C   0  0  0  0  0  0  0  0  0  0  0  0
   -2.9672   -2.9099    0.0000 C   0  0  0  0  0  0  0  0  0  0  0  0
   -3.1240   -4.4017    0.0000 N   0  0  0  0  0  0  0  0  0  0  0  0
   -1.7537   -5.0118    0.0000 N   0  0  0  0  0  0  0  0  0  0  0  0
   -0.7500   -3.8971    0.0000 C   0  0  0  0  0  0  0  0  0  0  0  0
    0.7500   -3.8971    0.0000 N   0  0  0  0  0  0  0  0  0  0  0  0
    1.5000   -5.1962    0.0000 C   0  0  0  0  0  0  0  0  0  0  0  0
    0.7500   -6.4952    0.0000 C   0  0  0  0  0  0  0  0  0  0  0  0
   -0.7500   -6.4952    0.0000 C   0  0  0  0  0  0  0  0  0  0  0  0
   -1.5000   -7.7942    0.0000 C   0  0  0  0  0  0  0  0  0  0  0  0
   -0.7500   -9.0933    0.0000 C   0  0  0  0  0  0  0  0  0  0  0  0
    0.7500   -9.0933    0.0000 C   0  0  0  0  0  0  0  0  0  0  0  0
    1.5000   -7.7942    0.0000 C   0  0  0  0  0  0  0  0  0  0  0  0
    3.0000   -7.7942    0.0000 Cl  0  0  0  0  0  0  0  0  0  0  0  0
    1.5000   -2.5981    0.0000 C   0  0  0  0  0  0  0  0  0  0  0  0
    3.0000   -2.5981    0.0000 O   0  0  0  0  0  0  0  0  0  0  0  0
    0.7500   -1.2990    0.0000 C   0  0  0  0  0  0  0  0  0  0  0  0
    1.5000    0.0000    0.0000 C   0  0  0  0  0  0  0  0  0  0  0  0
    0.7500    1.2990    0.0000 C   0  0  0  0  0  0  0  0  0  0  0  0
   -0.7500    1.2990    0.0000 C   0  0  0  0  0  0  0  0  0  0  0  0
   -1.5000    0.0000    0.0000 C   0  0  0  0  0  0  0  0  0  0  0  0
   -0.7500   -1.2990    0.0000 C   0  0  0  0  0  0  0  0  0  0  0  0
   -1.5000   -2.5981    0.0000 N   0  0  0  0  0  0  0  0  0  0  0  0
   -8.0498   -1.8296    0.0000 N   0  0  0  0  0  0  0  0  0  0  0  0
   -9.1645   -0.8259    0.0000 C   0  0  0  0  0  0  0  0  0  0  0  0
  -10.5911   -1.2894    0.0000 C   0  0  0  0  0  0  0  0  0  0  0  0
  -11.7058   -0.2857    0.0000 C   0  0  0  0  0  0  0  0  0  0  0  0
  -11.5491    1.2060    0.0000 C   0  0  0  0  0  0  0  0  0  0  0  0
  -12.9194    1.8162    0.0000 N   0  0  0  0  0  0  0  0  0  0  0  0
  -13.9231    0.7014    0.0000 C   0  0  0  0  0  0  0  0  0  0  0  0
  -15.4231    0.7014    0.0000 C   0  0  0  0  0  0  0  0  0  0  0  0
  -16.1731   -0.5976    0.0000 C   0  0  0  0  0  0  0  0  0  0  0  0
  -15.4231   -1.8966    0.0000 C   0  0  0  0  0  0  0  0  0  0  0  0
  -13.9231   -1.8966    0.0000 C   0  0  0  0  0  0  0  0  0  0  0  0
  -13.1731   -0.5976    0.0000 C   0  0  0  0  0  0  0  0  0  0  0  0
  1  2  2  0
  2  3  1  0
  3  4  1  0
  4  5  1  0
  5  6  2  0
  6  7  1  0
  7  8  2  0
  8  9  1  0
  9 10  1  0
 10 11  1  0
 11 12  2  0
 12 13  1  0
 13 14  2  0
 14 15  1  0
 15 16  2  0
 16 17  1  0
  9 18  1  0
 18 19  2  0
 18 20  1  0
 20 21  2  0
 21 22  1  0
 22 23  2  0
 23 24  1  0
 24 25  2  0
 25 26  1  0
  2 27  1  0
 27 28  1  0
 28 29  1  0
 29 30  1  0
 30 31  2  0
 31 32  1  0
 32 33  1  0
 33 34  2  0
 34 35  1  0
 35 36  2  0
 36 37  1  0
 37 38  2  0
 26  5  1  0
 38 30  1  0
 26  8  1  0
 38 33  1  0
 16 11  1  0
 25 20  1  0
M  END
>  <Compound_ID>  (307) 
C09831518

>  <Active>  (307) 
0.0

>  <Smiles>  (307) 
O=C(CCc1nnc2n(Cc3ccccc3Cl)c(=O)c3ccccc3n12)NCCc1c[nH]c2ccccc12

>  <canonical_smi>  (307) 
O=C(CCc1nnc2n(Cc3ccccc3Cl)c(=O)c3ccccc3n12)NCCc1c[nH]c2ccccc12

>  <Set>  (307) 
G2 inactive

>  <Set_type>  (307) 
Test

>  <MW>  (307) 
525.01

>  <HBD>  (307) 
2

>  <HBA>  (307) 
4

>  <NRB>  (307) 
8

>  <NR>  (307) 
6

>  <NAR>  (307) 
6

>  <PSA>  (307) 
97.08

>  <Standard Type>  (307) 
nan

>  <Standard Relation>  (307) 
nan

>  <Standard Units>  (307) 
nan

>  <Standard Value>  (307) 
nan

>  <Assay ChEMBL ID>  (307) 
nan

>  <Assay Description>  (307) 
nan

>  <BAO Label>  (307) 
nan

$$$$

     RDKit          2D

 35 38  0  0  0  0  0  0  0  0999 V2000
   -2.5981   -9.6073    0.0000 C   0  0  0  0  0  0  0  0  0  0  0  0
   -2.5981   -8.1073    0.0000 C   0  0  0  0  0  0  0  0  0  0  0  0
   -1.2990   -7.3573    0.0000 C   0  0  0  0  0  0  0  0  0  0  0  0
   -0.0000   -8.1073    0.0000 S   0  0  0  0  0  0  0  0  0  0  0  0
   -0.0000   -9.6073    0.0000 C   0  0  0  0  0  0  0  0  0  0  0  0
   -1.2990  -10.3573    0.0000 N   0  0  0  0  0  0  0  0  0  0  0  0
   -1.2990  -11.8573    0.0000 C   0  0  0  0  0  0  0  0  0  0  0  0
   -2.5981  -12.6073    0.0000 C   0  0  0  0  0  0  0  0  0  0  0  0
   -3.8971  -11.8573    0.0000 C   0  0  0  0  0  0  0  0  0  0  0  0
   -5.1962  -12.6073    0.0000 C   0  0  0  0  0  0  0  0  0  0  0  0
   -5.1962  -14.1073    0.0000 C   0  0  0  0  0  0  0  0  0  0  0  0
   -3.8971  -14.8573    0.0000 C   0  0  0  0  0  0  0  0  0  0  0  0
   -3.8971  -16.3573    0.0000 O   0  0  0  0  0  0  0  0  0  0  0  0
   -5.1962  -17.1073    0.0000 C   0  0  0  0  0  0  0  0  0  0  0  0
   -2.5981  -14.1073    0.0000 C   0  0  0  0  0  0  0  0  0  0  0  0
   -0.0000  -12.6073    0.0000 C   0  0  0  0  0  0  0  0  0  0  0  0
   -0.0000  -14.1073    0.0000 C   0  0  0  0  0  0  0  0  0  0  0  0
   -0.0000  -15.6073    0.0000 N   0  0  0  0  0  0  0  0  0  0  0  0
    1.2990  -11.8573    0.0000 C   0  0  0  0  0  0  0  0  0  0  0  0
    2.5981  -12.6073    0.0000 O   0  0  0  0  0  0  0  0  0  0  0  0
    1.2990  -10.3573    0.0000 N   0  0  0  0  0  0  0  0  0  0  0  0
   -1.2990   -5.8573    0.0000 C   0  0  0  0  0  0  0  0  0  0  0  0
   -2.5981   -5.1073    0.0000 O   0  0  0  0  0  0  0  0  0  0  0  0
   -0.0000   -5.1073    0.0000 N   0  0  0  0  0  0  0  0  0  0  0  0
   -0.0000   -3.6073    0.0000 C   0  0  0  0  0  0  0  0  0  0  0  0
   -1.2135   -2.7256    0.0000 S   0  0  0  0  0  0  0  0  0  0  0  0
   -0.7500   -1.2990    0.0000 C   0  0  0  0  0  0  0  0  0  0  0  0
    0.7500   -1.2990    0.0000 C   0  0  0  0  0  0  0  0  0  0  0  0
    1.2135   -2.7256    0.0000 C   0  0  0  0  0  0  0  0  0  0  0  0
    2.6401   -3.1891    0.0000 C   0  0  0  0  0  0  0  0  0  0  0  0
    4.0667   -3.6527    0.0000 N   0  0  0  0  0  0  0  0  0  0  0  0
    1.5000    0.0000    0.0000 C   0  0  0  0  0  0  0  0  0  0  0  0
    0.7500    1.2990    0.0000 C   0  0  0  0  0  0  0  0  0  0  0  0
   -0.7500    1.2990    0.0000 C   0  0  0  0  0  0  0  0  0  0  0  0
   -1.5000    0.0000    0.0000 C   0  0  0  0  0  0  0  0  0  0  0  0
  1  2  1  0
  3  2  1  6
  3  4  1  0
  4  5  1  0
  5  6  2  0
  6  7  1  0
  7  8  1  0
  8  9  2  0
  9 10  1  0
 10 11  2  0
 11 12  1  0
 12 13  1  0
 13 14  1  0
 12 15  2  0
  7 16  2  0
 16 17  1  0
 17 18  3  0
 16 19  1  0
 19 20  2  0
 19 21  1  0
  3 22  1  0
 22 23  2  0
 22 24  1  0
 24 25  1  0
 25 26  1  0
 26 27  1  0
 27 28  2  0
 28 29  1  0
 29 30  1  0
 30 31  3  0
 28 32  1  0
 32 33  1  0
 33 34  1  0
 34 35  1  0
 21  5  1  0
 29 25  2  0
 15  8  1  0
 35 27  1  0
M  END
>  <Compound_ID>  (308) 
C02757920

>  <Active>  (308) 
0.0

>  <Smiles>  (308) 
CC[C@@H](Sc1nc(-c2cccc(OC)c2)c(C#N)c(=O)[nH]1)C(=O)Nc1sc2c(c1C#N)CCCC2

>  <canonical_smi>  (308) 
CC[C@@H](Sc1nc(-c2cccc(OC)c2)c(C#N)c(=O)[nH]1)C(=O)Nc1sc2c(c1C#N)CCCC2

>  <Set>  (308) 
G2 inactive

>  <Set_type>  (308) 
Test

>  <MW>  (308) 
505.63

>  <HBD>  (308) 
2

>  <HBA>  (308) 
7

>  <NRB>  (308) 
7

>  <NR>  (308) 
4

>  <NAR>  (308) 
3

>  <PSA>  (308) 
131.66

>  <Standard Type>  (308) 
nan

>  <Standard Relation>  (308) 
nan

>  <Standard Units>  (308) 
nan

>  <Standard Value>  (308) 
nan

>  <Assay ChEMBL ID>  (308) 
nan

>  <Assay Description>  (308) 
nan

>  <BAO Label>  (308) 
nan

$$$$

     RDKit          2D

 37 40  0  0  0  0  0  0  0  0999 V2000
    3.0000   18.1865    0.0000 C   0  0  0  0  0  0  0  0  0  0  0  0
    1.5000   18.1865    0.0000 C   0  0  0  0  0  0  0  0  0  0  0  0
    0.7500   19.4856    0.0000 C   0  0  0  0  0  0  0  0  0  0  0  0
   -0.7500   19.4856    0.0000 C   0  0  0  0  0  0  0  0  0  0  0  0
   -1.5000   18.1865    0.0000 C   0  0  0  0  0  0  0  0  0  0  0  0
   -0.7500   16.8875    0.0000 C   0  0  0  0  0  0  0  0  0  0  0  0
    0.7500   16.8875    0.0000 C   0  0  0  0  0  0  0  0  0  0  0  0
    1.5000   15.5885    0.0000 C   0  0  0  0  0  0  0  0  0  0  0  0
    0.7500   14.2894    0.0000 O   0  0  0  0  0  0  0  0  0  0  0  0
    1.5000   12.9904    0.0000 C   0  0  0  0  0  0  0  0  0  0  0  0
    3.0000   12.9904    0.0000 C   0  0  0  0  0  0  0  0  0  0  0  0
    3.7500   11.6913    0.0000 C   0  0  0  0  0  0  0  0  0  0  0  0
    3.0000   10.3923    0.0000 C   0  0  0  0  0  0  0  0  0  0  0  0
    3.7500    9.0933    0.0000 C   0  0  0  0  0  0  0  0  0  0  0  0
    3.0000    7.7942    0.0000 O   0  0  0  0  0  0  0  0  0  0  0  0
    5.2500    9.0933    0.0000 C   0  0  0  0  0  0  0  0  0  0  0  0
    6.1317   10.3068    0.0000 C   0  0  0  0  0  0  0  0  0  0  0  0
    5.6682   11.7334    0.0000 O   0  0  0  0  0  1  0  0  0  0  0  0
    7.5583    9.8433    0.0000 C   0  0  0  0  0  0  0  0  0  0  0  0
    8.7718   10.7249    0.0000 O   0  0  0  0  0  0  0  0  0  0  0  0
    7.5583    8.3433    0.0000 N   0  0  0  0  0  0  0  0  0  0  0  0
    8.7718    7.4616    0.0000 C   0  0  0  0  0  0  0  0  0  0  0  0
    8.6150    5.9698    0.0000 C   0  0  0  0  0  0  0  0  0  0  0  0
    9.8285    5.0881    0.0000 C   0  0  0  0  0  0  0  0  0  0  0  0
    9.6717    3.5963    0.0000 N   0  0  0  0  0  4  0  0  0  0  0  0
   10.8853    2.7147    0.0000 C   0  0  0  0  0  0  0  0  0  0  0  0
    8.3014    2.9862    0.0000 C   0  0  0  0  0  0  0  0  0  0  0  0
    6.1317    7.8797    0.0000 C   0  0  0  0  0  0  0  0  0  0  0  0
    5.6682    6.4532    0.0000 C   0  0  0  0  0  0  0  0  0  0  0  0
    4.2009    6.1413    0.0000 C   0  0  0  0  0  0  0  0  0  0  0  0
    3.7374    4.7147    0.0000 C   0  0  0  0  0  0  0  0  0  0  0  0
    4.7411    3.6000    0.0000 C   0  0  0  0  0  0  0  0  0  0  0  0
    6.2083    3.9119    0.0000 C   0  0  0  0  0  0  0  0  0  0  0  0
    7.2120    2.7971    0.0000 O   0  0  0  0  0  0  0  0  0  0  0  0
    6.6718    5.3384    0.0000 C   0  0  0  0  0  0  0  0  0  0  0  0
    1.5000   10.3923    0.0000 C   0  0  0  0  0  0  0  0  0  0  0  0
    0.7500   11.6913    0.0000 C   0  0  0  0  0  0  0  0  0  0  0  0
  1  2  1  0
  2  3  2  0
  3  4  1  0
  4  5  2  0
  5  6  1  0
  6  7  2  0
  7  8  1  0
  8  9  1  0
  9 10  1  0
 10 11  2  0
 11 12  1  0
 12 13  2  0
 13 14  1  0
 14 15  2  0
 14 16  1  0
 16 17  2  0
 17 18  1  0
 17 19  1  0
 19 20  2  0
 19 21  1  0
 21 22  1  0
 22 23  1  0
 23 24  1  0
 24 25  1  0
 25 26  1  0
 25 27  1  0
 21 28  1  0
 28 29  1  6
 29 30  2  0
 30 31  1  0
 31 32  2  0
 32 33  1  0
 33 34  1  0
 33 35  2  0
 13 36  1  0
 36 37  2  0
  7  2  1  0
 37 10  1  0
 28 16  1  0
 35 29  1  0
M  CHG  2  18  -1  25   1
M  END
>  <Compound_ID>  (309) 
C09374615

>  <Active>  (309) 
0.0

>  <Smiles>  (309) 
Cc1ccccc1COc1ccc(C(=O)C2=C([O-])C(=O)N(CCC[NH+](C)C)[C@@H]2c2cccc(O)c2)cc1

>  <canonical_smi>  (309) 
Cc1ccccc1COc1ccc(C(=O)C2=C([O-])C(=O)N(CCC[NH+](C)C)[C@@H]2c2cccc(O)c2)cc1

>  <Set>  (309) 
G2 inactive

>  <Set_type>  (309) 
Test

>  <MW>  (309) 
500.6

>  <HBD>  (309) 
2

>  <HBA>  (309) 
5

>  <NRB>  (309) 
10

>  <NR>  (309) 
4

>  <NAR>  (309) 
3

>  <PSA>  (309) 
94.34

>  <Standard Type>  (309) 
nan

>  <Standard Relation>  (309) 
nan

>  <Standard Units>  (309) 
nan

>  <Standard Value>  (309) 
nan

>  <Assay ChEMBL ID>  (309) 
nan

>  <Assay Description>  (309) 
nan

>  <BAO Label>  (309) 
nan

$$$$

     RDKit          2D

 40 44  0  0  0  0  0  0  0  0999 V2000
    3.7500   -1.2990    0.0000 C   0  0  0  0  0  0  0  0  0  0  0  0
    3.0000   -0.0000    0.0000 C   0  0  0  0  0  0  0  0  0  0  0  0
    1.5000   -0.0000    0.0000 C   0  0  0  0  0  0  0  0  0  0  0  0
    0.7500   -1.2990    0.0000 C   0  0  0  0  0  0  0  0  0  0  0  0
   -0.7500   -1.2990    0.0000 C   0  0  0  0  0  0  0  0  0  0  0  0
   -1.5000   -0.0000    0.0000 C   0  0  0  0  0  0  0  0  0  0  0  0
   -3.0000    0.0000    0.0000 N   0  0  0  0  0  0  0  0  0  0  0  0
   -3.7500    1.2990    0.0000 C   0  0  0  0  0  0  0  0  0  0  0  0
   -5.2418    1.4558    0.0000 C   0  0  0  0  0  0  0  0  0  0  0  0
   -6.2455    0.3411    0.0000 Cl  0  0  0  0  0  0  0  0  0  0  0  0
   -5.5537    2.9231    0.0000 C   0  0  0  0  0  0  0  0  0  0  0  0
   -6.3387    3.0614    0.0000 O   0  0  0  0  0  0  0  0  0  0  0  0
   -4.2546    3.6731    0.0000 N   0  0  0  0  0  0  0  0  0  0  0  0
   -4.0978    5.1648    0.0000 C   0  0  0  0  0  0  0  0  0  0  0  0
   -2.7275    5.7749    0.0000 C   0  0  0  0  0  0  0  0  0  0  0  0
   -2.5707    7.2667    0.0000 C   0  0  0  0  0  0  0  0  0  0  0  0
   -3.7842    8.1484    0.0000 C   0  0  0  0  0  0  0  0  0  0  0  0
   -5.1546    7.5383    0.0000 C   0  0  0  0  0  0  0  0  0  0  0  0
   -5.3113    6.0465    0.0000 C   0  0  0  0  0  0  0  0  0  0  0  0
   -6.6817    5.4364    0.0000 N   0  0  0  0  0  0  0  0  0  0  0  0
   -6.9935    3.9692    0.0000 C   0  0  0  0  0  0  0  0  0  0  0  0
   -6.6193    3.2653    0.0000 O   0  0  0  0  0  0  0  0  0  0  0  0
   -8.4853    3.8124    0.0000 C   0  0  0  0  0  0  0  0  0  0  0  0
   -9.2353    2.5134    0.0000 Cl  0  0  0  0  0  0  0  0  0  0  0  0
   -9.0954    5.1827    0.0000 C   0  0  0  0  0  0  0  0  0  0  0  0
  -10.5626    5.4946    0.0000 N   0  0  0  0  0  0  0  0  0  0  0  0
  -11.0262    6.9212    0.0000 C   0  0  0  0  0  0  0  0  0  0  0  0
  -10.0225    8.0359    0.0000 C   0  0  0  0  0  0  0  0  0  0  0  0
  -10.4860    9.4625    0.0000 C   0  0  0  0  0  0  0  0  0  0  0  0
  -11.9532    9.7743    0.0000 C   0  0  0  0  0  0  0  0  0  0  0  0
  -12.4167   11.2009    0.0000 C   0  0  0  0  0  0  0  0  0  0  0  0
  -11.4130   12.3156    0.0000 C   0  0  0  0  0  0  0  0  0  0  0  0
  -12.9569    8.6596    0.0000 C   0  0  0  0  0  0  0  0  0  0  0  0
  -12.4934    7.2330    0.0000 C   0  0  0  0  0  0  0  0  0  0  0  0
   -7.9807    6.1864    0.0000 C   0  0  0  0  0  0  0  0  0  0  0  0
   -8.1375    7.6782    0.0000 O   0  0  0  0  0  0  0  0  0  0  0  0
   -3.1399    2.6694    0.0000 C   0  0  0  0  0  0  0  0  0  0  0  0
   -1.6727    2.9812    0.0000 O   0  0  0  0  0  0  0  0  0  0  0  0
   -0.7500    1.2990    0.0000 C   0  0  0  0  0  0  0  0  0  0  0  0
    0.7500    1.2990    0.0000 C   0  0  0  0  0  0  0  0  0  0  0  0
  1  2  1  0
  2  3  1  0
  3  4  2  0
  4  5  1  0
  5  6  2  0
  6  7  1  0
  7  8  1  0
  8  9  2  0
  9 10  1  0
  9 11  1  0
 11 12  2  0
 11 13  1  0
 13 14  1  0
 14 15  2  0
 15 16  1  0
 16 17  2  0
 17 18  1  0
 18 19  2  0
 19 20  1  0
 20 21  1  0
 21 22  2  0
 21 23  1  0
 23 24  1  0
 23 25  2  0
 25 26  1  0
 26 27  1  0
 27 28  2  0
 28 29  1  0
 29 30  2  0
 30 31  1  0
 31 32  1  0
 30 33  1  0
 33 34  2  0
 25 35  1  0
 35 36  2  0
 13 37  1  0
 37 38  2  0
  6 39  1  0
 39 40  2  0
 40  3  1  0
 37  8  1  0
 19 14  1  0
 35 20  1  0
 34 27  1  0
M  END
>  <Compound_ID>  (310) 
C01806068

>  <Active>  (310) 
0.0

>  <Smiles>  (310) 
CCc1ccc(NC2=C(Cl)C(=O)N(c3ccccc3N3C(=O)C(Cl)=C(Nc4ccc(CC)cc4)C3=O)C2=O)cc1

>  <canonical_smi>  (310) 
CCc1ccc(NC2=C(Cl)C(=O)N(c3ccccc3N3C(=O)C(Cl)=C(Nc4ccc(CC)cc4)C3=O)C2=O)cc1

>  <Set>  (310) 
G2 inactive

>  <Set_type>  (310) 
Test

>  <MW>  (310) 
575.45

>  <HBD>  (310) 
2

>  <HBA>  (310) 
6

>  <NRB>  (310) 
8

>  <NR>  (310) 
5

>  <NAR>  (310) 
3

>  <PSA>  (310) 
98.82

>  <Standard Type>  (310) 
nan

>  <Standard Relation>  (310) 
nan

>  <Standard Units>  (310) 
nan

>  <Standard Value>  (310) 
nan

>  <Assay ChEMBL ID>  (310) 
nan

>  <Assay Description>  (310) 
nan

>  <BAO Label>  (310) 
nan

$$$$

     RDKit          2D

 27 30  0  0  0  0  0  0  0  0999 V2000
   -2.5459  -12.0818    0.0000 C   0  0  0  0  0  0  0  0  0  0  0  0
   -2.9016  -10.6245    0.0000 C   0  0  0  0  0  0  0  0  0  0  0  0
   -1.7429   -9.6719    0.0000 C   0  0  0  0  0  0  0  0  0  0  0  0
   -1.7654   -8.1720    0.0000 C   0  0  0  0  0  0  0  0  0  0  0  0
   -2.9520   -7.2544    0.0000 N   0  0  0  0  0  4  0  0  0  0  0  0
   -2.6401   -5.7872    0.0000 C   0  0  0  0  0  0  0  0  0  0  0  0
   -1.2135   -5.3237    0.0000 C   0  0  0  0  0  0  0  0  0  0  0  0
   -0.0000   -6.2054    0.0000 C   0  0  0  0  0  0  0  0  0  0  0  0
    0.0000   -7.7054    0.0000 O   0  0  0  0  0  0  0  0  0  0  0  0
    1.2135   -5.3237    0.0000 O   0  0  0  0  0  0  0  0  0  0  0  0
    0.7500   -3.8971    0.0000 C   0  0  0  0  0  0  0  0  0  0  0  0
    1.5000   -2.5981    0.0000 C   0  0  0  0  0  0  0  0  0  0  0  0
    0.7500   -1.2990    0.0000 C   0  0  0  0  0  0  0  0  0  0  0  0
    2.2500   -1.2990    0.0000 C   0  0  0  0  0  0  0  0  0  0  0  0
    1.5000    0.0000    0.0000 C   0  0  0  0  0  0  0  0  0  0  0  0
    0.7500    1.2990    0.0000 C   0  0  0  0  0  0  0  0  0  0  0  0
   -0.7500    1.2990    0.0000 C   0  0  0  0  0  0  0  0  0  0  0  0
   -1.5000    0.0000    0.0000 C   0  0  0  0  0  0  0  0  0  0  0  0
   -3.0000    0.0000    0.0000 C   0  0  0  0  0  0  0  0  0  0  0  0
   -0.7500   -1.2990    0.0000 C   0  0  0  0  0  0  0  0  0  0  0  0
   -1.5000   -2.5981    0.0000 C   0  0  0  0  0  0  0  0  0  0  0  0
   -0.7500   -3.8971    0.0000 C   0  0  0  0  0  0  0  0  0  0  0  0
   -4.4092   -7.6101    0.0000 C   0  0  0  0  0  0  0  0  0  0  0  0
   -5.0397   -8.9711    0.0000 C   0  0  0  0  0  0  0  0  0  0  0  0
   -6.1984   -9.9238    0.0000 C   0  0  0  0  0  0  0  0  0  0  0  0
   -6.2264   -8.0535    0.0000 C   0  0  0  0  0  0  0  0  0  0  0  0
   -4.3688  -10.3127    0.0000 C   0  0  0  0  0  0  0  0  0  0  0  0
  2  1  1  1
  2  3  1  0
  3  4  1  0
  4  5  1  0
  5  6  1  0
  7  6  1  6
  7  8  1  0
  8  9  2  0
  8 10  1  0
 10 11  1  0
 11 12  1  1
 12 13  1  0
 13 14  1  6
 13 15  1  0
 15 16  1  0
 16 17  1  0
 17 18  1  0
 18 19  1  1
 18 20  1  0
 20 21  2  0
 22 21  1  1
  5 23  1  0
 23 24  1  0
 24 25  1  0
 24 26  1  0
 24 27  1  0
 27  2  1  0
 22  7  1  0
 22 11  1  0
 20 13  1  0
M  CHG  1   5   1
M  END
>  <Compound_ID>  (311) 
C43736021

>  <Active>  (311) 
0.0

>  <Smiles>  (311) 
C[C@@H]1CC[NH+](C[C@H]2C(=O)O[C@@H]3C[C@]4(C)CCC[C@H](C)C4=C[C@@H]32)CC(C)(C)C1

>  <canonical_smi>  (311) 
C[C@@H]1CC[NH+](C[C@H]2C(=O)O[C@@H]3C[C@]4(C)CCC[C@H](C)C4=C[C@H]23)CC(C)(C)C1

>  <Set>  (311) 
G2 inactive

>  <Set_type>  (311) 
Test

>  <MW>  (311) 
374.59

>  <HBD>  (311) 
1

>  <HBA>  (311) 
2

>  <NRB>  (311) 
2

>  <NR>  (311) 
4

>  <NAR>  (311) 
0

>  <PSA>  (311) 
30.74

>  <Standard Type>  (311) 
nan

>  <Standard Relation>  (311) 
nan

>  <Standard Units>  (311) 
nan

>  <Standard Value>  (311) 
nan

>  <Assay ChEMBL ID>  (311) 
nan

>  <Assay Description>  (311) 
nan

>  <BAO Label>  (311) 
nan

$$$$

     RDKit          2D

 32 35  0  0  0  0  0  0  0  0999 V2000
    3.0000    0.0000    0.0000 C   0  0  0  0  0  0  0  0  0  0  0  0
    1.5000    0.0000    0.0000 C   0  0  0  0  0  0  0  0  0  0  0  0
    0.7500   -1.2990    0.0000 C   0  0  0  0  0  0  0  0  0  0  0  0
   -0.7500   -1.2990    0.0000 N   0  0  0  0  0  0  0  0  0  0  0  0
   -1.5000   -2.5981    0.0000 S   0  0  0  0  0  0  0  0  0  0  0  0
   -0.2010   -3.3481    0.0000 O   0  0  0  0  0  0  0  0  0  0  0  0
   -2.7990   -1.8481    0.0000 O   0  0  0  0  0  0  0  0  0  0  0  0
   -2.2500   -3.8971    0.0000 C   0  0  0  0  0  0  0  0  0  0  0  0
   -3.7500   -3.8971    0.0000 C   0  0  0  0  0  0  0  0  0  0  0  0
   -4.5000   -5.1962    0.0000 C   0  0  0  0  0  0  0  0  0  0  0  0
   -3.7500   -6.4952    0.0000 C   0  0  0  0  0  0  0  0  0  0  0  0
   -2.2500   -6.4952    0.0000 C   0  0  0  0  0  0  0  0  0  0  0  0
   -1.5000   -7.7942    0.0000 C   0  0  0  0  0  0  0  0  0  0  0  0
   -0.0082   -7.9510    0.0000 C   0  0  0  0  0  0  0  0  0  0  0  0
    0.3037   -9.4182    0.0000 S   0  0  0  0  0  0  0  0  0  0  0  0
   -0.9954  -10.1682    0.0000 C   0  0  0  0  0  0  0  0  0  0  0  0
   -1.1522  -11.6600    0.0000 N   0  0  0  0  0  0  0  0  0  0  0  0
    0.0613  -12.5417    0.0000 N   0  0  0  0  0  0  0  0  0  0  0  0
   -0.0954  -14.0335    0.0000 C   0  0  0  0  0  0  0  0  0  0  0  0
    1.1181  -14.9152    0.0000 C   0  0  0  0  0  0  0  0  0  0  0  0
    0.9613  -16.4069    0.0000 C   0  0  0  0  0  0  0  0  0  0  0  0
    2.1748  -17.2886    0.0000 C   0  0  0  0  0  0  0  0  0  0  0  0
    3.5451  -16.6785    0.0000 C   0  0  0  0  0  0  0  0  0  0  0  0
    4.7587  -17.5602    0.0000 Cl  0  0  0  0  0  0  0  0  0  0  0  0
    3.7019  -15.1867    0.0000 C   0  0  0  0  0  0  0  0  0  0  0  0
    2.4884  -14.3051    0.0000 C   0  0  0  0  0  0  0  0  0  0  0  0
   -2.1101   -9.1645    0.0000 N   0  0  0  0  0  0  0  0  0  0  0  0
   -1.5000   -5.1962    0.0000 C   0  0  0  0  0  0  0  0  0  0  0  0
   -1.5000    0.0000    0.0000 C   0  0  0  0  0  0  0  0  0  0  0  0
   -0.7500    1.2990    0.0000 C   0  0  0  0  0  0  0  0  0  0  0  0
   -1.5000    2.5981    0.0000 C   0  0  0  0  0  0  0  0  0  0  0  0
    0.7500    1.2990    0.0000 O   0  0  0  0  0  0  0  0  0  0  0  0
  2  1  1  6
  2  3  1  0
  3  4  1  0
  4  5  1  0
  5  6  2  0
  5  7  2  0
  5  8  1  0
  8  9  2  0
  9 10  1  0
 10 11  2  0
 11 12  1  0
 12 13  1  0
 13 14  2  0
 14 15  1  0
 15 16  1  0
 16 17  2  0
 17 18  1  0
 18 19  2  0
 19 20  1  0
 20 21  2  0
 21 22  1  0
 22 23  2  0
 23 24  1  0
 23 25  1  0
 25 26  2  0
 16 27  1  0
 12 28  2  0
  4 29  1  0
 29 30  1  0
 30 31  1  6
 30 32  1  0
 32  2  1  0
 28  8  1  0
 27 13  1  0
 26 20  1  0
M  END
>  <Compound_ID>  (312) 
C17250670

>  <Active>  (312) 
0.0

>  <Smiles>  (312) 
C[C@@H]1CN(S(=O)(=O)c2cccc(-c3cs/c(=N\N=C\c4ccc(Cl)cc4)[nH]3)c2)C[C@H](C)O1

>  <canonical_smi>  (312) 
C[C@H]1CN(S(=O)(=O)c2cccc(-c3cs/c(=N\N=C\c4ccc(Cl)cc4)[nH]3)c2)C[C@@H](C)O1

>  <Set>  (312) 
G2 inactive

>  <Set_type>  (312) 
Test

>  <MW>  (312) 
491.04

>  <HBD>  (312) 
1

>  <HBA>  (312) 
3

>  <NRB>  (312) 
5

>  <NR>  (312) 
4

>  <NAR>  (312) 
3

>  <PSA>  (312) 
87.12

>  <Standard Type>  (312) 
nan

>  <Standard Relation>  (312) 
nan

>  <Standard Units>  (312) 
nan

>  <Standard Value>  (312) 
nan

>  <Assay ChEMBL ID>  (312) 
nan

>  <Assay Description>  (312) 
nan

>  <BAO Label>  (312) 
nan

$$$$

     RDKit          2D

 32 35  0  0  0  0  0  0  0  0999 V2000
   -6.0000   -7.7942    0.0000 C   0  0  0  0  0  0  0  0  0  0  0  0
   -5.2500   -6.4952    0.0000 C   0  0  0  0  0  0  0  0  0  0  0  0
   -6.0000   -5.1962    0.0000 C   0  0  0  0  0  0  0  0  0  0  0  0
   -5.2500   -3.8971    0.0000 C   0  0  0  0  0  0  0  0  0  0  0  0
   -6.0000   -2.5981    0.0000 C   0  0  0  0  0  0  0  0  0  0  0  0
   -3.7500   -3.8971    0.0000 C   0  0  0  0  0  0  0  0  0  0  0  0
   -3.0000   -5.1962    0.0000 C   0  0  0  0  0  0  0  0  0  0  0  0
   -1.5000   -5.1962    0.0000 O   0  0  0  0  0  0  0  0  0  0  0  0
   -0.7500   -3.8971    0.0000 C   0  0  0  0  0  0  0  0  0  0  0  0
    0.7500   -3.8971    0.0000 C   0  0  0  0  0  0  0  0  0  0  0  0
    1.5000   -2.5981    0.0000 O   0  0  0  0  0  0  0  0  0  0  0  0
    0.7500   -1.2990    0.0000 C   0  0  0  0  0  0  0  0  0  0  0  0
    1.5000    0.0000    0.0000 C   0  0  0  0  0  0  0  0  0  0  0  0
    0.7500    1.2990    0.0000 C   0  0  0  0  0  0  0  0  0  0  0  0
    1.5000    2.5981    0.0000 O   0  0  0  0  0  0  0  0  0  0  0  0
    3.0000    2.5981    0.0000 C   0  0  0  0  0  0  0  0  0  0  0  0
    3.7500    3.8971    0.0000 C   0  0  0  0  0  0  0  0  0  0  0  0
    3.0000    5.1962    0.0000 O   0  0  0  0  0  0  0  0  0  0  0  0
    5.2500    3.8971    0.0000 C   0  0  0  0  0  0  0  0  0  0  0  0
    6.0000    5.1962    0.0000 N   0  0  0  0  0  4  0  0  0  0  0  0
    7.5000    5.1962    0.0000 C   0  0  0  0  0  0  0  0  0  0  0  0
    8.2500    6.4952    0.0000 C   0  0  0  0  0  0  0  0  0  0  0  0
    7.5000    7.7942    0.0000 C   0  0  0  0  0  0  0  0  0  0  0  0
    6.0000    7.7942    0.0000 C   0  0  0  0  0  0  0  0  0  0  0  0
    5.2500    6.4952    0.0000 C   0  0  0  0  0  0  0  0  0  0  0  0
    3.7500    6.4952    0.0000 C   0  0  0  0  0  0  0  0  0  0  0  0
   -0.7500    1.2990    0.0000 C   0  0  0  0  0  0  0  0  0  0  0  0
   -1.5000    0.0000    0.0000 C   0  0  0  0  0  0  0  0  0  0  0  0
   -0.7500   -1.2990    0.0000 C   0  0  0  0  0  0  0  0  0  0  0  0
   -1.5000   -2.5981    0.0000 C   0  0  0  0  0  0  0  0  0  0  0  0
   -3.0000   -2.5981    0.0000 O   0  0  0  0  0  0  0  0  0  0  0  0
   -3.7500   -6.4952    0.0000 C   0  0  0  0  0  0  0  0  0  0  0  0
  1  2  1  0
  2  3  2  0
  3  4  1  0
  4  5  1  0
  4  6  2  0
  6  7  1  0
  7  8  1  0
  8  9  1  0
  9 10  2  0
 10 11  1  0
 11 12  1  0
 12 13  2  0
 13 14  1  0
 14 15  1  0
 15 16  1  0
 16 17  1  0
 17 18  1  1
 17 19  1  0
 19 20  1  0
 20 21  1  0
 21 22  1  0
 22 23  1  0
 23 24  1  0
 24 25  1  0
 25 26  1  1
 14 27  2  0
 27 28  1  0
 28 29  2  0
 29 30  1  0
 30 31  2  0
  7 32  2  0
 32  2  1  0
 30  9  1  0
 29 12  1  0
 25 20  1  0
M  CHG  1  20   1
M  END
>  <Compound_ID>  (313) 
C08763874

>  <Active>  (313) 
0.0

>  <Smiles>  (313) 
Cc1cc(C)cc(Oc2coc3cc(OC[C@@H](O)C[NH+]4CCCC[C@@H]4C)ccc3c2=O)c1

>  <canonical_smi>  (313) 
Cc1cc(C)cc(Oc2coc3cc(OC[C@@H](O)C[NH+]4CCCC[C@@H]4C)ccc3c2=O)c1

>  <Set>  (313) 
G2 inactive

>  <Set_type>  (313) 
Test

>  <MW>  (313) 
438.54

>  <HBD>  (313) 
2

>  <HBA>  (313) 
5

>  <NRB>  (313) 
7

>  <NR>  (313) 
4

>  <NAR>  (313) 
3

>  <PSA>  (313) 
73.34

>  <Standard Type>  (313) 
nan

>  <Standard Relation>  (313) 
nan

>  <Standard Units>  (313) 
nan

>  <Standard Value>  (313) 
nan

>  <Assay ChEMBL ID>  (313) 
nan

>  <Assay Description>  (313) 
nan

>  <BAO Label>  (313) 
nan

$$$$

     RDKit          2D

 47 52  0  0  0  0  0  0  0  0999 V2000
   -5.2500   -3.8971    0.0000 C   0  0  0  0  0  0  0  0  0  0  0  0
   -3.7500   -3.8971    0.0000 O   0  0  0  0  0  0  0  0  0  0  0  0
   -3.0000   -2.5981    0.0000 C   0  0  0  0  0  0  0  0  0  0  0  0
   -1.5000   -2.5981    0.0000 C   0  0  0  0  0  0  0  0  0  0  0  0
   -0.7500   -1.2990    0.0000 C   0  0  0  0  0  0  0  0  0  0  0  0
    0.7500   -1.2990    0.0000 C   0  0  0  0  0  0  0  0  0  0  0  0
    1.5000   -2.5981    0.0000 O   0  0  0  0  0  0  0  0  0  0  0  0
    3.0000   -2.5981    0.0000 C   0  0  0  0  0  0  0  0  0  0  0  0
    3.7500   -3.8971    0.0000 C   0  0  0  0  0  0  0  0  0  0  0  0
    5.2500   -3.8971    0.0000 C   0  0  0  0  0  0  0  0  0  0  0  0
    6.0000   -2.5981    0.0000 C   0  0  0  0  0  0  0  0  0  0  0  0
    7.5000   -2.5981    0.0000 N   0  0  0  0  0  0  0  0  0  0  0  0
    8.2500   -3.8971    0.0000 S   0  0  0  0  0  0  0  0  0  0  0  0
    6.9510   -4.6471    0.0000 O   0  0  0  0  0  0  0  0  0  0  0  0
    9.5490   -3.1471    0.0000 O   0  0  0  0  0  0  0  0  0  0  0  0
    9.0000   -5.1962    0.0000 C   0  0  0  0  0  0  0  0  0  0  0  0
    8.2500   -6.4952    0.0000 C   0  0  0  0  0  0  0  0  0  0  0  0
    9.0000   -7.7942    0.0000 C   0  0  0  0  0  0  0  0  0  0  0  0
   10.5000   -7.7942    0.0000 C   0  0  0  0  0  0  0  0  0  0  0  0
   11.2500   -6.4952    0.0000 C   0  0  0  0  0  0  0  0  0  0  0  0
   12.7500   -6.4952    0.0000 C   0  0  0  0  0  0  0  0  0  0  0  0
   13.6317   -5.2817    0.0000 C   0  0  0  0  0  0  0  0  0  0  0  0
   15.0583   -5.7452    0.0000 N   0  0  0  0  0  0  0  0  0  0  0  0
   15.0583   -7.2452    0.0000 N   0  0  0  0  0  0  0  0  0  0  0  0
   16.2718   -8.1269    0.0000 C   0  0  0  0  0  0  0  0  0  0  0  0
   13.6317   -7.7087    0.0000 C   0  0  0  0  0  0  0  0  0  0  0  0
   10.5000   -5.1962    0.0000 C   0  0  0  0  0  0  0  0  0  0  0  0
    5.2500   -1.2990    0.0000 C   0  0  0  0  0  0  0  0  0  0  0  0
    3.7500   -1.2990    0.0000 C   0  0  0  0  0  0  0  0  0  0  0  0
    3.0000   -0.0000    0.0000 F   0  0  0  0  0  0  0  0  0  0  0  0
    1.5000    0.0000    0.0000 C   0  0  0  0  0  0  0  0  0  0  0  0
    0.7500    1.2990    0.0000 C   0  0  0  0  0  0  0  0  0  0  0  0
   -0.7500    1.2990    0.0000 N   0  0  0  0  0  0  0  0  0  0  0  0
   -1.5000    0.0000    0.0000 C   0  0  0  0  0  0  0  0  0  0  0  0
   -3.0000    0.0000    0.0000 C   0  0  0  0  0  0  0  0  0  0  0  0
   -3.7500   -1.2990    0.0000 C   0  0  0  0  0  0  0  0  0  0  0  0
   -5.2500   -1.2990    0.0000 O   0  0  0  0  0  0  0  0  0  0  0  0
   -6.0000    0.0000    0.0000 C   0  0  0  0  0  0  0  0  0  0  0  0
   -7.5000    0.0000    0.0000 C   0  0  0  0  0  0  0  0  0  0  0  0
   -8.2500    1.2990    0.0000 C   0  0  0  0  0  0  0  0  0  0  0  0
   -9.7500    1.2990    0.0000 N   0  0  0  0  0  0  0  0  0  0  0  0
  -10.5000    2.5981    0.0000 C   0  0  0  0  0  0  0  0  0  0  0  0
  -12.0000    2.5981    0.0000 C   0  0  0  0  0  0  0  0  0  0  0  0
  -12.7500    1.2990    0.0000 N   0  0  0  0  0  0  0  0  0  0  0  0
  -14.2500    1.2990    0.0000 C   0  0  0  0  0  0  0  0  0  0  0  0
  -12.0000    0.0000    0.0000 C   0  0  0  0  0  0  0  0  0  0  0  0
  -10.5000    0.0000    0.0000 C   0  0  0  0  0  0  0  0  0  0  0  0
  1  2  1  0
  2  3  1  0
  3  4  2  0
  4  5  1  0
  5  6  2  0
  6  7  1  0
  7  8  1  0
  8  9  2  0
  9 10  1  0
 10 11  2  0
 11 12  1  0
 12 13  1  0
 13 14  2  0
 13 15  2  0
 13 16  1  0
 16 17  2  0
 17 18  1  0
 18 19  2  0
 19 20  1  0
 20 21  1  0
 21 22  1  0
 22 23  2  0
 23 24  1  0
 24 25  1  0
 24 26  1  0
 20 27  2  0
 11 28  1  0
 28 29  2  0
 29 30  1  0
  6 31  1  0
 31 32  2  0
 32 33  1  0
 33 34  2  0
 34 35  1  0
 35 36  2  0
 36 37  1  0
 37 38  1  0
 38 39  1  0
 39 40  1  0
 40 41  1  0
 41 42  1  0
 42 43  1  0
 43 44  1  0
 44 45  1  0
 44 46  1  0
 46 47  1  0
 36  3  1  0
 47 41  1  0
 34  5  1  0
 29  8  1  0
 27 16  1  0
 26 21  2  0
M  END
>  <Compound_ID>  (314) 
CHEMBL3263962

>  <Active>  (314) 
1.0

>  <Smiles>  (314) 
COc1cc2c(Oc3ccc(NS(=O)(=O)c4cccc(-c5cnn(C)c5)c4)cc3F)ccnc2cc1OCCCN1CCN(C)CC1

>  <canonical_smi>  (314) 
COc1cc2c(Oc3ccc(NS(=O)(=O)c4cccc(-c5cnn(C)c5)c4)cc3F)ccnc2cc1OCCCN1CCN(C)CC1

>  <Set>  (314) 
G2 active

>  <Set_type>  (314) 
External

>  <MW>  (314) 
660.77

>  <HBD>  (314) 
1

>  <HBA>  (314) 
9

>  <NRB>  (314) 
12

>  <NR>  (314) 
6

>  <NAR>  (314) 
5

>  <PSA>  (314) 
111.05

>  <Standard Type>  (314) 
IC50

>  <Standard Relation>  (314) 
'='

>  <Standard Units>  (314) 
nM

>  <Standard Value>  (314) 
564.0

>  <Assay ChEMBL ID>  (314) 
CHEMBL3266281

>  <Assay Description>  (314) 
Inhibition of recombinant c-MET (unknown origin) using poly-AEKY peptide as substrate after 60 mins by ADPGlo assay

>  <BAO Label>  (314) 
single protein format

$$$$

     RDKit          2D

 27 31  0  0  0  0  0  0  0  0999 V2000
  -12.8202   -9.9998    0.0000 F   0  0  0  0  0  0  0  0  0  0  0  0
  -11.5211   -9.2498    0.0000 C   0  0  0  0  0  0  0  0  0  0  0  0
  -11.5211   -7.7498    0.0000 C   0  0  0  0  0  0  0  0  0  0  0  0
  -10.2221   -6.9998    0.0000 C   0  0  0  0  0  0  0  0  0  0  0  0
   -8.9231   -7.7498    0.0000 C   0  0  0  0  0  0  0  0  0  0  0  0
   -7.6240   -6.9998    0.0000 C   0  0  0  0  0  0  0  0  0  0  0  0
   -6.2537   -7.6099    0.0000 N   0  0  0  0  0  0  0  0  0  0  0  0
   -5.2500   -6.4952    0.0000 C   0  0  0  0  0  0  0  0  0  0  0  0
   -3.7500   -6.4952    0.0000 C   0  0  0  0  0  0  0  0  0  0  0  0
   -3.0000   -5.1962    0.0000 C   0  0  0  0  0  0  0  0  0  0  0  0
   -3.7500   -3.8971    0.0000 C   0  0  0  0  0  0  0  0  0  0  0  0
   -3.0000   -2.5981    0.0000 N   0  0  0  0  0  0  0  0  0  0  0  0
   -1.5000   -2.5981    0.0000 C   0  0  0  0  0  0  0  0  0  0  0  0
   -0.7500   -3.8971    0.0000 N   0  0  0  0  0  0  0  0  0  0  0  0
    0.7500   -3.8971    0.0000 C   0  0  0  0  0  0  0  0  0  0  0  0
    1.5000   -2.5981    0.0000 N   0  0  0  0  0  0  0  0  0  0  0  0
    0.7500   -1.2990    0.0000 C   0  0  0  0  0  0  0  0  0  0  0  0
    1.5000    0.0000    0.0000 C   0  0  0  0  0  0  0  0  0  0  0  0
    0.7500    1.2990    0.0000 C   0  0  0  0  0  0  0  0  0  0  0  0
   -0.7500    1.2990    0.0000 C   0  0  0  0  0  0  0  0  0  0  0  0
   -1.5000    0.0000    0.0000 C   0  0  0  0  0  0  0  0  0  0  0  0
   -0.7500   -1.2990    0.0000 C   0  0  0  0  0  0  0  0  0  0  0  0
   -5.2500   -3.8971    0.0000 C   0  0  0  0  0  0  0  0  0  0  0  0
   -6.0000   -5.1962    0.0000 C   0  0  0  0  0  0  0  0  0  0  0  0
   -7.4672   -5.5080    0.0000 N   0  0  0  0  0  0  0  0  0  0  0  0
   -8.9231   -9.2498    0.0000 C   0  0  0  0  0  0  0  0  0  0  0  0
  -10.2221   -9.9998    0.0000 C   0  0  0  0  0  0  0  0  0  0  0  0
  1  2  1  0
  2  3  2  0
  3  4  1  0
  4  5  2  0
  5  6  1  0
  6  7  2  0
  7  8  1  0
  8  9  2  0
  9 10  1  0
 10 11  2  0
 11 12  1  0
 12 13  1  0
 13 14  2  0
 14 15  1  0
 15 16  2  0
 16 17  1  0
 17 18  2  0
 18 19  1  0
 19 20  2  0
 20 21  1  0
 21 22  2  0
 11 23  1  0
 23 24  2  0
 24 25  1  0
  5 26  1  0
 26 27  2  0
 27  2  1  0
 25  6  1  0
 24  8  1  0
 22 13  1  0
 22 17  1  0
M  END
>  <Compound_ID>  (315) 
CHEMBL3321901

>  <Active>  (315) 
1.0

>  <Smiles>  (315) 
Fc1ccc(-c2nc3ccc(Nc4ncnc5ccccc45)cc3[nH]2)cc1

>  <canonical_smi>  (315) 
Fc1ccc(-c2nc3ccc(Nc4ncnc5ccccc45)cc3[nH]2)cc1

>  <Set>  (315) 
G2 active

>  <Set_type>  (315) 
External

>  <MW>  (315) 
355.38

>  <HBD>  (315) 
2

>  <HBA>  (315) 
4

>  <NRB>  (315) 
3

>  <NR>  (315) 
5

>  <NAR>  (315) 
5

>  <PSA>  (315) 
66.49

>  <Standard Type>  (315) 
IC50

>  <Standard Relation>  (315) 
'='

>  <Standard Units>  (315) 
nM

>  <Standard Value>  (315) 
50.0

>  <Assay ChEMBL ID>  (315) 
CHEMBL3368963

>  <Assay Description>  (315) 
Inhibition of human recombinant c-Met pre-incubated for 5 mins before ATP/substrate peptide cocktail addition measured after 30 mins by colorimetric ELISA assay

>  <BAO Label>  (315) 
single protein format

$$$$

     RDKit          2D

 35 38  0  0  0  0  0  0  0  0999 V2000
    3.7500   -1.2990    0.0000 C   0  0  0  0  0  0  0  0  0  0  0  0
    3.0000   -2.5981    0.0000 C   0  0  0  0  0  0  0  0  0  0  0  0
    1.5000   -2.5981    0.0000 S   0  0  0  0  0  0  0  0  0  0  0  0
    0.7500   -1.2990    0.0000 C   0  0  0  0  0  0  0  0  0  0  0  0
    1.5000    0.0000    0.0000 C   0  0  0  0  0  0  0  0  0  0  0  0
    0.7500    1.2990    0.0000 C   0  0  0  0  0  0  0  0  0  0  0  0
    1.5000    2.5981    0.0000 C   0  0  0  0  0  0  0  0  0  0  0  0
    3.0000    2.5981    0.0000 C   0  0  0  0  0  0  0  0  0  0  0  0
    3.7500    3.8971    0.0000 C   0  0  0  0  0  0  0  0  0  0  0  0
    3.0000    5.1962    0.0000 C   0  0  0  0  0  0  0  0  0  0  0  0
    3.7500    6.4952    0.0000 O   0  0  0  0  0  0  0  0  0  0  0  0
    5.2500    6.4952    0.0000 C   0  0  0  0  0  0  0  0  0  0  0  0
    6.0000    7.7942    0.0000 C   0  0  0  0  0  0  0  0  0  0  0  0
    5.2500    9.0933    0.0000 O   0  0  0  0  0  0  0  0  0  0  0  0
    7.5000    7.7942    0.0000 N   0  0  0  0  0  0  0  0  0  0  0  0
    8.2500    6.4952    0.0000 C   0  0  0  0  0  0  0  0  0  0  0  0
    9.7500    6.4952    0.0000 C   0  0  0  0  0  0  0  0  0  0  0  0
   10.5000    7.7942    0.0000 O   0  0  0  0  0  0  0  0  0  0  0  0
    9.7500    9.0933    0.0000 C   0  0  0  0  0  0  0  0  0  0  0  0
    8.2500    9.0933    0.0000 C   0  0  0  0  0  0  0  0  0  0  0  0
    1.5000    5.1962    0.0000 C   0  0  0  0  0  0  0  0  0  0  0  0
    0.7500    3.8971    0.0000 C   0  0  0  0  0  0  0  0  0  0  0  0
   -0.7500    1.2990    0.0000 C   0  0  0  0  0  0  0  0  0  0  0  0
   -1.5000    0.0000    0.0000 N   0  0  0  0  0  0  0  0  0  0  0  0
   -0.7500   -1.2990    0.0000 C   0  0  0  0  0  0  0  0  0  0  0  0
   -1.5000   -2.5981    0.0000 N   0  0  0  0  0  0  0  0  0  0  0  0
    3.7500   -3.8971    0.0000 C   0  0  0  0  0  0  0  0  0  0  0  0
    3.0000   -5.1962    0.0000 C   0  0  0  0  0  0  0  0  0  0  0  0
    1.5000   -5.1962    0.0000 Cl  0  0  0  0  0  0  0  0  0  0  0  0
    3.7500   -6.4952    0.0000 C   0  0  0  0  0  0  0  0  0  0  0  0
    5.2500   -6.4952    0.0000 C   0  0  0  0  0  0  0  0  0  0  0  0
    6.0000   -5.1962    0.0000 C   0  0  0  0  0  0  0  0  0  0  0  0
    7.5000   -5.1962    0.0000 F   0  0  0  0  0  0  0  0  0  0  0  0
    5.2500   -3.8971    0.0000 C   0  0  0  0  0  0  0  0  0  0  0  0
    6.0000   -2.5981    0.0000 Cl  0  0  0  0  0  0  0  0  0  0  0  0
  1  2  1  0
  2  3  1  0
  3  4  1  0
  4  5  2  0
  5  6  1  0
  6  7  1  0
  7  8  2  0
  8  9  1  0
  9 10  2  0
 10 11  1  0
 11 12  1  0
 12 13  1  0
 13 14  2  0
 13 15  1  0
 15 16  1  0
 16 17  1  0
 17 18  1  0
 18 19  1  0
 19 20  1  0
 10 21  1  0
 21 22  2  0
  6 23  2  0
 23 24  1  0
 24 25  2  0
 25 26  1  0
  2 27  1  0
 27 28  2  0
 28 29  1  0
 28 30  1  0
 30 31  2  0
 31 32  1  0
 32 33  1  0
 32 34  2  0
 34 35  1  0
 25  4  1  0
 34 27  1  0
 22  7  1  0
 20 15  1  0
M  END
>  <Compound_ID>  (316) 
CHEMBL2442139

>  <Active>  (316) 
1.0

>  <Smiles>  (316) 
CC(Sc1cc(-c2ccc(OCC(=O)N3CCOCC3)cc2)cnc1N)c1c(Cl)ccc(F)c1Cl

>  <canonical_smi>  (316) 
CC(Sc1cc(-c2ccc(OCC(=O)N3CCOCC3)cc2)cnc1N)c1c(Cl)ccc(F)c1Cl

>  <Set>  (316) 
G2 active

>  <Set_type>  (316) 
External

>  <MW>  (316) 
536.46

>  <HBD>  (316) 
1

>  <HBA>  (316) 
6

>  <NRB>  (316) 
7

>  <NR>  (316) 
4

>  <NAR>  (316) 
3

>  <PSA>  (316) 
77.68

>  <Standard Type>  (316) 
IC50

>  <Standard Relation>  (316) 
'='

>  <Standard Units>  (316) 
nM

>  <Standard Value>  (316) 
50.5

>  <Assay ChEMBL ID>  (316) 
CHEMBL2447158

>  <Assay Description>  (316) 
Inhibition of c-Met (unknown origin) using poly (Glu, Tyr) 4:1 as substrate after 60 mins by ELISA

>  <BAO Label>  (316) 
single protein format

$$$$

     RDKit          2D

 26 29  0  0  0  0  0  0  0  0999 V2000
   -4.0646    5.2283    0.0000 C   0  0  0  0  0  3  0  0  0  0  0  0
   -2.9499    4.2246    0.0000 N   0  0  0  0  0  4  0  0  0  0  0  0
   -1.8351    3.2209    0.0000 C   0  0  0  0  0  0  0  0  0  0  0  0
   -0.4086    3.6844    0.0000 C   0  0  0  0  0  0  0  0  0  0  0  0
   -0.0967    5.1517    0.0000 C   0  0  0  0  0  0  0  0  0  0  0  0
    1.3299    5.6152    0.0000 F   0  0  0  0  0  0  0  0  0  0  0  0
   -1.2114    6.1554    0.0000 F   0  0  0  0  0  0  0  0  0  0  0  0
    0.7062    2.6807    0.0000 N   0  0  0  0  0  0  0  0  0  0  0  0
    0.3943    1.2135    0.0000 C   0  0  0  0  0  0  0  0  0  0  0  0
    1.2760    0.0000    0.0000 O   0  0  0  0  0  0  0  0  0  0  0  0
    0.3943   -1.2135    0.0000 N   0  0  0  0  0  0  0  0  0  0  0  0
   -1.0323   -0.7500    0.0000 C   0  0  0  0  0  0  0  0  0  0  0  0
   -2.2458   -1.6317    0.0000 C   0  0  0  0  0  0  0  0  0  0  0  0
   -1.0323    0.7500    0.0000 C   0  0  0  0  0  0  0  0  0  0  0  0
   -2.1470    1.7537    0.0000 C   0  0  0  0  0  0  0  0  0  0  0  0
   -3.5736    1.2902    0.0000 C   0  0  0  0  0  0  0  0  0  0  0  0
   -3.8855   -0.1771    0.0000 C   0  0  0  0  0  0  0  0  0  0  0  0
   -5.3120   -0.6406    0.0000 C   0  0  0  0  0  0  0  0  0  0  0  0
   -5.9221   -2.0109    0.0000 C   0  0  0  0  0  0  0  0  0  0  0  0
   -5.1721   -3.3099    0.0000 C   0  0  0  0  0  0  0  0  0  0  0  0
   -7.4139   -1.8541    0.0000 N   0  0  0  0  0  0  0  0  0  0  0  0
   -7.7258   -0.3869    0.0000 N   0  0  0  0  0  0  0  0  0  0  0  0
   -6.4268    0.3631    0.0000 C   0  0  0  0  0  0  0  0  0  0  0  0
   -6.1149    1.8303    0.0000 C   0  0  0  0  0  0  0  0  0  0  0  0
   -4.6883    2.2939    0.0000 C   0  0  0  0  0  0  0  0  0  0  0  0
   -4.3764    3.7611    0.0000 F   0  0  0  0  0  0  0  0  0  0  0  0
  1  2  3  0
  2  3  1  0
  3  4  2  0
  4  5  1  0
  5  6  1  0
  5  7  1  0
  4  8  1  0
  8  9  1  0
  9 10  1  0
 10 11  1  0
 11 12  2  0
 12 13  1  0
 12 14  1  0
 14 15  1  0
 15 16  1  0
 16 17  2  0
 17 18  1  0
 18 19  1  0
 19 20  1  0
 19 21  2  0
 21 22  1  0
 22 23  1  0
 23 24  1  0
 24 25  2  0
 25 26  1  0
 15  3  1  0
 25 16  1  0
 14  9  2  0
 23 18  2  0
M  CHG  2   1  -1   2   1
M  END
>  <Compound_ID>  (317) 
CHEMBL3678512

>  <Active>  (317) 
1.0

>  <Smiles>  (317) 
[C-]#[N+]C1=C(C(F)F)Nc2onc(C)c2C1c1cc2c(C)n[nH]c2cc1F

>  <canonical_smi>  (317) 
[C-]#[N+]C1=C(C(F)F)Nc2onc(C)c2C1c1cc2c(C)n[nH]c2cc1F

>  <Set>  (317) 
G2 active

>  <Set_type>  (317) 
External

>  <MW>  (317) 
359.31

>  <HBD>  (317) 
2

>  <HBA>  (317) 
4

>  <NRB>  (317) 
2

>  <NR>  (317) 
4

>  <NAR>  (317) 
3

>  <PSA>  (317) 
71.1

>  <Standard Type>  (317) 
IC50

>  <Standard Relation>  (317) 
'='

>  <Standard Units>  (317) 
nM

>  <Standard Value>  (317) 
100.0

>  <Assay ChEMBL ID>  (317) 
CHEMBL3706315

>  <Assay Description>  (317) 
Tyrosine Kinase Activity Assay: Recombinant human c-Met protein (Invitrogen, Carlsbad, Calif., USA) is used. As substrate for the kinase reaction the peptide KKKSPGEYVNIEFG (JPT, Germany) is used. For the assay, 1 uL of a 51-fold concentrated solution of the test compound in DMSO is pipetted into a white 384-well microtiter plate (Greiner Bio-One, Frickenhausen, Germany). 25 uL of a solution of c-Met (final concentration 30 nM) and pyruvate kinase/lactate dehydrogenase (Roche Diagnostics, Mannheim, Germany; final concentration 8 mg/L) in assay buffer [3-(N-morpholino)propanesulfonic acid (MOPS), 50 mM, pH 7; MgCl2, 10 mM; bovine serum albumin (BSA), 0.01%; Triton X 100, 0.01%; DTT, 2 mM] are added, and the mixture is incubated for 5 min at room temperature. Then, the kinase reaction is started by the addition of 25 uL of a solution of adenosine triphosphate (ATP, final concentration 30 uM), substrate (final concentration 100 uM), nicotinamide adenine dinucleotide.

>  <BAO Label>  (317) 
single protein format

$$$$

     RDKit          2D

 22 24  0  0  0  0  0  0  0  0999 V2000
   -3.0000   -2.5981    0.0000 O   0  0  0  0  0  0  0  0  0  0  0  0
   -1.5000   -2.5981    0.0000 C   0  0  0  0  0  0  0  0  0  0  0  0
   -0.7500   -3.8971    0.0000 C   0  0  0  0  0  0  0  0  0  0  0  0
   -1.5000   -5.1962    0.0000 O   0  0  0  0  0  0  0  0  0  0  0  0
    0.7500   -3.8971    0.0000 C   0  0  0  0  0  0  0  0  0  0  0  0
    1.5000   -5.1962    0.0000 C   0  0  0  0  0  0  0  0  0  0  0  0
    0.7500   -6.4952    0.0000 C   0  0  0  0  0  0  0  0  0  0  0  0
    1.5000   -7.7942    0.0000 C   0  0  0  0  0  0  0  0  0  0  0  0
    3.0000   -7.7942    0.0000 C   0  0  0  0  0  0  0  0  0  0  0  0
    3.7500   -9.0933    0.0000 O   0  0  0  0  0  0  0  0  0  0  0  0
    3.7500   -6.4952    0.0000 C   0  0  0  0  0  0  0  0  0  0  0  0
    5.2500   -6.4952    0.0000 O   0  0  0  0  0  0  0  0  0  0  0  0
    3.0000   -5.1962    0.0000 C   0  0  0  0  0  0  0  0  0  0  0  0
    1.5000   -2.5981    0.0000 O   0  0  0  0  0  0  0  0  0  0  0  0
    0.7500   -1.2990    0.0000 C   0  0  0  0  0  0  0  0  0  0  0  0
    1.5000    0.0000    0.0000 C   0  0  0  0  0  0  0  0  0  0  0  0
    0.7500    1.2990    0.0000 C   0  0  0  0  0  0  0  0  0  0  0  0
    1.5000    2.5981    0.0000 O   0  0  0  0  0  0  0  0  0  0  0  0
   -0.7500    1.2990    0.0000 C   0  0  0  0  0  0  0  0  0  0  0  0
   -1.5000    0.0000    0.0000 C   0  0  0  0  0  0  0  0  0  0  0  0
   -3.0000    0.0000    0.0000 O   0  0  0  0  0  0  0  0  0  0  0  0
   -0.7500   -1.2990    0.0000 C   0  0  0  0  0  0  0  0  0  0  0  0
  1  2  2  0
  2  3  1  0
  3  4  1  0
  3  5  2  0
  5  6  1  0
  6  7  2  0
  7  8  1  0
  8  9  2  0
  9 10  1  0
  9 11  1  0
 11 12  1  0
 11 13  2  0
  5 14  1  0
 14 15  1  0
 15 16  2  0
 16 17  1  0
 17 18  1  0
 17 19  2  0
 19 20  1  0
 20 21  1  0
 20 22  2  0
 22  2  1  0
 13  6  1  0
 22 15  1  0
M  END
>  <Compound_ID>  (318) 
CHEMBL50

>  <Active>  (318) 
1.0

>  <Smiles>  (318) 
O=c1c(O)c(-c2ccc(O)c(O)c2)oc2cc(O)cc(O)c12

>  <canonical_smi>  (318) 
O=c1c(O)c(-c2ccc(O)c(O)c2)oc2cc(O)cc(O)c12

>  <Set>  (318) 
G2 active

>  <Set_type>  (318) 
External

>  <MW>  (318) 
302.24

>  <HBD>  (318) 
5

>  <HBA>  (318) 
7

>  <NRB>  (318) 
1

>  <NR>  (318) 
3

>  <NAR>  (318) 
3

>  <PSA>  (318) 
131.36

>  <Standard Type>  (318) 
IC50

>  <Standard Relation>  (318) 
'='

>  <Standard Units>  (318) 
nM

>  <Standard Value>  (318) 
580.0

>  <Assay ChEMBL ID>  (318) 
CHEMBL3108321

>  <Assay Description>  (318) 
Inhibition of wild type MET (unknown origin)

>  <BAO Label>  (318) 
single protein format

$$$$

     RDKit          2D

 32 34  0  0  0  0  0  0  0  0999 V2000
   12.0000   -5.1962    0.0000 C   0  0  0  0  0  0  0  0  0  0  0  0
   10.5000   -5.1962    0.0000 N   0  0  0  0  0  0  0  0  0  0  0  0
    9.7500   -6.4952    0.0000 C   0  0  0  0  0  0  0  0  0  0  0  0
    9.7500   -3.8971    0.0000 C   0  0  0  0  0  0  0  0  0  0  0  0
    8.2500   -3.8971    0.0000 C   0  0  0  0  0  0  0  0  0  0  0  0
    7.5000   -2.5981    0.0000 C   0  0  0  0  0  0  0  0  0  0  0  0
    6.0000   -2.5981    0.0000 C   0  0  0  0  0  0  0  0  0  0  0  0
    5.2500   -1.2990    0.0000 O   0  0  0  0  0  0  0  0  0  0  0  0
    3.7500   -1.2990    0.0000 C   0  0  0  0  0  0  0  0  0  0  0  0
    3.0000   -2.5981    0.0000 O   0  0  0  0  0  0  0  0  0  0  0  0
    3.0000    0.0000    0.0000 N   0  0  0  0  0  0  0  0  0  0  0  0
    1.5000    0.0000    0.0000 C   0  0  0  0  0  0  0  0  0  0  0  0
    0.7500   -1.2990    0.0000 C   0  0  0  0  0  0  0  0  0  0  0  0
   -0.7500   -1.2990    0.0000 C   0  0  0  0  0  0  0  0  0  0  0  0
   -1.5000    0.0000    0.0000 C   0  0  0  0  0  0  0  0  0  0  0  0
   -0.7500    1.2990    0.0000 C   0  0  0  0  0  0  0  0  0  0  0  0
   -1.5000    2.5981    0.0000 C   0  0  0  0  0  0  0  0  0  0  0  0
   -0.7500    3.8971    0.0000 N   0  0  0  0  0  0  0  0  0  0  0  0
    0.7500    3.8971    0.0000 N   0  0  0  0  0  0  0  0  0  0  0  0
    1.5000    5.1962    0.0000 C   0  0  0  0  0  0  0  0  0  0  0  0
    3.0000    5.1962    0.0000 N   0  0  0  0  0  0  0  0  0  0  0  0
    3.7500    3.8971    0.0000 C   0  0  0  0  0  0  0  0  0  0  0  0
    3.0000    2.5981    0.0000 C   0  0  0  0  0  0  0  0  0  0  0  0
    3.7500    1.2990    0.0000 C   0  0  0  0  0  0  0  0  0  0  0  0
    5.2500    1.2990    0.0000 C   0  0  0  0  0  0  0  0  0  0  0  0
    6.0000    2.5981    0.0000 C   0  0  0  0  0  0  0  0  0  0  0  0
    5.2500    3.8971    0.0000 C   0  0  0  0  0  0  0  0  0  0  0  0
    0.7500    6.4952    0.0000 C   0  0  0  0  0  0  0  0  0  0  0  0
   -0.7500    6.4952    0.0000 C   0  0  0  0  0  0  0  0  0  0  0  0
   -1.5000    5.1962    0.0000 C   0  0  0  0  0  0  0  0  0  0  0  0
   -3.0000    5.1962    0.0000 O   0  0  0  0  0  0  0  0  0  0  0  0
    0.7500    1.2990    0.0000 C   0  0  0  0  0  0  0  0  0  0  0  0
  1  2  1  0
  2  3  1  0
  2  4  1  0
  4  5  1  0
  5  6  1  0
  6  7  1  0
  7  8  1  0
  8  9  1  0
  9 10  2  0
  9 11  1  0
 11 12  1  0
 12 13  2  0
 13 14  1  0
 14 15  2  0
 15 16  1  0
 16 17  1  0
 17 18  1  0
 18 19  1  0
 19 20  2  0
 20 21  1  0
 21 22  1  0
 22 23  2  0
 23 24  1  0
 24 25  2  0
 25 26  1  0
 26 27  2  0
 20 28  1  0
 28 29  2  0
 29 30  1  0
 30 31  2  0
 16 32  2  0
 32 12  1  0
 30 18  1  0
 27 22  1  0
M  END
>  <Compound_ID>  (319) 
CHEMBL3417459

>  <Active>  (319) 
1.0

>  <Smiles>  (319) 
CN(C)CCCCOC(=O)Nc1cccc(Cn2nc(Nc3ccccc3)ccc2=O)c1

>  <canonical_smi>  (319) 
CN(C)CCCCOC(=O)Nc1cccc(Cn2nc(Nc3ccccc3)ccc2=O)c1

>  <Set>  (319) 
G2 active

>  <Set_type>  (319) 
External

>  <MW>  (319) 
435.53

>  <HBD>  (319) 
2

>  <HBA>  (319) 
6

>  <NRB>  (319) 
10

>  <NR>  (319) 
3

>  <NAR>  (319) 
3

>  <PSA>  (319) 
88.49

>  <Standard Type>  (319) 
IC50

>  <Standard Relation>  (319) 
'='

>  <Standard Units>  (319) 
nM

>  <Standard Value>  (319) 
360.0

>  <Assay ChEMBL ID>  (319) 
CHEMBL3420280

>  <Assay Description>  (319) 
Inhibition of recombinant c-Met (unknown origin) using poly (Glu,Tyr)4:1 substrate incubated for 60 mins by ELISA method

>  <BAO Label>  (319) 
single protein format

$$$$

     RDKit          2D

 27 30  0  0  0  0  0  0  0  0999 V2000
   -3.7500   -3.8971    0.0000 C   0  0  0  0  0  0  0  0  0  0  0  0
   -3.0000   -2.5981    0.0000 C   0  0  0  0  0  0  0  0  0  0  0  0
   -3.7500   -1.2990    0.0000 C   0  0  0  0  0  0  0  0  0  0  0  0
   -5.2500   -1.2990    0.0000 O   0  0  0  0  0  0  0  0  0  0  0  0
   -3.0000    0.0000    0.0000 C   0  0  0  0  0  0  0  0  0  0  0  0
   -3.7500    1.2990    0.0000 O   0  0  0  0  0  0  0  0  0  0  0  0
   -1.5000    0.0000    0.0000 C   0  0  0  0  0  0  0  0  0  0  0  0
   -0.7500   -1.2990    0.0000 C   0  0  0  0  0  0  0  0  0  0  0  0
   -1.5000   -2.5981    0.0000 C   0  0  0  0  0  0  0  0  0  0  0  0
   -0.7500   -3.8971    0.0000 C   0  0  0  0  0  0  0  0  0  0  0  0
   -1.5000   -5.1962    0.0000 O   0  0  0  0  0  0  0  0  0  0  0  0
    0.7500   -1.2990    0.0000 C   0  0  0  0  0  0  0  0  0  0  0  0
    1.5000    0.0000    0.0000 O   0  0  0  0  0  0  0  0  0  0  0  0
    0.7500    1.2990    0.0000 C   0  0  0  0  0  0  0  0  0  0  0  0
   -0.7500    1.2990    0.0000 O   0  0  0  0  0  0  0  0  0  0  0  0
    2.2500    1.2990    0.0000 C   0  0  0  0  0  0  0  0  0  0  0  0
    3.0000    2.5981    0.0000 C   0  0  0  0  0  0  0  0  0  0  0  0
    2.2500    3.8971    0.0000 C   0  0  0  0  0  0  0  0  0  0  0  0
    4.5000    2.5981    0.0000 C   0  0  0  0  0  0  0  0  0  0  0  0
    5.2500    3.8971    0.0000 O   0  0  0  0  0  0  0  0  0  0  0  0
    5.2500    1.2990    0.0000 C   0  0  0  0  0  0  0  0  0  0  0  0
    6.7500    1.2990    0.0000 O   0  0  0  0  0  0  0  0  0  0  0  0
    4.5000   -0.0000    0.0000 C   0  0  0  0  0  0  0  0  0  0  0  0
    5.2500   -1.2990    0.0000 O   0  0  0  0  0  0  0  0  0  0  0  0
    3.0000   -0.0000    0.0000 C   0  0  0  0  0  0  0  0  0  0  0  0
    2.2500   -1.2990    0.0000 C   0  0  0  0  0  0  0  0  0  0  0  0
    3.0000   -2.5981    0.0000 O   0  0  0  0  0  0  0  0  0  0  0  0
  1  2  1  0
  2  3  2  0
  3  4  1  0
  3  5  1  0
  5  6  1  0
  5  7  2  0
  7  8  1  0
  8  9  2  0
  9 10  1  0
 10 11  2  0
  8 12  1  0
 12 13  1  0
 13 14  1  0
 14 15  1  6
 14 16  1  0
 16 17  2  0
 17 18  1  0
 17 19  1  0
 19 20  1  0
 19 21  2  0
 21 22  1  0
 21 23  1  0
 23 24  1  0
 23 25  2  0
 25 26  1  0
 26 27  2  0
  9  2  1  0
 12 26  1  6
 15  7  1  0
 25 16  1  0
M  END
>  <Compound_ID>  (320) 
CHEMBL3104851

>  <Active>  (320) 
1.0

>  <Smiles>  (320) 
Cc1c(O)c(O)c2c(c1C=O)[C@@H]1O[C@H](O2)c2c(C)c(O)c(O)c(O)c2C1=O

>  <canonical_smi>  (320) 
Cc1c(O)c(O)c2c(c1C=O)[C@@H]1O[C@H](O2)c2c(C)c(O)c(O)c(O)c2C1=O

>  <Set>  (320) 
G2 active

>  <Set_type>  (320) 
External

>  <MW>  (320) 
374.3

>  <HBD>  (320) 
5

>  <HBA>  (320) 
9

>  <NRB>  (320) 
1

>  <NR>  (320) 
4

>  <NAR>  (320) 
2

>  <PSA>  (320) 
153.75

>  <Standard Type>  (320) 
IC50

>  <Standard Relation>  (320) 
'='

>  <Standard Units>  (320) 
nM

>  <Standard Value>  (320) 
580.0

>  <Assay ChEMBL ID>  (320) 
CHEMBL3108321

>  <Assay Description>  (320) 
Inhibition of wild type MET (unknown origin)

>  <BAO Label>  (320) 
single protein format

$$$$

     RDKit          2D

 42 46  0  0  0  0  0  0  0  0999 V2000
    7.5000   -2.5981    0.0000 O   0  0  0  0  0  0  0  0  0  0  0  0
    6.0000   -2.5981    0.0000 C   0  0  0  0  0  0  0  0  0  0  0  0
    5.2500   -1.2990    0.0000 C   0  0  0  0  0  0  0  0  0  0  0  0
    3.7500   -1.2990    0.0000 C   0  0  0  0  0  0  0  0  0  0  0  0
    3.0000    0.0000    0.0000 N   0  0  0  0  0  0  0  0  0  0  0  0
    1.5000    0.0000    0.0000 C   0  0  0  0  0  0  0  0  0  0  0  0
    0.7500   -1.2990    0.0000 N   0  0  0  0  0  0  0  0  0  0  0  0
   -0.7500   -1.2990    0.0000 C   0  0  0  0  0  0  0  0  0  0  0  0
   -1.5000    0.0000    0.0000 C   0  0  0  0  0  0  0  0  0  0  0  0
   -0.7500    1.2990    0.0000 C   0  0  0  0  0  0  0  0  0  0  0  0
   -1.5000    2.5981    0.0000 C   0  0  0  0  0  0  0  0  0  0  0  0
   -2.9918    2.7549    0.0000 N   0  0  0  0  0  0  0  0  0  0  0  0
   -3.3037    4.2221    0.0000 C   0  0  0  0  0  0  0  0  0  0  0  0
   -4.6740    4.8322    0.0000 C   0  0  0  0  0  0  0  0  0  0  0  0
   -4.8308    6.3240    0.0000 C   0  0  0  0  0  0  0  0  0  0  0  0
   -3.6172    7.2057    0.0000 Cl  0  0  0  0  0  0  0  0  0  0  0  0
   -6.2011    6.9341    0.0000 C   0  0  0  0  0  0  0  0  0  0  0  0
   -7.4146    6.0524    0.0000 C   0  0  0  0  0  0  0  0  0  0  0  0
   -8.7849    6.6625    0.0000 O   0  0  0  0  0  0  0  0  0  0  0  0
   -8.9417    8.1543    0.0000 C   0  0  0  0  0  0  0  0  0  0  0  0
  -10.3120    8.7644    0.0000 C   0  0  0  0  0  0  0  0  0  0  0  0
  -10.4688   10.2562    0.0000 O   0  0  0  0  0  0  0  0  0  0  0  0
   -7.2578    4.5606    0.0000 C   0  0  0  0  0  0  0  0  0  0  0  0
   -5.8875    3.9505    0.0000 C   0  0  0  0  0  0  0  0  0  0  0  0
   -5.7307    2.4587    0.0000 Cl  0  0  0  0  0  0  0  0  0  0  0  0
   -2.0046    4.9721    0.0000 N   0  0  0  0  0  0  0  0  0  0  0  0
   -0.8899    3.9684    0.0000 C   0  0  0  0  0  0  0  0  0  0  0  0
    0.5773    4.2803    0.0000 C   0  0  0  0  0  0  0  0  0  0  0  0
    1.5810    3.1655    0.0000 C   0  0  0  0  0  0  0  0  0  0  0  0
    3.0482    3.4774    0.0000 C   0  0  0  0  0  0  0  0  0  0  0  0
    3.5118    4.9040    0.0000 C   0  0  0  0  0  0  0  0  0  0  0  0
    2.5081    6.0187    0.0000 C   0  0  0  0  0  0  0  0  0  0  0  0
    2.9716    7.4453    0.0000 O   0  0  0  0  0  0  0  0  0  0  0  0
    4.4388    7.7572    0.0000 C   0  0  0  0  0  0  0  0  0  0  0  0
    4.9023    9.1838    0.0000 C   0  0  0  0  0  0  0  0  0  0  0  0
    6.3696    9.4956    0.0000 C   0  0  0  0  0  0  0  0  0  0  0  0
    6.8331   10.9222    0.0000 C   0  0  0  0  0  0  0  0  0  0  0  0
    5.8294   12.0369    0.0000 C   0  0  0  0  0  0  0  0  0  0  0  0
    4.3622   11.7251    0.0000 C   0  0  0  0  0  0  0  0  0  0  0  0
    3.8986   10.2985    0.0000 N   0  0  0  0  0  0  0  0  0  0  0  0
    1.0409    5.7068    0.0000 C   0  0  0  0  0  0  0  0  0  0  0  0
    0.7500    1.2990    0.0000 N   0  0  0  0  0  0  0  0  0  0  0  0
  1  2  1  0
  2  3  1  0
  3  4  1  0
  4  5  1  0
  5  6  1  0
  6  7  2  0
  7  8  1  0
  8  9  2  0
  9 10  1  0
 10 11  1  0
 11 12  1  0
 12 13  1  0
 13 14  1  0
 14 15  2  0
 15 16  1  0
 15 17  1  0
 17 18  2  0
 18 19  1  0
 19 20  1  0
 20 21  1  0
 21 22  1  0
 18 23  1  0
 23 24  2  0
 24 25  1  0
 13 26  2  0
 26 27  1  0
 27 28  1  0
 28 29  2  0
 29 30  1  0
 30 31  2  0
 31 32  1  0
 32 33  1  0
 33 34  1  0
 34 35  1  0
 35 36  2  0
 36 37  1  0
 37 38  2  0
 38 39  1  0
 39 40  2  0
 32 41  2  0
 10 42  2  0
 42  6  1  0
 27 11  2  0
 41 28  1  0
 24 14  1  0
 40 35  1  0
M  END
>  <Compound_ID>  (321) 
CHEMBL1822789

>  <Active>  (321) 
1.0

>  <Smiles>  (321) 
OCCCNc1nccc(-c2[nH]c(-c3c(Cl)cc(OCCO)cc3Cl)nc2-c2cccc(OCc3ccccn3)c2)n1

>  <canonical_smi>  (321) 
OCCCNc1nccc(-c2[nH]c(-c3c(Cl)cc(OCCO)cc3Cl)nc2-c2cccc(OCc3ccccn3)c2)n1

>  <Set>  (321) 
G2 active

>  <Set_type>  (321) 
External

>  <MW>  (321) 
607.5

>  <HBD>  (321) 
4

>  <HBA>  (321) 
9

>  <NRB>  (321) 
13

>  <NR>  (321) 
5

>  <NAR>  (321) 
5

>  <PSA>  (321) 
138.3

>  <Standard Type>  (321) 
IC50

>  <Standard Relation>  (321) 
'='

>  <Standard Units>  (321) 
nM

>  <Standard Value>  (321) 
22.0

>  <Assay ChEMBL ID>  (321) 
CHEMBL1826790

>  <Assay Description>  (321) 
Inhibition of human c-MET

>  <BAO Label>  (321) 
single protein format

$$$$

     RDKit          2D

 39 45  0  0  0  0  0  0  0  0999 V2000
    4.6740   -4.8322    0.0000 C   0  0  0  0  0  0  0  0  0  0  0  0
    3.3037   -4.2221    0.0000 N   0  0  0  0  0  0  0  0  0  0  0  0
    2.9918   -2.7549    0.0000 C   0  0  0  0  0  0  0  0  0  0  0  0
    1.5000   -2.5981    0.0000 C   0  0  0  0  0  0  0  0  0  0  0  0
    0.7500   -1.2990    0.0000 C   0  0  0  0  0  0  0  0  0  0  0  0
    1.5000    0.0000    0.0000 C   0  0  0  0  0  0  0  0  0  0  0  0
    0.7500    1.2990    0.0000 N   0  0  0  0  0  0  0  0  0  0  0  0
   -0.7500    1.2990    0.0000 C   0  0  0  0  0  0  0  0  0  0  0  0
   -1.7537    2.4138    0.0000 N   0  0  0  0  0  0  0  0  0  0  0  0
   -3.1240    1.8037    0.0000 N   0  0  0  0  0  0  0  0  0  0  0  0
   -2.9672    0.3119    0.0000 N   0  0  0  0  0  0  0  0  0  0  0  0
   -4.0819   -0.6918    0.0000 C   0  0  0  0  0  0  0  0  0  0  0  0
   -5.5085   -0.2283    0.0000 C   0  0  0  0  0  0  0  0  0  0  0  0
   -5.8204    1.2389    0.0000 C   0  0  0  0  0  0  0  0  0  0  0  0
   -7.2470    1.7024    0.0000 C   0  0  0  0  0  0  0  0  0  0  0  0
   -8.3617    0.6987    0.0000 C   0  0  0  0  0  0  0  0  0  0  0  0
   -8.0498   -0.7685    0.0000 N   0  0  0  0  0  0  0  0  0  0  0  0
   -9.1645   -1.7722    0.0000 C   0  0  0  0  0  0  0  0  0  0  0  0
  -10.5911   -1.3086    0.0000 N   0  0  0  0  0  0  0  0  0  0  0  0
  -11.7058   -2.3123    0.0000 C   0  0  0  0  0  0  0  0  0  0  0  0
  -11.3940   -3.7796    0.0000 C   0  0  0  0  0  0  0  0  0  0  0  0
  -12.5087   -4.7833    0.0000 C   0  0  0  0  0  0  0  0  0  0  0  0
  -12.3519   -6.2750    0.0000 C   0  0  0  0  0  0  0  0  0  0  0  0
  -13.7222   -6.8851    0.0000 N   0  0  0  0  0  0  0  0  0  0  0  0
  -14.7259   -5.7704    0.0000 N   0  0  0  0  0  0  0  0  0  0  0  0
  -16.2177   -5.9272    0.0000 C   0  0  0  0  0  0  0  0  0  0  0  0
  -17.0994   -4.7137    0.0000 C   0  0  0  0  0  0  0  0  0  0  0  0
  -18.5912   -4.8705    0.0000 C   0  0  0  0  0  0  0  0  0  0  0  0
  -19.2013   -6.2408    0.0000 N   0  0  0  0  0  0  0  0  0  0  0  0
  -18.3196   -7.4543    0.0000 C   0  0  0  0  0  0  0  0  0  0  0  0
  -16.8278   -7.2975    0.0000 C   0  0  0  0  0  0  0  0  0  0  0  0
  -13.9759   -4.4714    0.0000 C   0  0  0  0  0  0  0  0  0  0  0  0
   -9.9674   -4.2431    0.0000 C   0  0  0  0  0  0  0  0  0  0  0  0
   -8.8527   -3.2394    0.0000 N   0  0  0  0  0  0  0  0  0  0  0  0
   -6.6232   -1.2320    0.0000 C   0  0  0  0  0  0  0  0  0  0  0  0
   -1.5000    0.0000    0.0000 C   0  0  0  0  0  0  0  0  0  0  0  0
   -0.7500   -1.2990    0.0000 N   0  0  0  0  0  0  0  0  0  0  0  0
    0.8899   -3.9684    0.0000 C   0  0  0  0  0  0  0  0  0  0  0  0
    2.0046   -4.9721    0.0000 N   0  0  0  0  0  0  0  0  0  0  0  0
  1  2  1  0
  2  3  1  0
  3  4  2  0
  4  5  1  0
  5  6  2  0
  6  7  1  0
  7  8  2  0
  8  9  1  0
  9 10  2  0
 10 11  1  0
 11 12  1  0
 12 13  1  0
 13 14  1  0
 14 15  1  0
 15 16  1  0
 16 17  1  0
 17 18  1  0
 18 19  2  0
 19 20  1  0
 20 21  2  0
 21 22  1  0
 22 23  1  0
 23 24  2  0
 24 25  1  0
 25 26  1  0
 26 27  1  0
 27 28  1  0
 28 29  1  0
 29 30  1  0
 30 31  1  0
 25 32  1  0
 21 33  1  0
 33 34  2  0
 17 35  1  0
 11 36  1  0
 36 37  2  0
  4 38  1  0
 38 39  2  0
 39  2  1  0
 37  5  1  0
 36  8  1  0
 35 13  1  0
 34 18  1  0
 32 22  2  0
 31 26  1  0
M  END
>  <Compound_ID>  (322) 
CHEMBL3919372

>  <Active>  (322) 
1.0

>  <Smiles>  (322) 
Cn1cc(-c2cnc3nnn(CC4CCCN(c5ncc(-c6cnn(C7CCNCC7)c6)cn5)C4)c3n2)cn1

>  <canonical_smi>  (322) 
Cn1cc(-c2cnc3nnn(CC4CCCN(c5ncc(-c6cnn(C7CCNCC7)c6)cn5)C4)c3n2)cn1

>  <Set>  (322) 
G2 active

>  <Set_type>  (322) 
External

>  <MW>  (322) 
525.63

>  <HBD>  (322) 
1

>  <HBA>  (322) 
10

>  <NRB>  (322) 
6

>  <NR>  (322) 
7

>  <NAR>  (322) 
5

>  <PSA>  (322) 
133.18

>  <Standard Type>  (322) 
IC50

>  <Standard Relation>  (322) 
'='

>  <Standard Units>  (322) 
nM

>  <Standard Value>  (322) 
2.0

>  <Assay ChEMBL ID>  (322) 
CHEMBL3888808

>  <Assay Description>  (322) 
Lanthanide Fluoro-Immunoassay: The c-Met kinase inhibitory activity was analyzed using dissociation enhanced lanthanide fluoro-immunoassay (DELFIA, Perkin Elmer), which is a kind of time-resolved fluorescence (TRF). 10 mL of the compound prepared in the present invention, as a test compound, was put in a Greiner 96-well V-shaped bottom plate, and a tyrosin kinase buffer (20 mL) mixed with a c-Met enzyme was added thereto, and then the enzyme and the test compound were stirred for 15 minutes, followed by culturing. An ATP solution (10 mL) was added thereto to proceed with a kinase reaction at room temperature for 30 minutes, and then a 50 mM ethylene diamine acetic acid solution (EDTA, 40 mL) was added to stop the reaction. After that, the reaction mixture was transferred to a plate coated with Streptavidin, followed by culturing under shaking. After 2 hours, the cultured material was washed three times with a PBS-T buffer (PBS 0.05% Tween 20). The europium-labeled anti-phosphotyrosine antibody was diluted to 1:2,500, and 100 mL of the diluent was added per well, followed by culturing under shaking. After 1 hour, the cultured material was washed three times with a PBS-T buffer (PBS 0.05% Tween 20). 100 mL of an enhancement solution was added, followed by shaking culturing for 5 minutes, and then the reaction material was read out within a wavelength range of 615/665 nm using a Wallac Envision 2103 device.

>  <BAO Label>  (322) 
single protein format

$$$$

     RDKit          2D

 35 39  0  0  0  0  0  0  0  0999 V2000
   -2.6401   -3.1891    0.0000 N   0  0  0  0  0  0  0  0  0  0  0  0
   -1.2135   -2.7256    0.0000 C   0  0  0  0  0  0  0  0  0  0  0  0
   -0.0000   -3.6073    0.0000 N   0  0  0  0  0  0  0  0  0  0  0  0
    1.2135   -2.7256    0.0000 O   0  0  0  0  0  0  0  0  0  0  0  0
    0.7500   -1.2990    0.0000 C   0  0  0  0  0  0  0  0  0  0  0  0
    1.5000    0.0000    0.0000 C   0  0  0  0  0  0  0  0  0  0  0  0
    0.7500    1.2990    0.0000 C   0  0  0  0  0  0  0  0  0  0  0  0
   -0.7500    1.2990    0.0000 C   0  0  0  0  0  0  0  0  0  0  0  0
   -1.5000    0.0000    0.0000 C   0  0  0  0  0  0  0  0  0  0  0  0
   -3.0000    0.0000    0.0000 C   0  0  0  0  0  0  0  0  0  0  0  0
   -3.7500    1.2990    0.0000 C   0  0  0  0  0  0  0  0  0  0  0  0
   -5.2500    1.2990    0.0000 C   0  0  0  0  0  0  0  0  0  0  0  0
   -6.0000    0.0000    0.0000 C   0  0  0  0  0  0  0  0  0  0  0  0
   -7.5000    0.0000    0.0000 N   0  0  0  0  0  0  0  0  0  0  0  0
   -8.2500    1.2990    0.0000 C   0  0  0  0  0  0  0  0  0  0  0  0
   -7.5000    2.5981    0.0000 O   0  0  0  0  0  0  0  0  0  0  0  0
   -9.7500    1.2990    0.0000 C   0  0  0  0  0  0  0  0  0  0  0  0
  -10.0105   -0.1782    0.0000 C   0  0  0  0  0  0  0  0  0  0  0  0
   -8.8614   -1.1424    0.0000 O   0  0  0  0  0  0  0  0  0  0  0  0
  -11.4200   -0.6912    0.0000 N   0  0  0  0  0  0  0  0  0  0  0  0
  -11.6805   -2.1684    0.0000 C   0  0  0  0  0  0  0  0  0  0  0  0
  -13.0900   -2.6814    0.0000 C   0  0  0  0  0  0  0  0  0  0  0  0
  -13.3505   -4.1587    0.0000 C   0  0  0  0  0  0  0  0  0  0  0  0
  -12.2014   -5.1228    0.0000 C   0  0  0  0  0  0  0  0  0  0  0  0
  -12.4619   -6.6001    0.0000 C   0  0  0  0  0  0  0  0  0  0  0  0
  -12.7224   -8.0773    0.0000 F   0  0  0  0  0  0  0  0  0  0  0  0
  -13.9391   -6.3396    0.0000 F   0  0  0  0  0  0  0  0  0  0  0  0
  -10.9847   -6.8605    0.0000 F   0  0  0  0  0  0  0  0  0  0  0  0
  -10.7919   -4.6098    0.0000 C   0  0  0  0  0  0  0  0  0  0  0  0
  -10.5314   -3.1326    0.0000 C   0  0  0  0  0  0  0  0  0  0  0  0
  -11.1595    1.8121    0.0000 C   0  0  0  0  0  0  0  0  0  0  0  0
  -10.0105    2.7762    0.0000 C   0  0  0  0  0  0  0  0  0  0  0  0
   -5.2500   -1.2990    0.0000 C   0  0  0  0  0  0  0  0  0  0  0  0
   -3.7500   -1.2990    0.0000 C   0  0  0  0  0  0  0  0  0  0  0  0
   -0.7500   -1.2990    0.0000 C   0  0  0  0  0  0  0  0  0  0  0  0
  1  2  1  0
  2  3  2  0
  3  4  1  0
  4  5  1  0
  5  6  2  0
  6  7  1  0
  7  8  2  0
  8  9  1  0
  9 10  1  0
 10 11  2  0
 11 12  1  0
 12 13  2  0
 13 14  1  0
 14 15  1  0
 15 16  2  0
 15 17  1  0
 17 18  1  0
 18 19  2  0
 18 20  1  0
 20 21  1  0
 21 22  2  0
 22 23  1  0
 23 24  2  0
 24 25  1  0
 25 26  1  0
 25 27  1  0
 25 28  1  0
 24 29  1  0
 29 30  2  0
 17 31  1  0
 31 32  1  0
 13 33  1  0
 33 34  2  0
  9 35  2  0
 35  2  1  0
 35  5  1  0
 34 10  1  0
 32 17  1  0
 30 21  1  0
M  END
>  <Compound_ID>  (323) 
CHEMBL3394452

>  <Active>  (323) 
1.0

>  <Smiles>  (323) 
Nc1noc2cccc(-c3ccc(NC(=O)C4(C(=O)Nc5ccc(C(F)(F)F)cc5)CC4)cc3)c12

>  <canonical_smi>  (323) 
Nc1noc2cccc(-c3ccc(NC(=O)C4(C(=O)Nc5ccc(C(F)(F)F)cc5)CC4)cc3)c12

>  <Set>  (323) 
G2 active

>  <Set_type>  (323) 
External

>  <MW>  (323) 
480.45

>  <HBD>  (323) 
3

>  <HBA>  (323) 
5

>  <NRB>  (323) 
5

>  <NR>  (323) 
5

>  <NAR>  (323) 
4

>  <PSA>  (323) 
110.25

>  <Standard Type>  (323) 
IC50

>  <Standard Relation>  (323) 
'='

>  <Standard Units>  (323) 
nM

>  <Standard Value>  (323) 
566.0

>  <Assay ChEMBL ID>  (323) 
CHEMBL3396121

>  <Assay Description>  (323) 
Inhibition of purified recombinant c-MET (unknown origin) using poly (Glu, Tyr) substrate after 60 mins by ELISA

>  <BAO Label>  (323) 
single protein format

$$$$

     RDKit          2D

 39 43  0  0  0  0  0  0  0  0999 V2000
   -3.7500  -11.6913    0.0000 C   0  0  0  0  0  0  0  0  0  0  0  0
   -3.0000  -12.9904    0.0000 C   0  0  0  0  0  0  0  0  0  0  0  0
   -1.5000  -12.9904    0.0000 N   0  0  0  0  0  0  0  0  0  0  0  0
   -0.7500  -14.2894    0.0000 C   0  0  0  0  0  0  0  0  0  0  0  0
   -1.5000  -15.5885    0.0000 O   0  0  0  0  0  0  0  0  0  0  0  0
    0.7500  -14.2894    0.0000 C   0  0  0  0  0  0  0  0  0  0  0  0
    1.5000  -12.9904    0.0000 C   0  0  0  0  0  0  0  0  0  0  0  0
    3.0000  -12.9904    0.0000 C   0  0  0  0  0  0  0  0  0  0  0  0
    3.7500  -11.6913    0.0000 O   0  0  0  0  0  0  0  0  0  0  0  0
    3.0000  -10.3923    0.0000 C   0  0  0  0  0  0  0  0  0  0  0  0
    3.7500   -9.0933    0.0000 C   0  0  0  0  0  0  0  0  0  0  0  0
    3.0000   -7.7942    0.0000 C   0  0  0  0  0  0  0  0  0  0  0  0
    1.5000   -7.7942    0.0000 C   0  0  0  0  0  0  0  0  0  0  0  0
    0.7500   -6.4952    0.0000 N   0  0  0  0  0  0  0  0  0  0  0  0
    1.5000   -5.1962    0.0000 C   0  0  0  0  0  0  0  0  0  0  0  0
    3.0000   -5.1962    0.0000 O   0  0  0  0  0  0  0  0  0  0  0  0
    0.7500   -3.8971    0.0000 C   0  0  0  0  0  0  0  0  0  0  0  0
    1.5000   -2.5981    0.0000 C   0  0  0  0  0  0  0  0  0  0  0  0
    0.7500   -1.2990    0.0000 C   0  0  0  0  0  0  0  0  0  0  0  0
    1.5000    0.0000    0.0000 C   0  0  0  0  0  0  0  0  0  0  0  0
    0.7500    1.2990    0.0000 C   0  0  0  0  0  0  0  0  0  0  0  0
   -0.7500    1.2990    0.0000 C   0  0  0  0  0  0  0  0  0  0  0  0
   -1.5000    0.0000    0.0000 N   0  0  0  0  0  0  0  0  0  0  0  0
   -0.7500   -1.2990    0.0000 C   0  0  0  0  0  0  0  0  0  0  0  0
   -1.5000   -2.5981    0.0000 N   0  0  0  0  0  0  0  0  0  0  0  0
   -3.0000   -2.5981    0.0000 C   0  0  0  0  0  0  0  0  0  0  0  0
   -3.7500   -1.2990    0.0000 C   0  0  0  0  0  0  0  0  0  0  0  0
   -5.2500   -1.2990    0.0000 C   0  0  0  0  0  0  0  0  0  0  0  0
   -6.0000   -2.5981    0.0000 C   0  0  0  0  0  0  0  0  0  0  0  0
   -7.5000   -2.5981    0.0000 F   0  0  0  0  0  0  0  0  0  0  0  0
   -5.2500   -3.8971    0.0000 C   0  0  0  0  0  0  0  0  0  0  0  0
   -3.7500   -3.8971    0.0000 C   0  0  0  0  0  0  0  0  0  0  0  0
   -0.7500   -3.8971    0.0000 C   0  0  0  0  0  0  0  0  0  0  0  0
   -1.5000   -5.1962    0.0000 O   0  0  0  0  0  0  0  0  0  0  0  0
    0.7500   -9.0933    0.0000 C   0  0  0  0  0  0  0  0  0  0  0  0
    1.5000  -10.3923    0.0000 C   0  0  0  0  0  0  0  0  0  0  0  0
    3.7500  -14.2894    0.0000 C   0  0  0  0  0  0  0  0  0  0  0  0
    3.0000  -15.5885    0.0000 C   0  0  0  0  0  0  0  0  0  0  0  0
    1.5000  -15.5885    0.0000 N   0  0  0  0  0  0  0  0  0  0  0  0
  1  2  1  0
  2  3  1  0
  3  4  1  0
  4  5  2  0
  4  6  1  0
  6  7  2  0
  7  8  1  0
  8  9  1  0
  9 10  1  0
 10 11  2  0
 11 12  1  0
 12 13  2  0
 13 14  1  0
 14 15  1  0
 15 16  2  0
 15 17  1  0
 17 18  2  0
 18 19  1  0
 19 20  2  0
 20 21  1  0
 21 22  2  0
 22 23  1  0
 23 24  2  0
 24 25  1  0
 25 26  1  0
 26 27  2  0
 27 28  1  0
 28 29  2  0
 29 30  1  0
 29 31  1  0
 31 32  2  0
 25 33  1  0
 33 34  2  0
 13 35  1  0
 35 36  2  0
  8 37  2  0
 37 38  1  0
 38 39  2  0
 39  6  1  0
 36 10  1  0
 33 17  1  0
 24 19  1  0
 32 26  1  0
M  END
>  <Compound_ID>  (324) 
CHEMBL4214671

>  <Active>  (324) 
1.0

>  <Smiles>  (324) 
CCNC(=O)c1cc(Oc2ccc(NC(=O)c3cc4cccnc4n(-c4ccc(F)cc4)c3=O)cc2)ccn1

>  <canonical_smi>  (324) 
CCNC(=O)c1cc(Oc2ccc(NC(=O)c3cc4cccnc4n(-c4ccc(F)cc4)c3=O)cc2)ccn1

>  <Set>  (324) 
G2 active

>  <Set_type>  (324) 
External

>  <MW>  (324) 
523.52

>  <HBD>  (324) 
2

>  <HBA>  (324) 
6

>  <NRB>  (324) 
7

>  <NR>  (324) 
5

>  <NAR>  (324) 
5

>  <PSA>  (324) 
115.21

>  <Standard Type>  (324) 
IC50

>  <Standard Relation>  (324) 
'='

>  <Standard Units>  (324) 
nM

>  <Standard Value>  (324) 
8.24

>  <Assay ChEMBL ID>  (324) 
CHEMBL4185092

>  <Assay Description>  (324) 
Inhibition of c-MET (unknown origin) using poly (Glu, Tyr) 4:1 as substrate after 30 mins in presence of ATP by HTRF assay

>  <BAO Label>  (324) 
single protein format

$$$$

     RDKit          2D

 27 31  0  0  0  0  0  0  0  0999 V2000
    3.1036   -1.7626    0.0000 O   0  0  0  0  0  0  0  0  0  0  0  0
    2.6401   -3.1891    0.0000 S   0  0  0  0  0  0  0  0  0  0  0  0
    2.1766   -4.6157    0.0000 O   0  0  0  0  0  0  0  0  0  0  0  0
    4.0667   -3.6527    0.0000 C   0  0  0  0  0  0  0  0  0  0  0  0
    5.2802   -2.7710    0.0000 C   0  0  0  0  0  0  0  0  0  0  0  0
    5.2802   -1.2710    0.0000 Cl  0  0  0  0  0  0  0  0  0  0  0  0
    6.4937   -3.6527    0.0000 N   0  0  0  0  0  0  0  0  0  0  0  0
    6.0302   -5.0793    0.0000 C   0  0  0  0  0  0  0  0  0  0  0  0
    6.4937   -6.5058    0.0000 S   0  0  0  0  0  0  0  0  0  0  0  0
    5.2802   -7.3875    0.0000 C   0  0  0  0  0  0  0  0  0  0  0  0
    4.0667   -6.5058    0.0000 C   0  0  0  0  0  0  0  0  0  0  0  0
    4.5302   -5.0793    0.0000 N   0  0  0  0  0  0  0  0  0  0  0  0
    1.2135   -2.7256    0.0000 N   0  0  0  0  0  4  0  0  0  0  0  0
    0.7500   -1.2990    0.0000 C   0  0  0  0  0  0  0  0  0  0  0  0
    1.5000    0.0000    0.0000 C   0  0  0  0  0  0  0  0  0  0  0  0
    0.7500    1.2990    0.0000 C   0  0  0  0  0  0  0  0  0  0  0  0
    1.5000    2.5981    0.0000 N   0  0  0  0  0  0  0  0  0  0  0  0
    3.0000    2.5981    0.0000 C   0  0  0  0  0  0  0  0  0  0  0  0
    3.7500    3.8971    0.0000 C   0  0  0  0  0  0  0  0  0  0  0  0
    3.0000    5.1962    0.0000 N   0  0  0  0  0  0  0  0  0  0  0  0
    1.5000    5.1962    0.0000 C   0  0  0  0  0  0  0  0  0  0  0  0
    0.7500    3.8971    0.0000 C   0  0  0  0  0  0  0  0  0  0  0  0
   -0.7500    1.2990    0.0000 C   0  0  0  0  0  0  0  0  0  0  0  0
   -1.5000    0.0000    0.0000 N   0  0  0  0  0  0  0  0  0  0  0  0
   -0.7500   -1.2990    0.0000 C   0  0  0  0  0  0  0  0  0  0  0  0
   -1.2135   -2.7256    0.0000 C   0  0  0  0  0  0  0  0  0  0  0  0
    0.0000   -3.6073    0.0000 C   0  0  0  0  0  0  0  0  0  0  0  0
  1  2  2  0
  2  3  2  0
  2  4  1  0
  4  5  2  0
  5  6  1  0
  5  7  1  0
  7  8  2  0
  8  9  1  0
  9 10  1  0
 10 11  2  0
 11 12  1  0
  2 13  1  0
 13 14  2  0
 14 15  1  0
 15 16  2  0
 16 17  1  0
 17 18  1  0
 18 19  1  0
 19 20  1  0
 20 21  1  0
 21 22  1  0
 16 23  1  0
 23 24  2  0
 24 25  1  0
 25 26  1  0
 26 27  2  0
 12  4  1  0
 27 13  1  0
 12  8  1  0
 25 14  1  0
 22 17  1  0
M  CHG  1  13   1
M  END
>  <Compound_ID>  (325) 
CHEMBL1822793

>  <Active>  (325) 
1.0

>  <Smiles>  (325) 
O=S(=O)(c1c(Cl)nc2sccn12)[N+]1=C2C=C(N3CCNCC3)C=NC2C=C1

>  <canonical_smi>  (325) 
O=S(=O)(c1c(Cl)nc2sccn12)[N+]1=C2C=C(N3CCNCC3)C=NC2C=C1

>  <Set>  (325) 
G2 active

>  <Set_type>  (325) 
External

>  <MW>  (325) 
423.93

>  <HBD>  (325) 
1

>  <HBA>  (325) 
5

>  <NRB>  (325) 
3

>  <NR>  (325) 
5

>  <NAR>  (325) 
2

>  <PSA>  (325) 
82.08

>  <Standard Type>  (325) 
IC50

>  <Standard Relation>  (325) 
'='

>  <Standard Units>  (325) 
nM

>  <Standard Value>  (325) 
24.0

>  <Assay ChEMBL ID>  (325) 
CHEMBL1826790

>  <Assay Description>  (325) 
Inhibition of human c-MET

>  <BAO Label>  (325) 
single protein format

$$$$

     RDKit          2D

 37 41  0  0  0  0  0  0  0  0999 V2000
   -6.1170   -7.0506    0.0000 C   0  0  0  0  0  0  0  0  0  0  0  0
   -4.6904   -6.5871    0.0000 C   0  0  0  0  0  0  0  0  0  0  0  0
   -4.3786   -5.1199    0.0000 C   0  0  0  0  0  0  0  0  0  0  0  0
   -5.4933   -4.1162    0.0000 O   0  0  0  0  0  0  0  0  0  0  0  0
   -2.9520   -4.6564    0.0000 N   0  0  0  0  0  0  0  0  0  0  0  0
   -2.6401   -3.1891    0.0000 N   0  0  0  0  0  0  0  0  0  0  0  0
   -1.2135   -2.7256    0.0000 C   0  0  0  0  0  0  0  0  0  0  0  0
   -0.0000   -3.6073    0.0000 C   0  0  0  0  0  0  0  0  0  0  0  0
    0.0000   -5.1073    0.0000 O   0  0  0  0  0  0  0  0  0  0  0  0
    1.2135   -2.7256    0.0000 N   0  0  0  0  0  0  0  0  0  0  0  0
    0.7500   -1.2990    0.0000 C   0  0  0  0  0  0  0  0  0  0  0  0
    1.5000    0.0000    0.0000 C   0  0  0  0  0  0  0  0  0  0  0  0
    0.7500    1.2990    0.0000 C   0  0  0  0  0  0  0  0  0  0  0  0
   -0.7500    1.2990    0.0000 C   0  0  0  0  0  0  0  0  0  0  0  0
   -1.5000    2.5981    0.0000 C   0  0  0  0  0  0  0  0  0  0  0  0
   -3.0000    2.5981    0.0000 O   0  0  0  0  0  0  0  0  0  0  0  0
   -0.7500    3.8971    0.0000 N   0  0  0  0  0  0  0  0  0  0  0  0
   -1.3601    5.2674    0.0000 C   0  0  0  0  0  0  0  0  0  0  0  0
   -0.2454    6.2711    0.0000 C   0  0  0  0  0  0  0  0  0  0  0  0
    1.0537    5.5211    0.0000 C   0  0  0  0  0  0  0  0  0  0  0  0
    0.7418    4.0539    0.0000 C   0  0  0  0  0  0  0  0  0  0  0  0
    1.7455    2.9392    0.0000 C   0  0  0  0  0  0  0  0  0  0  0  0
    3.2127    3.2511    0.0000 N   0  0  0  0  0  0  0  0  0  0  0  0
    3.8228    4.6214    0.0000 C   0  0  0  0  0  0  0  0  0  0  0  0
    5.3146    4.4646    0.0000 C   0  0  0  0  0  0  0  0  0  0  0  0
    5.6265    2.9974    0.0000 C   0  0  0  0  0  0  0  0  0  0  0  0
    4.3274    2.2474    0.0000 C   0  0  0  0  0  0  0  0  0  0  0  0
   -1.5000    0.0000    0.0000 C   0  0  0  0  0  0  0  0  0  0  0  0
   -3.0000    0.0000    0.0000 Cl  0  0  0  0  0  0  0  0  0  0  0  0
   -0.7500   -1.2990    0.0000 C   0  0  0  0  0  0  0  0  0  0  0  0
   -3.5757   -7.5908    0.0000 C   0  0  0  0  0  0  0  0  0  0  0  0
   -3.8876   -9.0580    0.0000 C   0  0  0  0  0  0  0  0  0  0  0  0
   -2.7729  -10.0617    0.0000 C   0  0  0  0  0  0  0  0  0  0  0  0
   -1.3463   -9.5982    0.0000 C   0  0  0  0  0  0  0  0  0  0  0  0
   -0.2316  -10.6019    0.0000 F   0  0  0  0  0  0  0  0  0  0  0  0
   -1.0344   -8.1310    0.0000 C   0  0  0  0  0  0  0  0  0  0  0  0
   -2.1491   -7.1273    0.0000 C   0  0  0  0  0  0  0  0  0  0  0  0
  1  2  1  0
  2  3  1  0
  3  4  2  0
  3  5  1  0
  5  6  1  0
  6  7  2  0
  7  8  1  0
  8  9  2  0
  8 10  1  0
 10 11  1  0
 11 12  2  0
 12 13  1  0
 13 14  2  0
 14 15  1  0
 15 16  2  0
 15 17  1  0
 17 18  1  0
 18 19  1  0
 19 20  1  0
 20 21  1  0
 21 22  1  0
 22 23  1  0
 23 24  1  0
 24 25  1  0
 25 26  1  0
 26 27  1  0
 14 28  1  0
 28 29  1  0
 28 30  2  0
  2 31  1  0
 31 32  2  0
 32 33  1  0
 33 34  2  0
 34 35  1  0
 34 36  1  0
 36 37  2  0
 30  7  1  0
 37 31  1  0
 30 11  1  0
 21 17  1  0
 27 23  1  0
M  END
>  <Compound_ID>  (326) 
CHEMBL1822561

>  <Active>  (326) 
1.0

>  <Smiles>  (326) 
CC(C(=O)N/N=C1\C(=O)Nc2ccc(C(=O)N3CCCC3CN3CCCC3)c(Cl)c21)c1ccc(F)cc1

>  <canonical_smi>  (326) 
CC(C(=O)N/N=C1\C(=O)Nc2ccc(C(=O)N3CCCC3CN3CCCC3)c(Cl)c21)c1ccc(F)cc1

>  <Set>  (326) 
G2 active

>  <Set_type>  (326) 
External

>  <MW>  (326) 
526.01

>  <HBD>  (326) 
2

>  <HBA>  (326) 
4

>  <NRB>  (326) 
6

>  <NR>  (326) 
5

>  <NAR>  (326) 
2

>  <PSA>  (326) 
94.11

>  <Standard Type>  (326) 
IC50

>  <Standard Relation>  (326) 
'='

>  <Standard Units>  (326) 
nM

>  <Standard Value>  (326) 
430.0

>  <Assay ChEMBL ID>  (326) 
CHEMBL1826790

>  <Assay Description>  (326) 
Inhibition of human c-MET

>  <BAO Label>  (326) 
single protein format

$$$$

     RDKit          2D

 22 25  0  0  0  0  0  0  0  0999 V2000
   -3.8876   -9.0580    0.0000 F   0  0  0  0  0  0  0  0  0  0  0  0
   -3.5757   -7.5908    0.0000 C   0  0  0  0  0  0  0  0  0  0  0  0
   -4.6904   -6.5871    0.0000 C   0  0  0  0  0  0  0  0  0  0  0  0
   -4.3786   -5.1199    0.0000 C   0  0  0  0  0  0  0  0  0  0  0  0
   -2.9520   -4.6564    0.0000 C   0  0  0  0  0  0  0  0  0  0  0  0
   -2.6401   -3.1891    0.0000 C   0  0  0  0  0  0  0  0  0  0  0  0
   -1.2135   -2.7256    0.0000 C   0  0  0  0  0  0  0  0  0  0  0  0
   -0.0000   -3.6073    0.0000 N   0  0  0  0  0  0  0  0  0  0  0  0
    1.2135   -2.7256    0.0000 N   0  0  0  0  0  0  0  0  0  0  0  0
    0.7500   -1.2990    0.0000 C   0  0  0  0  0  0  0  0  0  0  0  0
    1.5000    0.0000    0.0000 N   0  0  0  0  0  0  0  0  0  0  0  0
    0.7500    1.2990    0.0000 C   0  0  0  0  0  0  0  0  0  0  0  0
   -0.7500    1.2990    0.0000 C   0  0  0  0  0  0  0  0  0  0  0  0
   -1.5000    2.5981    0.0000 C   0  0  0  0  0  0  0  0  0  0  0  0
   -2.9918    2.7549    0.0000 C   0  0  0  0  0  0  0  0  0  0  0  0
   -3.3037    4.2221    0.0000 C   0  0  0  0  0  0  0  0  0  0  0  0
   -2.0046    4.9721    0.0000 C   0  0  0  0  0  0  0  0  0  0  0  0
   -0.8899    3.9684    0.0000 S   0  0  0  0  0  0  0  0  0  0  0  0
   -1.5000    0.0000    0.0000 N   0  0  0  0  0  0  0  0  0  0  0  0
   -0.7500   -1.2990    0.0000 N   0  0  0  0  0  0  0  0  0  0  0  0
   -1.8373   -5.6601    0.0000 C   0  0  0  0  0  0  0  0  0  0  0  0
   -2.1491   -7.1273    0.0000 C   0  0  0  0  0  0  0  0  0  0  0  0
  1  2  1  0
  2  3  2  0
  3  4  1  0
  4  5  2  0
  5  6  1  0
  6  7  1  0
  7  8  2  0
  8  9  1  0
  9 10  2  0
 10 11  1  0
 11 12  2  0
 12 13  1  0
 13 14  1  0
 14 15  2  0
 15 16  1  0
 16 17  2  0
 17 18  1  0
 13 19  2  0
 19 20  1  0
  5 21  1  0
 21 22  2  0
 22  2  1  0
 20  7  1  0
 20 10  1  0
 18 14  1  0
M  END
>  <Compound_ID>  (327) 
CHEMBL1823126

>  <Active>  (327) 
1.0

>  <Smiles>  (327) 
Fc1ccc(Cc2nnc3ncc(-c4cccs4)nn23)cc1

>  <canonical_smi>  (327) 
Fc1ccc(Cc2nnc3ncc(-c4cccs4)nn23)cc1

>  <Set>  (327) 
G2 active

>  <Set_type>  (327) 
External

>  <MW>  (327) 
311.35

>  <HBD>  (327) 
0

>  <HBA>  (327) 
4

>  <NRB>  (327) 
3

>  <NR>  (327) 
4

>  <NAR>  (327) 
4

>  <PSA>  (327) 
55.97

>  <Standard Type>  (327) 
IC50

>  <Standard Relation>  (327) 
'='

>  <Standard Units>  (327) 
nM

>  <Standard Value>  (327) 
13.0

>  <Assay ChEMBL ID>  (327) 
CHEMBL1826790

>  <Assay Description>  (327) 
Inhibition of human c-MET

>  <BAO Label>  (327) 
single protein format

$$$$

     RDKit          2D

 34 38  0  0  0  0  0  0  0  0999 V2000
    5.6399   -6.6580    0.0000 C   0  0  0  0  0  0  0  0  0  0  0  0
    4.5251   -7.6617    0.0000 C   0  0  0  0  0  0  0  0  0  0  0  0
    4.8370   -9.1289    0.0000 N   0  0  0  0  0  0  0  0  0  0  0  0
    6.2636   -9.5925    0.0000 O   0  0  0  0  0  0  0  0  0  0  0  0
    6.5755  -11.0597    0.0000 C   0  0  0  0  0  0  0  0  0  0  0  0
    8.0020  -11.5232    0.0000 C   0  0  0  0  0  0  0  0  0  0  0  0
    8.3139  -12.9904    0.0000 O   0  0  0  0  0  0  0  0  0  0  0  0
    3.0986   -7.1982    0.0000 C   0  0  0  0  0  0  0  0  0  0  0  0
    1.9838   -8.2019    0.0000 C   0  0  0  0  0  0  0  0  0  0  0  0
    0.5573   -7.7383    0.0000 C   0  0  0  0  0  0  0  0  0  0  0  0
    0.2454   -6.2711    0.0000 C   0  0  0  0  0  0  0  0  0  0  0  0
   -1.0537   -5.5211    0.0000 N   0  0  0  0  0  0  0  0  0  0  0  0
   -0.7418   -4.0539    0.0000 N   0  0  0  0  0  0  0  0  0  0  0  0
    0.7500   -3.8971    0.0000 C   0  0  0  0  0  0  0  0  0  0  0  0
    1.5000   -2.5981    0.0000 S   0  0  0  0  0  0  0  0  0  0  0  0
    0.7500   -1.2990    0.0000 C   0  0  0  0  0  0  0  0  0  0  0  0
    1.5000    0.0000    0.0000 C   0  0  0  0  0  0  0  0  0  0  0  0
    0.7500    1.2990    0.0000 C   0  0  0  0  0  0  0  0  0  0  0  0
   -0.7500    1.2990    0.0000 C   0  0  0  0  0  0  0  0  0  0  0  0
   -1.5000    2.5981    0.0000 N   0  0  0  0  0  0  0  0  0  0  0  0
   -3.0000    2.5981    0.0000 C   0  0  0  0  0  0  0  0  0  0  0  0
   -3.7500    1.2990    0.0000 C   0  0  0  0  0  0  0  0  0  0  0  0
   -5.2500    1.2990    0.0000 N   0  0  0  0  0  0  0  0  0  0  0  0
   -6.0000    2.5981    0.0000 C   0  0  0  0  0  0  0  0  0  0  0  0
   -7.5000    2.5981    0.0000 C   0  0  0  0  0  0  0  0  0  0  0  0
   -8.2500    1.2990    0.0000 N   0  0  0  0  0  0  0  0  0  0  0  0
   -9.7500    1.2990    0.0000 C   0  0  0  0  0  0  0  0  0  0  0  0
   -7.5000    0.0000    0.0000 C   0  0  0  0  0  0  0  0  0  0  0  0
   -6.0000    0.0000    0.0000 C   0  0  0  0  0  0  0  0  0  0  0  0
   -3.0000    0.0000    0.0000 C   0  0  0  0  0  0  0  0  0  0  0  0
   -1.5000    0.0000    0.0000 C   0  0  0  0  0  0  0  0  0  0  0  0
   -0.7500   -1.2990    0.0000 C   0  0  0  0  0  0  0  0  0  0  0  0
    1.3601   -5.2674    0.0000 N   0  0  0  0  0  0  0  0  0  0  0  0
    2.7867   -5.7310    0.0000 C   0  0  0  0  0  0  0  0  0  0  0  0
  1  2  1  0
  2  3  2  0
  3  4  1  0
  4  5  1  0
  5  6  1  0
  6  7  1  0
  2  8  1  0
  8  9  1  0
  9 10  2  0
 10 11  1  0
 11 12  2  0
 12 13  1  0
 13 14  2  0
 14 15  1  0
 15 16  1  0
 16 17  2  0
 17 18  1  0
 18 19  2  0
 19 20  1  0
 20 21  2  0
 21 22  1  0
 22 23  1  0
 23 24  1  0
 24 25  1  0
 25 26  1  0
 26 27  1  0
 26 28  1  0
 28 29  1  0
 22 30  2  0
 30 31  1  0
 31 32  2  0
 14 33  1  0
 33 34  1  0
 34  8  2  0
 33 11  1  0
 32 16  1  0
 31 19  1  0
 29 23  1  0
M  END
>  <Compound_ID>  (328) 
CHEMBL3704017

>  <Active>  (328) 
1.0

>  <Smiles>  (328) 
C/C(=N\OCCO)c1ccc2nnc(Sc3ccc4ncc(N5CCN(C)CC5)cc4c3)n2c1

>  <canonical_smi>  (328) 
C/C(=N\OCCO)c1ccc2nnc(Sc3ccc4ncc(N5CCN(C)CC5)cc4c3)n2c1

>  <Set>  (328) 
G2 active

>  <Set_type>  (328) 
External

>  <MW>  (328) 
477.59

>  <HBD>  (328) 
1

>  <HBA>  (328) 
8

>  <NRB>  (328) 
7

>  <NR>  (328) 
5

>  <NAR>  (328) 
4

>  <PSA>  (328) 
91.38

>  <Standard Type>  (328) 
IC50

>  <Standard Relation>  (328) 
'='

>  <Standard Units>  (328) 
nM

>  <Standard Value>  (328) 
10.0

>  <Assay ChEMBL ID>  (328) 
CHEMBL3706358

>  <Assay Description>  (328) 
LanthaScreen Assay: The kinase assay is based on the LanthaScreen technology. LanthaScreen is the detection of Time-Resolved Fluorescence Resonance Energy Transfer (TR-FRET) using lanthanide chelates to measure interactions between various binding partners. In a TR-FRET kinase assay, a long-lifetime lanthanide donor species is conjugated to an antibody that specifically binds to a phosphorylated product of a kinase reaction that is labeled with a suitable acceptor fluorophore. This antibody-mediated interaction brings the lanthanide donor and the acceptor into proximity such that resonance energy transfer can take place, resulting in a detectable increase in the FRET signal.The kinase reactions were performed in 384 well microtiter plates in a total reaction volume of 10.05 μL. The assay plates were prepared with 0.05 μL per well of test compound in the appropriate test concentration, as described under preparation of compound dilutions.

>  <BAO Label>  (328) 
single protein format

$$$$

     RDKit          2D

 75 80  0  0  0  0  0  0  0  0999 V2000
   -0.7500   -6.4952    0.0000 O   0  0  0  0  0  0  0  0  0  0  0  0
    0.7500   -6.4952    0.0000 C   0  0  0  0  0  0  0  0  0  0  0  0
    1.5000   -5.1962    0.0000 N   0  0  0  0  0  0  0  0  0  0  0  0
    0.7500   -3.8971    0.0000 C   0  0  0  0  0  0  0  0  0  0  0  0
    1.5000   -2.5981    0.0000 C   0  0  0  0  0  0  0  0  0  0  0  0
    0.7500   -1.2990    0.0000 C   0  0  0  0  0  0  0  0  0  0  0  0
    1.5000    0.0000    0.0000 C   0  0  0  0  0  0  0  0  0  0  0  0
    0.7500    1.2990    0.0000 C   0  0  0  0  0  0  0  0  0  0  0  0
   -0.7500    1.2990    0.0000 C   0  0  0  0  0  0  0  0  0  0  0  0
   -1.5000    2.5981    0.0000 O   0  0  0  0  0  0  0  0  0  0  0  0
   -1.5000    0.0000    0.0000 C   0  0  0  0  0  0  0  0  0  0  0  0
   -3.0000    0.0000    0.0000 Br  0  0  0  0  0  0  0  0  0  0  0  0
   -0.7500   -1.2990    0.0000 C   0  0  0  0  0  0  0  0  0  0  0  0
    1.5000   -7.7942    0.0000 C   0  0  0  0  0  0  0  0  0  0  0  0
    3.0000   -7.7942    0.0000 C   0  0  0  0  0  0  0  0  0  0  0  0
    3.7500   -9.0933    0.0000 C   0  0  0  0  0  0  0  0  0  0  0  0
    3.0000  -10.3923    0.0000 C   0  0  0  0  0  0  0  0  0  0  0  0
    3.7500  -11.6913    0.0000 C   0  0  0  0  0  0  0  0  0  0  0  0
    3.0000  -12.9904    0.0000 Br  0  0  0  0  0  0  0  0  0  0  0  0
    5.2500  -11.6913    0.0000 C   0  0  0  0  0  0  0  0  0  0  0  0
    6.0000  -12.9904    0.0000 O   0  0  0  0  0  0  0  0  0  0  0  0
    6.0000  -10.3923    0.0000 C   0  0  0  0  0  0  0  0  0  0  0  0
    7.5000  -10.3923    0.0000 O   0  0  0  0  0  0  0  0  0  0  0  0
    8.2500   -9.0933    0.0000 C   0  0  0  0  0  0  0  0  0  0  0  0
    9.7500   -9.0933    0.0000 C   0  0  0  0  0  0  0  0  0  0  0  0
   10.5000   -7.7942    0.0000 C   0  0  0  0  0  0  0  0  0  0  0  0
    9.7500   -6.4952    0.0000 C   0  0  0  0  0  0  0  0  0  0  0  0
   10.5000   -5.1962    0.0000 C   0  0  0  0  0  0  0  0  0  0  0  0
   12.0000   -5.1962    0.0000 C   0  0  0  0  0  0  0  0  0  0  0  0
   12.7500   -3.8971    0.0000 N   0  0  0  0  0  0  0  0  0  0  0  0
   14.2500   -3.8971    0.0000 C   0  0  0  0  0  0  0  0  0  0  0  0
   15.0000   -5.1962    0.0000 O   0  0  0  0  0  0  0  0  0  0  0  0
   15.0000   -2.5981    0.0000 C   0  0  0  0  0  0  0  0  0  0  0  0
   14.2500   -1.2990    0.0000 C   0  0  0  0  0  0  0  0  0  0  0  0
   15.0000   -0.0000    0.0000 C   0  0  0  0  0  0  0  0  0  0  0  0
   16.5000   -0.0000    0.0000 C   0  0  0  0  0  0  0  0  0  0  0  0
   17.2500    1.2990    0.0000 C   0  0  0  0  0  0  0  0  0  0  0  0
   18.7500    1.2990    0.0000 Br  0  0  0  0  0  0  0  0  0  0  0  0
   16.5000    2.5981    0.0000 C   0  0  0  0  0  0  0  0  0  0  0  0
   17.2500    3.8971    0.0000 O   0  0  0  0  0  0  0  0  0  0  0  0
   15.0000    2.5981    0.0000 C   0  0  0  0  0  0  0  0  0  0  0  0
   14.2500    3.8971    0.0000 C   0  0  0  0  0  0  0  0  0  0  0  0
   15.0000    5.1962    0.0000 C   0  0  0  0  0  0  0  0  0  0  0  0
   14.2500    6.4952    0.0000 C   0  0  0  0  0  0  0  0  0  0  0  0
   15.0000    7.7942    0.0000 C   0  0  0  0  0  0  0  0  0  0  0  0
   16.5000    7.7942    0.0000 C   0  0  0  0  0  0  0  0  0  0  0  0
   17.2500    9.0933    0.0000 N   0  0  0  0  0  0  0  0  0  0  0  0
   16.5000   10.3923    0.0000 O   0  0  0  0  0  0  0  0  0  0  0  0
   17.2500    6.4952    0.0000 C   0  0  0  0  0  0  0  0  0  0  0  0
   16.5000    5.1962    0.0000 O   0  0  0  0  0  0  0  0  0  0  0  0
   18.7500    6.4952    0.0000 N   0  0  0  0  0  0  0  0  0  0  0  0
   19.5000    5.1962    0.0000 C   0  0  0  0  0  0  0  0  0  0  0  0
   21.0000    5.1962    0.0000 C   0  0  0  0  0  0  0  0  0  0  0  0
   21.7500    3.8971    0.0000 C   0  0  0  0  0  0  0  0  0  0  0  0
   21.0000    2.5981    0.0000 C   0  0  0  0  0  0  0  0  0  0  0  0
   21.7500    1.2990    0.0000 C   0  0  0  0  0  0  0  0  0  0  0  0
   23.2500    1.2990    0.0000 C   0  0  0  0  0  0  0  0  0  0  0  0
   24.0000   -0.0000    0.0000 O   0  0  0  0  0  0  0  0  0  0  0  0
   24.0000    2.5981    0.0000 C   0  0  0  0  0  0  0  0  0  0  0  0
   25.5000    2.5981    0.0000 Br  0  0  0  0  0  0  0  0  0  0  0  0
   23.2500    3.8971    0.0000 C   0  0  0  0  0  0  0  0  0  0  0  0
   12.7500    6.4952    0.0000 C   0  0  0  0  0  0  0  0  0  0  0  0
   12.0000    5.1962    0.0000 C   0  0  0  0  0  0  0  0  0  0  0  0
   10.5000    5.1962    0.0000 Br  0  0  0  0  0  0  0  0  0  0  0  0
   12.7500    3.8971    0.0000 C   0  0  0  0  0  0  0  0  0  0  0  0
   12.0000    2.5981    0.0000 O   0  0  0  0  0  0  0  0  0  0  0  0
   14.2500    1.2990    0.0000 C   0  0  0  0  0  0  0  0  0  0  0  0
   16.5000   -2.5981    0.0000 N   0  0  0  0  0  0  0  0  0  0  0  0
   17.2500   -1.2990    0.0000 O   0  0  0  0  0  0  0  0  0  0  0  0
    8.2500   -6.4952    0.0000 C   0  0  0  0  0  0  0  0  0  0  0  0
    7.5000   -7.7942    0.0000 C   0  0  0  0  0  0  0  0  0  0  0  0
    6.0000   -7.7942    0.0000 Br  0  0  0  0  0  0  0  0  0  0  0  0
    5.2500   -9.0933    0.0000 C   0  0  0  0  0  0  0  0  0  0  0  0
    0.7500   -9.0933    0.0000 N   0  0  0  0  0  0  0  0  0  0  0  0
    1.5000  -10.3923    0.0000 O   0  0  0  0  0  0  0  0  0  0  0  0
  1  2  2  0
  2  3  1  0
  3  4  1  0
  4  5  1  0
  5  6  1  0
  6  7  2  0
  7  8  1  0
  8  9  2  0
  9 10  1  0
  9 11  1  0
 11 12  1  0
 11 13  2  0
  2 14  1  0
 14 15  1  0
 15 16  1  0
 16 17  2  0
 17 18  1  0
 18 19  1  0
 18 20  2  0
 20 21  1  0
 20 22  1  0
 22 23  1  0
 23 24  1  0
 24 25  2  0
 25 26  1  0
 26 27  2  0
 27 28  1  0
 28 29  1  0
 29 30  1  0
 30 31  1  0
 31 32  2  0
 31 33  1  0
 33 34  1  0
 34 35  1  0
 35 36  2  0
 36 37  1  0
 37 38  1  0
 37 39  2  0
 39 40  1  0
 39 41  1  0
 41 42  1  0
 42 43  2  0
 43 44  1  0
 44 45  1  0
 45 46  1  0
 46 47  2  0
 47 48  1  0
 46 49  1  0
 49 50  2  0
 49 51  1  0
 51 52  1  0
 52 53  1  0
 53 54  1  0
 54 55  2  0
 55 56  1  0
 56 57  2  0
 57 58  1  0
 57 59  1  0
 59 60  1  0
 59 61  2  0
 44 62  2  0
 62 63  1  0
 63 64  1  0
 63 65  2  0
 65 66  1  0
 41 67  2  0
 33 68  2  0
 68 69  1  0
 27 70  1  0
 70 71  2  0
 71 72  1  0
 22 73  2  0
 14 74  2  0
 74 75  1  0
 13  6  1  0
 73 16  1  0
 71 24  1  0
 67 35  1  0
 65 42  1  0
 61 54  1  0
M  END
>  <Compound_ID>  (329) 
CHEMBL2333163

>  <Active>  (329) 
1.0

>  <Smiles>  (329) 
O=C(NCCc1ccc(O)c(Br)c1)/C(Cc1cc(Br)c(O)c(Oc2ccc(CCNC(=O)/C(Cc3cc(Br)c(O)c(-c4cc(C/C(=N\O)C(=O)NCCc5ccc(O)c(Br)c5)cc(Br)c4O)c3)=N/O)cc2Br)c1)=N/O

>  <canonical_smi>  (329) 
O=C(NCCc1ccc(O)c(Br)c1)/C(Cc1cc(Br)c(O)c(Oc2ccc(CCNC(=O)/C(Cc3cc(Br)c(O)c(-c4cc(C/C(=N\O)C(=O)NCCc5ccc(O)c(Br)c5)cc(Br)c4O)c3)=N/O)cc2Br)c1)=N/O

>  <Set>  (329) 
G2 active

>  <Set_type>  (329) 
External

>  <MW>  (329) 
1412.37

>  <HBD>  (329) 
11

>  <HBA>  (329) 
12

>  <NRB>  (329) 
21

>  <NR>  (329) 
6

>  <NAR>  (329) 
6

>  <PSA>  (329) 
295.45

>  <Standard Type>  (329) 
IC50

>  <Standard Relation>  (329) 
'='

>  <Standard Units>  (329) 
nM

>  <Standard Value>  (329) 
800.0

>  <Assay ChEMBL ID>  (329) 
CHEMBL2345559

>  <Assay Description>  (329) 
Inhibition of MET (unknown origin)

>  <BAO Label>  (329) 
single protein format

$$$$

     RDKit          2D

 30 33  0  0  0  0  0  0  0  0999 V2000
    5.2500   -3.8971    0.0000 C   0  0  0  0  0  0  0  0  0  0  0  0
    3.7500   -3.8971    0.0000 C   0  0  0  0  0  0  0  0  0  0  0  0
    3.0000   -5.1962    0.0000 N   0  0  0  0  0  0  0  0  0  0  0  0
    1.5000   -5.1962    0.0000 C   0  0  0  0  0  0  0  0  0  0  0  0
    0.7500   -6.4952    0.0000 C   0  0  0  0  0  0  0  0  0  0  0  0
    0.7500   -3.8971    0.0000 C   0  0  0  0  0  0  0  0  0  0  0  0
   -0.7500   -3.8971    0.0000 C   0  0  0  0  0  0  0  0  0  0  0  0
   -2.2500   -3.8971    0.0000 N   0  0  0  0  0  0  0  0  0  0  0  0
    1.5000   -2.5981    0.0000 C   0  0  0  0  0  0  0  0  0  0  0  0
    0.7500   -1.2990    0.0000 C   0  0  0  0  0  0  0  0  0  0  0  0
    1.5000    0.0000    0.0000 C   0  0  0  0  0  0  0  0  0  0  0  0
    0.7500    1.2990    0.0000 C   0  0  0  0  0  0  0  0  0  0  0  0
   -0.7500    1.2990    0.0000 C   0  0  0  0  0  0  0  0  0  0  0  0
   -1.7537    2.4138    0.0000 N   0  0  0  0  0  0  0  0  0  0  0  0
   -3.1240    1.8037    0.0000 N   0  0  0  0  0  0  0  0  0  0  0  0
   -2.9672    0.3119    0.0000 C   0  0  0  0  0  0  0  0  0  0  0  0
   -4.0819   -0.6918    0.0000 O   0  0  0  0  0  0  0  0  0  0  0  0
   -5.5085   -0.2283    0.0000 C   0  0  0  0  0  0  0  0  0  0  0  0
   -6.6232   -1.2320    0.0000 C   0  0  0  0  0  0  0  0  0  0  0  0
   -8.0498   -0.7685    0.0000 N   0  0  0  0  0  0  0  0  0  0  0  0
   -8.3617    0.6987    0.0000 C   0  0  0  0  0  0  0  0  0  0  0  0
   -9.7883    1.1623    0.0000 C   0  0  0  0  0  0  0  0  0  0  0  0
  -10.9030    0.1586    0.0000 C   0  0  0  0  0  0  0  0  0  0  0  0
  -10.5911   -1.3086    0.0000 C   0  0  0  0  0  0  0  0  0  0  0  0
   -9.1645   -1.7722    0.0000 C   0  0  0  0  0  0  0  0  0  0  0  0
   -1.5000    0.0000    0.0000 C   0  0  0  0  0  0  0  0  0  0  0  0
   -0.7500   -1.2990    0.0000 C   0  0  0  0  0  0  0  0  0  0  0  0
    3.0000   -2.5981    0.0000 C   0  0  0  0  0  0  0  0  0  0  0  0
    3.7500   -1.2990    0.0000 C   0  0  0  0  0  0  0  0  0  0  0  0
    4.5000   -0.0000    0.0000 N   0  0  0  0  0  0  0  0  0  0  0  0
  1  2  1  0
  2  3  2  0
  3  4  1  0
  4  5  1  0
  4  6  2  0
  6  7  1  0
  7  8  3  0
  6  9  1  0
  9 10  1  0
 10 11  2  0
 11 12  1  0
 12 13  2  0
 13 14  1  0
 14 15  1  0
 15 16  2  0
 16 17  1  0
 17 18  1  0
 18 19  1  0
 19 20  1  0
 20 21  1  0
 21 22  1  0
 22 23  1  0
 23 24  1  0
 24 25  1  0
 16 26  1  0
 26 27  2  0
  9 28  1  0
 28 29  1  0
 29 30  3  0
 28  2  1  0
 27 10  1  0
 26 13  1  0
 25 20  1  0
M  END
>  <Compound_ID>  (330) 
CHEMBL3648324

>  <Active>  (330) 
1.0

>  <Smiles>  (330) 
CC1=NC(C)=C(C#N)C(c2ccc3[nH]nc(OCCN4CCCCC4)c3c2)C1C#N

>  <canonical_smi>  (330) 
CC1=NC(C)=C(C#N)C(c2ccc3[nH]nc(OCCN4CCCCC4)c3c2)C1C#N

>  <Set>  (330) 
G2 active

>  <Set_type>  (330) 
External

>  <MW>  (330) 
402.5

>  <HBD>  (330) 
1

>  <HBA>  (330) 
5

>  <NRB>  (330) 
5

>  <NR>  (330) 
4

>  <NAR>  (330) 
2

>  <PSA>  (330) 
101.09

>  <Standard Type>  (330) 
IC50

>  <Standard Relation>  (330) 
'='

>  <Standard Units>  (330) 
nM

>  <Standard Value>  (330) 
15.0

>  <Assay ChEMBL ID>  (330) 
CHEMBL3705062

>  <Assay Description>  (330) 
Time-Resolved Fluorescence Assay: Homogeneous time-resolved fluorescence assay using c-Met receptor tyrosine kinase.

>  <BAO Label>  (330) 
single protein format

$$$$

     RDKit          2D

 37 41  0  0  0  0  0  0  0  0999 V2000
    5.2500  -11.6913    0.0000 C   0  0  0  0  0  0  0  0  0  0  0  0
    3.7500  -11.6913    0.0000 N   0  0  0  0  0  0  0  0  0  0  0  0
    3.0000  -10.3923    0.0000 C   0  0  0  0  0  0  0  0  0  0  0  0
    3.7500   -9.0933    0.0000 O   0  0  0  0  0  0  0  0  0  0  0  0
    1.5000  -10.3923    0.0000 C   0  0  0  0  0  0  0  0  0  0  0  0
    0.7500  -11.6913    0.0000 C   0  0  0  0  0  0  0  0  0  0  0  0
   -0.7500  -11.6913    0.0000 C   0  0  0  0  0  0  0  0  0  0  0  0
   -1.5000  -10.3923    0.0000 C   0  0  0  0  0  0  0  0  0  0  0  0
   -0.7500   -9.0933    0.0000 C   0  0  0  0  0  0  0  0  0  0  0  0
    0.7500   -9.0933    0.0000 C   0  0  0  0  0  0  0  0  0  0  0  0
    1.5000   -7.7942    0.0000 N   0  0  0  0  0  0  0  0  0  0  0  0
    0.7500   -6.4952    0.0000 C   0  0  0  0  0  0  0  0  0  0  0  0
    1.5000   -5.1962    0.0000 N   0  0  0  0  0  0  0  0  0  0  0  0
    0.7500   -3.8971    0.0000 C   0  0  0  0  0  0  0  0  0  0  0  0
    1.5000   -2.5981    0.0000 N   0  0  0  0  0  0  0  0  0  0  0  0
    0.7500   -1.2990    0.0000 C   0  0  0  0  0  0  0  0  0  0  0  0
    1.5000    0.0000    0.0000 C   0  0  0  0  0  0  0  0  0  0  0  0
    0.7500    1.2990    0.0000 C   0  0  0  0  0  0  0  0  0  0  0  0
   -0.7500    1.2990    0.0000 C   0  0  0  0  0  0  0  0  0  0  0  0
   -1.5000    0.0000    0.0000 C   0  0  0  0  0  0  0  0  0  0  0  0
   -0.7500   -1.2990    0.0000 C   0  0  0  0  0  0  0  0  0  0  0  0
   -2.9832   -0.2236    0.0000 C   0  0  0  0  0  0  0  0  0  0  0  0
   -3.4254   -1.6569    0.0000 C   0  0  0  0  0  0  0  0  0  0  0  0
   -4.8878   -1.9907    0.0000 C   0  0  0  0  0  0  0  0  0  0  0  0
   -5.3299   -3.4241    0.0000 C   0  0  0  0  0  0  0  0  0  0  0  0
   -4.3096   -4.5236    0.0000 C   0  0  0  0  0  0  0  0  0  0  0  0
   -2.8473   -4.1899    0.0000 C   0  0  0  0  0  0  0  0  0  0  0  0
   -2.4051   -2.7565    0.0000 C   0  0  0  0  0  0  0  0  0  0  0  0
   -4.0828    0.7967    0.0000 C   0  0  0  0  0  0  0  0  0  0  0  0
   -3.9707    2.2925    0.0000 N   0  0  0  0  0  0  0  0  0  0  0  0
   -5.2698    3.0425    0.0000 C   0  0  0  0  0  0  0  0  0  0  0  0
   -2.7314    3.1375    0.0000 C   0  0  0  0  0  0  0  0  0  0  0  0
   -1.2980    2.6953    0.0000 C   0  0  0  0  0  0  0  0  0  0  0  0
   -0.7500   -3.8971    0.0000 N   0  0  0  0  0  0  0  0  0  0  0  0
   -1.5000   -5.1962    0.0000 C   0  0  0  0  0  0  0  0  0  0  0  0
   -0.7500   -6.4952    0.0000 C   0  0  0  0  0  0  0  0  0  0  0  0
   -1.5000   -7.7942    0.0000 Cl  0  0  0  0  0  0  0  0  0  0  0  0
  1  2  1  0
  2  3  1  0
  3  4  2  0
  3  5  1  0
  5  6  2  0
  6  7  1  0
  7  8  2  0
  8  9  1  0
  9 10  2  0
 10 11  1  0
 11 12  1  0
 12 13  2  0
 13 14  1  0
 14 15  1  0
 15 16  1  0
 16 17  2  0
 17 18  1  0
 18 19  2  0
 19 20  1  0
 20 21  2  0
 20 22  1  0
 22 23  1  0
 23 24  2  0
 24 25  1  0
 25 26  2  0
 26 27  1  0
 27 28  2  0
 22 29  1  0
 29 30  1  0
 30 31  1  0
 30 32  1  0
 32 33  1  0
 14 34  2  0
 34 35  1  0
 35 36  2  0
 36 37  1  0
 10  5  1  0
 36 12  1  0
 21 16  1  0
 28 23  1  0
 33 19  1  0
M  END
>  <Compound_ID>  (331) 
CHEMBL3263970

>  <Active>  (331) 
1.0

>  <Smiles>  (331) 
CNC(=O)c1ccccc1Nc1nc(Nc2ccc3c(c2)C(c2ccccc2)CN(C)CC3)ncc1Cl

>  <canonical_smi>  (331) 
CNC(=O)c1ccccc1Nc1nc(Nc2ccc3c(c2)C(c2ccccc2)CN(C)CC3)ncc1Cl

>  <Set>  (331) 
G2 active

>  <Set_type>  (331) 
External

>  <MW>  (331) 
513.05

>  <HBD>  (331) 
3

>  <HBA>  (331) 
6

>  <NRB>  (331) 
6

>  <NR>  (331) 
5

>  <NAR>  (331) 
4

>  <PSA>  (331) 
82.18

>  <Standard Type>  (331) 
IC50

>  <Standard Relation>  (331) 
'='

>  <Standard Units>  (331) 
nM

>  <Standard Value>  (331) 
25.33

>  <Assay ChEMBL ID>  (331) 
CHEMBL3267805

>  <Assay Description>  (331) 
Inhibition of purified recombinant c-MET (unknown origin) after 60 mins by ELISA

>  <BAO Label>  (331) 
single protein format

$$$$

     RDKit          2D

 33 36  0  0  0  0  0  0  0  0999 V2000
    3.0000    0.0000    0.0000 C   0  0  0  0  0  0  0  0  0  0  0  0
    1.5000    0.0000    0.0000 C   0  0  0  0  0  0  0  0  0  0  0  0
    0.7500   -1.2990    0.0000 C   0  0  0  0  0  0  0  0  0  0  0  0
   -0.7500   -1.2990    0.0000 C   0  0  0  0  0  0  0  0  0  0  0  0
   -1.5000   -2.5981    0.0000 O   0  0  0  0  0  0  0  0  0  0  0  0
   -1.5000    0.0000    0.0000 C   0  0  0  0  0  0  0  0  0  0  0  0
   -0.7500    1.2990    0.0000 C   0  0  0  0  0  0  0  0  0  0  0  0
   -1.5000    2.5981    0.0000 C   0  0  0  0  0  0  0  0  0  0  0  0
   -2.9918    2.7549    0.0000 N   0  0  0  0  0  0  0  0  0  0  0  0
   -3.3037    4.2221    0.0000 N   0  0  0  0  0  0  0  0  0  0  0  0
   -4.6740    4.8322    0.0000 C   0  0  0  0  0  0  0  0  0  0  0  0
   -4.8308    6.3240    0.0000 C   0  0  0  0  0  0  0  0  0  0  0  0
   -4.9876    7.8158    0.0000 N   0  0  0  0  0  0  0  0  0  0  0  0
   -2.0046    4.9721    0.0000 C   0  0  0  0  0  0  0  0  0  0  0  0
   -0.8899    3.9684    0.0000 C   0  0  0  0  0  0  0  0  0  0  0  0
    0.5773    4.2803    0.0000 C   0  0  0  0  0  0  0  0  0  0  0  0
    1.5810    3.1655    0.0000 C   0  0  0  0  0  0  0  0  0  0  0  0
    3.0482    3.4774    0.0000 C   0  0  0  0  0  0  0  0  0  0  0  0
    4.0519    2.3627    0.0000 N   0  0  0  0  0  0  0  0  0  0  0  0
    5.5192    2.6746    0.0000 C   0  0  0  0  0  0  0  0  0  0  0  0
    6.5229    1.5598    0.0000 C   0  0  0  0  0  0  0  0  0  0  0  0
    7.9901    1.8717    0.0000 C   0  0  0  0  0  0  0  0  0  0  0  0
    6.0593    0.1333    0.0000 O   0  0  0  0  0  0  0  0  0  0  0  0
    3.5118    4.9040    0.0000 N   0  0  0  0  0  0  0  0  0  0  0  0
    2.5081    6.0187    0.0000 C   0  0  0  0  0  0  0  0  0  0  0  0
    2.9716    7.4453    0.0000 C   0  0  0  0  0  0  0  0  0  0  0  0
    4.4388    7.7572    0.0000 C   0  0  0  0  0  0  0  0  0  0  0  0
    4.9023    9.1838    0.0000 C   0  0  0  0  0  0  0  0  0  0  0  0
    3.8986   10.2985    0.0000 C   0  0  0  0  0  0  0  0  0  0  0  0
    2.4314    9.9866    0.0000 N   0  0  0  0  0  0  0  0  0  0  0  0
    1.9679    8.5600    0.0000 C   0  0  0  0  0  0  0  0  0  0  0  0
    1.0409    5.7068    0.0000 N   0  0  0  0  0  0  0  0  0  0  0  0
    0.7500    1.2990    0.0000 C   0  0  0  0  0  0  0  0  0  0  0  0
  1  2  1  0
  2  3  2  0
  3  4  1  0
  4  5  1  0
  4  6  2  0
  6  7  1  0
  7  8  1  0
  8  9  2  0
  9 10  1  0
 10 11  1  0
 11 12  1  0
 12 13  3  0
 10 14  1  0
 14 15  2  0
 15 16  1  0
 16 17  2  0
 17 18  1  0
 18 19  1  0
 19 20  1  0
 20 21  1  0
 21 22  1  6
 21 23  1  0
 18 24  2  0
 24 25  1  0
 25 26  1  0
 26 27  2  0
 27 28  1  0
 28 29  2  0
 29 30  1  0
 30 31  2  0
 25 32  2  0
  7 33  2  0
 33  2  1  0
 15  8  1  0
 32 16  1  0
 31 26  1  0
M  END
>  <Compound_ID>  (332) 
CHEMBL560733

>  <Active>  (332) 
1.0

>  <Smiles>  (332) 
Cc1cc(O)cc(-c2nn(CC#N)cc2-c2cc(NC[C@H](C)O)nc(-c3cccnc3)n2)c1

>  <canonical_smi>  (332) 
Cc1cc(O)cc(-c2nn(CC#N)cc2-c2cc(NC[C@H](C)O)nc(-c3cccnc3)n2)c1

>  <Set>  (332) 
G2 active

>  <Set_type>  (332) 
External

>  <MW>  (332) 
441.5

>  <HBD>  (332) 
3

>  <HBA>  (332) 
8

>  <NRB>  (332) 
7

>  <NR>  (332) 
4

>  <NAR>  (332) 
4

>  <PSA>  (332) 
132.77

>  <Standard Type>  (332) 
IC50

>  <Standard Relation>  (332) 
'='

>  <Standard Units>  (332) 
nM

>  <Standard Value>  (332) 
11.0

>  <Assay ChEMBL ID>  (332) 
CHEMBL3399483

>  <Assay Description>  (332) 
Inhibition of c-Met (unknown origin) incubated for 20 mins followed by [33P]ATP addition measured after 120 mins by HotSpot assay

>  <BAO Label>  (332) 
single protein format

$$$$

     RDKit          2D

 24 26  0  0  0  0  0  0  0  0999 V2000
    3.7500    1.2990    0.0000 O   0  0  0  0  0  0  0  0  0  0  0  0
    3.0000    0.0000    0.0000 C   0  0  0  0  0  0  0  0  0  0  0  0
    3.7500   -1.2990    0.0000 O   0  0  0  0  0  0  0  0  0  0  0  0
    1.5000    0.0000    0.0000 C   0  0  0  0  0  0  0  0  0  0  0  0
    0.7500   -1.2990    0.0000 C   0  0  0  0  0  0  0  0  0  0  0  0
   -0.7500   -1.2990    0.0000 N   0  0  0  0  0  0  0  0  0  0  0  0
   -1.5000    0.0000    0.0000 C   0  0  0  0  0  0  0  0  0  0  0  0
   -2.9672    0.3119    0.0000 C   0  0  0  0  0  0  0  0  0  0  0  0
   -3.1240    1.8037    0.0000 C   0  0  0  0  0  0  0  0  0  0  0  0
   -1.7537    2.4138    0.0000 N   0  0  0  0  0  0  0  0  0  0  0  0
   -1.4418    3.8810    0.0000 S   0  0  0  0  0  0  0  0  0  0  0  0
    0.0254    3.5691    0.0000 O   0  0  0  0  0  0  0  0  0  0  0  0
   -2.9090    4.1928    0.0000 O   0  0  0  0  0  0  0  0  0  0  0  0
   -1.1300    5.3482    0.0000 C   0  0  0  0  0  0  0  0  0  0  0  0
    0.2966    5.8117    0.0000 C   0  0  0  0  0  0  0  0  0  0  0  0
    0.6085    7.2789    0.0000 C   0  0  0  0  0  0  0  0  0  0  0  0
   -0.5062    8.2826    0.0000 C   0  0  0  0  0  0  0  0  0  0  0  0
   -1.9328    7.8191    0.0000 C   0  0  0  0  0  0  0  0  0  0  0  0
   -2.2447    6.3519    0.0000 C   0  0  0  0  0  0  0  0  0  0  0  0
   -3.6713    5.8884    0.0000 N   0  0  0  0  0  4  0  0  0  0  0  0
   -3.9831    4.4211    0.0000 O   0  0  0  0  0  0  0  0  0  0  0  0
   -4.7860    6.8921    0.0000 O   0  0  0  0  0  1  0  0  0  0  0  0
   -0.7500    1.2990    0.0000 C   0  0  0  0  0  0  0  0  0  0  0  0
    0.7500    1.2990    0.0000 C   0  0  0  0  0  0  0  0  0  0  0  0
  1  2  2  0
  2  3  1  0
  2  4  1  0
  4  5  2  0
  5  6  1  0
  6  7  2  0
  7  8  1  0
  8  9  2  0
  9 10  1  0
 10 11  1  0
 11 12  2  0
 11 13  2  0
 11 14  1  0
 14 15  2  0
 15 16  1  0
 16 17  2  0
 17 18  1  0
 18 19  2  0
 19 20  1  0
 20 21  2  0
 20 22  1  0
 10 23  1  0
 23 24  2  0
 24  4  1  0
 23  7  1  0
 19 14  1  0
M  CHG  2  20   1  22  -1
M  END
>  <Compound_ID>  (333) 
CHEMBL561583

>  <Active>  (333) 
1.0

>  <Smiles>  (333) 
O=C(O)c1cnc2ccn(S(=O)(=O)c3ccccc3[N+](=O)[O-])c2c1

>  <canonical_smi>  (333) 
O=C(O)c1cnc2ccn(S(=O)(=O)c3ccccc3[N+](=O)[O-])c2c1

>  <Set>  (333) 
G2 active

>  <Set_type>  (333) 
External

>  <MW>  (333) 
347.31

>  <HBD>  (333) 
1

>  <HBA>  (333) 
7

>  <NRB>  (333) 
4

>  <NR>  (333) 
3

>  <NAR>  (333) 
3

>  <PSA>  (333) 
132.4

>  <Standard Type>  (333) 
IC50

>  <Standard Relation>  (333) 
'='

>  <Standard Units>  (333) 
nM

>  <Standard Value>  (333) 
310.0

>  <Assay ChEMBL ID>  (333) 
CHEMBL1826790

>  <Assay Description>  (333) 
Inhibition of human c-MET

>  <BAO Label>  (333) 
single protein format

$$$$

     RDKit          2D

 26 30  0  0  0  0  0  0  0  0999 V2000
  -12.7782   -4.2970    0.0000 Cl  0  0  0  0  0  0  0  0  0  0  0  0
  -11.2864   -4.1402    0.0000 C   0  0  0  0  0  0  0  0  0  0  0  0
  -10.6763   -2.7699    0.0000 C   0  0  0  0  0  0  0  0  0  0  0  0
   -9.1846   -2.6131    0.0000 C   0  0  0  0  0  0  0  0  0  0  0  0
   -8.3029   -3.8266    0.0000 C   0  0  0  0  0  0  0  0  0  0  0  0
   -8.9130   -5.1969    0.0000 C   0  0  0  0  0  0  0  0  0  0  0  0
   -8.0313   -6.4104    0.0000 N   0  0  0  0  0  0  0  0  0  0  0  0
   -6.5395   -6.2536    0.0000 C   0  0  0  0  0  0  0  0  0  0  0  0
   -5.7895   -4.9546    0.0000 N   0  0  0  0  0  0  0  0  0  0  0  0
   -4.3223   -5.2665    0.0000 N   0  0  0  0  0  0  0  0  0  0  0  0
   -2.9520   -4.6564    0.0000 C   0  0  0  0  0  0  0  0  0  0  0  0
   -2.6401   -3.1891    0.0000 C   0  0  0  0  0  0  0  0  0  0  0  0
   -1.2135   -2.7256    0.0000 N   0  0  0  0  0  0  0  0  0  0  0  0
   -0.0000   -3.6073    0.0000 C   0  0  0  0  0  0  0  0  0  0  0  0
    1.2135   -2.7256    0.0000 C   0  0  0  0  0  0  0  0  0  0  0  0
    0.7500   -1.2990    0.0000 C   0  0  0  0  0  0  0  0  0  0  0  0
    1.5000    0.0000    0.0000 N   0  0  0  0  0  0  0  0  0  0  0  0
    0.7500    1.2990    0.0000 C   0  0  0  0  0  0  0  0  0  0  0  0
   -0.7500    1.2990    0.0000 C   0  0  0  0  0  0  0  0  0  0  0  0
   -1.5000    0.0000    0.0000 C   0  0  0  0  0  0  0  0  0  0  0  0
   -0.7500   -1.2990    0.0000 C   0  0  0  0  0  0  0  0  0  0  0  0
   -1.9483   -5.7711    0.0000 N   0  0  0  0  0  0  0  0  0  0  0  0
   -2.6983   -7.0701    0.0000 N   0  0  0  0  0  0  0  0  0  0  0  0
   -4.1655   -6.7583    0.0000 C   0  0  0  0  0  0  0  0  0  0  0  0
   -5.5358   -7.3684    0.0000 S   0  0  0  0  0  0  0  0  0  0  0  0
  -10.4048   -5.3537    0.0000 C   0  0  0  0  0  0  0  0  0  0  0  0
  1  2  1  0
  2  3  2  0
  3  4  1  0
  4  5  2  0
  5  6  1  0
  6  7  1  0
  7  8  1  0
  8  9  2  0
  9 10  1  0
 10 11  1  0
 11 12  1  0
 12 13  1  0
 13 14  1  0
 14 15  2  0
 15 16  1  0
 16 17  2  0
 17 18  1  0
 18 19  2  0
 19 20  1  0
 20 21  2  0
 11 22  2  0
 22 23  1  0
 23 24  2  0
 24 25  1  0
  6 26  2  0
 26  2  1  0
 25  8  1  0
 24 10  1  0
 21 13  1  0
 21 16  1  0
M  END
>  <Compound_ID>  (334) 
CHEMBL4786582

>  <Active>  (334) 
1.0

>  <Smiles>  (334) 
Clc1cccc(Nc2nn3c(Cn4ccc5ncccc54)nnc3s2)c1

>  <canonical_smi>  (334) 
Clc1cccc(Nc2nn3c(Cn4ccc5ncccc54)nnc3s2)c1

>  <Set>  (334) 
G2 active

>  <Set_type>  (334) 
External

>  <MW>  (334) 
381.85

>  <HBD>  (334) 
1

>  <HBA>  (334) 
5

>  <NRB>  (334) 
4

>  <NR>  (334) 
5

>  <NAR>  (334) 
5

>  <PSA>  (334) 
72.93

>  <Standard Type>  (334) 
Ki

>  <Standard Relation>  (334) 
'='

>  <Standard Units>  (334) 
nM

>  <Standard Value>  (334) 
40.0

>  <Assay ChEMBL ID>  (334) 
CHEMBL4715301

>  <Assay Description>  (334) 
Inhibition of c-Met (unknown origin) using poly Glu-Tyr as substrate preincubated for 10 mins followed by ATP addition by phosphoenolpyruvate/pyruvate kinase/lactate dehydrogenase coupled radiometric assay

>  <BAO Label>  (334) 
single protein format

$$$$

     RDKit          2D

 30 34  0  0  0  0  0  0  0  0999 V2000
   -9.9196  -10.6467    0.0000 C   0  0  0  0  0  0  0  0  0  0  0  0
   -8.8049  -11.6504    0.0000 O   0  0  0  0  0  0  0  0  0  0  0  0
   -7.3783  -11.1868    0.0000 C   0  0  0  0  0  0  0  0  0  0  0  0
   -7.0664   -9.7196    0.0000 C   0  0  0  0  0  0  0  0  0  0  0  0
   -5.6399   -9.2561    0.0000 C   0  0  0  0  0  0  0  0  0  0  0  0
   -4.5251  -10.2598    0.0000 C   0  0  0  0  0  0  0  0  0  0  0  0
   -3.0986   -9.7963    0.0000 C   0  0  0  0  0  0  0  0  0  0  0  0
   -1.9838  -10.8000    0.0000 C   0  0  0  0  0  0  0  0  0  0  0  0
   -0.5573  -10.3364    0.0000 C   0  0  0  0  0  0  0  0  0  0  0  0
   -0.2454   -8.8692    0.0000 C   0  0  0  0  0  0  0  0  0  0  0  0
    1.0537   -8.1192    0.0000 N   0  0  0  0  0  0  0  0  0  0  0  0
    0.7418   -6.6520    0.0000 N   0  0  0  0  0  0  0  0  0  0  0  0
   -0.7500   -6.4952    0.0000 C   0  0  0  0  0  0  0  0  0  0  0  0
   -1.5000   -5.1962    0.0000 C   0  0  0  0  0  0  0  0  0  0  0  0
   -3.0000   -5.1962    0.0000 C   0  0  0  0  0  0  0  0  0  0  0  0
   -0.7500   -3.8971    0.0000 C   0  0  0  0  0  0  0  0  0  0  0  0
    0.7500   -3.8971    0.0000 C   0  0  0  0  0  0  0  0  0  0  0  0
    1.5000   -2.5981    0.0000 C   0  0  0  0  0  0  0  0  0  0  0  0
    0.7500   -1.2990    0.0000 C   0  0  0  0  0  0  0  0  0  0  0  0
    1.5000    0.0000    0.0000 N   0  0  0  0  0  0  0  0  0  0  0  0
    0.7500    1.2990    0.0000 C   0  0  0  0  0  0  0  0  0  0  0  0
   -0.7500    1.2990    0.0000 C   0  0  0  0  0  0  0  0  0  0  0  0
   -1.5000    0.0000    0.0000 C   0  0  0  0  0  0  0  0  0  0  0  0
   -0.7500   -1.2990    0.0000 C   0  0  0  0  0  0  0  0  0  0  0  0
   -1.5000   -2.5981    0.0000 C   0  0  0  0  0  0  0  0  0  0  0  0
   -1.3601   -7.8655    0.0000 N   0  0  0  0  0  0  0  0  0  0  0  0
   -2.7867   -8.3290    0.0000 N   0  0  0  0  0  0  0  0  0  0  0  0
   -4.8370  -11.7270    0.0000 C   0  0  0  0  0  0  0  0  0  0  0  0
   -6.2636  -12.1905    0.0000 C   0  0  0  0  0  0  0  0  0  0  0  0
   -6.5755  -13.6577    0.0000 C   0  0  0  0  0  0  0  0  0  0  0  0
  1  2  1  0
  2  3  1  0
  3  4  2  0
  4  5  1  0
  5  6  2  0
  6  7  1  0
  7  8  1  0
  8  9  2  0
  9 10  1  0
 10 11  2  0
 11 12  1  0
 12 13  2  0
 13 14  1  0
 14 15  1  1
 14 16  1  0
 16 17  2  0
 17 18  1  0
 18 19  2  0
 19 20  1  0
 20 21  2  0
 21 22  1  0
 22 23  2  0
 23 24  1  0
 24 25  2  0
 13 26  1  0
 26 27  1  0
  6 28  1  0
 28 29  2  0
 29 30  1  0
 29  3  1  0
 27  7  2  0
 26 10  1  0
 25 16  1  0
 24 19  1  0
M  END
>  <Compound_ID>  (335) 
CHEMBL2431824

>  <Active>  (335) 
1.0

>  <Smiles>  (335) 
COc1ccc(-c2ccc3nnc([C@@H](C)c4ccc5ncccc5c4)n3n2)cc1C

>  <canonical_smi>  (335) 
COc1ccc(-c2ccc3nnc([C@@H](C)c4ccc5ncccc5c4)n3n2)cc1C

>  <Set>  (335) 
G2 active

>  <Set_type>  (335) 
External

>  <MW>  (335) 
395.47

>  <HBD>  (335) 
0

>  <HBA>  (335) 
5

>  <NRB>  (335) 
4

>  <NR>  (335) 
5

>  <NAR>  (335) 
5

>  <PSA>  (335) 
65.2

>  <Standard Type>  (335) 
Ki

>  <Standard Relation>  (335) 
'='

>  <Standard Units>  (335) 
nM

>  <Standard Value>  (335) 
3.0

>  <Assay ChEMBL ID>  (335) 
CHEMBL2434668

>  <Assay Description>  (335) 
Inhibition of N-terminal His-6-tagged human recombinant c-Met (974 to 1390) using Ac-ARDMYDKEYYSVHNK as substrate by spectrophotometric assay

>  <BAO Label>  (335) 
single protein format

$$$$

     RDKit          2D

 28 33  0  0  0  0  0  0  0  0999 V2000
   -5.6073    4.2609    0.0000 O   0  0  0  0  0  0  0  0  0  0  0  0
   -5.2955    2.7937    0.0000 C   0  0  0  0  0  0  0  0  0  0  0  0
   -6.2992    1.6790    0.0000 N   0  0  0  0  0  0  0  0  0  0  0  0
   -5.5492    0.3800    0.0000 C   0  0  0  0  0  0  0  0  0  0  0  0
   -6.1593   -0.9904    0.0000 O   0  0  0  0  0  0  0  0  0  0  0  0
   -4.0819    0.6918    0.0000 C   0  0  0  0  0  0  0  0  0  0  0  0
   -2.9672   -0.3119    0.0000 C   0  0  0  0  0  0  0  0  0  0  0  0
   -3.1240   -1.8037    0.0000 C   0  0  0  0  0  0  0  0  0  0  0  0
   -1.7537   -2.4138    0.0000 N   0  0  0  0  0  0  0  0  0  0  0  0
   -0.7500   -1.2990    0.0000 C   0  0  0  0  0  0  0  0  0  0  0  0
    0.7500   -1.2990    0.0000 C   0  0  0  0  0  0  0  0  0  0  0  0
    1.5000    0.0000    0.0000 C   0  0  0  0  0  0  0  0  0  0  0  0
    0.7500    1.2990    0.0000 C   0  0  0  0  0  0  0  0  0  0  0  0
   -0.7500    1.2990    0.0000 C   0  0  0  0  0  0  0  0  0  0  0  0
   -1.5000    0.0000    0.0000 C   0  0  0  0  0  0  0  0  0  0  0  0
    1.2299   -2.7273    0.0000 C   0  0  0  0  0  0  0  0  0  0  0  0
    0.3482   -3.9409    0.0000 C   0  0  0  0  0  0  0  0  0  0  0  0
   -1.1436   -3.7841    0.0000 C   0  0  0  0  0  0  0  0  0  0  0  0
   -3.9251    2.1836    0.0000 C   0  0  0  0  0  0  0  0  0  0  0  0
   -2.6261    2.9336    0.0000 C   0  0  0  0  0  0  0  0  0  0  0  0
   -1.2558    2.3235    0.0000 C   0  0  0  0  0  0  0  0  0  0  0  0
   -0.2521    3.4382    0.0000 N   0  0  0  0  0  0  0  0  0  0  0  0
   -1.0021    4.7373    0.0000 C   0  0  0  0  0  0  0  0  0  0  0  0
   -0.5386    6.1638    0.0000 C   0  0  0  0  0  0  0  0  0  0  0  0
   -1.5423    7.2786    0.0000 C   0  0  0  0  0  0  0  0  0  0  0  0
   -3.0095    6.9667    0.0000 C   0  0  0  0  0  0  0  0  0  0  0  0
   -3.4730    5.5401    0.0000 C   0  0  0  0  0  0  0  0  0  0  0  0
   -2.4693    4.4254    0.0000 C   0  0  0  0  0  0  0  0  0  0  0  0
  1  2  2  0
  2  3  1  0
  3  4  1  0
  4  5  2  0
  4  6  1  0
  6  7  1  6
  7  8  2  0
  8  9  1  0
  9 10  1  0
 10 11  2  0
 11 12  1  0
 12 13  2  0
 13 14  1  0
 14 15  2  0
 11 16  1  0
 16 17  1  0
 17 18  1  0
  6 19  1  0
 19 20  1  1
 20 21  2  0
 21 22  1  0
 22 23  1  0
 23 24  2  0
 24 25  1  0
 25 26  2  0
 26 27  1  0
 27 28  2  0
 19  2  1  0
 28 20  1  0
 15  7  1  0
 28 23  1  0
 18  9  1  0
 15 10  1  0
M  END
>  <Compound_ID>  (336) 
CHEMBL2103882

>  <Active>  (336) 
1.0

>  <Smiles>  (336) 
O=C1NC(=O)[C@@H](c2cn3c4c(cccc24)CCC3)[C@@H]1c1c[nH]c2ccccc12

>  <canonical_smi>  (336) 
O=C1NC(=O)[C@@H](c2cn3c4c(cccc24)CCC3)[C@@H]1c1c[nH]c2ccccc12

>  <Set>  (336) 
G2 active

>  <Set_type>  (336) 
External

>  <MW>  (336) 
369.42

>  <HBD>  (336) 
2

>  <HBA>  (336) 
2

>  <NRB>  (336) 
2

>  <NR>  (336) 
6

>  <NAR>  (336) 
4

>  <PSA>  (336) 
66.89

>  <Standard Type>  (336) 
Ki

>  <Standard Relation>  (336) 
'='

>  <Standard Units>  (336) 
nM

>  <Standard Value>  (336) 
355.0

>  <Assay ChEMBL ID>  (336) 
CHEMBL3767620

>  <Assay Description>  (336) 
Inhibition of c-Met (unknown origin)

>  <BAO Label>  (336) 
single protein format

$$$$

     RDKit          2D

 29 31  0  0  0  0  0  0  0  0999 V2000
   -5.3120   -0.6406    0.0000 C   0  0  0  0  0  0  0  0  0  0  0  0
   -6.4268    0.3631    0.0000 C   0  0  0  0  0  0  0  0  0  0  0  0
   -7.8533   -0.1004    0.0000 C   0  0  0  0  0  0  0  0  0  0  0  0
   -8.9681    0.9033    0.0000 C   0  0  0  0  0  0  0  0  0  0  0  0
   -8.6562    2.3705    0.0000 C   0  0  0  0  0  0  0  0  0  0  0  0
   -9.7709    3.3742    0.0000 O   0  0  0  0  0  0  0  0  0  0  0  0
   -7.2296    2.8340    0.0000 C   0  0  0  0  0  0  0  0  0  0  0  0
   -6.1149    1.8303    0.0000 C   0  0  0  0  0  0  0  0  0  0  0  0
   -4.6883    2.2939    0.0000 C   0  0  0  0  0  0  0  0  0  0  0  0
   -3.5736    1.2902    0.0000 C   0  0  0  0  0  0  0  0  0  0  0  0
   -2.1470    1.7537    0.0000 C   0  0  0  0  0  0  0  0  0  0  0  0
   -1.8351    3.2209    0.0000 C   0  0  0  0  0  0  0  0  0  0  0  0
   -2.9499    4.2246    0.0000 O   0  0  0  0  0  0  0  0  0  0  0  0
   -0.4086    3.6844    0.0000 C   0  0  0  0  0  0  0  0  0  0  0  0
    0.7062    2.6807    0.0000 C   0  0  0  0  0  0  0  0  0  0  0  0
    0.3943    1.2135    0.0000 C   0  0  0  0  0  0  0  0  0  0  0  0
    1.8615    1.5254    0.0000 C   0  0  0  0  0  0  0  0  0  0  0  0
    1.2760    0.0000    0.0000 C   0  0  0  0  0  0  0  0  0  0  0  0
    2.7760    0.0000    0.0000 C   0  0  0  0  0  0  0  0  0  0  0  0
    3.5260   -1.2990    0.0000 C   0  0  0  0  0  0  0  0  0  0  0  0
    3.5260    1.2990    0.0000 C   0  0  0  0  0  0  0  0  0  0  0  0
    5.0260    1.2990    0.0000 C   0  0  0  0  0  0  0  0  0  0  0  0
    5.7760    2.5981    0.0000 C   0  0  0  0  0  0  0  0  0  0  0  0
    7.2760    2.5981    0.0000 C   0  0  0  0  0  0  0  0  0  0  0  0
    8.0260    3.8971    0.0000 C   0  0  0  0  0  0  0  0  0  0  0  0
    8.0260    1.2990    0.0000 C   0  0  0  0  0  0  0  0  0  0  0  0
    0.3943   -1.2135    0.0000 C   0  0  0  0  0  0  0  0  0  0  0  0
   -1.0323   -0.7500    0.0000 C   0  0  0  0  0  0  0  0  0  0  0  0
   -1.0323    0.7500    0.0000 C   0  0  0  0  0  0  0  0  0  0  0  0
  1  2  1  0
  2  3  2  0
  3  4  1  0
  4  5  2  0
  5  6  1  0
  5  7  1  0
  7  8  2  0
  8  9  1  0
  9 10  1  0
 11 10  1  6
 11 12  1  0
 12 13  1  6
 12 14  1  0
 14 15  1  0
 15 16  1  0
 16 17  1  1
 16 18  1  0
 18 19  1  0
 19 20  1  1
 19 21  1  0
 21 22  1  0
 22 23  1  0
 23 24  1  0
 24 25  1  0
 24 26  1  0
 18 27  1  1
 27 28  1  0
 29 28  1  1
  8  2  1  0
 29 11  1  0
 29 16  1  0
M  END
>  <Compound_ID>  (337) 
CHEMBL517956

>  <Active>  (337) 
0.0

>  <Smiles>  (337) 
Cc1ccc(O)cc1CC[C@@H]1[C@H](O)CC[C@]2(C)[C@@H]([C@H](C)CCCC(C)C)CC[C@@H]12

>  <canonical_smi>  (337) 
Cc1ccc(O)cc1CC[C@H]1[C@@H]2CC[C@H]([C@H](C)CCCC(C)C)[C@@]2(C)CC[C@H]1O

>  <Set>  (337) 
G2 inactive

>  <Set_type>  (337) 
External

>  <MW>  (337) 
400.65

>  <HBD>  (337) 
2

>  <HBA>  (337) 
2

>  <NRB>  (337) 
8

>  <NR>  (337) 
3

>  <NAR>  (337) 
1

>  <PSA>  (337) 
40.46

>  <Standard Type>  (337) 
IC50

>  <Standard Relation>  (337) 
'='

>  <Standard Units>  (337) 
nM

>  <Standard Value>  (337) 
78000.0

>  <Assay ChEMBL ID>  (337) 
CHEMBL1926227

>  <Assay Description>  (337) 
Inhibition of wild type human MET using poly(Ala,Glu,Lys,Tyr) as substrate

>  <BAO Label>  (337) 
single protein format

$$$$

     RDKit          2D

 57 64  0  0  0  0  0  0  0  0999 V2000
    3.0000   -5.1962    0.0000 N   0  0  0  0  0  0  0  0  0  0  0  0
    1.5000   -5.1962    0.0000 C   0  0  0  0  0  0  0  0  0  0  0  0
    0.7500   -6.4952    0.0000 C   0  0  0  0  0  0  0  0  0  0  0  0
    1.5000   -7.7942    0.0000 S   0  0  0  0  0  0  0  0  0  0  0  0
    0.2010   -8.5442    0.0000 O   0  0  0  0  0  0  0  0  0  0  0  0
    2.7990   -7.0442    0.0000 O   0  0  0  0  0  0  0  0  0  0  0  0
    2.2500   -9.0933    0.0000 O   0  0  0  0  0  1  0  0  0  0  0  0
   -0.7500   -6.4952    0.0000 C   0  0  0  0  0  0  0  0  0  0  0  0
   -1.5000   -5.1962    0.0000 C   0  0  0  0  0  0  0  0  0  0  0  0
   -3.0000   -5.1962    0.0000 N   0  0  0  0  0  0  0  0  0  0  0  0
   -3.7500   -6.4952    0.0000 C   0  0  0  0  0  0  0  0  0  0  0  0
   -5.2500   -6.4952    0.0000 C   0  0  0  0  0  0  0  0  0  0  0  0
   -6.0000   -7.7942    0.0000 C   0  0  0  0  0  0  0  0  0  0  0  0
   -5.2500   -9.0933    0.0000 C   0  0  0  0  0  0  0  0  0  0  0  0
   -6.0000  -10.3923    0.0000 O   0  0  0  0  0  0  0  0  0  0  0  0
   -7.5000  -10.3923    0.0000 C   0  0  0  0  0  0  0  0  0  0  0  0
   -8.2500   -9.0933    0.0000 C   0  0  0  0  0  0  0  0  0  0  0  0
   -9.7500   -9.0933    0.0000 C   0  0  0  0  0  0  0  0  0  0  0  0
  -10.5000  -10.3923    0.0000 C   0  0  0  0  0  0  0  0  0  0  0  0
  -12.0000  -10.3923    0.0000 N   0  0  0  0  0  0  0  0  0  0  0  0
  -12.7500   -9.0933    0.0000 C   0  0  0  0  0  0  0  0  0  0  0  0
  -12.0000   -7.7942    0.0000 C   0  0  0  0  0  0  0  0  0  0  0  0
  -12.7500   -6.4952    0.0000 C   0  0  0  0  0  0  0  0  0  0  0  0
  -12.0000   -5.1962    0.0000 S   0  0  0  0  0  0  0  0  0  0  0  0
  -10.7010   -5.9462    0.0000 O   0  0  0  0  0  0  0  0  0  0  0  0
  -13.2990   -4.4462    0.0000 O   0  0  0  0  0  0  0  0  0  0  0  0
  -11.2500   -3.8971    0.0000 O   0  0  0  0  0  1  0  0  0  0  0  0
  -14.2500   -6.4952    0.0000 C   0  0  0  0  0  0  0  0  0  0  0  0
  -15.0000   -5.1962    0.0000 N   0  0  0  0  0  0  0  0  0  0  0  0
  -15.0000   -7.7942    0.0000 C   0  0  0  0  0  0  0  0  0  0  0  0
  -14.2500   -9.0933    0.0000 C   0  0  0  0  0  0  0  0  0  0  0  0
  -15.0000  -10.3923    0.0000 C   0  0  0  0  0  0  0  0  0  0  0  0
  -14.2500  -11.6913    0.0000 O   0  0  0  0  0  0  0  0  0  0  0  0
  -16.5000  -10.3923    0.0000 C   0  0  0  0  0  0  0  0  0  0  0  0
  -17.2500  -11.6913    0.0000 C   0  0  0  0  0  0  0  0  0  0  0  0
  -18.7500  -11.6913    0.0000 C   0  0  0  0  0  0  0  0  0  0  0  0
  -19.5000  -10.3923    0.0000 C   0  0  0  0  0  0  0  0  0  0  0  0
  -18.7500   -9.0933    0.0000 C   0  0  0  0  0  0  0  0  0  0  0  0
  -17.2500   -9.0933    0.0000 C   0  0  0  0  0  0  0  0  0  0  0  0
  -16.5000   -7.7942    0.0000 C   0  0  0  0  0  0  0  0  0  0  0  0
  -17.2500   -6.4952    0.0000 O   0  0  0  0  0  0  0  0  0  0  0  0
   -9.7500  -11.6913    0.0000 C   0  0  0  0  0  0  0  0  0  0  0  0
   -8.2500  -11.6913    0.0000 C   0  0  0  0  0  0  0  0  0  0  0  0
   -3.7500   -9.0933    0.0000 C   0  0  0  0  0  0  0  0  0  0  0  0
   -3.0000   -7.7942    0.0000 C   0  0  0  0  0  0  0  0  0  0  0  0
   -0.7500   -3.8971    0.0000 C   0  0  0  0  0  0  0  0  0  0  0  0
    0.7500   -3.8971    0.0000 C   0  0  0  0  0  0  0  0  0  0  0  0
    1.5000   -2.5981    0.0000 C   0  0  0  0  0  0  0  0  0  0  0  0
    3.0000   -2.5981    0.0000 O   0  0  0  0  0  0  0  0  0  0  0  0
    0.7500   -1.2990    0.0000 C   0  0  0  0  0  0  0  0  0  0  0  0
    1.5000    0.0000    0.0000 C   0  0  0  0  0  0  0  0  0  0  0  0
    0.7500    1.2990    0.0000 C   0  0  0  0  0  0  0  0  0  0  0  0
   -0.7500    1.2990    0.0000 C   0  0  0  0  0  0  0  0  0  0  0  0
   -1.5000    0.0000    0.0000 C   0  0  0  0  0  0  0  0  0  0  0  0
   -0.7500   -1.2990    0.0000 C   0  0  0  0  0  0  0  0  0  0  0  0
   -1.5000   -2.5981    0.0000 C   0  0  0  0  0  0  0  0  0  0  0  0
   -3.0000   -2.5981    0.0000 O   0  0  0  0  0  0  0  0  0  0  0  0
  1  2  1  0
  2  3  2  0
  3  4  1  0
  4  5  2  0
  4  6  2  0
  4  7  1  0
  3  8  1  0
  8  9  2  0
  9 10  1  0
 10 11  1  0
 11 12  2  0
 12 13  1  0
 13 14  2  0
 14 15  1  0
 15 16  1  0
 16 17  2  0
 17 18  1  0
 18 19  2  0
 19 20  1  0
 20 21  1  0
 21 22  2  0
 22 23  1  0
 23 24  1  0
 24 25  2  0
 24 26  2  0
 24 27  1  0
 23 28  2  0
 28 29  1  0
 28 30  1  0
 30 31  2  0
 31 32  1  0
 32 33  2  0
 32 34  1  0
 34 35  2  0
 35 36  1  0
 36 37  2  0
 37 38  1  0
 38 39  2  0
 39 40  1  0
 40 41  2  0
 19 42  1  0
 42 43  2  0
 14 44  1  0
 44 45  2  0
  9 46  1  0
 46 47  2  0
 47 48  1  0
 48 49  2  0
 48 50  1  0
 50 51  2  0
 51 52  1  0
 52 53  2  0
 53 54  1  0
 54 55  2  0
 55 56  1  0
 56 57  2  0
 47  2  1  0
 55 50  1  0
 45 11  1  0
 56 46  1  0
 43 16  1  0
 31 21  1  0
 39 34  1  0
 40 30  1  0
M  CHG  2   7  -1  27  -1
M  END
>  <Compound_ID>  (338) 
CHEMBL2337906

>  <Active>  (338) 
0.0

>  <Smiles>  (338) 
Nc1c(S(=O)(=O)[O-])cc(Nc2ccc(Oc3ccc(Nc4cc(S(=O)(=O)[O-])c(N)c5c4C(=O)c4ccccc4C5=O)cc3)cc2)c2c1C(=O)c1ccccc1C2=O

>  <canonical_smi>  (338) 
Nc1c(S(=O)(=O)[O-])cc(Nc2ccc(Oc3ccc(Nc4cc(S(=O)(=O)[O-])c(N)c5c4C(=O)c4ccccc4C5=O)cc3)cc2)c2c1C(=O)c1ccccc1C2=O

>  <Set>  (338) 
G2 inactive

>  <Set_type>  (338) 
External

>  <MW>  (338) 
800.78

>  <HBD>  (338) 
4

>  <HBA>  (338) 
15

>  <NRB>  (338) 
8

>  <NR>  (338) 
8

>  <NAR>  (338) 
8

>  <PSA>  (338) 
268.01

>  <Standard Type>  (338) 
Inhibition

>  <Standard Relation>  (338) 
'='

>  <Standard Units>  (338) 
%

>  <Standard Value>  (338) 
8.7

>  <Assay ChEMBL ID>  (338) 
CHEMBL2340058

>  <Assay Description>  (338) 
Inhibition of c-Met (unknown origin) using Poly(Glu,Tyr) at 4:1 ratio as substrate at 10 uM preincubated with substrate prior to enzyme addition measured after 60 mins by ELISA

>  <BAO Label>  (338) 
single protein format

$$$$

     RDKit          2D

 33 37  0  0  0  0  0  0  0  0999 V2000
   -0.0967    5.1517    0.0000 C   0  0  0  0  0  0  0  0  0  0  0  0
   -0.4086    3.6844    0.0000 C   0  0  0  0  0  0  0  0  0  0  0  0
    0.7062    2.6807    0.0000 O   0  0  0  0  0  0  0  0  0  0  0  0
    0.3943    1.2135    0.0000 C   0  0  0  0  0  0  0  0  0  0  0  0
    1.2760    0.0000    0.0000 C   0  0  0  0  0  0  0  0  0  0  0  0
    0.3943   -1.2135    0.0000 C   0  0  0  0  0  0  0  0  0  0  0  0
    0.8578   -2.6401    0.0000 O   0  0  0  0  0  0  0  0  0  0  0  0
   -1.0323   -0.7500    0.0000 O   0  0  0  0  0  0  0  0  0  0  0  0
   -1.0323    0.7500    0.0000 C   0  0  0  0  0  0  0  0  0  0  0  0
   -2.1470    1.7537    0.0000 C   0  0  0  0  0  0  0  0  0  0  0  0
   -1.8351    3.2209    0.0000 C   0  0  0  0  0  0  0  0  0  0  0  0
   -2.9499    4.2246    0.0000 C   0  0  0  0  0  0  0  0  0  0  0  0
   -2.6380    5.6918    0.0000 O   0  0  0  0  0  0  0  0  0  0  0  0
   -4.3764    3.7611    0.0000 C   0  0  0  0  0  0  0  0  0  0  0  0
   -4.6883    2.2939    0.0000 C   0  0  0  0  0  0  0  0  0  0  0  0
   -6.1149    1.8303    0.0000 C   0  0  0  0  0  0  0  0  0  0  0  0
   -7.2296    2.8340    0.0000 C   0  0  0  0  0  0  0  0  0  0  0  0
   -6.9177    4.3013    0.0000 C   0  0  0  0  0  0  0  0  0  0  0  0
   -8.0325    5.3050    0.0000 C   0  0  0  0  0  0  0  0  0  0  0  0
   -7.7206    6.7722    0.0000 C   0  0  0  0  0  0  0  0  0  0  0  0
   -8.8353    7.7759    0.0000 C   0  0  0  0  0  0  0  0  0  0  0  0
   -8.5234    9.2431    0.0000 N   0  0  0  0  0  0  0  0  0  0  0  0
   -7.0969    9.7066    0.0000 C   0  0  0  0  0  0  0  0  0  0  0  0
   -9.6382   10.2468    0.0000 C   0  0  0  0  0  0  0  0  0  0  0  0
  -10.2619    7.3123    0.0000 C   0  0  0  0  0  0  0  0  0  0  0  0
  -11.3766    8.3160    0.0000 O   0  0  0  0  0  0  0  0  0  0  0  0
  -10.5738    5.8451    0.0000 C   0  0  0  0  0  0  0  0  0  0  0  0
  -12.0003    5.3816    0.0000 C   0  0  0  0  0  0  0  0  0  0  0  0
   -9.4590    4.8414    0.0000 O   0  0  0  0  0  0  0  0  0  0  0  0
   -5.4912    4.7648    0.0000 C   0  0  0  0  0  0  0  0  0  0  0  0
   -5.1793    6.2320    0.0000 O   0  0  0  0  0  0  0  0  0  0  0  0
   -3.5736    1.2902    0.0000 C   0  0  0  0  0  0  0  0  0  0  0  0
   -3.8855   -0.1771    0.0000 O   0  0  0  0  0  0  0  0  0  0  0  0
  2  1  1  1
  2  3  1  0
  3  4  1  0
  4  5  1  6
  5  6  1  0
  6  7  2  0
  6  8  1  0
  9  8  1  6
  9 10  1  0
 10 11  2  0
 11 12  1  0
 12 13  2  0
 12 14  1  0
 14 15  2  0
 15 16  1  0
 16 17  2  0
 17 18  1  0
 19 18  1  6
 19 20  1  0
 20 21  1  0
 21 22  1  6
 22 23  1  0
 22 24  1  0
 21 25  1  0
 25 26  1  1
 25 27  1  0
 27 28  1  6
 27 29  1  0
 18 30  2  0
 30 31  1  0
 15 32  1  0
 32 33  2  0
 11  2  1  0
 30 14  1  0
  9  4  1  0
 32 10  1  0
 29 19  1  0
M  END
>  <Compound_ID>  (339) 
CHEMBL2216825

>  <Active>  (339) 
0.0

>  <Smiles>  (339) 
C[C@H]1O[C@@H]2CC(=O)O[C@@H]2C2=C1C(=O)c1c(ccc([C@H]3C[C@@H](N(C)C)[C@H](O)[C@@H](C)O3)c1O)C2=O

>  <canonical_smi>  (339) 
C[C@H]1O[C@@H]2CC(=O)O[C@@H]2C2=C1C(=O)c1c(ccc([C@H]3C[C@@H](N(C)C)[C@H](O)[C@@H](C)O3)c1O)C2=O

>  <Set>  (339) 
G2 inactive

>  <Set_type>  (339) 
External

>  <MW>  (339) 
457.48

>  <HBD>  (339) 
2

>  <HBA>  (339) 
9

>  <NRB>  (339) 
2

>  <NR>  (339) 
5

>  <NAR>  (339) 
1

>  <PSA>  (339) 
122.6

>  <Standard Type>  (339) 
Inhibition

>  <Standard Relation>  (339) 
'='

>  <Standard Units>  (339) 
%

>  <Standard Value>  (339) 
14.0

>  <Assay ChEMBL ID>  (339) 
CHEMBL1019627

>  <Assay Description>  (339) 
Inhibition of MET at 1 uM

>  <BAO Label>  (339) 
single protein format

$$$$

     RDKit          2D

 22 24  0  0  0  0  0  0  0  0999 V2000
   -0.7500   -3.8971    0.0000 O   0  0  0  0  0  0  0  0  0  0  0  0
    0.7500   -3.8971    0.0000 C   0  0  0  0  0  0  0  0  0  0  0  0
    1.5000   -2.5981    0.0000 N   0  0  0  0  0  0  0  0  0  0  0  0
    0.7500   -1.2990    0.0000 C   0  0  0  0  0  0  0  0  0  0  0  0
    1.5000    0.0000    0.0000 C   0  0  0  0  0  0  0  0  0  0  0  0
    0.7500    1.2990    0.0000 C   0  0  0  0  0  0  0  0  0  0  0  0
    1.5000    2.5981    0.0000 C   0  0  0  0  0  0  0  0  0  0  0  0
    3.0000    2.5981    0.0000 C   0  0  0  0  0  0  0  0  0  0  0  0
    3.7500    3.8971    0.0000 C   0  0  0  0  0  0  0  0  0  0  0  0
    3.0000    5.1962    0.0000 N   0  0  0  0  0  0  0  0  0  0  0  0
    1.5000    5.1962    0.0000 C   0  0  0  0  0  0  0  0  0  0  0  0
    0.7500    3.8971    0.0000 C   0  0  0  0  0  0  0  0  0  0  0  0
   -0.7500    1.2990    0.0000 C   0  0  0  0  0  0  0  0  0  0  0  0
   -1.5000    0.0000    0.0000 N   0  0  0  0  0  0  0  0  0  0  0  0
   -0.7500   -1.2990    0.0000 C   0  0  0  0  0  0  0  0  0  0  0  0
   -1.5000   -2.5981    0.0000 O   0  0  0  0  0  0  0  0  0  0  0  0
    1.5000   -5.1962    0.0000 C   0  0  0  0  0  0  0  0  0  0  0  0
    0.7500   -6.4952    0.0000 C   0  0  0  0  0  0  0  0  0  0  0  0
    1.5000   -7.7942    0.0000 C   0  0  0  0  0  0  0  0  0  0  0  0
    3.0000   -7.7942    0.0000 C   0  0  0  0  0  0  0  0  0  0  0  0
    3.7500   -6.4952    0.0000 C   0  0  0  0  0  0  0  0  0  0  0  0
    3.0000   -5.1962    0.0000 C   0  0  0  0  0  0  0  0  0  0  0  0
  1  2  2  0
  2  3  1  0
  3  4  1  0
  4  5  2  0
  5  6  1  0
  6  7  1  0
  7  8  2  0
  8  9  1  0
  9 10  2  0
 10 11  1  0
 11 12  2  0
  6 13  2  0
 13 14  1  0
 14 15  1  0
 15 16  2  0
  2 17  1  0
 17 18  2  0
 18 19  1  0
 19 20  2  0
 20 21  1  0
 21 22  2  0
 15  4  1  0
 22 17  1  0
 12  7  1  0
M  END
>  <Compound_ID>  (340) 
CHEMBL1738828

>  <Active>  (340) 
0.0

>  <Smiles>  (340) 
O=C(Nc1cc(-c2ccncc2)c[nH]c1=O)c1ccccc1

>  <canonical_smi>  (340) 
O=C(Nc1cc(-c2ccncc2)c[nH]c1=O)c1ccccc1

>  <Set>  (340) 
G2 inactive

>  <Set_type>  (340) 
External

>  <MW>  (340) 
291.31

>  <HBD>  (340) 
2

>  <HBA>  (340) 
3

>  <NRB>  (340) 
3

>  <NR>  (340) 
3

>  <NAR>  (340) 
3

>  <PSA>  (340) 
74.85

>  <Standard Type>  (340) 
Inhibition

>  <Standard Relation>  (340) 
'='

>  <Standard Units>  (340) 
%

>  <Standard Value>  (340) 
9.0

>  <Assay ChEMBL ID>  (340) 
CHEMBL4256682

>  <Assay Description>  (340) 
Inhibition of MET (unknown origin) at 30 uM using peptide as substrate in presence of ATP and MgCl2 by mobility shift assay relative to control

>  <BAO Label>  (340) 
single protein format

$$$$

     RDKit          2D

 19 20  0  0  0  0  0  0  0  0999 V2000
   -0.6546  -12.7344    0.0000 N   0  0  0  0  0  0  0  0  0  0  0  0
   -0.8113  -11.2427    0.0000 C   0  0  0  0  0  0  0  0  0  0  0  0
    0.4022  -10.3610    0.0000 C   0  0  0  0  0  0  0  0  0  0  0  0
    0.2454   -8.8692    0.0000 N   0  0  0  0  0  0  0  0  0  0  0  0
   -1.0537   -8.1192    0.0000 C   0  0  0  0  0  0  0  0  0  0  0  0
   -2.4240   -8.7293    0.0000 O   0  0  0  0  0  0  0  0  0  0  0  0
   -0.7418   -6.6520    0.0000 S   0  0  0  0  0  0  0  0  0  0  0  0
    0.7500   -6.4952    0.0000 C   0  0  0  0  0  0  0  0  0  0  0  0
    1.5000   -5.1962    0.0000 C   0  0  0  0  0  0  0  0  0  0  0  0
    0.7500   -3.8971    0.0000 C   0  0  0  0  0  0  0  0  0  0  0  0
    1.5000   -2.5981    0.0000 C   0  0  0  0  0  0  0  0  0  0  0  0
    0.7500   -1.2990    0.0000 C   0  0  0  0  0  0  0  0  0  0  0  0
    1.5000    0.0000    0.0000 C   0  0  0  0  0  0  0  0  0  0  0  0
    0.7500    1.2990    0.0000 C   0  0  0  0  0  0  0  0  0  0  0  0
   -0.7500    1.2990    0.0000 C   0  0  0  0  0  0  0  0  0  0  0  0
   -1.5000    0.0000    0.0000 C   0  0  0  0  0  0  0  0  0  0  0  0
   -0.7500   -1.2990    0.0000 C   0  0  0  0  0  0  0  0  0  0  0  0
    1.3601   -7.8655    0.0000 C   0  0  0  0  0  0  0  0  0  0  0  0
    2.8273   -8.1774    0.0000 O   0  0  0  0  0  0  0  0  0  0  0  0
  1  2  1  0
  2  3  1  0
  3  4  1  0
  4  5  1  0
  5  6  2  0
  5  7  1  0
  7  8  1  0
  8  9  2  0
  9 10  1  0
 10 11  1  0
 11 12  1  0
 12 13  1  0
 13 14  1  0
 14 15  1  0
 15 16  1  0
 16 17  1  0
  8 18  1  0
 18 19  2  0
 18  4  1  0
 17 12  1  0
M  END
>  <Compound_ID>  (341) 
CHEMBL3732044

>  <Active>  (341) 
0.0

>  <Smiles>  (341) 
NCCN1C(=O)S/C(=C\CCC2CCCCC2)C1=O

>  <canonical_smi>  (341) 
NCCN1C(=O)S/C(=C\CCC2CCCCC2)C1=O

>  <Set>  (341) 
G2 inactive

>  <Set_type>  (341) 
External

>  <MW>  (341) 
282.41

>  <HBD>  (341) 
1

>  <HBA>  (341) 
4

>  <NRB>  (341) 
5

>  <NR>  (341) 
2

>  <NAR>  (341) 
0

>  <PSA>  (341) 
63.4

>  <Standard Type>  (341) 
Inhibition

>  <Standard Relation>  (341) 
'='

>  <Standard Units>  (341) 
%

>  <Standard Value>  (341) 
-1.0

>  <Assay ChEMBL ID>  (341) 
CHEMBL3734488

>  <Assay Description>  (341) 
Inhibition of recombinant human c-MET using fluorescein-labeled peptide as substrate by fluorescence-electrophoretic mobility shift assay

>  <BAO Label>  (341) 
single protein format

$$$$

     RDKit          2D

 21 23  0  0  0  0  0  0  0  0999 V2000
   -8.9681    0.9033    0.0000 C   0  0  0  0  0  0  0  0  0  0  0  0
   -7.8533   -0.1004    0.0000 O   0  0  0  0  0  0  0  0  0  0  0  0
   -6.4268    0.3631    0.0000 C   0  0  0  0  0  0  0  0  0  0  0  0
   -6.1149    1.8303    0.0000 C   0  0  0  0  0  0  0  0  0  0  0  0
   -4.6883    2.2939    0.0000 C   0  0  0  0  0  0  0  0  0  0  0  0
   -3.5736    1.2902    0.0000 C   0  0  0  0  0  0  0  0  0  0  0  0
   -2.1470    1.7537    0.0000 C   0  0  0  0  0  0  0  0  0  0  0  0
   -1.8351    3.2209    0.0000 C   0  0  0  0  0  0  0  0  0  0  0  0
   -2.9499    4.2246    0.0000 C   0  0  0  0  0  0  0  0  0  0  0  0
   -0.4086    3.6844    0.0000 N   0  0  0  0  0  0  0  0  0  0  0  0
    0.7062    2.6807    0.0000 C   0  0  0  0  0  0  0  0  0  0  0  0
    2.1328    3.1443    0.0000 O   0  0  0  0  0  0  0  0  0  0  0  0
    0.3943    1.2135    0.0000 C   0  0  0  0  0  0  0  0  0  0  0  0
    1.2760    0.0000    0.0000 C   0  0  0  0  0  0  0  0  0  0  0  0
    2.7760    0.0000    0.0000 N   0  0  0  0  0  0  0  0  0  0  0  0
    0.3943   -1.2135    0.0000 N   0  0  0  0  0  0  0  0  0  0  0  0
   -1.0323   -0.7500    0.0000 N   0  0  0  0  0  0  0  0  0  0  0  0
   -2.2458   -1.6317    0.0000 C   0  0  0  0  0  0  0  0  0  0  0  0
   -1.0323    0.7500    0.0000 C   0  0  0  0  0  0  0  0  0  0  0  0
   -3.8855   -0.1771    0.0000 C   0  0  0  0  0  0  0  0  0  0  0  0
   -5.3120   -0.6406    0.0000 C   0  0  0  0  0  0  0  0  0  0  0  0
  1  2  1  0
  2  3  1  0
  3  4  2  0
  4  5  1  0
  5  6  2  0
  6  7  1  0
  7  8  2  0
  8  9  1  0
  8 10  1  0
 10 11  1  0
 11 12  2  0
 11 13  1  0
 13 14  1  0
 14 15  1  0
 14 16  2  0
 16 17  1  0
 17 18  1  0
 17 19  1  0
  6 20  1  0
 20 21  2  0
 21  3  1  0
 19  7  1  0
 19 13  2  0
M  END
>  <Compound_ID>  (342) 
CHEMBL1813628

>  <Active>  (342) 
0.0

>  <Smiles>  (342) 
COc1ccc(-c2c(C)[nH]c(=O)c3c(N)nn(C)c23)cc1

>  <canonical_smi>  (342) 
COc1ccc(-c2c(C)[nH]c(=O)c3c(N)nn(C)c23)cc1

>  <Set>  (342) 
G2 inactive

>  <Set_type>  (342) 
External

>  <MW>  (342) 
284.32

>  <HBD>  (342) 
2

>  <HBA>  (342) 
4

>  <NRB>  (342) 
2

>  <NR>  (342) 
3

>  <NAR>  (342) 
3

>  <PSA>  (342) 
85.93

>  <Standard Type>  (342) 
Inhibition

>  <Standard Relation>  (342) 
'='

>  <Standard Units>  (342) 
%

>  <Standard Value>  (342) 
18.0

>  <Assay ChEMBL ID>  (342) 
CHEMBL1815730

>  <Assay Description>  (342) 
Inhibition of MET at 30 uM by microfluidic mobility shift assay

>  <BAO Label>  (342) 
single protein format

$$$$

     RDKit          2D

 24 27  0  0  0  0  0  0  0  0999 V2000
    5.2500   -1.2990    0.0000 C   0  0  0  0  0  0  0  0  0  0  0  0
    3.7500   -1.2990    0.0000 O   0  0  0  0  0  0  0  0  0  0  0  0
    3.0000    0.0000    0.0000 C   0  0  0  0  0  0  0  0  0  0  0  0
    3.7500    1.2990    0.0000 O   0  0  0  0  0  0  0  0  0  0  0  0
    1.5000    0.0000    0.0000 C   0  0  0  0  0  0  0  0  0  0  0  0
    0.7500   -1.2990    0.0000 C   0  0  0  0  0  0  0  0  0  0  0  0
   -0.7500   -1.2990    0.0000 C   0  0  0  0  0  0  0  0  0  0  0  0
   -1.5000    0.0000    0.0000 C   0  0  0  0  0  0  0  0  0  0  0  0
   -2.2500    1.2990    0.0000 C   0  0  0  0  0  0  0  0  0  0  0  0
   -3.7500    1.2990    0.0000 C   0  0  0  0  0  0  0  0  0  0  0  0
   -4.5000   -0.0000    0.0000 N   0  0  0  0  0  0  0  0  0  0  0  0
   -6.0000   -0.0000    0.0000 C   0  0  0  0  0  0  0  0  0  0  0  0
   -6.7500   -1.2990    0.0000 N   0  0  0  0  0  0  0  0  0  0  0  0
   -8.2500   -1.2990    0.0000 C   0  0  0  0  0  0  0  0  0  0  0  0
   -9.0000   -0.0000    0.0000 N   0  0  0  0  0  0  0  0  0  0  0  0
   -8.2500    1.2990    0.0000 C   0  0  0  0  0  0  0  0  0  0  0  0
   -8.7135    2.7256    0.0000 N   0  0  0  0  0  0  0  0  0  0  0  0
   -7.5000    3.6073    0.0000 C   0  0  0  0  0  0  0  0  0  0  0  0
   -6.2865    2.7256    0.0000 N   0  0  0  0  0  0  0  0  0  0  0  0
   -6.7500    1.2990    0.0000 C   0  0  0  0  0  0  0  0  0  0  0  0
   -3.7500   -1.2990    0.0000 C   0  0  0  0  0  0  0  0  0  0  0  0
   -2.2500   -1.2990    0.0000 C   0  0  0  0  0  0  0  0  0  0  0  0
   -0.7500    1.2990    0.0000 N   0  0  0  0  0  0  0  0  0  0  0  0
    0.7500    1.2990    0.0000 C   0  0  0  0  0  0  0  0  0  0  0  0
  1  2  1  0
  2  3  1  0
  3  4  2  0
  3  5  1  0
  5  6  1  0
  6  7  1  0
  7  8  1  0
  8  9  1  0
  9 10  1  0
 10 11  1  0
 11 12  1  0
 12 13  2  0
 13 14  1  0
 14 15  2  0
 15 16  1  0
 16 17  1  0
 17 18  1  0
 18 19  2  0
 19 20  1  0
 11 21  1  0
 21 22  1  0
  8 23  1  0
 23 24  1  0
 24  5  1  0
 22  8  1  0
 20 12  1  0
 20 16  2  0
M  END
>  <Compound_ID>  (343) 
CHEMBL2420903

>  <Active>  (343) 
0.0

>  <Smiles>  (343) 
COC(=O)C1CCC2(CCN(c3ncnc4[nH]cnc34)CC2)NC1

>  <canonical_smi>  (343) 
COC(=O)C1CCC2(CCN(c3ncnc4[nH]cnc34)CC2)NC1

>  <Set>  (343) 
G2 inactive

>  <Set_type>  (343) 
External

>  <MW>  (343) 
330.39

>  <HBD>  (343) 
2

>  <HBA>  (343) 
7

>  <NRB>  (343) 
2

>  <NR>  (343) 
4

>  <NAR>  (343) 
2

>  <PSA>  (343) 
96.03

>  <Standard Type>  (343) 
Inhibition

>  <Standard Relation>  (343) 
'='

>  <Standard Units>  (343) 
%

>  <Standard Value>  (343) 
11.0

>  <Assay ChEMBL ID>  (343) 
CHEMBL2424318

>  <Assay Description>  (343) 
Inhibition of MET (unknown origin) at 30 uM by microfluidic mobility shift assay relative to control

>  <BAO Label>  (343) 
single protein format

$$$$

     RDKit          2D

 38 42  0  0  0  0  0  0  0  0999 V2000
    6.3579   -8.4259    0.0000 C   0  0  0  0  0  0  0  0  0  0  0  0
    6.2011   -6.9341    0.0000 C   0  0  0  0  0  0  0  0  0  0  0  0
    4.8308   -6.3240    0.0000 O   0  0  0  0  0  0  0  0  0  0  0  0
    4.6740   -4.8322    0.0000 C   0  0  0  0  0  0  0  0  0  0  0  0
    5.8875   -3.9505    0.0000 O   0  0  0  0  0  0  0  0  0  0  0  0
    3.3037   -4.2221    0.0000 C   0  0  0  0  0  0  0  0  0  0  0  0
    2.9918   -2.7549    0.0000 N   0  0  0  0  0  0  0  0  0  0  0  0
    1.5000   -2.5981    0.0000 N   0  0  0  0  0  0  0  0  0  0  0  0
    0.7500   -1.2990    0.0000 C   0  0  0  0  0  0  0  0  0  0  0  0
    1.5000    0.0000    0.0000 C   0  0  0  0  0  0  0  0  0  0  0  0
    0.7500    1.2990    0.0000 C   0  0  0  0  0  0  0  0  0  0  0  0
   -0.7500    1.2990    0.0000 C   0  0  0  0  0  0  0  0  0  0  0  0
   -1.5000    2.5981    0.0000 Cl  0  0  0  0  0  0  0  0  0  0  0  0
   -1.5000    0.0000    0.0000 C   0  0  0  0  0  0  0  0  0  0  0  0
   -0.7500   -1.2990    0.0000 C   0  0  0  0  0  0  0  0  0  0  0  0
    0.8899   -3.9684    0.0000 C   0  0  0  0  0  0  0  0  0  0  0  0
   -0.5773   -4.2803    0.0000 N   0  0  0  0  0  0  0  0  0  0  0  0
   -1.0409   -5.7068    0.0000 C   0  0  0  0  0  0  0  0  0  0  0  0
   -2.5081   -6.0187    0.0000 N   0  0  0  0  0  0  0  0  0  0  0  0
   -2.9716   -7.4453    0.0000 C   0  0  0  0  0  0  0  0  0  0  0  0
   -4.4388   -7.7572    0.0000 C   0  0  0  0  0  0  0  0  0  0  0  0
   -5.4425   -6.6424    0.0000 C   0  0  0  0  0  0  0  0  0  0  0  0
   -6.9097   -6.9543    0.0000 C   0  0  0  0  0  0  0  0  0  0  0  0
   -7.3733   -8.3809    0.0000 C   0  0  0  0  0  0  0  0  0  0  0  0
   -6.3696   -9.4956    0.0000 C   0  0  0  0  0  0  0  0  0  0  0  0
   -4.9023   -9.1838    0.0000 C   0  0  0  0  0  0  0  0  0  0  0  0
   -1.9679   -8.5600    0.0000 C   0  0  0  0  0  0  0  0  0  0  0  0
   -0.5007   -8.2481    0.0000 C   0  0  0  0  0  0  0  0  0  0  0  0
    0.5030   -9.3629    0.0000 C   0  0  0  0  0  0  0  0  0  0  0  0
    0.0395  -10.7895    0.0000 C   0  0  0  0  0  0  0  0  0  0  0  0
    1.0432  -11.9042    0.0000 C   0  0  0  0  0  0  0  0  0  0  0  0
    2.5104  -11.5923    0.0000 C   0  0  0  0  0  0  0  0  0  0  0  0
    2.9739  -10.1657    0.0000 C   0  0  0  0  0  0  0  0  0  0  0  0
    1.9702   -9.0510    0.0000 C   0  0  0  0  0  0  0  0  0  0  0  0
   -0.0372   -6.8216    0.0000 C   0  0  0  0  0  0  0  0  0  0  0  0
    1.4301   -6.5097    0.0000 C   0  0  0  0  0  0  0  0  0  0  0  0
    2.8973   -6.1978    0.0000 N   0  0  0  0  0  0  0  0  0  0  0  0
    2.0046   -4.9721    0.0000 S   0  0  0  0  0  0  0  0  0  0  0  0
  1  2  1  0
  2  3  1  0
  3  4  1  0
  4  5  2  0
  4  6  1  0
  6  7  2  0
  7  8  1  0
  8  9  1  0
  9 10  2  0
 10 11  1  0
 11 12  2  0
 12 13  1  0
 12 14  1  0
 14 15  2  0
  8 16  1  0
 16 17  2  0
 17 18  1  0
 18 19  2  0
 19 20  1  0
 20 21  1  0
 21 22  2  0
 22 23  1  0
 23 24  2  0
 24 25  1  0
 25 26  2  0
 20 27  2  0
 27 28  1  0
 28 29  1  0
 29 30  2  0
 30 31  1  0
 31 32  2  0
 32 33  1  0
 33 34  2  0
 28 35  2  0
 35 36  1  0
 36 37  3  0
 16 38  1  0
 38  6  1  0
 15  9  1  0
 35 18  1  0
 26 21  1  0
 34 29  1  0
M  END
>  <Compound_ID>  (344) 
CHEMBL3408389

>  <Active>  (344) 
0.0

>  <Smiles>  (344) 
CCOC(=O)c1nn(-c2ccc(Cl)cc2)/c(=N/c2nc(-c3ccccc3)cc(-c3ccccc3)c2C#N)s1

>  <canonical_smi>  (344) 
CCOC(=O)c1nn(-c2ccc(Cl)cc2)/c(=N/c2nc(-c3ccccc3)cc(-c3ccccc3)c2C#N)s1

>  <Set>  (344) 
G2 inactive

>  <Set_type>  (344) 
External

>  <MW>  (344) 
538.03

>  <HBD>  (344) 
0

>  <HBA>  (344) 
5

>  <NRB>  (344) 
6

>  <NR>  (344) 
5

>  <NAR>  (344) 
5

>  <PSA>  (344) 
93.16

>  <Standard Type>  (344) 
Inhibition

>  <Standard Relation>  (344) 
'='

>  <Standard Units>  (344) 
%

>  <Standard Value>  (344) 
12.0

>  <Assay ChEMBL ID>  (344) 
CHEMBL3413727

>  <Assay Description>  (344) 
Inhibition of MET (unknown origin) assessed as inhibition of peptide phosphorylation at 30 uM by based microfluidic mobility shift assay

>  <BAO Label>  (344) 
single protein format

$$$$

     RDKit          2D

 39 41  0  0  0  0  0  0  0  0999 V2000
    2.5981  -17.1073    0.0000 C   0  0  0  0  0  0  0  0  0  0  0  0
    3.8971  -16.3573    0.0000 C   0  0  0  0  0  0  0  0  0  0  0  0
    5.1962  -17.1073    0.0000 O   0  0  0  0  0  0  0  0  0  0  0  0
    3.8971  -14.8573    0.0000 O   0  0  0  0  0  0  0  0  0  0  0  0
    5.1962  -14.1073    0.0000 C   0  0  0  0  0  0  0  0  0  0  0  0
    5.1962  -12.6073    0.0000 C   0  0  0  0  0  0  0  0  0  0  0  0
    3.8971  -11.8573    0.0000 O   0  0  0  0  0  0  0  0  0  0  0  0
    3.8971  -10.3573    0.0000 C   0  0  0  0  0  0  0  0  0  0  0  0
    2.5981   -9.6073    0.0000 N   0  0  0  0  0  0  0  0  0  0  0  0
    2.5981   -8.1073    0.0000 C   0  0  0  0  0  0  0  0  0  0  0  0
    3.8971   -7.3573    0.0000 O   0  0  0  0  0  0  0  0  0  0  0  0
    1.2990   -7.3573    0.0000 C   0  0  0  0  0  0  0  0  0  0  0  0
    1.2990   -5.8573    0.0000 C   0  0  0  0  0  0  0  0  0  0  0  0
   -0.0000   -5.1073    0.0000 C   0  0  0  0  0  0  0  0  0  0  0  0
   -0.0000   -3.6073    0.0000 N   0  0  0  0  0  0  0  0  0  0  0  0
    1.2135   -2.7256    0.0000 Se  0  0  0  0  0  2  0  0  0  0  0  0
    0.7500   -1.2990    0.0000 C   0  0  0  0  0  0  0  0  0  0  0  0
    1.5000    0.0000    0.0000 C   0  0  0  0  0  0  0  0  0  0  0  0
    0.7500    1.2990    0.0000 C   0  0  0  0  0  0  0  0  0  0  0  0
   -0.7500    1.2990    0.0000 C   0  0  0  0  0  0  0  0  0  0  0  0
   -1.5000    0.0000    0.0000 C   0  0  0  0  0  0  0  0  0  0  0  0
   -0.7500   -1.2990    0.0000 C   0  0  0  0  0  0  0  0  0  0  0  0
   -1.2135   -2.7256    0.0000 C   0  0  0  0  0  0  0  0  0  0  0  0
   -2.6401   -3.1891    0.0000 O   0  0  0  0  0  0  0  0  0  0  0  0
    5.1962   -9.6073    0.0000 C   0  0  0  0  0  0  0  0  0  0  0  0
    5.1962   -8.1073    0.0000 O   0  0  0  0  0  0  0  0  0  0  0  0
    6.4952   -7.3573    0.0000 C   0  0  0  0  0  0  0  0  0  0  0  0
    6.4952   -5.8573    0.0000 C   0  0  0  0  0  0  0  0  0  0  0  0
    7.7942   -8.1073    0.0000 O   0  0  0  0  0  0  0  0  0  0  0  0
    6.4952  -10.3573    0.0000 C   0  0  0  0  0  0  0  0  0  0  0  0
    7.7942   -9.6073    0.0000 O   0  0  0  0  0  0  0  0  0  0  0  0
    9.0933  -10.3573    0.0000 C   0  0  0  0  0  0  0  0  0  0  0  0
   10.3923   -9.6073    0.0000 C   0  0  0  0  0  0  0  0  0  0  0  0
    9.0933  -11.8573    0.0000 O   0  0  0  0  0  0  0  0  0  0  0  0
    6.4952  -11.8573    0.0000 C   0  0  0  0  0  0  0  0  0  0  0  0
    7.7942  -12.6073    0.0000 O   0  0  0  0  0  0  0  0  0  0  0  0
    7.7942  -14.1073    0.0000 C   0  0  0  0  0  0  0  0  0  0  0  0
    9.0933  -14.8573    0.0000 C   0  0  0  0  0  0  0  0  0  0  0  0
    6.4952  -14.8573    0.0000 O   0  0  0  0  0  0  0  0  0  0  0  0
  1  2  1  0
  2  3  2  0
  2  4  1  0
  4  5  1  0
  6  5  1  1
  6  7  1  0
  7  8  1  0
  8  9  1  1
  9 10  1  0
 10 11  2  0
 10 12  1  0
 12 13  1  0
 13 14  1  0
 14 15  1  0
 15 16  1  0
 16 17  1  0
 17 18  2  0
 18 19  1  0
 19 20  2  0
 20 21  1  0
 21 22  2  0
 22 23  1  0
 23 24  2  0
  8 25  1  0
 25 26  1  6
 26 27  1  0
 27 28  1  0
 27 29  2  0
 25 30  1  0
 30 31  1  1
 31 32  1  0
 32 33  1  0
 32 34  2  0
 30 35  1  0
 35 36  1  6
 36 37  1  0
 37 38  1  0
 37 39  2  0
 35  6  1  0
 23 15  1  0
 22 17  1  0
M  END
>  <Compound_ID>  (345) 
CHEMBL1940997

>  <Active>  (345) 
0.0

>  <Smiles>  (345) 
CC(=O)OC[C@H]1O[C@@H](NC(=O)CCCn2[se]c3ccccc3c2=O)[C@H](OC(C)=O)[C@@H](OC(C)=O)[C@@H]1OC(C)=O

>  <canonical_smi>  (345) 
CC(=O)OC[C@H]1O[C@@H](NC(=O)CCCn2[se]c3ccccc3c2=O)[C@H](OC(C)=O)[C@@H](OC(C)=O)[C@@H]1OC(C)=O

>  <Set>  (345) 
G2 inactive

>  <Set_type>  (345) 
External

>  <MW>  (345) 
613.48

>  <HBD>  (345) 
1

>  <HBA>  (345) 
11

>  <NRB>  (345) 
10

>  <NR>  (345) 
3

>  <NAR>  (345) 
2

>  <PSA>  (345) 
165.53

>  <Standard Type>  (345) 
Inhibition

>  <Standard Relation>  (345) 
'='

>  <Standard Units>  (345) 
%

>  <Standard Value>  (345) 
0.0

>  <Assay ChEMBL ID>  (345) 
CHEMBL1943931

>  <Assay Description>  (345) 
Inhibition of MET at 1 uM

>  <BAO Label>  (345) 
single protein format

$$$$

     RDKit          2D

 27 28  0  0  0  0  0  0  0  0999 V2000
    2.5981   -8.1073    0.0000 C   0  0  0  0  0  0  0  0  0  0  0  0
    1.2990   -7.3573    0.0000 N   0  0  0  0  0  0  0  0  0  0  0  0
    1.2990   -5.8573    0.0000 C   0  0  0  0  0  0  0  0  0  0  0  0
    2.5981   -5.1073    0.0000 O   0  0  0  0  0  0  0  0  0  0  0  0
   -0.0000   -5.1073    0.0000 N   0  0  0  0  0  0  0  0  0  0  0  0
   -0.0000   -3.6073    0.0000 C   0  0  0  0  0  0  0  0  0  0  0  0
    1.2135   -2.7256    0.0000 S   0  0  0  0  0  0  0  0  0  0  0  0
    0.7500   -1.2990    0.0000 C   0  0  0  0  0  0  0  0  0  0  0  0
    1.5000    0.0000    0.0000 C   0  0  0  0  0  0  0  0  0  0  0  0
    3.0000    0.0000    0.0000 C   0  0  0  0  0  0  0  0  0  0  0  0
    3.7500    1.2990    0.0000 C   0  0  0  0  0  0  0  0  0  0  0  0
    3.7500   -1.2990    0.0000 C   0  0  0  0  0  0  0  0  0  0  0  0
    0.7500    1.2990    0.0000 C   0  0  0  0  0  0  0  0  0  0  0  0
   -0.7500    1.2990    0.0000 C   0  0  0  0  0  0  0  0  0  0  0  0
   -1.5000    2.5981    0.0000 N   0  0  0  0  0  0  0  0  0  0  0  0
   -0.7500    3.8971    0.0000 S   0  0  0  0  0  0  0  0  0  0  0  0
   -2.0490    4.6471    0.0000 O   0  0  0  0  0  0  0  0  0  0  0  0
    0.5490    3.1471    0.0000 O   0  0  0  0  0  0  0  0  0  0  0  0
    0.0000    5.1962    0.0000 N   0  0  0  0  0  0  0  0  0  0  0  0
    1.5000    5.1962    0.0000 C   0  0  0  0  0  0  0  0  0  0  0  0
   -0.7500    6.4952    0.0000 C   0  0  0  0  0  0  0  0  0  0  0  0
   -1.5000    0.0000    0.0000 C   0  0  0  0  0  0  0  0  0  0  0  0
   -0.7500   -1.2990    0.0000 C   0  0  0  0  0  0  0  0  0  0  0  0
   -1.2135   -2.7256    0.0000 C   0  0  0  0  0  0  0  0  0  0  0  0
   -2.6401   -3.1891    0.0000 C   0  0  0  0  0  0  0  0  0  0  0  0
   -2.9520   -4.6564    0.0000 N   0  0  0  0  0  0  0  0  0  0  0  0
   -3.7548   -2.1855    0.0000 O   0  0  0  0  0  0  0  0  0  0  0  0
  1  2  1  0
  2  3  1  0
  3  4  2  0
  3  5  1  0
  5  6  1  0
  6  7  1  0
  7  8  1  0
  8  9  2  0
  9 10  1  0
 10 11  1  0
 10 12  1  0
  9 13  1  0
 13 14  2  0
 14 15  1  0
 15 16  1  0
 16 17  2  0
 16 18  2  0
 16 19  1  0
 19 20  1  0
 19 21  1  0
 14 22  1  0
 22 23  2  0
 23 24  1  0
 24 25  1  0
 25 26  1  0
 25 27  2  0
 24  6  2  0
 23  8  1  0
M  END
>  <Compound_ID>  (346) 
CHEMBL4290876

>  <Active>  (346) 
0.0

>  <Smiles>  (346) 
CNC(=O)Nc1sc2c(C(C)C)cc(NS(=O)(=O)N(C)C)cc2c1C(N)=O

>  <canonical_smi>  (346) 
CNC(=O)Nc1sc2c(C(C)C)cc(NS(=O)(=O)N(C)C)cc2c1C(N)=O

>  <Set>  (346) 
G2 inactive

>  <Set_type>  (346) 
External

>  <MW>  (346) 
413.53

>  <HBD>  (346) 
4

>  <HBA>  (346) 
4

>  <NRB>  (346) 
6

>  <NR>  (346) 
2

>  <NAR>  (346) 
2

>  <PSA>  (346) 
133.63

>  <Standard Type>  (346) 
Inhibition

>  <Standard Relation>  (346) 
'='

>  <Standard Units>  (346) 
%

>  <Standard Value>  (346) 
2.76

>  <Assay ChEMBL ID>  (346) 
CHEMBL4266871

>  <Assay Description>  (346) 
Inhibition of c-MET (unknown origin) at 1 uM

>  <BAO Label>  (346) 
single protein format

$$$$

     RDKit          2D

 27 29  0  0  0  0  0  0  0  0999 V2000
    1.5000   -5.1962    0.0000 C   0  0  0  0  0  0  0  0  0  0  0  0
    0.7500   -3.8971    0.0000 N   0  0  0  0  0  0  0  0  0  0  0  0
    1.5000   -2.5981    0.0000 C   0  0  0  0  0  0  0  0  0  0  0  0
    3.0000   -2.5981    0.0000 C   0  0  0  0  0  0  0  0  0  0  0  0
    3.7500   -1.2990    0.0000 C   0  0  0  0  0  0  0  0  0  0  0  0
    3.0000   -0.0000    0.0000 F   0  0  0  0  0  0  0  0  0  0  0  0
    5.2500   -1.2990    0.0000 C   0  0  0  0  0  0  0  0  0  0  0  0
    6.0000   -2.5981    0.0000 C   0  0  0  0  0  0  0  0  0  0  0  0
    5.2500   -3.8971    0.0000 C   0  0  0  0  0  0  0  0  0  0  0  0
    6.0000   -5.1962    0.0000 Cl  0  0  0  0  0  0  0  0  0  0  0  0
    3.7500   -3.8971    0.0000 C   0  0  0  0  0  0  0  0  0  0  0  0
    3.0000   -5.1962    0.0000 F   0  0  0  0  0  0  0  0  0  0  0  0
   -0.7500   -3.8971    0.0000 C   0  0  0  0  0  0  0  0  0  0  0  0
   -1.5000   -2.5981    0.0000 O   0  0  0  0  0  0  0  0  0  0  0  0
   -1.5000   -5.1962    0.0000 C   0  0  0  0  0  0  0  0  0  0  0  0
   -3.0000   -5.1962    0.0000 C   0  0  0  0  0  0  0  0  0  0  0  0
   -3.7500   -6.4952    0.0000 C   0  0  0  0  0  0  0  0  0  0  0  0
   -5.2500   -6.4952    0.0000 C   0  0  0  0  0  0  0  0  0  0  0  0
   -6.1317   -7.7087    0.0000 C   0  0  0  0  0  0  0  0  0  0  0  0
   -7.5583   -7.2452    0.0000 N   0  0  0  0  0  0  0  0  0  0  0  0
   -7.5583   -5.7452    0.0000 N   0  0  0  0  0  0  0  0  0  0  0  0
   -8.7718   -4.8635    0.0000 C   0  0  0  0  0  0  0  0  0  0  0  0
   -6.1317   -5.2817    0.0000 C   0  0  0  0  0  0  0  0  0  0  0  0
   -3.0000   -7.7942    0.0000 C   0  0  0  0  0  0  0  0  0  0  0  0
   -1.5000   -7.7942    0.0000 N   0  0  0  0  0  0  0  0  0  0  0  0
   -0.7500   -6.4952    0.0000 C   0  0  0  0  0  0  0  0  0  0  0  0
    0.7500   -6.4952    0.0000 N   0  0  0  0  0  0  0  0  0  0  0  0
  1  2  1  0
  2  3  1  0
  3  4  1  0
  4  5  2  0
  5  6  1  0
  5  7  1  0
  7  8  2  0
  8  9  1  0
  9 10  1  0
  9 11  2  0
 11 12  1  0
  2 13  1  0
 13 14  2  0
 13 15  1  0
 15 16  2  0
 16 17  1  0
 17 18  1  0
 18 19  1  0
 19 20  2  0
 20 21  1  0
 21 22  1  0
 21 23  1  0
 17 24  2  0
 24 25  1  0
 25 26  2  0
 26 27  1  0
 11  4  1  0
 26 15  1  0
 23 18  2  0
M  END
>  <Compound_ID>  (347) 
CHEMBL2071394

>  <Active>  (347) 
0.0

>  <Smiles>  (347) 
CN(Cc1c(F)ccc(Cl)c1F)C(=O)c1cc(-c2cnn(C)c2)cnc1N

>  <canonical_smi>  (347) 
CN(Cc1c(F)ccc(Cl)c1F)C(=O)c1cc(-c2cnn(C)c2)cnc1N

>  <Set>  (347) 
G2 inactive

>  <Set_type>  (347) 
External

>  <MW>  (347) 
391.81

>  <HBD>  (347) 
1

>  <HBA>  (347) 
4

>  <NRB>  (347) 
4

>  <NR>  (347) 
3

>  <NAR>  (347) 
3

>  <PSA>  (347) 
77.04

>  <Standard Type>  (347) 
Inhibition

>  <Standard Relation>  (347) 
'='

>  <Standard Units>  (347) 
%

>  <Standard Value>  (347) 
10.9

>  <Assay ChEMBL ID>  (347) 
CHEMBL2072591

>  <Assay Description>  (347) 
Inhibition of c-Met at 1 uM incubated for 60 mins by spectrophotometry

>  <BAO Label>  (347) 
single protein format

$$$$

     RDKit          2D

 11 12  0  0  0  0  0  0  0  0999 V2000
    3.0000    0.0000    0.0000 C   0  0  0  0  0  0  0  0  0  0  0  0
    1.5000    0.0000    0.0000 C   0  0  0  0  0  0  0  0  0  0  0  0
    0.7500   -1.2990    0.0000 C   0  0  0  0  0  0  0  0  0  0  0  0
   -0.7500   -1.2990    0.0000 C   0  0  0  0  0  0  0  0  0  0  0  0
   -1.7537   -2.4138    0.0000 N   0  0  0  0  0  0  0  0  0  0  0  0
   -3.1240   -1.8037    0.0000 N   0  0  0  0  0  0  0  0  0  0  0  0
   -2.9672   -0.3119    0.0000 C   0  0  0  0  0  0  0  0  0  0  0  0
   -4.0819    0.6918    0.0000 N   0  0  0  0  0  0  0  0  0  0  0  0
   -1.5000    0.0000    0.0000 C   0  0  0  0  0  0  0  0  0  0  0  0
   -0.7500    1.2990    0.0000 C   0  0  0  0  0  0  0  0  0  0  0  0
    0.7500    1.2990    0.0000 N   0  0  0  0  0  0  0  0  0  0  0  0
  1  2  1  0
  2  3  2  0
  3  4  1  0
  4  5  1  0
  5  6  1  0
  6  7  2  0
  7  8  1  0
  7  9  1  0
  9 10  1  0
 10 11  2  0
 11  2  1  0
  9  4  2  0
M  END
>  <Compound_ID>  (348) 
CHEMBL1813803

>  <Active>  (348) 
0.0

>  <Smiles>  (348) 
Cc1cc2[nH]nc(N)c2cn1

>  <canonical_smi>  (348) 
Cc1cc2[nH]nc(N)c2cn1

>  <Set>  (348) 
G2 inactive

>  <Set_type>  (348) 
External

>  <MW>  (348) 
148.17

>  <HBD>  (348) 
2

>  <HBA>  (348) 
3

>  <NRB>  (348) 
0

>  <NR>  (348) 
2

>  <NAR>  (348) 
2

>  <PSA>  (348) 
67.59

>  <Standard Type>  (348) 
Inhibition

>  <Standard Relation>  (348) 
'='

>  <Standard Units>  (348) 
%

>  <Standard Value>  (348) 
3.0

>  <Assay ChEMBL ID>  (348) 
CHEMBL1815730

>  <Assay Description>  (348) 
Inhibition of MET at 30 uM by microfluidic mobility shift assay

>  <BAO Label>  (348) 
single protein format

$$$$

     RDKit          2D

 27 30  0  0  0  0  0  0  0  0999 V2000
   -2.0882   -8.4404    0.0000 C   0  0  0  0  0  0  0  0  0  0  0  0
   -2.6983   -7.0701    0.0000 C   0  0  0  0  0  0  0  0  0  0  0  0
   -1.9483   -5.7711    0.0000 N   0  0  0  0  0  0  0  0  0  0  0  0
   -2.9520   -4.6564    0.0000 C   0  0  0  0  0  0  0  0  0  0  0  0
   -2.6401   -3.1891    0.0000 C   0  0  0  0  0  0  0  0  0  0  0  0
   -1.2135   -2.7256    0.0000 C   0  0  0  0  0  0  0  0  0  0  0  0
   -0.0000   -3.6073    0.0000 C   0  0  0  0  0  0  0  0  0  0  0  0
    0.0000   -5.1073    0.0000 O   0  0  0  0  0  0  0  0  0  0  0  0
    1.2135   -2.7256    0.0000 N   0  0  0  0  0  0  0  0  0  0  0  0
    0.7500   -1.2990    0.0000 C   0  0  0  0  0  0  0  0  0  0  0  0
    1.5000    0.0000    0.0000 C   0  0  0  0  0  0  0  0  0  0  0  0
    0.7500    1.2990    0.0000 C   0  0  0  0  0  0  0  0  0  0  0  0
   -0.7500    1.2990    0.0000 C   0  0  0  0  0  0  0  0  0  0  0  0
   -1.5000    2.5981    0.0000 F   0  0  0  0  0  0  0  0  0  0  0  0
   -1.5000    0.0000    0.0000 C   0  0  0  0  0  0  0  0  0  0  0  0
   -0.7500   -1.2990    0.0000 C   0  0  0  0  0  0  0  0  0  0  0  0
   -4.3223   -5.2665    0.0000 C   0  0  0  0  0  0  0  0  0  0  0  0
   -5.6213   -4.5165    0.0000 C   0  0  0  0  0  0  0  0  0  0  0  0
   -4.1655   -6.7583    0.0000 C   0  0  0  0  0  0  0  0  0  0  0  0
   -5.2802   -7.7620    0.0000 N   0  0  0  0  0  0  0  0  0  0  0  0
   -6.7068   -7.2984    0.0000 C   0  0  0  0  0  0  0  0  0  0  0  0
   -7.0187   -5.8312    0.0000 O   0  0  0  0  0  0  0  0  0  0  0  0
   -7.8215   -8.3021    0.0000 C   0  0  0  0  0  0  0  0  0  0  0  0
   -7.6647   -9.7939    0.0000 C   0  0  0  0  0  0  0  0  0  0  0  0
   -9.0350  -10.4040    0.0000 C   0  0  0  0  0  0  0  0  0  0  0  0
  -10.0387   -9.2893    0.0000 C   0  0  0  0  0  0  0  0  0  0  0  0
   -9.2887   -7.9903    0.0000 N   0  0  0  0  0  0  0  0  0  0  0  0
  1  2  1  0
  2  3  1  0
  3  4  1  0
  4  5  1  0
  5  6  2  0
  6  7  1  0
  7  8  2  0
  7  9  1  0
  9 10  1  0
 10 11  2  0
 11 12  1  0
 12 13  2  0
 13 14  1  0
 13 15  1  0
 15 16  2  0
  4 17  2  0
 17 18  1  0
 17 19  1  0
 19 20  1  0
 20 21  1  0
 21 22  2  0
 23 21  1  1
 23 24  1  0
 24 25  1  0
 25 26  1  0
 26 27  1  0
 19  2  2  0
 27 23  1  0
 16  6  1  0
 16 10  1  0
M  END
>  <Compound_ID>  (349) 
CHEMBL4093614

>  <Active>  (349) 
0.0

>  <Smiles>  (349) 
Cc1[nH]c(/C=C2\C(=O)Nc3ccc(F)cc32)c(C)c1NC(=O)[C@H]1CCCN1

>  <canonical_smi>  (349) 
Cc1[nH]c(/C=C2\C(=O)Nc3ccc(F)cc32)c(C)c1NC(=O)[C@H]1CCCN1

>  <Set>  (349) 
G2 inactive

>  <Set_type>  (349) 
External

>  <MW>  (349) 
368.41

>  <HBD>  (349) 
4

>  <HBA>  (349) 
3

>  <NRB>  (349) 
3

>  <NR>  (349) 
4

>  <NAR>  (349) 
2

>  <PSA>  (349) 
86.02

>  <Standard Type>  (349) 
Inhibition

>  <Standard Relation>  (349) 
'='

>  <Standard Units>  (349) 
%

>  <Standard Value>  (349) 
-8.0

>  <Assay ChEMBL ID>  (349) 
CHEMBL4007915

>  <Assay Description>  (349) 
Inhibition of human c-MET at 0.1 uM relative to control

>  <BAO Label>  (349) 
single protein format

$$$$

     RDKit          2D

 22 25  0  0  0  0  0  0  0  0999 V2000
   -6.1170   -7.0506    0.0000 O   0  0  0  0  0  0  0  0  0  0  0  0
   -4.6904   -6.5871    0.0000 C   0  0  0  0  0  0  0  0  0  0  0  0
   -4.3786   -5.1199    0.0000 C   0  0  0  0  0  0  0  0  0  0  0  0
   -5.4933   -4.1162    0.0000 C   0  0  0  0  0  0  0  0  0  0  0  0
   -5.1814   -2.6490    0.0000 C   0  0  0  0  0  0  0  0  0  0  0  0
   -3.7548   -2.1855    0.0000 C   0  0  0  0  0  0  0  0  0  0  0  0
   -2.6401   -3.1891    0.0000 C   0  0  0  0  0  0  0  0  0  0  0  0
   -1.2135   -2.7256    0.0000 C   0  0  0  0  0  0  0  0  0  0  0  0
   -0.0000   -3.6073    0.0000 C   0  0  0  0  0  0  0  0  0  0  0  0
    1.2135   -2.7256    0.0000 N   0  0  0  0  0  0  0  0  0  0  0  0
    0.7500   -1.2990    0.0000 C   0  0  0  0  0  0  0  0  0  0  0  0
    1.5000    0.0000    0.0000 N   0  0  0  0  0  0  0  0  0  0  0  0
    0.7500    1.2990    0.0000 C   0  0  0  0  0  0  0  0  0  0  0  0
   -0.7500    1.2990    0.0000 C   0  0  0  0  0  0  0  0  0  0  0  0
   -1.5000    2.5981    0.0000 C   0  0  0  0  0  0  0  0  0  0  0  0
   -2.9918    2.7549    0.0000 C   0  0  0  0  0  0  0  0  0  0  0  0
   -3.3037    4.2221    0.0000 N   0  0  0  0  0  0  0  0  0  0  0  0
   -2.0046    4.9721    0.0000 N   0  0  0  0  0  0  0  0  0  0  0  0
   -0.8899    3.9684    0.0000 C   0  0  0  0  0  0  0  0  0  0  0  0
   -1.5000    0.0000    0.0000 C   0  0  0  0  0  0  0  0  0  0  0  0
   -0.7500   -1.2990    0.0000 N   0  0  0  0  0  0  0  0  0  0  0  0
   -2.9520   -4.6564    0.0000 C   0  0  0  0  0  0  0  0  0  0  0  0
  1  2  1  0
  2  3  1  0
  3  4  2  0
  4  5  1  0
  5  6  2  0
  6  7  1  0
  7  8  1  0
  8  9  2  0
  9 10  1  0
 10 11  2  0
 11 12  1  0
 12 13  2  0
 13 14  1  0
 14 15  1  0
 15 16  1  0
 16 17  2  0
 17 18  1  0
 18 19  1  0
 14 20  2  0
 20 21  1  0
  7 22  2  0
 22  3  1  0
 21  8  1  0
 21 11  1  0
 19 15  2  0
M  END
>  <Compound_ID>  (350) 
CHEMBL1171699

>  <Active>  (350) 
0.0

>  <Smiles>  (350) 
OCc1cccc(-c2cnc3ncc(-c4cn[nH]c4)cn23)c1

>  <canonical_smi>  (350) 
OCc1cccc(-c2cnc3ncc(-c4cn[nH]c4)cn23)c1

>  <Set>  (350) 
G2 inactive

>  <Set_type>  (350) 
External

>  <MW>  (350) 
291.31

>  <HBD>  (350) 
2

>  <HBA>  (350) 
4

>  <NRB>  (350) 
3

>  <NR>  (350) 
4

>  <NAR>  (350) 
4

>  <PSA>  (350) 
79.1

>  <Standard Type>  (350) 
Inhibition

>  <Standard Relation>  (350) 
'='

>  <Standard Units>  (350) 
%

>  <Standard Value>  (350) 
4.0

>  <Assay ChEMBL ID>  (350) 
CHEMBL1173995

>  <Assay Description>  (350) 
Inhibition of MET at 10 uM by mobility shift assay

>  <BAO Label>  (350) 
single protein format

$$$$

     RDKit          2D

 35 39  0  0  0  0  0  0  0  0999 V2000
   -3.0000   -2.5981    0.0000 C   0  0  0  0  0  0  0  0  0  0  0  0
   -1.5000   -2.5981    0.0000 N   0  0  0  0  0  0  0  0  0  0  0  0
   -0.7500   -3.8971    0.0000 C   0  0  0  0  0  0  0  0  0  0  0  0
   -1.5000   -5.1962    0.0000 O   0  0  0  0  0  0  0  0  0  0  0  0
    0.7500   -3.8971    0.0000 C   0  0  0  0  0  0  0  0  0  0  0  0
    1.5000   -5.1962    0.0000 O   0  0  0  0  0  0  0  0  0  0  0  0
    0.7500   -6.4952    0.0000 C   0  0  0  0  0  0  0  0  0  0  0  0
   -0.7500   -6.4952    0.0000 C   0  0  0  0  0  0  0  0  0  0  0  0
   -1.5000   -7.7942    0.0000 C   0  0  0  0  0  0  0  0  0  0  0  0
   -0.7500   -9.0933    0.0000 C   0  0  0  0  0  0  0  0  0  0  0  0
   -1.5000  -10.3923    0.0000 F   0  0  0  0  0  0  0  0  0  0  0  0
    0.7500   -9.0933    0.0000 C   0  0  0  0  0  0  0  0  0  0  0  0
    1.5000   -7.7942    0.0000 C   0  0  0  0  0  0  0  0  0  0  0  0
    3.0000   -7.7942    0.0000 F   0  0  0  0  0  0  0  0  0  0  0  0
    1.5000   -2.5981    0.0000 C   0  0  0  0  0  0  0  0  0  0  0  0
    0.7500   -1.2990    0.0000 C   0  0  0  0  0  0  0  0  0  0  0  0
    1.5000    0.0000    0.0000 C   0  0  0  0  0  0  0  0  0  0  0  0
    0.7500    1.2990    0.0000 N   0  0  0  0  0  0  0  0  0  0  0  0
   -0.7500    1.2990    0.0000 C   0  0  0  0  0  0  0  0  0  0  0  0
   -1.5000    2.5981    0.0000 N   0  0  0  0  0  0  0  0  0  0  0  0
   -0.7500    3.8971    0.0000 C   0  0  0  0  0  0  0  0  0  0  0  0
    0.7500    3.8971    0.0000 C   0  0  0  0  0  0  0  0  0  0  0  0
    1.5000    5.1962    0.0000 C   0  0  0  0  0  0  0  0  0  0  0  0
    0.7500    6.4952    0.0000 C   0  0  0  0  0  0  0  0  0  0  0  0
    1.5000    7.7942    0.0000 N   0  0  0  0  0  0  0  0  0  0  0  0
    3.0000    7.7942    0.0000 C   0  0  0  0  0  0  0  0  0  0  0  0
    3.7500    9.0933    0.0000 C   0  0  0  0  0  0  0  0  0  0  0  0
    3.0000   10.3923    0.0000 C   0  0  0  0  0  0  0  0  0  0  0  0
    3.7500   11.6913    0.0000 O   0  0  0  0  0  0  0  0  0  0  0  0
    1.5000   10.3923    0.0000 C   0  0  0  0  0  0  0  0  0  0  0  0
    0.7500    9.0933    0.0000 C   0  0  0  0  0  0  0  0  0  0  0  0
   -0.7500    6.4952    0.0000 C   0  0  0  0  0  0  0  0  0  0  0  0
   -1.5000    5.1962    0.0000 C   0  0  0  0  0  0  0  0  0  0  0  0
   -1.5000    0.0000    0.0000 N   0  0  0  0  0  0  0  0  0  0  0  0
   -0.7500   -1.2990    0.0000 C   0  0  0  0  0  0  0  0  0  0  0  0
  1  2  1  0
  2  3  1  0
  3  4  2  0
  3  5  1  0
  5  6  1  0
  6  7  1  0
  7  8  2  0
  8  9  1  0
  9 10  2  0
 10 11  1  0
 10 12  1  0
 12 13  2  0
 13 14  1  0
  5 15  2  0
 15 16  1  0
 16 17  2  0
 17 18  1  0
 18 19  2  0
 19 20  1  0
 20 21  1  0
 21 22  2  0
 22 23  1  0
 23 24  2  0
 24 25  1  0
 25 26  1  0
 26 27  1  0
 27 28  1  0
 28 29  1  0
 28 30  1  0
 30 31  1  0
 24 32  1  0
 32 33  2  0
 19 34  1  0
 34 35  2  0
 35  2  1  0
 13  7  1  0
 35 16  1  0
 33 21  1  0
 31 25  1  0
M  END
>  <Compound_ID>  (351) 
CHEMBL3746959

>  <Active>  (351) 
0.0

>  <Smiles>  (351) 
Cn1c(=O)c(Oc2ccc(F)cc2F)cc2cnc(Nc3ccc(N4CCC(O)CC4)cc3)nc21

>  <canonical_smi>  (351) 
Cn1c(=O)c(Oc2ccc(F)cc2F)cc2cnc(Nc3ccc(N4CCC(O)CC4)cc3)nc21

>  <Set>  (351) 
G2 inactive

>  <Set_type>  (351) 
External

>  <MW>  (351) 
479.49

>  <HBD>  (351) 
2

>  <HBA>  (351) 
7

>  <NRB>  (351) 
5

>  <NR>  (351) 
5

>  <NAR>  (351) 
4

>  <PSA>  (351) 
92.51

>  <Standard Type>  (351) 
Inhibition

>  <Standard Relation>  (351) 
'='

>  <Standard Units>  (351) 
%

>  <Standard Value>  (351) 
11.0

>  <Assay ChEMBL ID>  (351) 
CHEMBL3750644

>  <Assay Description>  (351) 
Inhibition of cMET (unknown origin) at 10 uM

>  <BAO Label>  (351) 
single protein format

$$$$

     RDKit          2D

 35 39  0  0  0  0  0  0  0  0999 V2000
    1.9775   -9.6721    0.0000 C   0  0  0  0  0  0  0  0  0  0  0  0
    3.3478   -9.0619    0.0000 C   0  0  0  0  0  0  0  0  0  0  0  0
    4.5613   -9.9436    0.0000 C   0  0  0  0  0  0  0  0  0  0  0  0
    3.5046   -7.5702    0.0000 N   0  0  0  0  0  0  0  0  0  0  0  0
    2.3899   -6.5665    0.0000 N   0  0  0  0  0  0  0  0  0  0  0  0
    3.0000   -5.1962    0.0000 C   0  0  0  0  0  0  0  0  0  0  0  0
    2.2500   -3.8971    0.0000 C   0  0  0  0  0  0  0  0  0  0  0  0
    1.5000   -2.5981    0.0000 C   0  0  0  0  0  0  0  0  0  0  0  0
    0.7500   -1.2990    0.0000 C   0  0  0  0  0  0  0  0  0  0  0  0
    1.5000    0.0000    0.0000 C   0  0  0  0  0  0  0  0  0  0  0  0
    0.7500    1.2990    0.0000 C   0  0  0  0  0  0  0  0  0  0  0  0
   -0.7500    1.2990    0.0000 C   0  0  0  0  0  0  0  0  0  0  0  0
   -1.5000    0.0000    0.0000 C   0  0  0  0  0  0  0  0  0  0  0  0
   -3.0000    0.0000    0.0000 C   0  0  0  0  0  0  0  0  0  0  0  0
   -3.7500   -1.2990    0.0000 C   0  0  0  0  0  0  0  0  0  0  0  0
   -5.2500   -1.2990    0.0000 C   0  0  0  0  0  0  0  0  0  0  0  0
   -6.0000    0.0000    0.0000 C   0  0  0  0  0  0  0  0  0  0  0  0
   -7.5000    0.0000    0.0000 C   0  0  0  0  0  0  0  0  0  0  0  0
   -8.2500   -1.2990    0.0000 C   0  0  0  0  0  0  0  0  0  0  0  0
   -7.5000   -2.5981    0.0000 C   0  0  0  0  0  0  0  0  0  0  0  0
   -8.2500   -3.8971    0.0000 C   0  0  0  0  0  0  0  0  0  0  0  0
   -9.0000   -5.1962    0.0000 F   0  0  0  0  0  0  0  0  0  0  0  0
   -9.5490   -3.1471    0.0000 F   0  0  0  0  0  0  0  0  0  0  0  0
   -6.9510   -4.6471    0.0000 F   0  0  0  0  0  0  0  0  0  0  0  0
   -6.0000   -2.5981    0.0000 C   0  0  0  0  0  0  0  0  0  0  0  0
   -3.0000   -2.5981    0.0000 N   0  0  0  0  0  0  0  0  0  0  0  0
   -1.5000   -2.5981    0.0000 C   0  0  0  0  0  0  0  0  0  0  0  0
   -0.7500   -1.2990    0.0000 C   0  0  0  0  0  0  0  0  0  0  0  0
    4.4918   -5.3529    0.0000 C   0  0  0  0  0  0  0  0  0  0  0  0
    5.6065   -4.3492    0.0000 C   0  0  0  0  0  0  0  0  0  0  0  0
    5.2946   -2.8820    0.0000 N   0  0  0  0  0  0  0  0  0  0  0  0
    7.0331   -4.8128    0.0000 N   0  0  0  0  0  0  0  0  0  0  0  0
    7.3450   -6.2800    0.0000 C   0  0  0  0  0  0  0  0  0  0  0  0
    6.2302   -7.2837    0.0000 N   0  0  0  0  0  0  0  0  0  0  0  0
    4.8037   -6.8202    0.0000 C   0  0  0  0  0  0  0  0  0  0  0  0
  1  2  1  0
  2  3  1  0
  2  4  1  0
  4  5  1  0
  5  6  2  0
  6  7  1  0
  7  8  3  0
  8  9  1  0
  9 10  2  0
 10 11  1  0
 11 12  2  0
 12 13  1  0
 13 14  2  0
 14 15  1  0
 15 16  1  0
 16 17  2  0
 17 18  1  0
 18 19  2  0
 19 20  1  0
 20 21  1  0
 21 22  1  0
 21 23  1  0
 21 24  1  0
 20 25  2  0
 15 26  2  0
 26 27  1  0
 27 28  2  0
  6 29  1  0
 29 30  2  0
 30 31  1  0
 30 32  1  0
 32 33  2  0
 33 34  1  0
 34 35  2  0
 35  4  1  0
 28  9  1  0
 35 29  1  0
 28 13  1  0
 25 16  1  0
M  END
>  <Compound_ID>  (352) 
CHEMBL4247506

>  <Active>  (352) 
0.0

>  <Smiles>  (352) 
CC(C)n1nc(C#Cc2cccc3cc(-c4cccc(C(F)(F)F)c4)ncc23)c2c(N)ncnc21

>  <canonical_smi>  (352) 
CC(C)n1nc(C#Cc2cccc3cc(-c4cccc(C(F)(F)F)c4)ncc23)c2c(N)ncnc21

>  <Set>  (352) 
G2 inactive

>  <Set_type>  (352) 
External

>  <MW>  (352) 
472.47

>  <HBD>  (352) 
1

>  <HBA>  (352) 
5

>  <NRB>  (352) 
2

>  <NR>  (352) 
5

>  <NAR>  (352) 
5

>  <PSA>  (352) 
82.51

>  <Standard Type>  (352) 
Inhibition

>  <Standard Relation>  (352) 
'='

>  <Standard Units>  (352) 
%

>  <Standard Value>  (352) 
-1.0

>  <Assay ChEMBL ID>  (352) 
CHEMBL4230144

>  <Assay Description>  (352) 
Inhibition of MET (unknown origin) at 1 uM by mobility shift microfluidics platform based assay relative to control

>  <BAO Label>  (352) 
single protein format

$$$$

     RDKit          2D

 32 36  0  0  0  0  0  0  0  0999 V2000
   -3.0000   -5.1962    0.0000 C   0  0  0  0  0  0  0  0  0  0  0  0
   -1.5000   -5.1962    0.0000 C   0  0  0  0  0  0  0  0  0  0  0  0
   -0.7500   -3.8971    0.0000 C   0  0  0  0  0  0  0  0  0  0  0  0
    0.7500   -3.8971    0.0000 C   0  0  0  0  0  0  0  0  0  0  0  0
    1.5000   -5.1962    0.0000 O   0  0  0  0  0  0  0  0  0  0  0  0
    1.5000   -2.5981    0.0000 N   0  0  0  0  0  0  0  0  0  0  0  0
    3.0000   -2.5981    0.0000 C   0  0  0  0  0  0  0  0  0  0  0  0
    0.7500   -1.2990    0.0000 C   0  0  0  0  0  0  0  0  0  0  0  0
    1.5000    0.0000    0.0000 C   0  0  0  0  0  0  0  0  0  0  0  0
    0.7500    1.2990    0.0000 N   0  0  0  0  0  0  0  0  0  0  0  0
   -0.7500    1.2990    0.0000 C   0  0  0  0  0  0  0  0  0  0  0  0
   -1.5000    2.5981    0.0000 N   0  0  0  0  0  0  0  0  0  0  0  0
   -2.9918    2.7549    0.0000 C   0  0  0  0  0  0  0  0  0  0  0  0
   -3.3037    4.2221    0.0000 C   0  0  0  0  0  0  0  0  0  0  0  0
   -2.0046    4.9721    0.0000 N   0  0  0  0  0  0  0  0  0  0  0  0
   -0.8899    3.9684    0.0000 C   0  0  0  0  0  0  0  0  0  0  0  0
    0.5773    4.2803    0.0000 C   0  0  0  0  0  0  0  0  0  0  0  0
    1.5810    3.1655    0.0000 C   0  0  0  0  0  0  0  0  0  0  0  0
    3.0482    3.4774    0.0000 C   0  0  0  0  0  0  0  0  0  0  0  0
    3.5118    4.9040    0.0000 C   0  0  0  0  0  0  0  0  0  0  0  0
    4.9790    5.2159    0.0000 F   0  0  0  0  0  0  0  0  0  0  0  0
    2.5081    6.0187    0.0000 C   0  0  0  0  0  0  0  0  0  0  0  0
    1.0409    5.7068    0.0000 C   0  0  0  0  0  0  0  0  0  0  0  0
   -1.5000    0.0000    0.0000 N   0  0  0  0  0  0  0  0  0  0  0  0
   -0.7500   -1.2990    0.0000 C   0  0  0  0  0  0  0  0  0  0  0  0
   -1.5000   -2.5981    0.0000 N   0  0  0  0  0  0  0  0  0  0  0  0
   -3.0000   -2.5981    0.0000 C   0  0  0  0  0  0  0  0  0  0  0  0
   -3.8817   -3.8116    0.0000 C   0  0  0  0  0  0  0  0  0  0  0  0
   -5.3083   -3.3481    0.0000 C   0  0  0  0  0  0  0  0  0  0  0  0
   -5.3083   -1.8481    0.0000 N   0  0  0  0  0  0  0  0  0  0  0  0
   -6.5218   -0.9664    0.0000 C   0  0  0  0  0  0  0  0  0  0  0  0
   -3.8817   -1.3846    0.0000 N   0  0  0  0  0  0  0  0  0  0  0  0
  1  2  1  0
  3  2  1  1
  3  4  1  0
  4  5  2  0
  4  6  1  0
  6  7  1  0
  6  8  1  0
  8  9  2  0
  9 10  1  0
 10 11  2  0
 11 12  1  0
 12 13  1  0
 13 14  2  0
 14 15  1  0
 15 16  2  0
 16 17  1  0
 17 18  2  0
 18 19  1  0
 19 20  2  0
 20 21  1  0
 20 22  1  0
 22 23  2  0
 11 24  1  0
 24 25  2  0
 25 26  1  0
 26 27  1  0
 27 28  1  0
 28 29  2  0
 29 30  1  0
 30 31  1  0
 30 32  1  0
 26  3  1  0
 32 27  2  0
 25  8  1  0
 16 12  1  0
 23 17  1  0
M  END
>  <Compound_ID>  (353) 
CHEMBL2402081

>  <Active>  (353) 
0.0

>  <Smiles>  (353) 
CC[C@@H]1C(=O)N(C)c2cnc(-n3ccnc3-c3ccc(F)cc3)nc2N1c1ccn(C)n1

>  <canonical_smi>  (353) 
CC[C@@H]1C(=O)N(C)c2cnc(-n3ccnc3-c3ccc(F)cc3)nc2N1c1ccn(C)n1

>  <Set>  (353) 
G2 inactive

>  <Set_type>  (353) 
External

>  <MW>  (353) 
432.46

>  <HBD>  (353) 
0

>  <HBA>  (353) 
6

>  <NRB>  (353) 
4

>  <NR>  (353) 
5

>  <NAR>  (353) 
4

>  <PSA>  (353) 
84.97

>  <Standard Type>  (353) 
Inhibition

>  <Standard Relation>  (353) 
'='

>  <Standard Units>  (353) 
%

>  <Standard Value>  (353) 
5.0

>  <Assay ChEMBL ID>  (353) 
CHEMBL2404173

>  <Assay Description>  (353) 
Inhibition of MET (unknown origin) at 10 uM relative to control

>  <BAO Label>  (353) 
single protein format

$$$$

     RDKit          2D

 26 27  0  0  0  0  0  0  0  0999 V2000
    3.7500   -1.2990    0.0000 C   0  0  0  0  0  0  0  0  0  0  0  0
    3.0000    0.0000    0.0000 O   0  0  0  0  0  0  0  0  0  0  0  0
    1.5000    0.0000    0.0000 C   0  0  0  0  0  0  0  0  0  0  0  0
    0.7500   -1.2990    0.0000 C   0  0  0  0  0  0  0  0  0  0  0  0
   -0.7500   -1.2990    0.0000 C   0  0  0  0  0  0  0  0  0  0  0  0
   -1.5000   -2.5981    0.0000 C   0  0  0  0  0  0  0  0  0  0  0  0
   -3.0000   -2.5981    0.0000 C   0  0  0  0  0  0  0  0  0  0  0  0
   -3.7500   -3.8971    0.0000 C   0  0  0  0  0  0  0  0  0  0  0  0
   -3.0000   -5.1962    0.0000 O   0  0  0  0  0  0  0  0  0  0  0  0
   -5.2500   -3.8971    0.0000 O   0  0  0  0  0  0  0  0  0  0  0  0
   -6.0000   -5.1962    0.0000 C   0  0  0  0  0  0  0  0  0  0  0  0
   -7.5000   -5.1962    0.0000 C   0  0  0  0  0  0  0  0  0  0  0  0
   -8.2500   -6.4952    0.0000 C   0  0  0  0  0  0  0  0  0  0  0  0
   -9.7500   -6.4952    0.0000 C   0  0  0  0  0  0  0  0  0  0  0  0
  -10.5000   -7.7942    0.0000 C   0  0  0  0  0  0  0  0  0  0  0  0
   -9.7500   -9.0933    0.0000 C   0  0  0  0  0  0  0  0  0  0  0  0
  -10.5000  -10.3923    0.0000 O   0  0  0  0  0  0  0  0  0  0  0  0
   -8.2500   -9.0933    0.0000 C   0  0  0  0  0  0  0  0  0  0  0  0
   -7.5000   -7.7942    0.0000 C   0  0  0  0  0  0  0  0  0  0  0  0
   -1.5000    0.0000    0.0000 C   0  0  0  0  0  0  0  0  0  0  0  0
   -0.7500    1.2990    0.0000 C   0  0  0  0  0  0  0  0  0  0  0  0
   -1.5000    2.5981    0.0000 O   0  0  0  0  0  0  0  0  0  0  0  0
   -0.7500    3.8971    0.0000 C   0  0  0  0  0  0  0  0  0  0  0  0
    0.7500    1.2990    0.0000 C   0  0  0  0  0  0  0  0  0  0  0  0
    1.5000    2.5981    0.0000 O   0  0  0  0  0  0  0  0  0  0  0  0
    3.0000    2.5981    0.0000 C   0  0  0  0  0  0  0  0  0  0  0  0
  1  2  1  0
  2  3  1  0
  3  4  2  0
  4  5  1  0
  5  6  1  0
  6  7  2  0
  7  8  1  0
  8  9  2  0
  8 10  1  0
 10 11  1  0
 11 12  1  0
 12 13  1  0
 13 14  2  0
 14 15  1  0
 15 16  2  0
 16 17  1  0
 16 18  1  0
 18 19  2  0
  5 20  2  0
 20 21  1  0
 21 22  1  0
 22 23  1  0
 21 24  2  0
 24 25  1  0
 25 26  1  0
 24  3  1  0
 19 13  1  0
M  END
>  <Compound_ID>  (354) 
CHEMBL2348316

>  <Active>  (354) 
0.0

>  <Smiles>  (354) 
COc1cc(/C=C/C(=O)OCCc2ccc(O)cc2)cc(OC)c1OC

>  <canonical_smi>  (354) 
COc1cc(/C=C/C(=O)OCCc2ccc(O)cc2)cc(OC)c1OC

>  <Set>  (354) 
G2 inactive

>  <Set_type>  (354) 
External

>  <MW>  (354) 
358.39

>  <HBD>  (354) 
1

>  <HBA>  (354) 
6

>  <NRB>  (354) 
8

>  <NR>  (354) 
2

>  <NAR>  (354) 
2

>  <PSA>  (354) 
74.22

>  <Standard Type>  (354) 
Inhibition

>  <Standard Relation>  (354) 
'='

>  <Standard Units>  (354) 
%

>  <Standard Value>  (354) 
0.0

>  <Assay ChEMBL ID>  (354) 
CHEMBL2350425

>  <Assay Description>  (354) 
Inhibition of c-MET phosphorylation (unknown origin) at 25 uM after 1 hr by Z'-LYTE kinase assay

>  <BAO Label>  (354) 
single protein format

$$$$

     RDKit          2D

 16 17  0  0  0  0  0  0  0  0999 V2000
    3.7500   -1.2990    0.0000 C   0  0  0  0  0  0  0  0  0  0  0  0
    3.0000    0.0000    0.0000 C   0  0  0  0  0  0  0  0  0  0  0  0
    3.7500    1.2990    0.0000 C   0  0  0  0  0  0  0  0  0  0  0  0
    1.5000    0.0000    0.0000 C   0  0  0  0  0  0  0  0  0  0  0  0
    0.7500   -1.2990    0.0000 C   0  0  0  0  0  0  0  0  0  0  0  0
   -0.7500   -1.2990    0.0000 C   0  0  0  0  0  0  0  0  0  0  0  0
   -1.5000   -2.5981    0.0000 N   0  0  0  0  0  0  0  0  0  0  0  0
   -0.8899   -3.9684    0.0000 C   0  0  0  0  0  0  0  0  0  0  0  0
   -2.0046   -4.9721    0.0000 C   0  0  0  0  0  0  0  0  0  0  0  0
   -3.3037   -4.2221    0.0000 C   0  0  0  0  0  0  0  0  0  0  0  0
   -4.6740   -4.8322    0.0000 N   0  0  0  0  0  0  0  0  0  0  0  0
   -2.9918   -2.7549    0.0000 C   0  0  0  0  0  0  0  0  0  0  0  0
   -1.5000    0.0000    0.0000 N   0  0  0  0  0  0  0  0  0  0  0  0
   -0.7500    1.2990    0.0000 C   0  0  0  0  0  0  0  0  0  0  0  0
   -1.5000    2.5981    0.0000 N   0  0  0  0  0  0  0  0  0  0  0  0
    0.7500    1.2990    0.0000 N   0  0  0  0  0  0  0  0  0  0  0  0
  1  2  1  0
  2  3  1  0
  2  4  1  0
  4  5  2  0
  5  6  1  0
  6  7  1  0
  7  8  1  0
  8  9  1  0
  9 10  1  0
 10 11  1  1
 10 12  1  0
  6 13  2  0
 13 14  1  0
 14 15  1  0
 14 16  2  0
 16  4  1  0
 12  7  1  0
M  END
>  <Compound_ID>  (355) 
CHEMBL3236549

>  <Active>  (355) 
0.0

>  <Smiles>  (355) 
CC(C)c1cc(N2CC[C@@H](N)C2)nc(N)n1

>  <canonical_smi>  (355) 
CC(C)c1cc(N2CC[C@@H](N)C2)nc(N)n1

>  <Set>  (355) 
G2 inactive

>  <Set_type>  (355) 
External

>  <MW>  (355) 
221.31

>  <HBD>  (355) 
2

>  <HBA>  (355) 
5

>  <NRB>  (355) 
2

>  <NR>  (355) 
2

>  <NAR>  (355) 
1

>  <PSA>  (355) 
81.06

>  <Standard Type>  (355) 
Inhibition

>  <Standard Relation>  (355) 
'='

>  <Standard Units>  (355) 
%

>  <Standard Value>  (355) 
-15.0

>  <Assay ChEMBL ID>  (355) 
CHEMBL5058932

>  <Assay Description>  (355) 
Met(h) Millipore kinase panel

>  <BAO Label>  (355) 
single protein format

$$$$

     RDKit          2D

 21 24  0  0  0  0  0  0  0  0999 V2000
   -2.6401   -3.1891    0.0000 C   0  0  0  0  0  0  0  0  0  0  0  0
   -1.2135   -2.7256    0.0000 N   0  0  0  0  0  0  0  0  0  0  0  0
   -0.0000   -3.6073    0.0000 C   0  0  0  0  0  0  0  0  0  0  0  0
    1.2135   -2.7256    0.0000 C   0  0  0  0  0  0  0  0  0  0  0  0
    2.6401   -3.1891    0.0000 C   0  0  0  0  0  0  0  0  0  0  0  0
    2.9520   -4.6564    0.0000 C   0  0  0  0  0  0  0  0  0  0  0  0
    1.9483   -5.7711    0.0000 C   0  0  0  0  0  0  0  0  0  0  0  0
    0.4565   -5.6143    0.0000 O   0  0  0  0  0  0  0  0  0  0  0  0
    2.6983   -7.0701    0.0000 N   0  0  0  0  0  0  0  0  0  0  0  0
    4.1655   -6.7583    0.0000 C   0  0  0  0  0  0  0  0  0  0  0  0
    5.3790   -7.6399    0.0000 C   0  0  0  0  0  0  0  0  0  0  0  0
    6.7493   -7.0298    0.0000 C   0  0  0  0  0  0  0  0  0  0  0  0
    6.9061   -5.5380    0.0000 C   0  0  0  0  0  0  0  0  0  0  0  0
    5.6926   -4.6564    0.0000 N   0  0  0  0  0  0  0  0  0  0  0  0
    4.3223   -5.2665    0.0000 C   0  0  0  0  0  0  0  0  0  0  0  0
    0.7500   -1.2990    0.0000 C   0  0  0  0  0  0  0  0  0  0  0  0
    1.5000    0.0000    0.0000 C   0  0  0  0  0  0  0  0  0  0  0  0
    0.7500    1.2990    0.0000 C   0  0  0  0  0  0  0  0  0  0  0  0
   -0.7500    1.2990    0.0000 C   0  0  0  0  0  0  0  0  0  0  0  0
   -1.5000    0.0000    0.0000 C   0  0  0  0  0  0  0  0  0  0  0  0
   -0.7500   -1.2990    0.0000 C   0  0  0  0  0  0  0  0  0  0  0  0
  1  2  1  0
  2  3  1  0
  3  4  2  0
  4  5  1  0
  5  6  2  3
  6  7  1  0
  7  8  2  0
  7  9  1  0
  9 10  1  0
 10 11  2  0
 11 12  1  0
 12 13  2  0
 13 14  1  0
 14 15  2  0
  4 16  1  0
 16 17  2  0
 17 18  1  0
 18 19  2  0
 19 20  1  0
 20 21  2  0
 21  2  1  0
 15  6  1  0
 21 16  1  0
 15 10  1  0
M  END
>  <Compound_ID>  (356) 
CHEMBL1516890

>  <Active>  (356) 
0.0

>  <Smiles>  (356) 
Cn1cc(C=C2C(=O)Nc3cccnc32)c2ccccc21

>  <canonical_smi>  (356) 
Cn1cc(C=C2C(=O)Nc3cccnc32)c2ccccc21

>  <Set>  (356) 
G2 inactive

>  <Set_type>  (356) 
External

>  <MW>  (356) 
275.31

>  <HBD>  (356) 
1

>  <HBA>  (356) 
2

>  <NRB>  (356) 
1

>  <NR>  (356) 
4

>  <NAR>  (356) 
3

>  <PSA>  (356) 
46.92

>  <Standard Type>  (356) 
Inhibition

>  <Standard Relation>  (356) 
'='

>  <Standard Units>  (356) 
%

>  <Standard Value>  (356) 
3.23

>  <Assay ChEMBL ID>  (356) 
CHEMBL1962143

>  <Assay Description>  (356) 
GSK_PKIS: MET mean inhibition at 1 uM [Nanosyn]

>  <BAO Label>  (356) 
single protein format

$$$$

     RDKit          2D

 23 26  0  0  0  0  0  0  0  0999 V2000
   -6.4937   -2.7256    0.0000 O   0  0  0  0  0  0  0  0  0  0  0  0
   -5.0672   -3.1891    0.0000 C   0  0  0  0  0  0  0  0  0  0  0  0
   -4.6036   -4.6157    0.0000 N   0  0  0  0  0  0  0  0  0  0  0  0
   -3.1036   -4.6157    0.0000 C   0  0  0  0  0  0  0  0  0  0  0  0
   -2.2220   -5.8293    0.0000 O   0  0  0  0  0  0  0  0  0  0  0  0
   -2.6401   -3.1891    0.0000 C   0  0  0  0  0  0  0  0  0  0  0  0
   -1.2135   -2.7256    0.0000 N   0  0  0  0  0  0  0  0  0  0  0  0
   -0.0000   -3.6073    0.0000 C   0  0  0  0  0  0  0  0  0  0  0  0
    1.2135   -2.7256    0.0000 C   0  0  0  0  0  0  0  0  0  0  0  0
    0.7500   -1.2990    0.0000 C   0  0  0  0  0  0  0  0  0  0  0  0
    1.5000    0.0000    0.0000 C   0  0  0  0  0  0  0  0  0  0  0  0
    0.7500    1.2990    0.0000 C   0  0  0  0  0  0  0  0  0  0  0  0
   -0.7500    1.2990    0.0000 C   0  0  0  0  0  0  0  0  0  0  0  0
   -1.5000    0.0000    0.0000 C   0  0  0  0  0  0  0  0  0  0  0  0
   -0.7500   -1.2990    0.0000 C   0  0  0  0  0  0  0  0  0  0  0  0
   -3.8536   -2.3075    0.0000 C   0  0  0  0  0  0  0  0  0  0  0  0
   -3.8536   -0.8075    0.0000 C   0  0  0  0  0  0  0  0  0  0  0  0
   -2.5546   -0.0575    0.0000 C   0  0  0  0  0  0  0  0  0  0  0  0
   -2.5546    1.4425    0.0000 C   0  0  0  0  0  0  0  0  0  0  0  0
   -3.8536    2.1925    0.0000 C   0  0  0  0  0  0  0  0  0  0  0  0
   -3.8536    3.6925    0.0000 Cl  0  0  0  0  0  0  0  0  0  0  0  0
   -5.1527    1.4425    0.0000 C   0  0  0  0  0  0  0  0  0  0  0  0
   -5.1527   -0.0575    0.0000 C   0  0  0  0  0  0  0  0  0  0  0  0
  1  2  2  0
  2  3  1  0
  3  4  1  0
  4  5  2  0
  4  6  1  0
  6  7  1  0
  7  8  1  0
  8  9  1  0
  9 10  1  0
 10 11  2  0
 11 12  1  0
 12 13  2  0
 13 14  1  0
 14 15  2  0
  6 16  2  0
 16 17  1  0
 17 18  2  0
 18 19  1  0
 19 20  2  0
 20 21  1  0
 20 22  1  0
 22 23  2  0
 16  2  1  0
 23 17  1  0
 15  7  1  0
 15 10  1  0
M  END
>  <Compound_ID>  (357) 
CHEMBL156524

>  <Active>  (357) 
0.0

>  <Smiles>  (357) 
O=C1NC(=O)C(N2CCc3ccccc32)=C1c1ccc(Cl)cc1

>  <canonical_smi>  (357) 
O=C1NC(=O)C(N2CCc3ccccc32)=C1c1ccc(Cl)cc1

>  <Set>  (357) 
G2 inactive

>  <Set_type>  (357) 
External

>  <MW>  (357) 
324.77

>  <HBD>  (357) 
1

>  <HBA>  (357) 
3

>  <NRB>  (357) 
2

>  <NR>  (357) 
4

>  <NAR>  (357) 
2

>  <PSA>  (357) 
49.41

>  <Standard Type>  (357) 
Inhibition

>  <Standard Relation>  (357) 
'='

>  <Standard Units>  (357) 
%

>  <Standard Value>  (357) 
2.82

>  <Assay ChEMBL ID>  (357) 
CHEMBL1962143

>  <Assay Description>  (357) 
GSK_PKIS: MET mean inhibition at 1 uM [Nanosyn]

>  <BAO Label>  (357) 
single protein format

$$$$

     RDKit          2D

 23 25  0  0  0  0  0  0  0  0999 V2000
    4.5000    0.0000    0.0000 N   0  0  0  0  0  0  0  0  0  0  0  0
    3.0000    0.0000    0.0000 S   0  0  0  0  0  0  0  0  0  0  0  0
    3.0000   -1.5000    0.0000 O   0  0  0  0  0  0  0  0  0  0  0  0
    3.0000    1.5000    0.0000 O   0  0  0  0  0  0  0  0  0  0  0  0
    1.5000    0.0000    0.0000 C   0  0  0  0  0  0  0  0  0  0  0  0
    0.7500   -1.2990    0.0000 C   0  0  0  0  0  0  0  0  0  0  0  0
   -0.7500   -1.2990    0.0000 C   0  0  0  0  0  0  0  0  0  0  0  0
   -1.5000    0.0000    0.0000 C   0  0  0  0  0  0  0  0  0  0  0  0
   -0.7500    1.2990    0.0000 C   0  0  0  0  0  0  0  0  0  0  0  0
   -1.5000    2.5981    0.0000 N   0  0  0  0  0  0  0  0  0  0  0  0
   -0.7500    3.8971    0.0000 C   0  0  0  0  0  0  0  0  0  0  0  0
   -1.3601    5.2674    0.0000 C   0  0  0  0  0  0  0  0  0  0  0  0
   -0.2454    6.2711    0.0000 C   0  0  0  0  0  0  0  0  0  0  0  0
   -0.4022    7.7629    0.0000 C   0  0  0  0  0  0  0  0  0  0  0  0
    0.8113    8.6446    0.0000 C   0  0  0  0  0  0  0  0  0  0  0  0
    0.6546   10.1364    0.0000 C   0  0  0  0  0  0  0  0  0  0  0  0
   -0.7158   10.7465    0.0000 C   0  0  0  0  0  0  0  0  0  0  0  0
   -0.8726   12.2383    0.0000 F   0  0  0  0  0  0  0  0  0  0  0  0
   -1.9293    9.8648    0.0000 C   0  0  0  0  0  0  0  0  0  0  0  0
   -1.7725    8.3730    0.0000 C   0  0  0  0  0  0  0  0  0  0  0  0
    1.0537    5.5211    0.0000 N   0  0  0  0  0  0  0  0  0  0  0  0
    0.7418    4.0539    0.0000 N   0  0  0  0  0  0  0  0  0  0  0  0
    0.7500    1.2990    0.0000 C   0  0  0  0  0  0  0  0  0  0  0  0
  1  2  1  0
  2  3  2  0
  2  4  2  0
  2  5  1  0
  5  6  2  0
  6  7  1  0
  7  8  2  0
  8  9  1  0
  9 10  1  0
 10 11  1  0
 11 12  2  0
 12 13  1  0
 13 14  1  0
 14 15  2  0
 15 16  1  0
 16 17  2  0
 17 18  1  0
 17 19  1  0
 19 20  2  0
 13 21  2  0
 21 22  1  0
  9 23  2  0
 23  5  1  0
 22 11  1  0
 20 14  1  0
M  END
>  <Compound_ID>  (358) 
CHEMBL1909351

>  <Active>  (358) 
0.0

>  <Smiles>  (358) 
NS(=O)(=O)c1cccc(Nc2cc(-c3ccc(F)cc3)n[nH]2)c1

>  <canonical_smi>  (358) 
NS(=O)(=O)c1cccc(Nc2cc(-c3ccc(F)cc3)n[nH]2)c1

>  <Set>  (358) 
G2 inactive

>  <Set_type>  (358) 
External

>  <MW>  (358) 
332.36

>  <HBD>  (358) 
3

>  <HBA>  (358) 
4

>  <NRB>  (358) 
4

>  <NR>  (358) 
3

>  <NAR>  (358) 
3

>  <PSA>  (358) 
100.87

>  <Standard Type>  (358) 
Inhibition

>  <Standard Relation>  (358) 
'='

>  <Standard Units>  (358) 
%

>  <Standard Value>  (358) 
7.01

>  <Assay ChEMBL ID>  (358) 
CHEMBL1962143

>  <Assay Description>  (358) 
GSK_PKIS: MET mean inhibition at 1 uM [Nanosyn]

>  <BAO Label>  (358) 
single protein format

$$$$

     RDKit          2D

 26 29  0  0  0  0  0  0  0  0999 V2000
    3.0000    0.0000    0.0000 C   0  0  0  0  0  0  0  0  0  0  0  0
    1.5000    0.0000    0.0000 C   0  0  0  0  0  0  0  0  0  0  0  0
    0.7500   -1.2990    0.0000 C   0  0  0  0  0  0  0  0  0  0  0  0
   -0.7500   -1.2990    0.0000 C   0  0  0  0  0  0  0  0  0  0  0  0
   -1.5000   -2.5981    0.0000 C   0  0  0  0  0  0  0  0  0  0  0  0
   -0.8899   -3.9684    0.0000 C   0  0  0  0  0  0  0  0  0  0  0  0
   -2.0046   -4.9721    0.0000 C   0  0  0  0  0  0  0  0  0  0  0  0
   -3.3037   -4.2221    0.0000 C   0  0  0  0  0  0  0  0  0  0  0  0
   -2.9918   -2.7549    0.0000 O   0  0  0  0  0  0  0  0  0  0  0  0
   -1.5000    0.0000    0.0000 C   0  0  0  0  0  0  0  0  0  0  0  0
   -0.7500    1.2990    0.0000 C   0  0  0  0  0  0  0  0  0  0  0  0
   -1.5000    2.5981    0.0000 C   0  0  0  0  0  0  0  0  0  0  0  0
    0.7500    1.2990    0.0000 C   0  0  0  0  0  0  0  0  0  0  0  0
    1.5000    2.5981    0.0000 C   0  0  0  0  0  0  0  0  0  0  0  0
    3.0000    2.5981    0.0000 C   0  0  0  0  0  0  0  0  0  0  0  0
    3.7500    3.8971    0.0000 C   0  0  0  0  0  0  0  0  0  0  0  0
    5.2500    3.8971    0.0000 C   0  0  0  0  0  0  0  0  0  0  0  0
    6.0000    5.1962    0.0000 N   0  0  0  0  0  0  0  0  0  0  0  0
    5.2500    6.4952    0.0000 C   0  0  0  0  0  0  0  0  0  0  0  0
    3.7500    6.4952    0.0000 C   0  0  0  0  0  0  0  0  0  0  0  0
    3.0000    7.7942    0.0000 C   0  0  0  0  0  0  0  0  0  0  0  0
    1.5082    7.9510    0.0000 N   0  0  0  0  0  0  0  0  0  0  0  0
    1.1963    9.4182    0.0000 N   0  0  0  0  0  0  0  0  0  0  0  0
    2.4954   10.1682    0.0000 N   0  0  0  0  0  0  0  0  0  0  0  0
    3.6101    9.1645    0.0000 N   0  0  0  0  0  0  0  0  0  0  0  0
    3.0000    5.1962    0.0000 C   0  0  0  0  0  0  0  0  0  0  0  0
  1  2  1  0
  2  3  2  0
  3  4  1  0
  4  5  1  0
  5  6  2  0
  6  7  1  0
  7  8  2  0
  8  9  1  0
  4 10  2  0
 10 11  1  0
 11 12  1  0
 11 13  2  0
 13 14  1  0
 14 15  2  0
 15 16  1  0
 16 17  2  0
 17 18  1  0
 18 19  2  0
 19 20  1  0
 20 21  1  0
 21 22  1  0
 22 23  2  0
 23 24  1  0
 24 25  1  0
 20 26  2  0
 13  2  1  0
 26 16  1  0
  9  5  1  0
 25 21  2  0
M  END
>  <Compound_ID>  (359) 
CHEMBL1909353

>  <Active>  (359) 
0.0

>  <Smiles>  (359) 
Cc1cc(-c2ccco2)cc(C)c1/C=C/c1cncc(-c2nn[nH]n2)c1

>  <canonical_smi>  (359) 
Cc1cc(-c2ccco2)cc(C)c1/C=C/c1cncc(-c2nn[nH]n2)c1

>  <Set>  (359) 
G2 inactive

>  <Set_type>  (359) 
External

>  <MW>  (359) 
343.39

>  <HBD>  (359) 
1

>  <HBA>  (359) 
5

>  <NRB>  (359) 
4

>  <NR>  (359) 
4

>  <NAR>  (359) 
4

>  <PSA>  (359) 
80.49

>  <Standard Type>  (359) 
Inhibition

>  <Standard Relation>  (359) 
'='

>  <Standard Units>  (359) 
%

>  <Standard Value>  (359) 
4.36

>  <Assay ChEMBL ID>  (359) 
CHEMBL1962143

>  <Assay Description>  (359) 
GSK_PKIS: MET mean inhibition at 1 uM [Nanosyn]

>  <BAO Label>  (359) 
single protein format

$$$$

     RDKit          2D

 38 41  0  0  0  0  0  0  0  0999 V2000
   -2.5981   -8.1073    0.0000 C   0  0  0  0  0  0  0  0  0  0  0  0
   -1.2990   -7.3573    0.0000 O   0  0  0  0  0  0  0  0  0  0  0  0
   -1.2990   -5.8573    0.0000 C   0  0  0  0  0  0  0  0  0  0  0  0
   -2.5981   -5.1073    0.0000 O   0  0  0  0  0  0  0  0  0  0  0  0
   -0.0000   -5.1073    0.0000 N   0  0  0  0  0  0  0  0  0  0  0  0
   -0.0000   -3.6073    0.0000 C   0  0  0  0  0  0  0  0  0  0  0  0
    1.2135   -2.7256    0.0000 N   0  0  0  0  0  0  0  0  0  0  0  0
    0.7500   -1.2990    0.0000 C   0  0  0  0  0  0  0  0  0  0  0  0
    1.5000    0.0000    0.0000 C   0  0  0  0  0  0  0  0  0  0  0  0
    0.7500    1.2990    0.0000 C   0  0  0  0  0  0  0  0  0  0  0  0
   -0.7500    1.2990    0.0000 C   0  0  0  0  0  0  0  0  0  0  0  0
   -1.5000    2.5981    0.0000 S   0  0  0  0  0  0  0  0  0  0  0  0
   -2.7990    1.8481    0.0000 O   0  0  0  0  0  0  0  0  0  0  0  0
   -0.2010    3.3481    0.0000 O   0  0  0  0  0  0  0  0  0  0  0  0
   -2.2500    3.8971    0.0000 C   0  0  0  0  0  0  0  0  0  0  0  0
   -1.5000    5.1962    0.0000 C   0  0  0  0  0  0  0  0  0  0  0  0
   -2.2500    6.4952    0.0000 C   0  0  0  0  0  0  0  0  0  0  0  0
   -3.7500    6.4952    0.0000 C   0  0  0  0  0  0  0  0  0  0  0  0
   -4.5000    7.7942    0.0000 N   0  0  0  0  0  0  0  0  0  0  0  0
   -3.7500    9.0933    0.0000 C   0  0  0  0  0  0  0  0  0  0  0  0
   -2.2500    9.0933    0.0000 O   0  0  0  0  0  0  0  0  0  0  0  0
   -4.5000   10.3923    0.0000 N   0  0  0  0  0  0  0  0  0  0  0  0
   -3.7500   11.6913    0.0000 C   0  0  0  0  0  0  0  0  0  0  0  0
   -2.2500   11.6913    0.0000 C   0  0  0  0  0  0  0  0  0  0  0  0
   -1.5000   12.9904    0.0000 C   0  0  0  0  0  0  0  0  0  0  0  0
    0.0000   12.9904    0.0000 C   0  0  0  0  0  0  0  0  0  0  0  0
    1.5000   12.9904    0.0000 F   0  0  0  0  0  0  0  0  0  0  0  0
    0.0000   11.4904    0.0000 F   0  0  0  0  0  0  0  0  0  0  0  0
   -0.0000   14.4904    0.0000 F   0  0  0  0  0  0  0  0  0  0  0  0
   -2.2500   14.2894    0.0000 C   0  0  0  0  0  0  0  0  0  0  0  0
   -3.7500   14.2894    0.0000 C   0  0  0  0  0  0  0  0  0  0  0  0
   -4.5000   12.9904    0.0000 C   0  0  0  0  0  0  0  0  0  0  0  0
   -6.0000   12.9904    0.0000 F   0  0  0  0  0  0  0  0  0  0  0  0
   -4.5000    5.1962    0.0000 C   0  0  0  0  0  0  0  0  0  0  0  0
   -3.7500    3.8971    0.0000 C   0  0  0  0  0  0  0  0  0  0  0  0
   -1.5000    0.0000    0.0000 C   0  0  0  0  0  0  0  0  0  0  0  0
   -0.7500   -1.2990    0.0000 C   0  0  0  0  0  0  0  0  0  0  0  0
   -1.2135   -2.7256    0.0000 N   0  0  0  0  0  0  0  0  0  0  0  0
  1  2  1  0
  2  3  1  0
  3  4  2  0
  3  5  1  0
  5  6  1  0
  6  7  2  0
  7  8  1  0
  8  9  2  0
  9 10  1  0
 10 11  2  0
 11 12  1  0
 12 13  2  0
 12 14  2  0
 12 15  1  0
 15 16  2  0
 16 17  1  0
 17 18  2  0
 18 19  1  0
 19 20  1  0
 20 21  2  0
 20 22  1  0
 22 23  1  0
 23 24  2  0
 24 25  1  0
 25 26  1  0
 26 27  1  0
 26 28  1  0
 26 29  1  0
 25 30  2  0
 30 31  1  0
 31 32  2  0
 32 33  1  0
 18 34  1  0
 34 35  2  0
 11 36  1  0
 36 37  2  0
 37 38  1  0
 38  6  1  0
 37  8  1  0
 35 15  1  0
 32 23  1  0
M  END
>  <Compound_ID>  (360) 
CHEMBL1909367

>  <Active>  (360) 
0.0

>  <Smiles>  (360) 
COC(=O)Nc1nc2ccc(S(=O)(=O)c3ccc(NC(=O)Nc4cc(C(F)(F)F)ccc4F)cc3)cc2[nH]1

>  <canonical_smi>  (360) 
COC(=O)Nc1nc2ccc(S(=O)(=O)c3ccc(NC(=O)Nc4cc(C(F)(F)F)ccc4F)cc3)cc2[nH]1

>  <Set>  (360) 
G2 inactive

>  <Set_type>  (360) 
External

>  <MW>  (360) 
551.48

>  <HBD>  (360) 
4

>  <HBA>  (360) 
6

>  <NRB>  (360) 
5

>  <NR>  (360) 
4

>  <NAR>  (360) 
4

>  <PSA>  (360) 
142.28

>  <Standard Type>  (360) 
Inhibition

>  <Standard Relation>  (360) 
'='

>  <Standard Units>  (360) 
%

>  <Standard Value>  (360) 
-0.86

>  <Assay ChEMBL ID>  (360) 
CHEMBL1962142

>  <Assay Description>  (360) 
GSK_PKIS: MET mean inhibition at 0.1 uM [Nanosyn]

>  <BAO Label>  (360) 
single protein format

$$$$

     RDKit          2D

 31 35  0  0  0  0  0  0  0  0999 V2000
    3.0000   -5.1962    0.0000 C   0  0  0  0  0  0  0  0  0  0  0  0
    1.5000   -5.1962    0.0000 O   0  0  0  0  0  0  0  0  0  0  0  0
    0.7500   -3.8971    0.0000 C   0  0  0  0  0  0  0  0  0  0  0  0
    1.5000   -2.5981    0.0000 C   0  0  0  0  0  0  0  0  0  0  0  0
    0.7500   -1.2990    0.0000 C   0  0  0  0  0  0  0  0  0  0  0  0
    1.5000    0.0000    0.0000 N   0  0  0  0  0  0  0  0  0  0  0  0
    0.7500    1.2990    0.0000 C   0  0  0  0  0  0  0  0  0  0  0  0
   -0.7500    1.2990    0.0000 N   0  0  0  0  0  0  0  0  0  0  0  0
   -1.5000    0.0000    0.0000 C   0  0  0  0  0  0  0  0  0  0  0  0
   -3.0000    0.0000    0.0000 N   0  0  0  0  0  0  0  0  0  0  0  0
   -3.7500    1.2990    0.0000 C   0  0  0  0  0  0  0  0  0  0  0  0
   -3.0000    2.5981    0.0000 C   0  0  0  0  0  0  0  0  0  0  0  0
   -3.7500    3.8971    0.0000 C   0  0  0  0  0  0  0  0  0  0  0  0
   -5.2500    3.8971    0.0000 C   0  0  0  0  0  0  0  0  0  0  0  0
   -6.0000    2.5981    0.0000 C   0  0  0  0  0  0  0  0  0  0  0  0
   -7.4672    2.9099    0.0000 C   0  0  0  0  0  0  0  0  0  0  0  0
   -7.6240    4.4017    0.0000 N   0  0  0  0  0  0  0  0  0  0  0  0
   -6.2537    5.0118    0.0000 N   0  0  0  0  0  0  0  0  0  0  0  0
   -5.9418    6.4791    0.0000 C   0  0  0  0  0  0  0  0  0  0  0  0
   -7.0565    7.4827    0.0000 C   0  0  0  0  0  0  0  0  0  0  0  0
   -6.7447    8.9500    0.0000 C   0  0  0  0  0  0  0  0  0  0  0  0
   -7.8594    9.9537    0.0000 C   0  0  0  0  0  0  0  0  0  0  0  0
   -9.2860    9.4901    0.0000 C   0  0  0  0  0  0  0  0  0  0  0  0
   -9.5978    8.0229    0.0000 C   0  0  0  0  0  0  0  0  0  0  0  0
   -8.4831    7.0192    0.0000 C   0  0  0  0  0  0  0  0  0  0  0  0
   -5.2500    1.2990    0.0000 C   0  0  0  0  0  0  0  0  0  0  0  0
   -0.7500   -1.2990    0.0000 C   0  0  0  0  0  0  0  0  0  0  0  0
   -1.5000   -2.5981    0.0000 C   0  0  0  0  0  0  0  0  0  0  0  0
   -0.7500   -3.8971    0.0000 C   0  0  0  0  0  0  0  0  0  0  0  0
   -1.5000   -5.1962    0.0000 O   0  0  0  0  0  0  0  0  0  0  0  0
   -3.0000   -5.1962    0.0000 C   0  0  0  0  0  0  0  0  0  0  0  0
  1  2  1  0
  2  3  1  0
  3  4  2  0
  4  5  1  0
  5  6  2  0
  6  7  1  0
  7  8  2  0
  8  9  1  0
  9 10  1  0
 10 11  1  0
 11 12  2  0
 12 13  1  0
 13 14  2  0
 14 15  1  0
 15 16  1  0
 16 17  2  0
 17 18  1  0
 18 19  1  0
 19 20  1  0
 20 21  2  0
 21 22  1  0
 22 23  2  0
 23 24  1  0
 24 25  2  0
 15 26  2  0
  9 27  2  0
 27 28  1  0
 28 29  2  0
 29 30  1  0
 30 31  1  0
 29  3  1  0
 27  5  1  0
 26 11  1  0
 18 14  1  0
 25 20  1  0
M  END
>  <Compound_ID>  (361) 
CHEMBL1909380

>  <Active>  (361) 
0.0

>  <Smiles>  (361) 
COc1cc2ncnc(Nc3ccc4c(cnn4Cc4ccccc4)c3)c2cc1OC

>  <canonical_smi>  (361) 
COc1cc2ncnc(Nc3ccc4c(cnn4Cc4ccccc4)c3)c2cc1OC

>  <Set>  (361) 
G2 inactive

>  <Set_type>  (361) 
External

>  <MW>  (361) 
411.47

>  <HBD>  (361) 
1

>  <HBA>  (361) 
6

>  <NRB>  (361) 
6

>  <NR>  (361) 
5

>  <NAR>  (361) 
5

>  <PSA>  (361) 
74.09

>  <Standard Type>  (361) 
Inhibition

>  <Standard Relation>  (361) 
'='

>  <Standard Units>  (361) 
%

>  <Standard Value>  (361) 
3.19

>  <Assay ChEMBL ID>  (361) 
CHEMBL1962143

>  <Assay Description>  (361) 
GSK_PKIS: MET mean inhibition at 1 uM [Nanosyn]

>  <BAO Label>  (361) 
single protein format

$$$$

     RDKit          2D

 32 36  0  0  0  0  0  0  0  0999 V2000
    1.5000    0.0000    0.0000 C   0  0  0  0  0  0  0  0  0  0  0  0
    0.7500   -1.2990    0.0000 C   0  0  0  0  0  0  0  0  0  0  0  0
   -0.7500   -1.2990    0.0000 C   0  0  0  0  0  0  0  0  0  0  0  0
   -1.5000    0.0000    0.0000 C   0  0  0  0  0  0  0  0  0  0  0  0
   -3.0000    0.0000    0.0000 C   0  0  0  0  0  0  0  0  0  0  0  0
   -3.8817   -1.2135    0.0000 N   0  0  0  0  0  0  0  0  0  0  0  0
   -5.3083   -0.7500    0.0000 N   0  0  0  0  0  0  0  0  0  0  0  0
   -5.3083    0.7500    0.0000 C   0  0  0  0  0  0  0  0  0  0  0  0
   -3.8817    1.2135    0.0000 C   0  0  0  0  0  0  0  0  0  0  0  0
   -3.4182    2.6401    0.0000 C   0  0  0  0  0  0  0  0  0  0  0  0
   -1.9509    2.9520    0.0000 C   0  0  0  0  0  0  0  0  0  0  0  0
   -1.4874    4.3786    0.0000 C   0  0  0  0  0  0  0  0  0  0  0  0
   -2.4911    5.4933    0.0000 N   0  0  0  0  0  0  0  0  0  0  0  0
   -3.9583    5.1814    0.0000 C   0  0  0  0  0  0  0  0  0  0  0  0
   -4.9620    6.2961    0.0000 C   0  0  0  0  0  0  0  0  0  0  0  0
   -4.4985    7.7227    0.0000 C   0  0  0  0  0  0  0  0  0  0  0  0
   -5.5022    8.8374    0.0000 C   0  0  0  0  0  0  0  0  0  0  0  0
   -6.9694    8.5256    0.0000 C   0  0  0  0  0  0  0  0  0  0  0  0
   -7.9731    9.6403    0.0000 O   0  0  0  0  0  0  0  0  0  0  0  0
   -7.5096   11.0669    0.0000 C   0  0  0  0  0  0  0  0  0  0  0  0
   -8.5133   12.1816    0.0000 C   0  0  0  0  0  0  0  0  0  0  0  0
   -8.0498   13.6082    0.0000 N   0  0  0  0  0  0  0  0  0  0  0  0
   -6.5825   13.9200    0.0000 C   0  0  0  0  0  0  0  0  0  0  0  0
   -6.1190   15.3466    0.0000 C   0  0  0  0  0  0  0  0  0  0  0  0
   -7.1227   16.4613    0.0000 O   0  0  0  0  0  0  0  0  0  0  0  0
   -8.5899   16.1495    0.0000 C   0  0  0  0  0  0  0  0  0  0  0  0
   -9.0534   14.7229    0.0000 C   0  0  0  0  0  0  0  0  0  0  0  0
   -7.4329    7.0990    0.0000 C   0  0  0  0  0  0  0  0  0  0  0  0
   -6.4292    5.9843    0.0000 C   0  0  0  0  0  0  0  0  0  0  0  0
   -4.4218    3.7548    0.0000 C   0  0  0  0  0  0  0  0  0  0  0  0
   -0.7500    1.2990    0.0000 N   0  0  0  0  0  0  0  0  0  0  0  0
    0.7500    1.2990    0.0000 C   0  0  0  0  0  0  0  0  0  0  0  0
  1  2  2  0
  2  3  1  0
  3  4  2  0
  4  5  1  0
  5  6  2  0
  6  7  1  0
  7  8  1  0
  8  9  2  0
  9 10  1  0
 10 11  2  0
 11 12  1  0
 12 13  2  0
 13 14  1  0
 14 15  1  0
 15 16  2  0
 16 17  1  0
 17 18  2  0
 18 19  1  0
 19 20  1  0
 20 21  1  0
 21 22  1  0
 22 23  1  0
 23 24  1  0
 24 25  1  0
 25 26  1  0
 26 27  1  0
 18 28  1  0
 28 29  2  0
 14 30  2  0
  4 31  1  0
 31 32  2  0
 32  1  1  0
  9  5  1  0
 30 10  1  0
 29 15  1  0
 27 22  1  0
M  END
>  <Compound_ID>  (362) 
CHEMBL205158

>  <Active>  (362) 
0.0

>  <Smiles>  (362) 
c1ccc(-c2n[nH]cc2-c2ccnc(-c3ccc(OCCN4CCOCC4)cc3)c2)nc1

>  <canonical_smi>  (362) 
c1ccc(-c2n[nH]cc2-c2ccnc(-c3ccc(OCCN4CCOCC4)cc3)c2)nc1

>  <Set>  (362) 
G2 inactive

>  <Set_type>  (362) 
External

>  <MW>  (362) 
427.51

>  <HBD>  (362) 
1

>  <HBA>  (362) 
6

>  <NRB>  (362) 
7

>  <NR>  (362) 
5

>  <NAR>  (362) 
4

>  <PSA>  (362) 
76.16

>  <Standard Type>  (362) 
Inhibition

>  <Standard Relation>  (362) 
'='

>  <Standard Units>  (362) 
%

>  <Standard Value>  (362) 
6.54

>  <Assay ChEMBL ID>  (362) 
CHEMBL1962143

>  <Assay Description>  (362) 
GSK_PKIS: MET mean inhibition at 1 uM [Nanosyn]

>  <BAO Label>  (362) 
single protein format

$$$$

     RDKit          2D

 27 30  0  0  0  0  0  0  0  0999 V2000
    9.6612    4.5113    0.0000 C   0  0  0  0  0  0  0  0  0  0  0  0
    8.6575    5.6260    0.0000 C   0  0  0  0  0  0  0  0  0  0  0  0
    7.1902    5.3142    0.0000 N   0  0  0  0  0  0  0  0  0  0  0  0
    6.7267    3.8876    0.0000 C   0  0  0  0  0  0  0  0  0  0  0  0
    5.2595    3.5757    0.0000 C   0  0  0  0  0  0  0  0  0  0  0  0
    4.2558    4.6904    0.0000 C   0  0  0  0  0  0  0  0  0  0  0  0
    2.7886    4.3786    0.0000 C   0  0  0  0  0  0  0  0  0  0  0  0
    2.3250    2.9520    0.0000 C   0  0  0  0  0  0  0  0  0  0  0  0
    3.3287    1.8373    0.0000 O   0  0  0  0  0  0  0  0  0  0  0  0
    0.8578    2.6401    0.0000 N   0  0  0  0  0  0  0  0  0  0  0  0
    0.3943    1.2135    0.0000 C   0  0  0  0  0  0  0  0  0  0  0  0
    1.2760    0.0000    0.0000 N   0  0  0  0  0  0  0  0  0  0  0  0
    0.3943   -1.2135    0.0000 N   0  0  0  0  0  0  0  0  0  0  0  0
   -1.0323   -0.7500    0.0000 C   0  0  0  0  0  0  0  0  0  0  0  0
   -2.3313   -1.5000    0.0000 N   0  0  0  0  0  0  0  0  0  0  0  0
   -3.6304   -0.7500    0.0000 C   0  0  0  0  0  0  0  0  0  0  0  0
   -4.9294   -1.5000    0.0000 C   0  0  0  0  0  0  0  0  0  0  0  0
   -5.0862   -2.9918    0.0000 C   0  0  0  0  0  0  0  0  0  0  0  0
   -6.5534   -3.3037    0.0000 C   0  0  0  0  0  0  0  0  0  0  0  0
   -7.3034   -2.0046    0.0000 C   0  0  0  0  0  0  0  0  0  0  0  0
   -6.2997   -0.8899    0.0000 S   0  0  0  0  0  0  0  0  0  0  0  0
   -3.6304    0.7500    0.0000 C   0  0  0  0  0  0  0  0  0  0  0  0
   -4.9294    1.5000    0.0000 Br  0  0  0  0  0  0  0  0  0  0  0  0
   -2.3313    1.5000    0.0000 C   0  0  0  0  0  0  0  0  0  0  0  0
   -1.0323    0.7500    0.0000 C   0  0  0  0  0  0  0  0  0  0  0  0
    4.7193    6.1170    0.0000 C   0  0  0  0  0  0  0  0  0  0  0  0
    6.1865    6.4289    0.0000 C   0  0  0  0  0  0  0  0  0  0  0  0
  1  2  1  0
  2  3  1  0
  3  4  1  0
  4  5  1  0
  5  6  1  0
  6  7  1  0
  7  8  1  0
  8  9  2  0
  8 10  1  0
 10 11  1  0
 11 12  2  0
 12 13  1  0
 13 14  1  0
 14 15  2  0
 15 16  1  0
 16 17  1  0
 17 18  2  0
 18 19  1  0
 19 20  2  0
 20 21  1  0
 16 22  2  0
 22 23  1  0
 22 24  1  0
 24 25  2  0
  6 26  1  0
 26 27  1  0
 27  3  1  0
 25 11  1  0
 25 14  1  0
 21 17  1  0
M  END
>  <Compound_ID>  (363) 
CHEMBL2062290

>  <Active>  (363) 
0.0

>  <Smiles>  (363) 
CCN1CCC(CC(=O)Nc2n[nH]c3nc(-c4cccs4)c(Br)cc23)CC1

>  <canonical_smi>  (363) 
CCN1CCC(CC(=O)Nc2n[nH]c3nc(-c4cccs4)c(Br)cc23)CC1

>  <Set>  (363) 
G2 inactive

>  <Set_type>  (363) 
External

>  <MW>  (363) 
448.39

>  <HBD>  (363) 
2

>  <HBA>  (363) 
4

>  <NRB>  (363) 
5

>  <NR>  (363) 
4

>  <NAR>  (363) 
3

>  <PSA>  (363) 
73.91

>  <Standard Type>  (363) 
Inhibition

>  <Standard Relation>  (363) 
'='

>  <Standard Units>  (363) 
%

>  <Standard Value>  (363) 
-0.55

>  <Assay ChEMBL ID>  (363) 
CHEMBL1962142

>  <Assay Description>  (363) 
GSK_PKIS: MET mean inhibition at 0.1 uM [Nanosyn]

>  <BAO Label>  (363) 
single protein format

$$$$

     RDKit          2D

 36 40  0  0  0  0  0  0  0  0999 V2000
   -3.7548   -2.1855    0.0000 C   0  0  0  0  0  0  0  0  0  0  0  0
   -2.6401   -3.1891    0.0000 C   0  0  0  0  0  0  0  0  0  0  0  0
   -1.2135   -2.7256    0.0000 N   0  0  0  0  0  0  0  0  0  0  0  0
   -0.0000   -3.6073    0.0000 C   0  0  0  0  0  0  0  0  0  0  0  0
   -0.0000   -5.1073    0.0000 C   0  0  0  0  0  0  0  0  0  0  0  0
    1.2135   -5.9890    0.0000 N   0  0  0  0  0  0  0  0  0  0  0  0
    0.7500   -7.4156    0.0000 O   0  0  0  0  0  0  0  0  0  0  0  0
   -0.7500   -7.4156    0.0000 N   0  0  0  0  0  0  0  0  0  0  0  0
   -1.2135   -5.9890    0.0000 C   0  0  0  0  0  0  0  0  0  0  0  0
   -2.6401   -5.5255    0.0000 N   0  0  0  0  0  0  0  0  0  0  0  0
    1.2135   -2.7256    0.0000 N   0  0  0  0  0  0  0  0  0  0  0  0
    0.7500   -1.2990    0.0000 C   0  0  0  0  0  0  0  0  0  0  0  0
    1.5000    0.0000    0.0000 C   0  0  0  0  0  0  0  0  0  0  0  0
    0.7500    1.2990    0.0000 N   0  0  0  0  0  0  0  0  0  0  0  0
   -0.7500    1.2990    0.0000 C   0  0  0  0  0  0  0  0  0  0  0  0
   -1.5000    2.5981    0.0000 O   0  0  0  0  0  0  0  0  0  0  0  0
   -0.7500    3.8971    0.0000 C   0  0  0  0  0  0  0  0  0  0  0  0
    0.7500    3.8971    0.0000 C   0  0  0  0  0  0  0  0  0  0  0  0
    1.5000    5.1962    0.0000 C   0  0  0  0  0  0  0  0  0  0  0  0
    0.7500    6.4952    0.0000 C   0  0  0  0  0  0  0  0  0  0  0  0
   -0.7500    6.4952    0.0000 C   0  0  0  0  0  0  0  0  0  0  0  0
   -1.5000    7.7942    0.0000 N   0  0  0  0  0  0  0  0  0  0  0  0
   -0.7500    9.0933    0.0000 C   0  0  0  0  0  0  0  0  0  0  0  0
    0.7500    9.0933    0.0000 O   0  0  0  0  0  0  0  0  0  0  0  0
   -1.5000   10.3923    0.0000 C   0  0  0  0  0  0  0  0  0  0  0  0
   -0.7500   11.6913    0.0000 C   0  0  0  0  0  0  0  0  0  0  0  0
   -1.5000   12.9904    0.0000 C   0  0  0  0  0  0  0  0  0  0  0  0
   -3.0000   12.9904    0.0000 C   0  0  0  0  0  0  0  0  0  0  0  0
   -3.7500   14.2894    0.0000 N   0  0  0  0  0  0  0  0  0  0  0  0
   -3.0000   15.5885    0.0000 C   0  0  0  0  0  0  0  0  0  0  0  0
   -5.2500   14.2894    0.0000 C   0  0  0  0  0  0  0  0  0  0  0  0
   -3.7500   11.6913    0.0000 C   0  0  0  0  0  0  0  0  0  0  0  0
   -3.0000   10.3923    0.0000 C   0  0  0  0  0  0  0  0  0  0  0  0
   -1.5000    5.1962    0.0000 C   0  0  0  0  0  0  0  0  0  0  0  0
   -1.5000    0.0000    0.0000 C   0  0  0  0  0  0  0  0  0  0  0  0
   -0.7500   -1.2990    0.0000 C   0  0  0  0  0  0  0  0  0  0  0  0
  1  2  1  0
  2  3  1  0
  3  4  1  0
  4  5  1  0
  5  6  2  0
  6  7  1  0
  7  8  1  0
  8  9  2  0
  9 10  1  0
  4 11  2  0
 11 12  1  0
 12 13  2  0
 13 14  1  0
 14 15  2  0
 15 16  1  0
 16 17  1  0
 17 18  2  0
 18 19  1  0
 19 20  2  0
 20 21  1  0
 21 22  1  0
 22 23  1  0
 23 24  2  0
 23 25  1  0
 25 26  2  0
 26 27  1  0
 27 28  2  0
 28 29  1  0
 29 30  1  0
 29 31  1  0
 28 32  1  0
 32 33  2  0
 21 34  2  0
 15 35  1  0
 35 36  2  0
 36  3  1  0
  9  5  1  0
 36 12  1  0
 34 17  1  0
 33 25  1  0
M  END
>  <Compound_ID>  (364) 
CHEMBL220465

>  <Active>  (364) 
0.0

>  <Smiles>  (364) 
CCn1c(-c2nonc2N)nc2cnc(Oc3cccc(NC(=O)c4ccc(N(C)C)cc4)c3)cc21

>  <canonical_smi>  (364) 
CCn1c(-c2nonc2N)nc2cnc(Oc3cccc(NC(=O)c4ccc(N(C)C)cc4)c3)cc21

>  <Set>  (364) 
G2 inactive

>  <Set_type>  (364) 
External

>  <MW>  (364) 
484.52

>  <HBD>  (364) 
2

>  <HBA>  (364) 
9

>  <NRB>  (364) 
7

>  <NR>  (364) 
5

>  <NAR>  (364) 
5

>  <PSA>  (364) 
137.22

>  <Standard Type>  (364) 
Inhibition

>  <Standard Relation>  (364) 
'='

>  <Standard Units>  (364) 
%

>  <Standard Value>  (364) 
-2.97

>  <Assay ChEMBL ID>  (364) 
CHEMBL1962142

>  <Assay Description>  (364) 
GSK_PKIS: MET mean inhibition at 0.1 uM [Nanosyn]

>  <BAO Label>  (364) 
single protein format

$$$$

     RDKit          2D

 25 28  0  0  0  0  0  0  0  0999 V2000
   -5.2046    0.1696    0.0000 N   0  0  0  0  0  0  0  0  0  0  0  0
   -5.6682   -1.2570    0.0000 C   0  0  0  0  0  0  0  0  0  0  0  0
   -6.1317   -2.6836    0.0000 C   0  0  0  0  0  0  0  0  0  0  0  0
   -5.2500   -3.8971    0.0000 C   0  0  0  0  0  0  0  0  0  0  0  0
   -3.7500   -3.8971    0.0000 N   0  0  0  0  0  0  0  0  0  0  0  0
   -3.0000   -2.5981    0.0000 C   0  0  0  0  0  0  0  0  0  0  0  0
   -3.7500   -1.2990    0.0000 O   0  0  0  0  0  0  0  0  0  0  0  0
   -1.5000   -2.5981    0.0000 C   0  0  0  0  0  0  0  0  0  0  0  0
   -0.7500   -3.8971    0.0000 C   0  0  0  0  0  0  0  0  0  0  0  0
    0.7500   -3.8971    0.0000 C   0  0  0  0  0  0  0  0  0  0  0  0
    1.5000   -2.5981    0.0000 C   0  0  0  0  0  0  0  0  0  0  0  0
    3.0000   -2.5981    0.0000 F   0  0  0  0  0  0  0  0  0  0  0  0
    0.7500   -1.2990    0.0000 C   0  0  0  0  0  0  0  0  0  0  0  0
    1.5000    0.0000    0.0000 C   0  0  0  0  0  0  0  0  0  0  0  0
    0.7500    1.2990    0.0000 C   0  0  0  0  0  0  0  0  0  0  0  0
   -0.7500    1.2990    0.0000 C   0  0  0  0  0  0  0  0  0  0  0  0
   -1.5000    0.0000    0.0000 C   0  0  0  0  0  0  0  0  0  0  0  0
   -0.7500   -1.2990    0.0000 C   0  0  0  0  0  0  0  0  0  0  0  0
   -6.1317   -5.1106    0.0000 S   0  0  0  0  0  0  0  0  0  0  0  0
   -7.5583   -4.6471    0.0000 C   0  0  0  0  0  0  0  0  0  0  0  0
   -7.5583   -3.1471    0.0000 C   0  0  0  0  0  0  0  0  0  0  0  0
   -8.8573   -2.3971    0.0000 C   0  0  0  0  0  0  0  0  0  0  0  0
  -10.1563   -3.1471    0.0000 C   0  0  0  0  0  0  0  0  0  0  0  0
  -10.1563   -4.6471    0.0000 C   0  0  0  0  0  0  0  0  0  0  0  0
   -8.8573   -5.3971    0.0000 C   0  0  0  0  0  0  0  0  0  0  0  0
  1  2  3  0
  2  3  1  0
  3  4  2  0
  4  5  1  0
  5  6  1  0
  6  7  2  0
  6  8  1  0
  8  9  2  0
  9 10  1  0
 10 11  2  0
 11 12  1  0
 11 13  1  0
 13 14  2  0
 14 15  1  0
 15 16  2  0
 16 17  1  0
 17 18  2  0
  4 19  1  0
 19 20  1  0
 20 21  2  0
 21 22  1  0
 22 23  1  0
 23 24  1  0
 24 25  1  0
 21  3  1  0
 18  8  1  0
 25 20  1  0
 18 13  1  0
M  END
>  <Compound_ID>  (365) 
CHEMBL233002

>  <Active>  (365) 
0.0

>  <Smiles>  (365) 
N#Cc1c(NC(=O)c2ccc(F)c3ccccc23)sc2c1CCCC2

>  <canonical_smi>  (365) 
N#Cc1c(NC(=O)c2ccc(F)c3ccccc23)sc2c1CCCC2

>  <Set>  (365) 
G2 inactive

>  <Set_type>  (365) 
External

>  <MW>  (365) 
350.42

>  <HBD>  (365) 
1

>  <HBA>  (365) 
2

>  <NRB>  (365) 
2

>  <NR>  (365) 
4

>  <NAR>  (365) 
3

>  <PSA>  (365) 
52.89

>  <Standard Type>  (365) 
Inhibition

>  <Standard Relation>  (365) 
'='

>  <Standard Units>  (365) 
%

>  <Standard Value>  (365) 
8.82

>  <Assay ChEMBL ID>  (365) 
CHEMBL1962142

>  <Assay Description>  (365) 
GSK_PKIS: MET mean inhibition at 0.1 uM [Nanosyn]

>  <BAO Label>  (365) 
single protein format

$$$$
